
     RDKit          3D

 44 46  0  0  0  0  0  0  0  0999 V2000
    1.0485    1.8008    0.8796 O   0  0  0  0  0  0  0  0  0  0  0  0
    1.1104    0.8816    0.0677 C   0  0  0  0  0  0  0  0  0  0  0  0
    2.2848    0.4653   -0.5203 N   0  0  0  0  0  0  0  0  0  0  0  0
    3.5896    0.9677   -0.1202 C   0  0  0  0  0  0  0  0  0  0  0  0
    4.0404    0.2845    1.1838 C   0  0  0  0  0  0  0  0  0  0  0  0
    5.5578    0.2187    1.2958 C   0  0  0  0  0  0  0  0  0  0  0  0
    6.1743   -0.5882    0.1518 C   0  0  0  0  0  0  0  0  0  0  0  0
    5.3770   -0.5075   -1.1519 C   0  0  0  0  0  0  0  0  0  0  0  0
    4.6047    0.8024   -1.2633 C   0  0  0  0  0  0  0  0  0  0  0  0
   -0.0476    0.1309   -0.3482 C   0  0  0  0  0  0  0  0  0  0  0  0
   -0.0428   -0.8885   -1.1845 N   0  0  0  0  0  0  0  0  0  0  0  0
   -1.3395   -1.3318   -1.3132 N   0  0  0  0  0  0  0  0  0  0  0  0
   -2.1098   -0.5778   -0.5553 C   0  0  0  0  0  0  0  0  0  0  0  0
   -3.5905   -0.6934   -0.3820 C   0  0  0  0  0  0  0  0  0  0  0  0
   -4.3148    0.5710   -0.8671 C   0  0  0  0  0  0  0  0  0  0  0  0
   -5.8266    0.4565   -0.6815 C   0  0  0  0  0  0  0  0  0  0  0  0
   -6.1930    0.1245    0.7621 C   0  0  0  0  0  0  0  0  0  0  0  0
   -5.4764   -1.1311    1.2502 C   0  0  0  0  0  0  0  0  0  0  0  0
   -3.9635   -1.0221    1.0711 C   0  0  0  0  0  0  0  0  0  0  0  0
   -1.3286    0.3565    0.0704 N   0  0  0  0  0  0  0  0  0  0  0  0
    2.2229   -0.3811   -1.0805 H   0  0  0  0  0  0  0  0  0  0  0  0
    3.4737    2.0425    0.0701 H   0  0  0  0  0  0  0  0  0  0  0  0
    3.6241    0.8241    2.0431 H   0  0  0  0  0  0  0  0  0  0  0  0
    3.6378   -0.7358    1.2416 H   0  0  0  0  0  0  0  0  0  0  0  0
    5.8498   -0.2224    2.2556 H   0  0  0  0  0  0  0  0  0  0  0  0
    5.9644    1.2378    1.2846 H   0  0  0  0  0  0  0  0  0  0  0  0
    6.2622   -1.6415    0.4447 H   0  0  0  0  0  0  0  0  0  0  0  0
    7.1981   -0.2324   -0.0162 H   0  0  0  0  0  0  0  0  0  0  0  0
    4.6732   -1.3478   -1.2011 H   0  0  0  0  0  0  0  0  0  0  0  0
    6.0566   -0.6210   -2.0042 H   0  0  0  0  0  0  0  0  0  0  0  0
    5.3230    1.6318   -1.2262 H   0  0  0  0  0  0  0  0  0  0  0  0
    4.1085    0.8644   -2.2393 H   0  0  0  0  0  0  0  0  0  0  0  0
   -3.9260   -1.5313   -1.0098 H   0  0  0  0  0  0  0  0  0  0  0  0
   -4.0917    0.7508   -1.9262 H   0  0  0  0  0  0  0  0  0  0  0  0
   -3.9545    1.4517   -0.3194 H   0  0  0  0  0  0  0  0  0  0  0  0
   -6.3060    1.3968   -0.9763 H   0  0  0  0  0  0  0  0  0  0  0  0
   -6.2177   -0.3235   -1.3463 H   0  0  0  0  0  0  0  0  0  0  0  0
   -5.9286    0.9700    1.4090 H   0  0  0  0  0  0  0  0  0  0  0  0
   -7.2769   -0.0142    0.8446 H   0  0  0  0  0  0  0  0  0  0  0  0
   -5.7107   -1.3017    2.3070 H   0  0  0  0  0  0  0  0  0  0  0  0
   -5.8474   -2.0022    0.6961 H   0  0  0  0  0  0  0  0  0  0  0  0
   -3.4927   -1.9646    1.3776 H   0  0  0  0  0  0  0  0  0  0  0  0
   -3.5796   -0.2480    1.7486 H   0  0  0  0  0  0  0  0  0  0  0  0
   -1.6168    1.0774    0.7166 H   0  0  0  0  0  0  0  0  0  0  0  0
  1  2  2  0
  2  3  1  0
  3  4  1  0
  4  5  1  0
  5  6  1  0
  6  7  1  0
  7  8  1  0
  8  9  1  0
  2 10  1  0
 10 11  2  0
 11 12  1  0
 12 13  2  0
 13 14  1  0
 14 15  1  0
 15 16  1  0
 16 17  1  0
 17 18  1  0
 18 19  1  0
 13 20  1  0
  9  4  1  0
 20 10  1  0
 19 14  1  0
  3 21  1  0
  4 22  1  0
  5 23  1  0
  5 24  1  0
  6 25  1  0
  6 26  1  0
  7 27  1  0
  7 28  1  0
  8 29  1  0
  8 30  1  0
  9 31  1  0
  9 32  1  0
 14 33  1  0
 15 34  1  0
 15 35  1  0
 16 36  1  0
 16 37  1  0
 17 38  1  0
 17 39  1  0
 18 40  1  0
 18 41  1  0
 19 42  1  0
 19 43  1  0
 20 44  1  0
M  END
>  <_SMILES>  (1) 
O=C(NC1CCCCC1)c1nnc(C2CCCCC2)[nH]1

$$$$

     RDKit          3D

 44 46  0  0  0  0  0  0  0  0999 V2000
    1.4469   -2.3576    1.1321 O   0  0  0  0  0  0  0  0  0  0  0  0
    1.0481   -1.2699    0.7273 C   0  0  0  0  0  0  0  0  0  0  0  0
    1.8585   -0.1646    0.5847 N   0  0  0  0  0  0  0  0  0  0  0  0
    3.3002   -0.2174    0.7442 C   0  0  0  0  0  0  0  0  0  0  0  0
    3.9773   -0.7431   -0.5241 C   0  0  0  0  0  0  0  0  0  0  0  0
    5.4887   -0.9002   -0.3406 C   0  0  0  0  0  0  0  0  0  0  0  0
    6.0855    0.0656    0.6843 C   0  0  0  0  0  0  0  0  0  0  0  0
    5.3136    1.3760    0.7416 C   0  0  0  0  0  0  0  0  0  0  0  0
    3.8492    1.1641    1.1344 C   0  0  0  0  0  0  0  0  0  0  0  0
   -0.3196   -1.0298    0.3429 C   0  0  0  0  0  0  0  0  0  0  0  0
   -0.8094    0.0993   -0.1375 N   0  0  0  0  0  0  0  0  0  0  0  0
   -2.1359   -0.1991   -0.3423 C   0  0  0  0  0  0  0  0  0  0  0  0
   -3.0962    0.8199   -0.8829 C   0  0  0  0  0  0  0  0  0  0  0  0
   -4.0433    1.3513    0.2024 C   0  0  0  0  0  0  0  0  0  0  0  0
   -5.1661    0.3806    0.5747 C   0  0  0  0  0  0  0  0  0  0  0  0
   -5.7188   -0.4119   -0.6096 C   0  0  0  0  0  0  0  0  0  0  0  0
   -5.3638    0.2173   -1.9483 C   0  0  0  0  0  0  0  0  0  0  0  0
   -3.8500    0.3301   -2.1366 C   0  0  0  0  0  0  0  0  0  0  0  0
   -2.4838   -1.4511   -0.0150 N   0  0  0  0  0  0  0  0  0  0  0  0
   -1.3152   -1.9550    0.4145 N   0  0  0  0  0  0  0  0  0  0  0  0
    1.4276    0.6332    0.1244 H   0  0  0  0  0  0  0  0  0  0  0  0
    3.5127   -0.9213    1.5599 H   0  0  0  0  0  0  0  0  0  0  0  0
    3.5483   -1.7045   -0.8317 H   0  0  0  0  0  0  0  0  0  0  0  0
    3.7825   -0.0491   -1.3530 H   0  0  0  0  0  0  0  0  0  0  0  0
    5.7198   -1.9266   -0.0307 H   0  0  0  0  0  0  0  0  0  0  0  0
    5.9765   -0.7583   -1.3126 H   0  0  0  0  0  0  0  0  0  0  0  0
    6.0729   -0.4029    1.6765 H   0  0  0  0  0  0  0  0  0  0  0  0
    7.1376    0.2539    0.4424 H   0  0  0  0  0  0  0  0  0  0  0  0
    5.3575    1.8603   -0.2422 H   0  0  0  0  0  0  0  0  0  0  0  0
    5.7875    2.0658    1.4492 H   0  0  0  0  0  0  0  0  0  0  0  0
    3.7382    1.2875    2.2194 H   0  0  0  0  0  0  0  0  0  0  0  0
    3.2524    1.9677    0.6839 H   0  0  0  0  0  0  0  0  0  0  0  0
   -2.4756    1.6703   -1.2013 H   0  0  0  0  0  0  0  0  0  0  0  0
   -4.5012    2.2794   -0.1660 H   0  0  0  0  0  0  0  0  0  0  0  0
   -3.4870    1.6281    1.1068 H   0  0  0  0  0  0  0  0  0  0  0  0
   -4.8176   -0.3209    1.3423 H   0  0  0  0  0  0  0  0  0  0  0  0
   -5.9774    0.9523    1.0421 H   0  0  0  0  0  0  0  0  0  0  0  0
   -6.8071   -0.5022   -0.5143 H   0  0  0  0  0  0  0  0  0  0  0  0
   -5.3251   -1.4353   -0.5781 H   0  0  0  0  0  0  0  0  0  0  0  0
   -5.8187    1.2134   -2.0166 H   0  0  0  0  0  0  0  0  0  0  0  0
   -5.7897   -0.3757   -2.7659 H   0  0  0  0  0  0  0  0  0  0  0  0
   -3.6651    1.0303   -2.9618 H   0  0  0  0  0  0  0  0  0  0  0  0
   -3.4577   -0.6355   -2.4803 H   0  0  0  0  0  0  0  0  0  0  0  0
   -1.2570   -2.9147    0.7376 H   0  0  0  0  0  0  0  0  0  0  0  0
  1  2  2  0
  2  3  1  0
  3  4  1  0
  4  5  1  0
  5  6  1  0
  6  7  1  0
  7  8  1  0
  8  9  1  0
  2 10  1  0
 10 11  2  0
 11 12  1  0
 12 13  1  0
 13 14  1  0
 14 15  1  0
 15 16  1  0
 16 17  1  0
 17 18  1  0
 12 19  2  0
 19 20  1  0
  9  4  1  0
 20 10  1  0
 18 13  1  0
  3 21  1  0
  4 22  1  0
  5 23  1  0
  5 24  1  0
  6 25  1  0
  6 26  1  0
  7 27  1  0
  7 28  1  0
  8 29  1  0
  8 30  1  0
  9 31  1  0
  9 32  1  0
 13 33  1  0
 14 34  1  0
 14 35  1  0
 15 36  1  0
 15 37  1  0
 16 38  1  0
 16 39  1  0
 17 40  1  0
 17 41  1  0
 18 42  1  0
 18 43  1  0
 20 44  1  0
M  END
>  <_SMILES>  (2) 
O=C(NC1CCCCC1)c1nc(C2CCCCC2)n[nH]1

$$$$

     RDKit          3D

 44 46  0  0  0  0  0  0  0  0999 V2000
    1.5779    0.2918    2.1712 O   0  0  0  0  0  0  0  0  0  0  0  0
    1.2864    0.3194    0.9783 C   0  0  0  0  0  0  0  0  0  0  0  0
    2.2334    0.4214   -0.0285 N   0  0  0  0  0  0  0  0  0  0  0  0
    3.6580    0.3262    0.2244 C   0  0  0  0  0  0  0  0  0  0  0  0
    4.4487    1.0431   -0.8816 C   0  0  0  0  0  0  0  0  0  0  0  0
    5.8735    0.5125   -1.0604 C   0  0  0  0  0  0  0  0  0  0  0  0
    6.4292   -0.0784    0.2273 C   0  0  0  0  0  0  0  0  0  0  0  0
    5.5812   -1.2493    0.7266 C   0  0  0  0  0  0  0  0  0  0  0  0
    4.0994   -1.1333    0.3612 C   0  0  0  0  0  0  0  0  0  0  0  0
   -0.0993    0.2315    0.4641 C   0  0  0  0  0  0  0  0  0  0  0  0
   -0.3841    0.2087   -0.8578 N   0  0  0  0  0  0  0  0  0  0  0  0
   -1.7239    0.1234   -0.8487 N   0  0  0  0  0  0  0  0  0  0  0  0
   -2.2224    0.0878    0.4218 C   0  0  0  0  0  0  0  0  0  0  0  0
   -3.6796   -0.0094    0.7545 C   0  0  0  0  0  0  0  0  0  0  0  0
   -4.3243   -1.2866    0.1799 C   0  0  0  0  0  0  0  0  0  0  0  0
   -5.1438   -1.0129   -1.0777 C   0  0  0  0  0  0  0  0  0  0  0  0
   -6.2639   -0.0022   -0.8251 C   0  0  0  0  0  0  0  0  0  0  0  0
   -5.9262    1.0339    0.2479 C   0  0  0  0  0  0  0  0  0  0  0  0
   -4.4254    1.2756    0.3510 C   0  0  0  0  0  0  0  0  0  0  0  0
   -1.2190    0.1528    1.2683 N   0  0  0  0  0  0  0  0  0  0  0  0
    1.8667    0.2977   -0.9685 H   0  0  0  0  0  0  0  0  0  0  0  0
    3.8554    0.8322    1.1788 H   0  0  0  0  0  0  0  0  0  0  0  0
    3.9309    0.9710   -1.8468 H   0  0  0  0  0  0  0  0  0  0  0  0
    4.4826    2.1144   -0.6448 H   0  0  0  0  0  0  0  0  0  0  0  0
    6.5231    1.3184   -1.4203 H   0  0  0  0  0  0  0  0  0  0  0  0
    5.8761   -0.2608   -1.8392 H   0  0  0  0  0  0  0  0  0  0  0  0
    7.4629   -0.4106    0.0786 H   0  0  0  0  0  0  0  0  0  0  0  0
    6.4606    0.7028    0.9972 H   0  0  0  0  0  0  0  0  0  0  0  0
    5.9703   -2.1901    0.3187 H   0  0  0  0  0  0  0  0  0  0  0  0
    5.6900   -1.3212    1.8156 H   0  0  0  0  0  0  0  0  0  0  0  0
    3.4993   -1.6592    1.1135 H   0  0  0  0  0  0  0  0  0  0  0  0
    3.9174   -1.6572   -0.5869 H   0  0  0  0  0  0  0  0  0  0  0  0
   -2.2259    0.0944   -1.7287 H   0  0  0  0  0  0  0  0  0  0  0  0
   -3.7407   -0.0968    1.8489 H   0  0  0  0  0  0  0  0  0  0  0  0
   -4.9983   -1.7095    0.9371 H   0  0  0  0  0  0  0  0  0  0  0  0
   -3.5739   -2.0602   -0.0235 H   0  0  0  0  0  0  0  0  0  0  0  0
   -4.4846   -0.6333   -1.8675 H   0  0  0  0  0  0  0  0  0  0  0  0
   -5.5738   -1.9466   -1.4579 H   0  0  0  0  0  0  0  0  0  0  0  0
   -6.4975    0.5045   -1.7694 H   0  0  0  0  0  0  0  0  0  0  0  0
   -7.1792   -0.5288   -0.5286 H   0  0  0  0  0  0  0  0  0  0  0  0
   -6.4484    1.9725    0.0301 H   0  0  0  0  0  0  0  0  0  0  0  0
   -6.3018    0.6872    1.2190 H   0  0  0  0  0  0  0  0  0  0  0  0
   -4.2241    2.0621    1.0891 H   0  0  0  0  0  0  0  0  0  0  0  0
   -4.0631    1.6613   -0.6109 H   0  0  0  0  0  0  0  0  0  0  0  0
  1  2  2  0
  2  3  1  0
  3  4  1  0
  4  5  1  0
  5  6  1  0
  6  7  1  0
  7  8  1  0
  8  9  1  0
  2 10  1  0
 10 11  2  0
 11 12  1  0
 12 13  1  0
 13 14  1  0
 14 15  1  0
 15 16  1  0
 16 17  1  0
 17 18  1  0
 18 19  1  0
 13 20  2  0
  9  4  1  0
 20 10  1  0
 19 14  1  0
  3 21  1  0
  4 22  1  0
  5 23  1  0
  5 24  1  0
  6 25  1  0
  6 26  1  0
  7 27  1  0
  7 28  1  0
  8 29  1  0
  8 30  1  0
  9 31  1  0
  9 32  1  0
 12 33  1  0
 14 34  1  0
 15 35  1  0
 15 36  1  0
 16 37  1  0
 16 38  1  0
 17 39  1  0
 17 40  1  0
 18 41  1  0
 18 42  1  0
 19 43  1  0
 19 44  1  0
M  END
>  <_SMILES>  (3) 
O=C(NC1CCCCC1)c1n[nH]c(C2CCCCC2)n1

$$$$

     RDKit          3D

 52 56  0  0  0  0  0  0  0  0999 V2000
   -0.8559    2.8364   -0.3669 O   0  0  0  0  0  0  0  0  0  0  0  0
   -0.3924    1.7022   -0.4379 C   0  0  0  0  0  0  0  0  0  0  0  0
   -1.2091    0.5880   -0.6080 N   0  0  0  0  0  0  0  0  0  0  0  0
   -2.6528    0.7381   -0.7740 C   0  0  1  0  0  0  0  0  0  0  0  0
   -3.2930   -0.5606   -1.3247 C   0  0  2  0  0  0  0  0  0  0  0  0
   -4.7816   -0.2901   -1.6173 C   0  0  0  0  0  0  0  0  0  0  0  0
   -5.5088    0.1215   -0.3249 C   0  0  1  0  0  0  0  0  0  0  0  0
   -5.3892   -1.0149    0.7050 C   0  0  0  0  0  0  0  0  0  0  0  0
   -3.9078   -1.2943    1.0112 C   0  0  1  0  0  0  0  0  0  0  0  0
   -3.1919   -1.6972   -0.2879 C   0  0  0  0  0  0  0  0  0  0  0  0
   -3.2581   -0.0190    1.5727 C   0  0  0  0  0  0  0  0  0  0  0  0
   -3.3631    1.1283    0.5484 C   0  0  2  0  0  0  0  0  0  0  0  0
   -4.8521    1.3898    0.2475 C   0  0  0  0  0  0  0  0  0  0  0  0
    1.0194    1.3916   -0.3661 C   0  0  0  0  0  0  0  0  0  0  0  0
    1.9915    2.2099   -0.7162 N   0  0  0  0  0  0  0  0  0  0  0  0
    3.1915    1.5684   -0.5083 N   0  0  0  0  0  0  0  0  0  0  0  0
    2.9375    0.3811   -0.0029 C   0  0  0  0  0  0  0  0  0  0  0  0
    3.9200   -0.6689    0.4118 C   0  0  0  0  0  0  0  0  0  0  0  0
    4.5687   -1.3068   -0.8313 C   0  0  0  0  0  0  0  0  0  0  0  0
    5.9241   -1.9206   -0.5039 C   0  0  0  0  0  0  0  0  0  0  0  0
    6.9168   -0.8689   -0.0062 C   0  0  0  0  0  0  0  0  0  0  0  0
    6.2534    0.3076    0.7123 C   0  0  0  0  0  0  0  0  0  0  0  0
    4.9572   -0.1047    1.4033 C   0  0  0  0  0  0  0  0  0  0  0  0
    1.5814    0.2312    0.0999 N   0  0  0  0  0  0  0  0  0  0  0  0
   -0.7821   -0.2097   -1.0578 H   0  0  0  0  0  0  0  0  0  0  0  0
   -2.7975    1.5418   -1.5087 H   0  0  0  0  0  0  0  0  0  0  0  0
   -2.7887   -0.8665   -2.2492 H   0  0  0  0  0  0  0  0  0  0  0  0
   -4.8780    0.5020   -2.3699 H   0  0  0  0  0  0  0  0  0  0  0  0
   -5.2491   -1.1880   -2.0399 H   0  0  0  0  0  0  0  0  0  0  0  0
   -6.5653    0.3162   -0.5402 H   0  0  0  0  0  0  0  0  0  0  0  0
   -5.8697   -1.9224    0.3190 H   0  0  0  0  0  0  0  0  0  0  0  0
   -5.9176   -0.7426    1.6269 H   0  0  0  0  0  0  0  0  0  0  0  0
   -3.8287   -2.1044    1.7447 H   0  0  0  0  0  0  0  0  0  0  0  0
   -2.1420   -1.9344   -0.0792 H   0  0  0  0  0  0  0  0  0  0  0  0
   -3.6436   -2.6110   -0.6939 H   0  0  0  0  0  0  0  0  0  0  0  0
   -3.7555    0.2710    2.5066 H   0  0  0  0  0  0  0  0  0  0  0  0
   -2.2081   -0.2113    1.8238 H   0  0  0  0  0  0  0  0  0  0  0  0
   -2.9198    2.0332    0.9779 H   0  0  0  0  0  0  0  0  0  0  0  0
   -4.9502    2.2173   -0.4658 H   0  0  0  0  0  0  0  0  0  0  0  0
   -5.3702    1.6979    1.1641 H   0  0  0  0  0  0  0  0  0  0  0  0
    3.3679   -1.4545    0.9470 H   0  0  0  0  0  0  0  0  0  0  0  0
    4.7016   -0.5660   -1.6313 H   0  0  0  0  0  0  0  0  0  0  0  0
    3.8995   -2.0754   -1.2378 H   0  0  0  0  0  0  0  0  0  0  0  0
    6.3354   -2.4266   -1.3847 H   0  0  0  0  0  0  0  0  0  0  0  0
    5.7935   -2.6918    0.2657 H   0  0  0  0  0  0  0  0  0  0  0  0
    7.6366   -1.3552    0.6634 H   0  0  0  0  0  0  0  0  0  0  0  0
    7.5003   -0.4803   -0.8497 H   0  0  0  0  0  0  0  0  0  0  0  0
    6.9526    0.7312    1.4422 H   0  0  0  0  0  0  0  0  0  0  0  0
    6.0418    1.1037   -0.0121 H   0  0  0  0  0  0  0  0  0  0  0  0
    5.1966   -0.8807    2.1428 H   0  0  0  0  0  0  0  0  0  0  0  0
    4.5494    0.7413    1.9700 H   0  0  0  0  0  0  0  0  0  0  0  0
    1.0850   -0.5549    0.4907 H   0  0  0  0  0  0  0  0  0  0  0  0
  1  2  2  0
  2  3  1  0
  3  4  1  0
  4  5  1  0
  5  6  1  0
  6  7  1  0
  7  8  1  0
  8  9  1  0
  9 10  1  0
  9 11  1  0
 11 12  1  0
 12 13  1  0
  2 14  1  0
 14 15  2  0
 15 16  1  0
 16 17  2  0
 17 18  1  0
 18 19  1  0
 19 20  1  0
 20 21  1  0
 21 22  1  0
 22 23  1  0
 17 24  1  0
 12  4  1  0
 24 14  1  0
 10  5  1  0
 23 18  1  0
 13  7  1  0
  3 25  1  0
  4 26  1  6
  5 27  1  6
  6 28  1  0
  6 29  1  0
  7 30  1  6
  8 31  1  0
  8 32  1  0
  9 33  1  1
 10 34  1  0
 10 35  1  0
 11 36  1  0
 11 37  1  0
 12 38  1  1
 13 39  1  0
 13 40  1  0
 18 41  1  0
 19 42  1  0
 19 43  1  0
 20 44  1  0
 20 45  1  0
 21 46  1  0
 21 47  1  0
 22 48  1  0
 22 49  1  0
 23 50  1  0
 23 51  1  0
 24 52  1  0
M  END
>  <_SMILES>  (4) 
O=C(N[C@H]1[C@@H]2C[C@H]3C[C@@H](C2)C[C@@H]1C3)c1nnc(C2CCCCC2)[nH]1

$$$$

     RDKit          3D

 52 56  0  0  0  0  0  0  0  0999 V2000
   -0.7566    1.8767    1.0862 O   0  0  0  0  0  0  0  0  0  0  0  0
   -0.4343    0.8224    0.5463 C   0  0  0  0  0  0  0  0  0  0  0  0
   -1.3530   -0.2006    0.3331 N   0  0  0  0  0  0  0  0  0  0  0  0
   -2.7321   -0.0763    0.8002 C   0  0  1  0  0  0  0  0  0  0  0  0
   -3.5575    0.9232   -0.0514 C   0  0  2  0  0  0  0  0  0  0  0  0
   -4.9486    1.0849    0.5926 C   0  0  0  0  0  0  0  0  0  0  0  0
   -5.6769   -0.2700    0.6306 C   0  0  1  0  0  0  0  0  0  0  0  0
   -5.8387   -0.7941   -0.8065 C   0  0  0  0  0  0  0  0  0  0  0  0
   -4.4580   -0.9687   -1.4619 C   0  0  1  0  0  0  0  0  0  0  0  0
   -3.7343    0.3875   -1.4860 C   0  0  0  0  0  0  0  0  0  0  0  0
   -3.6317   -1.9688   -0.6375 C   0  0  0  0  0  0  0  0  0  0  0  0
   -3.4506   -1.4487    0.8025 C   0  0  2  0  0  0  0  0  0  0  0  0
   -4.8414   -1.2751    1.4432 C   0  0  0  0  0  0  0  0  0  0  0  0
    0.9067    0.5200    0.0938 C   0  0  0  0  0  0  0  0  0  0  0  0
    2.0228    0.9978    0.6112 N   0  0  0  0  0  0  0  0  0  0  0  0
    3.0075    0.4304   -0.1558 C   0  0  0  0  0  0  0  0  0  0  0  0
    4.4573    0.7004    0.0935 C   0  0  0  0  0  0  0  0  0  0  0  0
    5.1247    1.3915   -1.1065 C   0  0  0  0  0  0  0  0  0  0  0  0
    6.6048    1.6650   -0.8478 C   0  0  0  0  0  0  0  0  0  0  0  0
    7.3520    0.3941   -0.4555 C   0  0  0  0  0  0  0  0  0  0  0  0
    6.6977   -0.2971    0.7367 C   0  0  0  0  0  0  0  0  0  0  0  0
    5.2179   -0.5772    0.4834 C   0  0  0  0  0  0  0  0  0  0  0  0
    2.5599   -0.3751   -1.1284 N   0  0  0  0  0  0  0  0  0  0  0  0
    1.2324   -0.2748   -0.9665 N   0  0  0  0  0  0  0  0  0  0  0  0
   -0.9763   -1.1376    0.2832 H   0  0  0  0  0  0  0  0  0  0  0  0
   -2.6761    0.2943    1.8328 H   0  0  0  0  0  0  0  0  0  0  0  0
   -3.0655    1.9009   -0.0924 H   0  0  0  0  0  0  0  0  0  0  0  0
   -5.5414    1.8120    0.0240 H   0  0  0  0  0  0  0  0  0  0  0  0
   -4.8465    1.4843    1.6091 H   0  0  0  0  0  0  0  0  0  0  0  0
   -6.6625   -0.1480    1.0933 H   0  0  0  0  0  0  0  0  0  0  0  0
   -6.4469   -0.0954   -1.3941 H   0  0  0  0  0  0  0  0  0  0  0  0
   -6.3734   -1.7519   -0.7981 H   0  0  0  0  0  0  0  0  0  0  0  0
   -4.5794   -1.3424   -2.4847 H   0  0  0  0  0  0  0  0  0  0  0  0
   -4.3113    1.1059   -2.0816 H   0  0  0  0  0  0  0  0  0  0  0  0
   -2.7595    0.2847   -1.9777 H   0  0  0  0  0  0  0  0  0  0  0  0
   -4.1362   -2.9430   -0.6195 H   0  0  0  0  0  0  0  0  0  0  0  0
   -2.6570   -2.1310   -1.1127 H   0  0  0  0  0  0  0  0  0  0  0  0
   -2.8701   -2.1770    1.3813 H   0  0  0  0  0  0  0  0  0  0  0  0
   -5.3572   -2.2424    1.4857 H   0  0  0  0  0  0  0  0  0  0  0  0
   -4.7368   -0.9255    2.4777 H   0  0  0  0  0  0  0  0  0  0  0  0
    4.5170    1.3920    0.9463 H   0  0  0  0  0  0  0  0  0  0  0  0
    5.0279    0.7684   -2.0054 H   0  0  0  0  0  0  0  0  0  0  0  0
    4.6143    2.3372   -1.3276 H   0  0  0  0  0  0  0  0  0  0  0  0
    7.0612    2.0987   -1.7447 H   0  0  0  0  0  0  0  0  0  0  0  0
    6.7038    2.4088   -0.0476 H   0  0  0  0  0  0  0  0  0  0  0  0
    7.3742   -0.2943   -1.3093 H   0  0  0  0  0  0  0  0  0  0  0  0
    8.3929    0.6379   -0.2146 H   0  0  0  0  0  0  0  0  0  0  0  0
    6.8020    0.3343    1.6276 H   0  0  0  0  0  0  0  0  0  0  0  0
    7.2191   -1.2373    0.9492 H   0  0  0  0  0  0  0  0  0  0  0  0
    5.1272   -1.3302   -0.3107 H   0  0  0  0  0  0  0  0  0  0  0  0
    4.7732   -1.0198    1.3834 H   0  0  0  0  0  0  0  0  0  0  0  0
    0.6136   -0.7505   -1.6121 H   0  0  0  0  0  0  0  0  0  0  0  0
  1  2  2  0
  2  3  1  0
  3  4  1  0
  4  5  1  0
  5  6  1  0
  6  7  1  0
  7  8  1  0
  8  9  1  0
  9 10  1  0
  9 11  1  0
 11 12  1  0
 12 13  1  0
  2 14  1  0
 14 15  2  0
 15 16  1  0
 16 17  1  0
 17 18  1  0
 18 19  1  0
 19 20  1  0
 20 21  1  0
 21 22  1  0
 16 23  2  0
 23 24  1  0
 12  4  1  0
 24 14  1  0
 10  5  1  0
 22 17  1  0
 13  7  1  0
  3 25  1  0
  4 26  1  1
  5 27  1  6
  6 28  1  0
  6 29  1  0
  7 30  1  1
  8 31  1  0
  8 32  1  0
  9 33  1  6
 10 34  1  0
 10 35  1  0
 11 36  1  0
 11 37  1  0
 12 38  1  1
 13 39  1  0
 13 40  1  0
 17 41  1  0
 18 42  1  0
 18 43  1  0
 19 44  1  0
 19 45  1  0
 20 46  1  0
 20 47  1  0
 21 48  1  0
 21 49  1  0
 22 50  1  0
 22 51  1  0
 24 52  1  0
M  END
>  <_SMILES>  (5) 
O=C(N[C@H]1[C@@H]2C[C@H]3C[C@@H](C2)C[C@@H]1C3)c1nc(C2CCCCC2)n[nH]1

$$$$

     RDKit          3D

 52 56  0  0  0  0  0  0  0  0999 V2000
   -1.1054   -3.1615   -0.9872 O   0  0  0  0  0  0  0  0  0  0  0  0
   -0.6068   -2.1847   -0.4337 C   0  0  0  0  0  0  0  0  0  0  0  0
   -1.3578   -1.1359    0.0721 N   0  0  0  0  0  0  0  0  0  0  0  0
   -2.7850   -1.0159   -0.1601 C   0  0  1  0  0  0  0  0  0  0  0  0
   -3.4679   -0.1113    0.8924 C   0  0  2  0  0  0  0  0  0  0  0  0
   -4.9927   -0.1768    0.6705 C   0  0  0  0  0  0  0  0  0  0  0  0
   -5.3452    0.3253   -0.7423 C   0  0  1  0  0  0  0  0  0  0  0  0
   -4.8712    1.7809   -0.8931 C   0  0  0  0  0  0  0  0  0  0  0  0
   -3.3502    1.8633   -0.6775 C   0  0  1  0  0  0  0  0  0  0  0  0
   -3.0151    1.3542    0.7339 C   0  0  0  0  0  0  0  0  0  0  0  0
   -2.6424    0.9802   -1.7188 C   0  0  0  0  0  0  0  0  0  0  0  0
   -3.1034   -0.4841   -1.5787 C   0  0  2  0  0  0  0  0  0  0  0  0
   -4.6290   -0.5456   -1.7903 C   0  0  0  0  0  0  0  0  0  0  0  0
    0.8460   -1.9808   -0.2452 C   0  0  0  0  0  0  0  0  0  0  0  0
    1.7961   -2.8553   -0.6197 N   0  0  0  0  0  0  0  0  0  0  0  0
    2.9196   -2.2293   -0.2491 N   0  0  0  0  0  0  0  0  0  0  0  0
    2.6595   -1.0162    0.3239 C   0  0  0  0  0  0  0  0  0  0  0  0
    3.7158   -0.0891    0.8349 C   0  0  0  0  0  0  0  0  0  0  0  0
    4.4008   -0.6518    2.0944 C   0  0  0  0  0  0  0  0  0  0  0  0
    5.8194   -0.1153    2.3074 C   0  0  0  0  0  0  0  0  0  0  0  0
    5.9875    1.2896    1.7460 C   0  0  0  0  0  0  0  0  0  0  0  0
    5.7261    1.3369    0.2395 C   0  0  0  0  0  0  0  0  0  0  0  0
    4.7401    0.2707   -0.2463 C   0  0  0  0  0  0  0  0  0  0  0  0
    1.3573   -0.8273    0.3404 N   0  0  0  0  0  0  0  0  0  0  0  0
   -0.8144   -0.3386    0.3910 H   0  0  0  0  0  0  0  0  0  0  0  0
   -3.1971   -2.0301   -0.0697 H   0  0  0  0  0  0  0  0  0  0  0  0
   -3.2274   -0.4599    1.9037 H   0  0  0  0  0  0  0  0  0  0  0  0
   -5.5072    0.4330    1.4235 H   0  0  0  0  0  0  0  0  0  0  0  0
   -5.3469   -1.2069    0.8006 H   0  0  0  0  0  0  0  0  0  0  0  0
   -6.4289    0.2715   -0.8944 H   0  0  0  0  0  0  0  0  0  0  0  0
   -5.3881    2.4204   -0.1671 H   0  0  0  0  0  0  0  0  0  0  0  0
   -5.1295    2.1582   -1.8902 H   0  0  0  0  0  0  0  0  0  0  0  0
   -3.0182    2.9019   -0.7852 H   0  0  0  0  0  0  0  0  0  0  0  0
   -1.9397    1.4499    0.9216 H   0  0  0  0  0  0  0  0  0  0  0  0
   -3.5164    1.9797    1.4833 H   0  0  0  0  0  0  0  0  0  0  0  0
   -1.5552    1.0518   -1.5952 H   0  0  0  0  0  0  0  0  0  0  0  0
   -2.8673    1.3444   -2.7290 H   0  0  0  0  0  0  0  0  0  0  0  0
   -2.6050   -1.0958   -2.3397 H   0  0  0  0  0  0  0  0  0  0  0  0
   -4.9764   -1.5834   -1.7149 H   0  0  0  0  0  0  0  0  0  0  0  0
   -4.8810   -0.1993   -2.8002 H   0  0  0  0  0  0  0  0  0  0  0  0
    3.8131   -2.6791   -0.4136 H   0  0  0  0  0  0  0  0  0  0  0  0
    3.2069    0.8425    1.1228 H   0  0  0  0  0  0  0  0  0  0  0  0
    4.4492   -1.7480    2.0756 H   0  0  0  0  0  0  0  0  0  0  0  0
    3.7828   -0.3997    2.9664 H   0  0  0  0  0  0  0  0  0  0  0  0
    6.0594   -0.1281    3.3766 H   0  0  0  0  0  0  0  0  0  0  0  0
    6.5375   -0.7855    1.8183 H   0  0  0  0  0  0  0  0  0  0  0  0
    6.9954    1.6651    1.9558 H   0  0  0  0  0  0  0  0  0  0  0  0
    5.2908    1.9661    2.2571 H   0  0  0  0  0  0  0  0  0  0  0  0
    6.6704    1.2149   -0.3050 H   0  0  0  0  0  0  0  0  0  0  0  0
    5.3515    2.3345   -0.0204 H   0  0  0  0  0  0  0  0  0  0  0  0
    4.2423    0.6262   -1.1572 H   0  0  0  0  0  0  0  0  0  0  0  0
    5.3030   -0.6261   -0.5385 H   0  0  0  0  0  0  0  0  0  0  0  0
  1  2  2  0
  2  3  1  0
  3  4  1  0
  4  5  1  0
  5  6  1  0
  6  7  1  0
  7  8  1  0
  8  9  1  0
  9 10  1  0
  9 11  1  0
 11 12  1  0
 12 13  1  0
  2 14  1  0
 14 15  2  0
 15 16  1  0
 16 17  1  0
 17 18  1  0
 18 19  1  0
 19 20  1  0
 20 21  1  0
 21 22  1  0
 22 23  1  0
 17 24  2  0
 12  4  1  0
 24 14  1  0
 10  5  1  0
 23 18  1  0
 13  7  1  0
  3 25  1  0
  4 26  1  6
  5 27  1  1
  6 28  1  0
  6 29  1  0
  7 30  1  6
  8 31  1  0
  8 32  1  0
  9 33  1  1
 10 34  1  0
 10 35  1  0
 11 36  1  0
 11 37  1  0
 12 38  1  6
 13 39  1  0
 13 40  1  0
 16 41  1  0
 18 42  1  0
 19 43  1  0
 19 44  1  0
 20 45  1  0
 20 46  1  0
 21 47  1  0
 21 48  1  0
 22 49  1  0
 22 50  1  0
 23 51  1  0
 23 52  1  0
M  END
>  <_SMILES>  (6) 
O=C(N[C@H]1[C@@H]2C[C@H]3C[C@@H](C2)C[C@@H]1C3)c1n[nH]c(C2CCCCC2)n1

$$$$

     RDKit          3D

 41 43  0  0  0  0  0  0  0  0999 V2000
   -1.5192   -2.0709    0.6739 O   0  0  0  0  0  0  0  0  0  0  0  0
   -1.4709   -1.3370   -0.3097 C   0  0  0  0  0  0  0  0  0  0  0  0
   -2.5369   -1.1221   -1.1508 N   0  0  0  0  0  0  0  0  0  0  0  0
   -3.8615   -1.6139   -0.8721 C   0  0  0  0  0  0  0  0  0  0  0  0
   -4.6910   -0.5654   -0.1786 C   0  0  0  0  0  0  0  0  0  0  0  0
   -5.4594    0.3442   -0.9191 C   0  0  0  0  0  0  0  0  0  0  0  0
   -6.2086    1.3284   -0.2719 C   0  0  0  0  0  0  0  0  0  0  0  0
   -6.1914    1.4179    1.1189 C   0  0  0  0  0  0  0  0  0  0  0  0
   -5.4224    0.5265    1.8646 C   0  0  0  0  0  0  0  0  0  0  0  0
   -4.6727   -0.4581    1.2196 C   0  0  0  0  0  0  0  0  0  0  0  0
   -0.2800   -0.6157   -0.6835 C   0  0  0  0  0  0  0  0  0  0  0  0
   -0.1608    0.1848   -1.7246 N   0  0  0  0  0  0  0  0  0  0  0  0
    1.1242    0.6781   -1.7301 N   0  0  0  0  0  0  0  0  0  0  0  0
    1.7638    0.1726   -0.6951 C   0  0  0  0  0  0  0  0  0  0  0  0
    3.1824    0.4309   -0.3006 C   0  0  0  0  0  0  0  0  0  0  0  0
    3.9947   -0.8637   -0.1906 C   0  0  0  0  0  0  0  0  0  0  0  0
    5.4782   -0.5824    0.0642 C   0  0  0  0  0  0  0  0  0  0  0  0
    5.7321    0.7074    0.8464 C   0  0  0  0  0  0  0  0  0  0  0  0
    4.5710    1.0494    1.7694 C   0  0  0  0  0  0  0  0  0  0  0  0
    3.2661    1.2590    0.9954 C   0  0  0  0  0  0  0  0  0  0  0  0
    0.9090   -0.6496   -0.0109 N   0  0  0  0  0  0  0  0  0  0  0  0
   -2.4155   -0.4053   -1.8591 H   0  0  0  0  0  0  0  0  0  0  0  0
   -4.3190   -1.8879   -1.8292 H   0  0  0  0  0  0  0  0  0  0  0  0
   -3.8119   -2.5250   -0.2650 H   0  0  0  0  0  0  0  0  0  0  0  0
   -5.4781    0.2927   -2.0054 H   0  0  0  0  0  0  0  0  0  0  0  0
   -6.8033    2.0283   -0.8532 H   0  0  0  0  0  0  0  0  0  0  0  0
   -6.7734    2.1858    1.6215 H   0  0  0  0  0  0  0  0  0  0  0  0
   -5.4026    0.5999    2.9487 H   0  0  0  0  0  0  0  0  0  0  0  0
   -4.0672   -1.1421    1.8121 H   0  0  0  0  0  0  0  0  0  0  0  0
    3.6323    1.0293   -1.1062 H   0  0  0  0  0  0  0  0  0  0  0  0
    3.6041   -1.4791    0.6313 H   0  0  0  0  0  0  0  0  0  0  0  0
    3.8922   -1.4709   -1.0988 H   0  0  0  0  0  0  0  0  0  0  0  0
    6.0142   -0.5247   -0.8910 H   0  0  0  0  0  0  0  0  0  0  0  0
    5.9087   -1.4346    0.6039 H   0  0  0  0  0  0  0  0  0  0  0  0
    6.6599    0.6114    1.4217 H   0  0  0  0  0  0  0  0  0  0  0  0
    5.8868    1.5349    0.1424 H   0  0  0  0  0  0  0  0  0  0  0  0
    4.4362    0.2358    2.4932 H   0  0  0  0  0  0  0  0  0  0  0  0
    4.8007    1.9493    2.3511 H   0  0  0  0  0  0  0  0  0  0  0  0
    2.4292    1.0421    1.6714 H   0  0  0  0  0  0  0  0  0  0  0  0
    3.1656    2.3210    0.7346 H   0  0  0  0  0  0  0  0  0  0  0  0
    1.0946   -1.1815    0.8273 H   0  0  0  0  0  0  0  0  0  0  0  0
  1  2  2  0
  2  3  1  0
  3  4  1  0
  4  5  1  0
  5  6  2  0
  6  7  1  0
  7  8  2  0
  8  9  1  0
  9 10  2  0
  2 11  1  0
 11 12  2  0
 12 13  1  0
 13 14  2  0
 14 15  1  0
 15 16  1  0
 16 17  1  0
 17 18  1  0
 18 19  1  0
 19 20  1  0
 14 21  1  0
 10  5  1  0
 21 11  1  0
 20 15  1  0
  3 22  1  0
  4 23  1  0
  4 24  1  0
  6 25  1  0
  7 26  1  0
  8 27  1  0
  9 28  1  0
 10 29  1  0
 15 30  1  0
 16 31  1  0
 16 32  1  0
 17 33  1  0
 17 34  1  0
 18 35  1  0
 18 36  1  0
 19 37  1  0
 19 38  1  0
 20 39  1  0
 20 40  1  0
 21 41  1  0
M  END
>  <_SMILES>  (7) 
O=C(NCc1ccccc1)c1nnc(C2CCCCC2)[nH]1

$$$$

     RDKit          3D

 41 43  0  0  0  0  0  0  0  0999 V2000
    2.2875    0.5231   -2.9623 O   0  0  0  0  0  0  0  0  0  0  0  0
    1.6025    0.6708   -1.9546 C   0  0  0  0  0  0  0  0  0  0  0  0
    2.0850    1.1764   -0.7709 N   0  0  0  0  0  0  0  0  0  0  0  0
    3.4844    1.4267   -0.5417 C   0  0  0  0  0  0  0  0  0  0  0  0
    4.1319    0.2590    0.1554 C   0  0  0  0  0  0  0  0  0  0  0  0
    4.6433   -0.8145   -0.5881 C   0  0  0  0  0  0  0  0  0  0  0  0
    5.2229   -1.9092    0.0549 C   0  0  0  0  0  0  0  0  0  0  0  0
    5.2908   -1.9451    1.4463 C   0  0  0  0  0  0  0  0  0  0  0  0
    4.7763   -0.8889    2.1962 C   0  0  0  0  0  0  0  0  0  0  0  0
    4.1958    0.2069    1.5551 C   0  0  0  0  0  0  0  0  0  0  0  0
    0.2056    0.3218   -1.8989 C   0  0  0  0  0  0  0  0  0  0  0  0
   -0.5881    0.4427   -0.8497 N   0  0  0  0  0  0  0  0  0  0  0  0
   -1.7923   -0.0266   -1.3170 C   0  0  0  0  0  0  0  0  0  0  0  0
   -3.0199   -0.0824   -0.4656 C   0  0  0  0  0  0  0  0  0  0  0  0
   -2.7761   -0.8506    0.8390 C   0  0  0  0  0  0  0  0  0  0  0  0
   -4.0647   -1.0273    1.6466 C   0  0  0  0  0  0  0  0  0  0  0  0
   -5.0715    0.1069    1.4493 C   0  0  0  0  0  0  0  0  0  0  0  0
   -4.3835    1.4221    1.1131 C   0  0  0  0  0  0  0  0  0  0  0  0
   -3.5711    1.3290   -0.1815 C   0  0  0  0  0  0  0  0  0  0  0  0
   -1.7823   -0.4253   -2.5958 N   0  0  0  0  0  0  0  0  0  0  0  0
   -0.5033   -0.1966   -2.9393 N   0  0  0  0  0  0  0  0  0  0  0  0
    1.4515    1.1361    0.0213 H   0  0  0  0  0  0  0  0  0  0  0  0
    3.5603    2.3281    0.0763 H   0  0  0  0  0  0  0  0  0  0  0  0
    3.9966    1.6383   -1.4872 H   0  0  0  0  0  0  0  0  0  0  0  0
    4.5871   -0.8023   -1.6754 H   0  0  0  0  0  0  0  0  0  0  0  0
    5.6179   -2.7352   -0.5308 H   0  0  0  0  0  0  0  0  0  0  0  0
    5.7412   -2.7985    1.9463 H   0  0  0  0  0  0  0  0  0  0  0  0
    4.8248   -0.9204    3.2816 H   0  0  0  0  0  0  0  0  0  0  0  0
    3.7933    1.0197    2.1553 H   0  0  0  0  0  0  0  0  0  0  0  0
   -3.7903   -0.6328   -1.0255 H   0  0  0  0  0  0  0  0  0  0  0  0
   -2.3375   -1.8360    0.6375 H   0  0  0  0  0  0  0  0  0  0  0  0
   -2.0406   -0.3121    1.4523 H   0  0  0  0  0  0  0  0  0  0  0  0
   -4.5458   -1.9748    1.3750 H   0  0  0  0  0  0  0  0  0  0  0  0
   -3.8038   -1.1116    2.7086 H   0  0  0  0  0  0  0  0  0  0  0  0
   -5.7608   -0.1558    0.6369 H   0  0  0  0  0  0  0  0  0  0  0  0
   -5.6826    0.2169    2.3523 H   0  0  0  0  0  0  0  0  0  0  0  0
   -3.7175    1.7005    1.9397 H   0  0  0  0  0  0  0  0  0  0  0  0
   -5.1232    2.2260    1.0249 H   0  0  0  0  0  0  0  0  0  0  0  0
   -4.2016    1.6311   -1.0283 H   0  0  0  0  0  0  0  0  0  0  0  0
   -2.7649    2.0725   -0.1350 H   0  0  0  0  0  0  0  0  0  0  0  0
   -0.1772   -0.4087   -3.8760 H   0  0  0  0  0  0  0  0  0  0  0  0
  1  2  2  0
  2  3  1  0
  3  4  1  0
  4  5  1  0
  5  6  2  0
  6  7  1  0
  7  8  2  0
  8  9  1  0
  9 10  2  0
  2 11  1  0
 11 12  2  0
 12 13  1  0
 13 14  1  0
 14 15  1  0
 15 16  1  0
 16 17  1  0
 17 18  1  0
 18 19  1  0
 13 20  2  0
 20 21  1  0
 10  5  1  0
 21 11  1  0
 19 14  1  0
  3 22  1  0
  4 23  1  0
  4 24  1  0
  6 25  1  0
  7 26  1  0
  8 27  1  0
  9 28  1  0
 10 29  1  0
 14 30  1  0
 15 31  1  0
 15 32  1  0
 16 33  1  0
 16 34  1  0
 17 35  1  0
 17 36  1  0
 18 37  1  0
 18 38  1  0
 19 39  1  0
 19 40  1  0
 21 41  1  0
M  END
>  <_SMILES>  (8) 
O=C(NCc1ccccc1)c1nc(C2CCCCC2)n[nH]1

$$$$

     RDKit          3D

 41 43  0  0  0  0  0  0  0  0999 V2000
    1.9152    3.1401    0.0340 O   0  0  0  0  0  0  0  0  0  0  0  0
    1.4778    2.0835   -0.4156 C   0  0  0  0  0  0  0  0  0  0  0  0
    2.2386    1.2103   -1.1695 N   0  0  0  0  0  0  0  0  0  0  0  0
    3.6573    1.3740   -1.3437 C   0  0  0  0  0  0  0  0  0  0  0  0
    4.4207    0.5131   -0.3712 C   0  0  0  0  0  0  0  0  0  0  0  0
    4.8791   -0.7582   -0.7449 C   0  0  0  0  0  0  0  0  0  0  0  0
    5.5676   -1.5583    0.1687 C   0  0  0  0  0  0  0  0  0  0  0  0
    5.7977   -1.0997    1.4647 C   0  0  0  0  0  0  0  0  0  0  0  0
    5.3373    0.1577    1.8503 C   0  0  0  0  0  0  0  0  0  0  0  0
    4.6495    0.9594    0.9385 C   0  0  0  0  0  0  0  0  0  0  0  0
    0.0967    1.5970   -0.2083 C   0  0  0  0  0  0  0  0  0  0  0  0
   -0.8501    2.2575    0.4797 N   0  0  0  0  0  0  0  0  0  0  0  0
   -1.8955    1.4260    0.3931 N   0  0  0  0  0  0  0  0  0  0  0  0
   -1.5965    0.3020   -0.3225 C   0  0  0  0  0  0  0  0  0  0  0  0
   -2.5471   -0.8251   -0.6018 C   0  0  0  0  0  0  0  0  0  0  0  0
   -3.7376   -0.4014   -1.4744 C   0  0  0  0  0  0  0  0  0  0  0  0
   -4.8834    0.2462   -0.6990 C   0  0  0  0  0  0  0  0  0  0  0  0
   -5.3094   -0.5981    0.4960 C   0  0  0  0  0  0  0  0  0  0  0  0
   -4.1365   -0.9069    1.4186 C   0  0  0  0  0  0  0  0  0  0  0  0
   -2.9817   -1.5693    0.6693 C   0  0  0  0  0  0  0  0  0  0  0  0
   -0.3422    0.3808   -0.7176 N   0  0  0  0  0  0  0  0  0  0  0  0
    1.8077    0.3152   -1.3773 H   0  0  0  0  0  0  0  0  0  0  0  0
    3.8950    1.0871   -2.3740 H   0  0  0  0  0  0  0  0  0  0  0  0
    3.9447    2.4250   -1.2265 H   0  0  0  0  0  0  0  0  0  0  0  0
    4.7030   -1.1331   -1.7505 H   0  0  0  0  0  0  0  0  0  0  0  0
    5.9231   -2.5411   -0.1297 H   0  0  0  0  0  0  0  0  0  0  0  0
    6.3326   -1.7235    2.1759 H   0  0  0  0  0  0  0  0  0  0  0  0
    5.5097    0.5149    2.8622 H   0  0  0  0  0  0  0  0  0  0  0  0
    4.2857    1.9367    1.2535 H   0  0  0  0  0  0  0  0  0  0  0  0
   -2.7647    1.6899    0.8412 H   0  0  0  0  0  0  0  0  0  0  0  0
   -1.9653   -1.5436   -1.1983 H   0  0  0  0  0  0  0  0  0  0  0  0
   -3.4120    0.2719   -2.2770 H   0  0  0  0  0  0  0  0  0  0  0  0
   -4.1341   -1.2992   -1.9677 H   0  0  0  0  0  0  0  0  0  0  0  0
   -5.7400    0.3848   -1.3691 H   0  0  0  0  0  0  0  0  0  0  0  0
   -4.5939    1.2466   -0.3606 H   0  0  0  0  0  0  0  0  0  0  0  0
   -5.7497   -1.5376    0.1397 H   0  0  0  0  0  0  0  0  0  0  0  0
   -6.0912   -0.0739    1.0572 H   0  0  0  0  0  0  0  0  0  0  0  0
   -3.7949    0.0136    1.9034 H   0  0  0  0  0  0  0  0  0  0  0  0
   -4.4730   -1.5711    2.2234 H   0  0  0  0  0  0  0  0  0  0  0  0
   -3.3072   -2.5774    0.3786 H   0  0  0  0  0  0  0  0  0  0  0  0
   -2.1328   -1.7049    1.3508 H   0  0  0  0  0  0  0  0  0  0  0  0
  1  2  2  0
  2  3  1  0
  3  4  1  0
  4  5  1  0
  5  6  2  0
  6  7  1  0
  7  8  2  0
  8  9  1  0
  9 10  2  0
  2 11  1  0
 11 12  2  0
 12 13  1  0
 13 14  1  0
 14 15  1  0
 15 16  1  0
 16 17  1  0
 17 18  1  0
 18 19  1  0
 19 20  1  0
 14 21  2  0
 10  5  1  0
 21 11  1  0
 20 15  1  0
  3 22  1  0
  4 23  1  0
  4 24  1  0
  6 25  1  0
  7 26  1  0
  8 27  1  0
  9 28  1  0
 10 29  1  0
 13 30  1  0
 15 31  1  0
 16 32  1  0
 16 33  1  0
 17 34  1  0
 17 35  1  0
 18 36  1  0
 18 37  1  0
 19 38  1  0
 19 39  1  0
 20 40  1  0
 20 41  1  0
M  END
>  <_SMILES>  (9) 
O=C(NCc1ccccc1)c1n[nH]c(C2CCCCC2)n1

$$$$

     RDKit          3D

 47 49  0  0  0  0  0  0  0  0999 V2000
   -0.9405   -2.8952    2.1166 O   0  0  0  0  0  0  0  0  0  0  0  0
   -0.4497   -1.8217    1.7804 C   0  0  0  0  0  0  0  0  0  0  0  0
   -1.2376   -0.7676    1.3260 N   0  0  0  0  0  0  0  0  0  0  0  0
   -2.6971   -0.8767    1.2957 C   0  0  0  0  0  0  0  0  0  0  0  0
   -3.3348    0.5173    1.1820 C   0  0  0  0  0  0  0  0  0  0  0  0
   -3.0629    1.2830   -0.1117 C   0  0  0  0  0  0  0  0  0  0  0  0
   -3.1692    0.4876   -1.4079 C   0  0  0  0  0  0  0  0  0  0  0  0
   -4.3812   -0.4353   -1.5063 C   0  0  0  0  0  0  0  0  0  0  0  0
   -4.4672   -1.5671   -0.4748 C   0  0  0  0  0  0  0  0  0  0  0  0
   -3.1558   -1.9014    0.2328 C   0  0  0  0  0  0  0  0  0  0  0  0
    0.9660   -1.5233    1.8187 C   0  0  0  0  0  0  0  0  0  0  0  0
    1.8363   -2.0848    2.6324 N   0  0  0  0  0  0  0  0  0  0  0  0
    3.0756   -1.5460    2.3733 N   0  0  0  0  0  0  0  0  0  0  0  0
    2.9550   -0.6861    1.3837 C   0  0  0  0  0  0  0  0  0  0  0  0
    4.0657    0.1100    0.7652 C   0  0  0  0  0  0  0  0  0  0  0  0
    3.8878    1.6245    0.9477 C   0  0  0  0  0  0  0  0  0  0  0  0
    2.9656    2.2757   -0.0818 C   0  0  0  0  0  0  0  0  0  0  0  0
    3.3534    1.9036   -1.5078 C   0  0  0  0  0  0  0  0  0  0  0  0
    3.4087    0.3935   -1.7054 C   0  0  0  0  0  0  0  0  0  0  0  0
    4.3365   -0.2796   -0.6954 C   0  0  0  0  0  0  0  0  0  0  0  0
    1.6401   -0.6475    1.0079 N   0  0  0  0  0  0  0  0  0  0  0  0
   -0.8543    0.1594    1.4462 H   0  0  0  0  0  0  0  0  0  0  0  0
   -2.9934   -1.2722    2.2771 H   0  0  0  0  0  0  0  0  0  0  0  0
   -2.9843    1.1383    2.0178 H   0  0  0  0  0  0  0  0  0  0  0  0
   -4.4188    0.4363    1.3277 H   0  0  0  0  0  0  0  0  0  0  0  0
   -3.7606    2.1290   -0.1564 H   0  0  0  0  0  0  0  0  0  0  0  0
   -2.0606    1.7273   -0.0645 H   0  0  0  0  0  0  0  0  0  0  0  0
   -2.2485   -0.0868   -1.5632 H   0  0  0  0  0  0  0  0  0  0  0  0
   -3.2054    1.1993   -2.2427 H   0  0  0  0  0  0  0  0  0  0  0  0
   -4.3675   -0.8893   -2.5059 H   0  0  0  0  0  0  0  0  0  0  0  0
   -5.3032    0.1576   -1.4634 H   0  0  0  0  0  0  0  0  0  0  0  0
   -5.2430   -1.3396    0.2660 H   0  0  0  0  0  0  0  0  0  0  0  0
   -4.8246   -2.4672   -0.9919 H   0  0  0  0  0  0  0  0  0  0  0  0
   -3.2808   -2.8704    0.7345 H   0  0  0  0  0  0  0  0  0  0  0  0
   -2.3722   -2.0722   -0.5163 H   0  0  0  0  0  0  0  0  0  0  0  0
    4.9655   -0.1683    1.3337 H   0  0  0  0  0  0  0  0  0  0  0  0
    3.5289    1.8555    1.9583 H   0  0  0  0  0  0  0  0  0  0  0  0
    4.8756    2.0963    0.8564 H   0  0  0  0  0  0  0  0  0  0  0  0
    3.0086    3.3652    0.0331 H   0  0  0  0  0  0  0  0  0  0  0  0
    1.9256    1.9888    0.1056 H   0  0  0  0  0  0  0  0  0  0  0  0
    2.6352    2.3408   -2.2107 H   0  0  0  0  0  0  0  0  0  0  0  0
    4.3330    2.3376   -1.7436 H   0  0  0  0  0  0  0  0  0  0  0  0
    3.7595    0.1732   -2.7205 H   0  0  0  0  0  0  0  0  0  0  0  0
    2.4001   -0.0265   -1.6319 H   0  0  0  0  0  0  0  0  0  0  0  0
    4.2886   -1.3681   -0.8233 H   0  0  0  0  0  0  0  0  0  0  0  0
    5.3662    0.0143   -0.9405 H   0  0  0  0  0  0  0  0  0  0  0  0
    1.2357   -0.1212    0.2500 H   0  0  0  0  0  0  0  0  0  0  0  0
  1  2  2  0
  2  3  1  0
  3  4  1  0
  4  5  1  0
  5  6  1  0
  6  7  1  0
  7  8  1  0
  8  9  1  0
  9 10  1  0
  2 11  1  0
 11 12  2  0
 12 13  1  0
 13 14  2  0
 14 15  1  0
 15 16  1  0
 16 17  1  0
 17 18  1  0
 18 19  1  0
 19 20  1  0
 14 21  1  0
 10  4  1  0
 21 11  1  0
 20 15  1  0
  3 22  1  0
  4 23  1  0
  5 24  1  0
  5 25  1  0
  6 26  1  0
  6 27  1  0
  7 28  1  0
  7 29  1  0
  8 30  1  0
  8 31  1  0
  9 32  1  0
  9 33  1  0
 10 34  1  0
 10 35  1  0
 15 36  1  0
 16 37  1  0
 16 38  1  0
 17 39  1  0
 17 40  1  0
 18 41  1  0
 18 42  1  0
 19 43  1  0
 19 44  1  0
 20 45  1  0
 20 46  1  0
 21 47  1  0
M  END
>  <_SMILES>  (10) 
O=C(NC1CCCCCC1)c1nnc(C2CCCCC2)[nH]1

$$$$

     RDKit          3D

 47 49  0  0  0  0  0  0  0  0999 V2000
   -1.1441    0.5045    1.8666 O   0  0  0  0  0  0  0  0  0  0  0  0
   -0.8170    0.1717    0.7304 C   0  0  0  0  0  0  0  0  0  0  0  0
   -1.7646   -0.0101   -0.2704 N   0  0  0  0  0  0  0  0  0  0  0  0
   -3.1942    0.1900   -0.0155 C   0  0  0  0  0  0  0  0  0  0  0  0
   -3.8824    0.5956   -1.3249 C   0  0  0  0  0  0  0  0  0  0  0  0
   -5.3906    0.8230   -1.2325 C   0  0  0  0  0  0  0  0  0  0  0  0
   -6.1760   -0.4780   -1.1074 C   0  0  0  0  0  0  0  0  0  0  0  0
   -6.3417   -0.9997    0.3161 C   0  0  0  0  0  0  0  0  0  0  0  0
   -5.1570   -0.8298    1.2614 C   0  0  0  0  0  0  0  0  0  0  0  0
   -3.7856   -1.0713    0.6366 C   0  0  0  0  0  0  0  0  0  0  0  0
    0.5524   -0.0535    0.3176 C   0  0  0  0  0  0  0  0  0  0  0  0
    1.6175    0.5234    0.8428 N   0  0  0  0  0  0  0  0  0  0  0  0
    2.6628   -0.0111    0.1355 C   0  0  0  0  0  0  0  0  0  0  0  0
    4.0805    0.3836    0.4007 C   0  0  0  0  0  0  0  0  0  0  0  0
    4.6486    1.2656   -0.7288 C   0  0  0  0  0  0  0  0  0  0  0  0
    6.1746    1.2081   -0.8427 C   0  0  0  0  0  0  0  0  0  0  0  0
    6.8361    0.9387    0.5012 C   0  0  0  0  0  0  0  0  0  0  0  0
    6.3933   -0.3991    1.0957 C   0  0  0  0  0  0  0  0  0  0  0  0
    4.9860   -0.8249    0.6681 C   0  0  0  0  0  0  0  0  0  0  0  0
    2.3031   -0.8971   -0.8028 N   0  0  0  0  0  0  0  0  0  0  0  0
    0.9717   -0.9258   -0.6442 N   0  0  0  0  0  0  0  0  0  0  0  0
   -1.4637   -0.0671   -1.2326 H   0  0  0  0  0  0  0  0  0  0  0  0
   -3.2801    1.0267    0.6899 H   0  0  0  0  0  0  0  0  0  0  0  0
   -3.6721   -0.1490   -2.1044 H   0  0  0  0  0  0  0  0  0  0  0  0
   -3.4206    1.5278   -1.6778 H   0  0  0  0  0  0  0  0  0  0  0  0
   -5.6364    1.5177   -0.4214 H   0  0  0  0  0  0  0  0  0  0  0  0
   -5.7026    1.3115   -2.1645 H   0  0  0  0  0  0  0  0  0  0  0  0
   -7.1802   -0.3255   -1.5233 H   0  0  0  0  0  0  0  0  0  0  0  0
   -5.7138   -1.2542   -1.7300 H   0  0  0  0  0  0  0  0  0  0  0  0
   -6.6013   -2.0645    0.2571 H   0  0  0  0  0  0  0  0  0  0  0  0
   -7.2106   -0.5106    0.7751 H   0  0  0  0  0  0  0  0  0  0  0  0
   -5.1900    0.1677    1.7170 H   0  0  0  0  0  0  0  0  0  0  0  0
   -5.2943   -1.5359    2.0906 H   0  0  0  0  0  0  0  0  0  0  0  0
   -3.1153   -1.3941    1.4442 H   0  0  0  0  0  0  0  0  0  0  0  0
   -3.8151   -1.9050   -0.0757 H   0  0  0  0  0  0  0  0  0  0  0  0
    4.0756    0.9891    1.3190 H   0  0  0  0  0  0  0  0  0  0  0  0
    4.2218    0.9960   -1.7033 H   0  0  0  0  0  0  0  0  0  0  0  0
    4.3368    2.3028   -0.5477 H   0  0  0  0  0  0  0  0  0  0  0  0
    6.5461    2.1477   -1.2673 H   0  0  0  0  0  0  0  0  0  0  0  0
    6.4559    0.4148   -1.5468 H   0  0  0  0  0  0  0  0  0  0  0  0
    7.9270    0.9516    0.3978 H   0  0  0  0  0  0  0  0  0  0  0  0
    6.5798    1.7482    1.1963 H   0  0  0  0  0  0  0  0  0  0  0  0
    7.1004   -1.1861    0.8065 H   0  0  0  0  0  0  0  0  0  0  0  0
    6.4440   -0.3310    2.1892 H   0  0  0  0  0  0  0  0  0  0  0  0
    4.5549   -1.4749    1.4399 H   0  0  0  0  0  0  0  0  0  0  0  0
    5.0600   -1.4397   -0.2392 H   0  0  0  0  0  0  0  0  0  0  0  0
    0.4204   -1.5678   -1.2001 H   0  0  0  0  0  0  0  0  0  0  0  0
  1  2  2  0
  2  3  1  0
  3  4  1  0
  4  5  1  0
  5  6  1  0
  6  7  1  0
  7  8  1  0
  8  9  1  0
  9 10  1  0
  2 11  1  0
 11 12  2  0
 12 13  1  0
 13 14  1  0
 14 15  1  0
 15 16  1  0
 16 17  1  0
 17 18  1  0
 18 19  1  0
 13 20  2  0
 20 21  1  0
 10  4  1  0
 21 11  1  0
 19 14  1  0
  3 22  1  0
  4 23  1  0
  5 24  1  0
  5 25  1  0
  6 26  1  0
  6 27  1  0
  7 28  1  0
  7 29  1  0
  8 30  1  0
  8 31  1  0
  9 32  1  0
  9 33  1  0
 10 34  1  0
 10 35  1  0
 14 36  1  0
 15 37  1  0
 15 38  1  0
 16 39  1  0
 16 40  1  0
 17 41  1  0
 17 42  1  0
 18 43  1  0
 18 44  1  0
 19 45  1  0
 19 46  1  0
 21 47  1  0
M  END
>  <_SMILES>  (11) 
O=C(NC1CCCCCC1)c1nc(C2CCCCC2)n[nH]1

$$$$

     RDKit          3D

 47 49  0  0  0  0  0  0  0  0999 V2000
    0.9182    1.0595   -2.5985 O   0  0  0  0  0  0  0  0  0  0  0  0
    0.7270    0.3795   -1.5937 C   0  0  0  0  0  0  0  0  0  0  0  0
    1.7445   -0.2791   -0.9220 N   0  0  0  0  0  0  0  0  0  0  0  0
    3.1539   -0.0884   -1.2352 C   0  0  0  0  0  0  0  0  0  0  0  0
    3.9455   -1.3449   -0.8517 C   0  0  0  0  0  0  0  0  0  0  0  0
    4.3741   -1.4221    0.6129 C   0  0  0  0  0  0  0  0  0  0  0  0
    5.7174   -0.7417    0.8704 C   0  0  0  0  0  0  0  0  0  0  0  0
    5.6989    0.7815    0.8050 C   0  0  0  0  0  0  0  0  0  0  0  0
    5.1569    1.3725   -0.4955 C   0  0  0  0  0  0  0  0  0  0  0  0
    3.6422    1.2314   -0.6203 C   0  0  0  0  0  0  0  0  0  0  0  0
   -0.5998    0.1884   -0.9654 C   0  0  0  0  0  0  0  0  0  0  0  0
   -0.7706   -0.5227    0.1714 N   0  0  0  0  0  0  0  0  0  0  0  0
   -2.0963   -0.4250    0.3600 N   0  0  0  0  0  0  0  0  0  0  0  0
   -2.6979    0.3177   -0.6137 C   0  0  0  0  0  0  0  0  0  0  0  0
   -4.1654    0.6205   -0.6946 C   0  0  0  0  0  0  0  0  0  0  0  0
   -4.6639    1.4796    0.4766 C   0  0  0  0  0  0  0  0  0  0  0  0
   -4.9923    0.6858    1.7399 C   0  0  0  0  0  0  0  0  0  0  0  0
   -5.9158   -0.4905    1.4475 C   0  0  0  0  0  0  0  0  0  0  0  0
   -5.3476   -1.4022    0.3667 C   0  0  0  0  0  0  0  0  0  0  0  0
   -5.0234   -0.6342   -0.9135 C   0  0  0  0  0  0  0  0  0  0  0  0
   -1.7740    0.7178   -1.4607 N   0  0  0  0  0  0  0  0  0  0  0  0
    1.4678   -0.6977   -0.0379 H   0  0  0  0  0  0  0  0  0  0  0  0
    3.2209    0.0079   -2.3271 H   0  0  0  0  0  0  0  0  0  0  0  0
    3.3371   -2.2296   -1.0832 H   0  0  0  0  0  0  0  0  0  0  0  0
    4.8321   -1.4220   -1.4940 H   0  0  0  0  0  0  0  0  0  0  0  0
    3.5996   -1.0266    1.2796 H   0  0  0  0  0  0  0  0  0  0  0  0
    4.4932   -2.4824    0.8702 H   0  0  0  0  0  0  0  0  0  0  0  0
    6.4654   -1.1258    0.1655 H   0  0  0  0  0  0  0  0  0  0  0  0
    6.0659   -1.0326    1.8695 H   0  0  0  0  0  0  0  0  0  0  0  0
    6.7280    1.1367    0.9425 H   0  0  0  0  0  0  0  0  0  0  0  0
    5.1270    1.1744    1.6549 H   0  0  0  0  0  0  0  0  0  0  0  0
    5.3918    2.4446   -0.4871 H   0  0  0  0  0  0  0  0  0  0  0  0
    5.6702    0.9501   -1.3666 H   0  0  0  0  0  0  0  0  0  0  0  0
    3.1761    1.3914    0.3612 H   0  0  0  0  0  0  0  0  0  0  0  0
    3.2705    2.0511   -1.2501 H   0  0  0  0  0  0  0  0  0  0  0  0
   -2.5121   -0.8826    1.1622 H   0  0  0  0  0  0  0  0  0  0  0  0
   -4.2777    1.2352   -1.6002 H   0  0  0  0  0  0  0  0  0  0  0  0
   -3.9397    2.2677    0.7174 H   0  0  0  0  0  0  0  0  0  0  0  0
   -5.5813    1.9918    0.1564 H   0  0  0  0  0  0  0  0  0  0  0  0
   -5.4705    1.3499    2.4696 H   0  0  0  0  0  0  0  0  0  0  0  0
   -4.0718    0.3253    2.2107 H   0  0  0  0  0  0  0  0  0  0  0  0
   -6.0808   -1.0661    2.3654 H   0  0  0  0  0  0  0  0  0  0  0  0
   -6.8955   -0.1139    1.1283 H   0  0  0  0  0  0  0  0  0  0  0  0
   -6.0732   -2.1922    0.1399 H   0  0  0  0  0  0  0  0  0  0  0  0
   -4.4516   -1.9074    0.7424 H   0  0  0  0  0  0  0  0  0  0  0  0
   -4.5483   -1.3098   -1.6354 H   0  0  0  0  0  0  0  0  0  0  0  0
   -5.9747   -0.3211   -1.3648 H   0  0  0  0  0  0  0  0  0  0  0  0
  1  2  2  0
  2  3  1  0
  3  4  1  0
  4  5  1  0
  5  6  1  0
  6  7  1  0
  7  8  1  0
  8  9  1  0
  9 10  1  0
  2 11  1  0
 11 12  2  0
 12 13  1  0
 13 14  1  0
 14 15  1  0
 15 16  1  0
 16 17  1  0
 17 18  1  0
 18 19  1  0
 19 20  1  0
 14 21  2  0
 10  4  1  0
 21 11  1  0
 20 15  1  0
  3 22  1  0
  4 23  1  0
  5 24  1  0
  5 25  1  0
  6 26  1  0
  6 27  1  0
  7 28  1  0
  7 29  1  0
  8 30  1  0
  8 31  1  0
  9 32  1  0
  9 33  1  0
 10 34  1  0
 10 35  1  0
 13 36  1  0
 15 37  1  0
 16 38  1  0
 16 39  1  0
 17 40  1  0
 17 41  1  0
 18 42  1  0
 18 43  1  0
 19 44  1  0
 19 45  1  0
 20 46  1  0
 20 47  1  0
M  END
>  <_SMILES>  (12) 
O=C(NC1CCCCCC1)c1n[nH]c(C2CCCCC2)n1

$$$$

     RDKit          3D

 49 53  0  0  0  0  0  0  0  0999 V2000
    0.4084   -1.9775    0.4320 O   0  0  0  0  0  0  0  0  0  0  0  0
    0.7336   -0.7862    0.4264 C   0  0  0  0  0  0  0  0  0  0  0  0
   -0.3036    0.2261    0.4260 C   0  0  0  0  0  0  0  0  0  0  0  0
   -0.1932    1.5182    0.6582 N   0  0  0  0  0  0  0  0  0  0  0  0
   -1.4461    2.0814    0.5815 N   0  0  0  0  0  0  0  0  0  0  0  0
   -2.3120    1.1204    0.3386 C   0  0  0  0  0  0  0  0  0  0  0  0
   -3.7953    1.2606    0.1917 C   0  0  0  0  0  0  0  0  0  0  0  0
   -4.5648    0.4300    1.2382 C   0  0  0  0  0  0  0  0  0  0  0  0
   -5.1306   -0.8625    0.6576 C   0  0  0  0  0  0  0  0  0  0  0  0
   -6.0796   -0.5997   -0.5130 C   0  0  0  0  0  0  0  0  0  0  0  0
   -5.7254    0.6485   -1.3226 C   0  0  0  0  0  0  0  0  0  0  0  0
   -4.2369    0.9662   -1.2535 C   0  0  0  0  0  0  0  0  0  0  0  0
   -1.6319   -0.0623    0.2443 N   0  0  0  0  0  0  0  0  0  0  0  0
    2.0883   -0.4175    0.4407 N   0  0  0  0  0  0  0  0  0  0  0  0
    2.6077    0.8330   -0.1592 C   0  0  1  0  0  0  0  0  0  0  0  0
    3.8250    1.3200    0.6442 C   0  0  0  0  0  0  0  0  0  0  0  0
    4.9100    0.2309    0.6545 C   0  0  2  0  0  0  0  0  0  0  0  0
    5.3304   -0.0886   -0.7915 C   0  0  0  0  0  0  0  0  0  0  0  0
    4.1171   -0.5713   -1.6073 C   0  0  1  0  0  0  0  0  0  0  0  0
    3.5299   -1.8337   -0.9460 C   0  0  0  0  0  0  0  0  0  0  0  0
    3.0926   -1.4972    0.4915 C   0  0  1  0  0  0  0  0  0  0  0  0
    4.3117   -1.0277    1.3026 C   0  0  0  0  0  0  0  0  0  0  0  0
    3.0380    0.5293   -1.6090 C   0  0  0  0  0  0  0  0  0  0  0  0
   -4.0281    2.3149    0.4001 H   0  0  0  0  0  0  0  0  0  0  0  0
   -3.9413    0.2062    2.1123 H   0  0  0  0  0  0  0  0  0  0  0  0
   -5.4060    1.0298    1.6112 H   0  0  0  0  0  0  0  0  0  0  0  0
   -5.6584   -1.4258    1.4358 H   0  0  0  0  0  0  0  0  0  0  0  0
   -4.3068   -1.5024    0.3195 H   0  0  0  0  0  0  0  0  0  0  0  0
   -7.1069   -0.4977   -0.1425 H   0  0  0  0  0  0  0  0  0  0  0  0
   -6.0789   -1.4792   -1.1682 H   0  0  0  0  0  0  0  0  0  0  0  0
   -6.0372    0.5118   -2.3643 H   0  0  0  0  0  0  0  0  0  0  0  0
   -6.2938    1.5048   -0.9378 H   0  0  0  0  0  0  0  0  0  0  0  0
   -4.0104    1.8318   -1.8885 H   0  0  0  0  0  0  0  0  0  0  0  0
   -3.6761    0.1230   -1.6776 H   0  0  0  0  0  0  0  0  0  0  0  0
   -2.0065   -0.9861    0.0835 H   0  0  0  0  0  0  0  0  0  0  0  0
    1.8621    1.6238   -0.1846 H   0  0  0  0  0  0  0  0  0  0  0  0
    4.2225    2.2431    0.2053 H   0  0  0  0  0  0  0  0  0  0  0  0
    3.5232    1.5544    1.6726 H   0  0  0  0  0  0  0  0  0  0  0  0
    5.7778    0.5722    1.2294 H   0  0  0  0  0  0  0  0  0  0  0  0
    5.7636    0.8037   -1.2597 H   0  0  0  0  0  0  0  0  0  0  0  0
    6.1103   -0.8598   -0.7913 H   0  0  0  0  0  0  0  0  0  0  0  0
    4.4232   -0.7960   -2.6348 H   0  0  0  0  0  0  0  0  0  0  0  0
    2.6729   -2.1924   -1.5293 H   0  0  0  0  0  0  0  0  0  0  0  0
    4.2755   -2.6378   -0.9371 H   0  0  0  0  0  0  0  0  0  0  0  0
    2.6707   -2.3885    0.9685 H   0  0  0  0  0  0  0  0  0  0  0  0
    5.0648   -1.8236    1.3482 H   0  0  0  0  0  0  0  0  0  0  0  0
    4.0111   -0.8069    2.3344 H   0  0  0  0  0  0  0  0  0  0  0  0
    3.4267    1.4372   -2.0857 H   0  0  0  0  0  0  0  0  0  0  0  0
    2.1728    0.1990   -2.1972 H   0  0  0  0  0  0  0  0  0  0  0  0
  1  2  2  0
  2  3  1  0
  3  4  2  0
  4  5  1  0
  5  6  2  0
  6  7  1  0
  7  8  1  0
  8  9  1  0
  9 10  1  0
 10 11  1  0
 11 12  1  0
  6 13  1  0
  2 14  1  0
 14 15  1  0
 15 16  1  0
 16 17  1  0
 17 18  1  0
 18 19  1  0
 19 20  1  0
 20 21  1  0
 21 22  1  0
 19 23  1  0
 13  3  1  0
 21 14  1  0
 12  7  1  0
 23 15  1  0
 22 17  1  0
  7 24  1  0
  8 25  1  0
  8 26  1  0
  9 27  1  0
  9 28  1  0
 10 29  1  0
 10 30  1  0
 11 31  1  0
 11 32  1  0
 12 33  1  0
 12 34  1  0
 13 35  1  0
 15 36  1  6
 16 37  1  0
 16 38  1  0
 17 39  1  1
 18 40  1  0
 18 41  1  0
 19 42  1  6
 20 43  1  0
 20 44  1  0
 21 45  1  1
 22 46  1  0
 22 47  1  0
 23 48  1  0
 23 49  1  0
M  END
>  <_SMILES>  (13) 
O=C(c1nnc(C2CCCCC2)[nH]1)N1[C@H]2C[C@@H]3C[C@@H](C[C@H]1C3)C2

$$$$

     RDKit          3D

 49 53  0  0  0  0  0  0  0  0999 V2000
   -1.6804   -3.2765   -0.3587 O   0  0  0  0  0  0  0  0  0  0  0  0
   -1.0934   -2.1939   -0.2773 C   0  0  0  0  0  0  0  0  0  0  0  0
    0.3080   -2.1759    0.0907 C   0  0  0  0  0  0  0  0  0  0  0  0
    1.1755   -1.1836    0.0331 N   0  0  0  0  0  0  0  0  0  0  0  0
    2.3481   -1.7490    0.4655 C   0  0  0  0  0  0  0  0  0  0  0  0
    3.6206   -0.9696    0.5851 C   0  0  0  0  0  0  0  0  0  0  0  0
    3.5511    0.0030    1.7797 C   0  0  0  0  0  0  0  0  0  0  0  0
    4.5175    1.1689    1.6147 C   0  0  0  0  0  0  0  0  0  0  0  0
    4.1896    2.0048    0.3769 C   0  0  0  0  0  0  0  0  0  0  0  0
    3.5443    1.1992   -0.7520 C   0  0  0  0  0  0  0  0  0  0  0  0
    3.9875   -0.2606   -0.7356 C   0  0  0  0  0  0  0  0  0  0  0  0
    2.2595   -3.0465    0.7802 N   0  0  0  0  0  0  0  0  0  0  0  0
    0.9666   -3.2959    0.5137 N   0  0  0  0  0  0  0  0  0  0  0  0
   -1.7664   -0.9943   -0.5626 N   0  0  0  0  0  0  0  0  0  0  0  0
   -3.1809   -1.0829   -0.9734 C   0  0  1  0  0  0  0  0  0  0  0  0
   -4.0688   -0.9031    0.2716 C   0  0  0  0  0  0  0  0  0  0  0  0
   -3.7706    0.4653    0.9154 C   0  0  2  0  0  0  0  0  0  0  0  0
   -4.0669    1.5810   -0.1035 C   0  0  0  0  0  0  0  0  0  0  0  0
   -3.1999    1.3999   -1.3626 C   0  0  1  0  0  0  0  0  0  0  0  0
   -1.7138    1.4359   -0.9712 C   0  0  0  0  0  0  0  0  0  0  0  0
   -1.4148    0.3134    0.0363 C   0  0  1  0  0  0  0  0  0  0  0  0
   -2.2784    0.5131    1.2985 C   0  0  0  0  0  0  0  0  0  0  0  0
   -3.4913    0.0278   -1.9906 C   0  0  0  0  0  0  0  0  0  0  0  0
    4.4287   -1.6878    0.7857 H   0  0  0  0  0  0  0  0  0  0  0  0
    3.7771   -0.5409    2.7054 H   0  0  0  0  0  0  0  0  0  0  0  0
    2.5353    0.4021    1.9027 H   0  0  0  0  0  0  0  0  0  0  0  0
    4.4985    1.8076    2.5050 H   0  0  0  0  0  0  0  0  0  0  0  0
    5.5403    0.7800    1.5322 H   0  0  0  0  0  0  0  0  0  0  0  0
    3.5160    2.8260    0.6508 H   0  0  0  0  0  0  0  0  0  0  0  0
    5.1126    2.4756    0.0170 H   0  0  0  0  0  0  0  0  0  0  0  0
    2.4526    1.2501   -0.6567 H   0  0  0  0  0  0  0  0  0  0  0  0
    3.7917    1.6582   -1.7160 H   0  0  0  0  0  0  0  0  0  0  0  0
    5.0784   -0.2884   -0.8605 H   0  0  0  0  0  0  0  0  0  0  0  0
    3.5676   -0.7889   -1.6003 H   0  0  0  0  0  0  0  0  0  0  0  0
    0.5883   -4.2296    0.6309 H   0  0  0  0  0  0  0  0  0  0  0  0
   -3.3844   -2.0546   -1.4361 H   0  0  0  0  0  0  0  0  0  0  0  0
   -3.8731   -1.7033    0.9959 H   0  0  0  0  0  0  0  0  0  0  0  0
   -5.1279   -0.9681   -0.0054 H   0  0  0  0  0  0  0  0  0  0  0  0
   -4.3902    0.6008    1.8085 H   0  0  0  0  0  0  0  0  0  0  0  0
   -5.1291    1.5641   -0.3766 H   0  0  0  0  0  0  0  0  0  0  0  0
   -3.8687    2.5608    0.3480 H   0  0  0  0  0  0  0  0  0  0  0  0
   -3.4167    2.1958   -2.0835 H   0  0  0  0  0  0  0  0  0  0  0  0
   -1.4625    2.4108   -0.5361 H   0  0  0  0  0  0  0  0  0  0  0  0
   -1.0900    1.3101   -1.8650 H   0  0  0  0  0  0  0  0  0  0  0  0
   -0.3694    0.3730    0.3273 H   0  0  0  0  0  0  0  0  0  0  0  0
   -2.0588   -0.2719    2.0329 H   0  0  0  0  0  0  0  0  0  0  0  0
   -2.0411    1.4742    1.7704 H   0  0  0  0  0  0  0  0  0  0  0  0
   -4.5407   -0.0290   -2.3041 H   0  0  0  0  0  0  0  0  0  0  0  0
   -2.8771   -0.1070   -2.8896 H   0  0  0  0  0  0  0  0  0  0  0  0
  1  2  2  0
  2  3  1  0
  3  4  2  0
  4  5  1  0
  5  6  1  0
  6  7  1  0
  7  8  1  0
  8  9  1  0
  9 10  1  0
 10 11  1  0
  5 12  2  0
 12 13  1  0
  2 14  1  0
 14 15  1  0
 15 16  1  0
 16 17  1  0
 17 18  1  0
 18 19  1  0
 19 20  1  0
 20 21  1  0
 21 22  1  0
 19 23  1  0
 13  3  1  0
 21 14  1  0
 11  6  1  0
 23 15  1  0
 22 17  1  0
  6 24  1  0
  7 25  1  0
  7 26  1  0
  8 27  1  0
  8 28  1  0
  9 29  1  0
  9 30  1  0
 10 31  1  0
 10 32  1  0
 11 33  1  0
 11 34  1  0
 13 35  1  0
 15 36  1  6
 16 37  1  0
 16 38  1  0
 17 39  1  1
 18 40  1  0
 18 41  1  0
 19 42  1  6
 20 43  1  0
 20 44  1  0
 21 45  1  1
 22 46  1  0
 22 47  1  0
 23 48  1  0
 23 49  1  0
M  END
>  <_SMILES>  (14) 
O=C(c1nc(C2CCCCC2)n[nH]1)N1[C@H]2C[C@@H]3C[C@@H](C[C@H]1C3)C2

$$$$

     RDKit          3D

 49 53  0  0  0  0  0  0  0  0999 V2000
   -1.2302    2.0829   -1.5181 O   0  0  0  0  0  0  0  0  0  0  0  0
   -1.1538    0.9579   -1.0168 C   0  0  0  0  0  0  0  0  0  0  0  0
    0.1686    0.3478   -0.7223 C   0  0  0  0  0  0  0  0  0  0  0  0
    0.4317   -0.9758   -0.7736 N   0  0  0  0  0  0  0  0  0  0  0  0
    1.7459   -1.0150   -0.5156 N   0  0  0  0  0  0  0  0  0  0  0  0
    2.2597    0.2312   -0.3067 C   0  0  0  0  0  0  0  0  0  0  0  0
    3.6960    0.5075    0.0024 C   0  0  0  0  0  0  0  0  0  0  0  0
    4.5992    0.2312   -1.2142 C   0  0  0  0  0  0  0  0  0  0  0  0
    6.0460   -0.1000   -0.8363 C   0  0  0  0  0  0  0  0  0  0  0  0
    6.4672    0.5819    0.4578 C   0  0  0  0  0  0  0  0  0  0  0  0
    5.5985    0.1484    1.6400 C   0  0  0  0  0  0  0  0  0  0  0  0
    4.1765   -0.2560    1.2410 C   0  0  0  0  0  0  0  0  0  0  0  0
    1.2911    1.1093   -0.4362 N   0  0  0  0  0  0  0  0  0  0  0  0
   -2.3202    0.2107   -0.7447 N   0  0  0  0  0  0  0  0  0  0  0  0
   -3.6128    0.7989   -1.1353 C   0  0  1  0  0  0  0  0  0  0  0  0
   -4.5949   -0.3284   -1.4964 C   0  0  0  0  0  0  0  0  0  0  0  0
   -4.7693   -1.2674   -0.2911 C   0  0  2  0  0  0  0  0  0  0  0  0
   -5.3080   -0.4649    0.9071 C   0  0  0  0  0  0  0  0  0  0  0  0
   -4.3378    0.6753    1.2670 C   0  0  1  0  0  0  0  0  0  0  0  0
   -2.9611    0.0770    1.6159 C   0  0  0  0  0  0  0  0  0  0  0  0
   -2.4184   -0.7117    0.4059 C   0  0  1  0  0  0  0  0  0  0  0  0
   -3.3907   -1.8517    0.0619 C   0  0  0  0  0  0  0  0  0  0  0  0
   -4.1732    1.6067    0.0499 C   0  0  0  0  0  0  0  0  0  0  0  0
    2.2227   -1.9093   -0.5031 H   0  0  0  0  0  0  0  0  0  0  0  0
    3.7700    1.5802    0.2333 H   0  0  0  0  0  0  0  0  0  0  0  0
    4.2107   -0.5890   -1.8312 H   0  0  0  0  0  0  0  0  0  0  0  0
    4.5875    1.1176   -1.8624 H   0  0  0  0  0  0  0  0  0  0  0  0
    6.7145    0.1916   -1.6542 H   0  0  0  0  0  0  0  0  0  0  0  0
    6.1505   -1.1862   -0.7200 H   0  0  0  0  0  0  0  0  0  0  0  0
    7.5191    0.3663    0.6765 H   0  0  0  0  0  0  0  0  0  0  0  0
    6.3922    1.6694    0.3313 H   0  0  0  0  0  0  0  0  0  0  0  0
    6.0705   -0.6956    2.1576 H   0  0  0  0  0  0  0  0  0  0  0  0
    5.5607    0.9688    2.3670 H   0  0  0  0  0  0  0  0  0  0  0  0
    4.1573   -1.3362    1.0427 H   0  0  0  0  0  0  0  0  0  0  0  0
    3.5018   -0.0919    2.0906 H   0  0  0  0  0  0  0  0  0  0  0  0
   -3.4837    1.4534   -2.0043 H   0  0  0  0  0  0  0  0  0  0  0  0
   -4.2139   -0.8948   -2.3553 H   0  0  0  0  0  0  0  0  0  0  0  0
   -5.5636    0.0932   -1.7906 H   0  0  0  0  0  0  0  0  0  0  0  0
   -5.4649   -2.0753   -0.5430 H   0  0  0  0  0  0  0  0  0  0  0  0
   -5.4412   -1.1280    1.7706 H   0  0  0  0  0  0  0  0  0  0  0  0
   -6.2953   -0.0522    0.6660 H   0  0  0  0  0  0  0  0  0  0  0  0
   -4.7266    1.2413    2.1205 H   0  0  0  0  0  0  0  0  0  0  0  0
   -2.2649    0.8814    1.8841 H   0  0  0  0  0  0  0  0  0  0  0  0
   -3.0464   -0.5819    2.4885 H   0  0  0  0  0  0  0  0  0  0  0  0
   -1.4515   -1.1309    0.6818 H   0  0  0  0  0  0  0  0  0  0  0  0
   -3.4797   -2.5418    0.9095 H   0  0  0  0  0  0  0  0  0  0  0  0
   -3.0033   -2.4289   -0.7869 H   0  0  0  0  0  0  0  0  0  0  0  0
   -3.4945    2.4301    0.3039 H   0  0  0  0  0  0  0  0  0  0  0  0
   -5.1382    2.0532   -0.2181 H   0  0  0  0  0  0  0  0  0  0  0  0
  1  2  2  0
  2  3  1  0
  3  4  2  0
  4  5  1  0
  5  6  1  0
  6  7  1  0
  7  8  1  0
  8  9  1  0
  9 10  1  0
 10 11  1  0
 11 12  1  0
  6 13  2  0
  2 14  1  0
 14 15  1  0
 15 16  1  0
 16 17  1  0
 17 18  1  0
 18 19  1  0
 19 20  1  0
 20 21  1  0
 21 22  1  0
 19 23  1  0
 13  3  1  0
 21 14  1  0
 12  7  1  0
 23 15  1  0
 22 17  1  0
  5 24  1  0
  7 25  1  0
  8 26  1  0
  8 27  1  0
  9 28  1  0
  9 29  1  0
 10 30  1  0
 10 31  1  0
 11 32  1  0
 11 33  1  0
 12 34  1  0
 12 35  1  0
 15 36  1  6
 16 37  1  0
 16 38  1  0
 17 39  1  6
 18 40  1  0
 18 41  1  0
 19 42  1  1
 20 43  1  0
 20 44  1  0
 21 45  1  1
 22 46  1  0
 22 47  1  0
 23 48  1  0
 23 49  1  0
M  END
>  <_SMILES>  (15) 
O=C(c1n[nH]c(C2CCCCC2)n1)N1[C@H]2C[C@@H]3C[C@@H](C[C@H]1C3)C2

$$$$

     RDKit          3D

 41 43  0  0  0  0  0  0  0  0999 V2000
    1.3879   -1.0764    0.9601 O   0  0  0  0  0  0  0  0  0  0  0  0
    1.2716   -0.1429    0.1730 C   0  0  0  0  0  0  0  0  0  0  0  0
    2.3015    0.5570   -0.4255 N   0  0  0  0  0  0  0  0  0  0  0  0
    3.6872    0.3719   -0.2791 C   0  0  0  0  0  0  0  0  0  0  0  0
    4.5247    1.2259   -1.0065 C   0  0  0  0  0  0  0  0  0  0  0  0
    5.9159    1.1098   -0.9182 C   0  0  0  0  0  0  0  0  0  0  0  0
    6.4977    0.1388   -0.0928 C   0  0  0  0  0  0  0  0  0  0  0  0
    7.9975   -0.0057   -0.0114 C   0  0  0  0  0  0  0  0  0  0  0  0
    8.4255   -0.4847    1.1900 F   0  0  0  0  0  0  0  0  0  0  0  0
    8.6580    1.1716   -0.1970 F   0  0  0  0  0  0  0  0  0  0  0  0
    8.4868   -0.8605   -0.9512 F   0  0  0  0  0  0  0  0  0  0  0  0
    5.6559   -0.7201    0.6270 C   0  0  0  0  0  0  0  0  0  0  0  0
    4.2634   -0.6020    0.5368 C   0  0  0  0  0  0  0  0  0  0  0  0
   -0.0285    0.3433   -0.2278 C   0  0  0  0  0  0  0  0  0  0  0  0
   -0.2456    1.3380   -1.0657 N   0  0  0  0  0  0  0  0  0  0  0  0
   -1.6069    1.4936   -1.1870 N   0  0  0  0  0  0  0  0  0  0  0  0
   -2.1949    0.5945   -0.4239 C   0  0  0  0  0  0  0  0  0  0  0  0
   -3.6655    0.3923   -0.2424 C   0  0  0  0  0  0  0  0  0  0  0  0
   -4.1064   -0.9980   -0.7233 C   0  0  0  0  0  0  0  0  0  0  0  0
   -5.6068   -1.2080   -0.5293 C   0  0  0  0  0  0  0  0  0  0  0  0
   -6.0279   -0.9597    0.9161 C   0  0  0  0  0  0  0  0  0  0  0  0
   -5.5926    0.4204    1.4001 C   0  0  0  0  0  0  0  0  0  0  0  0
   -4.0921    0.6360    1.2127 C   0  0  0  0  0  0  0  0  0  0  0  0
   -1.2292   -0.1510    0.1982 N   0  0  0  0  0  0  0  0  0  0  0  0
    1.9940    1.2995   -1.0495 H   0  0  0  0  0  0  0  0  0  0  0  0
    4.1071    1.9937   -1.6543 H   0  0  0  0  0  0  0  0  0  0  0  0
    6.5444    1.7850   -1.4977 H   0  0  0  0  0  0  0  0  0  0  0  0
    6.0796   -1.4917    1.2691 H   0  0  0  0  0  0  0  0  0  0  0  0
    3.6593   -1.2911    1.1189 H   0  0  0  0  0  0  0  0  0  0  0  0
   -4.1750    1.1386   -0.8685 H   0  0  0  0  0  0  0  0  0  0  0  0
   -3.8557   -1.1276   -1.7836 H   0  0  0  0  0  0  0  0  0  0  0  0
   -3.5637   -1.7810   -0.1774 H   0  0  0  0  0  0  0  0  0  0  0  0
   -6.1586   -0.5301   -1.1921 H   0  0  0  0  0  0  0  0  0  0  0  0
   -5.8764   -2.2293   -0.8213 H   0  0  0  0  0  0  0  0  0  0  0  0
   -5.5859   -1.7286    1.5618 H   0  0  0  0  0  0  0  0  0  0  0  0
   -7.1159   -1.0550    1.0046 H   0  0  0  0  0  0  0  0  0  0  0  0
   -5.8522    0.5386    2.4581 H   0  0  0  0  0  0  0  0  0  0  0  0
   -6.1436    1.1916    0.8479 H   0  0  0  0  0  0  0  0  0  0  0  0
   -3.5485   -0.0377    1.8882 H   0  0  0  0  0  0  0  0  0  0  0  0
   -3.8314    1.6576    1.5164 H   0  0  0  0  0  0  0  0  0  0  0  0
   -1.3544   -0.9167    0.8454 H   0  0  0  0  0  0  0  0  0  0  0  0
  1  2  2  0
  2  3  1  0
  3  4  1  0
  4  5  1  0
  5  6  2  0
  6  7  1  0
  7  8  1  0
  8  9  1  0
  8 10  1  0
  8 11  1  0
  7 12  2  0
 12 13  1  0
  2 14  1  0
 14 15  2  0
 15 16  1  0
 16 17  2  0
 17 18  1  0
 18 19  1  0
 19 20  1  0
 20 21  1  0
 21 22  1  0
 22 23  1  0
 17 24  1  0
 13  4  2  0
 24 14  1  0
 23 18  1  0
  3 25  1  0
  5 26  1  0
  6 27  1  0
 12 28  1  0
 13 29  1  0
 18 30  1  0
 19 31  1  0
 19 32  1  0
 20 33  1  0
 20 34  1  0
 21 35  1  0
 21 36  1  0
 22 37  1  0
 22 38  1  0
 23 39  1  0
 23 40  1  0
 24 41  1  0
M  END
>  <_SMILES>  (16) 
O=C(Nc1ccc(C(F)(F)F)cc1)c1nnc(C2CCCCC2)[nH]1

$$$$

     RDKit          3D

 41 43  0  0  0  0  0  0  0  0999 V2000
    2.0172   -2.7808    1.0625 O   0  0  0  0  0  0  0  0  0  0  0  0
    1.3345   -1.8258    0.7098 C   0  0  0  0  0  0  0  0  0  0  0  0
    1.7962   -0.6335    0.1873 N   0  0  0  0  0  0  0  0  0  0  0  0
    3.1223   -0.2394   -0.0586 C   0  0  0  0  0  0  0  0  0  0  0  0
    3.3187    1.0366   -0.5995 C   0  0  0  0  0  0  0  0  0  0  0  0
    4.6072    1.5066   -0.8741 C   0  0  0  0  0  0  0  0  0  0  0  0
    5.7275    0.7092   -0.6058 C   0  0  0  0  0  0  0  0  0  0  0  0
    7.1181    1.2028   -0.9215 C   0  0  0  0  0  0  0  0  0  0  0  0
    8.0734    0.6728   -0.1077 F   0  0  0  0  0  0  0  0  0  0  0  0
    7.4985    0.8994   -2.1930 F   0  0  0  0  0  0  0  0  0  0  0  0
    7.2426    2.5549   -0.8069 F   0  0  0  0  0  0  0  0  0  0  0  0
    5.5262   -0.5712   -0.0726 C   0  0  0  0  0  0  0  0  0  0  0  0
    4.2352   -1.0395    0.2015 C   0  0  0  0  0  0  0  0  0  0  0  0
   -0.1059   -1.8475    0.8089 C   0  0  0  0  0  0  0  0  0  0  0  0
   -0.9220   -0.8701    0.4556 N   0  0  0  0  0  0  0  0  0  0  0  0
   -2.1633   -1.3852    0.7456 C   0  0  0  0  0  0  0  0  0  0  0  0
   -3.4277   -0.6217    0.5127 C   0  0  0  0  0  0  0  0  0  0  0  0
   -3.5358   -0.1228   -0.9333 C   0  0  0  0  0  0  0  0  0  0  0  0
   -4.8887    0.5385   -1.2092 C   0  0  0  0  0  0  0  0  0  0  0  0
   -5.5035    1.2110    0.0191 C   0  0  0  0  0  0  0  0  0  0  0  0
   -4.4380    1.6944    0.9923 C   0  0  0  0  0  0  0  0  0  0  0  0
   -3.5723    0.5432    1.5119 C   0  0  0  0  0  0  0  0  0  0  0  0
   -2.1518   -2.6223    1.2586 N   0  0  0  0  0  0  0  0  0  0  0  0
   -0.8360   -2.8923    1.2874 N   0  0  0  0  0  0  0  0  0  0  0  0
    1.0587    0.0293   -0.0406 H   0  0  0  0  0  0  0  0  0  0  0  0
    2.4719    1.6838   -0.8167 H   0  0  0  0  0  0  0  0  0  0  0  0
    4.7321    2.5022   -1.2982 H   0  0  0  0  0  0  0  0  0  0  0  0
    6.3777   -1.2181    0.1369 H   0  0  0  0  0  0  0  0  0  0  0  0
    4.1375   -2.0377    0.6174 H   0  0  0  0  0  0  0  0  0  0  0  0
   -4.2695   -1.3096    0.6810 H   0  0  0  0  0  0  0  0  0  0  0  0
   -2.7355    0.6027   -1.1340 H   0  0  0  0  0  0  0  0  0  0  0  0
   -3.3832   -0.9448   -1.6440 H   0  0  0  0  0  0  0  0  0  0  0  0
   -5.5956   -0.2081   -1.5912 H   0  0  0  0  0  0  0  0  0  0  0  0
   -4.7613    1.2756   -2.0113 H   0  0  0  0  0  0  0  0  0  0  0  0
   -6.1621    0.4989    0.5322 H   0  0  0  0  0  0  0  0  0  0  0  0
   -6.1368    2.0472   -0.2982 H   0  0  0  0  0  0  0  0  0  0  0  0
   -4.9034    2.2138    1.8377 H   0  0  0  0  0  0  0  0  0  0  0  0
   -3.7984    2.4300    0.4882 H   0  0  0  0  0  0  0  0  0  0  0  0
   -2.5937    0.9512    1.7965 H   0  0  0  0  0  0  0  0  0  0  0  0
   -4.0089    0.1508    2.4399 H   0  0  0  0  0  0  0  0  0  0  0  0
   -0.5019   -3.7846    1.6361 H   0  0  0  0  0  0  0  0  0  0  0  0
  1  2  2  0
  2  3  1  0
  3  4  1  0
  4  5  1  0
  5  6  2  0
  6  7  1  0
  7  8  1  0
  8  9  1  0
  8 10  1  0
  8 11  1  0
  7 12  2  0
 12 13  1  0
  2 14  1  0
 14 15  2  0
 15 16  1  0
 16 17  1  0
 17 18  1  0
 18 19  1  0
 19 20  1  0
 20 21  1  0
 21 22  1  0
 16 23  2  0
 23 24  1  0
 13  4  2  0
 24 14  1  0
 22 17  1  0
  3 25  1  0
  5 26  1  0
  6 27  1  0
 12 28  1  0
 13 29  1  0
 17 30  1  0
 18 31  1  0
 18 32  1  0
 19 33  1  0
 19 34  1  0
 20 35  1  0
 20 36  1  0
 21 37  1  0
 21 38  1  0
 22 39  1  0
 22 40  1  0
 24 41  1  0
M  END
>  <_SMILES>  (17) 
O=C(Nc1ccc(C(F)(F)F)cc1)c1nc(C2CCCCC2)n[nH]1

$$$$

     RDKit          3D

 41 43  0  0  0  0  0  0  0  0999 V2000
    2.1661    1.5931    2.0526 O   0  0  0  0  0  0  0  0  0  0  0  0
    1.5571    0.9414    1.2103 C   0  0  0  0  0  0  0  0  0  0  0  0
    2.1253    0.1821    0.1977 N   0  0  0  0  0  0  0  0  0  0  0  0
    3.4858   -0.0130   -0.0919 C   0  0  0  0  0  0  0  0  0  0  0  0
    3.7946   -0.8355   -1.1816 C   0  0  0  0  0  0  0  0  0  0  0  0
    5.1248   -1.0819   -1.5375 C   0  0  0  0  0  0  0  0  0  0  0  0
    6.1745   -0.5138   -0.8037 C   0  0  0  0  0  0  0  0  0  0  0  0
    7.6101   -0.7586   -1.1980 C   0  0  0  0  0  0  0  0  0  0  0  0
    8.0553    0.1415   -2.1175 F   0  0  0  0  0  0  0  0  0  0  0  0
    7.8071   -1.9875   -1.7539 F   0  0  0  0  0  0  0  0  0  0  0  0
    8.4768   -0.6838   -0.1497 F   0  0  0  0  0  0  0  0  0  0  0  0
    5.8611    0.3162    0.2811 C   0  0  0  0  0  0  0  0  0  0  0  0
    4.5286    0.5612    0.6353 C   0  0  0  0  0  0  0  0  0  0  0  0
    0.0776    0.8719    1.1552 C   0  0  0  0  0  0  0  0  0  0  0  0
   -0.7526    1.5019    2.0038 N   0  0  0  0  0  0  0  0  0  0  0  0
   -1.9568    1.1342    1.5495 N   0  0  0  0  0  0  0  0  0  0  0  0
   -1.8590    0.3097    0.4637 C   0  0  0  0  0  0  0  0  0  0  0  0
   -3.0368   -0.2650   -0.2627 C   0  0  0  0  0  0  0  0  0  0  0  0
   -3.9218   -1.1316    0.6552 C   0  0  0  0  0  0  0  0  0  0  0  0
   -5.1888   -0.4070    1.0997 C   0  0  0  0  0  0  0  0  0  0  0  0
   -6.0455    0.0339   -0.0883 C   0  0  0  0  0  0  0  0  0  0  0  0
   -5.2339    0.3693   -1.3404 C   0  0  0  0  0  0  0  0  0  0  0  0
   -3.8251    0.8357   -0.9956 C   0  0  0  0  0  0  0  0  0  0  0  0
   -0.5852    0.1238    0.1876 N   0  0  0  0  0  0  0  0  0  0  0  0
    1.4429   -0.2828   -0.3964 H   0  0  0  0  0  0  0  0  0  0  0  0
    3.0045   -1.2955   -1.7706 H   0  0  0  0  0  0  0  0  0  0  0  0
    5.3378   -1.7229   -2.3919 H   0  0  0  0  0  0  0  0  0  0  0  0
    6.6551    0.7808    0.8649 H   0  0  0  0  0  0  0  0  0  0  0  0
    4.3423    1.2092    1.4868 H   0  0  0  0  0  0  0  0  0  0  0  0
   -2.7872    1.4780    2.0187 H   0  0  0  0  0  0  0  0  0  0  0  0
   -2.6267   -0.9415   -1.0265 H   0  0  0  0  0  0  0  0  0  0  0  0
   -4.2234   -2.0317    0.1024 H   0  0  0  0  0  0  0  0  0  0  0  0
   -3.3665   -1.4866    1.5319 H   0  0  0  0  0  0  0  0  0  0  0  0
   -4.9165    0.4720    1.6961 H   0  0  0  0  0  0  0  0  0  0  0  0
   -5.7816   -1.0534    1.7571 H   0  0  0  0  0  0  0  0  0  0  0  0
   -6.6394    0.9054    0.2130 H   0  0  0  0  0  0  0  0  0  0  0  0
   -6.7670   -0.7535   -0.3383 H   0  0  0  0  0  0  0  0  0  0  0  0
   -5.7566    1.1364   -1.9229 H   0  0  0  0  0  0  0  0  0  0  0  0
   -5.1714   -0.5191   -1.9816 H   0  0  0  0  0  0  0  0  0  0  0  0
   -3.8939    1.7479   -0.3885 H   0  0  0  0  0  0  0  0  0  0  0  0
   -3.2915    1.1195   -1.9113 H   0  0  0  0  0  0  0  0  0  0  0  0
  1  2  2  0
  2  3  1  0
  3  4  1  0
  4  5  1  0
  5  6  2  0
  6  7  1  0
  7  8  1  0
  8  9  1  0
  8 10  1  0
  8 11  1  0
  7 12  2  0
 12 13  1  0
  2 14  1  0
 14 15  2  0
 15 16  1  0
 16 17  1  0
 17 18  1  0
 18 19  1  0
 19 20  1  0
 20 21  1  0
 21 22  1  0
 22 23  1  0
 17 24  2  0
 13  4  2  0
 24 14  1  0
 23 18  1  0
  3 25  1  0
  5 26  1  0
  6 27  1  0
 12 28  1  0
 13 29  1  0
 16 30  1  0
 18 31  1  0
 19 32  1  0
 19 33  1  0
 20 34  1  0
 20 35  1  0
 21 36  1  0
 21 37  1  0
 22 38  1  0
 22 39  1  0
 23 40  1  0
 23 41  1  0
M  END
>  <_SMILES>  (18) 
O=C(Nc1ccc(C(F)(F)F)cc1)c1n[nH]c(C2CCCCC2)n1

$$$$

     RDKit          3D

 38 40  0  0  0  0  0  0  0  0999 V2000
    2.7662    0.9975   -2.4159 O   0  0  0  0  0  0  0  0  0  0  0  0
    2.1068    0.8767   -1.3896 C   0  0  0  0  0  0  0  0  0  0  0  0
    2.5971    0.3753   -0.1880 N   0  0  0  0  0  0  0  0  0  0  0  0
    3.8723   -0.1783    0.0554 C   0  0  0  0  0  0  0  0  0  0  0  0
    4.8059   -0.4622   -0.9428 C   0  0  0  0  0  0  0  0  0  0  0  0
    6.0439   -1.0258   -0.6160 C   0  0  0  0  0  0  0  0  0  0  0  0
    6.3573   -1.3137    0.7098 C   0  0  0  0  0  0  0  0  0  0  0  0
    5.4321   -1.0395    1.7125 C   0  0  0  0  0  0  0  0  0  0  0  0
    4.1952   -0.4766    1.3866 C   0  0  0  0  0  0  0  0  0  0  0  0
    0.7088    1.2541   -1.3088 C   0  0  0  0  0  0  0  0  0  0  0  0
    0.1812    2.3197   -1.8763 N   0  0  0  0  0  0  0  0  0  0  0  0
   -1.1622    2.3456   -1.5782 N   0  0  0  0  0  0  0  0  0  0  0  0
   -1.4448    1.2773   -0.8654 C   0  0  0  0  0  0  0  0  0  0  0  0
   -2.7874    0.8722   -0.3473 C   0  0  0  0  0  0  0  0  0  0  0  0
   -3.3248   -0.3695   -1.0833 C   0  0  0  0  0  0  0  0  0  0  0  0
   -4.3259   -1.1821   -0.2568 C   0  0  0  0  0  0  0  0  0  0  0  0
   -5.1060   -0.3070    0.7142 C   0  0  0  0  0  0  0  0  0  0  0  0
   -4.1860    0.3962    1.7137 C   0  0  0  0  0  0  0  0  0  0  0  0
   -2.7793    0.6628    1.1706 C   0  0  0  0  0  0  0  0  0  0  0  0
   -0.2914    0.5638   -0.6738 N   0  0  0  0  0  0  0  0  0  0  0  0
    2.0319    0.5388    0.6338 H   0  0  0  0  0  0  0  0  0  0  0  0
    4.6060   -0.2613   -1.9910 H   0  0  0  0  0  0  0  0  0  0  0  0
    6.7629   -1.2372   -1.4039 H   0  0  0  0  0  0  0  0  0  0  0  0
    7.3217   -1.7491    0.9588 H   0  0  0  0  0  0  0  0  0  0  0  0
    5.6742   -1.2610    2.7489 H   0  0  0  0  0  0  0  0  0  0  0  0
    3.4959   -0.2704    2.1923 H   0  0  0  0  0  0  0  0  0  0  0  0
   -3.4739    1.7054   -0.5569 H   0  0  0  0  0  0  0  0  0  0  0  0
   -2.5140   -1.0405   -1.3943 H   0  0  0  0  0  0  0  0  0  0  0  0
   -3.8061   -0.0391   -2.0135 H   0  0  0  0  0  0  0  0  0  0  0  0
   -3.7876   -1.9535    0.3083 H   0  0  0  0  0  0  0  0  0  0  0  0
   -5.0127   -1.7098   -0.9282 H   0  0  0  0  0  0  0  0  0  0  0  0
   -5.6689    0.4450    0.1469 H   0  0  0  0  0  0  0  0  0  0  0  0
   -5.8467   -0.9064    1.2556 H   0  0  0  0  0  0  0  0  0  0  0  0
   -4.6528    1.3420    2.0148 H   0  0  0  0  0  0  0  0  0  0  0  0
   -4.1009   -0.2055    2.6268 H   0  0  0  0  0  0  0  0  0  0  0  0
   -2.3513    1.5321    1.6854 H   0  0  0  0  0  0  0  0  0  0  0  0
   -2.1336   -0.1886    1.4251 H   0  0  0  0  0  0  0  0  0  0  0  0
   -0.2028   -0.3278   -0.2101 H   0  0  0  0  0  0  0  0  0  0  0  0
  1  2  2  0
  2  3  1  0
  3  4  1  0
  4  5  2  0
  5  6  1  0
  6  7  2  0
  7  8  1  0
  8  9  2  0
  2 10  1  0
 10 11  2  0
 11 12  1  0
 12 13  2  0
 13 14  1  0
 14 15  1  0
 15 16  1  0
 16 17  1  0
 17 18  1  0
 18 19  1  0
 13 20  1  0
  9  4  1  0
 20 10  1  0
 19 14  1  0
  3 21  1  0
  5 22  1  0
  6 23  1  0
  7 24  1  0
  8 25  1  0
  9 26  1  0
 14 27  1  0
 15 28  1  0
 15 29  1  0
 16 30  1  0
 16 31  1  0
 17 32  1  0
 17 33  1  0
 18 34  1  0
 18 35  1  0
 19 36  1  0
 19 37  1  0
 20 38  1  0
M  END
>  <_SMILES>  (19) 
O=C(Nc1ccccc1)c1nnc(C2CCCCC2)[nH]1

$$$$

     RDKit          3D

 38 40  0  0  0  0  0  0  0  0999 V2000
    2.5452   -2.8438    0.5944 O   0  0  0  0  0  0  0  0  0  0  0  0
    1.8931   -1.8171    0.4413 C   0  0  0  0  0  0  0  0  0  0  0  0
    2.3869   -0.5293    0.3763 N   0  0  0  0  0  0  0  0  0  0  0  0
    3.7208   -0.0958    0.4675 C   0  0  0  0  0  0  0  0  0  0  0  0
    4.8089   -0.9513    0.6478 C   0  0  0  0  0  0  0  0  0  0  0  0
    6.1073   -0.4369    0.7284 C   0  0  0  0  0  0  0  0  0  0  0  0
    6.3273    0.9349    0.6296 C   0  0  0  0  0  0  0  0  0  0  0  0
    5.2485    1.7959    0.4497 C   0  0  0  0  0  0  0  0  0  0  0  0
    3.9516    1.2824    0.3691 C   0  0  0  0  0  0  0  0  0  0  0  0
    0.4557   -1.8495    0.3050 C   0  0  0  0  0  0  0  0  0  0  0  0
   -0.3326   -0.8023    0.1368 N   0  0  0  0  0  0  0  0  0  0  0  0
   -1.5841   -1.3667    0.0659 C   0  0  0  0  0  0  0  0  0  0  0  0
   -2.8246   -0.5551   -0.1290 C   0  0  0  0  0  0  0  0  0  0  0  0
   -2.8994    0.0222   -1.5565 C   0  0  0  0  0  0  0  0  0  0  0  0
   -3.7346    1.3015   -1.6589 C   0  0  0  0  0  0  0  0  0  0  0  0
   -4.8424    1.3429   -0.6163 C   0  0  0  0  0  0  0  0  0  0  0  0
   -4.2855    1.2981    0.8073 C   0  0  0  0  0  0  0  0  0  0  0  0
   -2.9515    0.5556    0.9208 C   0  0  0  0  0  0  0  0  0  0  0  0
   -1.6056   -2.7011    0.1792 N   0  0  0  0  0  0  0  0  0  0  0  0
   -0.3002   -2.9815    0.3307 N   0  0  0  0  0  0  0  0  0  0  0  0
    1.6717    0.1818    0.2448 H   0  0  0  0  0  0  0  0  0  0  0  0
    4.6849   -2.0262    0.7299 H   0  0  0  0  0  0  0  0  0  0  0  0
    6.9467   -1.1135    0.8690 H   0  0  0  0  0  0  0  0  0  0  0  0
    7.3376    1.3305    0.6927 H   0  0  0  0  0  0  0  0  0  0  0  0
    5.4148    2.8672    0.3720 H   0  0  0  0  0  0  0  0  0  0  0  0
    3.1260    1.9755    0.2285 H   0  0  0  0  0  0  0  0  0  0  0  0
   -3.6868   -1.2251    0.0035 H   0  0  0  0  0  0  0  0  0  0  0  0
   -3.3260   -0.7439   -2.2175 H   0  0  0  0  0  0  0  0  0  0  0  0
   -1.8991    0.2324   -1.9569 H   0  0  0  0  0  0  0  0  0  0  0  0
   -4.1579    1.3833   -2.6664 H   0  0  0  0  0  0  0  0  0  0  0  0
   -3.0812    2.1727   -1.5234 H   0  0  0  0  0  0  0  0  0  0  0  0
   -5.5137    0.4888   -0.7713 H   0  0  0  0  0  0  0  0  0  0  0  0
   -5.4520    2.2446   -0.7443 H   0  0  0  0  0  0  0  0  0  0  0  0
   -4.1516    2.3188    1.1859 H   0  0  0  0  0  0  0  0  0  0  0  0
   -5.0296    0.8263    1.4605 H   0  0  0  0  0  0  0  0  0  0  0  0
   -2.8485    0.1498    1.9350 H   0  0  0  0  0  0  0  0  0  0  0  0
   -2.1302    1.2748    0.7980 H   0  0  0  0  0  0  0  0  0  0  0  0
    0.0100   -3.9408    0.4445 H   0  0  0  0  0  0  0  0  0  0  0  0
  1  2  2  0
  2  3  1  0
  3  4  1  0
  4  5  2  0
  5  6  1  0
  6  7  2  0
  7  8  1  0
  8  9  2  0
  2 10  1  0
 10 11  2  0
 11 12  1  0
 12 13  1  0
 13 14  1  0
 14 15  1  0
 15 16  1  0
 16 17  1  0
 17 18  1  0
 12 19  2  0
 19 20  1  0
  9  4  1  0
 20 10  1  0
 18 13  1  0
  3 21  1  0
  5 22  1  0
  6 23  1  0
  7 24  1  0
  8 25  1  0
  9 26  1  0
 13 27  1  0
 14 28  1  0
 14 29  1  0
 15 30  1  0
 15 31  1  0
 16 32  1  0
 16 33  1  0
 17 34  1  0
 17 35  1  0
 18 36  1  0
 18 37  1  0
 20 38  1  0
M  END
>  <_SMILES>  (20) 
O=C(Nc1ccccc1)c1nc(C2CCCCC2)n[nH]1

$$$$

     RDKit          3D

 38 40  0  0  0  0  0  0  0  0999 V2000
    2.3136    1.7581    1.4243 O   0  0  0  0  0  0  0  0  0  0  0  0
    2.0704    0.8408    0.6468 C   0  0  0  0  0  0  0  0  0  0  0  0
    3.0041    0.1136   -0.0763 N   0  0  0  0  0  0  0  0  0  0  0  0
    4.4021    0.2483   -0.0910 C   0  0  0  0  0  0  0  0  0  0  0  0
    5.1031    1.1896    0.6642 C   0  0  0  0  0  0  0  0  0  0  0  0
    6.4984    1.2579    0.5917 C   0  0  0  0  0  0  0  0  0  0  0  0
    7.2027    0.3865   -0.2356 C   0  0  0  0  0  0  0  0  0  0  0  0
    6.5125   -0.5559   -0.9928 C   0  0  0  0  0  0  0  0  0  0  0  0
    5.1187   -0.6241   -0.9204 C   0  0  0  0  0  0  0  0  0  0  0  0
    0.6890    0.3748    0.3708 C   0  0  0  0  0  0  0  0  0  0  0  0
    0.4226   -0.6370   -0.4870 N   0  0  0  0  0  0  0  0  0  0  0  0
   -0.9174   -0.7070   -0.4213 N   0  0  0  0  0  0  0  0  0  0  0  0
   -1.4330    0.2206    0.4376 C   0  0  0  0  0  0  0  0  0  0  0  0
   -2.8942    0.3875    0.7223 C   0  0  0  0  0  0  0  0  0  0  0  0
   -3.5244   -0.8936    1.3043 C   0  0  0  0  0  0  0  0  0  0  0  0
   -4.3281   -1.6729    0.2676 C   0  0  0  0  0  0  0  0  0  0  0  0
   -5.4567   -0.8339   -0.3340 C   0  0  0  0  0  0  0  0  0  0  0  0
   -5.1391    0.6603   -0.4084 C   0  0  0  0  0  0  0  0  0  0  0  0
   -3.6412    0.9174   -0.5153 C   0  0  0  0  0  0  0  0  0  0  0  0
   -0.4418    0.9153    0.9497 N   0  0  0  0  0  0  0  0  0  0  0  0
    2.5897   -0.6050   -0.6643 H   0  0  0  0  0  0  0  0  0  0  0  0
    4.5950    1.8880    1.3220 H   0  0  0  0  0  0  0  0  0  0  0  0
    7.0317    1.9961    1.1856 H   0  0  0  0  0  0  0  0  0  0  0  0
    8.2866    0.4431   -0.2888 H   0  0  0  0  0  0  0  0  0  0  0  0
    7.0574   -1.2381   -1.6399 H   0  0  0  0  0  0  0  0  0  0  0  0
    4.6023   -1.3683   -1.5211 H   0  0  0  0  0  0  0  0  0  0  0  0
   -1.4078   -1.3967   -0.9795 H   0  0  0  0  0  0  0  0  0  0  0  0
   -2.9698    1.1542    1.5069 H   0  0  0  0  0  0  0  0  0  0  0  0
   -4.2064   -0.6099    2.1173 H   0  0  0  0  0  0  0  0  0  0  0  0
   -2.7671   -1.5448    1.7576 H   0  0  0  0  0  0  0  0  0  0  0  0
   -4.7480   -2.5789    0.7196 H   0  0  0  0  0  0  0  0  0  0  0  0
   -3.6602   -2.0099   -0.5341 H   0  0  0  0  0  0  0  0  0  0  0  0
   -6.3733   -0.9689    0.2531 H   0  0  0  0  0  0  0  0  0  0  0  0
   -5.6800   -1.2159   -1.3376 H   0  0  0  0  0  0  0  0  0  0  0  0
   -5.6633    1.1056   -1.2616 H   0  0  0  0  0  0  0  0  0  0  0  0
   -5.5261    1.1592    0.4891 H   0  0  0  0  0  0  0  0  0  0  0  0
   -3.4541    1.9932   -0.6223 H   0  0  0  0  0  0  0  0  0  0  0  0
   -3.2678    0.4506   -1.4362 H   0  0  0  0  0  0  0  0  0  0  0  0
  1  2  2  0
  2  3  1  0
  3  4  1  0
  4  5  2  0
  5  6  1  0
  6  7  2  0
  7  8  1  0
  8  9  2  0
  2 10  1  0
 10 11  2  0
 11 12  1  0
 12 13  1  0
 13 14  1  0
 14 15  1  0
 15 16  1  0
 16 17  1  0
 17 18  1  0
 18 19  1  0
 13 20  2  0
  9  4  1  0
 20 10  1  0
 19 14  1  0
  3 21  1  0
  5 22  1  0
  6 23  1  0
  7 24  1  0
  8 25  1  0
  9 26  1  0
 12 27  1  0
 14 28  1  0
 15 29  1  0
 15 30  1  0
 16 31  1  0
 16 32  1  0
 17 33  1  0
 17 34  1  0
 18 35  1  0
 18 36  1  0
 19 37  1  0
 19 38  1  0
M  END
>  <_SMILES>  (21) 
O=C(Nc1ccccc1)c1n[nH]c(C2CCCCC2)n1

$$$$

     RDKit          3D

 46 50  0  0  0  0  0  0  0  0999 V2000
    0.2324   -1.5523   -0.2938 O   0  0  0  0  0  0  0  0  0  0  0  0
    0.3936   -0.3654   -0.0291 C   0  0  0  0  0  0  0  0  0  0  0  0
   -0.6317    0.5375    0.1416 N   0  0  0  0  0  0  0  0  0  0  0  0
   -2.0607    0.2456    0.0395 C   0  0  2  0  0  0  0  0  0  0  0  0
   -2.5061   -0.8019    1.0899 C   0  0  0  0  0  0  0  0  0  0  0  0
   -4.0211   -1.0550    0.9933 C   0  0  1  0  0  0  0  0  0  0  0  0
   -4.7735    0.2594    1.2541 C   0  0  0  0  0  0  0  0  0  0  0  0
   -4.3662    1.3128    0.2121 C   0  0  2  0  0  0  0  0  0  0  0  0
   -4.7082    0.7966   -1.1943 C   0  0  0  0  0  0  0  0  0  0  0  0
   -3.9554   -0.5147   -1.4694 C   0  0  2  0  0  0  0  0  0  0  0  0
   -4.3605   -1.5624   -0.4186 C   0  0  0  0  0  0  0  0  0  0  0  0
   -2.4404   -0.2613   -1.3740 C   0  0  0  0  0  0  0  0  0  0  0  0
   -2.8512    1.5547    0.3056 C   0  0  0  0  0  0  0  0  0  0  0  0
    1.7042    0.2140    0.1330 C   0  0  0  0  0  0  0  0  0  0  0  0
    1.9575    1.4749    0.4164 N   0  0  0  0  0  0  0  0  0  0  0  0
    3.3247    1.6165    0.4839 N   0  0  0  0  0  0  0  0  0  0  0  0
    3.8892    0.4445    0.2418 C   0  0  0  0  0  0  0  0  0  0  0  0
    5.3232    0.1498    0.2154 C   0  0  0  0  0  0  0  0  0  0  0  0
    6.2391    1.1835    0.4666 C   0  0  0  0  0  0  0  0  0  0  0  0
    7.6159    0.9463    0.4513 C   0  0  0  0  0  0  0  0  0  0  0  0
    8.0982   -0.3316    0.1838 C   0  0  0  0  0  0  0  0  0  0  0  0
    7.2051   -1.3702   -0.0679 C   0  0  0  0  0  0  0  0  0  0  0  0
    5.8264   -1.1327   -0.0525 C   0  0  0  0  0  0  0  0  0  0  0  0
    2.8856   -0.4618    0.0162 N   0  0  0  0  0  0  0  0  0  0  0  0
   -0.3394    1.4874    0.3579 H   0  0  0  0  0  0  0  0  0  0  0  0
   -1.9758   -1.7506    0.9460 H   0  0  0  0  0  0  0  0  0  0  0  0
   -2.2487   -0.4566    2.0999 H   0  0  0  0  0  0  0  0  0  0  0  0
   -4.3178   -1.8037    1.7363 H   0  0  0  0  0  0  0  0  0  0  0  0
   -5.8559    0.0869    1.2095 H   0  0  0  0  0  0  0  0  0  0  0  0
   -4.5508    0.6249    2.2641 H   0  0  0  0  0  0  0  0  0  0  0  0
   -4.9030    2.2487    0.4031 H   0  0  0  0  0  0  0  0  0  0  0  0
   -5.7895    0.6334   -1.2810 H   0  0  0  0  0  0  0  0  0  0  0  0
   -4.4385    1.5486   -1.9459 H   0  0  0  0  0  0  0  0  0  0  0  0
   -4.2056   -0.8805   -2.4715 H   0  0  0  0  0  0  0  0  0  0  0  0
   -3.8398   -2.5082   -0.6122 H   0  0  0  0  0  0  0  0  0  0  0  0
   -5.4351   -1.7698   -0.4927 H   0  0  0  0  0  0  0  0  0  0  0  0
   -1.9075   -1.1891   -1.6134 H   0  0  0  0  0  0  0  0  0  0  0  0
   -2.1358    0.4719   -2.1323 H   0  0  0  0  0  0  0  0  0  0  0  0
   -2.5550    2.3278   -0.4161 H   0  0  0  0  0  0  0  0  0  0  0  0
   -2.6007    1.9516    1.2987 H   0  0  0  0  0  0  0  0  0  0  0  0
    5.8801    2.1902    0.6779 H   0  0  0  0  0  0  0  0  0  0  0  0
    8.3076    1.7613    0.6485 H   0  0  0  0  0  0  0  0  0  0  0  0
    9.1692   -0.5173    0.1716 H   0  0  0  0  0  0  0  0  0  0  0  0
    7.5824   -2.3685   -0.2768 H   0  0  0  0  0  0  0  0  0  0  0  0
    5.1671   -1.9714   -0.2541 H   0  0  0  0  0  0  0  0  0  0  0  0
    2.9723   -1.4436   -0.1969 H   0  0  0  0  0  0  0  0  0  0  0  0
  1  2  2  0
  2  3  1  0
  4  3  1  6
  4  5  1  0
  5  6  1  0
  6  7  1  0
  7  8  1  0
  8  9  1  0
  9 10  1  0
 10 11  1  0
 10 12  1  0
  8 13  1  0
  2 14  1  0
 14 15  2  0
 15 16  1  0
 16 17  2  0
 17 18  1  0
 18 19  2  0
 19 20  1  0
 20 21  2  0
 21 22  1  0
 22 23  2  0
 17 24  1  0
 12  4  1  0
 24 14  1  0
 13  4  1  0
 23 18  1  0
 11  6  1  0
  3 25  1  0
  5 26  1  0
  5 27  1  0
  6 28  1  1
  7 29  1  0
  7 30  1  0
  8 31  1  1
  9 32  1  0
  9 33  1  0
 10 34  1  6
 11 35  1  0
 11 36  1  0
 12 37  1  0
 12 38  1  0
 13 39  1  0
 13 40  1  0
 19 41  1  0
 20 42  1  0
 21 43  1  0
 22 44  1  0
 23 45  1  0
 24 46  1  0
M  END
>  <_SMILES>  (22) 
O=C(N[C@]12C[C@H]3C[C@H](C[C@H](C3)C1)C2)c1nnc(-c2ccccc2)[nH]1

$$$$

     RDKit          3D

 46 50  0  0  0  0  0  0  0  0999 V2000
    0.1782    1.5177    0.8176 O   0  0  0  0  0  0  0  0  0  0  0  0
    0.4354    0.3627    0.4964 C   0  0  0  0  0  0  0  0  0  0  0  0
   -0.5503   -0.5538    0.1472 N   0  0  0  0  0  0  0  0  0  0  0  0
   -1.9817   -0.2259    0.0638 C   0  0  2  0  0  0  0  0  0  0  0  0
   -2.7497   -1.5228   -0.3152 C   0  0  0  0  0  0  0  0  0  0  0  0
   -4.2593   -1.2590   -0.4305 C   0  0  1  0  0  0  0  0  0  0  0  0
   -4.7855   -0.7471    0.9188 C   0  0  0  0  0  0  0  0  0  0  0  0
   -4.0581    0.5495    1.3059 C   0  0  2  0  0  0  0  0  0  0  0  0
   -4.2982    1.6109    0.2186 C   0  0  0  0  0  0  0  0  0  0  0  0
   -3.7755    1.1080   -1.1379 C   0  0  2  0  0  0  0  0  0  0  0  0
   -4.5036   -0.1932   -1.5103 C   0  0  0  0  0  0  0  0  0  0  0  0
   -2.2651    0.8332   -1.0297 C   0  0  0  0  0  0  0  0  0  0  0  0
   -2.5481    0.2728    1.4182 C   0  0  0  0  0  0  0  0  0  0  0  0
    1.7811   -0.1675    0.4329 C   0  0  0  0  0  0  0  0  0  0  0  0
    2.8679    0.5201    0.1421 N   0  0  0  0  0  0  0  0  0  0  0  0
    3.8866   -0.4064    0.2116 C   0  0  0  0  0  0  0  0  0  0  0  0
    5.2783   -0.0562   -0.0575 C   0  0  0  0  0  0  0  0  0  0  0  0
    5.6256    1.2643   -0.3786 C   0  0  0  0  0  0  0  0  0  0  0  0
    6.9548    1.6086   -0.6383 C   0  0  0  0  0  0  0  0  0  0  0  0
    7.9512    0.6361   -0.5796 C   0  0  0  0  0  0  0  0  0  0  0  0
    7.6211   -0.6799   -0.2612 C   0  0  0  0  0  0  0  0  0  0  0  0
    6.2918   -1.0245   -0.0013 C   0  0  0  0  0  0  0  0  0  0  0  0
    3.4663   -1.6404    0.5392 N   0  0  0  0  0  0  0  0  0  0  0  0
    2.1505   -1.4505    0.7037 N   0  0  0  0  0  0  0  0  0  0  0  0
   -0.2483   -1.3117   -0.4506 H   0  0  0  0  0  0  0  0  0  0  0  0
   -2.3731   -1.9200   -1.2674 H   0  0  0  0  0  0  0  0  0  0  0  0
   -2.5652   -2.3030    0.4355 H   0  0  0  0  0  0  0  0  0  0  0  0
   -4.7774   -2.1856   -0.7018 H   0  0  0  0  0  0  0  0  0  0  0  0
   -4.6337   -1.5082    1.6941 H   0  0  0  0  0  0  0  0  0  0  0  0
   -5.8657   -0.5671    0.8564 H   0  0  0  0  0  0  0  0  0  0  0  0
   -4.4386    0.9127    2.2671 H   0  0  0  0  0  0  0  0  0  0  0  0
   -3.7947    2.5468    0.4906 H   0  0  0  0  0  0  0  0  0  0  0  0
   -5.3695    1.8354    0.1461 H   0  0  0  0  0  0  0  0  0  0  0  0
   -3.9578    1.8659   -1.9081 H   0  0  0  0  0  0  0  0  0  0  0  0
   -5.5792   -0.0044   -1.6140 H   0  0  0  0  0  0  0  0  0  0  0  0
   -4.1490   -0.5562   -2.4829 H   0  0  0  0  0  0  0  0  0  0  0  0
   -1.8780    0.4889   -1.9977 H   0  0  0  0  0  0  0  0  0  0  0  0
   -1.7456    1.7731   -0.8091 H   0  0  0  0  0  0  0  0  0  0  0  0
   -2.3614   -0.4728    2.2022 H   0  0  0  0  0  0  0  0  0  0  0  0
   -2.0475    1.1912    1.7442 H   0  0  0  0  0  0  0  0  0  0  0  0
    4.8583    2.0354   -0.4263 H   0  0  0  0  0  0  0  0  0  0  0  0
    7.2091    2.6362   -0.8847 H   0  0  0  0  0  0  0  0  0  0  0  0
    8.9851    0.9043   -0.7808 H   0  0  0  0  0  0  0  0  0  0  0  0
    8.3967   -1.4398   -0.2136 H   0  0  0  0  0  0  0  0  0  0  0  0
    6.0504   -2.0560    0.2469 H   0  0  0  0  0  0  0  0  0  0  0  0
    1.5711   -2.2217    1.0130 H   0  0  0  0  0  0  0  0  0  0  0  0
  1  2  2  0
  2  3  1  0
  4  3  1  1
  4  5  1  0
  5  6  1  0
  6  7  1  0
  7  8  1  0
  8  9  1  0
  9 10  1  0
 10 11  1  0
 10 12  1  0
  8 13  1  0
  2 14  1  0
 14 15  2  0
 15 16  1  0
 16 17  1  0
 17 18  2  0
 18 19  1  0
 19 20  2  0
 20 21  1  0
 21 22  2  0
 16 23  2  0
 23 24  1  0
 12  4  1  0
 24 14  1  0
 13  4  1  0
 22 17  1  0
 11  6  1  0
  3 25  1  0
  5 26  1  0
  5 27  1  0
  6 28  1  6
  7 29  1  0
  7 30  1  0
  8 31  1  1
  9 32  1  0
  9 33  1  0
 10 34  1  6
 11 35  1  0
 11 36  1  0
 12 37  1  0
 12 38  1  0
 13 39  1  0
 13 40  1  0
 18 41  1  0
 19 42  1  0
 20 43  1  0
 21 44  1  0
 22 45  1  0
 24 46  1  0
M  END
>  <_SMILES>  (23) 
O=C(N[C@]12C[C@H]3C[C@H](C[C@H](C3)C1)C2)c1nc(-c2ccccc2)n[nH]1

$$$$

     RDKit          3D

 46 50  0  0  0  0  0  0  0  0999 V2000
    0.0843   -1.2368   -1.1427 O   0  0  0  0  0  0  0  0  0  0  0  0
    0.3492   -0.3846   -0.3005 C   0  0  0  0  0  0  0  0  0  0  0  0
   -0.6045    0.3801    0.3488 N   0  0  0  0  0  0  0  0  0  0  0  0
   -2.0486    0.3042    0.1471 C   0  0  2  0  0  0  0  0  0  0  0  0
   -2.7301    1.3400    1.0811 C   0  0  0  0  0  0  0  0  0  0  0  0
   -4.2579    1.3102    0.9162 C   0  0  1  0  0  0  0  0  0  0  0  0
   -4.6138    1.6385   -0.5422 C   0  0  0  0  0  0  0  0  0  0  0  0
   -3.9700    0.6088   -1.4839 C   0  0  2  0  0  0  0  0  0  0  0  0
   -4.4843   -0.7963   -1.1272 C   0  0  0  0  0  0  0  0  0  0  0  0
   -4.1319   -1.1347    0.3313 C   0  0  2  0  0  0  0  0  0  0  0  0
   -4.7749   -0.0949    1.2625 C   0  0  0  0  0  0  0  0  0  0  0  0
   -2.6032   -1.0970    0.5049 C   0  0  0  0  0  0  0  0  0  0  0  0
   -2.4412    0.6475   -1.3113 C   0  0  0  0  0  0  0  0  0  0  0  0
    1.7300   -0.0646    0.1301 C   0  0  0  0  0  0  0  0  0  0  0  0
    2.0021    0.8777    1.0595 N   0  0  0  0  0  0  0  0  0  0  0  0
    3.3432    0.8163    1.1203 N   0  0  0  0  0  0  0  0  0  0  0  0
    3.8634   -0.1189    0.2685 C   0  0  0  0  0  0  0  0  0  0  0  0
    5.2869   -0.4219    0.1046 C   0  0  0  0  0  0  0  0  0  0  0  0
    5.6702   -1.4126   -0.8131 C   0  0  0  0  0  0  0  0  0  0  0  0
    7.0154   -1.7368   -1.0044 C   0  0  0  0  0  0  0  0  0  0  0  0
    8.0000   -1.0730   -0.2785 C   0  0  0  0  0  0  0  0  0  0  0  0
    7.6396   -0.0870    0.6368 C   0  0  0  0  0  0  0  0  0  0  0  0
    6.2920    0.2378    0.8284 C   0  0  0  0  0  0  0  0  0  0  0  0
    2.8567   -0.6865   -0.3666 N   0  0  0  0  0  0  0  0  0  0  0  0
   -0.2230    1.0427    1.0193 H   0  0  0  0  0  0  0  0  0  0  0  0
   -2.4671    1.1349    2.1276 H   0  0  0  0  0  0  0  0  0  0  0  0
   -2.3543    2.3489    0.8637 H   0  0  0  0  0  0  0  0  0  0  0  0
   -4.7168    2.0479    1.5838 H   0  0  0  0  0  0  0  0  0  0  0  0
   -4.2657    2.6475   -0.7954 H   0  0  0  0  0  0  0  0  0  0  0  0
   -5.7031    1.6357   -0.6720 H   0  0  0  0  0  0  0  0  0  0  0  0
   -4.2299    0.8450   -2.5219 H   0  0  0  0  0  0  0  0  0  0  0  0
   -4.0421   -1.5397   -1.8018 H   0  0  0  0  0  0  0  0  0  0  0  0
   -5.5709   -0.8437   -1.2698 H   0  0  0  0  0  0  0  0  0  0  0  0
   -4.5066   -2.1340    0.5797 H   0  0  0  0  0  0  0  0  0  0  0  0
   -5.8668   -0.1274    1.1637 H   0  0  0  0  0  0  0  0  0  0  0  0
   -4.5426   -0.3331    2.3078 H   0  0  0  0  0  0  0  0  0  0  0  0
   -2.1529   -1.8700   -0.1290 H   0  0  0  0  0  0  0  0  0  0  0  0
   -2.3382   -1.3552    1.5386 H   0  0  0  0  0  0  0  0  0  0  0  0
   -1.9846   -0.0575   -2.0161 H   0  0  0  0  0  0  0  0  0  0  0  0
   -2.0598    1.6411   -1.5810 H   0  0  0  0  0  0  0  0  0  0  0  0
    3.8343    1.4322    1.7556 H   0  0  0  0  0  0  0  0  0  0  0  0
    4.9119   -1.9422   -1.3898 H   0  0  0  0  0  0  0  0  0  0  0  0
    7.2893   -2.5075   -1.7205 H   0  0  0  0  0  0  0  0  0  0  0  0
    9.0472   -1.3246   -0.4266 H   0  0  0  0  0  0  0  0  0  0  0  0
    8.4100    0.4308    1.2032 H   0  0  0  0  0  0  0  0  0  0  0  0
    6.0592    1.0126    1.5521 H   0  0  0  0  0  0  0  0  0  0  0  0
  1  2  2  0
  2  3  1  0
  4  3  1  6
  4  5  1  0
  5  6  1  0
  6  7  1  0
  7  8  1  0
  8  9  1  0
  9 10  1  0
 10 11  1  0
 10 12  1  0
  8 13  1  0
  2 14  1  0
 14 15  2  0
 15 16  1  0
 16 17  1  0
 17 18  1  0
 18 19  2  0
 19 20  1  0
 20 21  2  0
 21 22  1  0
 22 23  2  0
 17 24  2  0
 12  4  1  0
 24 14  1  0
 13  4  1  0
 23 18  1  0
 11  6  1  0
  3 25  1  0
  5 26  1  0
  5 27  1  0
  6 28  1  1
  7 29  1  0
  7 30  1  0
  8 31  1  6
  9 32  1  0
  9 33  1  0
 10 34  1  1
 11 35  1  0
 11 36  1  0
 12 37  1  0
 12 38  1  0
 13 39  1  0
 13 40  1  0
 16 41  1  0
 19 42  1  0
 20 43  1  0
 21 44  1  0
 22 45  1  0
 23 46  1  0
M  END
>  <_SMILES>  (24) 
O=C(N[C@]12C[C@H]3C[C@H](C[C@H](C3)C1)C2)c1n[nH]c(-c2ccccc2)n1

$$$$

     RDKit          3D

 52 56  0  0  0  0  0  0  0  0999 V2000
   -0.5700   -0.1936    1.7429 O   0  0  0  0  0  0  0  0  0  0  0  0
   -0.4006   -0.0636    0.5348 C   0  0  0  0  0  0  0  0  0  0  0  0
   -1.4208    0.0281   -0.3854 N   0  0  0  0  0  0  0  0  0  0  0  0
   -2.8521   -0.0124   -0.0904 C   0  0  2  0  0  0  0  0  0  0  0  0
   -3.6342    0.1250   -1.4243 C   0  0  0  0  0  0  0  0  0  0  0  0
   -5.1512    0.0893   -1.1802 C   0  0  1  0  0  0  0  0  0  0  0  0
   -5.5234   -1.2449   -0.5148 C   0  0  0  0  0  0  0  0  0  0  0  0
   -4.7793   -1.3902    0.8219 C   0  0  2  0  0  0  0  0  0  0  0  0
   -5.1648   -0.2230    1.7467 C   0  0  0  0  0  0  0  0  0  0  0  0
   -4.7951    1.1177    1.0895 C   0  0  2  0  0  0  0  0  0  0  0  0
   -5.5392    1.2484   -0.2488 C   0  0  0  0  0  0  0  0  0  0  0  0
   -3.2779    1.1552    0.8340 C   0  0  0  0  0  0  0  0  0  0  0  0
   -3.2621   -1.3539    0.5663 C   0  0  0  0  0  0  0  0  0  0  0  0
    0.9138    0.0076   -0.0549 C   0  0  0  0  0  0  0  0  0  0  0  0
    1.1722    0.1464   -1.3407 N   0  0  0  0  0  0  0  0  0  0  0  0
    2.5397    0.1713   -1.4934 N   0  0  0  0  0  0  0  0  0  0  0  0
    3.0884    0.0476   -0.3017 C   0  0  0  0  0  0  0  0  0  0  0  0
    4.5429    0.0204    0.0396 C   0  0  0  0  0  0  0  0  0  0  0  0
    5.2352   -1.1760   -0.6298 C   0  0  0  0  0  0  0  0  0  0  0  0
    6.7336   -1.1950   -0.3354 C   0  0  0  0  0  0  0  0  0  0  0  0
    7.4008    0.1202   -0.7265 C   0  0  0  0  0  0  0  0  0  0  0  0
    6.7178    1.3148   -0.0677 C   0  0  0  0  0  0  0  0  0  0  0  0
    5.2193    1.3396   -0.3614 C   0  0  0  0  0  0  0  0  0  0  0  0
    2.0937   -0.0582    0.6316 N   0  0  0  0  0  0  0  0  0  0  0  0
   -1.1211    0.1331   -1.3518 H   0  0  0  0  0  0  0  0  0  0  0  0
   -3.3623    1.0633   -1.9262 H   0  0  0  0  0  0  0  0  0  0  0  0
   -3.3512   -0.6829   -2.1125 H   0  0  0  0  0  0  0  0  0  0  0  0
   -5.6820    0.1877   -2.1337 H   0  0  0  0  0  0  0  0  0  0  0  0
   -5.2677   -2.0796   -1.1790 H   0  0  0  0  0  0  0  0  0  0  0  0
   -6.6066   -1.2912   -0.3479 H   0  0  0  0  0  0  0  0  0  0  0  0
   -5.0510   -2.3409    1.2940 H   0  0  0  0  0  0  0  0  0  0  0  0
   -6.2412   -0.2521    1.9562 H   0  0  0  0  0  0  0  0  0  0  0  0
   -4.6502   -0.3225    2.7103 H   0  0  0  0  0  0  0  0  0  0  0  0
   -5.0780    1.9440    1.7511 H   0  0  0  0  0  0  0  0  0  0  0  0
   -5.2948    2.2076   -0.7216 H   0  0  0  0  0  0  0  0  0  0  0  0
   -6.6226    1.2450   -0.0773 H   0  0  0  0  0  0  0  0  0  0  0  0
   -2.9989    2.1158    0.3815 H   0  0  0  0  0  0  0  0  0  0  0  0
   -2.7527    1.1051    1.7951 H   0  0  0  0  0  0  0  0  0  0  0  0
   -2.7362   -1.5012    1.5171 H   0  0  0  0  0  0  0  0  0  0  0  0
   -2.9717   -2.1940   -0.0782 H   0  0  0  0  0  0  0  0  0  0  0  0
    4.6459   -0.0950    1.1278 H   0  0  0  0  0  0  0  0  0  0  0  0
    4.7851   -2.1145   -0.2825 H   0  0  0  0  0  0  0  0  0  0  0  0
    5.0837   -1.1426   -1.7170 H   0  0  0  0  0  0  0  0  0  0  0  0
    6.8928   -1.3817    0.7338 H   0  0  0  0  0  0  0  0  0  0  0  0
    7.2049   -2.0227   -0.8775 H   0  0  0  0  0  0  0  0  0  0  0  0
    7.3665    0.2363   -1.8168 H   0  0  0  0  0  0  0  0  0  0  0  0
    8.4584    0.0964   -0.4409 H   0  0  0  0  0  0  0  0  0  0  0  0
    7.1779    2.2440   -0.4223 H   0  0  0  0  0  0  0  0  0  0  0  0
    6.8761    1.2737    1.0170 H   0  0  0  0  0  0  0  0  0  0  0  0
    4.7580    2.1781    0.1755 H   0  0  0  0  0  0  0  0  0  0  0  0
    5.0668    1.5344   -1.4314 H   0  0  0  0  0  0  0  0  0  0  0  0
    2.1854   -0.1643    1.6319 H   0  0  0  0  0  0  0  0  0  0  0  0
  1  2  2  0
  2  3  1  0
  4  3  1  6
  4  5  1  0
  5  6  1  0
  6  7  1  0
  7  8  1  0
  8  9  1  0
  9 10  1  0
 10 11  1  0
 10 12  1  0
  8 13  1  0
  2 14  1  0
 14 15  2  0
 15 16  1  0
 16 17  2  0
 17 18  1  0
 18 19  1  0
 19 20  1  0
 20 21  1  0
 21 22  1  0
 22 23  1  0
 17 24  1  0
 12  4  1  0
 24 14  1  0
 13  4  1  0
 23 18  1  0
 11  6  1  0
  3 25  1  0
  5 26  1  0
  5 27  1  0
  6 28  1  6
  7 29  1  0
  7 30  1  0
  8 31  1  1
  9 32  1  0
  9 33  1  0
 10 34  1  1
 11 35  1  0
 11 36  1  0
 12 37  1  0
 12 38  1  0
 13 39  1  0
 13 40  1  0
 18 41  1  0
 19 42  1  0
 19 43  1  0
 20 44  1  0
 20 45  1  0
 21 46  1  0
 21 47  1  0
 22 48  1  0
 22 49  1  0
 23 50  1  0
 23 51  1  0
 24 52  1  0
M  END
>  <_SMILES>  (25) 
O=C(N[C@]12C[C@H]3C[C@H](C[C@H](C3)C1)C2)c1nnc(C2CCCCC2)[nH]1

$$$$

     RDKit          3D

 52 56  0  0  0  0  0  0  0  0999 V2000
   -0.1749    1.0057   -1.1453 O   0  0  0  0  0  0  0  0  0  0  0  0
   -0.1343   -0.0887   -0.5936 C   0  0  0  0  0  0  0  0  0  0  0  0
   -1.2627   -0.6962   -0.0537 N   0  0  0  0  0  0  0  0  0  0  0  0
   -2.5947   -0.0734   -0.0255 C   0  0  2  0  0  0  0  0  0  0  0  0
   -3.1207    0.2490   -1.4479 C   0  0  0  0  0  0  0  0  0  0  0  0
   -4.5384    0.8446   -1.3799 C   0  0  1  0  0  0  0  0  0  0  0  0
   -5.4866   -0.1721   -0.7261 C   0  0  0  0  0  0  0  0  0  0  0  0
   -5.0028   -0.5000    0.6944 C   0  0  2  0  0  0  0  0  0  0  0  0
   -4.9755    0.7873    1.5333 C   0  0  0  0  0  0  0  0  0  0  0  0
   -4.0250    1.8113    0.8930 C   0  0  2  0  0  0  0  0  0  0  0  0
   -4.5075    2.1284   -0.5328 C   0  0  0  0  0  0  0  0  0  0  0  0
   -2.6063    1.2182    0.8287 C   0  0  0  0  0  0  0  0  0  0  0  0
   -3.5831   -1.0837    0.6208 C   0  0  0  0  0  0  0  0  0  0  0  0
    1.0817   -0.8587   -0.4325 C   0  0  0  0  0  0  0  0  0  0  0  0
    2.2959   -0.3626   -0.2886 N   0  0  0  0  0  0  0  0  0  0  0  0
    3.0919   -1.4741   -0.1822 C   0  0  0  0  0  0  0  0  0  0  0  0
    4.5747   -1.3905    0.0079 C   0  0  0  0  0  0  0  0  0  0  0  0
    4.9165   -0.8745    1.4198 C   0  0  0  0  0  0  0  0  0  0  0  0
    6.3135   -0.2694    1.4742 C   0  0  0  0  0  0  0  0  0  0  0  0
    6.4443    0.9386    0.5456 C   0  0  0  0  0  0  0  0  0  0  0  0
    5.5281    0.8720   -0.6776 C   0  0  0  0  0  0  0  0  0  0  0  0
    5.2533   -0.5659   -1.1061 C   0  0  0  0  0  0  0  0  0  0  0  0
    2.4342   -2.6386   -0.2536 N   0  0  0  0  0  0  0  0  0  0  0  0
    1.1741   -2.2203   -0.4444 N   0  0  0  0  0  0  0  0  0  0  0  0
   -1.0851   -1.3650    0.6838 H   0  0  0  0  0  0  0  0  0  0  0  0
   -3.1259   -0.6604   -2.0629 H   0  0  0  0  0  0  0  0  0  0  0  0
   -2.4661    0.9618   -1.9615 H   0  0  0  0  0  0  0  0  0  0  0  0
   -4.8890    1.0779   -2.3915 H   0  0  0  0  0  0  0  0  0  0  0  0
   -5.5285   -1.0875   -1.3291 H   0  0  0  0  0  0  0  0  0  0  0  0
   -6.5053    0.2332   -0.6914 H   0  0  0  0  0  0  0  0  0  0  0  0
   -5.6790   -1.2280    1.1563 H   0  0  0  0  0  0  0  0  0  0  0  0
   -5.9858    1.2083    1.6066 H   0  0  0  0  0  0  0  0  0  0  0  0
   -4.6498    0.5617    2.5562 H   0  0  0  0  0  0  0  0  0  0  0  0
   -4.0138    2.7288    1.4919 H   0  0  0  0  0  0  0  0  0  0  0  0
   -3.8439    2.8681   -0.9972 H   0  0  0  0  0  0  0  0  0  0  0  0
   -5.5082    2.5765   -0.4974 H   0  0  0  0  0  0  0  0  0  0  0  0
   -1.9235    1.9688    0.4136 H   0  0  0  0  0  0  0  0  0  0  0  0
   -2.2452    1.0029    1.8429 H   0  0  0  0  0  0  0  0  0  0  0  0
   -3.2436   -1.3507    1.6307 H   0  0  0  0  0  0  0  0  0  0  0  0
   -3.5954   -2.0193    0.0456 H   0  0  0  0  0  0  0  0  0  0  0  0
    4.9737   -2.4117   -0.0779 H   0  0  0  0  0  0  0  0  0  0  0  0
    4.8393   -1.7003    2.1379 H   0  0  0  0  0  0  0  0  0  0  0  0
    4.1912   -0.1180    1.7481 H   0  0  0  0  0  0  0  0  0  0  0  0
    6.5599    0.0272    2.5000 H   0  0  0  0  0  0  0  0  0  0  0  0
    7.0476   -1.0323    1.1858 H   0  0  0  0  0  0  0  0  0  0  0  0
    6.2229    1.8588    1.0997 H   0  0  0  0  0  0  0  0  0  0  0  0
    7.4893    1.0216    0.2232 H   0  0  0  0  0  0  0  0  0  0  0  0
    4.5786    1.3712   -0.4482 H   0  0  0  0  0  0  0  0  0  0  0  0
    5.9804    1.4326   -1.5036 H   0  0  0  0  0  0  0  0  0  0  0  0
    4.6572   -0.5745   -2.0267 H   0  0  0  0  0  0  0  0  0  0  0  0
    6.2130   -1.0365   -1.3590 H   0  0  0  0  0  0  0  0  0  0  0  0
    0.4389   -2.9016   -0.5904 H   0  0  0  0  0  0  0  0  0  0  0  0
  1  2  2  0
  2  3  1  0
  4  3  1  6
  4  5  1  0
  5  6  1  0
  6  7  1  0
  7  8  1  0
  8  9  1  0
  9 10  1  0
 10 11  1  0
 10 12  1  0
  8 13  1  0
  2 14  1  0
 14 15  2  0
 15 16  1  0
 16 17  1  0
 17 18  1  0
 18 19  1  0
 19 20  1  0
 20 21  1  0
 21 22  1  0
 16 23  2  0
 23 24  1  0
 12  4  1  0
 24 14  1  0
 13  4  1  0
 22 17  1  0
 11  6  1  0
  3 25  1  0
  5 26  1  0
  5 27  1  0
  6 28  1  6
  7 29  1  0
  7 30  1  0
  8 31  1  1
  9 32  1  0
  9 33  1  0
 10 34  1  1
 11 35  1  0
 11 36  1  0
 12 37  1  0
 12 38  1  0
 13 39  1  0
 13 40  1  0
 17 41  1  0
 18 42  1  0
 18 43  1  0
 19 44  1  0
 19 45  1  0
 20 46  1  0
 20 47  1  0
 21 48  1  0
 21 49  1  0
 22 50  1  0
 22 51  1  0
 24 52  1  0
M  END
>  <_SMILES>  (26) 
O=C(N[C@]12C[C@H]3C[C@H](C[C@H](C3)C1)C2)c1nc(C2CCCCC2)n[nH]1

$$$$

     RDKit          3D

 52 56  0  0  0  0  0  0  0  0999 V2000
   -0.8748   -1.8462   -0.6528 O   0  0  0  0  0  0  0  0  0  0  0  0
   -0.4850   -0.7425   -0.2843 C   0  0  0  0  0  0  0  0  0  0  0  0
   -1.3308    0.2870    0.0914 N   0  0  0  0  0  0  0  0  0  0  0  0
   -2.7896    0.2359    0.1124 C   0  0  2  0  0  0  0  0  0  0  0  0
   -3.3729   -0.0295   -1.2976 C   0  0  0  0  0  0  0  0  0  0  0  0
   -4.9114   -0.0289   -1.2560 C   0  0  1  0  0  0  0  0  0  0  0  0
   -5.3919   -1.1200   -0.2842 C   0  0  0  0  0  0  0  0  0  0  0  0
   -4.8483   -0.8475    1.1287 C   0  0  2  0  0  0  0  0  0  0  0  0
   -5.3432    0.5270    1.6059 C   0  0  0  0  0  0  0  0  0  0  0  0
   -4.8586    1.6222    0.6431 C   0  0  2  0  0  0  0  0  0  0  0  0
   -5.4059    1.3408   -0.7650 C   0  0  0  0  0  0  0  0  0  0  0  0
   -3.3223    1.6105    0.5984 C   0  0  0  0  0  0  0  0  0  0  0  0
   -3.3098   -0.8485    1.0884 C   0  0  0  0  0  0  0  0  0  0  0  0
    0.9461   -0.3685   -0.1938 C   0  0  0  0  0  0  0  0  0  0  0  0
    1.3528    0.8549    0.2155 N   0  0  0  0  0  0  0  0  0  0  0  0
    2.6883    0.7395    0.1406 N   0  0  0  0  0  0  0  0  0  0  0  0
    3.0682   -0.4975   -0.2945 C   0  0  0  0  0  0  0  0  0  0  0  0
    4.4911   -0.9271   -0.4800 C   0  0  0  0  0  0  0  0  0  0  0  0
    5.2375   -0.0450   -1.5007 C   0  0  0  0  0  0  0  0  0  0  0  0
    6.1581    0.9716   -0.8321 C   0  0  0  0  0  0  0  0  0  0  0  0
    7.2081    0.3001    0.0548 C   0  0  0  0  0  0  0  0  0  0  0  0
    6.7307   -1.0064    0.6906 C   0  0  0  0  0  0  0  0  0  0  0  0
    5.2183   -1.0292    0.8732 C   0  0  0  0  0  0  0  0  0  0  0  0
    1.9891   -1.2156   -0.5121 N   0  0  0  0  0  0  0  0  0  0  0  0
   -0.8509    1.1390    0.3711 H   0  0  0  0  0  0  0  0  0  0  0  0
   -3.0180    0.7337   -2.0027 H   0  0  0  0  0  0  0  0  0  0  0  0
   -3.0269   -0.9932   -1.6896 H   0  0  0  0  0  0  0  0  0  0  0  0
   -5.3073   -0.2264   -2.2585 H   0  0  0  0  0  0  0  0  0  0  0  0
   -5.0566   -2.1051   -0.6312 H   0  0  0  0  0  0  0  0  0  0  0  0
   -6.4884   -1.1460   -0.2641 H   0  0  0  0  0  0  0  0  0  0  0  0
   -5.1995   -1.6251    1.8162 H   0  0  0  0  0  0  0  0  0  0  0  0
   -4.9736    0.7276    2.6190 H   0  0  0  0  0  0  0  0  0  0  0  0
   -6.4388    0.5330    1.6597 H   0  0  0  0  0  0  0  0  0  0  0  0
   -5.2115    2.6005    0.9882 H   0  0  0  0  0  0  0  0  0  0  0  0
   -5.0814    2.1270   -1.4578 H   0  0  0  0  0  0  0  0  0  0  0  0
   -6.5025    1.3608   -0.7519 H   0  0  0  0  0  0  0  0  0  0  0  0
   -2.9217    1.8395    1.5951 H   0  0  0  0  0  0  0  0  0  0  0  0
   -2.9656    2.4095   -0.0654 H   0  0  0  0  0  0  0  0  0  0  0  0
   -2.9097   -0.6731    2.0956 H   0  0  0  0  0  0  0  0  0  0  0  0
   -2.9613   -1.8441    0.7894 H   0  0  0  0  0  0  0  0  0  0  0  0
    3.2705    1.5283    0.3980 H   0  0  0  0  0  0  0  0  0  0  0  0
    4.4542   -1.9376   -0.9120 H   0  0  0  0  0  0  0  0  0  0  0  0
    4.5411    0.4676   -2.1753 H   0  0  0  0  0  0  0  0  0  0  0  0
    5.8552   -0.6929   -2.1374 H   0  0  0  0  0  0  0  0  0  0  0  0
    5.5600    1.6624   -0.2258 H   0  0  0  0  0  0  0  0  0  0  0  0
    6.6590    1.5830   -1.5914 H   0  0  0  0  0  0  0  0  0  0  0  0
    8.1126    0.0953   -0.5307 H   0  0  0  0  0  0  0  0  0  0  0  0
    7.5073    1.0063    0.8388 H   0  0  0  0  0  0  0  0  0  0  0  0
    7.0286   -1.8500    0.0551 H   0  0  0  0  0  0  0  0  0  0  0  0
    7.2323   -1.1512    1.6542 H   0  0  0  0  0  0  0  0  0  0  0  0
    4.9178   -1.9543    1.3807 H   0  0  0  0  0  0  0  0  0  0  0  0
    4.9311   -0.2079    1.5428 H   0  0  0  0  0  0  0  0  0  0  0  0
  1  2  2  0
  2  3  1  0
  4  3  1  6
  4  5  1  0
  5  6  1  0
  6  7  1  0
  7  8  1  0
  8  9  1  0
  9 10  1  0
 10 11  1  0
 10 12  1  0
  8 13  1  0
  2 14  1  0
 14 15  2  0
 15 16  1  0
 16 17  1  0
 17 18  1  0
 18 19  1  0
 19 20  1  0
 20 21  1  0
 21 22  1  0
 22 23  1  0
 17 24  2  0
 12  4  1  0
 24 14  1  0
 13  4  1  0
 23 18  1  0
 11  6  1  0
  3 25  1  0
  5 26  1  0
  5 27  1  0
  6 28  1  6
  7 29  1  0
  7 30  1  0
  8 31  1  1
  9 32  1  0
  9 33  1  0
 10 34  1  1
 11 35  1  0
 11 36  1  0
 12 37  1  0
 12 38  1  0
 13 39  1  0
 13 40  1  0
 16 41  1  0
 18 42  1  0
 19 43  1  0
 19 44  1  0
 20 45  1  0
 20 46  1  0
 21 47  1  0
 21 48  1  0
 22 49  1  0
 22 50  1  0
 23 51  1  0
 23 52  1  0
M  END
>  <_SMILES>  (27) 
O=C(N[C@]12C[C@H]3C[C@H](C[C@H](C3)C1)C2)c1n[nH]c(C2CCCCC2)n1

$$$$

     RDKit          3D

 45 49  0  0  0  0  0  0  0  0999 V2000
   -0.6525   -2.8159   -0.1632 O   0  0  0  0  0  0  0  0  0  0  0  0
    0.1443   -1.8822   -0.1174 C   0  0  0  0  0  0  0  0  0  0  0  0
   -0.2701   -0.5629    0.0190 N   0  0  0  0  0  0  0  0  0  0  0  0
   -1.6615   -0.1150    0.1242 C   0  0  2  0  0  0  0  0  0  0  0  0
   -1.6668    1.4322    0.2613 C   0  0  0  0  0  0  0  0  0  0  0  0
   -3.1010    1.9721    0.3767 C   0  0  1  0  0  0  0  0  0  0  0  0
   -3.8907    1.5774   -0.8809 C   0  0  0  0  0  0  0  0  0  0  0  0
   -3.9209    0.0475   -1.0224 C   0  0  2  0  0  0  0  0  0  0  0  0
   -4.5860   -0.5642    0.2225 C   0  0  0  0  0  0  0  0  0  0  0  0
   -3.8024   -0.1745    1.4875 C   0  0  2  0  0  0  0  0  0  0  0  0
   -3.7729    1.3567    1.6140 C   0  0  0  0  0  0  0  0  0  0  0  0
   -2.3617   -0.7039    1.3741 C   0  0  0  0  0  0  0  0  0  0  0  0
   -2.4803   -0.4815   -1.1387 C   0  0  0  0  0  0  0  0  0  0  0  0
    1.5862   -2.0419   -0.1984 C   0  0  0  0  0  0  0  0  0  0  0  0
    2.2559   -3.1688   -0.3293 N   0  0  0  0  0  0  0  0  0  0  0  0
    3.5930   -2.8262   -0.3606 N   0  0  0  0  0  0  0  0  0  0  0  0
    3.6512   -1.5145   -0.2470 C   0  0  0  0  0  0  0  0  0  0  0  0
    4.8078   -0.6279   -0.2214 C   0  0  0  0  0  0  0  0  0  0  0  0
    6.0981   -1.1703   -0.3268 C   0  0  0  0  0  0  0  0  0  0  0  0
    7.2260   -0.3459   -0.3053 C   0  0  0  0  0  0  0  0  0  0  0  0
    7.0782    1.0331   -0.1780 C   0  0  0  0  0  0  0  0  0  0  0  0
    5.8050    1.5886   -0.0723 C   0  0  0  0  0  0  0  0  0  0  0  0
    4.6765    0.7637   -0.0938 C   0  0  0  0  0  0  0  0  0  0  0  0
    2.4093   -0.9400   -0.1388 O   0  0  0  0  0  0  0  0  0  0  0  0
    0.4604    0.1389    0.0479 H   0  0  0  0  0  0  0  0  0  0  0  0
   -1.0859    1.7347    1.1431 H   0  0  0  0  0  0  0  0  0  0  0  0
   -1.1684    1.8892   -0.6043 H   0  0  0  0  0  0  0  0  0  0  0  0
   -3.0793    3.0634    0.4723 H   0  0  0  0  0  0  0  0  0  0  0  0
   -3.4307    2.0271   -1.7694 H   0  0  0  0  0  0  0  0  0  0  0  0
   -4.9137    1.9685   -0.8194 H   0  0  0  0  0  0  0  0  0  0  0  0
   -4.4884   -0.2289   -1.9180 H   0  0  0  0  0  0  0  0  0  0  0  0
   -4.6258   -1.6563    0.1277 H   0  0  0  0  0  0  0  0  0  0  0  0
   -5.6225   -0.2139    0.3024 H   0  0  0  0  0  0  0  0  0  0  0  0
   -4.2860   -0.6083    2.3700 H   0  0  0  0  0  0  0  0  0  0  0  0
   -4.7939    1.7441    1.7179 H   0  0  0  0  0  0  0  0  0  0  0  0
   -3.2282    1.6476    2.5206 H   0  0  0  0  0  0  0  0  0  0  0  0
   -1.7966   -0.4463    2.2796 H   0  0  0  0  0  0  0  0  0  0  0  0
   -2.3877   -1.7989    1.3308 H   0  0  0  0  0  0  0  0  0  0  0  0
   -2.5112   -1.5674   -1.2855 H   0  0  0  0  0  0  0  0  0  0  0  0
   -2.0002   -0.0647   -2.0337 H   0  0  0  0  0  0  0  0  0  0  0  0
    6.2335   -2.2467   -0.4270 H   0  0  0  0  0  0  0  0  0  0  0  0
    8.2184   -0.7824   -0.3880 H   0  0  0  0  0  0  0  0  0  0  0  0
    7.9559    1.6746   -0.1612 H   0  0  0  0  0  0  0  0  0  0  0  0
    5.6902    2.6653    0.0270 H   0  0  0  0  0  0  0  0  0  0  0  0
    3.6951    1.2243   -0.0096 H   0  0  0  0  0  0  0  0  0  0  0  0
  1  2  2  0
  2  3  1  0
  4  3  1  6
  4  5  1  0
  5  6  1  0
  6  7  1  0
  7  8  1  0
  8  9  1  0
  9 10  1  0
 10 11  1  0
 10 12  1  0
  8 13  1  0
  2 14  1  0
 14 15  2  0
 15 16  1  0
 16 17  2  0
 17 18  1  0
 18 19  2  0
 19 20  1  0
 20 21  2  0
 21 22  1  0
 22 23  2  0
 17 24  1  0
 12  4  1  0
 24 14  1  0
 13  4  1  0
 23 18  1  0
 11  6  1  0
  3 25  1  0
  5 26  1  0
  5 27  1  0
  6 28  1  1
  7 29  1  0
  7 30  1  0
  8 31  1  6
  9 32  1  0
  9 33  1  0
 10 34  1  1
 11 35  1  0
 11 36  1  0
 12 37  1  0
 12 38  1  0
 13 39  1  0
 13 40  1  0
 19 41  1  0
 20 42  1  0
 21 43  1  0
 22 44  1  0
 23 45  1  0
M  END
>  <_SMILES>  (28) 
O=C(N[C@]12C[C@H]3C[C@H](C[C@H](C3)C1)C2)c1nnc(-c2ccccc2)o1

$$$$

     RDKit          3D

 46 50  0  0  0  0  0  0  0  0999 V2000
   -0.6625   -2.3668    0.9061 O   0  0  0  0  0  0  0  0  0  0  0  0
    0.0603   -1.4480    0.5368 C   0  0  0  0  0  0  0  0  0  0  0  0
   -0.4338   -0.2300    0.0987 N   0  0  0  0  0  0  0  0  0  0  0  0
   -1.8590    0.0978   -0.0207 C   0  0  2  0  0  0  0  0  0  0  0  0
   -2.5739   -0.8189   -1.0441 C   0  0  0  0  0  0  0  0  0  0  0  0
   -4.0520   -0.4162   -1.1917 C   0  0  1  0  0  0  0  0  0  0  0  0
   -4.7464   -0.5264    0.1765 C   0  0  0  0  0  0  0  0  0  0  0  0
   -4.0690    0.4101    1.1916 C   0  0  2  0  0  0  0  0  0  0  0  0
   -4.1537    1.8571    0.6820 C   0  0  0  0  0  0  0  0  0  0  0  0
   -3.4529    1.9743   -0.6801 C   0  0  2  0  0  0  0  0  0  0  0  0
   -4.1361    1.0361   -1.6871 C   0  0  0  0  0  0  0  0  0  0  0  0
   -1.9804    1.5621   -0.5261 C   0  0  0  0  0  0  0  0  0  0  0  0
   -2.5908    0.0088    1.3426 C   0  0  0  0  0  0  0  0  0  0  0  0
    1.5182   -1.5680    0.5182 C   0  0  0  0  0  0  0  0  0  0  0  0
    2.4792   -0.6036    0.2765 C   0  0  0  0  0  0  0  0  0  0  0  0
    3.6865   -1.2574    0.3940 N   0  0  0  0  0  0  0  0  0  0  0  0
    4.9990   -0.7377    0.2467 C   0  0  0  0  0  0  0  0  0  0  0  0
    6.1013   -1.5917    0.4081 C   0  0  0  0  0  0  0  0  0  0  0  0
    7.4000   -1.0983    0.2664 C   0  0  0  0  0  0  0  0  0  0  0  0
    7.6075    0.2456   -0.0359 C   0  0  0  0  0  0  0  0  0  0  0  0
    6.5179    1.0997   -0.1972 C   0  0  0  0  0  0  0  0  0  0  0  0
    5.2143    0.6142   -0.0573 C   0  0  0  0  0  0  0  0  0  0  0  0
    3.4636   -2.5586    0.6883 N   0  0  0  0  0  0  0  0  0  0  0  0
    2.1559   -2.7552    0.7731 N   0  0  0  0  0  0  0  0  0  0  0  0
    0.2193    0.4196   -0.3118 H   0  0  0  0  0  0  0  0  0  0  0  0
   -2.5195   -1.8692   -0.7347 H   0  0  0  0  0  0  0  0  0  0  0  0
   -2.0716   -0.7599   -2.0186 H   0  0  0  0  0  0  0  0  0  0  0  0
   -4.5447   -1.0803   -1.9107 H   0  0  0  0  0  0  0  0  0  0  0  0
   -5.8076   -0.2663    0.0787 H   0  0  0  0  0  0  0  0  0  0  0  0
   -4.7044   -1.5620    0.5358 H   0  0  0  0  0  0  0  0  0  0  0  0
   -4.5733    0.3306    2.1612 H   0  0  0  0  0  0  0  0  0  0  0  0
   -5.2035    2.1619    0.5911 H   0  0  0  0  0  0  0  0  0  0  0  0
   -3.6861    2.5372    1.4045 H   0  0  0  0  0  0  0  0  0  0  0  0
   -3.5124    3.0080   -1.0387 H   0  0  0  0  0  0  0  0  0  0  0  0
   -5.1856    1.3272   -1.8183 H   0  0  0  0  0  0  0  0  0  0  0  0
   -3.6558    1.1257   -2.6692 H   0  0  0  0  0  0  0  0  0  0  0  0
   -1.4645    1.6725   -1.4895 H   0  0  0  0  0  0  0  0  0  0  0  0
   -1.4755    2.2445    0.1708 H   0  0  0  0  0  0  0  0  0  0  0  0
   -2.0996    0.6601    2.0774 H   0  0  0  0  0  0  0  0  0  0  0  0
   -2.5411   -1.0065    1.7521 H   0  0  0  0  0  0  0  0  0  0  0  0
    2.4103    0.4475    0.0548 H   0  0  0  0  0  0  0  0  0  0  0  0
    5.9696   -2.6466    0.6450 H   0  0  0  0  0  0  0  0  0  0  0  0
    8.2493   -1.7655    0.3930 H   0  0  0  0  0  0  0  0  0  0  0  0
    8.6198    0.6272   -0.1453 H   0  0  0  0  0  0  0  0  0  0  0  0
    6.6854    2.1483   -0.4325 H   0  0  0  0  0  0  0  0  0  0  0  0
    4.3984    1.3170   -0.1910 H   0  0  0  0  0  0  0  0  0  0  0  0
  1  2  2  0
  2  3  1  0
  4  3  1  1
  4  5  1  0
  5  6  1  0
  6  7  1  0
  7  8  1  0
  8  9  1  0
  9 10  1  0
 10 11  1  0
 10 12  1  0
  8 13  1  0
  2 14  1  0
 14 15  2  0
 15 16  1  0
 16 17  1  0
 17 18  2  0
 18 19  1  0
 19 20  2  0
 20 21  1  0
 21 22  2  0
 16 23  1  0
 23 24  2  0
 12  4  1  0
 24 14  1  0
 13  4  1  0
 22 17  1  0
 11  6  1  0
  3 25  1  0
  5 26  1  0
  5 27  1  0
  6 28  1  6
  7 29  1  0
  7 30  1  0
  8 31  1  1
  9 32  1  0
  9 33  1  0
 10 34  1  6
 11 35  1  0
 11 36  1  0
 12 37  1  0
 12 38  1  0
 13 39  1  0
 13 40  1  0
 15 41  1  0
 18 42  1  0
 19 43  1  0
 20 44  1  0
 21 45  1  0
 22 46  1  0
M  END
>  <_SMILES>  (29) 
O=C(N[C@]12C[C@H]3C[C@H](C[C@H](C3)C1)C2)c1cn(-c2ccccc2)nn1

$$$$

     RDKit          3D

 45 49  0  0  0  0  0  0  0  0999 V2000
   -0.5429   -2.0993    1.8759 O   0  0  0  0  0  0  0  0  0  0  0  0
    0.1765   -1.3270    1.2517 C   0  0  0  0  0  0  0  0  0  0  0  0
   -0.3003   -0.3531    0.3911 N   0  0  0  0  0  0  0  0  0  0  0  0
   -1.7068   -0.0905    0.0912 C   0  0  2  0  0  0  0  0  0  0  0  0
   -1.7819    1.0845   -0.9206 C   0  0  0  0  0  0  0  0  0  0  0  0
   -3.2403    1.4118   -1.2787 C   0  0  1  0  0  0  0  0  0  0  0  0
   -3.8970    0.1700   -1.9016 C   0  0  0  0  0  0  0  0  0  0  0  0
   -3.8570   -0.9999   -0.9059 C   0  0  2  0  0  0  0  0  0  0  0  0
   -4.6093   -0.6016    0.3754 C   0  0  0  0  0  0  0  0  0  0  0  0
   -3.9586    0.6408    1.0071 C   0  0  2  0  0  0  0  0  0  0  0  0
   -3.9980    1.8011    0.0002 C   0  0  0  0  0  0  0  0  0  0  0  0
   -2.4947    0.3221    1.3592 C   0  0  0  0  0  0  0  0  0  0  0  0
   -2.3930   -1.3196   -0.5549 C   0  0  0  0  0  0  0  0  0  0  0  0
    1.6436   -1.3459    1.3459 C   0  0  0  0  0  0  0  0  0  0  0  0
    2.3413   -2.2220    2.1344 N   0  0  0  0  0  0  0  0  0  0  0  0
    3.6253   -1.9450    1.9650 N   0  0  0  0  0  0  0  0  0  0  0  0
    3.6674   -0.9169    1.0855 N   0  0  0  0  0  0  0  0  0  0  0  0
    4.8765   -0.3279    0.6446 C   0  0  0  0  0  0  0  0  0  0  0  0
    6.1063   -0.8062    1.1201 C   0  0  0  0  0  0  0  0  0  0  0  0
    7.2961   -0.2213    0.6817 C   0  0  0  0  0  0  0  0  0  0  0  0
    7.2635    0.8362   -0.2270 C   0  0  0  0  0  0  0  0  0  0  0  0
    6.0424    1.3142   -0.7018 C   0  0  0  0  0  0  0  0  0  0  0  0
    4.8474    0.7358   -0.2693 C   0  0  0  0  0  0  0  0  0  0  0  0
    2.4436   -0.4991    0.6622 N   0  0  0  0  0  0  0  0  0  0  0  0
    0.4158    0.2130   -0.0563 H   0  0  0  0  0  0  0  0  0  0  0  0
   -1.2953    1.9754   -0.5011 H   0  0  0  0  0  0  0  0  0  0  0  0
   -1.2246    0.8330   -1.8330 H   0  0  0  0  0  0  0  0  0  0  0  0
   -3.2687    2.2424   -1.9927 H   0  0  0  0  0  0  0  0  0  0  0  0
   -3.3754   -0.1065   -2.8261 H   0  0  0  0  0  0  0  0  0  0  0  0
   -4.9353    0.3930   -2.1764 H   0  0  0  0  0  0  0  0  0  0  0  0
   -4.3298   -1.8814   -1.3531 H   0  0  0  0  0  0  0  0  0  0  0  0
   -4.5997   -1.4340    1.0898 H   0  0  0  0  0  0  0  0  0  0  0  0
   -5.6610   -0.3947    0.1420 H   0  0  0  0  0  0  0  0  0  0  0  0
   -4.5034    0.9218    1.9153 H   0  0  0  0  0  0  0  0  0  0  0  0
   -5.0380    2.0521   -0.2420 H   0  0  0  0  0  0  0  0  0  0  0  0
   -3.5491    2.6982    0.4440 H   0  0  0  0  0  0  0  0  0  0  0  0
   -2.0243    1.1965    1.8280 H   0  0  0  0  0  0  0  0  0  0  0  0
   -2.4741   -0.4763    2.1103 H   0  0  0  0  0  0  0  0  0  0  0  0
   -2.3685   -2.1824    0.1211 H   0  0  0  0  0  0  0  0  0  0  0  0
   -1.8497   -1.6231   -1.4594 H   0  0  0  0  0  0  0  0  0  0  0  0
    6.1590   -1.6302    1.8297 H   0  0  0  0  0  0  0  0  0  0  0  0
    8.2504   -0.5913    1.0497 H   0  0  0  0  0  0  0  0  0  0  0  0
    8.1925    1.2888   -0.5658 H   0  0  0  0  0  0  0  0  0  0  0  0
    6.0219    2.1390   -1.4103 H   0  0  0  0  0  0  0  0  0  0  0  0
    3.9071    1.1255   -0.6535 H   0  0  0  0  0  0  0  0  0  0  0  0
  1  2  2  0
  2  3  1  0
  4  3  1  1
  4  5  1  0
  5  6  1  0
  6  7  1  0
  7  8  1  0
  8  9  1  0
  9 10  1  0
 10 11  1  0
 10 12  1  0
  8 13  1  0
  2 14  1  0
 14 15  1  0
 15 16  2  0
 16 17  1  0
 17 18  1  0
 18 19  2  0
 19 20  1  0
 20 21  2  0
 21 22  1  0
 22 23  2  0
 17 24  1  0
 12  4  1  0
 24 14  2  0
 13  4  1  0
 23 18  1  0
 11  6  1  0
  3 25  1  0
  5 26  1  0
  5 27  1  0
  6 28  1  6
  7 29  1  0
  7 30  1  0
  8 31  1  6
  9 32  1  0
  9 33  1  0
 10 34  1  1
 11 35  1  0
 11 36  1  0
 12 37  1  0
 12 38  1  0
 13 39  1  0
 13 40  1  0
 19 41  1  0
 20 42  1  0
 21 43  1  0
 22 44  1  0
 23 45  1  0
M  END
>  <_SMILES>  (30) 
O=C(N[C@]12C[C@H]3C[C@H](C[C@H](C3)C1)C2)c1nnn(-c2ccccc2)n1

$$$$

     RDKit          3D

 43 47  0  0  0  0  0  0  0  0999 V2000
    0.8677   -0.0948    1.5754 O   0  0  0  0  0  0  0  0  0  0  0  0
    1.0286   -0.1918    0.3631 C   0  0  0  0  0  0  0  0  0  0  0  0
    0.0045   -0.1873   -0.5572 N   0  0  0  0  0  0  0  0  0  0  0  0
   -1.4215   -0.0683   -0.2573 C   0  0  2  0  0  0  0  0  0  0  0  0
   -1.7469    1.2721    0.4473 C   0  0  0  0  0  0  0  0  0  0  0  0
   -3.2587    1.3936    0.7080 C   0  0  1  0  0  0  0  0  0  0  0  0
   -4.0110    1.3422   -0.6311 C   0  0  0  0  0  0  0  0  0  0  0  0
   -3.7229    0.0117   -1.3439 C   0  0  2  0  0  0  0  0  0  0  0  0
   -4.1819   -1.1531   -0.4529 C   0  0  0  0  0  0  0  0  0  0  0  0
   -3.4306   -1.1163    0.8872 C   0  0  2  0  0  0  0  0  0  0  0  0
   -3.7158    0.2208    1.5922 C   0  0  0  0  0  0  0  0  0  0  0  0
   -1.9188   -1.2390    0.6266 C   0  0  0  0  0  0  0  0  0  0  0  0
   -2.2111   -0.1096   -1.5931 C   0  0  0  0  0  0  0  0  0  0  0  0
    2.3358   -0.3229   -0.2319 C   0  0  0  0  0  0  0  0  0  0  0  0
    2.5845   -0.4317   -1.5239 N   0  0  0  0  0  0  0  0  0  0  0  0
    3.9503   -0.5341   -1.6809 N   0  0  0  0  0  0  0  0  0  0  0  0
    4.4952   -0.4814   -0.4863 C   0  0  0  0  0  0  0  0  0  0  0  0
    6.0134   -0.5694   -0.2039 C   0  0  0  0  0  0  0  0  0  0  0  0
    6.9381    0.3761   -0.9242 C   0  0  0  0  0  0  0  0  0  0  0  0
    6.6917    0.5468    0.5466 C   0  0  0  0  0  0  0  0  0  0  0  0
    3.5176   -0.3548    0.4541 N   0  0  0  0  0  0  0  0  0  0  0  0
    0.2962   -0.2754   -1.5277 H   0  0  0  0  0  0  0  0  0  0  0  0
   -1.2125    1.3527    1.4013 H   0  0  0  0  0  0  0  0  0  0  0  0
   -1.4050    2.1147   -0.1680 H   0  0  0  0  0  0  0  0  0  0  0  0
   -3.4705    2.3422    1.2140 H   0  0  0  0  0  0  0  0  0  0  0  0
   -5.0891    1.4499   -0.4597 H   0  0  0  0  0  0  0  0  0  0  0  0
   -3.7041    2.1823   -1.2661 H   0  0  0  0  0  0  0  0  0  0  0  0
   -4.2592   -0.0197   -2.2989 H   0  0  0  0  0  0  0  0  0  0  0  0
   -5.2630   -1.0883   -0.2786 H   0  0  0  0  0  0  0  0  0  0  0  0
   -3.9980   -2.1084   -0.9598 H   0  0  0  0  0  0  0  0  0  0  0  0
   -3.7642   -1.9462    1.5201 H   0  0  0  0  0  0  0  0  0  0  0  0
   -4.7882    0.3095    1.8054 H   0  0  0  0  0  0  0  0  0  0  0  0
   -3.1956    0.2541    2.5573 H   0  0  0  0  0  0  0  0  0  0  0  0
   -1.3911   -1.2557    1.5875 H   0  0  0  0  0  0  0  0  0  0  0  0
   -1.7004   -2.1986    0.1399 H   0  0  0  0  0  0  0  0  0  0  0  0
   -1.9984   -1.0448   -2.1284 H   0  0  0  0  0  0  0  0  0  0  0  0
   -1.8788    0.7029   -2.2531 H   0  0  0  0  0  0  0  0  0  0  0  0
    6.3777   -1.5789   -0.0447 H   0  0  0  0  0  0  0  0  0  0  0  0
    7.9008   -0.0062   -1.2432 H   0  0  0  0  0  0  0  0  0  0  0  0
    6.5040    1.0997   -1.6059 H   0  0  0  0  0  0  0  0  0  0  0  0
    6.1115    1.4086    0.8559 H   0  0  0  0  0  0  0  0  0  0  0  0
    7.4953    0.2865    1.2261 H   0  0  0  0  0  0  0  0  0  0  0  0
    3.6249   -0.2898    1.4557 H   0  0  0  0  0  0  0  0  0  0  0  0
  1  2  2  0
  2  3  1  0
  4  3  1  6
  4  5  1  0
  5  6  1  0
  6  7  1  0
  7  8  1  0
  8  9  1  0
  9 10  1  0
 10 11  1  0
 10 12  1  0
  8 13  1  0
  2 14  1  0
 14 15  2  0
 15 16  1  0
 16 17  2  0
 17 18  1  0
 18 19  1  0
 19 20  1  0
 17 21  1  0
 12  4  1  0
 21 14  1  0
 13  4  1  0
 20 18  1  0
 11  6  1  0
  3 22  1  0
  5 23  1  0
  5 24  1  0
  6 25  1  1
  7 26  1  0
  7 27  1  0
  8 28  1  6
  9 29  1  0
  9 30  1  0
 10 31  1  1
 11 32  1  0
 11 33  1  0
 12 34  1  0
 12 35  1  0
 13 36  1  0
 13 37  1  0
 18 38  1  0
 19 39  1  0
 19 40  1  0
 20 41  1  0
 20 42  1  0
 21 43  1  0
M  END
>  <_SMILES>  (31) 
O=C(N[C@]12C[C@H]3C[C@H](C[C@H](C3)C1)C2)c1nnc(C2CC2)[nH]1

$$$$

     RDKit          3D

 43 47  0  0  0  0  0  0  0  0999 V2000
    0.6595   -1.7837   -0.7404 O   0  0  0  0  0  0  0  0  0  0  0  0
    0.9859   -0.9016    0.0462 C   0  0  0  0  0  0  0  0  0  0  0  0
    0.0797    0.0265    0.5474 N   0  0  0  0  0  0  0  0  0  0  0  0
   -1.3332    0.0928    0.1441 C   0  0  2  0  0  0  0  0  0  0  0  0
   -2.0105    1.2326    0.9549 C   0  0  0  0  0  0  0  0  0  0  0  0
   -3.4949    1.3713    0.5819 C   0  0  1  0  0  0  0  0  0  0  0  0
   -3.6105    1.6811   -0.9189 C   0  0  0  0  0  0  0  0  0  0  0  0
   -2.9719    0.5494   -1.7394 C   0  0  2  0  0  0  0  0  0  0  0  0
   -3.6904   -0.7736   -1.4233 C   0  0  0  0  0  0  0  0  0  0  0  0
   -3.5800   -1.0914    0.0778 C   0  0  2  0  0  0  0  0  0  0  0  0
   -4.2160    0.0496    0.8862 C   0  0  0  0  0  0  0  0  0  0  0  0
   -2.0945   -1.2204    0.4598 C   0  0  0  0  0  0  0  0  0  0  0  0
   -1.4854    0.4226   -1.3612 C   0  0  0  0  0  0  0  0  0  0  0  0
    2.3392   -0.7208    0.5287 C   0  0  0  0  0  0  0  0  0  0  0  0
    3.4414   -0.9970   -0.1424 N   0  0  0  0  0  0  0  0  0  0  0  0
    4.4402   -0.6611    0.7295 C   0  0  0  0  0  0  0  0  0  0  0  0
    5.9432   -0.8049    0.3724 C   0  0  0  0  0  0  0  0  0  0  0  0
    6.7998    0.4323    0.2802 C   0  0  0  0  0  0  0  0  0  0  0  0
    6.4313   -0.3160   -0.9675 C   0  0  0  0  0  0  0  0  0  0  0  0
    4.0235   -0.1991    1.9130 N   0  0  0  0  0  0  0  0  0  0  0  0
    2.6929   -0.2748    1.7693 N   0  0  0  0  0  0  0  0  0  0  0  0
    0.4801    0.9027    0.8553 H   0  0  0  0  0  0  0  0  0  0  0  0
   -1.9147    1.0375    2.0315 H   0  0  0  0  0  0  0  0  0  0  0  0
   -1.4955    2.1850    0.7701 H   0  0  0  0  0  0  0  0  0  0  0  0
   -3.9484    2.1821    1.1627 H   0  0  0  0  0  0  0  0  0  0  0  0
   -4.6652    1.7969   -1.1974 H   0  0  0  0  0  0  0  0  0  0  0  0
   -3.1153    2.6335   -1.1447 H   0  0  0  0  0  0  0  0  0  0  0  0
   -3.0622    0.7726   -2.8084 H   0  0  0  0  0  0  0  0  0  0  0  0
   -3.2516   -1.5884   -2.0123 H   0  0  0  0  0  0  0  0  0  0  0  0
   -4.7460   -0.7039   -1.7136 H   0  0  0  0  0  0  0  0  0  0  0  0
   -4.0994   -2.0314    0.2955 H   0  0  0  0  0  0  0  0  0  0  0  0
   -4.1566   -0.1722    1.9589 H   0  0  0  0  0  0  0  0  0  0  0  0
   -5.2809    0.1373    0.6378 H   0  0  0  0  0  0  0  0  0  0  0  0
   -2.0021   -1.4625    1.5267 H   0  0  0  0  0  0  0  0  0  0  0  0
   -1.6658   -2.0690   -0.0846 H   0  0  0  0  0  0  0  0  0  0  0  0
   -0.9590    1.3566   -1.5978 H   0  0  0  0  0  0  0  0  0  0  0  0
   -1.0237   -0.3546   -1.9814 H   0  0  0  0  0  0  0  0  0  0  0  0
    6.4023   -1.7021    0.7705 H   0  0  0  0  0  0  0  0  0  0  0  0
    6.3318    1.3943    0.4552 H   0  0  0  0  0  0  0  0  0  0  0  0
    7.8206    0.3633    0.6362 H   0  0  0  0  0  0  0  0  0  0  0  0
    5.7106    0.1340   -1.6413 H   0  0  0  0  0  0  0  0  0  0  0  0
    7.1994   -0.8965   -1.4640 H   0  0  0  0  0  0  0  0  0  0  0  0
    2.0921   -0.0291    2.5470 H   0  0  0  0  0  0  0  0  0  0  0  0
  1  2  2  0
  2  3  1  0
  4  3  1  1
  4  5  1  0
  5  6  1  0
  6  7  1  0
  7  8  1  0
  8  9  1  0
  9 10  1  0
 10 11  1  0
 10 12  1  0
  8 13  1  0
  2 14  1  0
 14 15  2  0
 15 16  1  0
 16 17  1  0
 17 18  1  0
 18 19  1  0
 16 20  2  0
 20 21  1  0
 12  4  1  0
 21 14  1  0
 13  4  1  0
 19 17  1  0
 11  6  1  0
  3 22  1  0
  5 23  1  0
  5 24  1  0
  6 25  1  1
  7 26  1  0
  7 27  1  0
  8 28  1  6
  9 29  1  0
  9 30  1  0
 10 31  1  6
 11 32  1  0
 11 33  1  0
 12 34  1  0
 12 35  1  0
 13 36  1  0
 13 37  1  0
 17 38  1  0
 18 39  1  0
 18 40  1  0
 19 41  1  0
 19 42  1  0
 21 43  1  0
M  END
>  <_SMILES>  (32) 
O=C(N[C@]12C[C@H]3C[C@H](C[C@H](C3)C1)C2)c1nc(C2CC2)n[nH]1

$$$$

     RDKit          3D

 43 47  0  0  0  0  0  0  0  0999 V2000
    0.6429    1.5512   -1.2388 O   0  0  0  0  0  0  0  0  0  0  0  0
    0.9348    0.5986   -0.5223 C   0  0  0  0  0  0  0  0  0  0  0  0
    0.0009   -0.2121    0.0996 N   0  0  0  0  0  0  0  0  0  0  0  0
   -1.4499   -0.0751    0.0111 C   0  0  2  0  0  0  0  0  0  0  0  0
   -1.9307    1.2879    0.5678 C   0  0  0  0  0  0  0  0  0  0  0  0
   -3.4655    1.3859    0.5088 C   0  0  1  0  0  0  0  0  0  0  0  0
   -3.9268    1.2318   -0.9505 C   0  0  0  0  0  0  0  0  0  0  0  0
   -3.4862   -0.1342   -1.5037 C   0  0  2  0  0  0  0  0  0  0  0  0
   -4.1001   -1.2509   -0.6447 C   0  0  0  0  0  0  0  0  0  0  0  0
   -3.6356   -1.1069    0.8130 C   0  0  2  0  0  0  0  0  0  0  0  0
   -4.0795    0.2604    1.3561 C   0  0  0  0  0  0  0  0  0  0  0  0
   -2.1021   -1.1959    0.8644 C   0  0  0  0  0  0  0  0  0  0  0  0
   -1.9515   -0.2329   -1.4457 C   0  0  0  0  0  0  0  0  0  0  0  0
    2.3297    0.1928   -0.2302 C   0  0  0  0  0  0  0  0  0  0  0  0
    2.6271   -0.8629    0.5641 N   0  0  0  0  0  0  0  0  0  0  0  0
    3.9709   -0.8485    0.5395 N   0  0  0  0  0  0  0  0  0  0  0  0
    4.4498    0.1655   -0.2313 C   0  0  0  0  0  0  0  0  0  0  0  0
    5.9354    0.5107   -0.5073 C   0  0  0  0  0  0  0  0  0  0  0  0
    6.9704    0.3176    0.5691 C   0  0  0  0  0  0  0  0  0  0  0  0
    6.9579   -0.5877   -0.6301 C   0  0  0  0  0  0  0  0  0  0  0  0
    3.4431    0.8401   -0.7305 N   0  0  0  0  0  0  0  0  0  0  0  0
    0.4043   -0.9591    0.6596 H   0  0  0  0  0  0  0  0  0  0  0  0
   -1.4979    2.1184   -0.0023 H   0  0  0  0  0  0  0  0  0  0  0  0
   -1.5879    1.4150    1.6031 H   0  0  0  0  0  0  0  0  0  0  0  0
   -3.7880    2.3583    0.8976 H   0  0  0  0  0  0  0  0  0  0  0  0
   -5.0183    1.3242   -1.0091 H   0  0  0  0  0  0  0  0  0  0  0  0
   -3.5059    2.0380   -1.5638 H   0  0  0  0  0  0  0  0  0  0  0  0
   -3.8234   -0.2389   -2.5410 H   0  0  0  0  0  0  0  0  0  0  0  0
   -3.8046   -2.2315   -1.0376 H   0  0  0  0  0  0  0  0  0  0  0  0
   -5.1948   -1.2042   -0.6957 H   0  0  0  0  0  0  0  0  0  0  0  0
   -4.0735   -1.9062    1.4212 H   0  0  0  0  0  0  0  0  0  0  0  0
   -5.1739    0.3330    1.3395 H   0  0  0  0  0  0  0  0  0  0  0  0
   -3.7692    0.3671    2.4028 H   0  0  0  0  0  0  0  0  0  0  0  0
   -1.7766   -2.1815    0.5051 H   0  0  0  0  0  0  0  0  0  0  0  0
   -1.7622   -1.1231    1.9063 H   0  0  0  0  0  0  0  0  0  0  0  0
   -1.6235   -1.1973   -1.8555 H   0  0  0  0  0  0  0  0  0  0  0  0
   -1.5195    0.5383   -2.0944 H   0  0  0  0  0  0  0  0  0  0  0  0
    4.4911   -1.5445    1.0598 H   0  0  0  0  0  0  0  0  0  0  0  0
    6.0619    1.3714   -1.1585 H   0  0  0  0  0  0  0  0  0  0  0  0
    6.6729   -0.0909    1.5269 H   0  0  0  0  0  0  0  0  0  0  0  0
    7.7616    1.0569    0.6395 H   0  0  0  0  0  0  0  0  0  0  0  0
    7.7408   -0.4608   -1.3708 H   0  0  0  0  0  0  0  0  0  0  0  0
    6.6519   -1.6178   -0.4956 H   0  0  0  0  0  0  0  0  0  0  0  0
  1  2  2  0
  2  3  1  0
  4  3  1  6
  4  5  1  0
  5  6  1  0
  6  7  1  0
  7  8  1  0
  8  9  1  0
  9 10  1  0
 10 11  1  0
 10 12  1  0
  8 13  1  0
  2 14  1  0
 14 15  2  0
 15 16  1  0
 16 17  1  0
 17 18  1  0
 18 19  1  0
 19 20  1  0
 17 21  2  0
 12  4  1  0
 21 14  1  0
 13  4  1  0
 20 18  1  0
 11  6  1  0
  3 22  1  0
  5 23  1  0
  5 24  1  0
  6 25  1  1
  7 26  1  0
  7 27  1  0
  8 28  1  6
  9 29  1  0
  9 30  1  0
 10 31  1  1
 11 32  1  0
 11 33  1  0
 12 34  1  0
 12 35  1  0
 13 36  1  0
 13 37  1  0
 16 38  1  0
 18 39  1  0
 19 40  1  0
 19 41  1  0
 20 42  1  0
 20 43  1  0
M  END
>  <_SMILES>  (33) 
O=C(N[C@]12C[C@H]3C[C@H](C[C@H](C3)C1)C2)c1n[nH]c(C2CC2)n1

$$$$

     RDKit          3D

 49 53  0  0  0  0  0  0  0  0999 V2000
   -1.0963    2.2794    1.3015 O   0  0  0  0  0  0  0  0  0  0  0  0
   -0.2440    1.6462    0.6884 C   0  0  0  0  0  0  0  0  0  0  0  0
   -0.5447    0.4985   -0.0382 N   0  0  0  0  0  0  0  0  0  0  0  0
   -1.9058   -0.0310   -0.2081 C   0  0  2  0  0  0  0  0  0  0  0  0
   -1.8113   -1.3352   -1.0479 C   0  0  0  0  0  0  0  0  0  0  0  0
   -3.2017   -1.9483   -1.2774 C   0  0  1  0  0  0  0  0  0  0  0  0
   -3.8369   -2.2784    0.0817 C   0  0  0  0  0  0  0  0  0  0  0  0
   -3.9638   -0.9998    0.9239 C   0  0  2  0  0  0  0  0  0  0  0  0
   -4.8410    0.0176    0.1743 C   0  0  0  0  0  0  0  0  0  0  0  0
   -4.2143    0.3548   -1.1895 C   0  0  2  0  0  0  0  0  0  0  0  0
   -4.0843   -0.9323   -2.0193 C   0  0  0  0  0  0  0  0  0  0  0  0
   -2.8173    0.9622   -0.9699 C   0  0  0  0  0  0  0  0  0  0  0  0
   -2.5658   -0.3953    1.1468 C   0  0  0  0  0  0  0  0  0  0  0  0
    1.1561    2.0150    0.6428 C   0  0  0  0  0  0  0  0  0  0  0  0
    1.6167    3.2455    0.7458 N   0  0  0  0  0  0  0  0  0  0  0  0
    2.9899    3.2012    0.6580 N   0  0  0  0  0  0  0  0  0  0  0  0
    3.3523    1.9430    0.5351 C   0  0  0  0  0  0  0  0  0  0  0  0
    4.7451    1.4177    0.4367 C   0  0  0  0  0  0  0  0  0  0  0  0
    4.9636    0.5217   -0.7934 C   0  0  0  0  0  0  0  0  0  0  0  0
    5.1256   -0.8878   -0.2398 C   0  0  0  0  0  0  0  0  0  0  0  0
    5.8348   -0.6609    1.0832 C   0  0  0  0  0  0  0  0  0  0  0  0
    5.1356    0.5650    1.6557 C   0  0  0  0  0  0  0  0  0  0  0  0
    2.2249    1.1655    0.5220 N   0  0  0  0  0  0  0  0  0  0  0  0
    0.0995    0.2812   -0.7859 H   0  0  0  0  0  0  0  0  0  0  0  0
   -1.1632   -2.0633   -0.5419 H   0  0  0  0  0  0  0  0  0  0  0  0
   -1.3380   -1.1268   -2.0169 H   0  0  0  0  0  0  0  0  0  0  0  0
   -3.1093   -2.8627   -1.8740 H   0  0  0  0  0  0  0  0  0  0  0  0
   -4.8255   -2.7301   -0.0660 H   0  0  0  0  0  0  0  0  0  0  0  0
   -3.2249   -3.0180    0.6124 H   0  0  0  0  0  0  0  0  0  0  0  0
   -4.4201   -1.2393    1.8909 H   0  0  0  0  0  0  0  0  0  0  0  0
   -4.9507    0.9306    0.7723 H   0  0  0  0  0  0  0  0  0  0  0  0
   -5.8486   -0.3920    0.0312 H   0  0  0  0  0  0  0  0  0  0  0  0
   -4.8490    1.0732   -1.7203 H   0  0  0  0  0  0  0  0  0  0  0  0
   -5.0769   -1.3618   -2.2028 H   0  0  0  0  0  0  0  0  0  0  0  0
   -3.6500   -0.7038   -3.0003 H   0  0  0  0  0  0  0  0  0  0  0  0
   -2.3670    1.2219   -1.9370 H   0  0  0  0  0  0  0  0  0  0  0  0
   -2.9195    1.9035   -0.4172 H   0  0  0  0  0  0  0  0  0  0  0  0
   -1.9337   -1.1062    1.6948 H   0  0  0  0  0  0  0  0  0  0  0  0
   -2.6643    0.4857    1.7904 H   0  0  0  0  0  0  0  0  0  0  0  0
    5.4240    2.2774    0.3642 H   0  0  0  0  0  0  0  0  0  0  0  0
    4.1651    0.5778   -1.5405 H   0  0  0  0  0  0  0  0  0  0  0  0
    5.8959    0.8174   -1.2915 H   0  0  0  0  0  0  0  0  0  0  0  0
    4.1444   -1.3471   -0.0729 H   0  0  0  0  0  0  0  0  0  0  0  0
    5.6964   -1.5340   -0.9127 H   0  0  0  0  0  0  0  0  0  0  0  0
    6.8961   -0.4445    0.9127 H   0  0  0  0  0  0  0  0  0  0  0  0
    5.7654   -1.5264    1.7482 H   0  0  0  0  0  0  0  0  0  0  0  0
    5.7931    1.1143    2.3382 H   0  0  0  0  0  0  0  0  0  0  0  0
    4.2600    0.2503    2.2367 H   0  0  0  0  0  0  0  0  0  0  0  0
    2.1835    0.1586    0.4861 H   0  0  0  0  0  0  0  0  0  0  0  0
  1  2  2  0
  2  3  1  0
  4  3  1  1
  4  5  1  0
  5  6  1  0
  6  7  1  0
  7  8  1  0
  8  9  1  0
  9 10  1  0
 10 11  1  0
 10 12  1  0
  8 13  1  0
  2 14  1  0
 14 15  2  0
 15 16  1  0
 16 17  2  0
 17 18  1  0
 18 19  1  0
 19 20  1  0
 20 21  1  0
 21 22  1  0
 17 23  1  0
 12  4  1  0
 23 14  1  0
 13  4  1  0
 22 18  1  0
 11  6  1  0
  3 24  1  0
  5 25  1  0
  5 26  1  0
  6 27  1  6
  7 28  1  0
  7 29  1  0
  8 30  1  1
  9 31  1  0
  9 32  1  0
 10 33  1  6
 11 34  1  0
 11 35  1  0
 12 36  1  0
 12 37  1  0
 13 38  1  0
 13 39  1  0
 18 40  1  0
 19 41  1  0
 19 42  1  0
 20 43  1  0
 20 44  1  0
 21 45  1  0
 21 46  1  0
 22 47  1  0
 22 48  1  0
 23 49  1  0
M  END
>  <_SMILES>  (34) 
O=C(N[C@]12C[C@H]3C[C@H](C[C@H](C3)C1)C2)c1nnc(C2CCCC2)[nH]1

$$$$

     RDKit          3D

 49 53  0  0  0  0  0  0  0  0999 V2000
   -1.0872   -1.6960   -2.0254 O   0  0  0  0  0  0  0  0  0  0  0  0
   -0.2287   -1.1238   -1.3630 C   0  0  0  0  0  0  0  0  0  0  0  0
   -0.4932   -0.2846   -0.3041 N   0  0  0  0  0  0  0  0  0  0  0  0
   -1.8161    0.0662    0.2082 C   0  0  2  0  0  0  0  0  0  0  0  0
   -1.6389    1.0374    1.4059 C   0  0  0  0  0  0  0  0  0  0  0  0
   -3.0004    1.4449    1.9912 C   0  0  1  0  0  0  0  0  0  0  0  0
   -3.8305    2.1390    0.9000 C   0  0  0  0  0  0  0  0  0  0  0  0
   -4.0404    1.1848   -0.2863 C   0  0  2  0  0  0  0  0  0  0  0  0
   -4.7736   -0.0766    0.2008 C   0  0  0  0  0  0  0  0  0  0  0  0
   -3.9495   -0.7795    1.2931 C   0  0  2  0  0  0  0  0  0  0  0  0
   -3.7402    0.1861    2.4702 C   0  0  0  0  0  0  0  0  0  0  0  0
   -2.5810   -1.1815    0.7151 C   0  0  0  0  0  0  0  0  0  0  0  0
   -2.6719    0.7836   -0.8649 C   0  0  0  0  0  0  0  0  0  0  0  0
    1.1810   -1.2703   -1.6265 C   0  0  0  0  0  0  0  0  0  0  0  0
    2.1628   -0.6894   -0.9599 N   0  0  0  0  0  0  0  0  0  0  0  0
    3.2873   -1.1515   -1.6011 C   0  0  0  0  0  0  0  0  0  0  0  0
    4.6678   -0.7605   -1.1888 C   0  0  0  0  0  0  0  0  0  0  0  0
    4.8489    0.7640   -1.1013 C   0  0  0  0  0  0  0  0  0  0  0  0
    4.8447    1.0783    0.3877 C   0  0  0  0  0  0  0  0  0  0  0  0
    5.5734   -0.1103    0.9874 C   0  0  0  0  0  0  0  0  0  0  0  0
    5.0305   -1.3014    0.2070 C   0  0  0  0  0  0  0  0  0  0  0  0
    3.0495   -1.9850   -2.6222 N   0  0  0  0  0  0  0  0  0  0  0  0
    1.7067   -2.0423   -2.6169 N   0  0  0  0  0  0  0  0  0  0  0  0
    0.3316    0.1113    0.1409 H   0  0  0  0  0  0  0  0  0  0  0  0
   -1.0268    0.5660    2.1867 H   0  0  0  0  0  0  0  0  0  0  0  0
   -1.0901    1.9337    1.0870 H   0  0  0  0  0  0  0  0  0  0  0  0
   -2.8513    2.1293    2.8337 H   0  0  0  0  0  0  0  0  0  0  0  0
   -4.8004    2.4495    1.3075 H   0  0  0  0  0  0  0  0  0  0  0  0
   -3.3205    3.0498    0.5629 H   0  0  0  0  0  0  0  0  0  0  0  0
   -4.6359    1.6829   -1.0596 H   0  0  0  0  0  0  0  0  0  0  0  0
   -5.7614    0.1936    0.5937 H   0  0  0  0  0  0  0  0  0  0  0  0
   -4.9419   -0.7606   -0.6402 H   0  0  0  0  0  0  0  0  0  0  0  0
   -4.4806   -1.6733    1.6390 H   0  0  0  0  0  0  0  0  0  0  0  0
   -3.1652   -0.3082    3.2629 H   0  0  0  0  0  0  0  0  0  0  0  0
   -4.7085    0.4630    2.9048 H   0  0  0  0  0  0  0  0  0  0  0  0
   -1.9903   -1.7012    1.4808 H   0  0  0  0  0  0  0  0  0  0  0  0
   -2.7339   -1.9031   -0.0961 H   0  0  0  0  0  0  0  0  0  0  0  0
   -2.8283    0.1375   -1.7369 H   0  0  0  0  0  0  0  0  0  0  0  0
   -2.1464    1.6744   -1.2333 H   0  0  0  0  0  0  0  0  0  0  0  0
    5.3788   -1.1532   -1.9276 H   0  0  0  0  0  0  0  0  0  0  0  0
    5.8257    1.0364   -1.5213 H   0  0  0  0  0  0  0  0  0  0  0  0
    4.0880    1.3355   -1.6428 H   0  0  0  0  0  0  0  0  0  0  0  0
    5.3402    2.0270    0.6127 H   0  0  0  0  0  0  0  0  0  0  0  0
    3.8169    1.1279    0.7657 H   0  0  0  0  0  0  0  0  0  0  0  0
    6.6532   -0.0145    0.8225 H   0  0  0  0  0  0  0  0  0  0  0  0
    5.4015   -0.2065    2.0633 H   0  0  0  0  0  0  0  0  0  0  0  0
    5.7752   -2.1025    0.1458 H   0  0  0  0  0  0  0  0  0  0  0  0
    4.1561   -1.7148    0.7247 H   0  0  0  0  0  0  0  0  0  0  0  0
    1.2134   -2.6115   -3.2963 H   0  0  0  0  0  0  0  0  0  0  0  0
  1  2  2  0
  2  3  1  0
  4  3  1  6
  4  5  1  0
  5  6  1  0
  6  7  1  0
  7  8  1  0
  8  9  1  0
  9 10  1  0
 10 11  1  0
 10 12  1  0
  8 13  1  0
  2 14  1  0
 14 15  2  0
 15 16  1  0
 16 17  1  0
 17 18  1  0
 18 19  1  0
 19 20  1  0
 20 21  1  0
 16 22  2  0
 22 23  1  0
 12  4  1  0
 23 14  1  0
 13  4  1  0
 21 17  1  0
 11  6  1  0
  3 24  1  0
  5 25  1  0
  5 26  1  0
  6 27  1  1
  7 28  1  0
  7 29  1  0
  8 30  1  6
  9 31  1  0
  9 32  1  0
 10 33  1  1
 11 34  1  0
 11 35  1  0
 12 36  1  0
 12 37  1  0
 13 38  1  0
 13 39  1  0
 17 40  1  0
 18 41  1  0
 18 42  1  0
 19 43  1  0
 19 44  1  0
 20 45  1  0
 20 46  1  0
 21 47  1  0
 21 48  1  0
 23 49  1  0
M  END
>  <_SMILES>  (35) 
O=C(N[C@]12C[C@H]3C[C@H](C[C@H](C3)C1)C2)c1nc(C2CCCC2)n[nH]1

$$$$

     RDKit          3D

 49 53  0  0  0  0  0  0  0  0999 V2000
   -0.4208   -1.9221    0.4305 O   0  0  0  0  0  0  0  0  0  0  0  0
   -0.0395   -0.7991    0.1153 C   0  0  0  0  0  0  0  0  0  0  0  0
   -0.8936    0.2518   -0.1720 N   0  0  0  0  0  0  0  0  0  0  0  0
   -2.3525    0.2038   -0.1494 C   0  0  2  0  0  0  0  0  0  0  0  0
   -2.8961    1.6054   -0.5364 C   0  0  0  0  0  0  0  0  0  0  0  0
   -4.4330    1.6216   -0.5312 C   0  0  1  0  0  0  0  0  0  0  0  0
   -4.9513    0.5856   -1.5408 C   0  0  0  0  0  0  0  0  0  0  0  0
   -4.4458   -0.8152   -1.1614 C   0  0  2  0  0  0  0  0  0  0  0  0
   -4.9451   -1.1698    0.2496 C   0  0  0  0  0  0  0  0  0  0  0  0
   -4.4305   -0.1384    1.2682 C   0  0  2  0  0  0  0  0  0  0  0  0
   -4.9361    1.2585    0.8747 C   0  0  0  0  0  0  0  0  0  0  0  0
   -2.8915   -0.1434    1.2605 C   0  0  0  0  0  0  0  0  0  0  0  0
   -2.9069   -0.8205   -1.1704 C   0  0  0  0  0  0  0  0  0  0  0  0
    1.3892   -0.4223    0.0012 C   0  0  0  0  0  0  0  0  0  0  0  0
    1.7865    0.8227   -0.3482 N   0  0  0  0  0  0  0  0  0  0  0  0
    3.1232    0.7013   -0.3230 N   0  0  0  0  0  0  0  0  0  0  0  0
    3.5130   -0.5600    0.0263 C   0  0  0  0  0  0  0  0  0  0  0  0
    4.9346   -0.9997    0.1387 C   0  0  0  0  0  0  0  0  0  0  0  0
    5.6616   -0.9824   -1.2164 C   0  0  0  0  0  0  0  0  0  0  0  0
    7.0221   -0.3587   -0.9346 C   0  0  0  0  0  0  0  0  0  0  0  0
    6.7300    0.6422    0.1688 C   0  0  0  0  0  0  0  0  0  0  0  0
    5.7678   -0.1119    1.0774 C   0  0  0  0  0  0  0  0  0  0  0  0
    2.4392   -1.2881    0.2357 N   0  0  0  0  0  0  0  0  0  0  0  0
   -0.4202    1.1182   -0.4164 H   0  0  0  0  0  0  0  0  0  0  0  0
   -2.5159    2.3634    0.1616 H   0  0  0  0  0  0  0  0  0  0  0  0
   -2.5266    1.8922   -1.5301 H   0  0  0  0  0  0  0  0  0  0  0  0
   -4.7936    2.6189   -0.8067 H   0  0  0  0  0  0  0  0  0  0  0  0
   -6.0481    0.5962   -1.5592 H   0  0  0  0  0  0  0  0  0  0  0  0
   -4.6135    0.8451   -2.5517 H   0  0  0  0  0  0  0  0  0  0  0  0
   -4.8212   -1.5505   -1.8819 H   0  0  0  0  0  0  0  0  0  0  0  0
   -4.6020   -2.1741    0.5272 H   0  0  0  0  0  0  0  0  0  0  0  0
   -6.0417   -1.1932    0.2631 H   0  0  0  0  0  0  0  0  0  0  0  0
   -4.7949   -0.3942    2.2694 H   0  0  0  0  0  0  0  0  0  0  0  0
   -6.0325    1.2806    0.8978 H   0  0  0  0  0  0  0  0  0  0  0  0
   -4.5872    2.0020    1.6018 H   0  0  0  0  0  0  0  0  0  0  0  0
   -2.5120    0.5765    1.9975 H   0  0  0  0  0  0  0  0  0  0  0  0
   -2.5362   -1.1290    1.5838 H   0  0  0  0  0  0  0  0  0  0  0  0
   -2.5522   -1.8325   -0.9418 H   0  0  0  0  0  0  0  0  0  0  0  0
   -2.5384   -0.5866   -2.1778 H   0  0  0  0  0  0  0  0  0  0  0  0
    3.7006    1.5027   -0.5512 H   0  0  0  0  0  0  0  0  0  0  0  0
    4.9384   -2.0229    0.5369 H   0  0  0  0  0  0  0  0  0  0  0  0
    5.1293   -0.3799   -1.9626 H   0  0  0  0  0  0  0  0  0  0  0  0
    5.7649   -1.9905   -1.6320 H   0  0  0  0  0  0  0  0  0  0  0  0
    7.4545    0.1121   -1.8221 H   0  0  0  0  0  0  0  0  0  0  0  0
    7.7215   -1.1241   -0.5778 H   0  0  0  0  0  0  0  0  0  0  0  0
    6.2441    1.5339   -0.2441 H   0  0  0  0  0  0  0  0  0  0  0  0
    7.6353    0.9578    0.6951 H   0  0  0  0  0  0  0  0  0  0  0  0
    5.1764    0.5679    1.6994 H   0  0  0  0  0  0  0  0  0  0  0  0
    6.3469   -0.7516    1.7558 H   0  0  0  0  0  0  0  0  0  0  0  0
  1  2  2  0
  2  3  1  0
  4  3  1  1
  4  5  1  0
  5  6  1  0
  6  7  1  0
  7  8  1  0
  8  9  1  0
  9 10  1  0
 10 11  1  0
 10 12  1  0
  8 13  1  0
  2 14  1  0
 14 15  2  0
 15 16  1  0
 16 17  1  0
 17 18  1  0
 18 19  1  0
 19 20  1  0
 20 21  1  0
 21 22  1  0
 17 23  2  0
 12  4  1  0
 23 14  1  0
 13  4  1  0
 22 18  1  0
 11  6  1  0
  3 24  1  0
  5 25  1  0
  5 26  1  0
  6 27  1  6
  7 28  1  0
  7 29  1  0
  8 30  1  6
  9 31  1  0
  9 32  1  0
 10 33  1  1
 11 34  1  0
 11 35  1  0
 12 36  1  0
 12 37  1  0
 13 38  1  0
 13 39  1  0
 16 40  1  0
 18 41  1  0
 19 42  1  0
 19 43  1  0
 20 44  1  0
 20 45  1  0
 21 46  1  0
 21 47  1  0
 22 48  1  0
 22 49  1  0
M  END
>  <_SMILES>  (36) 
O=C(N[C@]12C[C@H]3C[C@H](C[C@H](C3)C1)C2)c1n[nH]c(C2CCCC2)n1

$$$$

     RDKit          3D

 39 42  0  0  0  0  0  0  0  0999 V2000
    6.6796   -0.2833   -0.5031 C   0  0  0  0  0  0  0  0  0  0  0  0
    5.2813   -0.0227   -0.1063 C   0  0  0  0  0  0  0  0  0  0  0  0
    4.8521    0.6756    0.9239 N   0  0  0  0  0  0  0  0  0  0  0  0
    3.4754    0.6564    0.9095 N   0  0  0  0  0  0  0  0  0  0  0  0
    3.0940   -0.0560   -0.1331 C   0  0  0  0  0  0  0  0  0  0  0  0
    1.7286   -0.3242   -0.5132 C   0  0  0  0  0  0  0  0  0  0  0  0
    1.4435   -0.9971   -1.4987 O   0  0  0  0  0  0  0  0  0  0  0  0
    0.8018    0.2444    0.3314 N   0  0  0  0  0  0  0  0  0  0  0  0
   -0.6515    0.1481    0.2046 C   0  0  2  0  0  0  0  0  0  0  0  0
   -1.1365   -1.3201    0.2949 C   0  0  0  0  0  0  0  0  0  0  0  0
   -2.6715   -1.3895    0.2073 C   0  0  1  0  0  0  0  0  0  0  0  0
   -3.2833   -0.5929    1.3705 C   0  0  0  0  0  0  0  0  0  0  0  0
   -2.8351    0.8750    1.2942 C   0  0  2  0  0  0  0  0  0  0  0  0
   -3.2975    1.4798   -0.0406 C   0  0  0  0  0  0  0  0  0  0  0  0
   -2.6858    0.6954   -1.2120 C   0  0  2  0  0  0  0  0  0  0  0  0
   -3.1308   -0.7746   -1.1257 C   0  0  0  0  0  0  0  0  0  0  0  0
   -1.1509    0.7658   -1.1252 C   0  0  0  0  0  0  0  0  0  0  0  0
   -1.3014    0.9384    1.3719 C   0  0  0  0  0  0  0  0  0  0  0  0
    4.2028   -0.5007   -0.7975 N   0  0  0  0  0  0  0  0  0  0  0  0
    6.8765    0.1110   -1.5047 H   0  0  0  0  0  0  0  0  0  0  0  0
    7.3741    0.1959    0.1938 H   0  0  0  0  0  0  0  0  0  0  0  0
    6.8866   -1.3579   -0.5048 H   0  0  0  0  0  0  0  0  0  0  0  0
    1.1932    0.7747    1.1063 H   0  0  0  0  0  0  0  0  0  0  0  0
   -0.7951   -1.7732    1.2348 H   0  0  0  0  0  0  0  0  0  0  0  0
   -0.7052   -1.9251   -0.5114 H   0  0  0  0  0  0  0  0  0  0  0  0
   -2.9971   -2.4342    0.2640 H   0  0  0  0  0  0  0  0  0  0  0  0
   -2.9745   -1.0303    2.3279 H   0  0  0  0  0  0  0  0  0  0  0  0
   -4.3779   -0.6532    1.3313 H   0  0  0  0  0  0  0  0  0  0  0  0
   -3.2716    1.4385    2.1264 H   0  0  0  0  0  0  0  0  0  0  0  0
   -2.9989    2.5337   -0.0985 H   0  0  0  0  0  0  0  0  0  0  0  0
   -4.3924    1.4551   -0.1040 H   0  0  0  0  0  0  0  0  0  0  0  0
   -3.0215    1.1280   -2.1611 H   0  0  0  0  0  0  0  0  0  0  0  0
   -4.2225   -0.8401   -1.2109 H   0  0  0  0  0  0  0  0  0  0  0  0
   -2.7114   -1.3430   -1.9649 H   0  0  0  0  0  0  0  0  0  0  0  0
   -0.8197    1.8096   -1.2043 H   0  0  0  0  0  0  0  0  0  0  0  0
   -0.7201    0.2415   -1.9864 H   0  0  0  0  0  0  0  0  0  0  0  0
   -0.9729    1.9861    1.3473 H   0  0  0  0  0  0  0  0  0  0  0  0
   -0.9629    0.5345    2.3356 H   0  0  0  0  0  0  0  0  0  0  0  0
    4.1986   -1.0692   -1.6325 H   0  0  0  0  0  0  0  0  0  0  0  0
  1  2  1  0
  2  3  2  0
  3  4  1  0
  4  5  2  0
  5  6  1  0
  6  7  2  0
  6  8  1  0
  9  8  1  1
  9 10  1  0
 10 11  1  0
 11 12  1  0
 12 13  1  0
 13 14  1  0
 14 15  1  0
 15 16  1  0
 15 17  1  0
 13 18  1  0
  5 19  1  0
 19  2  1  0
 17  9  1  0
 18  9  1  0
 16 11  1  0
  1 20  1  0
  1 21  1  0
  1 22  1  0
  8 23  1  0
 10 24  1  0
 10 25  1  0
 11 26  1  6
 12 27  1  0
 12 28  1  0
 13 29  1  1
 14 30  1  0
 14 31  1  0
 15 32  1  6
 16 33  1  0
 16 34  1  0
 17 35  1  0
 17 36  1  0
 18 37  1  0
 18 38  1  0
 19 39  1  0
M  END
>  <_SMILES>  (37) 
Cc1nnc(C(=O)N[C@]23C[C@H]4C[C@H](C[C@H](C4)C2)C3)[nH]1

$$$$

     RDKit          3D

 39 42  0  0  0  0  0  0  0  0999 V2000
    5.9484   -0.3163   -1.0520 C   0  0  0  0  0  0  0  0  0  0  0  0
    4.8815    0.1551   -0.1455 C   0  0  0  0  0  0  0  0  0  0  0  0
    3.5808    0.0215   -0.2842 N   0  0  0  0  0  0  0  0  0  0  0  0
    3.0627    0.6441    0.8477 C   0  0  0  0  0  0  0  0  0  0  0  0
    1.6058    0.7262    1.0993 C   0  0  0  0  0  0  0  0  0  0  0  0
    1.1089    1.2656    2.0834 O   0  0  0  0  0  0  0  0  0  0  0  0
    0.8679    0.1235    0.0951 N   0  0  0  0  0  0  0  0  0  0  0  0
   -0.5884    0.0308    0.0398 C   0  0  2  0  0  0  0  0  0  0  0  0
   -0.9835   -0.7244   -1.2577 C   0  0  0  0  0  0  0  0  0  0  0  0
   -2.5102   -0.8561   -1.3764 C   0  0  1  0  0  0  0  0  0  0  0  0
   -3.0451   -1.6308   -0.1619 C   0  0  0  0  0  0  0  0  0  0  0  0
   -2.6875   -0.8864    1.1342 C   0  0  2  0  0  0  0  0  0  0  0  0
   -3.3096    0.5200    1.0997 C   0  0  0  0  0  0  0  0  0  0  0  0
   -2.7795    1.3040   -0.1128 C   0  0  2  0  0  0  0  0  0  0  0  0
   -3.1365    0.5469   -1.4016 C   0  0  0  0  0  0  0  0  0  0  0  0
   -1.2495    1.4308   -0.0044 C   0  0  0  0  0  0  0  0  0  0  0  0
   -1.1575   -0.7608    1.2433 C   0  0  0  0  0  0  0  0  0  0  0  0
    4.0091    1.1466    1.6606 N   0  0  0  0  0  0  0  0  0  0  0  0
    5.1372    0.8263    1.0147 N   0  0  0  0  0  0  0  0  0  0  0  0
    6.5464    0.5252   -1.4152 H   0  0  0  0  0  0  0  0  0  0  0  0
    6.6111   -1.0182   -0.5367 H   0  0  0  0  0  0  0  0  0  0  0  0
    5.5189   -0.8277   -1.9190 H   0  0  0  0  0  0  0  0  0  0  0  0
    1.4249   -0.2798   -0.6543 H   0  0  0  0  0  0  0  0  0  0  0  0
   -0.5884   -0.1970   -2.1364 H   0  0  0  0  0  0  0  0  0  0  0  0
   -0.5244   -1.7221   -1.2682 H   0  0  0  0  0  0  0  0  0  0  0  0
   -2.7651   -1.3914   -2.2978 H   0  0  0  0  0  0  0  0  0  0  0  0
   -4.1332   -1.7458   -0.2401 H   0  0  0  0  0  0  0  0  0  0  0  0
   -2.6186   -2.6412   -0.1438 H   0  0  0  0  0  0  0  0  0  0  0  0
   -3.0743   -1.4405    1.9967 H   0  0  0  0  0  0  0  0  0  0  0  0
   -4.4027    0.4438    1.0465 H   0  0  0  0  0  0  0  0  0  0  0  0
   -3.0729    1.0574    2.0262 H   0  0  0  0  0  0  0  0  0  0  0  0
   -3.2315    2.3020   -0.1340 H   0  0  0  0  0  0  0  0  0  0  0  0
   -2.7759    1.1032   -2.2755 H   0  0  0  0  0  0  0  0  0  0  0  0
   -4.2262    0.4692   -1.5011 H   0  0  0  0  0  0  0  0  0  0  0  0
   -0.8610    2.0050   -0.8558 H   0  0  0  0  0  0  0  0  0  0  0  0
   -1.0022    2.0093    0.8936 H   0  0  0  0  0  0  0  0  0  0  0  0
   -0.9066   -0.2681    2.1901 H   0  0  0  0  0  0  0  0  0  0  0  0
   -0.7030   -1.7593    1.2872 H   0  0  0  0  0  0  0  0  0  0  0  0
    6.0294    1.0924    1.4163 H   0  0  0  0  0  0  0  0  0  0  0  0
  1  2  1  0
  2  3  2  0
  3  4  1  0
  4  5  1  0
  5  6  2  0
  5  7  1  0
  8  7  1  1
  8  9  1  0
  9 10  1  0
 10 11  1  0
 11 12  1  0
 12 13  1  0
 13 14  1  0
 14 15  1  0
 14 16  1  0
 12 17  1  0
  4 18  2  0
 18 19  1  0
 19  2  1  0
 16  8  1  0
 17  8  1  0
 15 10  1  0
  1 20  1  0
  1 21  1  0
  1 22  1  0
  7 23  1  0
  9 24  1  0
  9 25  1  0
 10 26  1  6
 11 27  1  0
 11 28  1  0
 12 29  1  1
 13 30  1  0
 13 31  1  0
 14 32  1  6
 15 33  1  0
 15 34  1  0
 16 35  1  0
 16 36  1  0
 17 37  1  0
 17 38  1  0
 19 39  1  0
M  END
>  <_SMILES>  (38) 
Cc1nc(C(=O)N[C@]23C[C@H]4C[C@H](C[C@H](C4)C2)C3)n[nH]1

$$$$

     RDKit          3D

 39 42  0  0  0  0  0  0  0  0999 V2000
    6.0273    0.5974    1.1920 C   0  0  0  0  0  0  0  0  0  0  0  0
    4.9359   -0.3640    0.9376 C   0  0  0  0  0  0  0  0  0  0  0  0
    5.1441   -1.6842    0.8584 N   0  0  0  0  0  0  0  0  0  0  0  0
    3.9010   -2.1383    0.6231 N   0  0  0  0  0  0  0  0  0  0  0  0
    3.0022   -1.1168    0.5677 C   0  0  0  0  0  0  0  0  0  0  0  0
    1.5898   -1.2827    0.3301 C   0  0  0  0  0  0  0  0  0  0  0  0
    1.0749   -2.3817    0.1552 O   0  0  0  0  0  0  0  0  0  0  0  0
    0.9010   -0.0907    0.3224 N   0  0  0  0  0  0  0  0  0  0  0  0
   -0.5356    0.0729    0.1090 C   0  0  2  0  0  0  0  0  0  0  0  0
   -0.9681   -0.4447   -1.2852 C   0  0  0  0  0  0  0  0  0  0  0  0
   -2.4744   -0.2171   -1.5037 C   0  0  1  0  0  0  0  0  0  0  0  0
   -3.2622   -0.9585   -0.4101 C   0  0  0  0  0  0  0  0  0  0  0  0
   -2.8672   -0.4281    0.9787 C   0  0  2  0  0  0  0  0  0  0  0  0
   -3.1695    1.0769    1.0514 C   0  0  0  0  0  0  0  0  0  0  0  0
   -2.3784    1.8240   -0.0338 C   0  0  2  0  0  0  0  0  0  0  0  0
   -2.7790    1.2867   -1.4167 C   0  0  0  0  0  0  0  0  0  0  0  0
   -0.8757    1.5855    0.1837 C   0  0  0  0  0  0  0  0  0  0  0  0
   -1.3611   -0.6558    1.1982 C   0  0  0  0  0  0  0  0  0  0  0  0
    3.6320    0.0285    0.7647 N   0  0  0  0  0  0  0  0  0  0  0  0
    6.7843    0.5370    0.4041 H   0  0  0  0  0  0  0  0  0  0  0  0
    5.6455    1.6227    1.2188 H   0  0  0  0  0  0  0  0  0  0  0  0
    6.5075    0.3884    2.1529 H   0  0  0  0  0  0  0  0  0  0  0  0
    3.7284   -3.1317    0.5114 H   0  0  0  0  0  0  0  0  0  0  0  0
    1.4752    0.7335    0.4833 H   0  0  0  0  0  0  0  0  0  0  0  0
   -0.7494   -1.5139   -1.3908 H   0  0  0  0  0  0  0  0  0  0  0  0
   -0.3955    0.0647   -2.0714 H   0  0  0  0  0  0  0  0  0  0  0  0
   -2.7653   -0.5960   -2.4899 H   0  0  0  0  0  0  0  0  0  0  0  0
   -4.3392   -0.8238   -0.5691 H   0  0  0  0  0  0  0  0  0  0  0  0
   -3.0639   -2.0357   -0.4703 H   0  0  0  0  0  0  0  0  0  0  0  0
   -3.4364   -0.9565    1.7516 H   0  0  0  0  0  0  0  0  0  0  0  0
   -2.9051    1.4650    2.0427 H   0  0  0  0  0  0  0  0  0  0  0  0
   -4.2444    1.2503    0.9179 H   0  0  0  0  0  0  0  0  0  0  0  0
   -2.5951    2.8965    0.0231 H   0  0  0  0  0  0  0  0  0  0  0  0
   -2.2336    1.8257   -2.2011 H   0  0  0  0  0  0  0  0  0  0  0  0
   -3.8472    1.4636   -1.5926 H   0  0  0  0  0  0  0  0  0  0  0  0
   -0.5739    1.9925    1.1582 H   0  0  0  0  0  0  0  0  0  0  0  0
   -0.3004    2.1394   -0.5703 H   0  0  0  0  0  0  0  0  0  0  0  0
   -1.0705   -0.2978    2.1946 H   0  0  0  0  0  0  0  0  0  0  0  0
   -1.1575   -1.7331    1.1882 H   0  0  0  0  0  0  0  0  0  0  0  0
  1  2  1  0
  2  3  2  0
  3  4  1  0
  4  5  1  0
  5  6  1  0
  6  7  2  0
  6  8  1  0
  9  8  1  1
  9 10  1  0
 10 11  1  0
 11 12  1  0
 12 13  1  0
 13 14  1  0
 14 15  1  0
 15 16  1  0
 15 17  1  0
 13 18  1  0
  5 19  2  0
 19  2  1  0
 17  9  1  0
 18  9  1  0
 16 11  1  0
  1 20  1  0
  1 21  1  0
  1 22  1  0
  4 23  1  0
  8 24  1  0
 10 25  1  0
 10 26  1  0
 11 27  1  6
 12 28  1  0
 12 29  1  0
 13 30  1  1
 14 31  1  0
 14 32  1  0
 15 33  1  6
 16 34  1  0
 16 35  1  0
 17 36  1  0
 17 37  1  0
 18 38  1  0
 18 39  1  0
M  END
>  <_SMILES>  (39) 
Cc1n[nH]c(C(=O)N[C@]23C[C@H]4C[C@H](C[C@H](C4)C2)C3)n1

$$$$

     RDKit          3D

 45 48  0  0  0  0  0  0  0  0999 V2000
    6.0553   -0.3915    0.9440 C   0  0  0  0  0  0  0  0  0  0  0  0
    5.2719    0.4777   -0.0388 C   0  0  0  0  0  0  0  0  0  0  0  0
    6.1697    0.9411   -1.1852 C   0  0  0  0  0  0  0  0  0  0  0  0
    4.0871   -0.2630   -0.5660 C   0  0  0  0  0  0  0  0  0  0  0  0
    4.0787   -1.3789   -1.2620 N   0  0  0  0  0  0  0  0  0  0  0  0
    2.7707   -1.6846   -1.5633 N   0  0  0  0  0  0  0  0  0  0  0  0
    1.9959   -0.7680   -1.0184 C   0  0  0  0  0  0  0  0  0  0  0  0
    0.5505   -0.7417   -1.1120 C   0  0  0  0  0  0  0  0  0  0  0  0
   -0.0798   -1.2030   -2.0571 O   0  0  0  0  0  0  0  0  0  0  0  0
   -0.0710   -0.1453   -0.0196 N   0  0  0  0  0  0  0  0  0  0  0  0
   -1.5293   -0.0705    0.1535 C   0  0  2  0  0  0  0  0  0  0  0  0
   -1.8165    0.6985    1.4732 C   0  0  0  0  0  0  0  0  0  0  0  0
   -3.3272    0.8120    1.7308 C   0  0  1  0  0  0  0  0  0  0  0  0
   -3.9814    1.5673    0.5642 C   0  0  0  0  0  0  0  0  0  0  0  0
   -3.7323    0.8143   -0.7515 C   0  0  2  0  0  0  0  0  0  0  0  0
   -4.3293   -0.5997   -0.6487 C   0  0  0  0  0  0  0  0  0  0  0  0
   -3.6816   -1.3652    0.5178 C   0  0  2  0  0  0  0  0  0  0  0  0
   -3.9296   -0.5985    1.8265 C   0  0  0  0  0  0  0  0  0  0  0  0
   -2.1663   -1.4768    0.2725 C   0  0  0  0  0  0  0  0  0  0  0  0
   -2.2168    0.7070   -0.9984 C   0  0  0  0  0  0  0  0  0  0  0  0
    2.7952    0.1525   -0.3911 N   0  0  0  0  0  0  0  0  0  0  0  0
    5.4193   -0.7106    1.7774 H   0  0  0  0  0  0  0  0  0  0  0  0
    6.4464   -1.2943    0.4610 H   0  0  0  0  0  0  0  0  0  0  0  0
    6.9032    0.1620    1.3614 H   0  0  0  0  0  0  0  0  0  0  0  0
    4.9265    1.3691    0.5007 H   0  0  0  0  0  0  0  0  0  0  0  0
    6.5653    0.0930   -1.7559 H   0  0  0  0  0  0  0  0  0  0  0  0
    7.0197    1.5171   -0.8042 H   0  0  0  0  0  0  0  0  0  0  0  0
    5.6162    1.5802   -1.8824 H   0  0  0  0  0  0  0  0  0  0  0  0
    0.4658   -0.1505    0.8366 H   0  0  0  0  0  0  0  0  0  0  0  0
   -1.3376    0.1879    2.3196 H   0  0  0  0  0  0  0  0  0  0  0  0
   -1.3706    1.7013    1.4298 H   0  0  0  0  0  0  0  0  0  0  0  0
   -3.5036    1.3535    2.6669 H   0  0  0  0  0  0  0  0  0  0  0  0
   -5.0594    1.6687    0.7402 H   0  0  0  0  0  0  0  0  0  0  0  0
   -3.5727    2.5831    0.4982 H   0  0  0  0  0  0  0  0  0  0  0  0
   -4.2032    1.3547   -1.5803 H   0  0  0  0  0  0  0  0  0  0  0  0
   -4.1699   -1.1432   -1.5881 H   0  0  0  0  0  0  0  0  0  0  0  0
   -5.4140   -0.5370   -0.4977 H   0  0  0  0  0  0  0  0  0  0  0  0
   -4.1179   -2.3678    0.5894 H   0  0  0  0  0  0  0  0  0  0  0  0
   -5.0066   -0.5335    2.0244 H   0  0  0  0  0  0  0  0  0  0  0  0
   -3.4833   -1.1408    2.6691 H   0  0  0  0  0  0  0  0  0  0  0  0
   -1.9936   -2.0636   -0.6374 H   0  0  0  0  0  0  0  0  0  0  0  0
   -1.6957   -2.0360    1.0918 H   0  0  0  0  0  0  0  0  0  0  0  0
   -1.7803    1.7103   -1.0890 H   0  0  0  0  0  0  0  0  0  0  0  0
   -2.0536    0.2142   -1.9631 H   0  0  0  0  0  0  0  0  0  0  0  0
    2.4857    0.9986    0.0622 H   0  0  0  0  0  0  0  0  0  0  0  0
  1  2  1  0
  2  3  1  0
  2  4  1  0
  4  5  2  0
  5  6  1  0
  6  7  2  0
  7  8  1  0
  8  9  2  0
  8 10  1  0
 11 10  1  6
 11 12  1  0
 12 13  1  0
 13 14  1  0
 14 15  1  0
 15 16  1  0
 16 17  1  0
 17 18  1  0
 17 19  1  0
 15 20  1  0
  7 21  1  0
 21  4  1  0
 19 11  1  0
 20 11  1  0
 18 13  1  0
  1 22  1  0
  1 23  1  0
  1 24  1  0
  2 25  1  0
  3 26  1  0
  3 27  1  0
  3 28  1  0
 10 29  1  0
 12 30  1  0
 12 31  1  0
 13 32  1  1
 14 33  1  0
 14 34  1  0
 15 35  1  6
 16 36  1  0
 16 37  1  0
 17 38  1  1
 18 39  1  0
 18 40  1  0
 19 41  1  0
 19 42  1  0
 20 43  1  0
 20 44  1  0
 21 45  1  0
M  END
>  <_SMILES>  (40) 
CC(C)c1nnc(C(=O)N[C@]23C[C@H]4C[C@H](C[C@H](C4)C2)C3)[nH]1

$$$$

     RDKit          3D

 45 48  0  0  0  0  0  0  0  0999 V2000
   -6.0786    0.4462   -1.6857 C   0  0  0  0  0  0  0  0  0  0  0  0
   -5.7192    0.3401   -0.2043 C   0  0  0  0  0  0  0  0  0  0  0  0
   -6.2391   -0.9704    0.3851 C   0  0  0  0  0  0  0  0  0  0  0  0
   -4.2418    0.4516   -0.0135 C   0  0  0  0  0  0  0  0  0  0  0  0
   -3.3031   -0.3399   -0.4821 N   0  0  0  0  0  0  0  0  0  0  0  0
   -2.1280    0.2131   -0.0128 C   0  0  0  0  0  0  0  0  0  0  0  0
   -0.7815   -0.3413   -0.2876 C   0  0  0  0  0  0  0  0  0  0  0  0
   -0.5882   -1.3484   -0.9616 O   0  0  0  0  0  0  0  0  0  0  0  0
    0.2309    0.3997    0.2977 N   0  0  0  0  0  0  0  0  0  0  0  0
    1.6606    0.1165    0.2148 C   0  0  2  0  0  0  0  0  0  0  0  0
    2.0073   -1.2617    0.8307 C   0  0  0  0  0  0  0  0  0  0  0  0
    3.5246   -1.5132    0.7755 C   0  0  1  0  0  0  0  0  0  0  0  0
    3.9920   -1.4694   -0.6893 C   0  0  0  0  0  0  0  0  0  0  0  0
    3.6857   -0.0921   -1.3019 C   0  0  2  0  0  0  0  0  0  0  0  0
    4.4107    0.9951   -0.4931 C   0  0  0  0  0  0  0  0  0  0  0  0
    3.9411    0.9616    0.9697 C   0  0  2  0  0  0  0  0  0  0  0  0
    4.2506   -0.4178    1.5722 C   0  0  0  0  0  0  0  0  0  0  0  0
    2.4241    1.2037    1.0177 C   0  0  0  0  0  0  0  0  0  0  0  0
    2.1684    0.1601   -1.2478 C   0  0  0  0  0  0  0  0  0  0  0  0
   -2.3174    1.3256    0.7336 N   0  0  0  0  0  0  0  0  0  0  0  0
   -3.6546    1.4462    0.7124 N   0  0  0  0  0  0  0  0  0  0  0  0
   -7.1639    0.4020   -1.8262 H   0  0  0  0  0  0  0  0  0  0  0  0
   -5.7235    1.3931   -2.1080 H   0  0  0  0  0  0  0  0  0  0  0  0
   -5.6293   -0.3658   -2.2689 H   0  0  0  0  0  0  0  0  0  0  0  0
   -6.2132    1.1666    0.3228 H   0  0  0  0  0  0  0  0  0  0  0  0
   -5.7964   -1.8405   -0.1132 H   0  0  0  0  0  0  0  0  0  0  0  0
   -7.3272   -1.0388    0.2801 H   0  0  0  0  0  0  0  0  0  0  0  0
   -5.9994   -1.0423    1.4521 H   0  0  0  0  0  0  0  0  0  0  0  0
   -0.0948    1.2065    0.8244 H   0  0  0  0  0  0  0  0  0  0  0  0
    1.4921   -2.0696    0.2979 H   0  0  0  0  0  0  0  0  0  0  0  0
    1.6585   -1.3089    1.8707 H   0  0  0  0  0  0  0  0  0  0  0  0
    3.7515   -2.4947    1.2066 H   0  0  0  0  0  0  0  0  0  0  0  0
    5.0688   -1.6715   -0.7441 H   0  0  0  0  0  0  0  0  0  0  0  0
    3.4908   -2.2562   -1.2664 H   0  0  0  0  0  0  0  0  0  0  0  0
    4.0267   -0.0666   -2.3430 H   0  0  0  0  0  0  0  0  0  0  0  0
    4.2115    1.9820   -0.9286 H   0  0  0  0  0  0  0  0  0  0  0  0
    5.4952    0.8384   -0.5424 H   0  0  0  0  0  0  0  0  0  0  0  0
    4.4585    1.7396    1.5420 H   0  0  0  0  0  0  0  0  0  0  0  0
    5.3324   -0.5987    1.5584 H   0  0  0  0  0  0  0  0  0  0  0  0
    3.9362   -0.4474    2.6227 H   0  0  0  0  0  0  0  0  0  0  0  0
    2.1957    2.1999    0.6155 H   0  0  0  0  0  0  0  0  0  0  0  0
    2.0836    1.2104    2.0619 H   0  0  0  0  0  0  0  0  0  0  0  0
    1.6595   -0.5923   -1.8617 H   0  0  0  0  0  0  0  0  0  0  0  0
    1.9352    1.1333   -1.6994 H   0  0  0  0  0  0  0  0  0  0  0  0
   -4.0930    2.2162    1.2052 H   0  0  0  0  0  0  0  0  0  0  0  0
  1  2  1  0
  2  3  1  0
  2  4  1  0
  4  5  2  0
  5  6  1  0
  6  7  1  0
  7  8  2  0
  7  9  1  0
 10  9  1  6
 10 11  1  0
 11 12  1  0
 12 13  1  0
 13 14  1  0
 14 15  1  0
 15 16  1  0
 16 17  1  0
 16 18  1  0
 14 19  1  0
  6 20  2  0
 20 21  1  0
 21  4  1  0
 18 10  1  0
 19 10  1  0
 17 12  1  0
  1 22  1  0
  1 23  1  0
  1 24  1  0
  2 25  1  0
  3 26  1  0
  3 27  1  0
  3 28  1  0
  9 29  1  0
 11 30  1  0
 11 31  1  0
 12 32  1  1
 13 33  1  0
 13 34  1  0
 14 35  1  6
 15 36  1  0
 15 37  1  0
 16 38  1  1
 17 39  1  0
 17 40  1  0
 18 41  1  0
 18 42  1  0
 19 43  1  0
 19 44  1  0
 21 45  1  0
M  END
>  <_SMILES>  (41) 
CC(C)c1nc(C(=O)N[C@]23C[C@H]4C[C@H](C[C@H](C4)C2)C3)n[nH]1

$$$$

     RDKit          3D

 45 48  0  0  0  0  0  0  0  0999 V2000
    6.2982    0.4249    0.6816 C   0  0  0  0  0  0  0  0  0  0  0  0
    5.6811    0.1530   -0.6909 C   0  0  0  0  0  0  0  0  0  0  0  0
    5.7640    1.4000   -1.5721 C   0  0  0  0  0  0  0  0  0  0  0  0
    4.2728   -0.3303   -0.5662 C   0  0  0  0  0  0  0  0  0  0  0  0
    3.8782   -1.5346   -0.9992 N   0  0  0  0  0  0  0  0  0  0  0  0
    2.5812   -1.5277   -0.6566 N   0  0  0  0  0  0  0  0  0  0  0  0
    2.2100   -0.3431   -0.0896 C   0  0  0  0  0  0  0  0  0  0  0  0
    0.8810   -0.0045    0.3760 C   0  0  0  0  0  0  0  0  0  0  0  0
    0.6656    0.7223    1.3400 O   0  0  0  0  0  0  0  0  0  0  0  0
   -0.1421   -0.5698   -0.3774 N   0  0  0  0  0  0  0  0  0  0  0  0
   -1.5708   -0.3088   -0.1463 C   0  0  2  0  0  0  0  0  0  0  0  0
   -2.0212   -0.7334    1.2753 C   0  0  0  0  0  0  0  0  0  0  0  0
   -3.5315   -0.4993    1.4584 C   0  0  1  0  0  0  0  0  0  0  0  0
   -3.8427    0.9909    1.2371 C   0  0  0  0  0  0  0  0  0  0  0  0
   -3.4362    1.4118   -0.1856 C   0  0  2  0  0  0  0  0  0  0  0  0
   -4.2090    0.5610   -1.2058 C   0  0  0  0  0  0  0  0  0  0  0  0
   -3.8943   -0.9281   -0.9933 C   0  0  2  0  0  0  0  0  0  0  0  0
   -4.3047   -1.3376    0.4292 C   0  0  0  0  0  0  0  0  0  0  0  0
   -2.3840   -1.1537   -1.1662 C   0  0  0  0  0  0  0  0  0  0  0  0
   -1.9257    1.1817   -0.3709 C   0  0  0  0  0  0  0  0  0  0  0  0
    3.2784    0.4266   -0.0016 N   0  0  0  0  0  0  0  0  0  0  0  0
    6.2650   -0.4724    1.3098 H   0  0  0  0  0  0  0  0  0  0  0  0
    5.7641    1.2210    1.2126 H   0  0  0  0  0  0  0  0  0  0  0  0
    7.3460    0.7282    0.5838 H   0  0  0  0  0  0  0  0  0  0  0  0
    6.2782   -0.6329   -1.1724 H   0  0  0  0  0  0  0  0  0  0  0  0
    5.3464    1.2047   -2.5662 H   0  0  0  0  0  0  0  0  0  0  0  0
    6.8045    1.7169   -1.7008 H   0  0  0  0  0  0  0  0  0  0  0  0
    5.2069    2.2378   -1.1374 H   0  0  0  0  0  0  0  0  0  0  0  0
    2.0182   -2.3541   -0.8180 H   0  0  0  0  0  0  0  0  0  0  0  0
    0.1022   -0.8132   -1.3282 H   0  0  0  0  0  0  0  0  0  0  0  0
   -1.4839   -0.1709    2.0468 H   0  0  0  0  0  0  0  0  0  0  0  0
   -1.7830   -1.7915    1.4457 H   0  0  0  0  0  0  0  0  0  0  0  0
   -3.8296   -0.7924    2.4713 H   0  0  0  0  0  0  0  0  0  0  0  0
   -3.3066    1.5996    1.9756 H   0  0  0  0  0  0  0  0  0  0  0  0
   -4.9132    1.1754    1.3895 H   0  0  0  0  0  0  0  0  0  0  0  0
   -3.6686    2.4717   -0.3379 H   0  0  0  0  0  0  0  0  0  0  0  0
   -3.9376    0.8601   -2.2256 H   0  0  0  0  0  0  0  0  0  0  0  0
   -5.2868    0.7351   -1.0992 H   0  0  0  0  0  0  0  0  0  0  0  0
   -4.4447   -1.5303   -1.7246 H   0  0  0  0  0  0  0  0  0  0  0  0
   -4.1023   -2.4042    0.5860 H   0  0  0  0  0  0  0  0  0  0  0  0
   -5.3840   -1.1952    0.5639 H   0  0  0  0  0  0  0  0  0  0  0  0
   -2.1511   -2.2199   -1.0430 H   0  0  0  0  0  0  0  0  0  0  0  0
   -2.0895   -0.8934   -2.1919 H   0  0  0  0  0  0  0  0  0  0  0  0
   -1.6213    1.4942   -1.3784 H   0  0  0  0  0  0  0  0  0  0  0  0
   -1.3776    1.8247    0.3277 H   0  0  0  0  0  0  0  0  0  0  0  0
  1  2  1  0
  2  3  1  0
  2  4  1  0
  4  5  2  0
  5  6  1  0
  6  7  1  0
  7  8  1  0
  8  9  2  0
  8 10  1  0
 11 10  1  1
 11 12  1  0
 12 13  1  0
 13 14  1  0
 14 15  1  0
 15 16  1  0
 16 17  1  0
 17 18  1  0
 17 19  1  0
 15 20  1  0
  7 21  2  0
 21  4  1  0
 19 11  1  0
 20 11  1  0
 18 13  1  0
  1 22  1  0
  1 23  1  0
  1 24  1  0
  2 25  1  0
  3 26  1  0
  3 27  1  0
  3 28  1  0
  6 29  1  0
 10 30  1  0
 12 31  1  0
 12 32  1  0
 13 33  1  1
 14 34  1  0
 14 35  1  0
 15 36  1  6
 16 37  1  0
 16 38  1  0
 17 39  1  6
 18 40  1  0
 18 41  1  0
 19 42  1  0
 19 43  1  0
 20 44  1  0
 20 45  1  0
M  END
>  <_SMILES>  (42) 
CC(C)c1n[nH]c(C(=O)N[C@]23C[C@H]4C[C@H](C[C@H](C4)C2)C3)n1

$$$$

     RDKit          3D

 48 51  0  0  0  0  0  0  0  0999 V2000
    6.4080    1.3908    1.3097 C   0  0  0  0  0  0  0  0  0  0  0  0
    5.3942    0.3323    0.8689 C   0  0  0  0  0  0  0  0  0  0  0  0
    6.0694   -1.0415    0.8259 C   0  0  0  0  0  0  0  0  0  0  0  0
    4.7905    0.7206   -0.4923 C   0  0  0  0  0  0  0  0  0  0  0  0
    3.6409   -0.1407   -0.8787 C   0  0  0  0  0  0  0  0  0  0  0  0
    3.6431   -1.1456   -1.7257 N   0  0  0  0  0  0  0  0  0  0  0  0
    2.3743   -1.6791   -1.7565 N   0  0  0  0  0  0  0  0  0  0  0  0
    1.6068   -0.9680   -0.9545 C   0  0  0  0  0  0  0  0  0  0  0  0
    0.2001   -1.2186   -0.7153 C   0  0  0  0  0  0  0  0  0  0  0  0
   -0.3164   -2.3282   -0.7879 O   0  0  0  0  0  0  0  0  0  0  0  0
   -0.5267   -0.0757   -0.3973 N   0  0  0  0  0  0  0  0  0  0  0  0
   -1.9822   -0.0616   -0.1893 C   0  0  2  0  0  0  0  0  0  0  0  0
   -2.3995    1.3890    0.1808 C   0  0  0  0  0  0  0  0  0  0  0  0
   -3.9163    1.4886    0.4070 C   0  0  1  0  0  0  0  0  0  0  0  0
   -4.6462    1.0648   -0.8772 C   0  0  0  0  0  0  0  0  0  0  0  0
   -4.2690   -0.3794   -1.2434 C   0  0  2  0  0  0  0  0  0  0  0  0
   -4.6624   -1.3147   -0.0873 C   0  0  0  0  0  0  0  0  0  0  0  0
   -3.9363   -0.8972    1.2031 C   0  0  2  0  0  0  0  0  0  0  0  0
   -4.3169    0.5491    1.5543 C   0  0  0  0  0  0  0  0  0  0  0  0
   -2.4159   -0.9842    0.9789 C   0  0  0  0  0  0  0  0  0  0  0  0
   -2.7495   -0.4663   -1.4720 C   0  0  0  0  0  0  0  0  0  0  0  0
    2.3772    0.0079   -0.3766 N   0  0  0  0  0  0  0  0  0  0  0  0
    5.9330    2.3742    1.3915 H   0  0  0  0  0  0  0  0  0  0  0  0
    7.2348    1.4715    0.5957 H   0  0  0  0  0  0  0  0  0  0  0  0
    6.8291    1.1425    2.2897 H   0  0  0  0  0  0  0  0  0  0  0  0
    4.5974    0.2964    1.6232 H   0  0  0  0  0  0  0  0  0  0  0  0
    5.3488   -1.8326    0.5959 H   0  0  0  0  0  0  0  0  0  0  0  0
    6.8609   -1.0716    0.0693 H   0  0  0  0  0  0  0  0  0  0  0  0
    6.5200   -1.2818    1.7949 H   0  0  0  0  0  0  0  0  0  0  0  0
    4.4492    1.7634   -0.4621 H   0  0  0  0  0  0  0  0  0  0  0  0
    5.5590    0.6686   -1.2737 H   0  0  0  0  0  0  0  0  0  0  0  0
   -0.1291    0.7929   -0.7270 H   0  0  0  0  0  0  0  0  0  0  0  0
   -2.1014    2.0827   -0.6169 H   0  0  0  0  0  0  0  0  0  0  0  0
   -1.8670    1.7155    1.0842 H   0  0  0  0  0  0  0  0  0  0  0  0
   -4.1857    2.5195    0.6622 H   0  0  0  0  0  0  0  0  0  0  0  0
   -4.3824    1.7412   -1.6995 H   0  0  0  0  0  0  0  0  0  0  0  0
   -5.7310    1.1443   -0.7353 H   0  0  0  0  0  0  0  0  0  0  0  0
   -4.7964   -0.6782   -2.1562 H   0  0  0  0  0  0  0  0  0  0  0  0
   -5.7479   -1.2811    0.0675 H   0  0  0  0  0  0  0  0  0  0  0  0
   -4.4093   -2.3514   -0.3412 H   0  0  0  0  0  0  0  0  0  0  0  0
   -4.2266   -1.5641    2.0226 H   0  0  0  0  0  0  0  0  0  0  0  0
   -3.8163    0.8541    2.4815 H   0  0  0  0  0  0  0  0  0  0  0  0
   -5.3962    0.6192    1.7373 H   0  0  0  0  0  0  0  0  0  0  0  0
   -1.8854   -0.7031    1.8981 H   0  0  0  0  0  0  0  0  0  0  0  0
   -2.1509   -2.0284    0.7800 H   0  0  0  0  0  0  0  0  0  0  0  0
   -2.4596    0.1858   -2.3064 H   0  0  0  0  0  0  0  0  0  0  0  0
   -2.4916   -1.4872   -1.7774 H   0  0  0  0  0  0  0  0  0  0  0  0
    2.0773    0.6654    0.3269 H   0  0  0  0  0  0  0  0  0  0  0  0
  1  2  1  0
  2  3  1  0
  2  4  1  0
  4  5  1  0
  5  6  2  0
  6  7  1  0
  7  8  2  0
  8  9  1  0
  9 10  2  0
  9 11  1  0
 12 11  1  6
 12 13  1  0
 13 14  1  0
 14 15  1  0
 15 16  1  0
 16 17  1  0
 17 18  1  0
 18 19  1  0
 18 20  1  0
 16 21  1  0
  8 22  1  0
 22  5  1  0
 20 12  1  0
 21 12  1  0
 19 14  1  0
  1 23  1  0
  1 24  1  0
  1 25  1  0
  2 26  1  0
  3 27  1  0
  3 28  1  0
  3 29  1  0
  4 30  1  0
  4 31  1  0
 11 32  1  0
 13 33  1  0
 13 34  1  0
 14 35  1  1
 15 36  1  0
 15 37  1  0
 16 38  1  6
 17 39  1  0
 17 40  1  0
 18 41  1  1
 19 42  1  0
 19 43  1  0
 20 44  1  0
 20 45  1  0
 21 46  1  0
 21 47  1  0
 22 48  1  0
M  END
>  <_SMILES>  (43) 
CC(C)Cc1nnc(C(=O)N[C@]23C[C@H]4C[C@H](C[C@H](C4)C2)C3)[nH]1

$$$$

     RDKit          3D

 48 51  0  0  0  0  0  0  0  0999 V2000
    5.9482   -0.5097   -0.8224 C   0  0  0  0  0  0  0  0  0  0  0  0
    5.3771   -0.3830    0.5912 C   0  0  0  0  0  0  0  0  0  0  0  0
    4.4289   -1.5451    0.8938 C   0  0  0  0  0  0  0  0  0  0  0  0
    4.7319    0.9910    0.8480 C   0  0  0  0  0  0  0  0  0  0  0  0
    3.5518    1.2856   -0.0095 C   0  0  0  0  0  0  0  0  0  0  0  0
    2.3031    0.9189    0.1812 N   0  0  0  0  0  0  0  0  0  0  0  0
    1.6283    1.4635   -0.9068 C   0  0  0  0  0  0  0  0  0  0  0  0
    0.1716    1.2791   -1.0960 C   0  0  0  0  0  0  0  0  0  0  0  0
   -0.4623    1.7433   -2.0388 O   0  0  0  0  0  0  0  0  0  0  0  0
   -0.3932    0.5201   -0.0856 N   0  0  0  0  0  0  0  0  0  0  0  0
   -1.8015    0.1499    0.0233 C   0  0  2  0  0  0  0  0  0  0  0  0
   -2.7134    1.3962    0.1420 C   0  0  0  0  0  0  0  0  0  0  0  0
   -4.1850    0.9768    0.3055 C   0  0  1  0  0  0  0  0  0  0  0  0
   -4.6108    0.1387   -0.9121 C   0  0  0  0  0  0  0  0  0  0  0  0
   -3.7354   -1.1215   -1.0199 C   0  0  2  0  0  0  0  0  0  0  0  0
   -3.8868   -1.9550    0.2624 C   0  0  0  0  0  0  0  0  0  0  0  0
   -3.4545   -1.1253    1.4815 C   0  0  2  0  0  0  0  0  0  0  0  0
   -4.3338    0.1311    1.5800 C   0  0  0  0  0  0  0  0  0  0  0  0
   -1.9874   -0.7014    1.3081 C   0  0  0  0  0  0  0  0  0  0  0  0
   -2.2635   -0.7032   -1.1841 C   0  0  0  0  0  0  0  0  0  0  0  0
    2.4277    2.1532   -1.7397 N   0  0  0  0  0  0  0  0  0  0  0  0
    3.6239    2.0301   -1.1516 N   0  0  0  0  0  0  0  0  0  0  0  0
    6.5157   -1.4412   -0.9242 H   0  0  0  0  0  0  0  0  0  0  0  0
    6.6280    0.3198   -1.0439 H   0  0  0  0  0  0  0  0  0  0  0  0
    5.1594   -0.5192   -1.5814 H   0  0  0  0  0  0  0  0  0  0  0  0
    6.2216   -0.4674    1.2886 H   0  0  0  0  0  0  0  0  0  0  0  0
    4.0137   -1.4570    1.9032 H   0  0  0  0  0  0  0  0  0  0  0  0
    3.5972   -1.5889    0.1833 H   0  0  0  0  0  0  0  0  0  0  0  0
    4.9628   -2.4999    0.8358 H   0  0  0  0  0  0  0  0  0  0  0  0
    5.4877    1.7755    0.7136 H   0  0  0  0  0  0  0  0  0  0  0  0
    4.4185    1.0493    1.8982 H   0  0  0  0  0  0  0  0  0  0  0  0
    0.2643    0.2053    0.6238 H   0  0  0  0  0  0  0  0  0  0  0  0
   -2.6209    2.0351   -0.7442 H   0  0  0  0  0  0  0  0  0  0  0  0
   -2.4030    2.0110    0.9971 H   0  0  0  0  0  0  0  0  0  0  0  0
   -4.8167    1.8691    0.3790 H   0  0  0  0  0  0  0  0  0  0  0  0
   -5.6660   -0.1462   -0.8191 H   0  0  0  0  0  0  0  0  0  0  0  0
   -4.5221    0.7361   -1.8279 H   0  0  0  0  0  0  0  0  0  0  0  0
   -4.0485   -1.7160   -1.8854 H   0  0  0  0  0  0  0  0  0  0  0  0
   -4.9287   -2.2777    0.3789 H   0  0  0  0  0  0  0  0  0  0  0  0
   -3.2777   -2.8646    0.1925 H   0  0  0  0  0  0  0  0  0  0  0  0
   -3.5617   -1.7240    2.3929 H   0  0  0  0  0  0  0  0  0  0  0  0
   -5.3834   -0.1559    1.7191 H   0  0  0  0  0  0  0  0  0  0  0  0
   -4.0463    0.7224    2.4580 H   0  0  0  0  0  0  0  0  0  0  0  0
   -1.3474   -1.5930    1.2659 H   0  0  0  0  0  0  0  0  0  0  0  0
   -1.6605   -0.1320    2.1886 H   0  0  0  0  0  0  0  0  0  0  0  0
   -2.1532   -0.1464   -2.1221 H   0  0  0  0  0  0  0  0  0  0  0  0
   -1.6303   -1.5950   -1.2805 H   0  0  0  0  0  0  0  0  0  0  0  0
    4.4325    2.4674   -1.5793 H   0  0  0  0  0  0  0  0  0  0  0  0
  1  2  1  0
  2  3  1  0
  2  4  1  0
  4  5  1  0
  5  6  2  0
  6  7  1  0
  7  8  1  0
  8  9  2  0
  8 10  1  0
 11 10  1  6
 11 12  1  0
 12 13  1  0
 13 14  1  0
 14 15  1  0
 15 16  1  0
 16 17  1  0
 17 18  1  0
 17 19  1  0
 15 20  1  0
  7 21  2  0
 21 22  1  0
 22  5  1  0
 19 11  1  0
 20 11  1  0
 18 13  1  0
  1 23  1  0
  1 24  1  0
  1 25  1  0
  2 26  1  0
  3 27  1  0
  3 28  1  0
  3 29  1  0
  4 30  1  0
  4 31  1  0
 10 32  1  0
 12 33  1  0
 12 34  1  0
 13 35  1  1
 14 36  1  0
 14 37  1  0
 15 38  1  6
 16 39  1  0
 16 40  1  0
 17 41  1  1
 18 42  1  0
 18 43  1  0
 19 44  1  0
 19 45  1  0
 20 46  1  0
 20 47  1  0
 22 48  1  0
M  END
>  <_SMILES>  (44) 
CC(C)Cc1nc(C(=O)N[C@]23C[C@H]4C[C@H](C[C@H](C4)C2)C3)n[nH]1

$$$$

     RDKit          3D

 48 51  0  0  0  0  0  0  0  0999 V2000
    6.1484   -1.8379   -0.1228 C   0  0  0  0  0  0  0  0  0  0  0  0
    5.0910   -0.8210    0.3125 C   0  0  0  0  0  0  0  0  0  0  0  0
    5.5807   -0.0636    1.5498 C   0  0  0  0  0  0  0  0  0  0  0  0
    4.7665    0.1309   -0.8528 C   0  0  0  0  0  0  0  0  0  0  0  0
    3.5902    1.0031   -0.5895 C   0  0  0  0  0  0  0  0  0  0  0  0
    3.6968    2.3219   -0.3833 N   0  0  0  0  0  0  0  0  0  0  0  0
    2.4121    2.6688   -0.1946 N   0  0  0  0  0  0  0  0  0  0  0  0
    1.5875    1.5896   -0.2913 C   0  0  0  0  0  0  0  0  0  0  0  0
    0.1550    1.6386   -0.1366 C   0  0  0  0  0  0  0  0  0  0  0  0
   -0.4481    2.6798    0.0990 O   0  0  0  0  0  0  0  0  0  0  0  0
   -0.4445    0.4076   -0.2803 N   0  0  0  0  0  0  0  0  0  0  0  0
   -1.8755    0.1288   -0.1785 C   0  0  2  0  0  0  0  0  0  0  0  0
   -2.4278    0.4845    1.2242 C   0  0  0  0  0  0  0  0  0  0  0  0
   -3.9239    0.1371    1.3209 C   0  0  1  0  0  0  0  0  0  0  0  0
   -4.6963    0.9222    0.2471 C   0  0  0  0  0  0  0  0  0  0  0  0
   -4.1808    0.5509   -1.1538 C   0  0  2  0  0  0  0  0  0  0  0  0
   -4.3677   -0.9578   -1.3792 C   0  0  0  0  0  0  0  0  0  0  0  0
   -3.5911   -1.7476   -0.3141 C   0  0  2  0  0  0  0  0  0  0  0  0
   -4.1122   -1.3692    1.0811 C   0  0  0  0  0  0  0  0  0  0  0  0
   -2.0994   -1.3897   -0.4092 C   0  0  0  0  0  0  0  0  0  0  0  0
   -2.6848    0.8985   -1.2515 C   0  0  0  0  0  0  0  0  0  0  0  0
    2.3087    0.5117   -0.5456 N   0  0  0  0  0  0  0  0  0  0  0  0
    7.0826   -1.3427   -0.4089 H   0  0  0  0  0  0  0  0  0  0  0  0
    5.7971   -2.4217   -0.9802 H   0  0  0  0  0  0  0  0  0  0  0  0
    6.3711   -2.5394    0.6883 H   0  0  0  0  0  0  0  0  0  0  0  0
    4.1849   -1.3754    0.5896 H   0  0  0  0  0  0  0  0  0  0  0  0
    5.8356   -0.7612    2.3549 H   0  0  0  0  0  0  0  0  0  0  0  0
    6.4722    0.5314    1.3242 H   0  0  0  0  0  0  0  0  0  0  0  0
    4.8096    0.6113    1.9344 H   0  0  0  0  0  0  0  0  0  0  0  0
    5.6441    0.7455   -1.0907 H   0  0  0  0  0  0  0  0  0  0  0  0
    4.5488   -0.4571   -1.7538 H   0  0  0  0  0  0  0  0  0  0  0  0
    2.1618    3.6339   -0.0079 H   0  0  0  0  0  0  0  0  0  0  0  0
    0.1971   -0.3581   -0.4731 H   0  0  0  0  0  0  0  0  0  0  0  0
   -2.2942    1.5516    1.4382 H   0  0  0  0  0  0  0  0  0  0  0  0
   -1.8679   -0.0562    1.9985 H   0  0  0  0  0  0  0  0  0  0  0  0
   -4.3004    0.4023    2.3151 H   0  0  0  0  0  0  0  0  0  0  0  0
   -4.5810    2.0000    0.4154 H   0  0  0  0  0  0  0  0  0  0  0  0
   -5.7682    0.7014    0.3215 H   0  0  0  0  0  0  0  0  0  0  0  0
   -4.7395    1.1094   -1.9131 H   0  0  0  0  0  0  0  0  0  0  0  0
   -4.0165   -1.2335   -2.3812 H   0  0  0  0  0  0  0  0  0  0  0  0
   -5.4332   -1.2145   -1.3335 H   0  0  0  0  0  0  0  0  0  0  0  0
   -3.7252   -2.8224   -0.4799 H   0  0  0  0  0  0  0  0  0  0  0  0
   -5.1733   -1.6330    1.1692 H   0  0  0  0  0  0  0  0  0  0  0  0
   -3.5772   -1.9410    1.8493 H   0  0  0  0  0  0  0  0  0  0  0  0
   -1.5316   -1.9713    0.3295 H   0  0  0  0  0  0  0  0  0  0  0  0
   -1.7106   -1.6832   -1.3936 H   0  0  0  0  0  0  0  0  0  0  0  0
   -2.3095    0.6550   -2.2541 H   0  0  0  0  0  0  0  0  0  0  0  0
   -2.5613    1.9815   -1.1327 H   0  0  0  0  0  0  0  0  0  0  0  0
  1  2  1  0
  2  3  1  0
  2  4  1  0
  4  5  1  0
  5  6  2  0
  6  7  1  0
  7  8  1  0
  8  9  1  0
  9 10  2  0
  9 11  1  0
 12 11  1  1
 12 13  1  0
 13 14  1  0
 14 15  1  0
 15 16  1  0
 16 17  1  0
 17 18  1  0
 18 19  1  0
 18 20  1  0
 16 21  1  0
  8 22  2  0
 22  5  1  0
 20 12  1  0
 21 12  1  0
 19 14  1  0
  1 23  1  0
  1 24  1  0
  1 25  1  0
  2 26  1  0
  3 27  1  0
  3 28  1  0
  3 29  1  0
  4 30  1  0
  4 31  1  0
  7 32  1  0
 11 33  1  0
 13 34  1  0
 13 35  1  0
 14 36  1  1
 15 37  1  0
 15 38  1  0
 16 39  1  6
 17 40  1  0
 17 41  1  0
 18 42  1  6
 19 43  1  0
 19 44  1  0
 20 45  1  0
 20 46  1  0
 21 47  1  0
 21 48  1  0
M  END
>  <_SMILES>  (45) 
CC(C)Cc1n[nH]c(C(=O)N[C@]23C[C@H]4C[C@H](C[C@H](C4)C2)C3)n1

$$$$

     RDKit          3D

 45 48  0  0  0  0  0  0  0  0999 V2000
    7.1507    0.4673    1.0492 C   0  0  0  0  0  0  0  0  0  0  0  0
    5.9334    0.5745    0.1445 C   0  0  0  0  0  0  0  0  0  0  0  0
    5.1788   -0.7516    0.0623 C   0  0  0  0  0  0  0  0  0  0  0  0
    3.9974   -0.6463   -0.8322 C   0  0  0  0  0  0  0  0  0  0  0  0
    3.9533   -0.8625   -2.1277 N   0  0  0  0  0  0  0  0  0  0  0  0
    2.6683   -0.6162   -2.5567 N   0  0  0  0  0  0  0  0  0  0  0  0
    1.9388   -0.2851   -1.5097 C   0  0  0  0  0  0  0  0  0  0  0  0
    0.5301    0.0503   -1.5531 C   0  0  0  0  0  0  0  0  0  0  0  0
   -0.0213    0.5521   -2.5265 O   0  0  0  0  0  0  0  0  0  0  0  0
   -0.1552   -0.2552   -0.3816 N   0  0  0  0  0  0  0  0  0  0  0  0
   -1.6053   -0.0813   -0.2114 C   0  0  2  0  0  0  0  0  0  0  0  0
   -1.9710   -0.4987    1.2403 C   0  0  0  0  0  0  0  0  0  0  0  0
   -3.4794   -0.3525    1.4956 C   0  0  1  0  0  0  0  0  0  0  0  0
   -3.8860    1.1135    1.2835 C   0  0  0  0  0  0  0  0  0  0  0  0
   -3.5566    1.5450   -0.1536 C   0  0  2  0  0  0  0  0  0  0  0  0
   -4.3200    0.6463   -1.1417 C   0  0  0  0  0  0  0  0  0  0  0  0
   -3.9208   -0.8251   -0.9373 C   0  0  2  0  0  0  0  0  0  0  0  0
   -4.2467   -1.2426    0.5054 C   0  0  0  0  0  0  0  0  0  0  0  0
   -2.4093   -0.9799   -1.1830 C   0  0  0  0  0  0  0  0  0  0  0  0
   -2.0442    1.3941   -0.3971 C   0  0  0  0  0  0  0  0  0  0  0  0
    2.7500   -0.2836   -0.4042 N   0  0  0  0  0  0  0  0  0  0  0  0
    7.8515   -0.2864    0.6762 H   0  0  0  0  0  0  0  0  0  0  0  0
    7.6756    1.4267    1.0935 H   0  0  0  0  0  0  0  0  0  0  0  0
    6.8592    0.1921    2.0678 H   0  0  0  0  0  0  0  0  0  0  0  0
    6.2552    0.8873   -0.8565 H   0  0  0  0  0  0  0  0  0  0  0  0
    5.2714    1.3624    0.5244 H   0  0  0  0  0  0  0  0  0  0  0  0
    5.8448   -1.5352   -0.3186 H   0  0  0  0  0  0  0  0  0  0  0  0
    4.8602   -1.0653    1.0638 H   0  0  0  0  0  0  0  0  0  0  0  0
    0.2621   -0.9808    0.1845 H   0  0  0  0  0  0  0  0  0  0  0  0
   -1.4113    0.1130    1.9607 H   0  0  0  0  0  0  0  0  0  0  0  0
   -1.6674   -1.5385    1.4220 H   0  0  0  0  0  0  0  0  0  0  0  0
   -3.7122   -0.6558    2.5224 H   0  0  0  0  0  0  0  0  0  0  0  0
   -3.3585    1.7567    1.9985 H   0  0  0  0  0  0  0  0  0  0  0  0
   -4.9589    1.2369    1.4757 H   0  0  0  0  0  0  0  0  0  0  0  0
   -3.8511    2.5900   -0.3014 H   0  0  0  0  0  0  0  0  0  0  0  0
   -5.4007    0.7639   -0.9949 H   0  0  0  0  0  0  0  0  0  0  0  0
   -4.1035    0.9538   -2.1722 H   0  0  0  0  0  0  0  0  0  0  0  0
   -4.4747   -1.4590   -1.6387 H   0  0  0  0  0  0  0  0  0  0  0  0
   -5.3256   -1.1594    0.6850 H   0  0  0  0  0  0  0  0  0  0  0  0
   -3.9784   -2.2948    0.6610 H   0  0  0  0  0  0  0  0  0  0  0  0
   -2.1160   -2.0302   -1.0556 H   0  0  0  0  0  0  0  0  0  0  0  0
   -2.1886   -0.7248   -2.2262 H   0  0  0  0  0  0  0  0  0  0  0  0
   -1.8150    1.7528   -1.4066 H   0  0  0  0  0  0  0  0  0  0  0  0
   -1.4876    2.0425    0.2922 H   0  0  0  0  0  0  0  0  0  0  0  0
    2.4842   -0.0102    0.5294 H   0  0  0  0  0  0  0  0  0  0  0  0
  1  2  1  0
  2  3  1  0
  3  4  1  0
  4  5  2  0
  5  6  1  0
  6  7  2  0
  7  8  1  0
  8  9  2  0
  8 10  1  0
 11 10  1  6
 11 12  1  0
 12 13  1  0
 13 14  1  0
 14 15  1  0
 15 16  1  0
 16 17  1  0
 17 18  1  0
 17 19  1  0
 15 20  1  0
  7 21  1  0
 21  4  1  0
 19 11  1  0
 20 11  1  0
 18 13  1  0
  1 22  1  0
  1 23  1  0
  1 24  1  0
  2 25  1  0
  2 26  1  0
  3 27  1  0
  3 28  1  0
 10 29  1  0
 12 30  1  0
 12 31  1  0
 13 32  1  1
 14 33  1  0
 14 34  1  0
 15 35  1  1
 16 36  1  0
 16 37  1  0
 17 38  1  6
 18 39  1  0
 18 40  1  0
 19 41  1  0
 19 42  1  0
 20 43  1  0
 20 44  1  0
 21 45  1  0
M  END
>  <_SMILES>  (46) 
CCCc1nnc(C(=O)N[C@]23C[C@H]4C[C@H](C[C@H](C4)C2)C3)[nH]1

$$$$

     RDKit          3D

 45 48  0  0  0  0  0  0  0  0999 V2000
    6.6810   -1.4272   -1.0318 C   0  0  0  0  0  0  0  0  0  0  0  0
    5.5440   -0.7792   -0.2579 C   0  0  0  0  0  0  0  0  0  0  0  0
    4.9665    0.4188   -1.0102 C   0  0  0  0  0  0  0  0  0  0  0  0
    3.8465    1.0403   -0.2565 C   0  0  0  0  0  0  0  0  0  0  0  0
    2.5709    0.7227   -0.2985 N   0  0  0  0  0  0  0  0  0  0  0  0
    1.9803    1.6105    0.5957 C   0  0  0  0  0  0  0  0  0  0  0  0
    0.5237    1.6012    0.8617 C   0  0  0  0  0  0  0  0  0  0  0  0
   -0.0363    2.3661    1.6413 O   0  0  0  0  0  0  0  0  0  0  0  0
   -0.1344    0.6287    0.1288 N   0  0  0  0  0  0  0  0  0  0  0  0
   -1.5686    0.3562    0.1598 C   0  0  2  0  0  0  0  0  0  0  0  0
   -1.8673   -0.8141   -0.8154 C   0  0  0  0  0  0  0  0  0  0  0  0
   -3.3667   -1.1517   -0.8294 C   0  0  1  0  0  0  0  0  0  0  0  0
   -3.8058   -1.5540    0.5872 C   0  0  0  0  0  0  0  0  0  0  0  0
   -3.5430   -0.3987    1.5659 C   0  0  2  0  0  0  0  0  0  0  0  0
   -4.3307    0.8415    1.1102 C   0  0  0  0  0  0  0  0  0  0  0  0
   -3.8974    1.2527   -0.3073 C   0  0  2  0  0  0  0  0  0  0  0  0
   -4.1581    0.0877   -1.2751 C   0  0  0  0  0  0  0  0  0  0  0  0
   -2.3942    1.5828   -0.3016 C   0  0  0  0  0  0  0  0  0  0  0  0
   -2.0396   -0.0695    1.5726 C   0  0  0  0  0  0  0  0  0  0  0  0
    2.8582    2.4507    1.1722 N   0  0  0  0  0  0  0  0  0  0  0  0
    4.0177    2.0720    0.6205 N   0  0  0  0  0  0  0  0  0  0  0  0
    7.4984   -0.7177   -1.1955 H   0  0  0  0  0  0  0  0  0  0  0  0
    7.0792   -2.2818   -0.4759 H   0  0  0  0  0  0  0  0  0  0  0  0
    6.3369   -1.7868   -2.0068 H   0  0  0  0  0  0  0  0  0  0  0  0
    4.7596   -1.5250   -0.0787 H   0  0  0  0  0  0  0  0  0  0  0  0
    5.9122   -0.4646    0.7263 H   0  0  0  0  0  0  0  0  0  0  0  0
    4.5984    0.0986   -1.9924 H   0  0  0  0  0  0  0  0  0  0  0  0
    5.7520    1.1622   -1.1930 H   0  0  0  0  0  0  0  0  0  0  0  0
    0.4686    0.0736   -0.4735 H   0  0  0  0  0  0  0  0  0  0  0  0
   -1.5376   -0.5532   -1.8301 H   0  0  0  0  0  0  0  0  0  0  0  0
   -1.2908   -1.7030   -0.5259 H   0  0  0  0  0  0  0  0  0  0  0  0
   -3.5535   -1.9789   -1.5232 H   0  0  0  0  0  0  0  0  0  0  0  0
   -4.8719   -1.8125    0.5899 H   0  0  0  0  0  0  0  0  0  0  0  0
   -3.2603   -2.4496    0.9091 H   0  0  0  0  0  0  0  0  0  0  0  0
   -3.8613   -0.6890    2.5734 H   0  0  0  0  0  0  0  0  0  0  0  0
   -5.4064    0.6269    1.1246 H   0  0  0  0  0  0  0  0  0  0  0  0
   -4.1622    1.6701    1.8089 H   0  0  0  0  0  0  0  0  0  0  0  0
   -4.4668    2.1325   -0.6271 H   0  0  0  0  0  0  0  0  0  0  0  0
   -5.2302   -0.1426   -1.3043 H   0  0  0  0  0  0  0  0  0  0  0  0
   -3.8661    0.3734   -2.2931 H   0  0  0  0  0  0  0  0  0  0  0  0
   -2.2202    2.4422    0.3566 H   0  0  0  0  0  0  0  0  0  0  0  0
   -2.0767    1.8956   -1.3050 H   0  0  0  0  0  0  0  0  0  0  0  0
   -1.4677   -0.9423    1.9141 H   0  0  0  0  0  0  0  0  0  0  0  0
   -1.8517    0.7252    2.3042 H   0  0  0  0  0  0  0  0  0  0  0  0
    4.8710    2.5515    0.8850 H   0  0  0  0  0  0  0  0  0  0  0  0
  1  2  1  0
  2  3  1  0
  3  4  1  0
  4  5  2  0
  5  6  1  0
  6  7  1  0
  7  8  2  0
  7  9  1  0
 10  9  1  1
 10 11  1  0
 11 12  1  0
 12 13  1  0
 13 14  1  0
 14 15  1  0
 15 16  1  0
 16 17  1  0
 16 18  1  0
 14 19  1  0
  6 20  2  0
 20 21  1  0
 21  4  1  0
 18 10  1  0
 19 10  1  0
 17 12  1  0
  1 22  1  0
  1 23  1  0
  1 24  1  0
  2 25  1  0
  2 26  1  0
  3 27  1  0
  3 28  1  0
  9 29  1  0
 11 30  1  0
 11 31  1  0
 12 32  1  6
 13 33  1  0
 13 34  1  0
 14 35  1  1
 15 36  1  0
 15 37  1  0
 16 38  1  6
 17 39  1  0
 17 40  1  0
 18 41  1  0
 18 42  1  0
 19 43  1  0
 19 44  1  0
 21 45  1  0
M  END
>  <_SMILES>  (47) 
CCCc1nc(C(=O)N[C@]23C[C@H]4C[C@H](C[C@H](C4)C2)C3)n[nH]1

$$$$

     RDKit          3D

 45 48  0  0  0  0  0  0  0  0999 V2000
    7.7132   -0.6300   -0.5260 C   0  0  0  0  0  0  0  0  0  0  0  0
    6.2974   -0.5896    0.0264 C   0  0  0  0  0  0  0  0  0  0  0  0
    5.4737    0.5223   -0.6225 C   0  0  0  0  0  0  0  0  0  0  0  0
    4.0854    0.5661   -0.0961 C   0  0  0  0  0  0  0  0  0  0  0  0
    3.7179    1.3456    0.9284 N   0  0  0  0  0  0  0  0  0  0  0  0
    2.4213    1.0242    1.0525 N   0  0  0  0  0  0  0  0  0  0  0  0
    2.0257    0.1268    0.1030 C   0  0  0  0  0  0  0  0  0  0  0  0
    0.6904   -0.4130   -0.0505 C   0  0  0  0  0  0  0  0  0  0  0  0
    0.4611   -1.5506   -0.4470 O   0  0  0  0  0  0  0  0  0  0  0  0
   -0.3215    0.4809    0.2824 N   0  0  0  0  0  0  0  0  0  0  0  0
   -1.7552    0.1883    0.1347 C   0  0  2  0  0  0  0  0  0  0  0  0
   -2.1435   -0.0467   -1.3457 C   0  0  0  0  0  0  0  0  0  0  0  0
   -3.6583   -0.2860   -1.4761 C   0  0  1  0  0  0  0  0  0  0  0  0
   -4.0523   -1.5127   -0.6358 C   0  0  0  0  0  0  0  0  0  0  0  0
   -3.7077   -1.2745    0.8444 C   0  0  2  0  0  0  0  0  0  0  0  0
   -4.4644   -0.0363    1.3487 C   0  0  0  0  0  0  0  0  0  0  0  0
   -4.0661    1.1938    0.5193 C   0  0  2  0  0  0  0  0  0  0  0  0
   -4.4143    0.9474   -0.9571 C   0  0  0  0  0  0  0  0  0  0  0  0
   -2.5516    1.4198    0.6490 C   0  0  0  0  0  0  0  0  0  0  0  0
   -2.1929   -1.0362    0.9792 C   0  0  0  0  0  0  0  0  0  0  0  0
    3.0777   -0.1957   -0.6263 N   0  0  0  0  0  0  0  0  0  0  0  0
    7.7081   -0.8132   -1.6052 H   0  0  0  0  0  0  0  0  0  0  0  0
    8.2340    0.3146   -0.3398 H   0  0  0  0  0  0  0  0  0  0  0  0
    8.2838   -1.4324   -0.0480 H   0  0  0  0  0  0  0  0  0  0  0  0
    5.8166   -1.5610   -0.1428 H   0  0  0  0  0  0  0  0  0  0  0  0
    6.3383   -0.4420    1.1126 H   0  0  0  0  0  0  0  0  0  0  0  0
    5.4375    0.3706   -1.7083 H   0  0  0  0  0  0  0  0  0  0  0  0
    5.9608    1.4913   -0.4572 H   0  0  0  0  0  0  0  0  0  0  0  0
    1.8759    1.4311    1.8028 H   0  0  0  0  0  0  0  0  0  0  0  0
   -0.0740    1.4596    0.2216 H   0  0  0  0  0  0  0  0  0  0  0  0
   -1.8483    0.8177   -1.9549 H   0  0  0  0  0  0  0  0  0  0  0  0
   -1.6084   -0.9097   -1.7591 H   0  0  0  0  0  0  0  0  0  0  0  0
   -3.9145   -0.4603   -2.5271 H   0  0  0  0  0  0  0  0  0  0  0  0
   -5.1264   -1.7089   -0.7422 H   0  0  0  0  0  0  0  0  0  0  0  0
   -3.5283   -2.4033   -1.0041 H   0  0  0  0  0  0  0  0  0  0  0  0
   -3.9971   -2.1498    1.4366 H   0  0  0  0  0  0  0  0  0  0  0  0
   -4.2380    0.1359    2.4081 H   0  0  0  0  0  0  0  0  0  0  0  0
   -5.5462   -0.2028    1.2773 H   0  0  0  0  0  0  0  0  0  0  0  0
   -4.6047    2.0756    0.8839 H   0  0  0  0  0  0  0  0  0  0  0  0
   -5.4954    0.7981   -1.0673 H   0  0  0  0  0  0  0  0  0  0  0  0
   -4.1518    1.8278   -1.5565 H   0  0  0  0  0  0  0  0  0  0  0  0
   -2.2949    1.6237    1.6972 H   0  0  0  0  0  0  0  0  0  0  0  0
   -2.2652    2.3173    0.0844 H   0  0  0  0  0  0  0  0  0  0  0  0
   -1.9311   -0.8797    2.0338 H   0  0  0  0  0  0  0  0  0  0  0  0
   -1.6667   -1.9442    0.6649 H   0  0  0  0  0  0  0  0  0  0  0  0
  1  2  1  0
  2  3  1  0
  3  4  1  0
  4  5  2  0
  5  6  1  0
  6  7  1  0
  7  8  1  0
  8  9  2  0
  8 10  1  0
 11 10  1  6
 11 12  1  0
 12 13  1  0
 13 14  1  0
 14 15  1  0
 15 16  1  0
 16 17  1  0
 17 18  1  0
 17 19  1  0
 15 20  1  0
  7 21  2  0
 21  4  1  0
 19 11  1  0
 20 11  1  0
 18 13  1  0
  1 22  1  0
  1 23  1  0
  1 24  1  0
  2 25  1  0
  2 26  1  0
  3 27  1  0
  3 28  1  0
  6 29  1  0
 10 30  1  0
 12 31  1  0
 12 32  1  0
 13 33  1  6
 14 34  1  0
 14 35  1  0
 15 36  1  1
 16 37  1  0
 16 38  1  0
 17 39  1  1
 18 40  1  0
 18 41  1  0
 19 42  1  0
 19 43  1  0
 20 44  1  0
 20 45  1  0
M  END
>  <_SMILES>  (48) 
CCCc1n[nH]c(C(=O)N[C@]23C[C@H]4C[C@H](C[C@H](C4)C2)C3)n1

$$$$

     RDKit          3D

 32 34  0  0  0  0  0  0  0  0999 V2000
   -1.1384   -2.2331   -0.4038 O   0  0  0  0  0  0  0  0  0  0  0  0
   -1.2972   -1.0263   -0.1946 C   0  0  0  0  0  0  0  0  0  0  0  0
   -0.1599   -0.1214   -0.0918 C   0  0  0  0  0  0  0  0  0  0  0  0
   -0.1573    1.1970   -0.0365 N   0  0  0  0  0  0  0  0  0  0  0  0
    1.1637    1.5872    0.0345 N   0  0  0  0  0  0  0  0  0  0  0  0
    1.8844    0.4835    0.0048 C   0  0  0  0  0  0  0  0  0  0  0  0
    3.3301    0.3051    0.0469 C   0  0  0  0  0  0  0  0  0  0  0  0
    4.1664    1.4286    0.1380 C   0  0  0  0  0  0  0  0  0  0  0  0
    5.5558    1.2856    0.1802 C   0  0  0  0  0  0  0  0  0  0  0  0
    6.1271    0.0161    0.1317 C   0  0  0  0  0  0  0  0  0  0  0  0
    5.3117   -1.1098    0.0409 C   0  0  0  0  0  0  0  0  0  0  0  0
    3.9218   -0.9668   -0.0013 C   0  0  0  0  0  0  0  0  0  0  0  0
    1.1114   -0.6440   -0.0767 O   0  0  0  0  0  0  0  0  0  0  0  0
   -2.5989   -0.5196   -0.0651 N   0  0  0  0  0  0  0  0  0  0  0  0
   -3.7387   -1.3972   -0.3361 C   0  0  0  0  0  0  0  0  0  0  0  0
   -4.9006   -0.6029   -0.9397 C   0  0  0  0  0  0  0  0  0  0  0  0
   -5.3568    0.4813   -0.1191 O   0  0  0  0  0  0  0  0  0  0  0  0
   -4.3924    0.9416    0.8342 C   0  0  0  0  0  0  0  0  0  0  0  0
   -2.9453    0.8495    0.3358 C   0  0  0  0  0  0  0  0  0  0  0  0
    3.7376    2.4291    0.1765 H   0  0  0  0  0  0  0  0  0  0  0  0
    6.1900    2.1658    0.2505 H   0  0  0  0  0  0  0  0  0  0  0  0
    7.2080   -0.0958    0.1641 H   0  0  0  0  0  0  0  0  0  0  0  0
    5.7563   -2.1013    0.0022 H   0  0  0  0  0  0  0  0  0  0  0  0
    3.3072   -1.8623   -0.0732 H   0  0  0  0  0  0  0  0  0  0  0  0
   -4.0340   -1.8369    0.6236 H   0  0  0  0  0  0  0  0  0  0  0  0
   -3.4501   -2.2099   -1.0101 H   0  0  0  0  0  0  0  0  0  0  0  0
   -5.7558   -1.2609   -1.1229 H   0  0  0  0  0  0  0  0  0  0  0  0
   -4.6026   -0.1760   -1.9044 H   0  0  0  0  0  0  0  0  0  0  0  0
   -4.6407    1.9782    1.0833 H   0  0  0  0  0  0  0  0  0  0  0  0
   -4.5184    0.3484    1.7477 H   0  0  0  0  0  0  0  0  0  0  0  0
   -2.2720    1.1851    1.1292 H   0  0  0  0  0  0  0  0  0  0  0  0
   -2.8126    1.4821   -0.5488 H   0  0  0  0  0  0  0  0  0  0  0  0
  1  2  2  0
  2  3  1  0
  3  4  2  0
  4  5  1  0
  5  6  2  0
  6  7  1  0
  7  8  2  0
  8  9  1  0
  9 10  2  0
 10 11  1  0
 11 12  2  0
  6 13  1  0
  2 14  1  0
 14 15  1  0
 15 16  1  0
 16 17  1  0
 17 18  1  0
 18 19  1  0
 13  3  1  0
 19 14  1  0
 12  7  1  0
  8 20  1  0
  9 21  1  0
 10 22  1  0
 11 23  1  0
 12 24  1  0
 15 25  1  0
 15 26  1  0
 16 27  1  0
 16 28  1  0
 18 29  1  0
 18 30  1  0
 19 31  1  0
 19 32  1  0
M  END
>  <_SMILES>  (49) 
O=C(c1nnc(-c2ccccc2)o1)N1CCOCC1

$$$$

     RDKit          3D

 33 34  0  0  0  0  0  0  0  0999 V2000
   -4.6406    1.1777   -0.2013 C   0  0  0  0  0  0  0  0  0  0  0  0
   -3.4151    2.0151    0.1272 C   0  0  0  0  0  0  0  0  0  0  0  0
   -2.1805    1.2265    0.1792 N   0  0  0  0  0  0  0  0  0  0  0  0
   -1.5284    0.9326   -1.1014 C   0  0  0  0  0  0  0  0  0  0  0  0
   -1.7634   -0.4888   -1.5915 C   0  0  0  0  0  0  0  0  0  0  0  0
   -1.8457    0.6323    1.4229 C   0  0  0  0  0  0  0  0  0  0  0  0
   -2.6227    0.7661    2.3743 O   0  0  0  0  0  0  0  0  0  0  0  0
   -0.6079   -0.1249    1.5716 C   0  0  0  0  0  0  0  0  0  0  0  0
   -0.3607   -1.0057    2.5240 N   0  0  0  0  0  0  0  0  0  0  0  0
    0.9246   -1.4641    2.3172 N   0  0  0  0  0  0  0  0  0  0  0  0
    1.3883   -0.8177    1.2680 C   0  0  0  0  0  0  0  0  0  0  0  0
    2.6857   -0.9059    0.6102 C   0  0  0  0  0  0  0  0  0  0  0  0
    3.6417   -1.8183    1.0829 C   0  0  0  0  0  0  0  0  0  0  0  0
    4.8931   -1.9260    0.4709 C   0  0  0  0  0  0  0  0  0  0  0  0
    5.2052   -1.1215   -0.6223 C   0  0  0  0  0  0  0  0  0  0  0  0
    4.2687   -0.2094   -1.1039 C   0  0  0  0  0  0  0  0  0  0  0  0
    3.0166   -0.1018   -0.4917 C   0  0  0  0  0  0  0  0  0  0  0  0
    0.4710    0.0541    0.7422 O   0  0  0  0  0  0  0  0  0  0  0  0
   -5.5433    1.7949   -0.1546 H   0  0  0  0  0  0  0  0  0  0  0  0
   -4.7564    0.3469    0.5018 H   0  0  0  0  0  0  0  0  0  0  0  0
   -4.5746    0.7596   -1.2099 H   0  0  0  0  0  0  0  0  0  0  0  0
   -3.2902    2.8163   -0.6099 H   0  0  0  0  0  0  0  0  0  0  0  0
   -3.5702    2.5095    1.0931 H   0  0  0  0  0  0  0  0  0  0  0  0
   -0.4594    1.1390   -1.0175 H   0  0  0  0  0  0  0  0  0  0  0  0
   -1.9028    1.6354   -1.8550 H   0  0  0  0  0  0  0  0  0  0  0  0
   -2.8295   -0.6917   -1.7263 H   0  0  0  0  0  0  0  0  0  0  0  0
   -1.3732   -1.2345   -0.8937 H   0  0  0  0  0  0  0  0  0  0  0  0
   -1.2669   -0.6397   -2.5553 H   0  0  0  0  0  0  0  0  0  0  0  0
    3.4154   -2.4550    1.9376 H   0  0  0  0  0  0  0  0  0  0  0  0
    5.6225   -2.6378    0.8499 H   0  0  0  0  0  0  0  0  0  0  0  0
    6.1795   -1.2046   -1.0978 H   0  0  0  0  0  0  0  0  0  0  0  0
    4.5135    0.4204   -1.9557 H   0  0  0  0  0  0  0  0  0  0  0  0
    2.3055    0.6210   -0.8851 H   0  0  0  0  0  0  0  0  0  0  0  0
  1  2  1  0
  2  3  1  0
  3  4  1  0
  4  5  1  0
  3  6  1  0
  6  7  2  0
  6  8  1  0
  8  9  2  0
  9 10  1  0
 10 11  2  0
 11 12  1  0
 12 13  2  0
 13 14  1  0
 14 15  2  0
 15 16  1  0
 16 17  2  0
 11 18  1  0
 18  8  1  0
 17 12  1  0
  1 19  1  0
  1 20  1  0
  1 21  1  0
  2 22  1  0
  2 23  1  0
  4 24  1  0
  4 25  1  0
  5 26  1  0
  5 27  1  0
  5 28  1  0
 13 29  1  0
 14 30  1  0
 15 31  1  0
 16 32  1  0
 17 33  1  0
M  END
>  <_SMILES>  (50) 
CCN(CC)C(=O)c1nnc(-c2ccccc2)o1

$$$$

     RDKit          3D

 34 36  0  0  0  0  0  0  0  0999 V2000
   -1.5677    0.9145    3.1103 O   0  0  0  0  0  0  0  0  0  0  0  0
   -0.8251    0.8937    2.1303 C   0  0  0  0  0  0  0  0  0  0  0  0
   -1.1976    1.4753    0.9276 N   0  0  0  0  0  0  0  0  0  0  0  0
   -2.5313    1.9779    0.6996 C   0  0  0  0  0  0  0  0  0  0  0  0
   -3.3465    0.9747   -0.0734 C   0  0  0  0  0  0  0  0  0  0  0  0
   -3.4629    1.0661   -1.4678 C   0  0  0  0  0  0  0  0  0  0  0  0
   -4.1986    0.1165   -2.1793 C   0  0  0  0  0  0  0  0  0  0  0  0
   -4.8178   -0.9353   -1.5063 C   0  0  0  0  0  0  0  0  0  0  0  0
   -4.7019   -1.0405   -0.1217 C   0  0  0  0  0  0  0  0  0  0  0  0
   -3.9681   -0.0922    0.5918 C   0  0  0  0  0  0  0  0  0  0  0  0
    0.4868    0.2725    2.1112 C   0  0  0  0  0  0  0  0  0  0  0  0
    1.0932   -0.3336    3.1116 N   0  0  0  0  0  0  0  0  0  0  0  0
    2.3109   -0.7656    2.6247 N   0  0  0  0  0  0  0  0  0  0  0  0
    2.3661   -0.3971    1.3605 C   0  0  0  0  0  0  0  0  0  0  0  0
    3.4199   -0.5953    0.3733 C   0  0  0  0  0  0  0  0  0  0  0  0
    4.5978   -1.2634    0.7427 C   0  0  0  0  0  0  0  0  0  0  0  0
    5.6254   -1.4683   -0.1816 C   0  0  0  0  0  0  0  0  0  0  0  0
    5.4883   -1.0076   -1.4887 C   0  0  0  0  0  0  0  0  0  0  0  0
    4.3259   -0.3428   -1.8728 C   0  0  0  0  0  0  0  0  0  0  0  0
    3.2977   -0.1377   -0.9480 C   0  0  0  0  0  0  0  0  0  0  0  0
    1.2379    0.2730    0.9579 O   0  0  0  0  0  0  0  0  0  0  0  0
   -0.6053    1.3167    0.1229 H   0  0  0  0  0  0  0  0  0  0  0  0
   -2.4345    2.9097    0.1314 H   0  0  0  0  0  0  0  0  0  0  0  0
   -3.0271    2.2254    1.6447 H   0  0  0  0  0  0  0  0  0  0  0  0
   -2.9851    1.8790   -2.0097 H   0  0  0  0  0  0  0  0  0  0  0  0
   -4.2895    0.1964   -3.2595 H   0  0  0  0  0  0  0  0  0  0  0  0
   -5.3906   -1.6742   -2.0606 H   0  0  0  0  0  0  0  0  0  0  0  0
   -5.1818   -1.8620    0.4043 H   0  0  0  0  0  0  0  0  0  0  0  0
   -3.8804   -0.1887    1.6733 H   0  0  0  0  0  0  0  0  0  0  0  0
    4.7227   -1.6312    1.7606 H   0  0  0  0  0  0  0  0  0  0  0  0
    6.5313   -1.9879    0.1212 H   0  0  0  0  0  0  0  0  0  0  0  0
    6.2879   -1.1674   -2.2080 H   0  0  0  0  0  0  0  0  0  0  0  0
    4.2189    0.0161   -2.8936 H   0  0  0  0  0  0  0  0  0  0  0  0
    2.4011    0.3834   -1.2752 H   0  0  0  0  0  0  0  0  0  0  0  0
  1  2  2  0
  2  3  1  0
  3  4  1  0
  4  5  1  0
  5  6  2  0
  6  7  1  0
  7  8  2  0
  8  9  1  0
  9 10  2  0
  2 11  1  0
 11 12  2  0
 12 13  1  0
 13 14  2  0
 14 15  1  0
 15 16  2  0
 16 17  1  0
 17 18  2  0
 18 19  1  0
 19 20  2  0
 14 21  1  0
 10  5  1  0
 21 11  1  0
 20 15  1  0
  3 22  1  0
  4 23  1  0
  4 24  1  0
  6 25  1  0
  7 26  1  0
  8 27  1  0
  9 28  1  0
 10 29  1  0
 16 30  1  0
 17 31  1  0
 18 32  1  0
 19 33  1  0
 20 34  1  0
M  END
>  <_SMILES>  (51) 
O=C(NCc1ccccc1)c1nnc(-c2ccccc2)o1

$$$$

     RDKit          3D

 37 39  0  0  0  0  0  0  0  0999 V2000
   -1.5369    2.4691    2.3265 O   0  0  0  0  0  0  0  0  0  0  0  0
   -0.8372    1.6571    1.7242 C   0  0  0  0  0  0  0  0  0  0  0  0
   -1.3315    0.4122    1.3506 N   0  0  0  0  0  0  0  0  0  0  0  0
   -2.7329    0.0491    1.5196 C   0  0  0  0  0  0  0  0  0  0  0  0
   -3.5967    0.6344    0.3933 C   0  0  0  0  0  0  0  0  0  0  0  0
   -3.3614   -0.0630   -0.9461 C   0  0  0  0  0  0  0  0  0  0  0  0
   -3.5531   -1.5721   -0.8340 C   0  0  0  0  0  0  0  0  0  0  0  0
   -2.6793   -2.1731    0.2622 C   0  0  0  0  0  0  0  0  0  0  0  0
   -2.8925   -1.4743    1.6053 C   0  0  0  0  0  0  0  0  0  0  0  0
    0.5405    1.8926    1.3320 C   0  0  0  0  0  0  0  0  0  0  0  0
    1.2575    2.9753    1.5538 N   0  0  0  0  0  0  0  0  0  0  0  0
    2.4984    2.7421    0.9950 N   0  0  0  0  0  0  0  0  0  0  0  0
    2.4566    1.5343    0.4693 C   0  0  0  0  0  0  0  0  0  0  0  0
    3.4856    0.7875   -0.2434 C   0  0  0  0  0  0  0  0  0  0  0  0
    3.2617   -0.5104   -0.7287 C   0  0  0  0  0  0  0  0  0  0  0  0
    4.2684   -1.2020   -1.4091 C   0  0  0  0  0  0  0  0  0  0  0  0
    5.5106   -0.6052   -1.6126 C   0  0  0  0  0  0  0  0  0  0  0  0
    5.7492    0.6819   -1.1371 C   0  0  0  0  0  0  0  0  0  0  0  0
    4.7432    1.3730   -0.4570 C   0  0  0  0  0  0  0  0  0  0  0  0
    1.2377    0.9274    0.6412 O   0  0  0  0  0  0  0  0  0  0  0  0
   -0.7454   -0.1535    0.7486 H   0  0  0  0  0  0  0  0  0  0  0  0
   -3.0660    0.4844    2.4699 H   0  0  0  0  0  0  0  0  0  0  0  0
   -3.4096    1.7086    0.2796 H   0  0  0  0  0  0  0  0  0  0  0  0
   -4.6545    0.5256    0.6654 H   0  0  0  0  0  0  0  0  0  0  0  0
   -4.0535    0.3394   -1.6945 H   0  0  0  0  0  0  0  0  0  0  0  0
   -2.3474    0.1529   -1.3039 H   0  0  0  0  0  0  0  0  0  0  0  0
   -4.6067   -1.7901   -0.6198 H   0  0  0  0  0  0  0  0  0  0  0  0
   -3.3186   -2.0461   -1.7937 H   0  0  0  0  0  0  0  0  0  0  0  0
   -2.9049   -3.2406    0.3663 H   0  0  0  0  0  0  0  0  0  0  0  0
   -1.6251   -2.1027   -0.0312 H   0  0  0  0  0  0  0  0  0  0  0  0
   -2.1961   -1.8884    2.3445 H   0  0  0  0  0  0  0  0  0  0  0  0
   -3.9053   -1.7034    1.9610 H   0  0  0  0  0  0  0  0  0  0  0  0
    2.3022   -1.0008   -0.5831 H   0  0  0  0  0  0  0  0  0  0  0  0
    4.0828   -2.2071   -1.7799 H   0  0  0  0  0  0  0  0  0  0  0  0
    6.2936   -1.1431   -2.1415 H   0  0  0  0  0  0  0  0  0  0  0  0
    6.7180    1.1501   -1.2940 H   0  0  0  0  0  0  0  0  0  0  0  0
    4.9484    2.3789   -0.0921 H   0  0  0  0  0  0  0  0  0  0  0  0
  1  2  2  0
  2  3  1  0
  3  4  1  0
  4  5  1  0
  5  6  1  0
  6  7  1  0
  7  8  1  0
  8  9  1  0
  2 10  1  0
 10 11  2  0
 11 12  1  0
 12 13  2  0
 13 14  1  0
 14 15  2  0
 15 16  1  0
 16 17  2  0
 17 18  1  0
 18 19  2  0
 13 20  1  0
  9  4  1  0
 20 10  1  0
 19 14  1  0
  3 21  1  0
  4 22  1  0
  5 23  1  0
  5 24  1  0
  6 25  1  0
  6 26  1  0
  7 27  1  0
  7 28  1  0
  8 29  1  0
  8 30  1  0
  9 31  1  0
  9 32  1  0
 15 33  1  0
 16 34  1  0
 17 35  1  0
 18 36  1  0
 19 37  1  0
M  END
>  <_SMILES>  (52) 
O=C(NC1CCCCC1)c1nnc(-c2ccccc2)o1

$$$$

     RDKit          3D

 27 28  0  0  0  0  0  0  0  0999 V2000
   -4.7281   -0.9734   -0.6187 C   0  0  0  0  0  0  0  0  0  0  0  0
   -3.5707   -0.1907   -0.2176 N   0  0  0  0  0  0  0  0  0  0  0  0
   -3.8413    0.9950    0.5819 C   0  0  0  0  0  0  0  0  0  0  0  0
   -2.2803   -0.6991   -0.4716 C   0  0  0  0  0  0  0  0  0  0  0  0
   -2.1513   -1.7120   -1.1670 O   0  0  0  0  0  0  0  0  0  0  0  0
   -1.1133   -0.0307    0.0939 C   0  0  0  0  0  0  0  0  0  0  0  0
   -1.0639    0.9606    0.9635 N   0  0  0  0  0  0  0  0  0  0  0  0
    0.2709    1.2204    1.1948 N   0  0  0  0  0  0  0  0  0  0  0  0
    0.9530    0.3649    0.4595 C   0  0  0  0  0  0  0  0  0  0  0  0
    2.3926    0.1881    0.3180 C   0  0  0  0  0  0  0  0  0  0  0  0
    2.9398   -0.7950   -0.5212 C   0  0  0  0  0  0  0  0  0  0  0  0
    4.3248   -0.9434   -0.6387 C   0  0  0  0  0  0  0  0  0  0  0  0
    5.1797   -0.1113    0.0807 C   0  0  0  0  0  0  0  0  0  0  0  0
    4.6529    0.8692    0.9181 C   0  0  0  0  0  0  0  0  0  0  0  0
    3.2684    1.0175    1.0357 C   0  0  0  0  0  0  0  0  0  0  0  0
    0.1412   -0.4647   -0.2665 O   0  0  0  0  0  0  0  0  0  0  0  0
   -5.2383   -1.3269    0.2825 H   0  0  0  0  0  0  0  0  0  0  0  0
   -4.4607   -1.8376   -1.2313 H   0  0  0  0  0  0  0  0  0  0  0  0
   -5.4045   -0.3340   -1.1938 H   0  0  0  0  0  0  0  0  0  0  0  0
   -3.6478    0.7673    1.6338 H   0  0  0  0  0  0  0  0  0  0  0  0
   -3.2132    1.8247    0.2487 H   0  0  0  0  0  0  0  0  0  0  0  0
   -4.8867    1.2970    0.4650 H   0  0  0  0  0  0  0  0  0  0  0  0
    2.2934   -1.4581   -1.0935 H   0  0  0  0  0  0  0  0  0  0  0  0
    4.7344   -1.7095   -1.2925 H   0  0  0  0  0  0  0  0  0  0  0  0
    6.2568   -0.2274   -0.0111 H   0  0  0  0  0  0  0  0  0  0  0  0
    5.3179    1.5196    1.4808 H   0  0  0  0  0  0  0  0  0  0  0  0
    2.8744    1.7894    1.6953 H   0  0  0  0  0  0  0  0  0  0  0  0
  1  2  1  0
  2  3  1  0
  2  4  1  0
  4  5  2  0
  4  6  1  0
  6  7  2  0
  7  8  1  0
  8  9  2  0
  9 10  1  0
 10 11  2  0
 11 12  1  0
 12 13  2  0
 13 14  1  0
 14 15  2  0
  9 16  1  0
 16  6  1  0
 15 10  1  0
  1 17  1  0
  1 18  1  0
  1 19  1  0
  3 20  1  0
  3 21  1  0
  3 22  1  0
 11 23  1  0
 12 24  1  0
 13 25  1  0
 14 26  1  0
 15 27  1  0
M  END
>  <_SMILES>  (53) 
CN(C)C(=O)c1nnc(-c2ccccc2)o1

$$$$

     RDKit          3D

 31 33  0  0  0  0  0  0  0  0999 V2000
   -1.2597   -1.4514    1.7885 O   0  0  0  0  0  0  0  0  0  0  0  0
   -1.4195   -0.6735    0.8424 C   0  0  0  0  0  0  0  0  0  0  0  0
   -0.2920   -0.1235    0.1040 C   0  0  0  0  0  0  0  0  0  0  0  0
   -0.3053    0.6467   -0.9677 N   0  0  0  0  0  0  0  0  0  0  0  0
    1.0123    0.8911   -1.2953 N   0  0  0  0  0  0  0  0  0  0  0  0
    1.7459    0.2500   -0.4070 C   0  0  0  0  0  0  0  0  0  0  0  0
    3.1944    0.1597   -0.2756 C   0  0  0  0  0  0  0  0  0  0  0  0
    3.8011   -0.5842    0.7484 C   0  0  0  0  0  0  0  0  0  0  0  0
    5.1934   -0.6541    0.8516 C   0  0  0  0  0  0  0  0  0  0  0  0
    5.9963    0.0183   -0.0670 C   0  0  0  0  0  0  0  0  0  0  0  0
    5.4102    0.7608   -1.0894 C   0  0  0  0  0  0  0  0  0  0  0  0
    4.0184    0.8307   -1.1927 C   0  0  0  0  0  0  0  0  0  0  0  0
    0.9860   -0.4194    0.5148 O   0  0  0  0  0  0  0  0  0  0  0  0
   -2.7134   -0.3166    0.4672 N   0  0  0  0  0  0  0  0  0  0  0  0
   -3.8693   -0.8929    1.1306 C   0  0  0  0  0  0  0  0  0  0  0  0
   -5.0417   -0.5260    0.2338 C   0  0  0  0  0  0  0  0  0  0  0  0
   -4.6137    0.8142   -0.3482 C   0  0  0  0  0  0  0  0  0  0  0  0
   -3.1149    0.6367   -0.5589 C   0  0  0  0  0  0  0  0  0  0  0  0
    3.1961   -1.1189    1.4785 H   0  0  0  0  0  0  0  0  0  0  0  0
    5.6494   -1.2344    1.6501 H   0  0  0  0  0  0  0  0  0  0  0  0
    7.0791   -0.0367    0.0138 H   0  0  0  0  0  0  0  0  0  0  0  0
    6.0346    1.2863   -1.8077 H   0  0  0  0  0  0  0  0  0  0  0  0
    3.5776    1.4159   -1.9986 H   0  0  0  0  0  0  0  0  0  0  0  0
   -3.7555   -1.9736    1.2576 H   0  0  0  0  0  0  0  0  0  0  0  0
   -3.9584   -0.4247    2.1172 H   0  0  0  0  0  0  0  0  0  0  0  0
   -5.1448   -1.2631   -0.5716 H   0  0  0  0  0  0  0  0  0  0  0  0
   -5.9891   -0.4749    0.7771 H   0  0  0  0  0  0  0  0  0  0  0  0
   -4.7972    1.6100    0.3839 H   0  0  0  0  0  0  0  0  0  0  0  0
   -5.1414    1.0701   -1.2710 H   0  0  0  0  0  0  0  0  0  0  0  0
   -2.5775    1.5826   -0.4512 H   0  0  0  0  0  0  0  0  0  0  0  0
   -2.9014    0.1948   -1.5379 H   0  0  0  0  0  0  0  0  0  0  0  0
  1  2  2  0
  2  3  1  0
  3  4  2  0
  4  5  1  0
  5  6  2  0
  6  7  1  0
  7  8  2  0
  8  9  1  0
  9 10  2  0
 10 11  1  0
 11 12  2  0
  6 13  1  0
  2 14  1  0
 14 15  1  0
 15 16  1  0
 16 17  1  0
 17 18  1  0
 13  3  1  0
 18 14  1  0
 12  7  1  0
  8 19  1  0
  9 20  1  0
 10 21  1  0
 11 22  1  0
 12 23  1  0
 15 24  1  0
 15 25  1  0
 16 26  1  0
 16 27  1  0
 17 28  1  0
 17 29  1  0
 18 30  1  0
 18 31  1  0
M  END
>  <_SMILES>  (54) 
O=C(c1nnc(-c2ccccc2)o1)N1CCCC1

$$$$

     RDKit          3D

 31 33  0  0  0  0  0  0  0  0999 V2000
   -1.1709   -0.1205   -1.6928 O   0  0  0  0  0  0  0  0  0  0  0  0
   -1.1112   -0.0205   -0.4705 C   0  0  0  0  0  0  0  0  0  0  0  0
   -2.2077    0.0472    0.3805 N   0  0  0  0  0  0  0  0  0  0  0  0
   -3.5755    0.0177    0.0490 C   0  0  0  0  0  0  0  0  0  0  0  0
   -4.0645   -0.0896   -1.2540 C   0  0  0  0  0  0  0  0  0  0  0  0
   -5.4427   -0.1115   -1.4936 C   0  0  0  0  0  0  0  0  0  0  0  0
   -6.3422   -0.0264   -0.4338 C   0  0  0  0  0  0  0  0  0  0  0  0
   -5.8650    0.0810    0.8691 C   0  0  0  0  0  0  0  0  0  0  0  0
   -4.4886    0.1029    1.1087 C   0  0  0  0  0  0  0  0  0  0  0  0
    0.1479    0.0405    0.2496 C   0  0  0  0  0  0  0  0  0  0  0  0
    0.2910    0.1477    1.5578 N   0  0  0  0  0  0  0  0  0  0  0  0
    1.6506    0.1692    1.7927 N   0  0  0  0  0  0  0  0  0  0  0  0
    2.2413    0.0740    0.6159 C   0  0  0  0  0  0  0  0  0  0  0  0
    3.6584    0.0487    0.2768 C   0  0  0  0  0  0  0  0  0  0  0  0
    4.1013   -0.0591   -1.0507 C   0  0  0  0  0  0  0  0  0  0  0  0
    5.4669   -0.0812   -1.3482 C   0  0  0  0  0  0  0  0  0  0  0  0
    6.4064    0.0042   -0.3231 C   0  0  0  0  0  0  0  0  0  0  0  0
    5.9835    0.1117    0.9996 C   0  0  0  0  0  0  0  0  0  0  0  0
    4.6184    0.1338    1.2972 C   0  0  0  0  0  0  0  0  0  0  0  0
    1.3430   -0.0119   -0.4166 O   0  0  0  0  0  0  0  0  0  0  0  0
   -1.9814    0.1283    1.3681 H   0  0  0  0  0  0  0  0  0  0  0  0
   -3.4038   -0.1587   -2.1122 H   0  0  0  0  0  0  0  0  0  0  0  0
   -5.8102   -0.1955   -2.5134 H   0  0  0  0  0  0  0  0  0  0  0  0
   -7.4121   -0.0438   -0.6246 H   0  0  0  0  0  0  0  0  0  0  0  0
   -6.5629    0.1478    1.6998 H   0  0  0  0  0  0  0  0  0  0  0  0
   -4.1437    0.1875    2.1363 H   0  0  0  0  0  0  0  0  0  0  0  0
    3.3880   -0.1273   -1.8701 H   0  0  0  0  0  0  0  0  0  0  0  0
    5.7957   -0.1651   -2.3813 H   0  0  0  0  0  0  0  0  0  0  0  0
    7.4684   -0.0130   -0.5553 H   0  0  0  0  0  0  0  0  0  0  0  0
    6.7149    0.1785    1.8014 H   0  0  0  0  0  0  0  0  0  0  0  0
    4.3067    0.2183    2.3374 H   0  0  0  0  0  0  0  0  0  0  0  0
  1  2  2  0
  2  3  1  0
  3  4  1  0
  4  5  2  0
  5  6  1  0
  6  7  2  0
  7  8  1  0
  8  9  2  0
  2 10  1  0
 10 11  2  0
 11 12  1  0
 12 13  2  0
 13 14  1  0
 14 15  2  0
 15 16  1  0
 16 17  2  0
 17 18  1  0
 18 19  2  0
 13 20  1  0
  9  4  1  0
 20 10  1  0
 19 14  1  0
  3 21  1  0
  5 22  1  0
  6 23  1  0
  7 24  1  0
  8 25  1  0
  9 26  1  0
 15 27  1  0
 16 28  1  0
 17 29  1  0
 18 30  1  0
 19 31  1  0
M  END
>  <_SMILES>  (55) 
O=C(Nc1ccccc1)c1nnc(-c2ccccc2)o1

$$$$

     RDKit          3D

 37 39  0  0  0  0  0  0  0  0999 V2000
   -1.2182   -0.6942   -1.9286 O   0  0  0  0  0  0  0  0  0  0  0  0
   -1.3552   -0.5010   -0.7152 C   0  0  0  0  0  0  0  0  0  0  0  0
   -0.2101   -0.6096    0.1823 C   0  0  0  0  0  0  0  0  0  0  0  0
   -0.0847   -0.1931    1.4288 N   0  0  0  0  0  0  0  0  0  0  0  0
    1.2014   -0.4922    1.8260 N   0  0  0  0  0  0  0  0  0  0  0  0
    1.7871   -1.0506    0.7878 C   0  0  0  0  0  0  0  0  0  0  0  0
    3.1691   -1.5684    0.6452 C   0  0  0  0  0  0  0  0  0  0  0  0
    4.1081   -0.5681    0.0130 C   0  0  0  0  0  0  0  0  0  0  0  0
    4.7810    0.3746    0.8043 C   0  0  0  0  0  0  0  0  0  0  0  0
    5.6353    1.3094    0.2176 C   0  0  0  0  0  0  0  0  0  0  0  0
    5.8205    1.3161   -1.1635 C   0  0  0  0  0  0  0  0  0  0  0  0
    5.1489    0.3911   -1.9607 C   0  0  0  0  0  0  0  0  0  0  0  0
    4.2941   -0.5452   -1.3771 C   0  0  0  0  0  0  0  0  0  0  0  0
    0.9555   -1.1686   -0.2922 O   0  0  0  0  0  0  0  0  0  0  0  0
   -2.6397   -0.1649   -0.2112 N   0  0  0  0  0  0  0  0  0  0  0  0
   -3.5904    0.3706   -1.1874 C   0  0  0  0  0  0  0  0  0  0  0  0
   -5.0463    0.1789   -0.7817 C   0  0  0  0  0  0  0  0  0  0  0  0
   -5.2950    0.7006    0.6256 C   0  0  0  0  0  0  0  0  0  0  0  0
   -4.3579    0.0032    1.5995 C   0  0  0  0  0  0  0  0  0  0  0  0
   -2.8930    0.1594    1.1958 C   0  0  0  0  0  0  0  0  0  0  0  0
    3.1614   -2.4918    0.0526 H   0  0  0  0  0  0  0  0  0  0  0  0
    3.5553   -1.8553    1.6313 H   0  0  0  0  0  0  0  0  0  0  0  0
    4.6389    0.3908    1.8832 H   0  0  0  0  0  0  0  0  0  0  0  0
    6.1525    2.0366    0.8384 H   0  0  0  0  0  0  0  0  0  0  0  0
    6.4835    2.0466   -1.6196 H   0  0  0  0  0  0  0  0  0  0  0  0
    5.2868    0.4022   -3.0389 H   0  0  0  0  0  0  0  0  0  0  0  0
    3.7694   -1.2528   -2.0162 H   0  0  0  0  0  0  0  0  0  0  0  0
   -3.3669    1.4395   -1.2947 H   0  0  0  0  0  0  0  0  0  0  0  0
   -3.4361   -0.0884   -2.1697 H   0  0  0  0  0  0  0  0  0  0  0  0
   -5.7008    0.6948   -1.4929 H   0  0  0  0  0  0  0  0  0  0  0  0
   -5.2996   -0.8878   -0.8243 H   0  0  0  0  0  0  0  0  0  0  0  0
   -5.1326    1.7845    0.6594 H   0  0  0  0  0  0  0  0  0  0  0  0
   -6.3361    0.5178    0.9133 H   0  0  0  0  0  0  0  0  0  0  0  0
   -4.6088   -1.0648    1.6321 H   0  0  0  0  0  0  0  0  0  0  0  0
   -4.5064    0.3962    2.6115 H   0  0  0  0  0  0  0  0  0  0  0  0
   -2.3145   -0.5054    1.8406 H   0  0  0  0  0  0  0  0  0  0  0  0
   -2.5564    1.1892    1.3620 H   0  0  0  0  0  0  0  0  0  0  0  0
  1  2  2  0
  2  3  1  0
  3  4  2  0
  4  5  1  0
  5  6  2  0
  6  7  1  0
  7  8  1  0
  8  9  2  0
  9 10  1  0
 10 11  2  0
 11 12  1  0
 12 13  2  0
  6 14  1  0
  2 15  1  0
 15 16  1  0
 16 17  1  0
 17 18  1  0
 18 19  1  0
 19 20  1  0
 14  3  1  0
 20 15  1  0
 13  8  1  0
  7 21  1  0
  7 22  1  0
  9 23  1  0
 10 24  1  0
 11 25  1  0
 12 26  1  0
 13 27  1  0
 16 28  1  0
 16 29  1  0
 17 30  1  0
 17 31  1  0
 18 32  1  0
 18 33  1  0
 19 34  1  0
 19 35  1  0
 20 36  1  0
 20 37  1  0
M  END
>  <_SMILES>  (56) 
O=C(c1nnc(Cc2ccccc2)o1)N1CCCCC1

$$$$

     RDKit          3D

 27 28  0  0  0  0  0  0  0  0999 V2000
    5.1838    0.3850    0.7702 C   0  0  0  0  0  0  0  0  0  0  0  0
    3.7126    0.3431    0.7938 C   0  0  0  0  0  0  0  0  0  0  0  0
    2.8743    0.7187    1.7347 N   0  0  0  0  0  0  0  0  0  0  0  0
    1.6095    0.4573    1.2508 N   0  0  0  0  0  0  0  0  0  0  0  0
    1.7593   -0.0484    0.0401 C   0  0  0  0  0  0  0  0  0  0  0  0
    0.7363   -0.5110   -0.8904 C   0  0  0  0  0  0  0  0  0  0  0  0
    1.0403   -1.1348   -1.9126 O   0  0  0  0  0  0  0  0  0  0  0  0
   -0.6222   -0.2538   -0.6158 N   0  0  0  0  0  0  0  0  0  0  0  0
   -1.0931    0.6474    0.4399 C   0  0  0  0  0  0  0  0  0  0  0  0
   -2.5269    1.1172    0.2124 C   0  0  0  0  0  0  0  0  0  0  0  0
   -3.4975   -0.0498    0.0501 C   0  0  0  0  0  0  0  0  0  0  0  0
   -2.8764   -1.2491   -0.6662 C   0  0  0  0  0  0  0  0  0  0  0  0
   -1.6371   -0.8702   -1.4688 C   0  0  0  0  0  0  0  0  0  0  0  0
    3.0858   -0.1563   -0.3126 O   0  0  0  0  0  0  0  0  0  0  0  0
    5.5943   -0.6215    0.6465 H   0  0  0  0  0  0  0  0  0  0  0  0
    5.5366    1.0084   -0.0566 H   0  0  0  0  0  0  0  0  0  0  0  0
    5.5739    0.8015    1.7035 H   0  0  0  0  0  0  0  0  0  0  0  0
   -1.0201    0.1076    1.3909 H   0  0  0  0  0  0  0  0  0  0  0  0
   -0.4411    1.5252    0.4831 H   0  0  0  0  0  0  0  0  0  0  0  0
   -2.5593    1.7331   -0.6958 H   0  0  0  0  0  0  0  0  0  0  0  0
   -2.8518    1.7607    1.0376 H   0  0  0  0  0  0  0  0  0  0  0  0
   -3.8593   -0.3730    1.0338 H   0  0  0  0  0  0  0  0  0  0  0  0
   -4.3802    0.2974   -0.5003 H   0  0  0  0  0  0  0  0  0  0  0  0
   -3.6219   -1.7203   -1.3166 H   0  0  0  0  0  0  0  0  0  0  0  0
   -2.5962   -2.0001    0.0839 H   0  0  0  0  0  0  0  0  0  0  0  0
   -1.2353   -1.7639   -1.9578 H   0  0  0  0  0  0  0  0  0  0  0  0
   -1.8883   -0.1504   -2.2568 H   0  0  0  0  0  0  0  0  0  0  0  0
  1  2  1  0
  2  3  2  0
  3  4  1  0
  4  5  2  0
  5  6  1  0
  6  7  2  0
  6  8  1  0
  8  9  1  0
  9 10  1  0
 10 11  1  0
 11 12  1  0
 12 13  1  0
  5 14  1  0
 14  2  1  0
 13  8  1  0
  1 15  1  0
  1 16  1  0
  1 17  1  0
  9 18  1  0
  9 19  1  0
 10 20  1  0
 10 21  1  0
 11 22  1  0
 11 23  1  0
 12 24  1  0
 12 25  1  0
 13 26  1  0
 13 27  1  0
M  END
>  <_SMILES>  (57) 
Cc1nnc(C(=O)N2CCCCC2)o1

$$$$

     RDKit          3D

 28 30  0  0  0  0  0  0  0  0999 V2000
    3.0966    1.5049   -2.3451 O   0  0  0  0  0  0  0  0  0  0  0  0
    2.3516    0.9211   -1.5536 C   0  0  0  0  0  0  0  0  0  0  0  0
    0.9139    1.1302   -1.5124 C   0  0  0  0  0  0  0  0  0  0  0  0
    0.2444    2.0487   -2.1826 N   0  0  0  0  0  0  0  0  0  0  0  0
   -1.0865    1.8838   -1.8557 N   0  0  0  0  0  0  0  0  0  0  0  0
   -1.1454    0.8699   -1.0167 C   0  0  0  0  0  0  0  0  0  0  0  0
   -2.2951    0.2651   -0.3565 C   0  0  0  0  0  0  0  0  0  0  0  0
   -3.5754    0.8010   -0.5654 C   0  0  0  0  0  0  0  0  0  0  0  0
   -4.6957    0.2424    0.0551 C   0  0  0  0  0  0  0  0  0  0  0  0
   -4.5503   -0.8608    0.8927 C   0  0  0  0  0  0  0  0  0  0  0  0
   -3.2871   -1.4065    1.1102 C   0  0  0  0  0  0  0  0  0  0  0  0
   -2.1661   -0.8475    0.4896 C   0  0  0  0  0  0  0  0  0  0  0  0
    0.0897    0.3392   -0.7481 O   0  0  0  0  0  0  0  0  0  0  0  0
    2.8913    0.0076   -0.6583 N   0  0  0  0  0  0  0  0  0  0  0  0
    4.3071   -0.0850   -0.3122 C   0  0  0  0  0  0  0  0  0  0  0  0
    3.8625   -0.9076    0.8993 C   0  0  0  0  0  0  0  0  0  0  0  0
    2.4453   -0.3706    0.6763 C   0  0  0  0  0  0  0  0  0  0  0  0
   -3.7085    1.6632   -1.2179 H   0  0  0  0  0  0  0  0  0  0  0  0
   -5.6806    0.6696   -0.1176 H   0  0  0  0  0  0  0  0  0  0  0  0
   -5.4223   -1.2961    1.3748 H   0  0  0  0  0  0  0  0  0  0  0  0
   -3.1740   -2.2692    1.7623 H   0  0  0  0  0  0  0  0  0  0  0  0
   -1.1921   -1.2951    0.6738 H   0  0  0  0  0  0  0  0  0  0  0  0
    4.7565    0.8851   -0.0794 H   0  0  0  0  0  0  0  0  0  0  0  0
    4.9074   -0.6232   -1.0491 H   0  0  0  0  0  0  0  0  0  0  0  0
    4.3252   -0.6313    1.8507 H   0  0  0  0  0  0  0  0  0  0  0  0
    3.9548   -1.9907    0.7587 H   0  0  0  0  0  0  0  0  0  0  0  0
    1.6652   -1.1348    0.6938 H   0  0  0  0  0  0  0  0  0  0  0  0
    2.1676    0.4863    1.2971 H   0  0  0  0  0  0  0  0  0  0  0  0
  1  2  2  0
  2  3  1  0
  3  4  2  0
  4  5  1  0
  5  6  2  0
  6  7  1  0
  7  8  2  0
  8  9  1  0
  9 10  2  0
 10 11  1  0
 11 12  2  0
  6 13  1  0
  2 14  1  0
 14 15  1  0
 15 16  1  0
 16 17  1  0
 13  3  1  0
 17 14  1  0
 12  7  1  0
  8 18  1  0
  9 19  1  0
 10 20  1  0
 11 21  1  0
 12 22  1  0
 15 23  1  0
 15 24  1  0
 16 25  1  0
 16 26  1  0
 17 27  1  0
 17 28  1  0
M  END
>  <_SMILES>  (58) 
O=C(c1nnc(-c2ccccc2)o1)N1CCC1

$$$$

     RDKit          3D

 24 25  0  0  0  0  0  0  0  0999 V2000
   -5.2734    0.1204   -0.7159 C   0  0  0  0  0  0  0  0  0  0  0  0
   -3.9750    0.1468   -0.0972 N   0  0  0  0  0  0  0  0  0  0  0  0
   -2.8066    0.1570   -0.8434 C   0  0  0  0  0  0  0  0  0  0  0  0
   -2.8215    0.2304   -2.0708 O   0  0  0  0  0  0  0  0  0  0  0  0
   -1.5985    0.0639   -0.0482 C   0  0  0  0  0  0  0  0  0  0  0  0
   -1.5345   -0.0429    1.2660 N   0  0  0  0  0  0  0  0  0  0  0  0
   -0.1917   -0.1066    1.5797 N   0  0  0  0  0  0  0  0  0  0  0  0
    0.4681   -0.0351    0.4386 C   0  0  0  0  0  0  0  0  0  0  0  0
    1.9026   -0.0563    0.1819 C   0  0  0  0  0  0  0  0  0  0  0  0
    2.4246    0.0308   -1.1181 C   0  0  0  0  0  0  0  0  0  0  0  0
    3.8051    0.0081   -1.3363 C   0  0  0  0  0  0  0  0  0  0  0  0
    4.6807   -0.1020   -0.2583 C   0  0  0  0  0  0  0  0  0  0  0  0
    4.1790   -0.1894    1.0381 C   0  0  0  0  0  0  0  0  0  0  0  0
    2.7990   -0.1667    1.2563 C   0  0  0  0  0  0  0  0  0  0  0  0
   -0.3657    0.0740   -0.6444 O   0  0  0  0  0  0  0  0  0  0  0  0
   -5.2945    0.7811   -1.5866 H   0  0  0  0  0  0  0  0  0  0  0  0
   -6.0151    0.4454    0.0171 H   0  0  0  0  0  0  0  0  0  0  0  0
   -5.4888   -0.9039   -1.0311 H   0  0  0  0  0  0  0  0  0  0  0  0
   -3.8907   -0.0181    0.9014 H   0  0  0  0  0  0  0  0  0  0  0  0
    1.7621    0.1176   -1.9775 H   0  0  0  0  0  0  0  0  0  0  0  0
    4.1953    0.0765   -2.3489 H   0  0  0  0  0  0  0  0  0  0  0  0
    5.7543   -0.1196   -0.4288 H   0  0  0  0  0  0  0  0  0  0  0  0
    4.8603   -0.2753    1.8810 H   0  0  0  0  0  0  0  0  0  0  0  0
    2.4250   -0.2360    2.2769 H   0  0  0  0  0  0  0  0  0  0  0  0
  1  2  1  0
  2  3  1  0
  3  4  2  0
  3  5  1  0
  5  6  2  0
  6  7  1  0
  7  8  2  0
  8  9  1  0
  9 10  2  0
 10 11  1  0
 11 12  2  0
 12 13  1  0
 13 14  2  0
  8 15  1  0
 15  5  1  0
 14  9  1  0
  1 16  1  0
  1 17  1  0
  1 18  1  0
  2 19  1  0
 10 20  1  0
 11 21  1  0
 12 22  1  0
 13 23  1  0
 14 24  1  0
M  END
>  <_SMILES>  (59) 
CNC(=O)c1nnc(-c2ccccc2)o1

$$$$

     RDKit          3D

 34 36  0  0  0  0  0  0  0  0999 V2000
   -1.4370   -2.3147    0.9495 O   0  0  0  0  0  0  0  0  0  0  0  0
   -1.3119   -1.1922    0.4476 C   0  0  0  0  0  0  0  0  0  0  0  0
    0.0058   -0.6201    0.1705 C   0  0  0  0  0  0  0  0  0  0  0  0
    0.2563    0.6502   -0.0699 N   0  0  0  0  0  0  0  0  0  0  0  0
    1.5979    0.8868   -0.2807 N   0  0  0  0  0  0  0  0  0  0  0  0
    2.3388   -0.2024   -0.1709 C   0  0  0  0  0  0  0  0  0  0  0  0
    3.8044   -0.2324   -0.3402 C   0  0  0  0  0  0  0  0  0  0  0  0
    4.4748    0.9632   -0.6571 C   0  0  0  0  0  0  0  0  0  0  0  0
    5.8617    0.9955   -0.8298 C   0  0  0  0  0  0  0  0  0  0  0  0
    6.6070   -0.1705   -0.6881 C   0  0  0  0  0  0  0  0  0  0  0  0
    5.9668   -1.3659   -0.3741 C   0  0  0  0  0  0  0  0  0  0  0  0
    4.5782   -1.3974   -0.2014 C   0  0  0  0  0  0  0  0  0  0  0  0
    1.4094   -1.6078    0.1915 S   0  0  0  0  0  0  0  0  0  0  0  0
   -2.4684   -0.4457    0.1453 N   0  0  0  0  0  0  0  0  0  0  0  0
   -2.4766    0.7696   -0.6751 C   0  0  0  0  0  0  0  0  0  0  0  0
   -3.8398    1.0365   -1.3066 C   0  0  0  0  0  0  0  0  0  0  0  0
   -4.9534    1.1131   -0.2650 C   0  0  0  0  0  0  0  0  0  0  0  0
   -4.7224    0.1831    0.9258 C   0  0  0  0  0  0  0  0  0  0  0  0
   -3.7630   -0.9544    0.5960 C   0  0  0  0  0  0  0  0  0  0  0  0
    3.9143    1.8903   -0.7729 H   0  0  0  0  0  0  0  0  0  0  0  0
    6.3555    1.9326   -1.0741 H   0  0  0  0  0  0  0  0  0  0  0  0
    7.6856   -0.1477   -0.8214 H   0  0  0  0  0  0  0  0  0  0  0  0
    6.5473   -2.2785   -0.2617 H   0  0  0  0  0  0  0  0  0  0  0  0
    4.1241   -2.3540    0.0445 H   0  0  0  0  0  0  0  0  0  0  0  0
   -2.1927    1.6066   -0.0271 H   0  0  0  0  0  0  0  0  0  0  0  0
   -1.7348    0.6749   -1.4741 H   0  0  0  0  0  0  0  0  0  0  0  0
   -4.0695    0.2265   -2.0111 H   0  0  0  0  0  0  0  0  0  0  0  0
   -3.8133    1.9620   -1.8926 H   0  0  0  0  0  0  0  0  0  0  0  0
   -5.0503    2.1419    0.1025 H   0  0  0  0  0  0  0  0  0  0  0  0
   -5.9075    0.8707   -0.7484 H   0  0  0  0  0  0  0  0  0  0  0  0
   -4.3046    0.7695    1.7544 H   0  0  0  0  0  0  0  0  0  0  0  0
   -5.6806   -0.2159    1.2771 H   0  0  0  0  0  0  0  0  0  0  0  0
   -4.1674   -1.5851   -0.2046 H   0  0  0  0  0  0  0  0  0  0  0  0
   -3.6346   -1.5883    1.4799 H   0  0  0  0  0  0  0  0  0  0  0  0
  1  2  2  0
  2  3  1  0
  3  4  2  0
  4  5  1  0
  5  6  2  0
  6  7  1  0
  7  8  2  0
  8  9  1  0
  9 10  2  0
 10 11  1  0
 11 12  2  0
  6 13  1  0
  2 14  1  0
 14 15  1  0
 15 16  1  0
 16 17  1  0
 17 18  1  0
 18 19  1  0
 13  3  1  0
 19 14  1  0
 12  7  1  0
  8 20  1  0
  9 21  1  0
 10 22  1  0
 11 23  1  0
 12 24  1  0
 15 25  1  0
 15 26  1  0
 16 27  1  0
 16 28  1  0
 17 29  1  0
 17 30  1  0
 18 31  1  0
 18 32  1  0
 19 33  1  0
 19 34  1  0
M  END
>  <_SMILES>  (60) 
O=C(c1nnc(-c2ccccc2)s1)N1CCCCC1

$$$$

     RDKit          3D

 34 36  0  0  0  0  0  0  0  0999 V2000
   -0.9533   -2.2071   -0.0512 O   0  0  0  0  0  0  0  0  0  0  0  0
   -1.0413   -0.9764    0.0092 C   0  0  0  0  0  0  0  0  0  0  0  0
    0.1456   -0.1354   -0.0873 C   0  0  0  0  0  0  0  0  0  0  0  0
    0.2233    1.1750   -0.2241 N   0  0  0  0  0  0  0  0  0  0  0  0
    1.5651    1.4880   -0.2917 N   0  0  0  0  0  0  0  0  0  0  0  0
    2.2210    0.3481   -0.2058 C   0  0  0  0  0  0  0  0  0  0  0  0
    3.6550    0.0872   -0.2279 C   0  0  0  0  0  0  0  0  0  0  0  0
    4.5544    1.1590   -0.3504 C   0  0  0  0  0  0  0  0  0  0  0  0
    5.9354    0.9377   -0.3741 C   0  0  0  0  0  0  0  0  0  0  0  0
    6.4294   -0.3604   -0.2754 C   0  0  0  0  0  0  0  0  0  0  0  0
    8.1268   -0.6349   -0.3041 Cl  0  0  0  0  0  0  0  0  0  0  0  0
    5.5549   -1.4374   -0.1536 C   0  0  0  0  0  0  0  0  0  0  0  0
    4.1737   -1.2142   -0.1300 C   0  0  0  0  0  0  0  0  0  0  0  0
    1.3863   -0.7288   -0.0756 O   0  0  0  0  0  0  0  0  0  0  0  0
   -2.3082   -0.3789    0.1618 N   0  0  0  0  0  0  0  0  0  0  0  0
   -3.4958   -1.2288    0.0863 C   0  0  0  0  0  0  0  0  0  0  0  0
   -4.6556   -0.4982   -0.5806 C   0  0  0  0  0  0  0  0  0  0  0  0
   -5.0228    0.7977    0.1426 C   0  0  0  0  0  0  0  0  0  0  0  0
   -3.9022    1.3199    1.0382 C   0  0  0  0  0  0  0  0  0  0  0  0
   -2.5204    1.0418    0.4541 C   0  0  0  0  0  0  0  0  0  0  0  0
    4.1824    2.1801   -0.4290 H   0  0  0  0  0  0  0  0  0  0  0  0
    6.6147    1.7808   -0.4697 H   0  0  0  0  0  0  0  0  0  0  0  0
    5.9378   -2.4520   -0.0769 H   0  0  0  0  0  0  0  0  0  0  0  0
    3.5083   -2.0710   -0.0350 H   0  0  0  0  0  0  0  0  0  0  0  0
   -3.7574   -1.5228    1.1096 H   0  0  0  0  0  0  0  0  0  0  0  0
   -3.2764   -2.1451   -0.4716 H   0  0  0  0  0  0  0  0  0  0  0  0
   -5.5331   -1.1516   -0.6407 H   0  0  0  0  0  0  0  0  0  0  0  0
   -4.3742   -0.2565   -1.6138 H   0  0  0  0  0  0  0  0  0  0  0  0
   -5.9209    0.6429    0.7525 H   0  0  0  0  0  0  0  0  0  0  0  0
   -5.2879    1.5569   -0.6033 H   0  0  0  0  0  0  0  0  0  0  0  0
   -3.9779    0.8334    2.0195 H   0  0  0  0  0  0  0  0  0  0  0  0
   -4.0329    2.3939    1.2114 H   0  0  0  0  0  0  0  0  0  0  0  0
   -2.3894    1.5942   -0.4833 H   0  0  0  0  0  0  0  0  0  0  0  0
   -1.7646    1.3800    1.1697 H   0  0  0  0  0  0  0  0  0  0  0  0
  1  2  2  0
  2  3  1  0
  3  4  2  0
  4  5  1  0
  5  6  2  0
  6  7  1  0
  7  8  1  0
  8  9  2  0
  9 10  1  0
 10 11  1  0
 10 12  2  0
 12 13  1  0
  6 14  1  0
  2 15  1  0
 15 16  1  0
 16 17  1  0
 17 18  1  0
 18 19  1  0
 19 20  1  0
 14  3  1  0
 20 15  1  0
 13  7  2  0
  8 21  1  0
  9 22  1  0
 12 23  1  0
 13 24  1  0
 16 25  1  0
 16 26  1  0
 17 27  1  0
 17 28  1  0
 18 29  1  0
 18 30  1  0
 19 31  1  0
 19 32  1  0
 20 33  1  0
 20 34  1  0
M  END
>  <_SMILES>  (61) 
O=C(c1nnc(-c2ccc(Cl)cc2)o1)N1CCCCC1

$$$$

     RDKit          3D

 34 36  0  0  0  0  0  0  0  0999 V2000
   -0.8212    0.6732    2.0920 O   0  0  0  0  0  0  0  0  0  0  0  0
   -0.9755    0.3281    0.9159 C   0  0  0  0  0  0  0  0  0  0  0  0
    0.1716    0.1130    0.0422 C   0  0  0  0  0  0  0  0  0  0  0  0
    0.1941   -0.0751   -1.2639 N   0  0  0  0  0  0  0  0  0  0  0  0
    1.5195   -0.2059   -1.6232 N   0  0  0  0  0  0  0  0  0  0  0  0
    2.2229   -0.0755   -0.5163 C   0  0  0  0  0  0  0  0  0  0  0  0
    3.6654   -0.1213   -0.3108 C   0  0  0  0  0  0  0  0  0  0  0  0
    4.2388    0.0488    0.9613 C   0  0  0  0  0  0  0  0  0  0  0  0
    5.6258   -0.0000    1.1301 C   0  0  0  0  0  0  0  0  0  0  0  0
    6.4441   -0.2187    0.0291 C   0  0  0  0  0  0  0  0  0  0  0  0
    7.7723   -0.2653    0.1922 F   0  0  0  0  0  0  0  0  0  0  0  0
    5.9030   -0.3895   -1.2385 C   0  0  0  0  0  0  0  0  0  0  0  0
    4.5166   -0.3408   -1.4080 C   0  0  0  0  0  0  0  0  0  0  0  0
    1.4356    0.1317    0.5840 O   0  0  0  0  0  0  0  0  0  0  0  0
   -2.2789    0.1517    0.4108 N   0  0  0  0  0  0  0  0  0  0  0  0
   -3.4124    0.5352    1.2513 C   0  0  0  0  0  0  0  0  0  0  0  0
   -4.5502    1.1093    0.4149 C   0  0  0  0  0  0  0  0  0  0  0  0
   -5.0389    0.1328   -0.6551 C   0  0  0  0  0  0  0  0  0  0  0  0
   -4.0214   -0.9589   -0.9766 C   0  0  0  0  0  0  0  0  0  0  0  0
   -2.5849   -0.4520   -0.8895 C   0  0  0  0  0  0  0  0  0  0  0  0
    3.6118    0.2219    1.8345 H   0  0  0  0  0  0  0  0  0  0  0  0
    6.0697    0.1315    2.1122 H   0  0  0  0  0  0  0  0  0  0  0  0
    6.5598   -0.5589   -2.0861 H   0  0  0  0  0  0  0  0  0  0  0  0
    4.1010   -0.4753   -2.4060 H   0  0  0  0  0  0  0  0  0  0  0  0
   -3.7403   -0.3600    1.7928 H   0  0  0  0  0  0  0  0  0  0  0  0
   -3.1032    1.2743    1.9977 H   0  0  0  0  0  0  0  0  0  0  0  0
   -5.3861    1.4029    1.0596 H   0  0  0  0  0  0  0  0  0  0  0  0
   -4.1993    2.0249   -0.0789 H   0  0  0  0  0  0  0  0  0  0  0  0
   -5.2811    0.6958   -1.5646 H   0  0  0  0  0  0  0  0  0  0  0  0
   -5.9741   -0.3390   -0.3303 H   0  0  0  0  0  0  0  0  0  0  0  0
   -4.2193   -1.3719   -1.9721 H   0  0  0  0  0  0  0  0  0  0  0  0
   -4.1511   -1.7842   -0.2643 H   0  0  0  0  0  0  0  0  0  0  0  0
   -1.9070   -1.2928   -1.0657 H   0  0  0  0  0  0  0  0  0  0  0  0
   -2.4071    0.3101   -1.6567 H   0  0  0  0  0  0  0  0  0  0  0  0
  1  2  2  0
  2  3  1  0
  3  4  2  0
  4  5  1  0
  5  6  2  0
  6  7  1  0
  7  8  1  0
  8  9  2  0
  9 10  1  0
 10 11  1  0
 10 12  2  0
 12 13  1  0
  6 14  1  0
  2 15  1  0
 15 16  1  0
 16 17  1  0
 17 18  1  0
 18 19  1  0
 19 20  1  0
 14  3  1  0
 20 15  1  0
 13  7  2  0
  8 21  1  0
  9 22  1  0
 12 23  1  0
 13 24  1  0
 16 25  1  0
 16 26  1  0
 17 27  1  0
 17 28  1  0
 18 29  1  0
 18 30  1  0
 19 31  1  0
 19 32  1  0
 20 33  1  0
 20 34  1  0
M  END
>  <_SMILES>  (62) 
O=C(c1nnc(-c2ccc(F)cc2)o1)N1CCCCC1

$$$$

     RDKit          3D

 34 36  0  0  0  0  0  0  0  0999 V2000
   -0.8619   -1.2638    1.9895 O   0  0  0  0  0  0  0  0  0  0  0  0
   -0.9965   -0.6588    0.9208 C   0  0  0  0  0  0  0  0  0  0  0  0
    0.1628   -0.3048    0.1138 C   0  0  0  0  0  0  0  0  0  0  0  0
    0.2110    0.0145   -1.1656 N   0  0  0  0  0  0  0  0  0  0  0  0
    1.5400    0.2231   -1.4717 N   0  0  0  0  0  0  0  0  0  0  0  0
    2.2203   -0.0067   -0.3667 C   0  0  0  0  0  0  0  0  0  0  0  0
    3.6551    0.0555   -0.1196 C   0  0  0  0  0  0  0  0  0  0  0  0
    4.5237    0.4130   -1.1642 C   0  0  0  0  0  0  0  0  0  0  0  0
    5.9041    0.4822   -0.9586 C   0  0  0  0  0  0  0  0  0  0  0  0
    6.4342    0.1941    0.2971 C   0  0  0  0  0  0  0  0  0  0  0  0
    5.5820   -0.1621    1.3399 C   0  0  0  0  0  0  0  0  0  0  0  0
    6.2377   -0.5176    2.8909 Cl  0  0  0  0  0  0  0  0  0  0  0  0
    4.2025   -0.2330    1.1396 C   0  0  0  0  0  0  0  0  0  0  0  0
    1.4133   -0.3494    0.6844 O   0  0  0  0  0  0  0  0  0  0  0  0
   -2.2956   -0.3312    0.4622 N   0  0  0  0  0  0  0  0  0  0  0  0
   -2.5650    0.8801   -0.3196 C   0  0  0  0  0  0  0  0  0  0  0  0
   -3.8377    0.7511   -1.1512 C   0  0  0  0  0  0  0  0  0  0  0  0
   -5.0238    0.3378   -0.2868 C   0  0  0  0  0  0  0  0  0  0  0  0
   -4.7000   -0.9394    0.4796 C   0  0  0  0  0  0  0  0  0  0  0  0
   -3.4123   -0.7956    1.2851 C   0  0  0  0  0  0  0  0  0  0  0  0
    4.1256    0.6408   -2.1530 H   0  0  0  0  0  0  0  0  0  0  0  0
    6.5628    0.7601   -1.7781 H   0  0  0  0  0  0  0  0  0  0  0  0
    7.5081    0.2479    0.4562 H   0  0  0  0  0  0  0  0  0  0  0  0
    3.5587   -0.5154    1.9701 H   0  0  0  0  0  0  0  0  0  0  0  0
   -2.6641    1.7046    0.3979 H   0  0  0  0  0  0  0  0  0  0  0  0
   -1.7389    1.1456   -0.9763 H   0  0  0  0  0  0  0  0  0  0  0  0
   -4.0544    1.7024   -1.6495 H   0  0  0  0  0  0  0  0  0  0  0  0
   -3.6841    0.0008   -1.9368 H   0  0  0  0  0  0  0  0  0  0  0  0
   -5.9075    0.1823   -0.9153 H   0  0  0  0  0  0  0  0  0  0  0  0
   -5.2653    1.1416    0.4191 H   0  0  0  0  0  0  0  0  0  0  0  0
   -4.5908   -1.7668   -0.2328 H   0  0  0  0  0  0  0  0  0  0  0  0
   -5.5299   -1.1959    1.1471 H   0  0  0  0  0  0  0  0  0  0  0  0
   -3.5451   -0.0743    2.1008 H   0  0  0  0  0  0  0  0  0  0  0  0
   -3.1692   -1.7629    1.7389 H   0  0  0  0  0  0  0  0  0  0  0  0
  1  2  2  0
  2  3  1  0
  3  4  2  0
  4  5  1  0
  5  6  2  0
  6  7  1  0
  7  8  2  0
  8  9  1  0
  9 10  2  0
 10 11  1  0
 11 12  1  0
 11 13  2  0
  6 14  1  0
  2 15  1  0
 15 16  1  0
 16 17  1  0
 17 18  1  0
 18 19  1  0
 19 20  1  0
 14  3  1  0
 20 15  1  0
 13  7  1  0
  8 21  1  0
  9 22  1  0
 10 23  1  0
 13 24  1  0
 16 25  1  0
 16 26  1  0
 17 27  1  0
 17 28  1  0
 18 29  1  0
 18 30  1  0
 19 31  1  0
 19 32  1  0
 20 33  1  0
 20 34  1  0
M  END
>  <_SMILES>  (63) 
O=C(c1nnc(-c2cccc(Cl)c2)o1)N1CCCCC1

$$$$

     RDKit          3D

 34 36  0  0  0  0  0  0  0  0999 V2000
   -0.7283   -2.3484    0.1113 O   0  0  0  0  0  0  0  0  0  0  0  0
   -0.9355   -1.1301    0.1367 C   0  0  0  0  0  0  0  0  0  0  0  0
    0.1331   -0.1850   -0.1514 C   0  0  0  0  0  0  0  0  0  0  0  0
    0.0421    1.0778   -0.5229 N   0  0  0  0  0  0  0  0  0  0  0  0
    1.3314    1.5276   -0.7189 N   0  0  0  0  0  0  0  0  0  0  0  0
    2.1262    0.5041   -0.4792 C   0  0  0  0  0  0  0  0  0  0  0  0
    3.5787    0.4108   -0.5424 C   0  0  0  0  0  0  0  0  0  0  0  0
    4.3334    1.5420   -0.8998 C   0  0  0  0  0  0  0  0  0  0  0  0
    5.7291    1.4844   -0.9687 C   0  0  0  0  0  0  0  0  0  0  0  0
    6.3869    0.2920   -0.6801 C   0  0  0  0  0  0  0  0  0  0  0  0
    5.6452   -0.8287   -0.3269 C   0  0  0  0  0  0  0  0  0  0  0  0
    6.2792   -1.9754   -0.0495 F   0  0  0  0  0  0  0  0  0  0  0  0
    4.2560   -0.7822   -0.2557 C   0  0  0  0  0  0  0  0  0  0  0  0
    1.4371   -0.6214   -0.1163 O   0  0  0  0  0  0  0  0  0  0  0  0
   -2.2322   -0.6655    0.4260 N   0  0  0  0  0  0  0  0  0  0  0  0
   -2.5917    0.6914    0.8306 C   0  0  0  0  0  0  0  0  0  0  0  0
   -3.7568    1.2086   -0.0097 C   0  0  0  0  0  0  0  0  0  0  0  0
   -4.8610    0.1633   -0.2122 C   0  0  0  0  0  0  0  0  0  0  0  0
   -4.6849   -1.0521    0.6934 C   0  0  0  0  0  0  0  0  0  0  0  0
   -3.2939   -1.6647    0.5275 C   0  0  0  0  0  0  0  0  0  0  0  0
    3.8327    2.4826   -1.1292 H   0  0  0  0  0  0  0  0  0  0  0  0
    6.2975    2.3685   -1.2472 H   0  0  0  0  0  0  0  0  0  0  0  0
    7.4694    0.2274   -0.7283 H   0  0  0  0  0  0  0  0  0  0  0  0
    3.7208   -1.6857    0.0237 H   0  0  0  0  0  0  0  0  0  0  0  0
   -1.7584    1.3903    0.7974 H   0  0  0  0  0  0  0  0  0  0  0  0
   -2.8831    0.6397    1.8876 H   0  0  0  0  0  0  0  0  0  0  0  0
   -3.3891    1.5240   -0.9941 H   0  0  0  0  0  0  0  0  0  0  0  0
   -4.1731    2.1041    0.4663 H   0  0  0  0  0  0  0  0  0  0  0  0
   -5.8422    0.6209   -0.0422 H   0  0  0  0  0  0  0  0  0  0  0  0
   -4.8516   -0.1671   -1.2587 H   0  0  0  0  0  0  0  0  0  0  0  0
   -5.4517   -1.8047    0.4788 H   0  0  0  0  0  0  0  0  0  0  0  0
   -4.8305   -0.7461    1.7371 H   0  0  0  0  0  0  0  0  0  0  0  0
   -3.0714   -2.3235    1.3750 H   0  0  0  0  0  0  0  0  0  0  0  0
   -3.2632   -2.2787   -0.3810 H   0  0  0  0  0  0  0  0  0  0  0  0
  1  2  2  0
  2  3  1  0
  3  4  2  0
  4  5  1  0
  5  6  2  0
  6  7  1  0
  7  8  2  0
  8  9  1  0
  9 10  2  0
 10 11  1  0
 11 12  1  0
 11 13  2  0
  6 14  1  0
  2 15  1  0
 15 16  1  0
 16 17  1  0
 17 18  1  0
 18 19  1  0
 19 20  1  0
 14  3  1  0
 20 15  1  0
 13  7  1  0
  8 21  1  0
  9 22  1  0
 10 23  1  0
 13 24  1  0
 16 25  1  0
 16 26  1  0
 17 27  1  0
 17 28  1  0
 18 29  1  0
 18 30  1  0
 19 31  1  0
 19 32  1  0
 20 33  1  0
 20 34  1  0
M  END
>  <_SMILES>  (64) 
O=C(c1nnc(-c2cccc(F)c2)o1)N1CCCCC1

$$$$

     RDKit          3D

 40 42  0  0  0  0  0  0  0  0999 V2000
    1.2941   -1.9341   -1.1162 O   0  0  0  0  0  0  0  0  0  0  0  0
    1.5750   -0.8761   -0.5432 C   0  0  0  0  0  0  0  0  0  0  0  0
    0.5329   -0.0293    0.0251 C   0  0  0  0  0  0  0  0  0  0  0  0
    0.6587    1.0174    0.8201 N   0  0  0  0  0  0  0  0  0  0  0  0
   -0.6160    1.4616    1.1015 N   0  0  0  0  0  0  0  0  0  0  0  0
   -1.4376    0.6500    0.4713 C   0  0  0  0  0  0  0  0  0  0  0  0
   -2.9260    0.6592    0.4331 C   0  0  0  0  0  0  0  0  0  0  0  0
   -3.4566    0.7370   -1.0016 C   0  0  0  0  0  0  0  0  0  0  0  0
   -4.9802    0.8838   -1.0364 C   0  0  0  0  0  0  0  0  0  0  0  0
   -5.6868    0.2244    0.1493 C   0  0  0  0  0  0  0  0  0  0  0  0
   -4.9010   -0.9620    0.6896 C   0  0  0  0  0  0  0  0  0  0  0  0
   -3.5109   -0.5511    1.1838 C   0  0  0  0  0  0  0  0  0  0  0  0
   -0.7860   -0.3251   -0.2329 O   0  0  0  0  0  0  0  0  0  0  0  0
    2.9257   -0.4896   -0.4284 N   0  0  0  0  0  0  0  0  0  0  0  0
    3.9610   -1.4308   -0.8525 C   0  0  0  0  0  0  0  0  0  0  0  0
    5.1947   -1.3319    0.0374 C   0  0  0  0  0  0  0  0  0  0  0  0
    5.7884    0.0767    0.0582 C   0  0  0  0  0  0  0  0  0  0  0  0
    4.7986    1.1486   -0.3910 C   0  0  0  0  0  0  0  0  0  0  0  0
    3.3690    0.8284    0.0351 C   0  0  0  0  0  0  0  0  0  0  0  0
   -3.2555    1.5688    0.9553 H   0  0  0  0  0  0  0  0  0  0  0  0
   -3.1735   -0.1713   -1.5510 H   0  0  0  0  0  0  0  0  0  0  0  0
   -2.9995    1.5734   -1.5451 H   0  0  0  0  0  0  0  0  0  0  0  0
   -5.2502    1.9466   -1.0588 H   0  0  0  0  0  0  0  0  0  0  0  0
   -5.3521    0.4553   -1.9751 H   0  0  0  0  0  0  0  0  0  0  0  0
   -6.6925   -0.0904   -0.1512 H   0  0  0  0  0  0  0  0  0  0  0  0
   -5.8181    0.9628    0.9505 H   0  0  0  0  0  0  0  0  0  0  0  0
   -5.4526   -1.4432    1.5051 H   0  0  0  0  0  0  0  0  0  0  0  0
   -4.7963   -1.7140   -0.1027 H   0  0  0  0  0  0  0  0  0  0  0  0
   -2.8512   -1.4259    1.1177 H   0  0  0  0  0  0  0  0  0  0  0  0
   -3.5644   -0.3032    2.2522 H   0  0  0  0  0  0  0  0  0  0  0  0
    3.5790   -2.4569   -0.8289 H   0  0  0  0  0  0  0  0  0  0  0  0
    4.2124   -1.1985   -1.8941 H   0  0  0  0  0  0  0  0  0  0  0  0
    5.9558   -2.0512   -0.2855 H   0  0  0  0  0  0  0  0  0  0  0  0
    4.9153   -1.6107    1.0618 H   0  0  0  0  0  0  0  0  0  0  0  0
    6.1415    0.2975    1.0729 H   0  0  0  0  0  0  0  0  0  0  0  0
    6.6732    0.1182   -0.5883 H   0  0  0  0  0  0  0  0  0  0  0  0
    5.1028    2.1254    0.0015 H   0  0  0  0  0  0  0  0  0  0  0  0
    4.8343    1.2267   -1.4855 H   0  0  0  0  0  0  0  0  0  0  0  0
    2.7036    1.5967   -0.3707 H   0  0  0  0  0  0  0  0  0  0  0  0
    3.2909    0.8368    1.1282 H   0  0  0  0  0  0  0  0  0  0  0  0
  1  2  2  0
  2  3  1  0
  3  4  2  0
  4  5  1  0
  5  6  2  0
  6  7  1  0
  7  8  1  0
  8  9  1  0
  9 10  1  0
 10 11  1  0
 11 12  1  0
  6 13  1  0
  2 14  1  0
 14 15  1  0
 15 16  1  0
 16 17  1  0
 17 18  1  0
 18 19  1  0
 13  3  1  0
 19 14  1  0
 12  7  1  0
  7 20  1  0
  8 21  1  0
  8 22  1  0
  9 23  1  0
  9 24  1  0
 10 25  1  0
 10 26  1  0
 11 27  1  0
 11 28  1  0
 12 29  1  0
 12 30  1  0
 15 31  1  0
 15 32  1  0
 16 33  1  0
 16 34  1  0
 17 35  1  0
 17 36  1  0
 18 37  1  0
 18 38  1  0
 19 39  1  0
 19 40  1  0
M  END
>  <_SMILES>  (65) 
O=C(c1nnc(C2CCCCC2)o1)N1CCCCC1

$$$$

     RDKit          3D

 40 43  0  0  0  0  0  0  0  0999 V2000
    1.4771   -0.4753    1.8899 O   0  0  0  0  0  0  0  0  0  0  0  0
    1.7535   -0.2124    0.7263 C   0  0  0  0  0  0  0  0  0  0  0  0
    0.8235   -0.0099   -0.2741 N   0  0  0  0  0  0  0  0  0  0  0  0
   -0.6298   -0.0346   -0.0718 C   0  0  2  0  0  0  0  0  0  0  0  0
   -1.0909    1.0899    0.8877 C   0  0  0  0  0  0  0  0  0  0  0  0
   -2.6226    1.0787    1.0377 C   0  0  1  0  0  0  0  0  0  0  0  0
   -3.2696    1.3051   -0.3379 C   0  0  0  0  0  0  0  0  0  0  0  0
   -2.8469    0.1898   -1.3071 C   0  0  2  0  0  0  0  0  0  0  0  0
   -3.2964   -1.1685   -0.7475 C   0  0  0  0  0  0  0  0  0  0  0  0
   -2.6487   -1.4096    0.6247 C   0  0  2  0  0  0  0  0  0  0  0  0
   -3.0680   -0.2866    1.5888 C   0  0  0  0  0  0  0  0  0  0  0  0
   -1.1170   -1.4011    0.4738 C   0  0  0  0  0  0  0  0  0  0  0  0
   -1.3164    0.1960   -1.4459 C   0  0  0  0  0  0  0  0  0  0  0  0
    3.1796   -0.0500    0.3274 C   0  0  0  0  0  0  0  0  0  0  0  0
    4.0956    0.3919    1.2901 C   0  0  0  0  0  0  0  0  0  0  0  0
    5.4404    0.5574    0.9551 C   0  0  0  0  0  0  0  0  0  0  0  0
    5.8764    0.2725   -0.3386 C   0  0  0  0  0  0  0  0  0  0  0  0
    4.9721   -0.1855   -1.2972 C   0  0  0  0  0  0  0  0  0  0  0  0
    3.6250   -0.3515   -0.9666 C   0  0  0  0  0  0  0  0  0  0  0  0
    1.1538    0.4412   -1.1165 H   0  0  0  0  0  0  0  0  0  0  0  0
   -0.7598    2.0666    0.5111 H   0  0  0  0  0  0  0  0  0  0  0  0
   -0.6330    0.9718    1.8770 H   0  0  0  0  0  0  0  0  0  0  0  0
   -2.9312    1.8735    1.7259 H   0  0  0  0  0  0  0  0  0  0  0  0
   -2.9703    2.2822   -0.7367 H   0  0  0  0  0  0  0  0  0  0  0  0
   -4.3620    1.3224   -0.2400 H   0  0  0  0  0  0  0  0  0  0  0  0
   -3.3083    0.3570   -2.2868 H   0  0  0  0  0  0  0  0  0  0  0  0
   -3.0163   -1.9712   -1.4406 H   0  0  0  0  0  0  0  0  0  0  0  0
   -4.3892   -1.1935   -0.6561 H   0  0  0  0  0  0  0  0  0  0  0  0
   -2.9746   -2.3778    1.0213 H   0  0  0  0  0  0  0  0  0  0  0  0
   -2.6228   -0.4552    2.5770 H   0  0  0  0  0  0  0  0  0  0  0  0
   -4.1566   -0.2977    1.7242 H   0  0  0  0  0  0  0  0  0  0  0  0
   -0.6659   -1.6212    1.4480 H   0  0  0  0  0  0  0  0  0  0  0  0
   -0.8029   -2.2096   -0.1994 H   0  0  0  0  0  0  0  0  0  0  0  0
   -1.0050   -0.5801   -2.1579 H   0  0  0  0  0  0  0  0  0  0  0  0
   -0.9901    1.1530   -1.8751 H   0  0  0  0  0  0  0  0  0  0  0  0
    3.7606    0.6088    2.3026 H   0  0  0  0  0  0  0  0  0  0  0  0
    6.1472    0.9034    1.7052 H   0  0  0  0  0  0  0  0  0  0  0  0
    6.9254    0.3972   -0.5967 H   0  0  0  0  0  0  0  0  0  0  0  0
    5.3199   -0.4240   -2.2994 H   0  0  0  0  0  0  0  0  0  0  0  0
    2.9440   -0.7432   -1.7166 H   0  0  0  0  0  0  0  0  0  0  0  0
  1  2  2  0
  2  3  1  0
  4  3  1  6
  4  5  1  0
  5  6  1  0
  6  7  1  0
  7  8  1  0
  8  9  1  0
  9 10  1  0
 10 11  1  0
 10 12  1  0
  8 13  1  0
  2 14  1  0
 14 15  2  0
 15 16  1  0
 16 17  2  0
 17 18  1  0
 18 19  2  0
 12  4  1  0
 19 14  1  0
 13  4  1  0
 11  6  1  0
  3 20  1  0
  5 21  1  0
  5 22  1  0
  6 23  1  1
  7 24  1  0
  7 25  1  0
  8 26  1  6
  9 27  1  0
  9 28  1  0
 10 29  1  1
 11 30  1  0
 11 31  1  0
 12 32  1  0
 12 33  1  0
 13 34  1  0
 13 35  1  0
 15 36  1  0
 16 37  1  0
 17 38  1  0
 18 39  1  0
 19 40  1  0
M  END
>  <_SMILES>  (66) 
O=C(N[C@]12C[C@H]3C[C@H](C[C@H](C3)C1)C2)c1ccccc1

$$$$

     RDKit          3D

 37 40  0  0  0  0  0  0  0  0999 V2000
    1.7751   -1.6598    1.1409 O   0  0  0  0  0  0  0  0  0  0  0  0
    2.1211   -0.8041    0.3330 C   0  0  0  0  0  0  0  0  0  0  0  0
    1.2420    0.0661   -0.2775 N   0  0  0  0  0  0  0  0  0  0  0  0
   -0.2046    0.1104   -0.0680 C   0  0  2  0  0  0  0  0  0  0  0  0
   -0.5604    0.4282    1.4056 C   0  0  0  0  0  0  0  0  0  0  0  0
   -2.0860    0.5187    1.5870 C   0  0  1  0  0  0  0  0  0  0  0  0
   -2.6386    1.6389    0.6919 C   0  0  0  0  0  0  0  0  0  0  0  0
   -2.3183    1.3397   -0.7809 C   0  0  2  0  0  0  0  0  0  0  0  0
   -2.9597    0.0015   -1.1798 C   0  0  0  0  0  0  0  0  0  0  0  0
   -2.4090   -1.1284   -0.2957 C   0  0  2  0  0  0  0  0  0  0  0  0
   -2.7247   -0.8195    1.1777 C   0  0  0  0  0  0  0  0  0  0  0  0
   -0.8836   -1.2200   -0.4785 C   0  0  0  0  0  0  0  0  0  0  0  0
   -0.7945    1.2399   -0.9550 C   0  0  0  0  0  0  0  0  0  0  0  0
    3.4995   -0.6109   -0.0725 C   0  0  0  0  0  0  0  0  0  0  0  0
    4.6576   -1.2660    0.3020 C   0  0  0  0  0  0  0  0  0  0  0  0
    5.7194   -0.6598   -0.4106 C   0  0  0  0  0  0  0  0  0  0  0  0
    5.1499    0.3286   -1.1775 C   0  0  0  0  0  0  0  0  0  0  0  0
    3.8064    0.3699   -0.9832 O   0  0  0  0  0  0  0  0  0  0  0  0
    1.6633    0.7238   -0.9251 H   0  0  0  0  0  0  0  0  0  0  0  0
   -0.0911    1.3724    1.7119 H   0  0  0  0  0  0  0  0  0  0  0  0
   -0.1665   -0.3421    2.0790 H   0  0  0  0  0  0  0  0  0  0  0  0
   -2.3204    0.7347    2.6354 H   0  0  0  0  0  0  0  0  0  0  0  0
   -2.2011    2.6018    0.9830 H   0  0  0  0  0  0  0  0  0  0  0  0
   -3.7233    1.7277    0.8290 H   0  0  0  0  0  0  0  0  0  0  0  0
   -2.7117    2.1419   -1.4152 H   0  0  0  0  0  0  0  0  0  0  0  0
   -4.0499    0.0623   -1.0747 H   0  0  0  0  0  0  0  0  0  0  0  0
   -2.7532   -0.2137   -2.2354 H   0  0  0  0  0  0  0  0  0  0  0  0
   -2.8722   -2.0794   -0.5814 H   0  0  0  0  0  0  0  0  0  0  0  0
   -3.8107   -0.7759    1.3259 H   0  0  0  0  0  0  0  0  0  0  0  0
   -2.3482   -1.6261    1.8188 H   0  0  0  0  0  0  0  0  0  0  0  0
   -0.6462   -1.4581   -1.5236 H   0  0  0  0  0  0  0  0  0  0  0  0
   -0.5025   -2.0557    0.1202 H   0  0  0  0  0  0  0  0  0  0  0  0
   -0.3295    2.2017   -0.6998 H   0  0  0  0  0  0  0  0  0  0  0  0
   -0.5543    1.0549   -2.0107 H   0  0  0  0  0  0  0  0  0  0  0  0
    4.7123   -2.0839    1.0081 H   0  0  0  0  0  0  0  0  0  0  0  0
    6.7698   -0.9119   -0.3702 H   0  0  0  0  0  0  0  0  0  0  0  0
    5.5438    1.0521   -1.8780 H   0  0  0  0  0  0  0  0  0  0  0  0
  1  2  2  0
  2  3  1  0
  4  3  1  1
  4  5  1  0
  5  6  1  0
  6  7  1  0
  7  8  1  0
  8  9  1  0
  9 10  1  0
 10 11  1  0
 10 12  1  0
  8 13  1  0
  2 14  1  0
 14 15  2  0
 15 16  1  0
 16 17  2  0
 17 18  1  0
 12  4  1  0
 18 14  1  0
 13  4  1  0
 11  6  1  0
  3 19  1  0
  5 20  1  0
  5 21  1  0
  6 22  1  1
  7 23  1  0
  7 24  1  0
  8 25  1  6
  9 26  1  0
  9 27  1  0
 10 28  1  6
 11 29  1  0
 11 30  1  0
 12 31  1  0
 12 32  1  0
 13 33  1  0
 13 34  1  0
 15 35  1  0
 16 36  1  0
 17 37  1  0
M  END
>  <_SMILES>  (67) 
O=C(N[C@]12C[C@H]3C[C@H](C[C@H](C3)C1)C2)c1ccco1

$$$$

     RDKit          3D

 37 40  0  0  0  0  0  0  0  0999 V2000
    1.8890   -0.6010    1.9549 O   0  0  0  0  0  0  0  0  0  0  0  0
    2.1693   -0.1759    0.8394 C   0  0  0  0  0  0  0  0  0  0  0  0
    1.2262    0.1419   -0.1152 N   0  0  0  0  0  0  0  0  0  0  0  0
   -0.2238    0.0268    0.0428 C   0  0  2  0  0  0  0  0  0  0  0  0
   -0.8994    0.4903   -1.2761 C   0  0  0  0  0  0  0  0  0  0  0  0
   -2.4300    0.3935   -1.1759 C   0  0  1  0  0  0  0  0  0  0  0  0
   -2.8254   -1.0646   -0.8948 C   0  0  0  0  0  0  0  0  0  0  0  0
   -2.1880   -1.5365    0.4215 C   0  0  2  0  0  0  0  0  0  0  0  0
   -2.6717   -0.6360    1.5709 C   0  0  0  0  0  0  0  0  0  0  0  0
   -2.2799    0.8265    1.2989 C   0  0  2  0  0  0  0  0  0  0  0  0
   -2.9168    1.2845   -0.0225 C   0  0  0  0  0  0  0  0  0  0  0  0
   -0.7483    0.9283    1.1880 C   0  0  0  0  0  0  0  0  0  0  0  0
   -0.6563   -1.4364    0.3099 C   0  0  0  0  0  0  0  0  0  0  0  0
    3.5334    0.0404    0.3999 C   0  0  0  0  0  0  0  0  0  0  0  0
    4.7379   -0.1535    1.0484 C   0  0  0  0  0  0  0  0  0  0  0  0
    5.7543    0.2241    0.1382 C   0  0  0  0  0  0  0  0  0  0  0  0
    5.1168    0.6272   -1.0140 C   0  0  0  0  0  0  0  0  0  0  0  0
    5.8598    1.1917   -2.4564 Cl  0  0  0  0  0  0  0  0  0  0  0  0
    3.7673    0.5188   -0.8638 O   0  0  0  0  0  0  0  0  0  0  0  0
    1.5930    0.4837   -0.9973 H   0  0  0  0  0  0  0  0  0  0  0  0
   -0.6086    1.5242   -1.5059 H   0  0  0  0  0  0  0  0  0  0  0  0
   -0.5445   -0.1210   -2.1168 H   0  0  0  0  0  0  0  0  0  0  0  0
   -2.8842    0.7250   -2.1163 H   0  0  0  0  0  0  0  0  0  0  0  0
   -2.4990   -1.7079   -1.7212 H   0  0  0  0  0  0  0  0  0  0  0  0
   -3.9172   -1.1521   -0.8352 H   0  0  0  0  0  0  0  0  0  0  0  0
   -2.4761   -2.5750    0.6194 H   0  0  0  0  0  0  0  0  0  0  0  0
   -3.7605   -0.7176    1.6766 H   0  0  0  0  0  0  0  0  0  0  0  0
   -2.2340   -0.9711    2.5193 H   0  0  0  0  0  0  0  0  0  0  0  0
   -2.6332    1.4622    2.1185 H   0  0  0  0  0  0  0  0  0  0  0  0
   -4.0102    1.2372    0.0520 H   0  0  0  0  0  0  0  0  0  0  0  0
   -2.6563    2.3313   -0.2213 H   0  0  0  0  0  0  0  0  0  0  0  0
   -0.4550    1.9715    1.0115 H   0  0  0  0  0  0  0  0  0  0  0  0
   -0.3017    0.6428    2.1477 H   0  0  0  0  0  0  0  0  0  0  0  0
   -0.2060   -1.8158    1.2347 H   0  0  0  0  0  0  0  0  0  0  0  0
   -0.2970   -2.0893   -0.4965 H   0  0  0  0  0  0  0  0  0  0  0  0
    4.8529   -0.5241    2.0586 H   0  0  0  0  0  0  0  0  0  0  0  0
    6.8229    0.2056    0.3000 H   0  0  0  0  0  0  0  0  0  0  0  0
  1  2  2  0
  2  3  1  0
  4  3  1  6
  4  5  1  0
  5  6  1  0
  6  7  1  0
  7  8  1  0
  8  9  1  0
  9 10  1  0
 10 11  1  0
 10 12  1  0
  8 13  1  0
  2 14  1  0
 14 15  2  0
 15 16  1  0
 16 17  2  0
 17 18  1  0
 17 19  1  0
 12  4  1  0
 19 14  1  0
 13  4  1  0
 11  6  1  0
  3 20  1  0
  5 21  1  0
  5 22  1  0
  6 23  1  6
  7 24  1  0
  7 25  1  0
  8 26  1  1
  9 27  1  0
  9 28  1  0
 10 29  1  1
 11 30  1  0
 11 31  1  0
 12 32  1  0
 12 33  1  0
 13 34  1  0
 13 35  1  0
 15 36  1  0
 16 37  1  0
M  END
>  <_SMILES>  (68) 
O=C(N[C@]12C[C@H]3C[C@H](C[C@H](C3)C1)C2)c1ccc(Cl)o1

$$$$

     RDKit          3D

 37 40  0  0  0  0  0  0  0  0999 V2000
    1.9730   -1.8027   -0.1552 O   0  0  0  0  0  0  0  0  0  0  0  0
    2.2004   -0.6107   -0.3423 C   0  0  0  0  0  0  0  0  0  0  0  0
    1.1974    0.3434   -0.2869 N   0  0  0  0  0  0  0  0  0  0  0  0
   -0.2236    0.0548   -0.0620 C   0  0  2  0  0  0  0  0  0  0  0  0
   -0.8162   -0.8198   -1.1943 C   0  0  0  0  0  0  0  0  0  0  0  0
   -2.3195   -1.0570   -0.9646 C   0  0  1  0  0  0  0  0  0  0  0  0
   -2.5213   -1.7566    0.3904 C   0  0  0  0  0  0  0  0  0  0  0  0
   -1.9717   -0.8783    1.5275 C   0  0  2  0  0  0  0  0  0  0  0  0
   -2.7059    0.4713    1.5263 C   0  0  0  0  0  0  0  0  0  0  0  0
   -2.4989    1.1785    0.1784 C   0  0  2  0  0  0  0  0  0  0  0  0
   -3.0510    0.2945   -0.9509 C   0  0  0  0  0  0  0  0  0  0  0  0
   -0.9954    1.4034   -0.0469 C   0  0  0  0  0  0  0  0  0  0  0  0
   -0.4678   -0.6405    1.3016 C   0  0  0  0  0  0  0  0  0  0  0  0
    3.5240   -0.0783   -0.6566 C   0  0  0  0  0  0  0  0  0  0  0  0
    4.0055    1.2197   -0.5999 C   0  0  0  0  0  0  0  0  0  0  0  0
    5.3721    1.3187   -0.9977 C   0  0  0  0  0  0  0  0  0  0  0  0
    5.8981    0.0946   -1.3390 C   0  0  0  0  0  0  0  0  0  0  0  0
    4.7541   -1.1626   -1.1730 S   0  0  0  0  0  0  0  0  0  0  0  0
    1.4217    1.2593   -0.6465 H   0  0  0  0  0  0  0  0  0  0  0  0
   -0.3061   -1.7887   -1.2490 H   0  0  0  0  0  0  0  0  0  0  0  0
   -0.6589   -0.3353   -2.1669 H   0  0  0  0  0  0  0  0  0  0  0  0
   -2.7203   -1.6851   -1.7681 H   0  0  0  0  0  0  0  0  0  0  0  0
   -2.0139   -2.7291    0.3893 H   0  0  0  0  0  0  0  0  0  0  0  0
   -3.5879   -1.9543    0.5535 H   0  0  0  0  0  0  0  0  0  0  0  0
   -2.1249   -1.3805    2.4892 H   0  0  0  0  0  0  0  0  0  0  0  0
   -2.3325    1.1021    2.3424 H   0  0  0  0  0  0  0  0  0  0  0  0
   -3.7764    0.3161    1.7081 H   0  0  0  0  0  0  0  0  0  0  0  0
   -3.0209    2.1419    0.1824 H   0  0  0  0  0  0  0  0  0  0  0  0
   -2.9259    0.7984   -1.9171 H   0  0  0  0  0  0  0  0  0  0  0  0
   -4.1275    0.1367   -0.8111 H   0  0  0  0  0  0  0  0  0  0  0  0
   -0.5962    2.0574    0.7401 H   0  0  0  0  0  0  0  0  0  0  0  0
   -0.8415    1.9369   -0.9946 H   0  0  0  0  0  0  0  0  0  0  0  0
    0.0520   -1.6036    1.3538 H   0  0  0  0  0  0  0  0  0  0  0  0
   -0.0596   -0.0274    2.1158 H   0  0  0  0  0  0  0  0  0  0  0  0
    3.4207    2.0701   -0.2730 H   0  0  0  0  0  0  0  0  0  0  0  0
    5.9417    2.2398   -1.0242 H   0  0  0  0  0  0  0  0  0  0  0  0
    6.9031   -0.1271   -1.6715 H   0  0  0  0  0  0  0  0  0  0  0  0
  1  2  2  0
  2  3  1  0
  4  3  1  6
  4  5  1  0
  5  6  1  0
  6  7  1  0
  7  8  1  0
  8  9  1  0
  9 10  1  0
 10 11  1  0
 10 12  1  0
  8 13  1  0
  2 14  1  0
 14 15  2  0
 15 16  1  0
 16 17  2  0
 17 18  1  0
 12  4  1  0
 18 14  1  0
 13  4  1  0
 11  6  1  0
  3 19  1  0
  5 20  1  0
  5 21  1  0
  6 22  1  6
  7 23  1  0
  7 24  1  0
  8 25  1  1
  9 26  1  0
  9 27  1  0
 10 28  1  1
 11 29  1  0
 11 30  1  0
 12 31  1  0
 12 32  1  0
 13 33  1  0
 13 34  1  0
 15 35  1  0
 16 36  1  0
 17 37  1  0
M  END
>  <_SMILES>  (69) 
O=C(N[C@]12C[C@H]3C[C@H](C[C@H](C3)C1)C2)c1cccs1

$$$$

     RDKit          3D

 37 40  0  0  0  0  0  0  0  0999 V2000
    1.7456    1.9735   -0.3437 O   0  0  0  0  0  0  0  0  0  0  0  0
    2.1170    0.8128   -0.1981 C   0  0  0  0  0  0  0  0  0  0  0  0
    1.2194   -0.2326   -0.0589 N   0  0  0  0  0  0  0  0  0  0  0  0
   -0.2404   -0.0839   -0.0156 C   0  0  2  0  0  0  0  0  0  0  0  0
   -0.7993    0.5525   -1.3137 C   0  0  0  0  0  0  0  0  0  0  0  0
   -2.3347    0.6429   -1.2557 C   0  0  1  0  0  0  0  0  0  0  0  0
   -2.9223   -0.7691   -1.1090 C   0  0  0  0  0  0  0  0  0  0  0  0
   -2.4015   -1.4212    0.1808 C   0  0  2  0  0  0  0  0  0  0  0  0
   -2.8171   -0.5659    1.3879 C   0  0  0  0  0  0  0  0  0  0  0  0
   -2.2296    0.8481    1.2563 C   0  0  2  0  0  0  0  0  0  0  0  0
   -2.7459    1.4930   -0.0413 C   0  0  0  0  0  0  0  0  0  0  0  0
   -0.6941    0.7584    1.2022 C   0  0  0  0  0  0  0  0  0  0  0  0
   -0.8678   -1.4988    0.1223 C   0  0  0  0  0  0  0  0  0  0  0  0
    3.5212    0.4167   -0.1392 C   0  0  0  0  0  0  0  0  0  0  0  0
    4.1110   -0.8325   -0.2707 C   0  0  0  0  0  0  0  0  0  0  0  0
    5.5336   -0.7846   -0.1454 C   0  0  0  0  0  0  0  0  0  0  0  0
    5.9660    0.4969    0.0676 C   0  0  0  0  0  0  0  0  0  0  0  0
    7.5928    1.0065    0.2720 Cl  0  0  0  0  0  0  0  0  0  0  0  0
    4.7165    1.6313    0.1148 S   0  0  0  0  0  0  0  0  0  0  0  0
    1.5915   -1.1182    0.2502 H   0  0  0  0  0  0  0  0  0  0  0  0
   -0.4921   -0.0391   -2.1861 H   0  0  0  0  0  0  0  0  0  0  0  0
   -0.3935    1.5585   -1.4681 H   0  0  0  0  0  0  0  0  0  0  0  0
   -2.7116    1.1053   -2.1749 H   0  0  0  0  0  0  0  0  0  0  0  0
   -2.6478   -1.3816   -1.9766 H   0  0  0  0  0  0  0  0  0  0  0  0
   -4.0179   -0.7192   -1.0883 H   0  0  0  0  0  0  0  0  0  0  0  0
   -2.8198   -2.4290    0.2803 H   0  0  0  0  0  0  0  0  0  0  0  0
   -3.9109   -0.5129    1.4510 H   0  0  0  0  0  0  0  0  0  0  0  0
   -2.4669   -1.0325    2.3168 H   0  0  0  0  0  0  0  0  0  0  0  0
   -2.5330    1.4551    2.1166 H   0  0  0  0  0  0  0  0  0  0  0  0
   -2.3433    2.5085   -0.1411 H   0  0  0  0  0  0  0  0  0  0  0  0
   -3.8382    1.5860   -0.0032 H   0  0  0  0  0  0  0  0  0  0  0  0
   -0.3130    0.3141    2.1312 H   0  0  0  0  0  0  0  0  0  0  0  0
   -0.2787    1.7718    1.1547 H   0  0  0  0  0  0  0  0  0  0  0  0
   -0.4899   -1.9925    1.0278 H   0  0  0  0  0  0  0  0  0  0  0  0
   -0.5604   -2.1313   -0.7214 H   0  0  0  0  0  0  0  0  0  0  0  0
    3.5631   -1.7461   -0.4651 H   0  0  0  0  0  0  0  0  0  0  0  0
    6.1921   -1.6413   -0.2161 H   0  0  0  0  0  0  0  0  0  0  0  0
  1  2  2  0
  2  3  1  0
  4  3  1  6
  4  5  1  0
  5  6  1  0
  6  7  1  0
  7  8  1  0
  8  9  1  0
  9 10  1  0
 10 11  1  0
 10 12  1  0
  8 13  1  0
  2 14  1  0
 14 15  2  0
 15 16  1  0
 16 17  2  0
 17 18  1  0
 17 19  1  0
 12  4  1  0
 19 14  1  0
 13  4  1  0
 11  6  1  0
  3 20  1  0
  5 21  1  0
  5 22  1  0
  6 23  1  6
  7 24  1  0
  7 25  1  0
  8 26  1  1
  9 27  1  0
  9 28  1  0
 10 29  1  1
 11 30  1  0
 11 31  1  0
 12 32  1  0
 12 33  1  0
 13 34  1  0
 13 35  1  0
 15 36  1  0
 16 37  1  0
M  END
>  <_SMILES>  (70) 
O=C(N[C@]12C[C@H]3C[C@H](C[C@H](C3)C1)C2)c1ccc(Cl)s1

$$$$

     RDKit          3D

 33 35  0  0  0  0  0  0  0  0999 V2000
    4.3294   -0.1639    0.3110 C   0  0  0  0  0  0  0  0  0  0  0  0
    2.9379   -0.5440   -0.1225 C   0  0  0  0  0  0  0  0  0  0  0  0
    2.7390   -1.4636   -0.9075 O   0  0  0  0  0  0  0  0  0  0  0  0
    1.9540    0.2484    0.4258 N   0  0  0  0  0  0  0  0  0  0  0  0
    0.5210    0.1251    0.1356 C   0  0  2  0  0  0  0  0  0  0  0  0
   -0.0288   -1.2695    0.5280 C   0  0  0  0  0  0  0  0  0  0  0  0
   -1.5420   -1.3508    0.2586 C   0  0  1  0  0  0  0  0  0  0  0  0
   -2.2652   -0.2827    1.0937 C   0  0  0  0  0  0  0  0  0  0  0  0
   -1.7545    1.1153    0.7120 C   0  0  2  0  0  0  0  0  0  0  0  0
   -2.0209    1.3648   -0.7808 C   0  0  0  0  0  0  0  0  0  0  0  0
   -1.2966    0.3061   -1.6273 C   0  0  2  0  0  0  0  0  0  0  0  0
   -1.8048   -1.0917   -1.2347 C   0  0  0  0  0  0  0  0  0  0  0  0
    0.2168    0.3890   -1.3599 C   0  0  0  0  0  0  0  0  0  0  0  0
   -0.2417    1.1878    0.9730 C   0  0  0  0  0  0  0  0  0  0  0  0
    4.7821    0.4724   -0.4537 H   0  0  0  0  0  0  0  0  0  0  0  0
    4.3197    0.3692    1.2659 H   0  0  0  0  0  0  0  0  0  0  0  0
    4.9269   -1.0714    0.4359 H   0  0  0  0  0  0  0  0  0  0  0  0
    2.2491    1.0461    0.9736 H   0  0  0  0  0  0  0  0  0  0  0  0
    0.1735   -1.4701    1.5883 H   0  0  0  0  0  0  0  0  0  0  0  0
    0.4745   -2.0637   -0.0354 H   0  0  0  0  0  0  0  0  0  0  0  0
   -1.9120   -2.3454    0.5317 H   0  0  0  0  0  0  0  0  0  0  0  0
   -2.0971   -0.4648    2.1622 H   0  0  0  0  0  0  0  0  0  0  0  0
   -3.3474   -0.3452    0.9264 H   0  0  0  0  0  0  0  0  0  0  0  0
   -2.2704    1.8736    1.3113 H   0  0  0  0  0  0  0  0  0  0  0  0
   -3.0991    1.3305   -0.9799 H   0  0  0  0  0  0  0  0  0  0  0  0
   -1.6772    2.3681   -1.0607 H   0  0  0  0  0  0  0  0  0  0  0  0
   -1.4935    0.4858   -2.6901 H   0  0  0  0  0  0  0  0  0  0  0  0
   -1.3045   -1.8564   -1.8416 H   0  0  0  0  0  0  0  0  0  0  0  0
   -2.8786   -1.1713   -1.4444 H   0  0  0  0  0  0  0  0  0  0  0  0
    0.7328   -0.3378   -1.9985 H   0  0  0  0  0  0  0  0  0  0  0  0
    0.5942    1.3774   -1.6531 H   0  0  0  0  0  0  0  0  0  0  0  0
   -0.0428    1.0387    2.0428 H   0  0  0  0  0  0  0  0  0  0  0  0
    0.1262    2.1940    0.7310 H   0  0  0  0  0  0  0  0  0  0  0  0
  1  2  1  0
  2  3  2  0
  2  4  1  0
  5  4  1  6
  5  6  1  0
  6  7  1  0
  7  8  1  0
  8  9  1  0
  9 10  1  0
 10 11  1  0
 11 12  1  0
 11 13  1  0
  9 14  1  0
 13  5  1  0
 14  5  1  0
 12  7  1  0
  1 15  1  0
  1 16  1  0
  1 17  1  0
  4 18  1  0
  6 19  1  0
  6 20  1  0
  7 21  1  1
  8 22  1  0
  8 23  1  0
  9 24  1  1
 10 25  1  0
 10 26  1  0
 11 27  1  6
 12 28  1  0
 12 29  1  0
 13 30  1  0
 13 31  1  0
 14 32  1  0
 14 33  1  0
M  END
>  <_SMILES>  (71) 
CC(=O)N[C@]12C[C@H]3C[C@H](C[C@H](C3)C1)C2

$$$$

     RDKit          3D

 37 40  0  0  0  0  0  0  0  0999 V2000
    1.4881   -2.2244    0.2964 O   0  0  0  0  0  0  0  0  0  0  0  0
    1.9870   -1.1279    0.0667 C   0  0  0  0  0  0  0  0  0  0  0  0
    1.2513    0.0298   -0.0763 N   0  0  0  0  0  0  0  0  0  0  0  0
   -0.2045    0.1364    0.0199 C   0  0  2  0  0  0  0  0  0  0  0  0
   -0.6037    1.6198   -0.2062 C   0  0  0  0  0  0  0  0  0  0  0  0
   -2.1274    1.8010   -0.1176 C   0  0  1  0  0  0  0  0  0  0  0  0
   -2.8015    0.9307   -1.1898 C   0  0  0  0  0  0  0  0  0  0  0  0
   -2.4406   -0.5467   -0.9692 C   0  0  2  0  0  0  0  0  0  0  0  0
   -2.9155   -0.9820    0.4276 C   0  0  0  0  0  0  0  0  0  0  0  0
   -2.2454   -0.1165    1.5084 C   0  0  2  0  0  0  0  0  0  0  0  0
   -2.6074    1.3583    1.2734 C   0  0  0  0  0  0  0  0  0  0  0  0
   -0.7184   -0.2864    1.4186 C   0  0  0  0  0  0  0  0  0  0  0  0
   -0.9138   -0.7168   -1.0609 C   0  0  0  0  0  0  0  0  0  0  0  0
    3.4149   -0.9274   -0.0805 C   0  0  0  0  0  0  0  0  0  0  0  0
    4.4696   -1.8178   -0.0091 C   0  0  0  0  0  0  0  0  0  0  0  0
    5.6512   -1.0699   -0.2320 C   0  0  0  0  0  0  0  0  0  0  0  0
    5.2500    0.2314   -0.4263 C   0  0  0  0  0  0  0  0  0  0  0  0
    6.4092    1.6991   -0.7724 Br  0  0  0  0  0  0  0  0  0  0  0  0
    3.8969    0.3311   -0.3370 O   0  0  0  0  0  0  0  0  0  0  0  0
    1.7894    0.8691   -0.2644 H   0  0  0  0  0  0  0  0  0  0  0  0
   -0.1113    2.2605    0.5377 H   0  0  0  0  0  0  0  0  0  0  0  0
   -0.2472    1.9610   -1.1874 H   0  0  0  0  0  0  0  0  0  0  0  0
   -2.3851    2.8535   -0.2801 H   0  0  0  0  0  0  0  0  0  0  0  0
   -2.4803    1.2501   -2.1888 H   0  0  0  0  0  0  0  0  0  0  0  0
   -3.8898    1.0610   -1.1485 H   0  0  0  0  0  0  0  0  0  0  0  0
   -2.9267   -1.1632   -1.7335 H   0  0  0  0  0  0  0  0  0  0  0  0
   -2.6756   -2.0396    0.5923 H   0  0  0  0  0  0  0  0  0  0  0  0
   -4.0063   -0.8885    0.4973 H   0  0  0  0  0  0  0  0  0  0  0  0
   -2.5933   -0.4283    2.4996 H   0  0  0  0  0  0  0  0  0  0  0  0
   -3.6925    1.4960    1.3568 H   0  0  0  0  0  0  0  0  0  0  0  0
   -2.1466    1.9854    2.0465 H   0  0  0  0  0  0  0  0  0  0  0  0
   -0.2294    0.3133    2.1975 H   0  0  0  0  0  0  0  0  0  0  0  0
   -0.4630   -1.3312    1.6308 H   0  0  0  0  0  0  0  0  0  0  0  0
   -0.6660   -1.7787   -0.9470 H   0  0  0  0  0  0  0  0  0  0  0  0
   -0.5648   -0.4260   -2.0604 H   0  0  0  0  0  0  0  0  0  0  0  0
    4.3805   -2.8791    0.1822 H   0  0  0  0  0  0  0  0  0  0  0  0
    6.6678   -1.4370   -0.2483 H   0  0  0  0  0  0  0  0  0  0  0  0
  1  2  2  0
  2  3  1  0
  4  3  1  1
  4  5  1  0
  5  6  1  0
  6  7  1  0
  7  8  1  0
  8  9  1  0
  9 10  1  0
 10 11  1  0
 10 12  1  0
  8 13  1  0
  2 14  1  0
 14 15  2  0
 15 16  1  0
 16 17  2  0
 17 18  1  0
 17 19  1  0
 12  4  1  0
 19 14  1  0
 13  4  1  0
 11  6  1  0
  3 20  1  0
  5 21  1  0
  5 22  1  0
  6 23  1  6
  7 24  1  0
  7 25  1  0
  8 26  1  6
  9 27  1  0
  9 28  1  0
 10 29  1  1
 11 30  1  0
 11 31  1  0
 12 32  1  0
 12 33  1  0
 13 34  1  0
 13 35  1  0
 15 36  1  0
 16 37  1  0
M  END
>  <_SMILES>  (72) 
O=C(N[C@]12C[C@H]3C[C@H](C[C@H](C3)C1)C2)c1ccc(Br)o1

$$$$

     RDKit          3D

 40 43  0  0  0  0  0  0  0  0999 V2000
    5.6327    0.9903    0.3773 C   0  0  0  0  0  0  0  0  0  0  0  0
    4.7975    0.0435   -0.3876 C   0  0  0  0  0  0  0  0  0  0  0  0
    5.0819   -0.9483   -1.3002 C   0  0  0  0  0  0  0  0  0  0  0  0
    3.8386   -1.5075   -1.6799 C   0  0  0  0  0  0  0  0  0  0  0  0
    2.8626   -0.8264   -0.9782 C   0  0  0  0  0  0  0  0  0  0  0  0
    1.4202   -0.9697   -0.9675 C   0  0  0  0  0  0  0  0  0  0  0  0
    0.8241   -1.7974   -1.6491 O   0  0  0  0  0  0  0  0  0  0  0  0
    0.7877   -0.0860   -0.1180 N   0  0  0  0  0  0  0  0  0  0  0  0
   -0.6546    0.0073    0.1038 C   0  0  2  0  0  0  0  0  0  0  0  0
   -1.4121    0.3667   -1.1985 C   0  0  0  0  0  0  0  0  0  0  0  0
   -2.9203    0.5081   -0.9263 C   0  0  1  0  0  0  0  0  0  0  0  0
   -3.4596   -0.8179   -0.3633 C   0  0  0  0  0  0  0  0  0  0  0  0
   -2.7400   -1.1672    0.9506 C   0  0  2  0  0  0  0  0  0  0  0  0
   -2.9690   -0.0395    1.9692 C   0  0  0  0  0  0  0  0  0  0  0  0
   -2.4241    1.2862    1.4154 C   0  0  2  0  0  0  0  0  0  0  0  0
   -3.1482    1.6260    0.1033 C   0  0  0  0  0  0  0  0  0  0  0  0
   -0.9201    1.1358    1.1366 C   0  0  0  0  0  0  0  0  0  0  0  0
   -1.2317   -1.3097    0.6797 C   0  0  0  0  0  0  0  0  0  0  0  0
    3.4528    0.1258   -0.1849 O   0  0  0  0  0  0  0  0  0  0  0  0
    5.3644    2.0222    0.1311 H   0  0  0  0  0  0  0  0  0  0  0  0
    6.6940    0.8502    0.1503 H   0  0  0  0  0  0  0  0  0  0  0  0
    5.4914    0.8429    1.4524 H   0  0  0  0  0  0  0  0  0  0  0  0
    6.0648   -1.2336   -1.6492 H   0  0  0  0  0  0  0  0  0  0  0  0
    3.6581   -2.3117   -2.3804 H   0  0  0  0  0  0  0  0  0  0  0  0
    1.4033    0.5442    0.3854 H   0  0  0  0  0  0  0  0  0  0  0  0
   -1.2589   -0.4012   -1.9658 H   0  0  0  0  0  0  0  0  0  0  0  0
   -1.0189    1.3022   -1.6179 H   0  0  0  0  0  0  0  0  0  0  0  0
   -3.4417    0.7531   -1.8583 H   0  0  0  0  0  0  0  0  0  0  0  0
   -3.3149   -1.6222   -1.0951 H   0  0  0  0  0  0  0  0  0  0  0  0
   -4.5394   -0.7377   -0.1880 H   0  0  0  0  0  0  0  0  0  0  0  0
   -3.1337   -2.1092    1.3484 H   0  0  0  0  0  0  0  0  0  0  0  0
   -2.4720   -0.2831    2.9163 H   0  0  0  0  0  0  0  0  0  0  0  0
   -4.0397    0.0571    2.1872 H   0  0  0  0  0  0  0  0  0  0  0  0
   -2.5870    2.0867    2.1456 H   0  0  0  0  0  0  0  0  0  0  0  0
   -2.7802    2.5807   -0.2920 H   0  0  0  0  0  0  0  0  0  0  0  0
   -4.2220    1.7511    0.2893 H   0  0  0  0  0  0  0  0  0  0  0  0
   -0.5155    2.0878    0.7676 H   0  0  0  0  0  0  0  0  0  0  0  0
   -0.3899    0.9214    2.0743 H   0  0  0  0  0  0  0  0  0  0  0  0
   -1.0713   -2.1440   -0.0133 H   0  0  0  0  0  0  0  0  0  0  0  0
   -0.7091   -1.5769    1.6075 H   0  0  0  0  0  0  0  0  0  0  0  0
  1  2  1  0
  2  3  2  0
  3  4  1  0
  4  5  2  0
  5  6  1  0
  6  7  2  0
  6  8  1  0
  9  8  1  6
  9 10  1  0
 10 11  1  0
 11 12  1  0
 12 13  1  0
 13 14  1  0
 14 15  1  0
 15 16  1  0
 15 17  1  0
 13 18  1  0
  5 19  1  0
 19  2  1  0
 17  9  1  0
 18  9  1  0
 16 11  1  0
  1 20  1  0
  1 21  1  0
  1 22  1  0
  3 23  1  0
  4 24  1  0
  8 25  1  0
 10 26  1  0
 10 27  1  0
 11 28  1  6
 12 29  1  0
 12 30  1  0
 13 31  1  1
 14 32  1  0
 14 33  1  0
 15 34  1  1
 16 35  1  0
 16 36  1  0
 17 37  1  0
 17 38  1  0
 18 39  1  0
 18 40  1  0
M  END
>  <_SMILES>  (73) 
Cc1ccc(C(=O)N[C@]23C[C@H]4C[C@H](C[C@H](C4)C2)C3)o1

$$$$

     RDKit          3D

 37 40  0  0  0  0  0  0  0  0999 V2000
    1.8277    0.2601    2.0311 O   0  0  0  0  0  0  0  0  0  0  0  0
    2.1623    0.0407    0.8709 C   0  0  0  0  0  0  0  0  0  0  0  0
    1.2358   -0.1011   -0.1488 N   0  0  0  0  0  0  0  0  0  0  0  0
   -0.2193   -0.0105    0.0187 C   0  0  2  0  0  0  0  0  0  0  0  0
   -0.7582   -1.1023    0.9768 C   0  0  0  0  0  0  0  0  0  0  0  0
   -2.2908   -1.0164    1.0890 C   0  0  1  0  0  0  0  0  0  0  0  0
   -2.6829    0.3751    1.6147 C   0  0  0  0  0  0  0  0  0  0  0  0
   -2.1870    1.4655    0.6496 C   0  0  2  0  0  0  0  0  0  0  0  0
   -2.8117    1.2386   -0.7358 C   0  0  0  0  0  0  0  0  0  0  0  0
   -2.4149   -0.1467   -1.2691 C   0  0  2  0  0  0  0  0  0  0  0  0
   -2.9149   -1.2283   -0.2991 C   0  0  0  0  0  0  0  0  0  0  0  0
   -0.8836   -0.2284   -1.3691 C   0  0  0  0  0  0  0  0  0  0  0  0
   -0.6542    1.3833    0.5368 C   0  0  0  0  0  0  0  0  0  0  0  0
    3.5508   -0.0905    0.4576 C   0  0  0  0  0  0  0  0  0  0  0  0
    4.1683   -0.3320   -0.7606 C   0  0  0  0  0  0  0  0  0  0  0  0
    5.5650   -0.3478   -0.5196 C   0  0  0  0  0  0  0  0  0  0  0  0
    5.7219   -0.1165    0.8243 C   0  0  0  0  0  0  0  0  0  0  0  0
    6.9024   -0.0541    1.4557 F   0  0  0  0  0  0  0  0  0  0  0  0
    4.5168    0.0401    1.4242 O   0  0  0  0  0  0  0  0  0  0  0  0
    1.5795   -0.2803   -1.0798 H   0  0  0  0  0  0  0  0  0  0  0  0
   -0.3230   -0.9978    1.9773 H   0  0  0  0  0  0  0  0  0  0  0  0
   -0.4649   -2.0975    0.6175 H   0  0  0  0  0  0  0  0  0  0  0  0
   -2.6535   -1.7874    1.7780 H   0  0  0  0  0  0  0  0  0  0  0  0
   -3.7725    0.4399    1.7233 H   0  0  0  0  0  0  0  0  0  0  0  0
   -2.2538    0.5336    2.6118 H   0  0  0  0  0  0  0  0  0  0  0  0
   -2.4762    2.4525    1.0274 H   0  0  0  0  0  0  0  0  0  0  0  0
   -3.9039    1.3171   -0.6721 H   0  0  0  0  0  0  0  0  0  0  0  0
   -2.4764    2.0184   -1.4306 H   0  0  0  0  0  0  0  0  0  0  0  0
   -2.8595   -0.3032   -2.2583 H   0  0  0  0  0  0  0  0  0  0  0  0
   -2.6538   -2.2234   -0.6797 H   0  0  0  0  0  0  0  0  0  0  0  0
   -4.0089   -1.1915   -0.2280 H   0  0  0  0  0  0  0  0  0  0  0  0
   -0.5195    0.5224   -2.0833 H   0  0  0  0  0  0  0  0  0  0  0  0
   -0.5917   -1.2054   -1.7775 H   0  0  0  0  0  0  0  0  0  0  0  0
   -0.2865    2.1679   -0.1376 H   0  0  0  0  0  0  0  0  0  0  0  0
   -0.2146    1.5932    1.5187 H   0  0  0  0  0  0  0  0  0  0  0  0
    3.6823   -0.4804   -1.7139 H   0  0  0  0  0  0  0  0  0  0  0  0
    6.3635   -0.5068   -1.2293 H   0  0  0  0  0  0  0  0  0  0  0  0
  1  2  2  0
  2  3  1  0
  4  3  1  6
  4  5  1  0
  5  6  1  0
  6  7  1  0
  7  8  1  0
  8  9  1  0
  9 10  1  0
 10 11  1  0
 10 12  1  0
  8 13  1  0
  2 14  1  0
 14 15  2  0
 15 16  1  0
 16 17  2  0
 17 18  1  0
 17 19  1  0
 12  4  1  0
 19 14  1  0
 13  4  1  0
 11  6  1  0
  3 20  1  0
  5 21  1  0
  5 22  1  0
  6 23  1  1
  7 24  1  0
  7 25  1  0
  8 26  1  1
  9 27  1  0
  9 28  1  0
 10 29  1  6
 11 30  1  0
 11 31  1  0
 12 32  1  0
 12 33  1  0
 13 34  1  0
 13 35  1  0
 15 36  1  0
 16 37  1  0
M  END
>  <_SMILES>  (74) 
O=C(N[C@]12C[C@H]3C[C@H](C[C@H](C3)C1)C2)c1ccc(F)o1

$$$$

     RDKit          3D

 39 42  0  0  0  0  0  0  0  0999 V2000
    6.5002    0.0419   -1.5428 C   0  0  0  0  0  0  0  0  0  0  0  0
    5.2835   -0.0827   -0.7170 C   0  0  0  0  0  0  0  0  0  0  0  0
    5.1753   -0.3483    0.5679 N   0  0  0  0  0  0  0  0  0  0  0  0
    3.8201   -0.3397    0.7859 C   0  0  0  0  0  0  0  0  0  0  0  0
    3.1401   -0.0669   -0.3827 C   0  0  0  0  0  0  0  0  0  0  0  0
    1.7451    0.0641   -0.7398 C   0  0  0  0  0  0  0  0  0  0  0  0
    1.3705    0.3188   -1.8808 O   0  0  0  0  0  0  0  0  0  0  0  0
    0.8529   -0.1194    0.3042 N   0  0  0  0  0  0  0  0  0  0  0  0
   -0.6080   -0.0359    0.1856 C   0  0  2  0  0  0  0  0  0  0  0  0
   -1.2264   -0.3051    1.5855 C   0  0  0  0  0  0  0  0  0  0  0  0
   -2.7607   -0.2332    1.5364 C   0  0  1  0  0  0  0  0  0  0  0  0
   -3.1845    1.1654    1.0622 C   0  0  0  0  0  0  0  0  0  0  0  0
   -2.6057    1.4432   -0.3339 C   0  0  2  0  0  0  0  0  0  0  0  0
   -3.1237    0.3811   -1.3187 C   0  0  0  0  0  0  0  0  0  0  0  0
   -2.7047   -1.0236   -0.8520 C   0  0  2  0  0  0  0  0  0  0  0  0
   -3.2829   -1.2865    0.5472 C   0  0  0  0  0  0  0  0  0  0  0  0
   -1.1687   -1.1001   -0.7909 C   0  0  0  0  0  0  0  0  0  0  0  0
   -1.0695    1.3706   -0.2719 C   0  0  0  0  0  0  0  0  0  0  0  0
    4.0935    0.1002   -1.3602 O   0  0  0  0  0  0  0  0  0  0  0  0
    6.5624    1.0407   -1.9848 H   0  0  0  0  0  0  0  0  0  0  0  0
    7.3965   -0.1213   -0.9369 H   0  0  0  0  0  0  0  0  0  0  0  0
    6.4927   -0.6967   -2.3497 H   0  0  0  0  0  0  0  0  0  0  0  0
    3.4184   -0.5303    1.7705 H   0  0  0  0  0  0  0  0  0  0  0  0
    1.2241   -0.3265    1.2193 H   0  0  0  0  0  0  0  0  0  0  0  0
   -0.9145   -1.2925    1.9519 H   0  0  0  0  0  0  0  0  0  0  0  0
   -0.8455    0.4248    2.3126 H   0  0  0  0  0  0  0  0  0  0  0  0
   -3.1726   -0.4261    2.5333 H   0  0  0  0  0  0  0  0  0  0  0  0
   -4.2788    1.2367    1.0354 H   0  0  0  0  0  0  0  0  0  0  0  0
   -2.8334    1.9247    1.7717 H   0  0  0  0  0  0  0  0  0  0  0  0
   -2.9142    2.4397   -0.6693 H   0  0  0  0  0  0  0  0  0  0  0  0
   -4.2167    0.4401   -1.3908 H   0  0  0  0  0  0  0  0  0  0  0  0
   -2.7276    0.5761   -2.3228 H   0  0  0  0  0  0  0  0  0  0  0  0
   -3.0833   -1.7745   -1.5545 H   0  0  0  0  0  0  0  0  0  0  0  0
   -3.0026   -2.2913    0.8861 H   0  0  0  0  0  0  0  0  0  0  0  0
   -4.3789   -1.2567    0.5117 H   0  0  0  0  0  0  0  0  0  0  0  0
   -0.7663   -0.9590   -1.8006 H   0  0  0  0  0  0  0  0  0  0  0  0
   -0.8568   -2.1040   -0.4741 H   0  0  0  0  0  0  0  0  0  0  0  0
   -0.6629    1.6166   -1.2596 H   0  0  0  0  0  0  0  0  0  0  0  0
   -0.6866    2.1355    0.4164 H   0  0  0  0  0  0  0  0  0  0  0  0
  1  2  1  0
  2  3  2  0
  3  4  1  0
  4  5  2  0
  5  6  1  0
  6  7  2  0
  6  8  1  0
  9  8  1  1
  9 10  1  0
 10 11  1  0
 11 12  1  0
 12 13  1  0
 13 14  1  0
 14 15  1  0
 15 16  1  0
 15 17  1  0
 13 18  1  0
  5 19  1  0
 19  2  1  0
 17  9  1  0
 18  9  1  0
 16 11  1  0
  1 20  1  0
  1 21  1  0
  1 22  1  0
  4 23  1  0
  8 24  1  0
 10 25  1  0
 10 26  1  0
 11 27  1  1
 12 28  1  0
 12 29  1  0
 13 30  1  6
 14 31  1  0
 14 32  1  0
 15 33  1  6
 16 34  1  0
 16 35  1  0
 17 36  1  0
 17 37  1  0
 18 38  1  0
 18 39  1  0
M  END
>  <_SMILES>  (75) 
Cc1ncc(C(=O)N[C@]23C[C@H]4C[C@H](C[C@H](C4)C2)C3)o1

$$$$

     RDKit          3D

 39 42  0  0  0  0  0  0  0  0999 V2000
    6.5992    0.4950    0.3162 C   0  0  0  0  0  0  0  0  0  0  0  0
    5.1882    0.5085    0.7335 C   0  0  0  0  0  0  0  0  0  0  0  0
    4.5245    0.7648    1.9099 C   0  0  0  0  0  0  0  0  0  0  0  0
    3.1707    0.6294    1.7279 N   0  0  0  0  0  0  0  0  0  0  0  0
    3.0599    0.2960    0.4487 C   0  0  0  0  0  0  0  0  0  0  0  0
    1.8085    0.0348   -0.2528 C   0  0  0  0  0  0  0  0  0  0  0  0
    1.7316   -0.2728   -1.4396 O   0  0  0  0  0  0  0  0  0  0  0  0
    0.6965    0.1698    0.5636 N   0  0  0  0  0  0  0  0  0  0  0  0
   -0.6950   -0.0246    0.1601 C   0  0  2  0  0  0  0  0  0  0  0  0
   -0.9525   -1.4713   -0.3294 C   0  0  0  0  0  0  0  0  0  0  0  0
   -2.4342   -1.6622   -0.6994 C   0  0  1  0  0  0  0  0  0  0  0  0
   -3.3053   -1.3963    0.5383 C   0  0  0  0  0  0  0  0  0  0  0  0
   -3.0861    0.0412    1.0350 C   0  0  2  0  0  0  0  0  0  0  0  0
   -3.4648    1.0286   -0.0799 C   0  0  0  0  0  0  0  0  0  0  0  0
   -2.5946    0.7769   -1.3213 C   0  0  2  0  0  0  0  0  0  0  0  0
   -2.8113   -0.6658   -1.8089 C   0  0  0  0  0  0  0  0  0  0  0  0
   -1.1130    0.9695   -0.9517 C   0  0  0  0  0  0  0  0  0  0  0  0
   -1.6034    0.2301    1.3932 C   0  0  0  0  0  0  0  0  0  0  0  0
    4.2547    0.2049   -0.2167 O   0  0  0  0  0  0  0  0  0  0  0  0
    7.2582    0.7512    1.1515 H   0  0  0  0  0  0  0  0  0  0  0  0
    6.7691    1.2194   -0.4861 H   0  0  0  0  0  0  0  0  0  0  0  0
    6.8819   -0.4972   -0.0486 H   0  0  0  0  0  0  0  0  0  0  0  0
    4.9459    1.0368    2.8681 H   0  0  0  0  0  0  0  0  0  0  0  0
    0.9014    0.4285    1.5256 H   0  0  0  0  0  0  0  0  0  0  0  0
   -0.3339   -1.7054   -1.2038 H   0  0  0  0  0  0  0  0  0  0  0  0
   -0.6665   -2.1900    0.4498 H   0  0  0  0  0  0  0  0  0  0  0  0
   -2.5970   -2.6868   -1.0519 H   0  0  0  0  0  0  0  0  0  0  0  0
   -3.0557   -2.1101    1.3330 H   0  0  0  0  0  0  0  0  0  0  0  0
   -4.3631   -1.5507    0.2925 H   0  0  0  0  0  0  0  0  0  0  0  0
   -3.7069    0.2257    1.9189 H   0  0  0  0  0  0  0  0  0  0  0  0
   -4.5254    0.9156   -0.3363 H   0  0  0  0  0  0  0  0  0  0  0  0
   -3.3299    2.0594    0.2700 H   0  0  0  0  0  0  0  0  0  0  0  0
   -2.8711    1.4806   -2.1144 H   0  0  0  0  0  0  0  0  0  0  0  0
   -3.8596   -0.8086   -2.0988 H   0  0  0  0  0  0  0  0  0  0  0  0
   -2.2052   -0.8540   -2.7036 H   0  0  0  0  0  0  0  0  0  0  0  0
   -0.5008    0.8324   -1.8508 H   0  0  0  0  0  0  0  0  0  0  0  0
   -0.9422    2.0017   -0.6188 H   0  0  0  0  0  0  0  0  0  0  0  0
   -1.3306   -0.4517    2.2100 H   0  0  0  0  0  0  0  0  0  0  0  0
   -1.4423    1.2465    1.7770 H   0  0  0  0  0  0  0  0  0  0  0  0
  1  2  1  0
  2  3  2  0
  3  4  1  0
  4  5  2  0
  5  6  1  0
  6  7  2  0
  6  8  1  0
  9  8  1  1
  9 10  1  0
 10 11  1  0
 11 12  1  0
 12 13  1  0
 13 14  1  0
 14 15  1  0
 15 16  1  0
 15 17  1  0
 13 18  1  0
  5 19  1  0
 19  2  1  0
 17  9  1  0
 18  9  1  0
 16 11  1  0
  1 20  1  0
  1 21  1  0
  1 22  1  0
  3 23  1  0
  8 24  1  0
 10 25  1  0
 10 26  1  0
 11 27  1  6
 12 28  1  0
 12 29  1  0
 13 30  1  1
 14 31  1  0
 14 32  1  0
 15 33  1  6
 16 34  1  0
 16 35  1  0
 17 36  1  0
 17 37  1  0
 18 38  1  0
 18 39  1  0
M  END
>  <_SMILES>  (76) 
Cc1cnc(C(=O)N[C@]23C[C@H]4C[C@H](C[C@H](C4)C2)C3)o1

$$$$

     RDKit          3D

 40 43  0  0  0  0  0  0  0  0999 V2000
    6.3922    0.7364    0.0988 C   0  0  0  0  0  0  0  0  0  0  0  0
    5.1812   -0.0900    0.3650 C   0  0  0  0  0  0  0  0  0  0  0  0
    5.1100   -1.3633    0.8880 C   0  0  0  0  0  0  0  0  0  0  0  0
    3.7666   -1.8247    0.9945 C   0  0  0  0  0  0  0  0  0  0  0  0
    2.8446   -0.8941    0.5511 C   0  0  0  0  0  0  0  0  0  0  0  0
    1.3937   -1.0525    0.5254 C   0  0  0  0  0  0  0  0  0  0  0  0
    0.8405   -2.0773    0.9151 O   0  0  0  0  0  0  0  0  0  0  0  0
    0.6877    0.0273    0.0337 N   0  0  0  0  0  0  0  0  0  0  0  0
   -0.7683    0.1124   -0.0931 C   0  0  2  0  0  0  0  0  0  0  0  0
   -1.4723   -0.0082    1.2814 C   0  0  0  0  0  0  0  0  0  0  0  0
   -2.9963    0.1373    1.1238 C   0  0  1  0  0  0  0  0  0  0  0  0
   -3.3160    1.5158    0.5246 C   0  0  0  0  0  0  0  0  0  0  0  0
   -2.6467    1.6575   -0.8513 C   0  0  2  0  0  0  0  0  0  0  0  0
   -3.1705    0.5579   -1.7881 C   0  0  0  0  0  0  0  0  0  0  0  0
   -2.8500   -0.8263   -1.2027 C   0  0  2  0  0  0  0  0  0  0  0  0
   -3.5146   -0.9596    0.1782 C   0  0  0  0  0  0  0  0  0  0  0  0
   -1.3258   -0.9729   -1.0475 C   0  0  0  0  0  0  0  0  0  0  0  0
   -1.1263    1.5005   -0.6906 C   0  0  0  0  0  0  0  0  0  0  0  0
    3.6281    0.5317    0.0098 S   0  0  0  0  0  0  0  0  0  0  0  0
    6.3624    1.6664    0.6762 H   0  0  0  0  0  0  0  0  0  0  0  0
    6.4656    0.9867   -0.9646 H   0  0  0  0  0  0  0  0  0  0  0  0
    7.3031    0.1973    0.3795 H   0  0  0  0  0  0  0  0  0  0  0  0
    5.9782   -1.9414    1.1820 H   0  0  0  0  0  0  0  0  0  0  0  0
    3.4789   -2.7970    1.3792 H   0  0  0  0  0  0  0  0  0  0  0  0
    1.2412    0.8223   -0.2608 H   0  0  0  0  0  0  0  0  0  0  0  0
   -1.2539   -0.9744    1.7511 H   0  0  0  0  0  0  0  0  0  0  0  0
   -1.0926    0.7595    1.9684 H   0  0  0  0  0  0  0  0  0  0  0  0
   -3.4790    0.0397    2.1027 H   0  0  0  0  0  0  0  0  0  0  0  0
   -2.9635    2.3078    1.1967 H   0  0  0  0  0  0  0  0  0  0  0  0
   -4.4016    1.6401    0.4280 H   0  0  0  0  0  0  0  0  0  0  0  0
   -2.8746    2.6425   -1.2737 H   0  0  0  0  0  0  0  0  0  0  0  0
   -4.2536    0.6658   -1.9241 H   0  0  0  0  0  0  0  0  0  0  0  0
   -2.7133    0.6606   -2.7799 H   0  0  0  0  0  0  0  0  0  0  0  0
   -3.2290   -1.6067   -1.8721 H   0  0  0  0  0  0  0  0  0  0  0  0
   -4.6042   -0.8817    0.0774 H   0  0  0  0  0  0  0  0  0  0  0  0
   -3.3042   -1.9495    0.6014 H   0  0  0  0  0  0  0  0  0  0  0  0
   -1.1015   -1.9784   -0.6727 H   0  0  0  0  0  0  0  0  0  0  0  0
   -0.8411   -0.8966   -2.0297 H   0  0  0  0  0  0  0  0  0  0  0  0
   -0.7383    2.3002   -0.0455 H   0  0  0  0  0  0  0  0  0  0  0  0
   -0.6364    1.6293   -1.6652 H   0  0  0  0  0  0  0  0  0  0  0  0
  1  2  1  0
  2  3  2  0
  3  4  1  0
  4  5  2  0
  5  6  1  0
  6  7  2  0
  6  8  1  0
  9  8  1  1
  9 10  1  0
 10 11  1  0
 11 12  1  0
 12 13  1  0
 13 14  1  0
 14 15  1  0
 15 16  1  0
 15 17  1  0
 13 18  1  0
  5 19  1  0
 19  2  1  0
 17  9  1  0
 18  9  1  0
 16 11  1  0
  1 20  1  0
  1 21  1  0
  1 22  1  0
  3 23  1  0
  4 24  1  0
  8 25  1  0
 10 26  1  0
 10 27  1  0
 11 28  1  1
 12 29  1  0
 12 30  1  0
 13 31  1  6
 14 32  1  0
 14 33  1  0
 15 34  1  6
 16 35  1  0
 16 36  1  0
 17 37  1  0
 17 38  1  0
 18 39  1  0
 18 40  1  0
M  END
>  <_SMILES>  (77) 
Cc1ccc(C(=O)N[C@]23C[C@H]4C[C@H](C[C@H](C4)C2)C3)s1

$$$$

     RDKit          3D

 27 29  0  0  0  0  0  0  0  0999 V2000
   -2.6369    1.0187   -0.0262 O   0  0  0  0  0  0  0  0  0  0  0  0
   -1.3150    0.4996   -0.0155 C   0  0  2  0  0  0  0  0  0  0  0  0
   -1.3511   -0.9752   -0.4522 C   0  0  0  0  0  0  0  0  0  0  0  0
    0.0705   -1.5606   -0.4488 C   0  0  1  0  0  0  0  0  0  0  0  0
    0.9506   -0.7536   -1.4200 C   0  0  0  0  0  0  0  0  0  0  0  0
    0.9982    0.7234   -0.9896 C   0  0  2  0  0  0  0  0  0  0  0  0
    1.5774    0.8164    0.4336 C   0  0  0  0  0  0  0  0  0  0  0  0
    0.7018    0.0181    1.4164 C   0  0  2  0  0  0  0  0  0  0  0  0
    0.6562   -1.4544    0.9707 C   0  0  0  0  0  0  0  0  0  0  0  0
   -0.7240    0.5931    1.4027 C   0  0  0  0  0  0  0  0  0  0  0  0
   -0.4292    1.2948   -0.9913 C   0  0  0  0  0  0  0  0  0  0  0  0
   -2.5949    1.9496    0.2519 H   0  0  0  0  0  0  0  0  0  0  0  0
   -1.7989   -1.0624   -1.4507 H   0  0  0  0  0  0  0  0  0  0  0  0
   -2.0042   -1.5511    0.2163 H   0  0  0  0  0  0  0  0  0  0  0  0
    0.0406   -2.6106   -0.7602 H   0  0  0  0  0  0  0  0  0  0  0  0
    0.5533   -0.8336   -2.4393 H   0  0  0  0  0  0  0  0  0  0  0  0
    1.9651   -1.1704   -1.4398 H   0  0  0  0  0  0  0  0  0  0  0  0
    1.6266    1.2920   -1.6839 H   0  0  0  0  0  0  0  0  0  0  0  0
    2.6030    0.4277    0.4460 H   0  0  0  0  0  0  0  0  0  0  0  0
    1.6306    1.8660    0.7478 H   0  0  0  0  0  0  0  0  0  0  0  0
    1.1204    0.0872    2.4265 H   0  0  0  0  0  0  0  0  0  0  0  0
    1.6656   -1.8832    0.9919 H   0  0  0  0  0  0  0  0  0  0  0  0
    0.0470   -2.0386    1.6713 H   0  0  0  0  0  0  0  0  0  0  0  0
   -1.3627    0.0536    2.1140 H   0  0  0  0  0  0  0  0  0  0  0  0
   -0.7183    1.6369    1.7422 H   0  0  0  0  0  0  0  0  0  0  0  0
   -0.8558    1.2601   -2.0021 H   0  0  0  0  0  0  0  0  0  0  0  0
   -0.4161    2.3562   -0.7115 H   0  0  0  0  0  0  0  0  0  0  0  0
  2  1  1  1
  2  3  1  0
  3  4  1  0
  4  5  1  0
  5  6  1  0
  6  7  1  0
  7  8  1  0
  8  9  1  0
  8 10  1  0
  6 11  1  0
 10  2  1  0
 11  2  1  0
  9  4  1  0
  1 12  1  0
  3 13  1  0
  3 14  1  0
  4 15  1  6
  5 16  1  0
  5 17  1  0
  6 18  1  6
  7 19  1  0
  7 20  1  0
  8 21  1  1
  9 22  1  0
  9 23  1  0
 10 24  1  0
 10 25  1  0
 11 26  1  0
 11 27  1  0
M  END
>  <_SMILES>  (78) 
O[C@]12C[C@H]3C[C@H](C[C@H](C3)C1)C2

$$$$

     RDKit          3D

 36 39  0  0  0  0  0  0  0  0999 V2000
    1.9222    2.0145   -0.0421 O   0  0  0  0  0  0  0  0  0  0  0  0
    2.3173    0.8554   -0.1051 C   0  0  0  0  0  0  0  0  0  0  0  0
    1.4538   -0.2331   -0.0498 N   0  0  0  0  0  0  0  0  0  0  0  0
   -0.0105   -0.1149    0.0231 C   0  0  2  0  0  0  0  0  0  0  0  0
   -0.6039   -1.5488    0.1083 C   0  0  0  0  0  0  0  0  0  0  0  0
   -2.1386   -1.5100    0.1795 C   0  0  1  0  0  0  0  0  0  0  0  0
   -2.5649   -0.7217    1.4270 C   0  0  0  0  0  0  0  0  0  0  0  0
   -2.0102    0.7092    1.3563 C   0  0  2  0  0  0  0  0  0  0  0  0
   -2.5516    1.4023    0.0941 C   0  0  0  0  0  0  0  0  0  0  0  0
   -2.1310    0.6202   -1.1620 C   0  0  2  0  0  0  0  0  0  0  0  0
   -2.6838   -0.8113   -1.0759 C   0  0  0  0  0  0  0  0  0  0  0  0
   -0.5946    0.5690   -1.2374 C   0  0  0  0  0  0  0  0  0  0  0  0
   -0.4734    0.6573    1.2854 C   0  0  0  0  0  0  0  0  0  0  0  0
    3.7120    0.4933   -0.2540 C   0  0  0  0  0  0  0  0  0  0  0  0
    4.6310    1.2005   -0.8860 N   0  0  0  0  0  0  0  0  0  0  0  0
    5.7636    0.4537   -0.7416 C   0  0  0  0  0  0  0  0  0  0  0  0
    5.6120   -0.6798   -0.0529 N   0  0  0  0  0  0  0  0  0  0  0  0
    4.3112   -0.6160    0.2713 N   0  0  0  0  0  0  0  0  0  0  0  0
    1.7950   -1.0819   -0.4809 H   0  0  0  0  0  0  0  0  0  0  0  0
   -0.2921   -2.1390   -0.7640 H   0  0  0  0  0  0  0  0  0  0  0  0
   -0.2043   -2.0704    0.9884 H   0  0  0  0  0  0  0  0  0  0  0  0
   -2.5326   -2.5309    0.2349 H   0  0  0  0  0  0  0  0  0  0  0  0
   -3.6591   -0.6968    1.4994 H   0  0  0  0  0  0  0  0  0  0  0  0
   -2.1973   -1.2222    2.3312 H   0  0  0  0  0  0  0  0  0  0  0  0
   -2.3193    1.2687    2.2463 H   0  0  0  0  0  0  0  0  0  0  0  0
   -2.1732    2.4305    0.0395 H   0  0  0  0  0  0  0  0  0  0  0  0
   -3.6454    1.4681    0.1443 H   0  0  0  0  0  0  0  0  0  0  0  0
   -2.5273    1.1154   -2.0555 H   0  0  0  0  0  0  0  0  0  0  0  0
   -2.4016   -1.3767   -1.9725 H   0  0  0  0  0  0  0  0  0  0  0  0
   -3.7801   -0.7885   -1.0459 H   0  0  0  0  0  0  0  0  0  0  0  0
   -0.2830    0.0265   -2.1396 H   0  0  0  0  0  0  0  0  0  0  0  0
   -0.2077    1.5892   -1.3447 H   0  0  0  0  0  0  0  0  0  0  0  0
   -0.0730    0.1781    2.1884 H   0  0  0  0  0  0  0  0  0  0  0  0
   -0.0883    1.6830    1.2871 H   0  0  0  0  0  0  0  0  0  0  0  0
    6.7231    0.7436   -1.1513 H   0  0  0  0  0  0  0  0  0  0  0  0
    3.9054   -1.3365    0.8567 H   0  0  0  0  0  0  0  0  0  0  0  0
  1  2  2  0
  2  3  1  0
  4  3  1  6
  4  5  1  0
  5  6  1  0
  6  7  1  0
  7  8  1  0
  8  9  1  0
  9 10  1  0
 10 11  1  0
 10 12  1  0
  8 13  1  0
  2 14  1  0
 14 15  2  0
 15 16  1  0
 16 17  2  0
 17 18  1  0
 12  4  1  0
 18 14  1  0
 13  4  1  0
 11  6  1  0
  3 19  1  0
  5 20  1  0
  5 21  1  0
  6 22  1  1
  7 23  1  0
  7 24  1  0
  8 25  1  1
  9 26  1  0
  9 27  1  0
 10 28  1  6
 11 29  1  0
 11 30  1  0
 12 31  1  0
 12 32  1  0
 13 33  1  0
 13 34  1  0
 16 35  1  0
 18 36  1  0
M  END
>  <_SMILES>  (79) 
O=C(N[C@]12C[C@H]3C[C@H](C[C@H](C3)C1)C2)c1ncn[nH]1

$$$$

     RDKit          3D

 36 39  0  0  0  0  0  0  0  0999 V2000
    2.0749   -0.8004    1.6037 O   0  0  0  0  0  0  0  0  0  0  0  0
    2.3872   -0.3736    0.4977 C   0  0  0  0  0  0  0  0  0  0  0  0
    1.4461    0.0760   -0.4228 N   0  0  0  0  0  0  0  0  0  0  0  0
   -0.0068    0.0219   -0.2019 C   0  0  2  0  0  0  0  0  0  0  0  0
   -0.4411    0.8396    1.0418 C   0  0  0  0  0  0  0  0  0  0  0  0
   -1.9713    0.8069    1.2052 C   0  0  1  0  0  0  0  0  0  0  0  0
   -2.6292    1.4222   -0.0393 C   0  0  0  0  0  0  0  0  0  0  0  0
   -2.2329    0.6226   -1.2895 C   0  0  2  0  0  0  0  0  0  0  0  0
   -2.6980   -0.8335   -1.1318 C   0  0  0  0  0  0  0  0  0  0  0  0
   -2.0417   -1.4631    0.1071 C   0  0  2  0  0  0  0  0  0  0  0  0
   -2.4329   -0.6529    1.3548 C   0  0  0  0  0  0  0  0  0  0  0  0
   -0.5117   -1.4349   -0.0575 C   0  0  0  0  0  0  0  0  0  0  0  0
   -0.7039    0.6497   -1.4410 C   0  0  0  0  0  0  0  0  0  0  0  0
    3.7537   -0.2938    0.0228 C   0  0  0  0  0  0  0  0  0  0  0  0
    4.7326   -1.0933    0.4014 N   0  0  0  0  0  0  0  0  0  0  0  0
    5.8809   -0.7117   -0.2572 N   0  0  0  0  0  0  0  0  0  0  0  0
    5.5868    0.3294   -0.9970 C   0  0  0  0  0  0  0  0  0  0  0  0
    4.2678    0.6265   -0.8553 N   0  0  0  0  0  0  0  0  0  0  0  0
    1.7368    0.0406   -1.3899 H   0  0  0  0  0  0  0  0  0  0  0  0
    0.0167    0.4460    1.9559 H   0  0  0  0  0  0  0  0  0  0  0  0
   -0.0967    1.8780    0.9491 H   0  0  0  0  0  0  0  0  0  0  0  0
   -2.2591    1.3783    2.0948 H   0  0  0  0  0  0  0  0  0  0  0  0
   -3.7201    1.4238    0.0750 H   0  0  0  0  0  0  0  0  0  0  0  0
   -2.3190    2.4686   -0.1489 H   0  0  0  0  0  0  0  0  0  0  0  0
   -2.7007    1.0662   -2.1756 H   0  0  0  0  0  0  0  0  0  0  0  0
   -2.4373   -1.4099   -2.0280 H   0  0  0  0  0  0  0  0  0  0  0  0
   -3.7902   -0.8699   -1.0367 H   0  0  0  0  0  0  0  0  0  0  0  0
   -2.3812   -2.4991    0.2179 H   0  0  0  0  0  0  0  0  0  0  0  0
   -3.5200   -0.6881    1.4973 H   0  0  0  0  0  0  0  0  0  0  0  0
   -1.9802   -1.0994    2.2487 H   0  0  0  0  0  0  0  0  0  0  0  0
   -0.0500   -1.9259    0.8071 H   0  0  0  0  0  0  0  0  0  0  0  0
   -0.2199   -2.0241   -0.9368 H   0  0  0  0  0  0  0  0  0  0  0  0
   -0.4159    0.1070   -2.3515 H   0  0  0  0  0  0  0  0  0  0  0  0
   -0.3627    1.6842   -1.5815 H   0  0  0  0  0  0  0  0  0  0  0  0
    6.2692    0.8852   -1.6240 H   0  0  0  0  0  0  0  0  0  0  0  0
    3.7700    1.4012   -1.2667 H   0  0  0  0  0  0  0  0  0  0  0  0
  1  2  2  0
  2  3  1  0
  4  3  1  6
  4  5  1  0
  5  6  1  0
  6  7  1  0
  7  8  1  0
  8  9  1  0
  9 10  1  0
 10 11  1  0
 10 12  1  0
  8 13  1  0
  2 14  1  0
 14 15  2  0
 15 16  1  0
 16 17  2  0
 17 18  1  0
 12  4  1  0
 18 14  1  0
 13  4  1  0
 11  6  1  0
  3 19  1  0
  5 20  1  0
  5 21  1  0
  6 22  1  1
  7 23  1  0
  7 24  1  0
  8 25  1  6
  9 26  1  0
  9 27  1  0
 10 28  1  1
 11 29  1  0
 11 30  1  0
 12 31  1  0
 12 32  1  0
 13 33  1  0
 13 34  1  0
 17 35  1  0
 18 36  1  0
M  END
>  <_SMILES>  (80) 
O=C(N[C@]12C[C@H]3C[C@H](C[C@H](C3)C1)C2)c1nnc[nH]1

$$$$

     RDKit          3D

 36 39  0  0  0  0  0  0  0  0999 V2000
    1.8079   -1.6837   -1.3028 O   0  0  0  0  0  0  0  0  0  0  0  0
    2.2002   -0.9344   -0.4135 C   0  0  0  0  0  0  0  0  0  0  0  0
    1.3734   -0.0820    0.2977 N   0  0  0  0  0  0  0  0  0  0  0  0
   -0.0680    0.0644    0.1131 C   0  0  2  0  0  0  0  0  0  0  0  0
   -0.4152    0.5530   -1.3152 C   0  0  0  0  0  0  0  0  0  0  0  0
   -1.9344    0.7467   -1.4669 C   0  0  1  0  0  0  0  0  0  0  0  0
   -2.6451   -0.5892   -1.1904 C   0  0  0  0  0  0  0  0  0  0  0  0
   -2.3371   -1.0671    0.2389 C   0  0  2  0  0  0  0  0  0  0  0  0
   -2.8169   -0.0066    1.2423 C   0  0  0  0  0  0  0  0  0  0  0  0
   -2.1036    1.3282    0.9762 C   0  0  2  0  0  0  0  0  0  0  0  0
   -2.4166    1.7966   -0.4535 C   0  0  0  0  0  0  0  0  0  0  0  0
   -0.5867    1.1263    1.1197 C   0  0  0  0  0  0  0  0  0  0  0  0
   -0.8182   -1.2618    0.3915 C   0  0  0  0  0  0  0  0  0  0  0  0
    3.6121   -0.8375    0.0228 C   0  0  0  0  0  0  0  0  0  0  0  0
    4.0133    0.0276    1.0373 N   0  0  0  0  0  0  0  0  0  0  0  0
    5.3054   -0.1812    1.1204 C   0  0  0  0  0  0  0  0  0  0  0  0
    5.6744   -1.1186    0.2108 N   0  0  0  0  0  0  0  0  0  0  0  0
    4.6253   -1.5535   -0.4992 N   0  0  0  0  0  0  0  0  0  0  0  0
    1.8468    0.4767    1.0034 H   0  0  0  0  0  0  0  0  0  0  0  0
   -0.0699   -0.1640   -2.0693 H   0  0  0  0  0  0  0  0  0  0  0  0
    0.1047    1.4964   -1.5282 H   0  0  0  0  0  0  0  0  0  0  0  0
   -2.1634    1.0835   -2.4841 H   0  0  0  0  0  0  0  0  0  0  0  0
   -3.7279   -0.4700   -1.3194 H   0  0  0  0  0  0  0  0  0  0  0  0
   -2.3194   -1.3443   -1.9164 H   0  0  0  0  0  0  0  0  0  0  0  0
   -2.8514   -2.0155    0.4303 H   0  0  0  0  0  0  0  0  0  0  0  0
   -2.6156   -0.3419    2.2672 H   0  0  0  0  0  0  0  0  0  0  0  0
   -3.9026    0.1253    1.1580 H   0  0  0  0  0  0  0  0  0  0  0  0
   -2.4466    2.0805    1.6952 H   0  0  0  0  0  0  0  0  0  0  0  0
   -3.4954    1.9594   -0.5668 H   0  0  0  0  0  0  0  0  0  0  0  0
   -1.9272    2.7587   -0.6487 H   0  0  0  0  0  0  0  0  0  0  0  0
   -0.3501    0.8192    2.1474 H   0  0  0  0  0  0  0  0  0  0  0  0
   -0.0697    2.0821    0.9597 H   0  0  0  0  0  0  0  0  0  0  0  0
   -0.4887   -2.0500   -0.2957 H   0  0  0  0  0  0  0  0  0  0  0  0
   -0.5874   -1.6207    1.4032 H   0  0  0  0  0  0  0  0  0  0  0  0
    6.0000    0.2989    1.7948 H   0  0  0  0  0  0  0  0  0  0  0  0
    6.5939   -1.5015    0.0207 H   0  0  0  0  0  0  0  0  0  0  0  0
  1  2  2  0
  2  3  1  0
  4  3  1  6
  4  5  1  0
  5  6  1  0
  6  7  1  0
  7  8  1  0
  8  9  1  0
  9 10  1  0
 10 11  1  0
 10 12  1  0
  8 13  1  0
  2 14  1  0
 14 15  1  0
 15 16  2  0
 16 17  1  0
 17 18  1  0
 12  4  1  0
 18 14  2  0
 13  4  1  0
 11  6  1  0
  3 19  1  0
  5 20  1  0
  5 21  1  0
  6 22  1  6
  7 23  1  0
  7 24  1  0
  8 25  1  1
  9 26  1  0
  9 27  1  0
 10 28  1  1
 11 29  1  0
 11 30  1  0
 12 31  1  0
 12 32  1  0
 13 33  1  0
 13 34  1  0
 16 35  1  0
 17 36  1  0
M  END
>  <_SMILES>  (81) 
O=C(N[C@]12C[C@H]3C[C@H](C[C@H](C3)C1)C2)c1nc[nH]n1

$$$$

     RDKit          3D

 34 37  0  0  0  0  0  0  0  0999 V2000
    1.8521   -2.0574    1.3525 O   0  0  0  0  0  0  0  0  0  0  0  0
    2.4586   -1.1845    0.7224 C   0  0  0  0  0  0  0  0  0  0  0  0
    1.7582   -0.1674    0.0664 N   0  0  0  0  0  0  0  0  0  0  0  0
    0.3134    0.0118    0.0244 C   0  0  2  0  0  0  0  0  0  0  0  0
    0.0019    1.2759   -0.8218 C   0  0  0  0  0  0  0  0  0  0  0  0
   -1.5124    1.5242   -0.9072 C   0  0  1  0  0  0  0  0  0  0  0  0
   -2.1868    0.3064   -1.5577 C   0  0  0  0  0  0  0  0  0  0  0  0
   -1.9133   -0.9534   -0.7213 C   0  0  2  0  0  0  0  0  0  0  0  0
   -2.4673   -0.7497    0.6991 C   0  0  0  0  0  0  0  0  0  0  0  0
   -1.7976    0.4677    1.3592 C   0  0  2  0  0  0  0  0  0  0  0  0
   -2.0718    1.7192    0.5106 C   0  0  0  0  0  0  0  0  0  0  0  0
   -0.2793    0.2294    1.4387 C   0  0  0  0  0  0  0  0  0  0  0  0
   -0.3950   -1.1929   -0.6434 C   0  0  0  0  0  0  0  0  0  0  0  0
    3.9066   -0.9923    0.5106 C   0  0  0  0  0  0  0  0  0  0  0  0
    4.8865   -1.7932    1.0036 N   0  0  0  0  0  0  0  0  0  0  0  0
    6.0406   -1.2392    0.5608 N   0  0  0  0  0  0  0  0  0  0  0  0
    5.7644   -0.1418   -0.1739 N   0  0  0  0  0  0  0  0  0  0  0  0
    4.4264    0.0405   -0.2242 N   0  0  0  0  0  0  0  0  0  0  0  0
    2.3724    0.4909   -0.4176 H   0  0  0  0  0  0  0  0  0  0  0  0
    0.4963    2.1538   -0.3846 H   0  0  0  0  0  0  0  0  0  0  0  0
    0.4158    1.1644   -1.8331 H   0  0  0  0  0  0  0  0  0  0  0  0
   -1.7075    2.4196   -1.5080 H   0  0  0  0  0  0  0  0  0  0  0  0
   -3.2677    0.4752   -1.6389 H   0  0  0  0  0  0  0  0  0  0  0  0
   -1.8086    0.1685   -2.5781 H   0  0  0  0  0  0  0  0  0  0  0  0
   -2.3994   -1.8181   -1.1870 H   0  0  0  0  0  0  0  0  0  0  0  0
   -3.5536   -0.6024    0.6589 H   0  0  0  0  0  0  0  0  0  0  0  0
   -2.2902   -1.6481    1.3030 H   0  0  0  0  0  0  0  0  0  0  0  0
   -2.2017    0.6101    2.3677 H   0  0  0  0  0  0  0  0  0  0  0  0
   -3.1507    1.9122    0.4647 H   0  0  0  0  0  0  0  0  0  0  0  0
   -1.6109    2.5978    0.9783 H   0  0  0  0  0  0  0  0  0  0  0  0
   -0.0882   -0.6376    2.0819 H   0  0  0  0  0  0  0  0  0  0  0  0
    0.2081    1.0849    1.9246 H   0  0  0  0  0  0  0  0  0  0  0  0
   -0.2086   -2.1171   -0.0840 H   0  0  0  0  0  0  0  0  0  0  0  0
    0.0093   -1.3575   -1.6508 H   0  0  0  0  0  0  0  0  0  0  0  0
  1  2  2  0
  2  3  1  0
  4  3  1  1
  4  5  1  0
  5  6  1  0
  6  7  1  0
  7  8  1  0
  8  9  1  0
  9 10  1  0
 10 11  1  0
 10 12  1  0
  8 13  1  0
  2 14  1  0
 14 15  1  0
 15 16  2  0
 16 17  1  0
 17 18  1  0
 12  4  1  0
 18 14  2  0
 13  4  1  0
 11  6  1  0
  3 19  1  0
  5 20  1  0
  5 21  1  0
  6 22  1  6
  7 23  1  0
  7 24  1  0
  8 25  1  6
  9 26  1  0
  9 27  1  0
 10 28  1  1
 11 29  1  0
 11 30  1  0
 12 31  1  0
 12 32  1  0
 13 33  1  0
 13 34  1  0
M  CHG  1  17  -1
M  END
>  <_SMILES>  (82) 
O=C(N[C@]12C[C@H]3C[C@H](C[C@H](C3)C1)C2)c1nn[n-]n1

$$$$

     RDKit          3D

 35 38  0  0  0  0  0  0  0  0999 V2000
    2.3100    0.0288   -1.6308 O   0  0  0  0  0  0  0  0  0  0  0  0
    2.5159   -0.0751   -0.4254 C   0  0  0  0  0  0  0  0  0  0  0  0
    1.5054   -0.1030    0.5225 N   0  0  0  0  0  0  0  0  0  0  0  0
    0.0720   -0.0156    0.2438 C   0  0  2  0  0  0  0  0  0  0  0  0
   -0.6948   -0.0861    1.5921 C   0  0  0  0  0  0  0  0  0  0  0  0
   -2.2130    0.0009    1.3691 C   0  0  1  0  0  0  0  0  0  0  0  0
   -2.5446    1.3296    0.6721 C   0  0  0  0  0  0  0  0  0  0  0  0
   -1.8158    1.4095   -0.6785 C   0  0  2  0  0  0  0  0  0  0  0  0
   -2.2592    0.2329   -1.5647 C   0  0  0  0  0  0  0  0  0  0  0  0
   -1.9309   -1.1025   -0.8754 C   0  0  2  0  0  0  0  0  0  0  0  0
   -2.6589   -1.1676    0.4764 C   0  0  0  0  0  0  0  0  0  0  0  0
   -0.4125   -1.1914   -0.6405 C   0  0  0  0  0  0  0  0  0  0  0  0
   -0.2973    1.3225   -0.4435 C   0  0  0  0  0  0  0  0  0  0  0  0
    3.8710   -0.1820    0.1477 C   0  0  0  0  0  0  0  0  0  0  0  0
    5.0327   -0.1765   -0.6023 N   0  0  0  0  0  0  0  0  0  0  0  0
    5.9572   -0.2907    0.3148 C   0  0  0  0  0  0  0  0  0  0  0  0
    5.4735   -0.3676    1.5790 O   0  0  0  0  0  0  0  0  0  0  0  0
    4.0835   -0.2959    1.4763 N   0  0  0  0  0  0  0  0  0  0  0  0
    1.8115   -0.1926    1.4868 H   0  0  0  0  0  0  0  0  0  0  0  0
   -0.4511   -1.0200    2.1163 H   0  0  0  0  0  0  0  0  0  0  0  0
   -0.3710    0.7289    2.2534 H   0  0  0  0  0  0  0  0  0  0  0  0
   -2.7323   -0.0508    2.3326 H   0  0  0  0  0  0  0  0  0  0  0  0
   -2.2474    2.1718    1.3089 H   0  0  0  0  0  0  0  0  0  0  0  0
   -3.6276    1.4127    0.5192 H   0  0  0  0  0  0  0  0  0  0  0  0
   -2.0586    2.3566   -1.1732 H   0  0  0  0  0  0  0  0  0  0  0  0
   -1.7557    0.2861   -2.5378 H   0  0  0  0  0  0  0  0  0  0  0  0
   -3.3367    0.2976   -1.7600 H   0  0  0  0  0  0  0  0  0  0  0  0
   -2.2551   -1.9352   -1.5095 H   0  0  0  0  0  0  0  0  0  0  0  0
   -2.4440   -2.1221    0.9724 H   0  0  0  0  0  0  0  0  0  0  0  0
   -3.7439   -1.1272    0.3202 H   0  0  0  0  0  0  0  0  0  0  0  0
    0.0988   -1.1893   -1.6103 H   0  0  0  0  0  0  0  0  0  0  0  0
   -0.1635   -2.1490   -0.1646 H   0  0  0  0  0  0  0  0  0  0  0  0
    0.2185    1.4248   -1.4055 H   0  0  0  0  0  0  0  0  0  0  0  0
    0.0342    2.1679    0.1737 H   0  0  0  0  0  0  0  0  0  0  0  0
    7.0296   -0.3306    0.1975 H   0  0  0  0  0  0  0  0  0  0  0  0
  1  2  2  0
  2  3  1  0
  4  3  1  1
  4  5  1  0
  5  6  1  0
  6  7  1  0
  7  8  1  0
  8  9  1  0
  9 10  1  0
 10 11  1  0
 10 12  1  0
  8 13  1  0
  2 14  1  0
 14 15  1  0
 15 16  2  0
 16 17  1  0
 17 18  1  0
 12  4  1  0
 18 14  2  0
 13  4  1  0
 11  6  1  0
  3 19  1  0
  5 20  1  0
  5 21  1  0
  6 22  1  1
  7 23  1  0
  7 24  1  0
  8 25  1  6
  9 26  1  0
  9 27  1  0
 10 28  1  6
 11 29  1  0
 11 30  1  0
 12 31  1  0
 12 32  1  0
 13 33  1  0
 13 34  1  0
 16 35  1  0
M  END
>  <_SMILES>  (83) 
O=C(N[C@]12C[C@H]3C[C@H](C[C@H](C3)C1)C2)c1ncon1

$$$$

     RDKit          3D

 37 40  0  0  0  0  0  0  0  0999 V2000
    1.8128   -0.0964    2.0280 O   0  0  0  0  0  0  0  0  0  0  0  0
    2.1589   -0.0686    0.8515 C   0  0  0  0  0  0  0  0  0  0  0  0
    1.2572    0.0260   -0.1964 N   0  0  0  0  0  0  0  0  0  0  0  0
   -0.2006    0.0433   -0.0444 C   0  0  2  0  0  0  0  0  0  0  0  0
   -0.8344    0.1809   -1.4563 C   0  0  0  0  0  0  0  0  0  0  0  0
   -2.3690    0.1998   -1.3748 C   0  0  1  0  0  0  0  0  0  0  0  0
   -2.8555   -1.1071   -0.7294 C   0  0  0  0  0  0  0  0  0  0  0  0
   -2.2619   -1.2487    0.6810 C   0  0  2  0  0  0  0  0  0  0  0  0
   -2.7009   -0.0496    1.5387 C   0  0  0  0  0  0  0  0  0  0  0  0
   -2.2182    1.2639    0.8999 C   0  0  2  0  0  0  0  0  0  0  0  0
   -2.8127    1.3904   -0.5112 C   0  0  0  0  0  0  0  0  0  0  0  0
   -0.6820    1.2464    0.8059 C   0  0  0  0  0  0  0  0  0  0  0  0
   -0.7259   -1.2698    0.5870 C   0  0  0  0  0  0  0  0  0  0  0  0
    3.5732   -0.1494    0.4424 C   0  0  0  0  0  0  0  0  0  0  0  0
    4.1243    0.0715   -0.8106 C   0  0  0  0  0  0  0  0  0  0  0  0
    5.4731   -0.1151   -0.6632 N   0  0  0  0  0  0  0  0  0  0  0  0
    5.7057   -0.4366    0.6405 C   0  0  0  0  0  0  0  0  0  0  0  0
    4.5915   -0.4655    1.3304 N   0  0  0  0  0  0  0  0  0  0  0  0
    1.6220   -0.1265   -1.1242 H   0  0  0  0  0  0  0  0  0  0  0  0
   -0.5104   -0.6496   -2.0979 H   0  0  0  0  0  0  0  0  0  0  0  0
   -0.4776    1.0992   -1.9418 H   0  0  0  0  0  0  0  0  0  0  0  0
   -2.7920    0.2951   -2.3810 H   0  0  0  0  0  0  0  0  0  0  0  0
   -2.5606   -1.9636   -1.3481 H   0  0  0  0  0  0  0  0  0  0  0  0
   -3.9512   -1.1143   -0.6774 H   0  0  0  0  0  0  0  0  0  0  0  0
   -2.6158   -2.1794    1.1384 H   0  0  0  0  0  0  0  0  0  0  0  0
   -3.7937   -0.0389    1.6342 H   0  0  0  0  0  0  0  0  0  0  0  0
   -2.2938   -0.1451    2.5528 H   0  0  0  0  0  0  0  0  0  0  0  0
   -2.5402    2.1131    1.5131 H   0  0  0  0  0  0  0  0  0  0  0  0
   -2.4871    2.3308   -0.9725 H   0  0  0  0  0  0  0  0  0  0  0  0
   -3.9077    1.4256   -0.4551 H   0  0  0  0  0  0  0  0  0  0  0  0
   -0.2676    1.2051    1.8195 H   0  0  0  0  0  0  0  0  0  0  0  0
   -0.3235    2.1863    0.3662 H   0  0  0  0  0  0  0  0  0  0  0  0
   -0.3085   -1.4163    1.5902 H   0  0  0  0  0  0  0  0  0  0  0  0
   -0.4001   -2.1320   -0.0096 H   0  0  0  0  0  0  0  0  0  0  0  0
    3.6985    0.3536   -1.7620 H   0  0  0  0  0  0  0  0  0  0  0  0
    6.1772   -0.0238   -1.3829 H   0  0  0  0  0  0  0  0  0  0  0  0
    6.6964   -0.6347    1.0280 H   0  0  0  0  0  0  0  0  0  0  0  0
  1  2  2  0
  2  3  1  0
  4  3  1  6
  4  5  1  0
  5  6  1  0
  6  7  1  0
  7  8  1  0
  8  9  1  0
  9 10  1  0
 10 11  1  0
 10 12  1  0
  8 13  1  0
  2 14  1  0
 14 15  2  0
 15 16  1  0
 16 17  1  0
 17 18  2  0
 12  4  1  0
 18 14  1  0
 13  4  1  0
 11  6  1  0
  3 19  1  0
  5 20  1  0
  5 21  1  0
  6 22  1  6
  7 23  1  0
  7 24  1  0
  8 25  1  1
  9 26  1  0
  9 27  1  0
 10 28  1  1
 11 29  1  0
 11 30  1  0
 12 31  1  0
 12 32  1  0
 13 33  1  0
 13 34  1  0
 15 35  1  0
 16 36  1  0
 17 37  1  0
M  END
>  <_SMILES>  (84) 
O=C(N[C@]12C[C@H]3C[C@H](C[C@H](C3)C1)C2)c1c[nH]cn1

$$$$

     RDKit          3D

 37 40  0  0  0  0  0  0  0  0999 V2000
    2.0991   -0.2125    1.8818 O   0  0  0  0  0  0  0  0  0  0  0  0
    2.2864    0.1106    0.7157 C   0  0  0  0  0  0  0  0  0  0  0  0
    1.2648    0.2770   -0.2002 N   0  0  0  0  0  0  0  0  0  0  0  0
   -0.1543    0.0375    0.0969 C   0  0  2  0  0  0  0  0  0  0  0  0
   -0.4222   -1.4450    0.4548 C   0  0  0  0  0  0  0  0  0  0  0  0
   -1.9235   -1.6797    0.6994 C   0  0  1  0  0  0  0  0  0  0  0  0
   -2.3974   -0.7753    1.8500 C   0  0  0  0  0  0  0  0  0  0  0  0
   -2.1725    0.7031    1.4893 C   0  0  2  0  0  0  0  0  0  0  0  0
   -2.9554    1.0384    0.2107 C   0  0  0  0  0  0  0  0  0  0  0  0
   -2.4785    0.1448   -0.9442 C   0  0  2  0  0  0  0  0  0  0  0  0
   -2.7070   -1.3295   -0.5756 C   0  0  0  0  0  0  0  0  0  0  0  0
   -0.9775    0.3795   -1.1759 C   0  0  0  0  0  0  0  0  0  0  0  0
   -0.6716    0.9417    1.2453 C   0  0  0  0  0  0  0  0  0  0  0  0
    3.6038    0.3245    0.1733 C   0  0  0  0  0  0  0  0  0  0  0  0
    4.8199   -0.1025    0.6708 C   0  0  0  0  0  0  0  0  0  0  0  0
    5.8595    0.3092   -0.1244 N   0  0  0  0  0  0  0  0  0  0  0  0
    5.3019    1.0127   -1.0801 C   0  0  0  0  0  0  0  0  0  0  0  0
    3.9450    1.0576   -0.9400 N   0  0  0  0  0  0  0  0  0  0  0  0
    1.5272    0.1884   -1.1704 H   0  0  0  0  0  0  0  0  0  0  0  0
   -0.0692   -2.0981   -0.3541 H   0  0  0  0  0  0  0  0  0  0  0  0
    0.1366   -1.7386    1.3513 H   0  0  0  0  0  0  0  0  0  0  0  0
   -2.0944   -2.7300    0.9606 H   0  0  0  0  0  0  0  0  0  0  0  0
   -1.8541   -1.0237    2.7700 H   0  0  0  0  0  0  0  0  0  0  0  0
   -3.4611   -0.9531    2.0508 H   0  0  0  0  0  0  0  0  0  0  0  0
   -2.5181    1.3404    2.3110 H   0  0  0  0  0  0  0  0  0  0  0  0
   -2.8147    2.0947   -0.0492 H   0  0  0  0  0  0  0  0  0  0  0  0
   -4.0295    0.8923    0.3792 H   0  0  0  0  0  0  0  0  0  0  0  0
   -3.0364    0.3888   -1.8551 H   0  0  0  0  0  0  0  0  0  0  0  0
   -2.3875   -1.9767   -1.4016 H   0  0  0  0  0  0  0  0  0  0  0  0
   -3.7770   -1.5156   -0.4210 H   0  0  0  0  0  0  0  0  0  0  0  0
   -0.6367   -0.2327   -2.0217 H   0  0  0  0  0  0  0  0  0  0  0  0
   -0.8055    1.4246   -1.4665 H   0  0  0  0  0  0  0  0  0  0  0  0
   -0.4952    1.9977    1.0022 H   0  0  0  0  0  0  0  0  0  0  0  0
   -0.1297    0.7477    2.1776 H   0  0  0  0  0  0  0  0  0  0  0  0
    4.9913   -0.6941    1.5622 H   0  0  0  0  0  0  0  0  0  0  0  0
    5.8234    1.5140   -1.8849 H   0  0  0  0  0  0  0  0  0  0  0  0
    3.3105    1.5821   -1.5246 H   0  0  0  0  0  0  0  0  0  0  0  0
  1  2  2  0
  2  3  1  0
  4  3  1  6
  4  5  1  0
  5  6  1  0
  6  7  1  0
  7  8  1  0
  8  9  1  0
  9 10  1  0
 10 11  1  0
 10 12  1  0
  8 13  1  0
  2 14  1  0
 14 15  2  0
 15 16  1  0
 16 17  2  0
 17 18  1  0
 12  4  1  0
 18 14  1  0
 13  4  1  0
 11  6  1  0
  3 19  1  0
  5 20  1  0
  5 21  1  0
  6 22  1  1
  7 23  1  0
  7 24  1  0
  8 25  1  1
  9 26  1  0
  9 27  1  0
 10 28  1  6
 11 29  1  0
 11 30  1  0
 12 31  1  0
 12 32  1  0
 13 33  1  0
 13 34  1  0
 15 35  1  0
 17 36  1  0
 18 37  1  0
M  END
>  <_SMILES>  (85) 
O=C(N[C@]12C[C@H]3C[C@H](C[C@H](C3)C1)C2)c1cnc[nH]1

$$$$

     RDKit          3D

 38 41  0  0  0  0  0  0  0  0999 V2000
    1.6334    0.2173   -2.0000 O   0  0  0  0  0  0  0  0  0  0  0  0
    2.0185   -0.0089   -0.8594 C   0  0  0  0  0  0  0  0  0  0  0  0
    1.1593   -0.1458    0.2214 N   0  0  0  0  0  0  0  0  0  0  0  0
   -0.3075   -0.0166    0.1252 C   0  0  2  0  0  0  0  0  0  0  0  0
   -0.7286    1.4098   -0.3055 C   0  0  0  0  0  0  0  0  0  0  0  0
   -2.2624    1.5335   -0.3383 C   0  0  1  0  0  0  0  0  0  0  0  0
   -2.8333    0.5032   -1.3277 C   0  0  0  0  0  0  0  0  0  0  0  0
   -2.4540   -0.9213   -0.8878 C   0  0  2  0  0  0  0  0  0  0  0  0
   -3.0165   -1.1851    0.5173 C   0  0  0  0  0  0  0  0  0  0  0  0
   -2.4412   -0.1649    1.5113 C   0  0  2  0  0  0  0  0  0  0  0  0
   -2.8251    1.2544    1.0644 C   0  0  0  0  0  0  0  0  0  0  0  0
   -0.9096   -0.2898    1.5315 C   0  0  0  0  0  0  0  0  0  0  0  0
   -0.9205   -1.0493   -0.8551 C   0  0  0  0  0  0  0  0  0  0  0  0
    3.3905   -0.1534   -0.4414 C   0  0  0  0  0  0  0  0  0  0  0  0
    4.4849    0.1907   -1.1984 C   0  0  0  0  0  0  0  0  0  0  0  0
    5.6061   -0.1196   -0.4579 N   0  0  0  0  0  0  0  0  0  0  0  0
    5.2574   -0.6695    0.7072 C   0  0  0  0  0  0  0  0  0  0  0  0
    3.9215   -0.6959    0.7343 N   0  0  0  0  0  0  0  0  0  0  0  0
    1.5333    0.0013    1.1477 H   0  0  0  0  0  0  0  0  0  0  0  0
   -0.3289    1.6541   -1.2966 H   0  0  0  0  0  0  0  0  0  0  0  0
   -0.3087    2.1520    0.3861 H   0  0  0  0  0  0  0  0  0  0  0  0
   -2.5437    2.5443   -0.6541 H   0  0  0  0  0  0  0  0  0  0  0  0
   -3.9248    0.5999   -1.3792 H   0  0  0  0  0  0  0  0  0  0  0  0
   -2.4487    0.6990   -2.3362 H   0  0  0  0  0  0  0  0  0  0  0  0
   -2.8695   -1.6489   -1.5938 H   0  0  0  0  0  0  0  0  0  0  0  0
   -2.7647   -2.2038    0.8370 H   0  0  0  0  0  0  0  0  0  0  0  0
   -4.1112   -1.1177    0.5020 H   0  0  0  0  0  0  0  0  0  0  0  0
   -2.8416   -0.3582    2.5128 H   0  0  0  0  0  0  0  0  0  0  0  0
   -2.4356    1.9908    1.7780 H   0  0  0  0  0  0  0  0  0  0  0  0
   -3.9167    1.3630    1.0588 H   0  0  0  0  0  0  0  0  0  0  0  0
   -0.4935    0.4152    2.2638 H   0  0  0  0  0  0  0  0  0  0  0  0
   -0.6230   -1.2926    1.8758 H   0  0  0  0  0  0  0  0  0  0  0  0
   -0.6360   -2.0669   -0.5571 H   0  0  0  0  0  0  0  0  0  0  0  0
   -0.5351   -0.9089   -1.8711 H   0  0  0  0  0  0  0  0  0  0  0  0
    4.6063    0.6223   -2.1784 H   0  0  0  0  0  0  0  0  0  0  0  0
    6.5678    0.0267   -0.7622 H   0  0  0  0  0  0  0  0  0  0  0  0
    5.9282   -1.0343    1.4768 H   0  0  0  0  0  0  0  0  0  0  0  0
    3.3735   -1.1260    1.4744 H   0  0  0  0  0  0  0  0  0  0  0  0
  1  2  2  0
  2  3  1  0
  4  3  1  1
  4  5  1  0
  5  6  1  0
  6  7  1  0
  7  8  1  0
  8  9  1  0
  9 10  1  0
 10 11  1  0
 10 12  1  0
  8 13  1  0
  2 14  1  0
 14 15  2  0
 15 16  1  0
 16 17  1  0
 17 18  2  0
 12  4  1  0
 18 14  1  0
 13  4  1  0
 11  6  1  0
  3 19  1  0
  5 20  1  0
  5 21  1  0
  6 22  1  6
  7 23  1  0
  7 24  1  0
  8 25  1  6
  9 26  1  0
  9 27  1  0
 10 28  1  1
 11 29  1  0
 11 30  1  0
 12 31  1  0
 12 32  1  0
 13 33  1  0
 13 34  1  0
 15 35  1  0
 16 36  1  0
 17 37  1  0
 18 38  1  0
M  CHG  1  18   1
M  END
>  <_SMILES>  (86) 
O=C(N[C@]12C[C@H]3C[C@H](C[C@H](C3)C1)C2)c1c[nH]c[nH+]1

$$$$

     RDKit          3D

 37 40  0  0  0  0  0  0  0  0999 V2000
    1.7932   -1.6793   -1.0528 O   0  0  0  0  0  0  0  0  0  0  0  0
    2.1516   -0.7508   -0.3342 C   0  0  0  0  0  0  0  0  0  0  0  0
    1.2552    0.1043    0.2907 N   0  0  0  0  0  0  0  0  0  0  0  0
   -0.2005    0.0524    0.1213 C   0  0  2  0  0  0  0  0  0  0  0  0
   -0.8316    1.1594    1.0106 C   0  0  0  0  0  0  0  0  0  0  0  0
   -2.3627    1.1700    0.8784 C   0  0  1  0  0  0  0  0  0  0  0  0
   -2.7401    1.4260   -0.5891 C   0  0  0  0  0  0  0  0  0  0  0  0
   -2.1489    0.3244   -1.4829 C   0  0  2  0  0  0  0  0  0  0  0  0
   -2.6974   -1.0410   -1.0346 C   0  0  0  0  0  0  0  0  0  0  0  0
   -2.3244   -1.3058    0.4341 C   0  0  2  0  0  0  0  0  0  0  0  0
   -2.9153   -0.1950    1.3158 C   0  0  0  0  0  0  0  0  0  0  0  0
   -0.7916   -1.3069    0.5747 C   0  0  0  0  0  0  0  0  0  0  0  0
   -0.6160    0.3254   -1.3454 C   0  0  0  0  0  0  0  0  0  0  0  0
    3.5764   -0.4386   -0.0755 C   0  0  0  0  0  0  0  0  0  0  0  0
    4.1347    0.3693    0.9594 C   0  0  0  0  0  0  0  0  0  0  0  0
    5.4942    0.3359    0.7655 C   0  0  0  0  0  0  0  0  0  0  0  0
    5.6930   -0.4580   -0.3217 N   0  0  0  0  0  0  0  0  0  0  0  0
    4.5600   -0.9346   -0.8511 N   0  0  0  0  0  0  0  0  0  0  0  0
    1.6385    0.9541    0.6777 H   0  0  0  0  0  0  0  0  0  0  0  0
   -0.4316    2.1429    0.7294 H   0  0  0  0  0  0  0  0  0  0  0  0
   -0.5509    1.0045    2.0611 H   0  0  0  0  0  0  0  0  0  0  0  0
   -2.7835    1.9592    1.5114 H   0  0  0  0  0  0  0  0  0  0  0  0
   -3.8315    1.4505   -0.6966 H   0  0  0  0  0  0  0  0  0  0  0  0
   -2.3668    2.4073   -0.9068 H   0  0  0  0  0  0  0  0  0  0  0  0
   -2.4252    0.5088   -2.5271 H   0  0  0  0  0  0  0  0  0  0  0  0
   -3.7878   -1.0626   -1.1527 H   0  0  0  0  0  0  0  0  0  0  0  0
   -2.2924   -1.8356   -1.6733 H   0  0  0  0  0  0  0  0  0  0  0  0
   -2.7238   -2.2769    0.7474 H   0  0  0  0  0  0  0  0  0  0  0  0
   -4.0096   -0.1984    1.2404 H   0  0  0  0  0  0  0  0  0  0  0  0
   -2.6681   -0.3803    2.3684 H   0  0  0  0  0  0  0  0  0  0  0  0
   -0.5117   -1.5110    1.6165 H   0  0  0  0  0  0  0  0  0  0  0  0
   -0.3849   -2.1332   -0.0190 H   0  0  0  0  0  0  0  0  0  0  0  0
   -0.2119    1.2903   -1.6787 H   0  0  0  0  0  0  0  0  0  0  0  0
   -0.1962   -0.4313   -2.0186 H   0  0  0  0  0  0  0  0  0  0  0  0
    3.6169    0.8890    1.7523 H   0  0  0  0  0  0  0  0  0  0  0  0
    6.3193    0.7864    1.2983 H   0  0  0  0  0  0  0  0  0  0  0  0
    6.5714   -0.7207   -0.7574 H   0  0  0  0  0  0  0  0  0  0  0  0
  1  2  2  0
  2  3  1  0
  4  3  1  6
  4  5  1  0
  5  6  1  0
  6  7  1  0
  7  8  1  0
  8  9  1  0
  9 10  1  0
 10 11  1  0
 10 12  1  0
  8 13  1  0
  2 14  1  0
 14 15  1  0
 15 16  2  0
 16 17  1  0
 17 18  1  0
 12  4  1  0
 18 14  2  0
 13  4  1  0
 11  6  1  0
  3 19  1  0
  5 20  1  0
  5 21  1  0
  6 22  1  1
  7 23  1  0
  7 24  1  0
  8 25  1  6
  9 26  1  0
  9 27  1  0
 10 28  1  1
 11 29  1  0
 11 30  1  0
 12 31  1  0
 12 32  1  0
 13 33  1  0
 13 34  1  0
 15 35  1  0
 16 36  1  0
 17 37  1  0
M  END
>  <_SMILES>  (87) 
O=C(N[C@]12C[C@H]3C[C@H](C[C@H](C3)C1)C2)c1cc[nH]n1

$$$$

     RDKit          3D

 37 40  0  0  0  0  0  0  0  0999 V2000
    1.7902   -1.6152   -1.1751 O   0  0  0  0  0  0  0  0  0  0  0  0
    2.1684   -0.7299   -0.4166 C   0  0  0  0  0  0  0  0  0  0  0  0
    1.3147    0.1334    0.2308 N   0  0  0  0  0  0  0  0  0  0  0  0
   -0.1469    0.1225    0.1116 C   0  0  2  0  0  0  0  0  0  0  0  0
   -0.7530   -1.2166    0.6011 C   0  0  0  0  0  0  0  0  0  0  0  0
   -2.2891   -1.1800    0.5136 C   0  0  1  0  0  0  0  0  0  0  0  0
   -2.8219   -0.0438    1.4005 C   0  0  0  0  0  0  0  0  0  0  0  0
   -2.2535    1.3024    0.9257 C   0  0  2  0  0  0  0  0  0  0  0  0
   -2.6763    1.5486   -0.5309 C   0  0  0  0  0  0  0  0  0  0  0  0
   -2.1426    0.4219   -1.4293 C   0  0  2  0  0  0  0  0  0  0  0  0
   -2.7072   -0.9243   -0.9445 C   0  0  0  0  0  0  0  0  0  0  0  0
   -0.6063    0.3872   -1.3441 C   0  0  0  0  0  0  0  0  0  0  0  0
   -0.7193    1.2575    1.0043 C   0  0  0  0  0  0  0  0  0  0  0  0
    3.5672   -0.5243   -0.1417 C   0  0  0  0  0  0  0  0  0  0  0  0
    4.2718    0.3666    0.6460 C   0  0  0  0  0  0  0  0  0  0  0  0
    5.6262    0.0256    0.4669 C   0  0  0  0  0  0  0  0  0  0  0  0
    5.7840   -1.0014   -0.3680 N   0  0  0  0  0  0  0  0  0  0  0  0
    4.5256   -1.3154   -0.7217 N   0  0  0  0  0  0  0  0  0  0  0  0
    1.7233    0.8298    0.8358 H   0  0  0  0  0  0  0  0  0  0  0  0
   -0.4422   -1.4156    1.6352 H   0  0  0  0  0  0  0  0  0  0  0  0
   -0.3828   -2.0574    0.0030 H   0  0  0  0  0  0  0  0  0  0  0  0
   -2.7005   -2.1371    0.8535 H   0  0  0  0  0  0  0  0  0  0  0  0
   -3.9180   -0.0219    1.3637 H   0  0  0  0  0  0  0  0  0  0  0  0
   -2.5420   -0.2216    2.4461 H   0  0  0  0  0  0  0  0  0  0  0  0
   -2.6333    2.1093    1.5623 H   0  0  0  0  0  0  0  0  0  0  0  0
   -2.2917    2.5166   -0.8749 H   0  0  0  0  0  0  0  0  0  0  0  0
   -3.7699    1.5976   -0.6006 H   0  0  0  0  0  0  0  0  0  0  0  0
   -2.4502    0.5998   -2.4659 H   0  0  0  0  0  0  0  0  0  0  0  0
   -3.8013   -0.9210   -1.0242 H   0  0  0  0  0  0  0  0  0  0  0  0
   -2.3439   -1.7362   -1.5865 H   0  0  0  0  0  0  0  0  0  0  0  0
   -0.2301   -0.3879   -2.0219 H   0  0  0  0  0  0  0  0  0  0  0  0
   -0.1905    1.3375   -1.7039 H   0  0  0  0  0  0  0  0  0  0  0  0
   -0.3048    2.2263    0.6943 H   0  0  0  0  0  0  0  0  0  0  0  0
   -0.4068    1.1110    2.0470 H   0  0  0  0  0  0  0  0  0  0  0  0
    3.8814    1.1576    1.2687 H   0  0  0  0  0  0  0  0  0  0  0  0
    6.5024    0.4823    0.9096 H   0  0  0  0  0  0  0  0  0  0  0  0
    4.3690   -2.0840   -1.3673 H   0  0  0  0  0  0  0  0  0  0  0  0
  1  2  2  0
  2  3  1  0
  4  3  1  6
  4  5  1  0
  5  6  1  0
  6  7  1  0
  7  8  1  0
  8  9  1  0
  9 10  1  0
 10 11  1  0
 10 12  1  0
  8 13  1  0
  2 14  1  0
 14 15  2  0
 15 16  1  0
 16 17  2  0
 17 18  1  0
 12  4  1  0
 18 14  1  0
 13  4  1  0
 11  6  1  0
  3 19  1  0
  5 20  1  0
  5 21  1  0
  6 22  1  1
  7 23  1  0
  7 24  1  0
  8 25  1  1
  9 26  1  0
  9 27  1  0
 10 28  1  6
 11 29  1  0
 11 30  1  0
 12 31  1  0
 12 32  1  0
 13 33  1  0
 13 34  1  0
 15 35  1  0
 16 36  1  0
 18 37  1  0
M  END
>  <_SMILES>  (88) 
O=C(N[C@]12C[C@H]3C[C@H](C[C@H](C3)C1)C2)c1ccn[nH]1

$$$$

     RDKit          3D

 36 39  0  0  0  0  0  0  0  0999 V2000
    1.9418   -1.0397    1.7235 O   0  0  0  0  0  0  0  0  0  0  0  0
    2.2809   -0.4903    0.6817 C   0  0  0  0  0  0  0  0  0  0  0  0
    1.4094    0.0661   -0.2291 N   0  0  0  0  0  0  0  0  0  0  0  0
   -0.0476    0.0946   -0.1082 C   0  0  2  0  0  0  0  0  0  0  0  0
   -0.5016    0.8755    1.1502 C   0  0  0  0  0  0  0  0  0  0  0  0
   -2.0377    0.9325    1.2271 C   0  0  1  0  0  0  0  0  0  0  0  0
   -2.5829    1.6443   -0.0210 C   0  0  0  0  0  0  0  0  0  0  0  0
   -2.1649    0.8787   -1.2862 C   0  0  2  0  0  0  0  0  0  0  0  0
   -2.7258   -0.5506   -1.2251 C   0  0  0  0  0  0  0  0  0  0  0  0
   -2.1814   -1.2752    0.0160 C   0  0  2  0  0  0  0  0  0  0  0  0
   -2.5954   -0.5001    1.2785 C   0  0  0  0  0  0  0  0  0  0  0  0
   -0.6455   -1.3335   -0.0616 C   0  0  0  0  0  0  0  0  0  0  0  0
   -0.6307    0.8156   -1.3533 C   0  0  0  0  0  0  0  0  0  0  0  0
    3.6771   -0.3642    0.2861 C   0  0  0  0  0  0  0  0  0  0  0  0
    4.7905   -0.8099    0.9664 C   0  0  0  0  0  0  0  0  0  0  0  0
    5.8329   -0.4430    0.1738 N   0  0  0  0  0  0  0  0  0  0  0  0
    5.4117    0.1908   -0.9316 N   0  0  0  0  0  0  0  0  0  0  0  0
    4.0875    0.2475   -0.8777 N   0  0  0  0  0  0  0  0  0  0  0  0
    1.8397    0.4869   -1.0473 H   0  0  0  0  0  0  0  0  0  0  0  0
   -0.1159    0.4060    2.0628 H   0  0  0  0  0  0  0  0  0  0  0  0
   -0.0905    1.8934    1.1314 H   0  0  0  0  0  0  0  0  0  0  0  0
   -2.3417    1.4798    2.1263 H   0  0  0  0  0  0  0  0  0  0  0  0
   -3.6765    1.7105    0.0329 H   0  0  0  0  0  0  0  0  0  0  0  0
   -2.2033    2.6726   -0.0621 H   0  0  0  0  0  0  0  0  0  0  0  0
   -2.5535    1.3908   -2.1735 H   0  0  0  0  0  0  0  0  0  0  0  0
   -2.4491   -1.1014   -2.1324 H   0  0  0  0  0  0  0  0  0  0  0  0
   -3.8219   -0.5220   -1.1919 H   0  0  0  0  0  0  0  0  0  0  0  0
   -2.5873   -2.2922    0.0570 H   0  0  0  0  0  0  0  0  0  0  0  0
   -3.6892   -0.4726    1.3581 H   0  0  0  0  0  0  0  0  0  0  0  0
   -2.2241   -1.0151    2.1730 H   0  0  0  0  0  0  0  0  0  0  0  0
   -0.2654   -1.8893    0.8037 H   0  0  0  0  0  0  0  0  0  0  0  0
   -0.3376   -1.9007   -0.9499 H   0  0  0  0  0  0  0  0  0  0  0  0
   -0.2216    1.8323   -1.4265 H   0  0  0  0  0  0  0  0  0  0  0  0
   -0.3217    0.2951   -2.2698 H   0  0  0  0  0  0  0  0  0  0  0  0
    4.9128   -1.3319    1.9036 H   0  0  0  0  0  0  0  0  0  0  0  0
    6.8285   -0.5812    0.3077 H   0  0  0  0  0  0  0  0  0  0  0  0
  1  2  2  0
  2  3  1  0
  4  3  1  6
  4  5  1  0
  5  6  1  0
  6  7  1  0
  7  8  1  0
  8  9  1  0
  9 10  1  0
 10 11  1  0
 10 12  1  0
  8 13  1  0
  2 14  1  0
 14 15  2  0
 15 16  1  0
 16 17  1  0
 17 18  2  0
 12  4  1  0
 18 14  1  0
 13  4  1  0
 11  6  1  0
  3 19  1  0
  5 20  1  0
  5 21  1  0
  6 22  1  1
  7 23  1  0
  7 24  1  0
  8 25  1  6
  9 26  1  0
  9 27  1  0
 10 28  1  1
 11 29  1  0
 11 30  1  0
 12 31  1  0
 12 32  1  0
 13 33  1  0
 13 34  1  0
 15 35  1  0
 16 36  1  0
M  END
>  <_SMILES>  (89) 
O=C(N[C@]12C[C@H]3C[C@H](C[C@H](C3)C1)C2)c1c[nH]nn1

$$$$

     RDKit          3D

 36 39  0  0  0  0  0  0  0  0999 V2000
    2.3850    0.1441    1.4364 O   0  0  0  0  0  0  0  0  0  0  0  0
    2.4851   -0.0392    0.2300 C   0  0  0  0  0  0  0  0  0  0  0  0
    1.3955   -0.1648   -0.6113 N   0  0  0  0  0  0  0  0  0  0  0  0
   -0.0027   -0.0548   -0.1678 C   0  0  2  0  0  0  0  0  0  0  0  0
   -0.3188    1.3568    0.3848 C   0  0  0  0  0  0  0  0  0  0  0  0
   -1.8019    1.4623    0.7823 C   0  0  1  0  0  0  0  0  0  0  0  0
   -2.6789    1.2077   -0.4539 C   0  0  0  0  0  0  0  0  0  0  0  0
   -2.4034   -0.1970   -1.0129 C   0  0  2  0  0  0  0  0  0  0  0  0
   -2.7212   -1.2452    0.0641 C   0  0  0  0  0  0  0  0  0  0  0  0
   -1.8437   -1.0059    1.3022 C   0  0  2  0  0  0  0  0  0  0  0  0
   -2.1165    0.4041    1.8536 C   0  0  0  0  0  0  0  0  0  0  0  0
   -0.3607   -1.1156    0.9048 C   0  0  0  0  0  0  0  0  0  0  0  0
   -0.9193   -0.3041   -1.3976 C   0  0  0  0  0  0  0  0  0  0  0  0
    3.7564   -0.1132   -0.4275 C   0  0  0  0  0  0  0  0  0  0  0  0
    4.9925    0.3207    0.0027 C   0  0  0  0  0  0  0  0  0  0  0  0
    5.9390    0.0389   -0.9406 N   0  0  0  0  0  0  0  0  0  0  0  0
    5.3408   -0.5869   -1.9441 N   0  0  0  0  0  0  0  0  0  0  0  0
    4.0448   -0.7052   -1.6245 N   0  0  0  0  0  0  0  0  0  0  0  0
    1.5548    0.0484   -1.5852 H   0  0  0  0  0  0  0  0  0  0  0  0
    0.3028    1.5835    1.2590 H   0  0  0  0  0  0  0  0  0  0  0  0
   -0.0789    2.1190   -0.3681 H   0  0  0  0  0  0  0  0  0  0  0  0
   -2.0064    2.4627    1.1799 H   0  0  0  0  0  0  0  0  0  0  0  0
   -3.7387    1.3039   -0.1878 H   0  0  0  0  0  0  0  0  0  0  0  0
   -2.4736    1.9640   -1.2215 H   0  0  0  0  0  0  0  0  0  0  0  0
   -3.0283   -0.3727   -1.8956 H   0  0  0  0  0  0  0  0  0  0  0  0
   -2.5463   -2.2537   -0.3304 H   0  0  0  0  0  0  0  0  0  0  0  0
   -3.7816   -1.1905    0.3395 H   0  0  0  0  0  0  0  0  0  0  0  0
   -2.0760   -1.7536    2.0688 H   0  0  0  0  0  0  0  0  0  0  0  0
   -1.5053    0.5820    2.7469 H   0  0  0  0  0  0  0  0  0  0  0  0
   -3.1654    0.4872    2.1639 H   0  0  0  0  0  0  0  0  0  0  0  0
    0.2531   -0.9932    1.8041 H   0  0  0  0  0  0  0  0  0  0  0  0
   -0.1489   -2.1232    0.5238 H   0  0  0  0  0  0  0  0  0  0  0  0
   -0.7167   -1.2959   -1.8238 H   0  0  0  0  0  0  0  0  0  0  0  0
   -0.6928    0.4212   -2.1907 H   0  0  0  0  0  0  0  0  0  0  0  0
    5.2404    0.8219    0.9282 H   0  0  0  0  0  0  0  0  0  0  0  0
    3.4358   -1.2139   -2.2535 H   0  0  0  0  0  0  0  0  0  0  0  0
  1  2  2  0
  2  3  1  0
  4  3  1  6
  4  5  1  0
  5  6  1  0
  6  7  1  0
  7  8  1  0
  8  9  1  0
  9 10  1  0
 10 11  1  0
 10 12  1  0
  8 13  1  0
  2 14  1  0
 14 15  2  0
 15 16  1  0
 16 17  2  0
 17 18  1  0
 12  4  1  0
 18 14  1  0
 13  4  1  0
 11  6  1  0
  3 19  1  0
  5 20  1  0
  5 21  1  0
  6 22  1  1
  7 23  1  0
  7 24  1  0
  8 25  1  6
  9 26  1  0
  9 27  1  0
 10 28  1  1
 11 29  1  0
 11 30  1  0
 12 31  1  0
 12 32  1  0
 13 33  1  0
 13 34  1  0
 15 35  1  0
 18 36  1  0
M  END
>  <_SMILES>  (90) 
O=C(N[C@]12C[C@H]3C[C@H](C[C@H](C3)C1)C2)c1cnn[nH]1

$$$$

     RDKit          3D

 36 39  0  0  0  0  0  0  0  0999 V2000
    2.1218   -1.7365   -0.6714 O   0  0  0  0  0  0  0  0  0  0  0  0
    2.3745   -0.6552   -0.1491 C   0  0  0  0  0  0  0  0  0  0  0  0
    1.4023    0.3034    0.1011 N   0  0  0  0  0  0  0  0  0  0  0  0
   -0.0297    0.1214   -0.1686 C   0  0  2  0  0  0  0  0  0  0  0  0
   -0.3109   -0.1446   -1.6696 C   0  0  0  0  0  0  0  0  0  0  0  0
   -1.8234   -0.2755   -1.9232 C   0  0  1  0  0  0  0  0  0  0  0  0
   -2.3798   -1.4333   -1.0769 C   0  0  0  0  0  0  0  0  0  0  0  0
   -2.1411   -1.1597    0.4179 C   0  0  2  0  0  0  0  0  0  0  0  0
   -2.8373    0.1531    0.8099 C   0  0  0  0  0  0  0  0  0  0  0  0
   -2.2782    1.3141   -0.0273 C   0  0  2  0  0  0  0  0  0  0  0  0
   -2.5221    1.0312   -1.5174 C   0  0  0  0  0  0  0  0  0  0  0  0
   -0.7664    1.4328    0.2219 C   0  0  0  0  0  0  0  0  0  0  0  0
   -0.6292   -1.0307    0.6750 C   0  0  0  0  0  0  0  0  0  0  0  0
    3.7313   -0.2806    0.2758 C   0  0  0  0  0  0  0  0  0  0  0  0
    4.2565    1.0003    0.5665 C   0  0  0  0  0  0  0  0  0  0  0  0
    5.5412    0.9158    0.9225 N   0  0  0  0  0  0  0  0  0  0  0  0
    5.7522   -0.4051    0.8125 N   0  0  0  0  0  0  0  0  0  0  0  0
    4.7240   -1.1785    0.4403 N   0  0  0  0  0  0  0  0  0  0  0  0
    1.6460    1.0537    0.7314 H   0  0  0  0  0  0  0  0  0  0  0  0
    0.1827   -1.0623   -2.0086 H   0  0  0  0  0  0  0  0  0  0  0  0
    0.1019    0.6690   -2.2804 H   0  0  0  0  0  0  0  0  0  0  0  0
   -2.0029   -0.4750   -2.9856 H   0  0  0  0  0  0  0  0  0  0  0  0
   -3.4534   -1.5531   -1.2679 H   0  0  0  0  0  0  0  0  0  0  0  0
   -1.8980   -2.3751   -1.3671 H   0  0  0  0  0  0  0  0  0  0  0  0
   -2.5471   -1.9847    1.0139 H   0  0  0  0  0  0  0  0  0  0  0  0
   -2.6858    0.3535    1.8777 H   0  0  0  0  0  0  0  0  0  0  0  0
   -3.9194    0.0650    0.6530 H   0  0  0  0  0  0  0  0  0  0  0  0
   -2.7749    2.2482    0.2577 H   0  0  0  0  0  0  0  0  0  0  0  0
   -2.1439    1.8630   -2.1243 H   0  0  0  0  0  0  0  0  0  0  0  0
   -3.5988    0.9575   -1.7139 H   0  0  0  0  0  0  0  0  0  0  0  0
   -0.5857    1.6664    1.2798 H   0  0  0  0  0  0  0  0  0  0  0  0
   -0.3611    2.2776   -0.3510 H   0  0  0  0  0  0  0  0  0  0  0  0
   -0.4460   -0.8514    1.7426 H   0  0  0  0  0  0  0  0  0  0  0  0
   -0.1436   -1.9844    0.4370 H   0  0  0  0  0  0  0  0  0  0  0  0
    3.7783    1.9687    0.5288 H   0  0  0  0  0  0  0  0  0  0  0  0
    6.6659   -0.8090    1.0075 H   0  0  0  0  0  0  0  0  0  0  0  0
  1  2  2  0
  2  3  1  0
  4  3  1  6
  4  5  1  0
  5  6  1  0
  6  7  1  0
  7  8  1  0
  8  9  1  0
  9 10  1  0
 10 11  1  0
 10 12  1  0
  8 13  1  0
  2 14  1  0
 14 15  1  0
 15 16  2  0
 16 17  1  0
 17 18  1  0
 12  4  1  0
 18 14  2  0
 13  4  1  0
 11  6  1  0
  3 19  1  0
  5 20  1  0
  5 21  1  0
  6 22  1  6
  7 23  1  0
  7 24  1  0
  8 25  1  1
  9 26  1  0
  9 27  1  0
 10 28  1  1
 11 29  1  0
 11 30  1  0
 12 31  1  0
 12 32  1  0
 13 33  1  0
 13 34  1  0
 15 35  1  0
 17 36  1  0
M  END
>  <_SMILES>  (91) 
O=C(N[C@]12C[C@H]3C[C@H](C[C@H](C3)C1)C2)c1cn[nH]n1

$$$$

     RDKit          3D

 32 34  0  0  0  0  0  0  0  0999 V2000
    4.1220   -1.0844   -0.1638 C   0  0  0  0  0  0  0  0  0  0  0  0
    2.6973   -1.0146   -0.2302 O   0  0  0  0  0  0  0  0  0  0  0  0
    2.1756    0.1657    0.2110 C   0  0  0  0  0  0  0  0  0  0  0  0
    2.8437    1.1010    0.6324 O   0  0  0  0  0  0  0  0  0  0  0  0
    0.6518    0.1609    0.1081 C   0  0  2  0  0  0  0  0  0  0  0  0
    0.0787    1.5087    0.6134 C   0  0  0  0  0  0  0  0  0  0  0  0
   -1.4559    1.5170    0.5150 C   0  0  1  0  0  0  0  0  0  0  0  0
   -1.8684    1.3083   -0.9511 C   0  0  0  0  0  0  0  0  0  0  0  0
   -1.3245   -0.0348   -1.4645 C   0  0  2  0  0  0  0  0  0  0  0  0
   -1.8893   -1.1743   -0.5987 C   0  0  0  0  0  0  0  0  0  0  0  0
   -1.4793   -0.9764    0.8710 C   0  0  2  0  0  0  0  0  0  0  0  0
   -2.0223    0.3723    1.3707 C   0  0  0  0  0  0  0  0  0  0  0  0
    0.0561   -0.9746    0.9721 C   0  0  0  0  0  0  0  0  0  0  0  0
    0.2108   -0.0340   -1.3610 C   0  0  0  0  0  0  0  0  0  0  0  0
    4.5735   -0.3139   -0.7967 H   0  0  0  0  0  0  0  0  0  0  0  0
    4.4307   -2.0642   -0.5384 H   0  0  0  0  0  0  0  0  0  0  0  0
    4.4629   -0.9864    0.8716 H   0  0  0  0  0  0  0  0  0  0  0  0
    0.4904    2.3410    0.0272 H   0  0  0  0  0  0  0  0  0  0  0  0
    0.3826    1.6852    1.6538 H   0  0  0  0  0  0  0  0  0  0  0  0
   -1.8447    2.4757    0.8758 H   0  0  0  0  0  0  0  0  0  0  0  0
   -1.4842    2.1291   -1.5692 H   0  0  0  0  0  0  0  0  0  0  0  0
   -2.9616    1.3281   -1.0391 H   0  0  0  0  0  0  0  0  0  0  0  0
   -1.6242   -0.1801   -2.5084 H   0  0  0  0  0  0  0  0  0  0  0  0
   -1.5199   -2.1406   -0.9637 H   0  0  0  0  0  0  0  0  0  0  0  0
   -2.9828   -1.1998   -0.6815 H   0  0  0  0  0  0  0  0  0  0  0  0
   -1.8887   -1.7887    1.4818 H   0  0  0  0  0  0  0  0  0  0  0  0
   -1.7489    0.5198    2.4227 H   0  0  0  0  0  0  0  0  0  0  0  0
   -3.1182    0.3759    1.3229 H   0  0  0  0  0  0  0  0  0  0  0  0
    0.4420   -1.9502    0.6495 H   0  0  0  0  0  0  0  0  0  0  0  0
    0.3636   -0.8549    2.0192 H   0  0  0  0  0  0  0  0  0  0  0  0
    0.6018   -0.9784   -1.7609 H   0  0  0  0  0  0  0  0  0  0  0  0
    0.6294    0.7618   -1.9909 H   0  0  0  0  0  0  0  0  0  0  0  0
  1  2  1  0
  2  3  1  0
  3  4  2  0
  5  3  1  6
  5  6  1  0
  6  7  1  0
  7  8  1  0
  8  9  1  0
  9 10  1  0
 10 11  1  0
 11 12  1  0
 11 13  1  0
  9 14  1  0
 13  5  1  0
 14  5  1  0
 12  7  1  0
  1 15  1  0
  1 16  1  0
  1 17  1  0
  6 18  1  0
  6 19  1  0
  7 20  1  1
  8 21  1  0
  8 22  1  0
  9 23  1  6
 10 24  1  0
 10 25  1  0
 11 26  1  1
 12 27  1  0
 12 28  1  0
 13 29  1  0
 13 30  1  0
 14 31  1  0
 14 32  1  0
M  END
>  <_SMILES>  (92) 
COC(=O)[C@]12C[C@H]3C[C@H](C[C@H](C3)C1)C2

$$$$

     RDKit          3D

 34 37  0  0  0  0  0  0  0  0999 V2000
    2.2920   -1.3184   -1.5391 O   0  0  0  0  0  0  0  0  0  0  0  0
    2.5938   -1.0137   -0.3802 C   0  0  0  0  0  0  0  0  0  0  0  0
    1.6577   -0.4013    0.4588 N   0  0  0  0  0  0  0  0  0  0  0  0
    0.2834   -0.0517    0.1266 C   0  0  2  0  0  0  0  0  0  0  0  0
    0.2160    0.9664   -1.0387 C   0  0  0  0  0  0  0  0  0  0  0  0
   -1.2432    1.3570   -1.3333 C   0  0  1  0  0  0  0  0  0  0  0  0
   -2.0406    0.0944   -1.7024 C   0  0  0  0  0  0  0  0  0  0  0  0
   -2.0122   -0.9094   -0.5372 C   0  0  2  0  0  0  0  0  0  0  0  0
   -2.6249   -0.2548    0.7109 C   0  0  0  0  0  0  0  0  0  0  0  0
   -1.8264    1.0024    1.0892 C   0  0  2  0  0  0  0  0  0  0  0  0
   -1.8604    1.9982   -0.0805 C   0  0  0  0  0  0  0  0  0  0  0  0
   -0.3685    0.6071    1.3723 C   0  0  0  0  0  0  0  0  0  0  0  0
   -0.5536   -1.3017   -0.2420 C   0  0  0  0  0  0  0  0  0  0  0  0
    3.8633   -1.1870    0.3526 C   0  0  0  0  0  0  0  0  0  0  0  0
    4.9925   -1.7477   -0.1526 N   0  0  0  0  0  0  0  0  0  0  0  0
    5.8880   -1.6950    0.8624 N   0  0  0  0  0  0  0  0  0  0  0  0
    5.3168   -1.1219    1.9420 N   0  0  0  0  0  0  0  0  0  0  0  0
    4.0394   -0.7903    1.6519 N   0  0  0  0  0  0  0  0  0  0  0  0
    2.0288   -0.2002    1.3898 H   0  0  0  0  0  0  0  0  0  0  0  0
    0.7998    1.8627   -0.7911 H   0  0  0  0  0  0  0  0  0  0  0  0
    0.6641    0.5511   -1.9490 H   0  0  0  0  0  0  0  0  0  0  0  0
   -1.2733    2.0694   -2.1653 H   0  0  0  0  0  0  0  0  0  0  0  0
   -3.0776    0.3632   -1.9387 H   0  0  0  0  0  0  0  0  0  0  0  0
   -1.6178   -0.3657   -2.6039 H   0  0  0  0  0  0  0  0  0  0  0  0
   -2.5872   -1.8028   -0.8051 H   0  0  0  0  0  0  0  0  0  0  0  0
   -2.6234   -0.9658    1.5463 H   0  0  0  0  0  0  0  0  0  0  0  0
   -3.6722    0.0096    0.5198 H   0  0  0  0  0  0  0  0  0  0  0  0
   -2.2647    1.4643    1.9809 H   0  0  0  0  0  0  0  0  0  0  0  0
   -1.3088    2.9083    0.1853 H   0  0  0  0  0  0  0  0  0  0  0  0
   -2.8946    2.3011   -0.2852 H   0  0  0  0  0  0  0  0  0  0  0  0
   -0.3317   -0.0825    2.2265 H   0  0  0  0  0  0  0  0  0  0  0  0
    0.2037    1.4954    1.6722 H   0  0  0  0  0  0  0  0  0  0  0  0
   -0.5218   -2.0322    0.5771 H   0  0  0  0  0  0  0  0  0  0  0  0
   -0.1365   -1.8083   -1.1202 H   0  0  0  0  0  0  0  0  0  0  0  0
  1  2  2  0
  2  3  1  0
  4  3  1  1
  4  5  1  0
  5  6  1  0
  6  7  1  0
  7  8  1  0
  8  9  1  0
  9 10  1  0
 10 11  1  0
 10 12  1  0
  8 13  1  0
  2 14  1  0
 14 15  2  0
 15 16  1  0
 16 17  2  0
 17 18  1  0
 12  4  1  0
 18 14  1  0
 13  4  1  0
 11  6  1  0
  3 19  1  0
  5 20  1  0
  5 21  1  0
  6 22  1  6
  7 23  1  0
  7 24  1  0
  8 25  1  6
  9 26  1  0
  9 27  1  0
 10 28  1  1
 11 29  1  0
 11 30  1  0
 12 31  1  0
 12 32  1  0
 13 33  1  0
 13 34  1  0
M  CHG  1  18  -1
M  END
>  <_SMILES>  (93) 
O=C(N[C@]12C[C@H]3C[C@H](C[C@H](C3)C1)C2)c1nnn[n-]1

$$$$

     RDKit          3D

 36 38  0  0  0  0  0  0  0  0999 V2000
    5.2693   -1.1791    0.5695 C   0  0  0  0  0  0  0  0  0  0  0  0
    3.9036   -0.9440    0.2264 O   0  0  0  0  0  0  0  0  0  0  0  0
    3.7502   -0.2355   -0.9208 C   0  0  0  0  0  0  0  0  0  0  0  0
    4.6339    0.2162   -1.6247 O   0  0  0  0  0  0  0  0  0  0  0  0
    2.2378   -0.0588   -1.2086 C   0  0  0  0  0  0  0  0  0  0  0  0
    1.8279   -0.0549   -2.3590 O   0  0  0  0  0  0  0  0  0  0  0  0
    1.4582    0.0704   -0.0707 N   0  0  0  0  0  0  0  0  0  0  0  0
   -0.0033    0.1496   -0.0628 C   0  0  2  0  0  0  0  0  0  0  0  0
   -0.6445   -1.1386   -0.6346 C   0  0  0  0  0  0  0  0  0  0  0  0
   -2.1796   -1.0549   -0.5668 C   0  0  1  0  0  0  0  0  0  0  0  0
   -2.6152   -0.8915    0.8981 C   0  0  0  0  0  0  0  0  0  0  0  0
   -2.0102    0.3932    1.4858 C   0  0  2  0  0  0  0  0  0  0  0  0
   -2.4924    1.6026    0.6699 C   0  0  0  0  0  0  0  0  0  0  0  0
   -2.0553    1.4539   -0.7957 C   0  0  2  0  0  0  0  0  0  0  0  0
   -2.6570    0.1628   -1.3764 C   0  0  0  0  0  0  0  0  0  0  0  0
   -0.5199    1.3715   -0.8635 C   0  0  0  0  0  0  0  0  0  0  0  0
   -0.4775    0.3108    1.4066 C   0  0  0  0  0  0  0  0  0  0  0  0
    5.2904   -1.7671    1.4913 H   0  0  0  0  0  0  0  0  0  0  0  0
    5.7709   -1.7515   -0.2172 H   0  0  0  0  0  0  0  0  0  0  0  0
    5.7873   -0.2322    0.7514 H   0  0  0  0  0  0  0  0  0  0  0  0
    1.9343   -0.1164    0.8059 H   0  0  0  0  0  0  0  0  0  0  0  0
   -0.2934   -2.0156   -0.0750 H   0  0  0  0  0  0  0  0  0  0  0  0
   -0.3390   -1.2970   -1.6759 H   0  0  0  0  0  0  0  0  0  0  0  0
   -2.6174   -1.9695   -0.9821 H   0  0  0  0  0  0  0  0  0  0  0  0
   -3.7097   -0.8534    0.9616 H   0  0  0  0  0  0  0  0  0  0  0  0
   -2.2924   -1.7606    1.4844 H   0  0  0  0  0  0  0  0  0  0  0  0
   -2.3215    0.5042    2.5305 H   0  0  0  0  0  0  0  0  0  0  0  0
   -2.0812    2.5280    1.0918 H   0  0  0  0  0  0  0  0  0  0  0  0
   -3.5847    1.6835    0.7292 H   0  0  0  0  0  0  0  0  0  0  0  0
   -2.4041    2.3168   -1.3740 H   0  0  0  0  0  0  0  0  0  0  0  0
   -3.7524    0.2189   -1.3560 H   0  0  0  0  0  0  0  0  0  0  0  0
   -2.3637    0.0523   -2.4276 H   0  0  0  0  0  0  0  0  0  0  0  0
   -0.0781    2.2957   -0.4683 H   0  0  0  0  0  0  0  0  0  0  0  0
   -0.2148    1.3111   -1.9145 H   0  0  0  0  0  0  0  0  0  0  0  0
   -0.0340    1.2127    1.8494 H   0  0  0  0  0  0  0  0  0  0  0  0
   -0.1223   -0.5335    2.0127 H   0  0  0  0  0  0  0  0  0  0  0  0
  1  2  1  0
  2  3  1  0
  3  4  2  0
  3  5  1  0
  5  6  2  0
  5  7  1  0
  8  7  1  1
  8  9  1  0
  9 10  1  0
 10 11  1  0
 11 12  1  0
 12 13  1  0
 13 14  1  0
 14 15  1  0
 14 16  1  0
 12 17  1  0
 16  8  1  0
 17  8  1  0
 15 10  1  0
  1 18  1  0
  1 19  1  0
  1 20  1  0
  7 21  1  0
  9 22  1  0
  9 23  1  0
 10 24  1  6
 11 25  1  0
 11 26  1  0
 12 27  1  1
 13 28  1  0
 13 29  1  0
 14 30  1  6
 15 31  1  0
 15 32  1  0
 16 33  1  0
 16 34  1  0
 17 35  1  0
 17 36  1  0
M  END
>  <_SMILES>  (94) 
COC(=O)C(=O)N[C@]12C[C@H]3C[C@H](C[C@H](C3)C1)C2

$$$$

     RDKit          3D

 39 41  0  0  0  0  0  0  0  0999 V2000
    2.2621   -1.5546   -1.7582 C   0  0  0  0  0  0  0  0  0  0  0  0
    1.6785   -0.6529   -0.7906 N   0  0  0  0  0  0  0  0  0  0  0  0
    0.3523   -0.4075   -0.8506 N   0  0  0  0  0  0  0  0  0  0  0  0
    0.1198    0.4024    0.2027 C   0  0  0  0  0  0  0  0  0  0  0  0
   -1.2266    0.9036    0.5194 C   0  0  0  0  0  0  0  0  0  0  0  0
   -1.4689    1.5928    1.5052 O   0  0  0  0  0  0  0  0  0  0  0  0
   -2.1796    0.5045   -0.3938 N   0  0  0  0  0  0  0  0  0  0  0  0
   -3.5886    0.7110   -0.1814 C   0  0  0  0  0  0  0  0  0  0  0  0
   -4.2039   -0.3212    0.7617 C   0  0  0  0  0  0  0  0  0  0  0  0
   -5.6869   -0.3660    0.3947 C   0  0  0  0  0  0  0  0  0  0  0  0
   -5.8254    0.3753   -0.9343 C   0  0  0  0  0  0  0  0  0  0  0  0
   -4.4056    0.5384   -1.4551 C   0  0  0  0  0  0  0  0  0  0  0  0
    1.3157    0.6629    0.9143 C   0  0  0  0  0  0  0  0  0  0  0  0
    2.3179   -0.0072    0.2409 C   0  0  0  0  0  0  0  0  0  0  0  0
    3.7457   -0.0817    0.5282 C   0  0  0  0  0  0  0  0  0  0  0  0
    4.1875   -0.5756    1.7613 C   0  0  0  0  0  0  0  0  0  0  0  0
    5.5529   -0.6504    2.0449 C   0  0  0  0  0  0  0  0  0  0  0  0
    6.4859   -0.2251    1.1007 C   0  0  0  0  0  0  0  0  0  0  0  0
    6.0553    0.2794   -0.1251 C   0  0  0  0  0  0  0  0  0  0  0  0
    4.6900    0.3537   -0.4099 C   0  0  0  0  0  0  0  0  0  0  0  0
    1.4779   -2.1953   -2.1708 H   0  0  0  0  0  0  0  0  0  0  0  0
    3.0118   -2.1778   -1.2651 H   0  0  0  0  0  0  0  0  0  0  0  0
    2.7133   -0.9558   -2.5527 H   0  0  0  0  0  0  0  0  0  0  0  0
   -1.8454   -0.1689   -1.0794 H   0  0  0  0  0  0  0  0  0  0  0  0
   -3.7408    1.7175    0.2294 H   0  0  0  0  0  0  0  0  0  0  0  0
   -4.0492   -0.0612    1.8140 H   0  0  0  0  0  0  0  0  0  0  0  0
   -3.7564   -1.3108    0.6040 H   0  0  0  0  0  0  0  0  0  0  0  0
   -6.3003    0.1132    1.1653 H   0  0  0  0  0  0  0  0  0  0  0  0
   -6.0262   -1.4037    0.3054 H   0  0  0  0  0  0  0  0  0  0  0  0
   -6.2748    1.3604   -0.7607 H   0  0  0  0  0  0  0  0  0  0  0  0
   -6.4652   -0.1606   -1.6419 H   0  0  0  0  0  0  0  0  0  0  0  0
   -4.3069    1.3912   -2.1338 H   0  0  0  0  0  0  0  0  0  0  0  0
   -4.0984   -0.3617   -2.0023 H   0  0  0  0  0  0  0  0  0  0  0  0
    1.4230    1.2794    1.7966 H   0  0  0  0  0  0  0  0  0  0  0  0
    3.4708   -0.9105    2.5080 H   0  0  0  0  0  0  0  0  0  0  0  0
    5.8870   -1.0377    3.0040 H   0  0  0  0  0  0  0  0  0  0  0  0
    7.5484   -0.2797    1.3238 H   0  0  0  0  0  0  0  0  0  0  0  0
    6.7823    0.6234   -0.8564 H   0  0  0  0  0  0  0  0  0  0  0  0
    4.3707    0.7705   -1.3622 H   0  0  0  0  0  0  0  0  0  0  0  0
  1  2  1  0
  2  3  1  0
  3  4  2  0
  4  5  1  0
  5  6  2  0
  5  7  1  0
  7  8  1  0
  8  9  1  0
  9 10  1  0
 10 11  1  0
 11 12  1  0
  4 13  1  0
 13 14  2  0
 14 15  1  0
 15 16  2  0
 16 17  1  0
 17 18  2  0
 18 19  1  0
 19 20  2  0
 14  2  1  0
 20 15  1  0
 12  8  1  0
  1 21  1  0
  1 22  1  0
  1 23  1  0
  7 24  1  0
  8 25  1  0
  9 26  1  0
  9 27  1  0
 10 28  1  0
 10 29  1  0
 11 30  1  0
 11 31  1  0
 12 32  1  0
 12 33  1  0
 13 34  1  0
 16 35  1  0
 17 36  1  0
 18 37  1  0
 19 38  1  0
 20 39  1  0
M  END
>  <_SMILES>  (95) 
Cn1nc(C(=O)NC2CCCC2)cc1-c1ccccc1

$$$$

     RDKit          3D

 36 38  0  0  0  0  0  0  0  0999 V2000
   -2.5739    2.5307    1.7043 C   0  0  0  0  0  0  0  0  0  0  0  0
   -1.6066    1.6959    1.0285 N   0  0  0  0  0  0  0  0  0  0  0  0
   -0.3092    2.0412    1.0798 N   0  0  0  0  0  0  0  0  0  0  0  0
    0.3414    1.0701    0.4138 C   0  0  0  0  0  0  0  0  0  0  0  0
    1.8177    1.0994    0.2519 C   0  0  0  0  0  0  0  0  0  0  0  0
    2.4662    2.1247    0.4390 O   0  0  0  0  0  0  0  0  0  0  0  0
    2.3615   -0.1280   -0.1090 N   0  0  0  0  0  0  0  0  0  0  0  0
    3.7134   -0.4299   -0.3768 C   0  0  0  0  0  0  0  0  0  0  0  0
    4.0219   -1.7670   -0.6645 C   0  0  0  0  0  0  0  0  0  0  0  0
    5.3351   -2.1538   -0.9460 C   0  0  0  0  0  0  0  0  0  0  0  0
    6.3543   -1.2063   -0.9445 C   0  0  0  0  0  0  0  0  0  0  0  0
    6.0581    0.1248   -0.6626 C   0  0  0  0  0  0  0  0  0  0  0  0
    4.7435    0.5120   -0.3808 C   0  0  0  0  0  0  0  0  0  0  0  0
   -0.5914    0.1083   -0.0698 C   0  0  0  0  0  0  0  0  0  0  0  0
   -1.8425    0.5421    0.3241 C   0  0  0  0  0  0  0  0  0  0  0  0
   -3.1539   -0.0466    0.0853 C   0  0  0  0  0  0  0  0  0  0  0  0
   -3.4553   -1.3171    0.5895 C   0  0  0  0  0  0  0  0  0  0  0  0
   -4.7097   -1.8873    0.3624 C   0  0  0  0  0  0  0  0  0  0  0  0
   -5.6679   -1.1942   -0.3756 C   0  0  0  0  0  0  0  0  0  0  0  0
   -5.3728    0.0675   -0.8895 C   0  0  0  0  0  0  0  0  0  0  0  0
   -4.1193    0.6392   -0.6619 C   0  0  0  0  0  0  0  0  0  0  0  0
   -2.0681    3.1121    2.4800 H   0  0  0  0  0  0  0  0  0  0  0  0
   -3.0213    3.1995    0.9653 H   0  0  0  0  0  0  0  0  0  0  0  0
   -3.3346    1.8984    2.1682 H   0  0  0  0  0  0  0  0  0  0  0  0
    1.7287   -0.9129   -0.1365 H   0  0  0  0  0  0  0  0  0  0  0  0
    3.2473   -2.5291   -0.6728 H   0  0  0  0  0  0  0  0  0  0  0  0
    5.5612   -3.1939   -1.1658 H   0  0  0  0  0  0  0  0  0  0  0  0
    7.3771   -1.5020   -1.1623 H   0  0  0  0  0  0  0  0  0  0  0  0
    6.8494    0.8705   -0.6604 H   0  0  0  0  0  0  0  0  0  0  0  0
    4.5626    1.5616   -0.1708 H   0  0  0  0  0  0  0  0  0  0  0  0
   -0.3956   -0.7725   -0.6641 H   0  0  0  0  0  0  0  0  0  0  0  0
   -2.7192   -1.8676    1.1707 H   0  0  0  0  0  0  0  0  0  0  0  0
   -4.9389   -2.8721    0.7613 H   0  0  0  0  0  0  0  0  0  0  0  0
   -6.6437   -1.6393   -0.5539 H   0  0  0  0  0  0  0  0  0  0  0  0
   -6.1168    0.6044   -1.4726 H   0  0  0  0  0  0  0  0  0  0  0  0
   -3.8987    1.6171   -1.0840 H   0  0  0  0  0  0  0  0  0  0  0  0
  1  2  1  0
  2  3  1  0
  3  4  2  0
  4  5  1  0
  5  6  2  0
  5  7  1  0
  7  8  1  0
  8  9  2  0
  9 10  1  0
 10 11  2  0
 11 12  1  0
 12 13  2  0
  4 14  1  0
 14 15  2  0
 15 16  1  0
 16 17  2  0
 17 18  1  0
 18 19  2  0
 19 20  1  0
 20 21  2  0
 15  2  1  0
 21 16  1  0
 13  8  1  0
  1 22  1  0
  1 23  1  0
  1 24  1  0
  7 25  1  0
  9 26  1  0
 10 27  1  0
 11 28  1  0
 12 29  1  0
 13 30  1  0
 14 31  1  0
 17 32  1  0
 18 33  1  0
 19 34  1  0
 20 35  1  0
 21 36  1  0
M  END
>  <_SMILES>  (96) 
Cn1nc(C(=O)Nc2ccccc2)cc1-c1ccccc1

$$$$

     RDKit          3D

 33 35  0  0  0  0  0  0  0  0999 V2000
   -2.0461   -0.3688    2.7796 C   0  0  0  0  0  0  0  0  0  0  0  0
   -1.0157   -0.2088    1.7786 N   0  0  0  0  0  0  0  0  0  0  0  0
    0.2698   -0.2156    2.1706 N   0  0  0  0  0  0  0  0  0  0  0  0
    0.9841   -0.1189    1.0351 C   0  0  0  0  0  0  0  0  0  0  0  0
    2.4630   -0.1131    1.0502 C   0  0  0  0  0  0  0  0  0  0  0  0
    3.1305   -0.4570    2.0243 O   0  0  0  0  0  0  0  0  0  0  0  0
    3.0518    0.3281   -0.1289 N   0  0  0  0  0  0  0  0  0  0  0  0
    4.4684    0.4345   -0.2778 C   0  0  0  0  0  0  0  0  0  0  0  0
    5.2412   -0.6437   -0.9850 C   0  0  0  0  0  0  0  0  0  0  0  0
    5.0795    0.7031   -1.6260 C   0  0  0  0  0  0  0  0  0  0  0  0
    0.1070   -0.0380   -0.0831 C   0  0  0  0  0  0  0  0  0  0  0  0
   -1.1783   -0.0682    0.4228 C   0  0  0  0  0  0  0  0  0  0  0  0
   -2.4582   -0.0109   -0.2726 C   0  0  0  0  0  0  0  0  0  0  0  0
   -2.7825   -0.9821   -1.2272 C   0  0  0  0  0  0  0  0  0  0  0  0
   -4.0057   -0.9315   -1.8991 C   0  0  0  0  0  0  0  0  0  0  0  0
   -4.9097    0.0937   -1.6264 C   0  0  0  0  0  0  0  0  0  0  0  0
   -4.5912    1.0707   -0.6846 C   0  0  0  0  0  0  0  0  0  0  0  0
   -3.3688    1.0204   -0.0112 C   0  0  0  0  0  0  0  0  0  0  0  0
   -1.6180   -0.8504    3.6631 H   0  0  0  0  0  0  0  0  0  0  0  0
   -2.8439   -0.9985    2.3790 H   0  0  0  0  0  0  0  0  0  0  0  0
   -2.4252    0.6224    3.0390 H   0  0  0  0  0  0  0  0  0  0  0  0
    2.4654    0.7350   -0.8431 H   0  0  0  0  0  0  0  0  0  0  0  0
    4.9540    0.9014    0.5778 H   0  0  0  0  0  0  0  0  0  0  0  0
    4.6928   -1.4806   -1.4007 H   0  0  0  0  0  0  0  0  0  0  0  0
    6.2120   -0.9083   -0.5816 H   0  0  0  0  0  0  0  0  0  0  0  0
    5.9473    1.3517   -1.6659 H   0  0  0  0  0  0  0  0  0  0  0  0
    4.4333    0.7736   -2.4924 H   0  0  0  0  0  0  0  0  0  0  0  0
    0.3668    0.0344   -1.1293 H   0  0  0  0  0  0  0  0  0  0  0  0
   -2.0890   -1.7907   -1.4472 H   0  0  0  0  0  0  0  0  0  0  0  0
   -4.2524   -1.6926   -2.6350 H   0  0  0  0  0  0  0  0  0  0  0  0
   -5.8611    0.1335   -2.1510 H   0  0  0  0  0  0  0  0  0  0  0  0
   -5.2925    1.8753   -0.4781 H   0  0  0  0  0  0  0  0  0  0  0  0
   -3.1287    1.8002    0.7079 H   0  0  0  0  0  0  0  0  0  0  0  0
  1  2  1  0
  2  3  1  0
  3  4  2  0
  4  5  1  0
  5  6  2  0
  5  7  1  0
  7  8  1  0
  8  9  1  0
  9 10  1  0
  4 11  1  0
 11 12  2  0
 12 13  1  0
 13 14  2  0
 14 15  1  0
 15 16  2  0
 16 17  1  0
 17 18  2  0
 12  2  1  0
 18 13  1  0
 10  8  1  0
  1 19  1  0
  1 20  1  0
  1 21  1  0
  7 22  1  0
  8 23  1  0
  9 24  1  0
  9 25  1  0
 10 26  1  0
 10 27  1  0
 11 28  1  0
 14 29  1  0
 15 30  1  0
 16 31  1  0
 17 32  1  0
 18 33  1  0
M  END
>  <_SMILES>  (97) 
Cn1nc(C(=O)NC2CC2)cc1-c1ccccc1

$$$$

     RDKit          3D

 43 45  0  0  0  0  0  0  0  0999 V2000
    3.5962   -0.5043   -2.6622 C   0  0  0  0  0  0  0  0  0  0  0  0
    2.4215   -0.1307   -1.9033 N   0  0  0  0  0  0  0  0  0  0  0  0
    1.2232    0.2221   -2.4648 C   0  0  0  0  0  0  0  0  0  0  0  0
    0.3055    0.4715   -1.4582 C   0  0  0  0  0  0  0  0  0  0  0  0
   -1.0814    0.8706   -1.6988 C   0  0  0  0  0  0  0  0  0  0  0  0
   -1.5131    1.0962   -2.8254 O   0  0  0  0  0  0  0  0  0  0  0  0
   -1.8641    0.9543   -0.5658 N   0  0  0  0  0  0  0  0  0  0  0  0
   -3.2987    1.1967   -0.6409 C   0  0  0  0  0  0  0  0  0  0  0  0
   -4.0636   -0.0921   -0.9758 C   0  0  0  0  0  0  0  0  0  0  0  0
   -4.0827   -1.0802    0.1899 C   0  0  0  0  0  0  0  0  0  0  0  0
   -4.6223   -0.4357    1.4627 C   0  0  0  0  0  0  0  0  0  0  0  0
   -3.8534    0.8307    1.8251 C   0  0  0  0  0  0  0  0  0  0  0  0
   -3.8125    1.8225    0.6623 C   0  0  0  0  0  0  0  0  0  0  0  0
    1.0133    0.2614   -0.2370 C   0  0  0  0  0  0  0  0  0  0  0  0
    2.3194   -0.0992   -0.5296 C   0  0  0  0  0  0  0  0  0  0  0  0
    3.4097   -0.4100    0.3904 C   0  0  0  0  0  0  0  0  0  0  0  0
    4.5193    0.4369    0.4923 C   0  0  0  0  0  0  0  0  0  0  0  0
    5.5575    0.1355    1.3762 C   0  0  0  0  0  0  0  0  0  0  0  0
    5.4904   -1.0117    2.1657 C   0  0  0  0  0  0  0  0  0  0  0  0
    4.3847   -1.8562    2.0754 C   0  0  0  0  0  0  0  0  0  0  0  0
    3.3457   -1.5549    1.1925 C   0  0  0  0  0  0  0  0  0  0  0  0
    4.0039   -1.4315   -2.2519 H   0  0  0  0  0  0  0  0  0  0  0  0
    4.3233    0.3082   -2.5922 H   0  0  0  0  0  0  0  0  0  0  0  0
    3.3178   -0.6636   -3.7074 H   0  0  0  0  0  0  0  0  0  0  0  0
    1.0975    0.2678   -3.5399 H   0  0  0  0  0  0  0  0  0  0  0  0
   -1.4867    0.5795    0.2908 H   0  0  0  0  0  0  0  0  0  0  0  0
   -3.4622    1.9141   -1.4547 H   0  0  0  0  0  0  0  0  0  0  0  0
   -5.0985    0.1675   -1.2336 H   0  0  0  0  0  0  0  0  0  0  0  0
   -3.6326   -0.5810   -1.8573 H   0  0  0  0  0  0  0  0  0  0  0  0
   -4.7024   -1.9448   -0.0738 H   0  0  0  0  0  0  0  0  0  0  0  0
   -3.0699   -1.4600    0.3712 H   0  0  0  0  0  0  0  0  0  0  0  0
   -4.5658   -1.1510    2.2910 H   0  0  0  0  0  0  0  0  0  0  0  0
   -5.6827   -0.1906    1.3251 H   0  0  0  0  0  0  0  0  0  0  0  0
   -4.3211    1.3068    2.6946 H   0  0  0  0  0  0  0  0  0  0  0  0
   -2.8326    0.5654    2.1245 H   0  0  0  0  0  0  0  0  0  0  0  0
   -3.1925    2.6831    0.9408 H   0  0  0  0  0  0  0  0  0  0  0  0
   -4.8276    2.2046    0.4937 H   0  0  0  0  0  0  0  0  0  0  0  0
    0.6306    0.3770    0.7684 H   0  0  0  0  0  0  0  0  0  0  0  0
    4.5751    1.3417   -0.1081 H   0  0  0  0  0  0  0  0  0  0  0  0
    6.4152    0.7988    1.4521 H   0  0  0  0  0  0  0  0  0  0  0  0
    6.2980   -1.2453    2.8548 H   0  0  0  0  0  0  0  0  0  0  0  0
    4.3301   -2.7490    2.6927 H   0  0  0  0  0  0  0  0  0  0  0  0
    2.4887   -2.2211    1.1280 H   0  0  0  0  0  0  0  0  0  0  0  0
  1  2  1  0
  2  3  1  0
  3  4  2  0
  4  5  1  0
  5  6  2  0
  5  7  1  0
  7  8  1  0
  8  9  1  0
  9 10  1  0
 10 11  1  0
 11 12  1  0
 12 13  1  0
  4 14  1  0
 14 15  2  0
 15 16  1  0
 16 17  2  0
 17 18  1  0
 18 19  2  0
 19 20  1  0
 20 21  2  0
 15  2  1  0
 21 16  1  0
 13  8  1  0
  1 22  1  0
  1 23  1  0
  1 24  1  0
  3 25  1  0
  7 26  1  0
  8 27  1  0
  9 28  1  0
  9 29  1  0
 10 30  1  0
 10 31  1  0
 11 32  1  0
 11 33  1  0
 12 34  1  0
 12 35  1  0
 13 36  1  0
 13 37  1  0
 14 38  1  0
 17 39  1  0
 18 40  1  0
 19 41  1  0
 20 42  1  0
 21 43  1  0
M  END
>  <_SMILES>  (98) 
Cn1cc(C(=O)NC2CCCCC2)cc1-c1ccccc1

$$$$

     RDKit          3D

 39 41  0  0  0  0  0  0  0  0999 V2000
    0.7770    0.4733    2.3198 O   0  0  0  0  0  0  0  0  0  0  0  0
    0.6368    0.4945    1.1011 C   0  0  0  0  0  0  0  0  0  0  0  0
    1.6792    0.6188    0.2070 N   0  0  0  0  0  0  0  0  0  0  0  0
    3.0736    0.5523    0.6060 C   0  0  0  0  0  0  0  0  0  0  0  0
    3.9639    1.2615   -0.4277 C   0  0  0  0  0  0  0  0  0  0  0  0
    4.4989    0.2925   -1.4762 C   0  0  0  0  0  0  0  0  0  0  0  0
    5.3561   -0.8085   -0.8479 C   0  0  0  0  0  0  0  0  0  0  0  0
    4.9711   -1.1329    0.5966 C   0  0  0  0  0  0  0  0  0  0  0  0
    3.4850   -0.9119    0.8458 C   0  0  0  0  0  0  0  0  0  0  0  0
   -0.6743    0.3733    0.4440 C   0  0  0  0  0  0  0  0  0  0  0  0
   -1.9382    0.2627    1.0765 C   0  0  0  0  0  0  0  0  0  0  0  0
   -2.8701    0.1604    0.0625 C   0  0  0  0  0  0  0  0  0  0  0  0
   -4.3261    0.0365    0.0913 C   0  0  0  0  0  0  0  0  0  0  0  0
   -5.0617    0.6089    1.1384 C   0  0  0  0  0  0  0  0  0  0  0  0
   -6.4545    0.5018    1.1763 C   0  0  0  0  0  0  0  0  0  0  0  0
   -7.1291   -0.1835    0.1693 C   0  0  0  0  0  0  0  0  0  0  0  0
   -6.4119   -0.7640   -0.8739 C   0  0  0  0  0  0  0  0  0  0  0  0
   -5.0185   -0.6558   -0.9129 C   0  0  0  0  0  0  0  0  0  0  0  0
   -2.1309    0.2329   -1.0899 N   0  0  0  0  0  0  0  0  0  0  0  0
   -0.8045    0.3448   -0.8985 N   0  0  0  0  0  0  0  0  0  0  0  0
    1.4129    0.4886   -0.7662 H   0  0  0  0  0  0  0  0  0  0  0  0
    3.1611    1.0994    1.5535 H   0  0  0  0  0  0  0  0  0  0  0  0
    3.4214    2.0805   -0.9150 H   0  0  0  0  0  0  0  0  0  0  0  0
    4.8179    1.7182    0.0893 H   0  0  0  0  0  0  0  0  0  0  0  0
    3.6562   -0.1628   -2.0115 H   0  0  0  0  0  0  0  0  0  0  0  0
    5.0883    0.8323   -2.2261 H   0  0  0  0  0  0  0  0  0  0  0  0
    6.4129   -0.5157   -0.8717 H   0  0  0  0  0  0  0  0  0  0  0  0
    5.2761   -1.7111   -1.4658 H   0  0  0  0  0  0  0  0  0  0  0  0
    5.5493   -0.4983    1.2801 H   0  0  0  0  0  0  0  0  0  0  0  0
    5.2456   -2.1686    0.8263 H   0  0  0  0  0  0  0  0  0  0  0  0
    2.9139   -1.5834    0.1905 H   0  0  0  0  0  0  0  0  0  0  0  0
    3.2300   -1.2007    1.8726 H   0  0  0  0  0  0  0  0  0  0  0  0
   -2.1243    0.2501    2.1420 H   0  0  0  0  0  0  0  0  0  0  0  0
   -4.5587    1.1552    1.9333 H   0  0  0  0  0  0  0  0  0  0  0  0
   -7.0105    0.9544    1.9936 H   0  0  0  0  0  0  0  0  0  0  0  0
   -8.2123   -0.2691    0.2005 H   0  0  0  0  0  0  0  0  0  0  0  0
   -6.9367   -1.3084   -1.6550 H   0  0  0  0  0  0  0  0  0  0  0  0
   -4.4880   -1.1411   -1.7278 H   0  0  0  0  0  0  0  0  0  0  0  0
   -2.4770    0.2229   -2.0428 H   0  0  0  0  0  0  0  0  0  0  0  0
  1  2  2  0
  2  3  1  0
  3  4  1  0
  4  5  1  0
  5  6  1  0
  6  7  1  0
  7  8  1  0
  8  9  1  0
  2 10  1  0
 10 11  1  0
 11 12  2  0
 12 13  1  0
 13 14  2  0
 14 15  1  0
 15 16  2  0
 16 17  1  0
 17 18  2  0
 12 19  1  0
 19 20  1  0
  9  4  1  0
 20 10  2  0
 18 13  1  0
  3 21  1  0
  4 22  1  0
  5 23  1  0
  5 24  1  0
  6 25  1  0
  6 26  1  0
  7 27  1  0
  7 28  1  0
  8 29  1  0
  8 30  1  0
  9 31  1  0
  9 32  1  0
 11 33  1  0
 14 34  1  0
 15 35  1  0
 16 36  1  0
 17 37  1  0
 18 38  1  0
 19 39  1  0
M  END
>  <_SMILES>  (99) 
O=C(NC1CCCCC1)c1cc(-c2ccccc2)[nH]n1

$$$$

     RDKit          3D

 39 41  0  0  0  0  0  0  0  0999 V2000
   -0.6629    1.7816    0.6442 O   0  0  0  0  0  0  0  0  0  0  0  0
   -0.4738    0.6453    0.2243 C   0  0  0  0  0  0  0  0  0  0  0  0
   -1.5046   -0.2554    0.0301 N   0  0  0  0  0  0  0  0  0  0  0  0
   -2.8817    0.0955    0.3638 C   0  0  0  0  0  0  0  0  0  0  0  0
   -3.7597   -1.1576    0.4115 C   0  0  0  0  0  0  0  0  0  0  0  0
   -5.1869   -0.8407    0.8628 C   0  0  0  0  0  0  0  0  0  0  0  0
   -5.6540    0.5618    0.4720 C   0  0  0  0  0  0  0  0  0  0  0  0
   -4.9707    1.0499   -0.7968 C   0  0  0  0  0  0  0  0  0  0  0  0
   -3.4505    1.1250   -0.6322 C   0  0  0  0  0  0  0  0  0  0  0  0
    0.8379    0.1332   -0.0726 C   0  0  0  0  0  0  0  0  0  0  0  0
    2.0695    0.5914    0.3530 C   0  0  0  0  0  0  0  0  0  0  0  0
    3.0445   -0.2623   -0.2325 C   0  0  0  0  0  0  0  0  0  0  0  0
    4.5054   -0.2175   -0.0837 C   0  0  0  0  0  0  0  0  0  0  0  0
    5.3130   -1.1894   -0.6963 C   0  0  0  0  0  0  0  0  0  0  0  0
    6.7039   -1.1587   -0.5613 C   0  0  0  0  0  0  0  0  0  0  0  0
    7.3085   -0.1538    0.1888 C   0  0  0  0  0  0  0  0  0  0  0  0
    6.5239    0.8195    0.8027 C   0  0  0  0  0  0  0  0  0  0  0  0
    5.1318    0.7885    0.6677 C   0  0  0  0  0  0  0  0  0  0  0  0
    2.4386   -1.1892   -0.9952 N   0  0  0  0  0  0  0  0  0  0  0  0
    1.1340   -0.8999   -0.9117 N   0  0  0  0  0  0  0  0  0  0  0  0
   -1.2704   -1.2376    0.0284 H   0  0  0  0  0  0  0  0  0  0  0  0
   -2.8644    0.5450    1.3658 H   0  0  0  0  0  0  0  0  0  0  0  0
   -3.3269   -1.9102    1.0823 H   0  0  0  0  0  0  0  0  0  0  0  0
   -3.7870   -1.6218   -0.5836 H   0  0  0  0  0  0  0  0  0  0  0  0
   -5.2642   -0.9457    1.9518 H   0  0  0  0  0  0  0  0  0  0  0  0
   -5.8640   -1.5903    0.4355 H   0  0  0  0  0  0  0  0  0  0  0  0
   -5.4342    1.2596    1.2899 H   0  0  0  0  0  0  0  0  0  0  0  0
   -6.7424    0.5647    0.3441 H   0  0  0  0  0  0  0  0  0  0  0  0
   -5.2135    0.3679   -1.6216 H   0  0  0  0  0  0  0  0  0  0  0  0
   -5.3580    2.0344   -1.0825 H   0  0  0  0  0  0  0  0  0  0  0  0
   -2.9891    1.0082   -1.6213 H   0  0  0  0  0  0  0  0  0  0  0  0
   -3.1756    2.1317   -0.2927 H   0  0  0  0  0  0  0  0  0  0  0  0
    2.2263    1.4325    1.0141 H   0  0  0  0  0  0  0  0  0  0  0  0
    4.8595   -1.9828   -1.2875 H   0  0  0  0  0  0  0  0  0  0  0  0
    7.3106   -1.9203   -1.0439 H   0  0  0  0  0  0  0  0  0  0  0  0
    8.3900   -0.1285    0.2938 H   0  0  0  0  0  0  0  0  0  0  0  0
    6.9939    1.6062    1.3875 H   0  0  0  0  0  0  0  0  0  0  0  0
    4.5525    1.5659    1.1578 H   0  0  0  0  0  0  0  0  0  0  0  0
    0.4905   -1.4461   -1.4730 H   0  0  0  0  0  0  0  0  0  0  0  0
  1  2  2  0
  2  3  1  0
  3  4  1  0
  4  5  1  0
  5  6  1  0
  6  7  1  0
  7  8  1  0
  8  9  1  0
  2 10  1  0
 10 11  2  0
 11 12  1  0
 12 13  1  0
 13 14  2  0
 14 15  1  0
 15 16  2  0
 16 17  1  0
 17 18  2  0
 12 19  2  0
 19 20  1  0
  9  4  1  0
 20 10  1  0
 18 13  1  0
  3 21  1  0
  4 22  1  0
  5 23  1  0
  5 24  1  0
  6 25  1  0
  6 26  1  0
  7 27  1  0
  7 28  1  0
  8 29  1  0
  8 30  1  0
  9 31  1  0
  9 32  1  0
 11 33  1  0
 14 34  1  0
 15 35  1  0
 16 36  1  0
 17 37  1  0
 18 38  1  0
 20 39  1  0
M  END
>  <_SMILES>  (100) 
O=C(NC1CCCCC1)c1cc(-c2ccccc2)n[nH]1

$$$$

     RDKit          3D

 45 47  0  0  0  0  0  0  0  0999 V2000
   -2.9831    0.5343    2.7283 C   0  0  0  0  0  0  0  0  0  0  0  0
   -2.6681   -0.6283    1.8038 C   0  0  0  0  0  0  0  0  0  0  0  0
   -1.9712   -0.2005    0.6030 N   0  0  0  0  0  0  0  0  0  0  0  0
   -0.6210   -0.1465    0.6239 N   0  0  0  0  0  0  0  0  0  0  0  0
   -0.2909    0.3228   -0.5971 C   0  0  0  0  0  0  0  0  0  0  0  0
    1.1085    0.5405   -0.9960 C   0  0  0  0  0  0  0  0  0  0  0  0
    1.4327    0.9181   -2.1174 O   0  0  0  0  0  0  0  0  0  0  0  0
    2.0060    0.2626    0.0137 N   0  0  0  0  0  0  0  0  0  0  0  0
    3.4386    0.2080   -0.1976 C   0  0  0  0  0  0  0  0  0  0  0  0
    3.8574   -1.1326   -0.8066 C   0  0  0  0  0  0  0  0  0  0  0  0
    5.3533   -1.1704   -1.1285 C   0  0  0  0  0  0  0  0  0  0  0  0
    6.1979   -0.2707   -0.2249 C   0  0  0  0  0  0  0  0  0  0  0  0
    5.5891   -0.1335    1.1632 C   0  0  0  0  0  0  0  0  0  0  0  0
    4.1862    0.4776    1.1178 C   0  0  0  0  0  0  0  0  0  0  0  0
   -1.4465    0.5480   -1.3831 C   0  0  0  0  0  0  0  0  0  0  0  0
   -2.5209    0.1942   -0.5932 C   0  0  0  0  0  0  0  0  0  0  0  0
   -3.9450    0.2385   -0.8887 C   0  0  0  0  0  0  0  0  0  0  0  0
   -4.6263    1.4604   -0.8785 C   0  0  0  0  0  0  0  0  0  0  0  0
   -5.9932    1.5058   -1.1592 C   0  0  0  0  0  0  0  0  0  0  0  0
   -6.6836    0.3317   -1.4573 C   0  0  0  0  0  0  0  0  0  0  0  0
   -6.0085   -0.8880   -1.4794 C   0  0  0  0  0  0  0  0  0  0  0  0
   -4.6417   -0.9350   -1.1983 C   0  0  0  0  0  0  0  0  0  0  0  0
   -3.4954    0.1766    3.6268 H   0  0  0  0  0  0  0  0  0  0  0  0
   -3.6294    1.2688    2.2371 H   0  0  0  0  0  0  0  0  0  0  0  0
   -2.0686    1.0503    3.0392 H   0  0  0  0  0  0  0  0  0  0  0  0
   -3.5836   -1.1490    1.5086 H   0  0  0  0  0  0  0  0  0  0  0  0
   -2.0289   -1.3589    2.3126 H   0  0  0  0  0  0  0  0  0  0  0  0
    1.5852   -0.1637    0.8364 H   0  0  0  0  0  0  0  0  0  0  0  0
    3.6931    1.0008   -0.9137 H   0  0  0  0  0  0  0  0  0  0  0  0
    3.2859   -1.3488   -1.7173 H   0  0  0  0  0  0  0  0  0  0  0  0
    3.6171   -1.9410   -0.1029 H   0  0  0  0  0  0  0  0  0  0  0  0
    5.5159   -0.8714   -2.1711 H   0  0  0  0  0  0  0  0  0  0  0  0
    5.7024   -2.2073   -1.0510 H   0  0  0  0  0  0  0  0  0  0  0  0
    7.2158   -0.6706   -0.1562 H   0  0  0  0  0  0  0  0  0  0  0  0
    6.2840    0.7242   -0.6797 H   0  0  0  0  0  0  0  0  0  0  0  0
    6.2355    0.4778    1.8031 H   0  0  0  0  0  0  0  0  0  0  0  0
    5.5364   -1.1251    1.6304 H   0  0  0  0  0  0  0  0  0  0  0  0
    4.2537    1.5637    1.2621 H   0  0  0  0  0  0  0  0  0  0  0  0
    3.6186    0.1009    1.9786 H   0  0  0  0  0  0  0  0  0  0  0  0
   -1.4786    0.9187   -2.3988 H   0  0  0  0  0  0  0  0  0  0  0  0
   -4.0965    2.3829   -0.6517 H   0  0  0  0  0  0  0  0  0  0  0  0
   -6.5176    2.4578   -1.1494 H   0  0  0  0  0  0  0  0  0  0  0  0
   -7.7471    0.3685   -1.6798 H   0  0  0  0  0  0  0  0  0  0  0  0
   -6.5448   -1.8019   -1.7217 H   0  0  0  0  0  0  0  0  0  0  0  0
   -4.1229   -1.8904   -1.2304 H   0  0  0  0  0  0  0  0  0  0  0  0
  1  2  1  0
  2  3  1  0
  3  4  1  0
  4  5  2  0
  5  6  1  0
  6  7  2  0
  6  8  1  0
  8  9  1  0
  9 10  1  0
 10 11  1  0
 11 12  1  0
 12 13  1  0
 13 14  1  0
  5 15  1  0
 15 16  2  0
 16 17  1  0
 17 18  2  0
 18 19  1  0
 19 20  2  0
 20 21  1  0
 21 22  2  0
 16  3  1  0
 22 17  1  0
 14  9  1  0
  1 23  1  0
  1 24  1  0
  1 25  1  0
  2 26  1  0
  2 27  1  0
  8 28  1  0
  9 29  1  0
 10 30  1  0
 10 31  1  0
 11 32  1  0
 11 33  1  0
 12 34  1  0
 12 35  1  0
 13 36  1  0
 13 37  1  0
 14 38  1  0
 14 39  1  0
 15 40  1  0
 18 41  1  0
 19 42  1  0
 20 43  1  0
 21 44  1  0
 22 45  1  0
M  END
>  <_SMILES>  (101) 
CCn1nc(C(=O)NC2CCCCC2)cc1-c1ccccc1

$$$$

     RDKit          3D

 39 41  0  0  0  0  0  0  0  0999 V2000
    2.1576   -1.4997   -1.8822 C   0  0  0  0  0  0  0  0  0  0  0  0
    1.6511   -0.8958   -0.6703 N   0  0  0  0  0  0  0  0  0  0  0  0
    0.3987   -1.1998   -0.2691 N   0  0  0  0  0  0  0  0  0  0  0  0
    0.2091   -0.4348    0.8255 C   0  0  0  0  0  0  0  0  0  0  0  0
   -1.0572   -0.4434    1.5746 C   0  0  0  0  0  0  0  0  0  0  0  0
   -1.2558    0.2646    2.5572 O   0  0  0  0  0  0  0  0  0  0  0  0
   -1.9850   -1.3143    1.0521 N   0  0  0  0  0  0  0  0  0  0  0  0
   -3.3513   -1.3589    1.4971 C   0  0  0  0  0  0  0  0  0  0  0  0
   -4.2389   -0.5346    0.6014 C   0  0  0  0  0  0  0  0  0  0  0  0
   -4.3688    0.8460    0.8114 C   0  0  0  0  0  0  0  0  0  0  0  0
   -5.1737    1.6178   -0.0276 C   0  0  0  0  0  0  0  0  0  0  0  0
   -5.8511    1.0193   -1.0882 C   0  0  0  0  0  0  0  0  0  0  0  0
   -5.7211   -0.3500   -1.3136 C   0  0  0  0  0  0  0  0  0  0  0  0
   -4.9159   -1.1238   -0.4757 C   0  0  0  0  0  0  0  0  0  0  0  0
    1.3626    0.3352    1.1102 C   0  0  0  0  0  0  0  0  0  0  0  0
    2.2944    0.0035    0.1466 C   0  0  0  0  0  0  0  0  0  0  0  0
    3.6565    0.4898   -0.0400 C   0  0  0  0  0  0  0  0  0  0  0  0
    4.7425   -0.3942   -0.0221 C   0  0  0  0  0  0  0  0  0  0  0  0
    6.0436    0.0812   -0.2005 C   0  0  0  0  0  0  0  0  0  0  0  0
    6.2686    1.4433   -0.3926 C   0  0  0  0  0  0  0  0  0  0  0  0
    5.1948    2.3318   -0.4011 C   0  0  0  0  0  0  0  0  0  0  0  0
    3.8935    1.8575   -0.2217 C   0  0  0  0  0  0  0  0  0  0  0  0
    2.7746   -2.3570   -1.6032 H   0  0  0  0  0  0  0  0  0  0  0  0
    1.3162   -1.8278   -2.4987 H   0  0  0  0  0  0  0  0  0  0  0  0
    2.7421   -0.7618   -2.4366 H   0  0  0  0  0  0  0  0  0  0  0  0
   -1.7222   -1.7387    0.1675 H   0  0  0  0  0  0  0  0  0  0  0  0
   -3.6663   -2.4081    1.4835 H   0  0  0  0  0  0  0  0  0  0  0  0
   -3.4303   -1.0109    2.5333 H   0  0  0  0  0  0  0  0  0  0  0  0
   -3.8355    1.3256    1.6309 H   0  0  0  0  0  0  0  0  0  0  0  0
   -5.2678    2.6866    0.1455 H   0  0  0  0  0  0  0  0  0  0  0  0
   -6.4766    1.6214   -1.7418 H   0  0  0  0  0  0  0  0  0  0  0  0
   -6.2451   -0.8151   -2.1445 H   0  0  0  0  0  0  0  0  0  0  0  0
   -4.8195   -2.1897   -0.6689 H   0  0  0  0  0  0  0  0  0  0  0  0
    1.4915    1.0302    1.9290 H   0  0  0  0  0  0  0  0  0  0  0  0
    4.5868   -1.4568    0.1484 H   0  0  0  0  0  0  0  0  0  0  0  0
    6.8821   -0.6103   -0.1810 H   0  0  0  0  0  0  0  0  0  0  0  0
    7.2816    1.8138   -0.5281 H   0  0  0  0  0  0  0  0  0  0  0  0
    5.3692    3.3951   -0.5442 H   0  0  0  0  0  0  0  0  0  0  0  0
    3.0651    2.5625   -0.2303 H   0  0  0  0  0  0  0  0  0  0  0  0
  1  2  1  0
  2  3  1  0
  3  4  2  0
  4  5  1  0
  5  6  2  0
  5  7  1  0
  7  8  1  0
  8  9  1  0
  9 10  2  0
 10 11  1  0
 11 12  2  0
 12 13  1  0
 13 14  2  0
  4 15  1  0
 15 16  2  0
 16 17  1  0
 17 18  2  0
 18 19  1  0
 19 20  2  0
 20 21  1  0
 21 22  2  0
 16  2  1  0
 22 17  1  0
 14  9  1  0
  1 23  1  0
  1 24  1  0
  1 25  1  0
  7 26  1  0
  8 27  1  0
  8 28  1  0
 10 29  1  0
 11 30  1  0
 12 31  1  0
 13 32  1  0
 14 33  1  0
 15 34  1  0
 18 35  1  0
 19 36  1  0
 20 37  1  0
 21 38  1  0
 22 39  1  0
M  END
>  <_SMILES>  (102) 
Cn1nc(C(=O)NCc2ccccc2)cc1-c1ccccc1

$$$$

     RDKit          3D

 45 47  0  0  0  0  0  0  0  0999 V2000
   -2.9193    1.3774   -1.7423 C   0  0  0  0  0  0  0  0  0  0  0  0
   -2.5197    0.5639   -0.6160 N   0  0  0  0  0  0  0  0  0  0  0  0
   -1.2045    0.4479   -0.3344 N   0  0  0  0  0  0  0  0  0  0  0  0
   -1.1658   -0.4071    0.7082 C   0  0  0  0  0  0  0  0  0  0  0  0
    0.1019   -0.8255    1.3267 C   0  0  0  0  0  0  0  0  0  0  0  0
    0.1643   -1.6528    2.2307 O   0  0  0  0  0  0  0  0  0  0  0  0
    1.2030   -0.2072    0.7721 N   0  0  0  0  0  0  0  0  0  0  0  0
    2.5500   -0.6311    1.0729 C   0  0  0  0  0  0  0  0  0  0  0  0
    3.6028    0.3780    0.5890 C   0  0  0  0  0  0  0  0  0  0  0  0
    4.9564    0.0739    1.2609 C   0  0  0  0  0  0  0  0  0  0  0  0
    6.1198    0.6659    0.4765 C   0  0  0  0  0  0  0  0  0  0  0  0
    6.2172    0.0647   -0.9261 C   0  0  0  0  0  0  0  0  0  0  0  0
    4.8738   -0.4179   -1.4748 C   0  0  0  0  0  0  0  0  0  0  0  0
    3.7127    0.4198   -0.9510 C   0  0  0  0  0  0  0  0  0  0  0  0
   -2.4701   -0.8176    1.0748 C   0  0  0  0  0  0  0  0  0  0  0  0
   -3.3345   -0.1579    0.2236 C   0  0  0  0  0  0  0  0  0  0  0  0
   -4.7906   -0.2013    0.1562 C   0  0  0  0  0  0  0  0  0  0  0  0
   -5.5515    0.9629    0.3203 C   0  0  0  0  0  0  0  0  0  0  0  0
   -6.9457    0.9110    0.2552 C   0  0  0  0  0  0  0  0  0  0  0  0
   -7.5889   -0.3051    0.0313 C   0  0  0  0  0  0  0  0  0  0  0  0
   -6.8403   -1.4707   -0.1222 C   0  0  0  0  0  0  0  0  0  0  0  0
   -5.4462   -1.4199   -0.0563 C   0  0  0  0  0  0  0  0  0  0  0  0
   -2.0732    1.4838   -2.4267 H   0  0  0  0  0  0  0  0  0  0  0  0
   -3.2213    2.3570   -1.3646 H   0  0  0  0  0  0  0  0  0  0  0  0
   -3.7447    0.8892   -2.2657 H   0  0  0  0  0  0  0  0  0  0  0  0
    0.9938    0.3319   -0.0649 H   0  0  0  0  0  0  0  0  0  0  0  0
    2.7028   -1.6136    0.6113 H   0  0  0  0  0  0  0  0  0  0  0  0
    2.6209   -0.7656    2.1590 H   0  0  0  0  0  0  0  0  0  0  0  0
    3.2818    1.3775    0.9146 H   0  0  0  0  0  0  0  0  0  0  0  0
    4.9533    0.4759    2.2812 H   0  0  0  0  0  0  0  0  0  0  0  0
    5.1044   -1.0099    1.3541 H   0  0  0  0  0  0  0  0  0  0  0  0
    7.0621    0.5039    1.0121 H   0  0  0  0  0  0  0  0  0  0  0  0
    5.9874    1.7525    0.3997 H   0  0  0  0  0  0  0  0  0  0  0  0
    6.6476    0.8145   -1.6010 H   0  0  0  0  0  0  0  0  0  0  0  0
    6.9178   -0.7791   -0.9214 H   0  0  0  0  0  0  0  0  0  0  0  0
    4.8959   -0.3918   -2.5702 H   0  0  0  0  0  0  0  0  0  0  0  0
    4.7187   -1.4666   -1.1919 H   0  0  0  0  0  0  0  0  0  0  0  0
    3.8676    1.4608   -1.2643 H   0  0  0  0  0  0  0  0  0  0  0  0
    2.7816    0.0957   -1.4284 H   0  0  0  0  0  0  0  0  0  0  0  0
   -2.7347   -1.4963    1.8745 H   0  0  0  0  0  0  0  0  0  0  0  0
   -5.0668    1.9161    0.5178 H   0  0  0  0  0  0  0  0  0  0  0  0
   -7.5298    1.8180    0.3880 H   0  0  0  0  0  0  0  0  0  0  0  0
   -8.6742   -0.3461   -0.0159 H   0  0  0  0  0  0  0  0  0  0  0  0
   -7.3408   -2.4209   -0.2899 H   0  0  0  0  0  0  0  0  0  0  0  0
   -4.8749   -2.3378   -0.1770 H   0  0  0  0  0  0  0  0  0  0  0  0
  1  2  1  0
  2  3  1  0
  3  4  2  0
  4  5  1  0
  5  6  2  0
  5  7  1  0
  7  8  1  0
  8  9  1  0
  9 10  1  0
 10 11  1  0
 11 12  1  0
 12 13  1  0
 13 14  1  0
  4 15  1  0
 15 16  2  0
 16 17  1  0
 17 18  2  0
 18 19  1  0
 19 20  2  0
 20 21  1  0
 21 22  2  0
 16  2  1  0
 22 17  1  0
 14  9  1  0
  1 23  1  0
  1 24  1  0
  1 25  1  0
  7 26  1  0
  8 27  1  0
  8 28  1  0
  9 29  1  0
 10 30  1  0
 10 31  1  0
 11 32  1  0
 11 33  1  0
 12 34  1  0
 12 35  1  0
 13 36  1  0
 13 37  1  0
 14 38  1  0
 14 39  1  0
 15 40  1  0
 18 41  1  0
 19 42  1  0
 20 43  1  0
 21 44  1  0
 22 45  1  0
M  END
>  <_SMILES>  (103) 
Cn1nc(C(=O)NCC2CCCCC2)cc1-c1ccccc1

$$$$

     RDKit          3D

 42 44  0  0  0  0  0  0  0  0999 V2000
   -0.8900   -0.4452    3.6318 C   0  0  0  0  0  0  0  0  0  0  0  0
   -1.3744   -0.3174    2.2750 N   0  0  0  0  0  0  0  0  0  0  0  0
   -2.6909   -0.1251    2.0761 N   0  0  0  0  0  0  0  0  0  0  0  0
   -2.8396   -0.0637    0.7452 C   0  0  0  0  0  0  0  0  0  0  0  0
   -4.1577    0.1224    0.1245 C   0  0  0  0  0  0  0  0  0  0  0  0
   -4.3375   -0.0040   -1.2614 C   0  0  0  0  0  0  0  0  0  0  0  0
   -5.5985    0.1794   -1.8390 C   0  0  0  0  0  0  0  0  0  0  0  0
   -6.6960    0.4905   -1.0398 C   0  0  0  0  0  0  0  0  0  0  0  0
   -6.5360    0.6168    0.3374 C   0  0  0  0  0  0  0  0  0  0  0  0
   -5.2763    0.4331    0.9143 C   0  0  0  0  0  0  0  0  0  0  0  0
   -1.5740   -0.1985    0.1122 C   0  0  0  0  0  0  0  0  0  0  0  0
   -0.6342   -0.3501    1.1190 C   0  0  0  0  0  0  0  0  0  0  0  0
    0.7999   -0.5278    1.0695 C   0  0  0  0  0  0  0  0  0  0  0  0
    1.4768   -0.8141    2.0523 O   0  0  0  0  0  0  0  0  0  0  0  0
    1.3667   -0.3325   -0.1737 N   0  0  0  0  0  0  0  0  0  0  0  0
    2.8094   -0.3399   -0.3691 C   0  0  0  0  0  0  0  0  0  0  0  0
    3.1510   -0.7071   -1.8225 C   0  0  0  0  0  0  0  0  0  0  0  0
    4.5069   -0.1710   -2.2889 C   0  0  0  0  0  0  0  0  0  0  0  0
    5.4820    0.0012   -1.1330 C   0  0  0  0  0  0  0  0  0  0  0  0
    4.9541    0.9843   -0.0871 C   0  0  0  0  0  0  0  0  0  0  0  0
    3.4273    1.0062    0.0191 C   0  0  0  0  0  0  0  0  0  0  0  0
   -0.1452    0.3336    3.8116 H   0  0  0  0  0  0  0  0  0  0  0  0
   -1.7233   -0.3183    4.3286 H   0  0  0  0  0  0  0  0  0  0  0  0
   -0.4611   -1.4426    3.7540 H   0  0  0  0  0  0  0  0  0  0  0  0
   -3.5072   -0.2549   -1.9146 H   0  0  0  0  0  0  0  0  0  0  0  0
   -5.7232    0.0758   -2.9139 H   0  0  0  0  0  0  0  0  0  0  0  0
   -7.6756    0.6317   -1.4887 H   0  0  0  0  0  0  0  0  0  0  0  0
   -7.3886    0.8567    0.9672 H   0  0  0  0  0  0  0  0  0  0  0  0
   -5.1711    0.5351    1.9931 H   0  0  0  0  0  0  0  0  0  0  0  0
   -1.3806   -0.1924   -0.9497 H   0  0  0  0  0  0  0  0  0  0  0  0
    0.8003    0.1048   -0.8851 H   0  0  0  0  0  0  0  0  0  0  0  0
    3.2275   -1.1114    0.2912 H   0  0  0  0  0  0  0  0  0  0  0  0
    2.3804   -0.3420   -2.5137 H   0  0  0  0  0  0  0  0  0  0  0  0
    3.1362   -1.8007   -1.9162 H   0  0  0  0  0  0  0  0  0  0  0  0
    4.9279   -0.8441   -3.0443 H   0  0  0  0  0  0  0  0  0  0  0  0
    4.3619    0.7986   -2.7820 H   0  0  0  0  0  0  0  0  0  0  0  0
    6.4542    0.3455   -1.5033 H   0  0  0  0  0  0  0  0  0  0  0  0
    5.6559   -0.9741   -0.6610 H   0  0  0  0  0  0  0  0  0  0  0  0
    5.3897    0.7276    0.8862 H   0  0  0  0  0  0  0  0  0  0  0  0
    5.3038    1.9975   -0.3198 H   0  0  0  0  0  0  0  0  0  0  0  0
    3.1399    1.2953    1.0371 H   0  0  0  0  0  0  0  0  0  0  0  0
    3.0291    1.7905   -0.6388 H   0  0  0  0  0  0  0  0  0  0  0  0
  1  2  1  0
  2  3  1  0
  3  4  2  0
  4  5  1  0
  5  6  2  0
  6  7  1  0
  7  8  2  0
  8  9  1  0
  9 10  2  0
  4 11  1  0
 11 12  2  0
 12 13  1  0
 13 14  2  0
 13 15  1  0
 15 16  1  0
 16 17  1  0
 17 18  1  0
 18 19  1  0
 19 20  1  0
 20 21  1  0
 12  2  1  0
 21 16  1  0
 10  5  1  0
  1 22  1  0
  1 23  1  0
  1 24  1  0
  6 25  1  0
  7 26  1  0
  8 27  1  0
  9 28  1  0
 10 29  1  0
 11 30  1  0
 15 31  1  0
 16 32  1  0
 17 33  1  0
 17 34  1  0
 18 35  1  0
 18 36  1  0
 19 37  1  0
 19 38  1  0
 20 39  1  0
 20 40  1  0
 21 41  1  0
 21 42  1  0
M  END
>  <_SMILES>  (104) 
Cn1nc(-c2ccccc2)cc1C(=O)NC1CCCCC1

$$$$

     RDKit          3D

 38 39  0  0  0  0  0  0  0  0999 V2000
   -2.5352   -2.9241   -0.3721 C   0  0  0  0  0  0  0  0  0  0  0  0
   -1.5725   -1.8465   -0.3390 N   0  0  0  0  0  0  0  0  0  0  0  0
   -0.2734   -2.1373   -0.5221 N   0  0  0  0  0  0  0  0  0  0  0  0
    0.3706   -0.9637   -0.3924 C   0  0  0  0  0  0  0  0  0  0  0  0
    1.8422   -0.8682   -0.5281 C   0  0  0  0  0  0  0  0  0  0  0  0
    2.5256   -1.7613   -1.0207 O   0  0  0  0  0  0  0  0  0  0  0  0
    2.3896    0.3091   -0.0372 N   0  0  0  0  0  0  0  0  0  0  0  0
    3.8296    0.6013    0.0172 C   0  0  0  0  0  0  0  0  0  0  0  0
    4.0015    2.0209    0.5904 C   0  0  0  0  0  0  0  0  0  0  0  0
    4.5543   -0.3880    0.9429 C   0  0  0  0  0  0  0  0  0  0  0  0
    4.4597    0.5757   -1.3851 C   0  0  0  0  0  0  0  0  0  0  0  0
   -0.5656    0.0768   -0.1323 C   0  0  0  0  0  0  0  0  0  0  0  0
   -1.8146   -0.5132   -0.1209 C   0  0  0  0  0  0  0  0  0  0  0  0
   -3.1287    0.0839    0.0801 C   0  0  0  0  0  0  0  0  0  0  0  0
   -4.0967    0.0381   -0.9307 C   0  0  0  0  0  0  0  0  0  0  0  0
   -5.3527    0.6151   -0.7320 C   0  0  0  0  0  0  0  0  0  0  0  0
   -5.6478    1.2452    0.4759 C   0  0  0  0  0  0  0  0  0  0  0  0
   -4.6871    1.3029    1.4842 C   0  0  0  0  0  0  0  0  0  0  0  0
   -3.4303    0.7273    1.2861 C   0  0  0  0  0  0  0  0  0  0  0  0
   -2.9797   -2.9528   -1.3697 H   0  0  0  0  0  0  0  0  0  0  0  0
   -2.0260   -3.8683   -0.1602 H   0  0  0  0  0  0  0  0  0  0  0  0
   -3.2987   -2.7495    0.3896 H   0  0  0  0  0  0  0  0  0  0  0  0
    1.7860    0.8869    0.5288 H   0  0  0  0  0  0  0  0  0  0  0  0
    5.0585    2.3029    0.6540 H   0  0  0  0  0  0  0  0  0  0  0  0
    3.5736    2.0953    1.5971 H   0  0  0  0  0  0  0  0  0  0  0  0
    3.4913    2.7630   -0.0349 H   0  0  0  0  0  0  0  0  0  0  0  0
    4.5127   -1.4126    0.5595 H   0  0  0  0  0  0  0  0  0  0  0  0
    4.1020   -0.3952    1.9413 H   0  0  0  0  0  0  0  0  0  0  0  0
    5.6119   -0.1235    1.0542 H   0  0  0  0  0  0  0  0  0  0  0  0
    4.4501   -0.4263   -1.8248 H   0  0  0  0  0  0  0  0  0  0  0  0
    5.5053    0.9030   -1.3538 H   0  0  0  0  0  0  0  0  0  0  0  0
    3.9198    1.2392   -2.0704 H   0  0  0  0  0  0  0  0  0  0  0  0
   -0.3680    1.1314   -0.0054 H   0  0  0  0  0  0  0  0  0  0  0  0
   -3.8759   -0.4343   -1.8852 H   0  0  0  0  0  0  0  0  0  0  0  0
   -6.0984    0.5781   -1.5221 H   0  0  0  0  0  0  0  0  0  0  0  0
   -6.6253    1.6953    0.6297 H   0  0  0  0  0  0  0  0  0  0  0  0
   -4.9159    1.7966    2.4253 H   0  0  0  0  0  0  0  0  0  0  0  0
   -2.6919    0.7766    2.0830 H   0  0  0  0  0  0  0  0  0  0  0  0
  1  2  1  0
  2  3  1  0
  3  4  2  0
  4  5  1  0
  5  6  2  0
  5  7  1  0
  7  8  1  0
  8  9  1  0
  8 10  1  0
  8 11  1  0
  4 12  1  0
 12 13  2  0
 13 14  1  0
 14 15  2  0
 15 16  1  0
 16 17  2  0
 17 18  1  0
 18 19  2  0
 13  2  1  0
 19 14  1  0
  1 20  1  0
  1 21  1  0
  1 22  1  0
  7 23  1  0
  9 24  1  0
  9 25  1  0
  9 26  1  0
 10 27  1  0
 10 28  1  0
 10 29  1  0
 11 30  1  0
 11 31  1  0
 11 32  1  0
 12 33  1  0
 15 34  1  0
 16 35  1  0
 17 36  1  0
 18 37  1  0
 19 38  1  0
M  END
>  <_SMILES>  (105) 
Cn1nc(C(=O)NC(C)(C)C)cc1-c1ccccc1

$$$$

     RDKit          3D

 39 41  0  0  0  0  0  0  0  0999 V2000
    1.7902    1.7146   -1.5085 C   0  0  0  0  0  0  0  0  0  0  0  0
    1.3056    0.7696   -0.5280 N   0  0  0  0  0  0  0  0  0  0  0  0
   -0.0248    0.6441   -0.3553 N   0  0  0  0  0  0  0  0  0  0  0  0
   -0.1594   -0.2385    0.6526 C   0  0  0  0  0  0  0  0  0  0  0  0
   -1.4473   -0.6653    1.2502 C   0  0  0  0  0  0  0  0  0  0  0  0
   -1.4473   -1.2196    2.3531 O   0  0  0  0  0  0  0  0  0  0  0  0
   -2.6529   -0.4353    0.5694 N   0  0  0  0  0  0  0  0  0  0  0  0
   -2.7447   -0.0484   -0.8396 C   0  0  0  0  0  0  0  0  0  0  0  0
   -4.0861   -0.4294   -1.4607 C   0  0  0  0  0  0  0  0  0  0  0  0
   -5.2666    0.1539   -0.6877 C   0  0  0  0  0  0  0  0  0  0  0  0
   -5.0099    0.2427    0.8165 C   0  0  0  0  0  0  0  0  0  0  0  0
   -3.9042   -0.7019    1.2726 C   0  0  0  0  0  0  0  0  0  0  0  0
    1.1226   -0.6590    1.1047 C   0  0  0  0  0  0  0  0  0  0  0  0
    2.0524   -0.0251    0.3058 C   0  0  0  0  0  0  0  0  0  0  0  0
    3.5085   -0.0999    0.3259 C   0  0  0  0  0  0  0  0  0  0  0  0
    4.2224   -0.5048   -0.8090 C   0  0  0  0  0  0  0  0  0  0  0  0
    5.6170   -0.5748   -0.7793 C   0  0  0  0  0  0  0  0  0  0  0  0
    6.3074   -0.2460    0.3861 C   0  0  0  0  0  0  0  0  0  0  0  0
    5.6049    0.1473    1.5238 C   0  0  0  0  0  0  0  0  0  0  0  0
    4.2104    0.2165    1.4951 C   0  0  0  0  0  0  0  0  0  0  0  0
    2.0257    1.1655   -2.4232 H   0  0  0  0  0  0  0  0  0  0  0  0
    2.6765    2.2193   -1.1170 H   0  0  0  0  0  0  0  0  0  0  0  0
    1.0127    2.4574   -1.7070 H   0  0  0  0  0  0  0  0  0  0  0  0
   -2.6050    1.0371   -0.8951 H   0  0  0  0  0  0  0  0  0  0  0  0
   -1.9491   -0.5404   -1.4073 H   0  0  0  0  0  0  0  0  0  0  0  0
   -4.1276   -0.1037   -2.5061 H   0  0  0  0  0  0  0  0  0  0  0  0
   -4.1753   -1.5236   -1.4701 H   0  0  0  0  0  0  0  0  0  0  0  0
   -5.5022    1.1558   -1.0668 H   0  0  0  0  0  0  0  0  0  0  0  0
   -6.1540   -0.4612   -0.8793 H   0  0  0  0  0  0  0  0  0  0  0  0
   -5.9364    0.0383    1.3646 H   0  0  0  0  0  0  0  0  0  0  0  0
   -4.7203    1.2723    1.0639 H   0  0  0  0  0  0  0  0  0  0  0  0
   -4.1786   -1.7453    1.0770 H   0  0  0  0  0  0  0  0  0  0  0  0
   -3.7601   -0.5983    2.3536 H   0  0  0  0  0  0  0  0  0  0  0  0
    1.3239   -1.3533    1.9096 H   0  0  0  0  0  0  0  0  0  0  0  0
    3.6986   -0.7859   -1.7194 H   0  0  0  0  0  0  0  0  0  0  0  0
    6.1639   -0.8939   -1.6627 H   0  0  0  0  0  0  0  0  0  0  0  0
    7.3927   -0.3036    0.4104 H   0  0  0  0  0  0  0  0  0  0  0  0
    6.1413    0.3976    2.4355 H   0  0  0  0  0  0  0  0  0  0  0  0
    3.6752    0.5249    2.3907 H   0  0  0  0  0  0  0  0  0  0  0  0
  1  2  1  0
  2  3  1  0
  3  4  2  0
  4  5  1  0
  5  6  2  0
  5  7  1  0
  7  8  1  0
  8  9  1  0
  9 10  1  0
 10 11  1  0
 11 12  1  0
  4 13  1  0
 13 14  2  0
 14 15  1  0
 15 16  2  0
 16 17  1  0
 17 18  2  0
 18 19  1  0
 19 20  2  0
 14  2  1  0
 20 15  1  0
 12  7  1  0
  1 21  1  0
  1 22  1  0
  1 23  1  0
  8 24  1  0
  8 25  1  0
  9 26  1  0
  9 27  1  0
 10 28  1  0
 10 29  1  0
 11 30  1  0
 11 31  1  0
 12 32  1  0
 12 33  1  0
 13 34  1  0
 16 35  1  0
 17 36  1  0
 18 37  1  0
 19 38  1  0
 20 39  1  0
M  END
>  <_SMILES>  (106) 
Cn1nc(C(=O)N2CCCCC2)cc1-c1ccccc1

$$$$

     RDKit          3D

 38 39  0  0  0  0  0  0  0  0999 V2000
    5.6350    0.9922   -0.6911 C   0  0  0  0  0  0  0  0  0  0  0  0
    4.5187    0.6774    0.2929 C   0  0  0  0  0  0  0  0  0  0  0  0
    4.5794   -0.7787    0.7585 C   0  0  0  0  0  0  0  0  0  0  0  0
    3.5267   -1.1133    1.8144 C   0  0  0  0  0  0  0  0  0  0  0  0
    2.1867   -1.0916    1.2814 N   0  0  0  0  0  0  0  0  0  0  0  0
    1.3069   -0.0472    1.4607 C   0  0  0  0  0  0  0  0  0  0  0  0
    1.5561    0.9551    2.1230 O   0  0  0  0  0  0  0  0  0  0  0  0
    0.0252   -0.2499    0.7670 C   0  0  0  0  0  0  0  0  0  0  0  0
   -1.0837    0.6302    0.7515 C   0  0  0  0  0  0  0  0  0  0  0  0
   -2.0422    0.0280   -0.0393 C   0  0  0  0  0  0  0  0  0  0  0  0
   -3.3762    0.4915   -0.4034 C   0  0  0  0  0  0  0  0  0  0  0  0
   -4.3166    0.7736    0.5945 C   0  0  0  0  0  0  0  0  0  0  0  0
   -5.5962    1.2179    0.2549 C   0  0  0  0  0  0  0  0  0  0  0  0
   -5.9423    1.3904   -1.0842 C   0  0  0  0  0  0  0  0  0  0  0  0
   -5.0089    1.1237   -2.0844 C   0  0  0  0  0  0  0  0  0  0  0  0
   -3.7292    0.6784   -1.7457 C   0  0  0  0  0  0  0  0  0  0  0  0
   -1.4858   -1.1715   -0.4151 N   0  0  0  0  0  0  0  0  0  0  0  0
   -2.1050   -2.2216   -1.1922 C   0  0  0  0  0  0  0  0  0  0  0  0
   -0.2266   -1.3551    0.0357 N   0  0  0  0  0  0  0  0  0  0  0  0
    5.5725    2.0363   -1.0135 H   0  0  0  0  0  0  0  0  0  0  0  0
    5.5647    0.3572   -1.5800 H   0  0  0  0  0  0  0  0  0  0  0  0
    6.6172    0.8364   -0.2337 H   0  0  0  0  0  0  0  0  0  0  0  0
    4.6006    1.3486    1.1556 H   0  0  0  0  0  0  0  0  0  0  0  0
    3.5568    0.8817   -0.1898 H   0  0  0  0  0  0  0  0  0  0  0  0
    5.5705   -0.9772    1.1844 H   0  0  0  0  0  0  0  0  0  0  0  0
    4.4617   -1.4448   -0.1053 H   0  0  0  0  0  0  0  0  0  0  0  0
    3.6030   -0.4278    2.6652 H   0  0  0  0  0  0  0  0  0  0  0  0
    3.6966   -2.1293    2.1860 H   0  0  0  0  0  0  0  0  0  0  0  0
    1.8493   -1.8419    0.6833 H   0  0  0  0  0  0  0  0  0  0  0  0
   -1.1555    1.5899    1.2455 H   0  0  0  0  0  0  0  0  0  0  0  0
   -4.0603    0.6441    1.6438 H   0  0  0  0  0  0  0  0  0  0  0  0
   -6.3209    1.4321    1.0363 H   0  0  0  0  0  0  0  0  0  0  0  0
   -6.9373    1.7404   -1.3476 H   0  0  0  0  0  0  0  0  0  0  0  0
   -5.2744    1.2708   -3.1282 H   0  0  0  0  0  0  0  0  0  0  0  0
   -3.0064    0.4963   -2.5374 H   0  0  0  0  0  0  0  0  0  0  0  0
   -1.5979   -3.1681   -0.9853 H   0  0  0  0  0  0  0  0  0  0  0  0
   -3.1565   -2.3089   -0.9086 H   0  0  0  0  0  0  0  0  0  0  0  0
   -2.0056   -1.9664   -2.2497 H   0  0  0  0  0  0  0  0  0  0  0  0
  1  2  1  0
  2  3  1  0
  3  4  1  0
  4  5  1  0
  5  6  1  0
  6  7  2  0
  6  8  1  0
  8  9  1  0
  9 10  2  0
 10 11  1  0
 11 12  2  0
 12 13  1  0
 13 14  2  0
 14 15  1  0
 15 16  2  0
 10 17  1  0
 17 18  1  0
 17 19  1  0
 19  8  2  0
 16 11  1  0
  1 20  1  0
  1 21  1  0
  1 22  1  0
  2 23  1  0
  2 24  1  0
  3 25  1  0
  3 26  1  0
  4 27  1  0
  4 28  1  0
  5 29  1  0
  9 30  1  0
 12 31  1  0
 13 32  1  0
 14 33  1  0
 15 34  1  0
 16 35  1  0
 18 36  1  0
 18 37  1  0
 18 38  1  0
M  END
>  <_SMILES>  (107) 
CCCCNC(=O)c1cc(-c2ccccc2)n(C)n1

$$$$

     RDKit          3D

 36 38  0  0  0  0  0  0  0  0999 V2000
   -2.7576   -2.5994   -0.4968 C   0  0  0  0  0  0  0  0  0  0  0  0
   -1.6168   -1.7496   -0.2411 N   0  0  0  0  0  0  0  0  0  0  0  0
   -0.3916   -2.2047   -0.5538 N   0  0  0  0  0  0  0  0  0  0  0  0
    0.4555   -1.2420   -0.1486 C   0  0  0  0  0  0  0  0  0  0  0  0
    1.9186   -1.3851   -0.3090 C   0  0  0  0  0  0  0  0  0  0  0  0
    2.4695   -2.4483   -0.5881 O   0  0  0  0  0  0  0  0  0  0  0  0
    2.6464   -0.2158   -0.1315 N   0  0  0  0  0  0  0  0  0  0  0  0
    4.1156   -0.1859   -0.2904 C   0  0  0  0  0  0  0  0  0  0  0  0
    4.7426    1.2074   -0.0448 C   0  0  0  0  0  0  0  0  0  0  0  0
    4.6240    1.4688   -1.5590 C   0  0  0  0  0  0  0  0  0  0  0  0
    4.5930   -0.0593   -1.7569 C   0  0  0  0  0  0  0  0  0  0  0  0
   -0.2765   -0.1610    0.4189 C   0  0  0  0  0  0  0  0  0  0  0  0
   -1.6130   -0.4979    0.3222 C   0  0  0  0  0  0  0  0  0  0  0  0
   -2.7965    0.2433    0.7404 C   0  0  0  0  0  0  0  0  0  0  0  0
   -2.9602    0.6049    2.0828 C   0  0  0  0  0  0  0  0  0  0  0  0
   -4.0903    1.3174    2.4896 C   0  0  0  0  0  0  0  0  0  0  0  0
   -5.0604    1.6791    1.5565 C   0  0  0  0  0  0  0  0  0  0  0  0
   -4.9010    1.3318    0.2160 C   0  0  0  0  0  0  0  0  0  0  0  0
   -3.7719    0.6182   -0.1917 C   0  0  0  0  0  0  0  0  0  0  0  0
   -2.4253   -3.6393   -0.5587 H   0  0  0  0  0  0  0  0  0  0  0  0
   -3.2057   -2.2915   -1.4444 H   0  0  0  0  0  0  0  0  0  0  0  0
   -3.4730   -2.4997    0.3229 H   0  0  0  0  0  0  0  0  0  0  0  0
    2.1339    0.6461   -0.0133 H   0  0  0  0  0  0  0  0  0  0  0  0
    4.5937   -0.9896    0.2802 H   0  0  0  0  0  0  0  0  0  0  0  0
    4.1824    1.8925    0.5976 H   0  0  0  0  0  0  0  0  0  0  0  0
    5.7783    1.1615    0.3123 H   0  0  0  0  0  0  0  0  0  0  0  0
    5.4673    1.9902   -2.0186 H   0  0  0  0  0  0  0  0  0  0  0  0
    3.6936    1.9704   -1.8490 H   0  0  0  0  0  0  0  0  0  0  0  0
    5.5818   -0.4998   -1.9316 H   0  0  0  0  0  0  0  0  0  0  0  0
    3.9091   -0.4190   -2.5306 H   0  0  0  0  0  0  0  0  0  0  0  0
    0.1081    0.7541    0.8449 H   0  0  0  0  0  0  0  0  0  0  0  0
   -2.2138    0.3256    2.8230 H   0  0  0  0  0  0  0  0  0  0  0  0
   -4.2129    1.5897    3.5349 H   0  0  0  0  0  0  0  0  0  0  0  0
   -5.9391    2.2353    1.8735 H   0  0  0  0  0  0  0  0  0  0  0  0
   -5.6533    1.6214   -0.5134 H   0  0  0  0  0  0  0  0  0  0  0  0
   -3.6546    0.3703   -1.2442 H   0  0  0  0  0  0  0  0  0  0  0  0
  1  2  1  0
  2  3  1  0
  3  4  2  0
  4  5  1  0
  5  6  2  0
  5  7  1  0
  7  8  1  0
  8  9  1  0
  9 10  1  0
 10 11  1  0
  4 12  1  0
 12 13  2  0
 13 14  1  0
 14 15  2  0
 15 16  1  0
 16 17  2  0
 17 18  1  0
 18 19  2  0
 13  2  1  0
 19 14  1  0
 11  8  1  0
  1 20  1  0
  1 21  1  0
  1 22  1  0
  7 23  1  0
  8 24  1  0
  9 25  1  0
  9 26  1  0
 10 27  1  0
 10 28  1  0
 11 29  1  0
 11 30  1  0
 12 31  1  0
 15 32  1  0
 16 33  1  0
 17 34  1  0
 18 35  1  0
 19 36  1  0
M  END
>  <_SMILES>  (108) 
Cn1nc(C(=O)NC2CCC2)cc1-c1ccccc1

$$$$

     RDKit          3D

 26 27  0  0  0  0  0  0  0  0999 V2000
   -0.4512   -0.9895    2.3982 C   0  0  0  0  0  0  0  0  0  0  0  0
   -0.9859   -0.4092    1.1872 N   0  0  0  0  0  0  0  0  0  0  0  0
   -2.3180   -0.2705    1.0724 N   0  0  0  0  0  0  0  0  0  0  0  0
   -2.5117    0.2406   -0.1561 C   0  0  0  0  0  0  0  0  0  0  0  0
   -3.8630    0.5361   -0.6647 C   0  0  0  0  0  0  0  0  0  0  0  0
   -3.9502    0.8561   -1.9968 N   0  0  0  0  0  0  0  0  0  0  0  0
   -4.8912    0.4980    0.0070 O   0  0  0  0  0  0  0  0  0  0  0  0
   -1.2609    0.4278   -0.8078 C   0  0  0  0  0  0  0  0  0  0  0  0
   -0.2889    0.0211    0.0856 C   0  0  0  0  0  0  0  0  0  0  0  0
    1.1620    0.0109   -0.0518 C   0  0  0  0  0  0  0  0  0  0  0  0
    1.7668   -0.7566   -1.0540 C   0  0  0  0  0  0  0  0  0  0  0  0
    3.1564   -0.7693   -1.1919 C   0  0  0  0  0  0  0  0  0  0  0  0
    3.9498   -0.0099   -0.3335 C   0  0  0  0  0  0  0  0  0  0  0  0
    3.3554    0.7651    0.6610 C   0  0  0  0  0  0  0  0  0  0  0  0
    1.9660    0.7776    0.8006 C   0  0  0  0  0  0  0  0  0  0  0  0
   -1.2294   -1.5815    2.8877 H   0  0  0  0  0  0  0  0  0  0  0  0
    0.3893   -1.6403    2.1460 H   0  0  0  0  0  0  0  0  0  0  0  0
   -0.1309   -0.1757    3.0529 H   0  0  0  0  0  0  0  0  0  0  0  0
   -3.1962    0.6800   -2.6416 H   0  0  0  0  0  0  0  0  0  0  0  0
   -4.8889    0.9332   -2.3638 H   0  0  0  0  0  0  0  0  0  0  0  0
   -1.0805    0.8368   -1.7913 H   0  0  0  0  0  0  0  0  0  0  0  0
    1.1606   -1.3570   -1.7284 H   0  0  0  0  0  0  0  0  0  0  0  0
    3.6193   -1.3717   -1.9693 H   0  0  0  0  0  0  0  0  0  0  0  0
    5.0314   -0.0184   -0.4426 H   0  0  0  0  0  0  0  0  0  0  0  0
    3.9732    1.3649    1.3246 H   0  0  0  0  0  0  0  0  0  0  0  0
    1.5167    1.4013    1.5702 H   0  0  0  0  0  0  0  0  0  0  0  0
  1  2  1  0
  2  3  1  0
  3  4  2  0
  4  5  1  0
  5  6  1  0
  5  7  2  0
  4  8  1  0
  8  9  2  0
  9 10  1  0
 10 11  2  0
 11 12  1  0
 12 13  2  0
 13 14  1  0
 14 15  2  0
  9  2  1  0
 15 10  1  0
  1 16  1  0
  1 17  1  0
  1 18  1  0
  6 19  1  0
  6 20  1  0
  8 21  1  0
 11 22  1  0
 12 23  1  0
 13 24  1  0
 14 25  1  0
 15 26  1  0
M  END
>  <_SMILES>  (109) 
Cn1nc(C(N)=O)cc1-c1ccccc1

$$$$

     RDKit          3D

 48 50  0  0  0  0  0  0  0  0999 V2000
    1.9959    0.3487   -2.1943 C   0  0  0  0  0  0  0  0  0  0  0  0
    1.4079    0.2371   -0.8794 N   0  0  0  0  0  0  0  0  0  0  0  0
    0.0611    0.2706   -0.7939 N   0  0  0  0  0  0  0  0  0  0  0  0
   -0.1965    0.1639    0.5243 C   0  0  0  0  0  0  0  0  0  0  0  0
   -1.5692    0.1510    1.0538 C   0  0  0  0  0  0  0  0  0  0  0  0
   -1.8255    0.0018    2.2446 O   0  0  0  0  0  0  0  0  0  0  0  0
   -2.5265    0.3078    0.0731 N   0  0  0  0  0  0  0  0  0  0  0  0
   -3.9432    0.1268    0.3175 C   0  0  0  0  0  0  0  0  0  0  0  0
   -4.7706    0.9127   -0.7118 C   0  0  0  0  0  0  0  0  0  0  0  0
   -6.1720    0.3401   -0.9394 C   0  0  0  0  0  0  0  0  0  0  0  0
   -6.6943   -0.3964    0.2857 C   0  0  0  0  0  0  0  0  0  0  0  0
   -5.7936   -1.5720    0.6678 C   0  0  0  0  0  0  0  0  0  0  0  0
   -4.3204   -1.3569    0.3131 C   0  0  0  0  0  0  0  0  0  0  0  0
    1.0044    0.0637    1.2622 C   0  0  0  0  0  0  0  0  0  0  0  0
    2.0321    0.1210    0.3398 C   0  0  0  0  0  0  0  0  0  0  0  0
    3.5135    0.0683    0.5959 C   0  0  0  0  0  0  0  0  0  0  0  0
    4.1384   -1.2664    0.1489 C   0  0  0  0  0  0  0  0  0  0  0  0
    5.6116   -1.1388   -0.2460 C   0  0  0  0  0  0  0  0  0  0  0  0
    6.3391   -0.1200    0.6213 C   0  0  0  0  0  0  0  0  0  0  0  0
    5.7359    1.2812    0.4999 C   0  0  0  0  0  0  0  0  0  0  0  0
    4.2712    1.2841    0.0523 C   0  0  0  0  0  0  0  0  0  0  0  0
    2.9201   -0.2273   -2.2414 H   0  0  0  0  0  0  0  0  0  0  0  0
    1.2944   -0.0484   -2.9337 H   0  0  0  0  0  0  0  0  0  0  0  0
    2.1867    1.4063   -2.3911 H   0  0  0  0  0  0  0  0  0  0  0  0
   -2.1547    0.2870   -0.8739 H   0  0  0  0  0  0  0  0  0  0  0  0
   -4.1555    0.5283    1.3174 H   0  0  0  0  0  0  0  0  0  0  0  0
   -4.2557    0.9579   -1.6802 H   0  0  0  0  0  0  0  0  0  0  0  0
   -4.8497    1.9533   -0.3715 H   0  0  0  0  0  0  0  0  0  0  0  0
   -6.1453   -0.3535   -1.7895 H   0  0  0  0  0  0  0  0  0  0  0  0
   -6.8579    1.1479   -1.2186 H   0  0  0  0  0  0  0  0  0  0  0  0
   -7.7135   -0.7574    0.1070 H   0  0  0  0  0  0  0  0  0  0  0  0
   -6.7551    0.3045    1.1278 H   0  0  0  0  0  0  0  0  0  0  0  0
   -5.8929   -1.7537    1.7449 H   0  0  0  0  0  0  0  0  0  0  0  0
   -6.1440   -2.4851    0.1713 H   0  0  0  0  0  0  0  0  0  0  0  0
   -4.1213   -1.7782   -0.6816 H   0  0  0  0  0  0  0  0  0  0  0  0
   -3.6936   -1.9262    1.0101 H   0  0  0  0  0  0  0  0  0  0  0  0
    1.0961   -0.0331    2.3359 H   0  0  0  0  0  0  0  0  0  0  0  0
    3.6325    0.1102    1.6903 H   0  0  0  0  0  0  0  0  0  0  0  0
    3.5914   -1.7246   -0.6830 H   0  0  0  0  0  0  0  0  0  0  0  0
    4.0507   -1.9813    0.9783 H   0  0  0  0  0  0  0  0  0  0  0  0
    5.6833   -0.8368   -1.2984 H   0  0  0  0  0  0  0  0  0  0  0  0
    6.0976   -2.1178   -0.1669 H   0  0  0  0  0  0  0  0  0  0  0  0
    6.2913   -0.4437    1.6688 H   0  0  0  0  0  0  0  0  0  0  0  0
    7.4019   -0.0863    0.3561 H   0  0  0  0  0  0  0  0  0  0  0  0
    6.3211    1.8756   -0.2124 H   0  0  0  0  0  0  0  0  0  0  0  0
    5.8288    1.7893    1.4675 H   0  0  0  0  0  0  0  0  0  0  0  0
    3.7952    2.2186    0.3743 H   0  0  0  0  0  0  0  0  0  0  0  0
    4.2490    1.2937   -1.0430 H   0  0  0  0  0  0  0  0  0  0  0  0
  1  2  1  0
  2  3  1  0
  3  4  2  0
  4  5  1  0
  5  6  2  0
  5  7  1  0
  7  8  1  0
  8  9  1  0
  9 10  1  0
 10 11  1  0
 11 12  1  0
 12 13  1  0
  4 14  1  0
 14 15  2  0
 15 16  1  0
 16 17  1  0
 17 18  1  0
 18 19  1  0
 19 20  1  0
 20 21  1  0
 15  2  1  0
 21 16  1  0
 13  8  1  0
  1 22  1  0
  1 23  1  0
  1 24  1  0
  7 25  1  0
  8 26  1  0
  9 27  1  0
  9 28  1  0
 10 29  1  0
 10 30  1  0
 11 31  1  0
 11 32  1  0
 12 33  1  0
 12 34  1  0
 13 35  1  0
 13 36  1  0
 14 37  1  0
 16 38  1  0
 17 39  1  0
 17 40  1  0
 18 41  1  0
 18 42  1  0
 19 43  1  0
 19 44  1  0
 20 45  1  0
 20 46  1  0
 21 47  1  0
 21 48  1  0
M  END
>  <_SMILES>  (110) 
Cn1nc(C(=O)NC2CCCCC2)cc1C1CCCCC1

$$$$
