
     RDKit          3D

 65 69  0  0  0  0  0  0  0  0999 V2000
    7.1622    2.3583    2.6314 C   0  0  0  0  0  0  0  0  0  0  0  0
    5.7479    2.0710    2.1509 C   0  0  0  0  0  0  0  0  0  0  0  0
    5.7461    1.5093    0.7288 C   0  0  0  0  0  0  0  0  0  0  0  0
    4.3402    1.3044    0.1597 C   0  0  0  0  0  0  0  0  0  0  0  0
    3.5366    0.2422    0.9084 C   0  0  0  0  0  0  0  0  0  0  0  0
    2.2658   -0.0371    0.2566 N   0  0  0  0  0  0  0  0  0  0  0  0
    1.2203    0.7626    0.5236 N   0  0  0  0  0  0  0  0  0  0  0  0
    0.2130    0.2740   -0.2189 C   0  0  0  0  0  0  0  0  0  0  0  0
   -1.1264    0.8974   -0.1861 C   0  0  0  0  0  0  0  0  0  0  0  0
   -1.2968    2.1121   -0.1724 O   0  0  0  0  0  0  0  0  0  0  0  0
   -2.1634   -0.0209   -0.1432 N   0  0  0  0  0  0  0  0  0  0  0  0
   -3.5782    0.3275    0.0058 C   0  0  2  0  0  0  0  0  0  0  0  0
   -4.0815    1.2248   -1.1535 C   0  0  0  0  0  0  0  0  0  0  0  0
   -5.5826    1.5254   -0.9940 C   0  0  1  0  0  0  0  0  0  0  0  0
   -6.3705    0.2067   -1.0155 C   0  0  0  0  0  0  0  0  0  0  0  0
   -5.9068   -0.6988    0.1356 C   0  0  2  0  0  0  0  0  0  0  0  0
   -6.1434    0.0176    1.4745 C   0  0  0  0  0  0  0  0  0  0  0  0
   -5.3549    1.3363    1.5110 C   0  0  2  0  0  0  0  0  0  0  0  0
   -5.8160    2.2349    0.3508 C   0  0  0  0  0  0  0  0  0  0  0  0
   -3.8536    1.0361    1.3546 C   0  0  0  0  0  0  0  0  0  0  0  0
   -4.4056   -0.9868   -0.0235 C   0  0  0  0  0  0  0  0  0  0  0  0
    0.6439   -0.8686   -0.9705 C   0  0  0  0  0  0  0  0  0  0  0  0
   -0.1478   -1.6711   -1.9391 C   0  0  0  0  0  0  0  0  0  0  0  0
    1.9742   -1.0506   -0.6219 C   0  0  0  0  0  0  0  0  0  0  0  0
    2.9331   -2.0515   -1.0697 C   0  0  0  0  0  0  0  0  0  0  0  0
    3.7558   -1.7968   -2.1722 C   0  0  0  0  0  0  0  0  0  0  0  0
    4.6767   -2.7557   -2.5973 C   0  0  0  0  0  0  0  0  0  0  0  0
    4.7760   -3.9736   -1.9255 C   0  0  0  0  0  0  0  0  0  0  0  0
    3.9536   -4.2357   -0.8302 C   0  0  0  0  0  0  0  0  0  0  0  0
    3.0321   -3.2777   -0.4036 C   0  0  0  0  0  0  0  0  0  0  0  0
    7.1425    2.7558    3.6510 H   0  0  0  0  0  0  0  0  0  0  0  0
    7.7683    1.4467    2.6336 H   0  0  0  0  0  0  0  0  0  0  0  0
    7.6530    3.0963    1.9889 H   0  0  0  0  0  0  0  0  0  0  0  0
    5.1612    2.9961    2.1873 H   0  0  0  0  0  0  0  0  0  0  0  0
    5.2812    1.3606    2.8416 H   0  0  0  0  0  0  0  0  0  0  0  0
    6.2849    2.2009    0.0691 H   0  0  0  0  0  0  0  0  0  0  0  0
    6.2940    0.5594    0.7044 H   0  0  0  0  0  0  0  0  0  0  0  0
    4.4360    1.0157   -0.8943 H   0  0  0  0  0  0  0  0  0  0  0  0
    3.7963    2.2574    0.1665 H   0  0  0  0  0  0  0  0  0  0  0  0
    4.0966   -0.6953    0.9844 H   0  0  0  0  0  0  0  0  0  0  0  0
    3.3036    0.5652    1.9293 H   0  0  0  0  0  0  0  0  0  0  0  0
   -1.8925   -0.9634    0.1035 H   0  0  0  0  0  0  0  0  0  0  0  0
   -3.5344    2.1737   -1.1857 H   0  0  0  0  0  0  0  0  0  0  0  0
   -3.8988    0.7326   -2.1178 H   0  0  0  0  0  0  0  0  0  0  0  0
   -5.9188    2.1692   -1.8146 H   0  0  0  0  0  0  0  0  0  0  0  0
   -6.2237   -0.3024   -1.9760 H   0  0  0  0  0  0  0  0  0  0  0  0
   -7.4446    0.4098   -0.9237 H   0  0  0  0  0  0  0  0  0  0  0  0
   -6.4684   -1.6394    0.1153 H   0  0  0  0  0  0  0  0  0  0  0  0
   -7.2136    0.2170    1.6088 H   0  0  0  0  0  0  0  0  0  0  0  0
   -5.8332   -0.6279    2.3054 H   0  0  0  0  0  0  0  0  0  0  0  0
   -5.5313    1.8453    2.4652 H   0  0  0  0  0  0  0  0  0  0  0  0
   -6.8797    2.4769    0.4657 H   0  0  0  0  0  0  0  0  0  0  0  0
   -5.2692    3.1856    0.3729 H   0  0  0  0  0  0  0  0  0  0  0  0
   -3.2910    1.9746    1.4251 H   0  0  0  0  0  0  0  0  0  0  0  0
   -3.5095    0.4089    2.1875 H   0  0  0  0  0  0  0  0  0  0  0  0
   -4.2280   -1.5232   -0.9654 H   0  0  0  0  0  0  0  0  0  0  0  0
   -4.0736   -1.6599    0.7784 H   0  0  0  0  0  0  0  0  0  0  0  0
   -0.7108   -2.4501   -1.4156 H   0  0  0  0  0  0  0  0  0  0  0  0
   -0.8536   -1.0401   -2.4884 H   0  0  0  0  0  0  0  0  0  0  0  0
    0.4966   -2.1564   -2.6789 H   0  0  0  0  0  0  0  0  0  0  0  0
    3.6811   -0.8524   -2.7067 H   0  0  0  0  0  0  0  0  0  0  0  0
    5.3141   -2.5535   -3.4543 H   0  0  0  0  0  0  0  0  0  0  0  0
    5.4926   -4.7205   -2.2581 H   0  0  0  0  0  0  0  0  0  0  0  0
    4.0289   -5.1867   -0.3093 H   0  0  0  0  0  0  0  0  0  0  0  0
    2.3938   -3.4921    0.4502 H   0  0  0  0  0  0  0  0  0  0  0  0
  1  2  1  0
  2  3  1  0
  3  4  1  0
  4  5  1  0
  5  6  1  0
  6  7  1  0
  7  8  2  0
  8  9  1  0
  9 10  2  0
  9 11  1  0
 12 11  1  6
 12 13  1  0
 13 14  1  0
 14 15  1  0
 15 16  1  0
 16 17  1  0
 17 18  1  0
 18 19  1  0
 18 20  1  0
 16 21  1  0
  8 22  1  0
 22 23  1  0
 22 24  2  0
 24 25  1  0
 25 26  2  0
 26 27  1  0
 27 28  2  0
 28 29  1  0
 29 30  2  0
 24  6  1  0
 30 25  1  0
 20 12  1  0
 21 12  1  0
 19 14  1  0
  1 31  1  0
  1 32  1  0
  1 33  1  0
  2 34  1  0
  2 35  1  0
  3 36  1  0
  3 37  1  0
  4 38  1  0
  4 39  1  0
  5 40  1  0
  5 41  1  0
 11 42  1  0
 13 43  1  0
 13 44  1  0
 14 45  1  6
 15 46  1  0
 15 47  1  0
 16 48  1  1
 17 49  1  0
 17 50  1  0
 18 51  1  1
 19 52  1  0
 19 53  1  0
 20 54  1  0
 20 55  1  0
 21 56  1  0
 21 57  1  0
 23 58  1  0
 23 59  1  0
 23 60  1  0
 26 61  1  0
 27 62  1  0
 28 63  1  0
 29 64  1  0
 30 65  1  0
M  END
>  <_SMILES>  (1) 
CCCCCn1nc(C(=O)N[C@]23C[C@H]4C[C@H](C[C@H](C4)C2)C3)c(C)c1-c1ccccc1

$$$$

     RDKit          3D

 60 65  0  0  0  0  0  0  0  0999 V2000
   -1.4899    3.2471   -0.2010 C   0  0  0  0  0  0  0  0  0  0  0  0
   -1.6518    1.7708   -0.1078 C   0  0  0  0  0  0  0  0  0  0  0  0
   -0.5997    0.8122   -0.0978 C   0  0  0  0  0  0  0  0  0  0  0  0
    0.8575    1.0585   -0.1140 C   0  0  0  0  0  0  0  0  0  0  0  0
    1.3454    2.1829   -0.0968 O   0  0  0  0  0  0  0  0  0  0  0  0
    1.5905   -0.1084   -0.1411 N   0  0  0  0  0  0  0  0  0  0  0  0
    3.0456   -0.2146   -0.1228 C   0  0  2  0  0  0  0  0  0  0  0  0
    3.4302   -1.7174   -0.1698 C   0  0  0  0  0  0  0  0  0  0  0  0
    4.9566   -1.8963   -0.1509 C   0  0  1  0  0  0  0  0  0  0  0  0
    5.5625   -1.1849   -1.3708 C   0  0  0  0  0  0  0  0  0  0  0  0
    5.2151    0.3116   -1.3315 C   0  0  2  0  0  0  0  0  0  0  0  0
    5.7756    0.9289   -0.0388 C   0  0  0  0  0  0  0  0  0  0  0  0
    5.1740    0.2239    1.1888 C   0  0  2  0  0  0  0  0  0  0  0  0
    5.5214   -1.2722    1.1349 C   0  0  0  0  0  0  0  0  0  0  0  0
    3.6443    0.3919    1.1703 C   0  0  0  0  0  0  0  0  0  0  0  0
    3.6854    0.4795   -1.3507 C   0  0  0  0  0  0  0  0  0  0  0  0
   -1.0838   -0.4426   -0.1168 N   0  0  0  0  0  0  0  0  0  0  0  0
   -2.4272   -0.3041    0.0321 N   0  0  0  0  0  0  0  0  0  0  0  0
   -3.2128   -1.4790    0.1678 C   0  0  0  0  0  0  0  0  0  0  0  0
   -2.8825   -2.5750   -0.6524 C   0  0  0  0  0  0  0  0  0  0  0  0
   -3.6474   -3.7414   -0.6172 C   0  0  0  0  0  0  0  0  0  0  0  0
   -4.7315   -3.8339    0.2502 C   0  0  0  0  0  0  0  0  0  0  0  0
   -5.0321   -2.7711    1.1036 C   0  0  0  0  0  0  0  0  0  0  0  0
   -4.2684   -1.5961    1.0803 C   0  0  0  0  0  0  0  0  0  0  0  0
   -4.5840   -0.4587    2.3427 Cl  0  0  0  0  0  0  0  0  0  0  0  0
   -2.8270    1.0257   -0.0834 C   0  0  0  0  0  0  0  0  0  0  0  0
   -4.2084    1.4843   -0.2728 C   0  0  0  0  0  0  0  0  0  0  0  0
   -4.9902    0.9803   -1.3215 C   0  0  0  0  0  0  0  0  0  0  0  0
   -6.3008    1.4264   -1.5074 C   0  0  0  0  0  0  0  0  0  0  0  0
   -6.8394    2.3860   -0.6528 C   0  0  0  0  0  0  0  0  0  0  0  0
   -6.0679    2.9040    0.3853 C   0  0  0  0  0  0  0  0  0  0  0  0
   -4.7574    2.4588    0.5715 C   0  0  0  0  0  0  0  0  0  0  0  0
   -0.7783    3.5094   -0.9905 H   0  0  0  0  0  0  0  0  0  0  0  0
   -2.4294    3.7526   -0.4398 H   0  0  0  0  0  0  0  0  0  0  0  0
   -1.1204    3.6471    0.7485 H   0  0  0  0  0  0  0  0  0  0  0  0
    1.0201   -0.9512   -0.1187 H   0  0  0  0  0  0  0  0  0  0  0  0
    2.9854   -2.2477    0.6830 H   0  0  0  0  0  0  0  0  0  0  0  0
    3.0136   -2.1855   -1.0718 H   0  0  0  0  0  0  0  0  0  0  0  0
    5.2048   -2.9630   -0.1840 H   0  0  0  0  0  0  0  0  0  0  0  0
    5.1802   -1.6344   -2.2955 H   0  0  0  0  0  0  0  0  0  0  0  0
    6.6515   -1.3169   -1.3791 H   0  0  0  0  0  0  0  0  0  0  0  0
    5.6523    0.8148   -2.2011 H   0  0  0  0  0  0  0  0  0  0  0  0
    5.5460    2.0010   -0.0053 H   0  0  0  0  0  0  0  0  0  0  0  0
    6.8686    0.8369   -0.0242 H   0  0  0  0  0  0  0  0  0  0  0  0
    5.5822    0.6648    2.1051 H   0  0  0  0  0  0  0  0  0  0  0  0
    5.1095   -1.7847    2.0130 H   0  0  0  0  0  0  0  0  0  0  0  0
    6.6096   -1.4058    1.1697 H   0  0  0  0  0  0  0  0  0  0  0  0
    3.4000    1.4578    1.2513 H   0  0  0  0  0  0  0  0  0  0  0  0
    3.2049   -0.0916    2.0527 H   0  0  0  0  0  0  0  0  0  0  0  0
    3.2751    0.0591   -2.2783 H   0  0  0  0  0  0  0  0  0  0  0  0
    3.4442    1.5490   -1.3661 H   0  0  0  0  0  0  0  0  0  0  0  0
   -2.0463   -2.5155   -1.3478 H   0  0  0  0  0  0  0  0  0  0  0  0
   -3.3968   -4.5756   -1.2684 H   0  0  0  0  0  0  0  0  0  0  0  0
   -5.3276   -4.7427    0.2831 H   0  0  0  0  0  0  0  0  0  0  0  0
   -5.8503   -2.8777    1.8129 H   0  0  0  0  0  0  0  0  0  0  0  0
   -4.5847    0.2435   -2.0109 H   0  0  0  0  0  0  0  0  0  0  0  0
   -6.8990    1.0276   -2.3225 H   0  0  0  0  0  0  0  0  0  0  0  0
   -7.8594    2.7327   -0.7973 H   0  0  0  0  0  0  0  0  0  0  0  0
   -6.4857    3.6527    1.0532 H   0  0  0  0  0  0  0  0  0  0  0  0
   -4.1722    2.8661    1.3930 H   0  0  0  0  0  0  0  0  0  0  0  0
  1  2  1  0
  2  3  1  0
  3  4  1  0
  4  5  2  0
  4  6  1  0
  7  6  1  1
  7  8  1  0
  8  9  1  0
  9 10  1  0
 10 11  1  0
 11 12  1  0
 12 13  1  0
 13 14  1  0
 13 15  1  0
 11 16  1  0
  3 17  2  0
 17 18  1  0
 18 19  1  0
 19 20  2  0
 20 21  1  0
 21 22  2  0
 22 23  1  0
 23 24  2  0
 24 25  1  0
 18 26  1  0
 26 27  1  0
 27 28  2  0
 28 29  1  0
 29 30  2  0
 30 31  1  0
 31 32  2  0
 26  2  2  0
 32 27  1  0
 15  7  1  0
 24 19  1  0
 16  7  1  0
 14  9  1  0
  1 33  1  0
  1 34  1  0
  1 35  1  0
  6 36  1  0
  8 37  1  0
  8 38  1  0
  9 39  1  6
 10 40  1  0
 10 41  1  0
 11 42  1  6
 12 43  1  0
 12 44  1  0
 13 45  1  1
 14 46  1  0
 14 47  1  0
 15 48  1  0
 15 49  1  0
 16 50  1  0
 16 51  1  0
 20 52  1  0
 21 53  1  0
 22 54  1  0
 23 55  1  0
 28 56  1  0
 29 57  1  0
 30 58  1  0
 31 59  1  0
 32 60  1  0
M  END
>  <_SMILES>  (2) 
Cc1c(C(=O)N[C@]23C[C@H]4C[C@H](C[C@H](C4)C2)C3)nn(-c2ccccc2Cl)c1-c1ccccc1

$$$$

     RDKit          3D

 63 68  0  0  0  0  0  0  0  0999 V2000
    1.1700   -2.2995   -2.6597 C   0  0  0  0  0  0  0  0  0  0  0  0
    1.4442   -1.2932   -1.5990 C   0  0  0  0  0  0  0  0  0  0  0  0
    0.4725   -0.5880   -0.8412 C   0  0  0  0  0  0  0  0  0  0  0  0
   -0.9996   -0.6570   -0.9431 C   0  0  0  0  0  0  0  0  0  0  0  0
   -1.5787   -1.3490   -1.7727 O   0  0  0  0  0  0  0  0  0  0  0  0
   -1.6299    0.1357   -0.0080 N   0  0  0  0  0  0  0  0  0  0  0  0
   -3.0695    0.2650    0.1873 C   0  0  2  0  0  0  0  0  0  0  0  0
   -3.7707    0.8194   -1.0773 C   0  0  0  0  0  0  0  0  0  0  0  0
   -5.2796    0.9909   -0.8279 C   0  0  1  0  0  0  0  0  0  0  0  0
   -5.8888   -0.3714   -0.4548 C   0  0  0  0  0  0  0  0  0  0  0  0
   -5.2242   -0.9171    0.8206 C   0  0  2  0  0  0  0  0  0  0  0  0
   -5.4390    0.0799    1.9704 C   0  0  0  0  0  0  0  0  0  0  0  0
   -4.8251    1.4410    1.6067 C   0  0  2  0  0  0  0  0  0  0  0  0
   -5.4943    1.9768    0.3313 C   0  0  0  0  0  0  0  0  0  0  0  0
   -3.3204    1.2626    1.3493 C   0  0  0  0  0  0  0  0  0  0  0  0
   -3.7153   -1.0889    0.5716 C   0  0  0  0  0  0  0  0  0  0  0  0
    1.0548    0.2027    0.0732 N   0  0  0  0  0  0  0  0  0  0  0  0
    2.3849    0.0619   -0.1042 N   0  0  0  0  0  0  0  0  0  0  0  0
    3.2560    0.9094    0.6516 C   0  0  0  0  0  0  0  0  0  0  0  0
    4.4667    1.3384    0.0775 C   0  0  0  0  0  0  0  0  0  0  0  0
    5.3125    2.2156    0.7582 C   0  0  0  0  0  0  0  0  0  0  0  0
    4.9597    2.6874    2.0148 C   0  0  0  0  0  0  0  0  0  0  0  0
    3.7625    2.2752    2.5974 C   0  0  0  0  0  0  0  0  0  0  0  0
    2.8931    1.3758    1.9402 C   0  0  0  0  0  0  0  0  0  0  0  0
    1.6565    0.9195    2.6936 C   0  0  0  0  0  0  0  0  0  0  0  0
    1.4583   -0.4284    2.6578 F   0  0  0  0  0  0  0  0  0  0  0  0
    1.7343    1.2100    4.0312 F   0  0  0  0  0  0  0  0  0  0  0  0
    0.4992    1.5129    2.2855 F   0  0  0  0  0  0  0  0  0  0  0  0
    2.6729   -0.8710   -1.1003 C   0  0  0  0  0  0  0  0  0  0  0  0
    4.0047   -1.3725   -1.4443 C   0  0  0  0  0  0  0  0  0  0  0  0
    4.7778   -2.0507   -0.4931 C   0  0  0  0  0  0  0  0  0  0  0  0
    6.0464   -2.5291   -0.8270 C   0  0  0  0  0  0  0  0  0  0  0  0
    6.5475   -2.3404   -2.1141 C   0  0  0  0  0  0  0  0  0  0  0  0
    5.7804   -1.6776   -3.0707 C   0  0  0  0  0  0  0  0  0  0  0  0
    4.5120   -1.1980   -2.7388 C   0  0  0  0  0  0  0  0  0  0  0  0
    2.0763   -2.8222   -2.9778 H   0  0  0  0  0  0  0  0  0  0  0  0
    0.4692   -3.0588   -2.2976 H   0  0  0  0  0  0  0  0  0  0  0  0
    0.7342   -1.8138   -3.5386 H   0  0  0  0  0  0  0  0  0  0  0  0
   -0.9918    0.6262    0.6177 H   0  0  0  0  0  0  0  0  0  0  0  0
   -3.6240    0.1486   -1.9321 H   0  0  0  0  0  0  0  0  0  0  0  0
   -3.3275    1.7824   -1.3632 H   0  0  0  0  0  0  0  0  0  0  0  0
   -5.7617    1.3756   -1.7336 H   0  0  0  0  0  0  0  0  0  0  0  0
   -5.7543   -1.0810   -1.2805 H   0  0  0  0  0  0  0  0  0  0  0  0
   -6.9694   -0.2671   -0.2977 H   0  0  0  0  0  0  0  0  0  0  0  0
   -5.6670   -1.8843    1.0833 H   0  0  0  0  0  0  0  0  0  0  0  0
   -6.5112    0.1942    2.1720 H   0  0  0  0  0  0  0  0  0  0  0  0
   -4.9813   -0.3043    2.8902 H   0  0  0  0  0  0  0  0  0  0  0  0
   -4.9787    2.1477    2.4297 H   0  0  0  0  0  0  0  0  0  0  0  0
   -5.0765    2.9573    0.0718 H   0  0  0  0  0  0  0  0  0  0  0  0
   -6.5675    2.1238    0.5045 H   0  0  0  0  0  0  0  0  0  0  0  0
   -2.8281    0.9075    2.2647 H   0  0  0  0  0  0  0  0  0  0  0  0
   -2.8666    2.2353    1.1163 H   0  0  0  0  0  0  0  0  0  0  0  0
   -3.2326   -1.4961    1.4698 H   0  0  0  0  0  0  0  0  0  0  0  0
   -3.5651   -1.8320   -0.2207 H   0  0  0  0  0  0  0  0  0  0  0  0
    4.7606    1.0496   -0.9275 H   0  0  0  0  0  0  0  0  0  0  0  0
    6.2403    2.5429    0.2944 H   0  0  0  0  0  0  0  0  0  0  0  0
    5.6146    3.3765    2.5428 H   0  0  0  0  0  0  0  0  0  0  0  0
    3.5123    2.6524    3.5894 H   0  0  0  0  0  0  0  0  0  0  0  0
    4.3973   -2.2173    0.5123 H   0  0  0  0  0  0  0  0  0  0  0  0
    6.6411   -3.0538   -0.0835 H   0  0  0  0  0  0  0  0  0  0  0  0
    7.5340   -2.7165   -2.3735 H   0  0  0  0  0  0  0  0  0  0  0  0
    6.1682   -1.5369   -4.0764 H   0  0  0  0  0  0  0  0  0  0  0  0
    3.9232   -0.6839   -3.4955 H   0  0  0  0  0  0  0  0  0  0  0  0
  1  2  1  0
  2  3  1  0
  3  4  1  0
  4  5  2  0
  4  6  1  0
  7  6  1  6
  7  8  1  0
  8  9  1  0
  9 10  1  0
 10 11  1  0
 11 12  1  0
 12 13  1  0
 13 14  1  0
 13 15  1  0
 11 16  1  0
  3 17  2  0
 17 18  1  0
 18 19  1  0
 19 20  2  0
 20 21  1  0
 21 22  2  0
 22 23  1  0
 23 24  2  0
 24 25  1  0
 25 26  1  0
 25 27  1  0
 25 28  1  0
 18 29  1  0
 29 30  1  0
 30 31  2  0
 31 32  1  0
 32 33  2  0
 33 34  1  0
 34 35  2  0
 29  2  2  0
 35 30  1  0
 15  7  1  0
 24 19  1  0
 16  7  1  0
 14  9  1  0
  1 36  1  0
  1 37  1  0
  1 38  1  0
  6 39  1  0
  8 40  1  0
  8 41  1  0
  9 42  1  6
 10 43  1  0
 10 44  1  0
 11 45  1  1
 12 46  1  0
 12 47  1  0
 13 48  1  1
 14 49  1  0
 14 50  1  0
 15 51  1  0
 15 52  1  0
 16 53  1  0
 16 54  1  0
 20 55  1  0
 21 56  1  0
 22 57  1  0
 23 58  1  0
 31 59  1  0
 32 60  1  0
 33 61  1  0
 34 62  1  0
 35 63  1  0
M  END
>  <_SMILES>  (3) 
Cc1c(C(=O)N[C@]23C[C@H]4C[C@H](C[C@H](C4)C2)C3)nn(-c2ccccc2C(F)(F)F)c1-c1ccccc1

$$$$

     RDKit          3D

 58 63  0  0  0  0  0  0  0  0999 V2000
    0.3468    2.9555    0.5802 C   0  0  0  0  0  0  0  0  0  0  0  0
    0.8280    1.8909    0.4993 N   0  0  0  0  0  0  0  0  0  0  0  0
    1.3855    0.5498    0.3805 C   0  0  0  0  0  0  0  0  0  0  0  0
    0.6717   -0.6264    0.0982 C   0  0  0  0  0  0  0  0  0  0  0  0
   -0.7679   -0.8310   -0.1739 C   0  0  0  0  0  0  0  0  0  0  0  0
   -1.2334   -1.9435   -0.4064 O   0  0  0  0  0  0  0  0  0  0  0  0
   -1.5583    0.3066   -0.1516 N   0  0  0  0  0  0  0  0  0  0  0  0
   -3.0077    0.3245   -0.3866 C   0  0  2  0  0  0  0  0  0  0  0  0
   -3.3684   -0.1864   -1.8041 C   0  0  0  0  0  0  0  0  0  0  0  0
   -4.8873   -0.1049   -2.0393 C   0  0  1  0  0  0  0  0  0  0  0  0
   -5.6100   -0.9556   -0.9809 C   0  0  0  0  0  0  0  0  0  0  0  0
   -5.2905   -0.4309    0.4295 C   0  0  2  0  0  0  0  0  0  0  0  0
   -5.7443    1.0329    0.5407 C   0  0  0  0  0  0  0  0  0  0  0  0
   -5.0177    1.8880   -0.5088 C   0  0  2  0  0  0  0  0  0  0  0  0
   -5.3436    1.3568   -1.9131 C   0  0  0  0  0  0  0  0  0  0  0  0
   -3.5020    1.7937   -0.2738 C   0  0  0  0  0  0  0  0  0  0  0  0
   -3.7723   -0.5130    0.6688 C   0  0  0  0  0  0  0  0  0  0  0  0
    1.5187   -1.6682    0.1255 N   0  0  0  0  0  0  0  0  0  0  0  0
    2.7640   -1.1595    0.3391 N   0  0  0  0  0  0  0  0  0  0  0  0
    3.8822   -2.0526    0.2689 C   0  0  0  0  0  0  0  0  0  0  0  0
    3.6402   -3.4388    0.2498 C   0  0  0  0  0  0  0  0  0  0  0  0
    4.6978   -4.3494    0.1818 C   0  0  0  0  0  0  0  0  0  0  0  0
    6.0092   -3.8894    0.1210 C   0  0  0  0  0  0  0  0  0  0  0  0
    6.2620   -2.5201    0.1185 C   0  0  0  0  0  0  0  0  0  0  0  0
    5.2059   -1.6037    0.1863 C   0  0  0  0  0  0  0  0  0  0  0  0
    2.7074    0.2123    0.5862 C   0  0  0  0  0  0  0  0  0  0  0  0
    3.7850    1.0805    1.0469 C   0  0  0  0  0  0  0  0  0  0  0  0
    4.3331    0.9108    2.3254 C   0  0  0  0  0  0  0  0  0  0  0  0
    5.3505    1.7554    2.7729 C   0  0  0  0  0  0  0  0  0  0  0  0
    5.8190    2.7796    1.9517 C   0  0  0  0  0  0  0  0  0  0  0  0
    5.2693    2.9639    0.6840 C   0  0  0  0  0  0  0  0  0  0  0  0
    4.2523    2.1204    0.2331 C   0  0  0  0  0  0  0  0  0  0  0  0
   -1.1303    1.1975    0.0640 H   0  0  0  0  0  0  0  0  0  0  0  0
   -2.8402    0.4047   -2.5637 H   0  0  0  0  0  0  0  0  0  0  0  0
   -3.0439   -1.2239   -1.9438 H   0  0  0  0  0  0  0  0  0  0  0  0
   -5.1257   -0.4804   -3.0408 H   0  0  0  0  0  0  0  0  0  0  0  0
   -5.3022   -2.0048   -1.0691 H   0  0  0  0  0  0  0  0  0  0  0  0
   -6.6929   -0.9260   -1.1538 H   0  0  0  0  0  0  0  0  0  0  0  0
   -5.8145   -1.0372    1.1767 H   0  0  0  0  0  0  0  0  0  0  0  0
   -5.5342    1.4152    1.5471 H   0  0  0  0  0  0  0  0  0  0  0  0
   -6.8292    1.1013    0.3943 H   0  0  0  0  0  0  0  0  0  0  0  0
   -5.3413    2.9314   -0.4239 H   0  0  0  0  0  0  0  0  0  0  0  0
   -6.4218    1.4307   -2.1011 H   0  0  0  0  0  0  0  0  0  0  0  0
   -4.8452    1.9722   -2.6722 H   0  0  0  0  0  0  0  0  0  0  0  0
   -3.2566    2.1989    0.7171 H   0  0  0  0  0  0  0  0  0  0  0  0
   -2.9754    2.4255   -1.0017 H   0  0  0  0  0  0  0  0  0  0  0  0
   -3.4645   -1.5645    0.6355 H   0  0  0  0  0  0  0  0  0  0  0  0
   -3.5333   -0.1556    1.6791 H   0  0  0  0  0  0  0  0  0  0  0  0
    2.6252   -3.8326    0.2959 H   0  0  0  0  0  0  0  0  0  0  0  0
    4.4922   -5.4169    0.1742 H   0  0  0  0  0  0  0  0  0  0  0  0
    6.8325   -4.5968    0.0653 H   0  0  0  0  0  0  0  0  0  0  0  0
    7.2860   -2.1598    0.0531 H   0  0  0  0  0  0  0  0  0  0  0  0
    5.4680   -0.5539    0.1363 H   0  0  0  0  0  0  0  0  0  0  0  0
    3.9746    0.1212    2.9829 H   0  0  0  0  0  0  0  0  0  0  0  0
    5.7746    1.6167    3.7644 H   0  0  0  0  0  0  0  0  0  0  0  0
    6.6090    3.4392    2.3026 H   0  0  0  0  0  0  0  0  0  0  0  0
    5.6300    3.7684    0.0476 H   0  0  0  0  0  0  0  0  0  0  0  0
    3.8338    2.2816   -0.7580 H   0  0  0  0  0  0  0  0  0  0  0  0
  1  2  3  0
  2  3  1  0
  3  4  1  0
  4  5  1  0
  5  6  2  0
  5  7  1  0
  8  7  1  1
  8  9  1  0
  9 10  1  0
 10 11  1  0
 11 12  1  0
 12 13  1  0
 13 14  1  0
 14 15  1  0
 14 16  1  0
 12 17  1  0
  4 18  2  0
 18 19  1  0
 19 20  1  0
 20 21  2  0
 21 22  1  0
 22 23  2  0
 23 24  1  0
 24 25  2  0
 19 26  1  0
 26 27  1  0
 27 28  2  0
 28 29  1  0
 29 30  2  0
 30 31  1  0
 31 32  2  0
 26  3  2  0
 32 27  1  0
 16  8  1  0
 25 20  1  0
 17  8  1  0
 15 10  1  0
  7 33  1  0
  9 34  1  0
  9 35  1  0
 10 36  1  6
 11 37  1  0
 11 38  1  0
 12 39  1  1
 13 40  1  0
 13 41  1  0
 14 42  1  6
 15 43  1  0
 15 44  1  0
 16 45  1  0
 16 46  1  0
 17 47  1  0
 17 48  1  0
 21 49  1  0
 22 50  1  0
 23 51  1  0
 24 52  1  0
 25 53  1  0
 28 54  1  0
 29 55  1  0
 30 56  1  0
 31 57  1  0
 32 58  1  0
M  CHG  2   1  -1   2   1
M  END
>  <_SMILES>  (4) 
[C-]#[N+]c1c(C(=O)N[C@]23C[C@H]4C[C@H](C[C@H](C4)C2)C3)nn(-c2ccccc2)c1-c1ccccc1

$$$$

     RDKit          3D

 46 48  0  0  0  0  0  0  0  0999 V2000
   -4.4020    1.0429    0.0989 C   0  0  0  0  0  0  0  0  0  0  0  0
   -3.0590    0.8441    0.7060 C   0  0  0  0  0  0  0  0  0  0  0  0
   -2.5833    1.3191    1.9741 C   0  0  0  0  0  0  0  0  0  0  0  0
   -3.3065    2.0772    3.0101 C   0  0  0  0  0  0  0  0  0  0  0  0
   -2.7851    2.8987    3.7666 O   0  0  0  0  0  0  0  0  0  0  0  0
   -4.6480    1.7601    3.1322 N   0  0  0  0  0  0  0  0  0  0  0  0
   -5.2923    2.3068    4.2726 O   0  0  0  0  0  0  0  0  0  0  0  0
   -1.2945    0.9826    2.1520 N   0  0  0  0  0  0  0  0  0  0  0  0
   -0.9574    0.2988    1.0476 N   0  0  0  0  0  0  0  0  0  0  0  0
    0.4035   -0.1959    0.9235 C   0  0  0  0  0  0  0  0  0  0  0  0
    1.3238    0.8458    0.2954 C   0  0  0  0  0  0  0  0  0  0  0  0
    2.7045    0.2870    0.0556 C   0  0  0  0  0  0  0  0  0  0  0  0
    2.9905   -0.4067   -1.1270 C   0  0  0  0  0  0  0  0  0  0  0  0
    4.2617   -0.9436   -1.3413 C   0  0  0  0  0  0  0  0  0  0  0  0
    5.2709   -0.7947   -0.3784 C   0  0  0  0  0  0  0  0  0  0  0  0
    6.6371   -1.3944   -0.6010 C   0  0  0  0  0  0  0  0  0  0  0  0
    7.6324   -0.7144    0.0343 F   0  0  0  0  0  0  0  0  0  0  0  0
    6.9963   -1.4337   -1.9150 F   0  0  0  0  0  0  0  0  0  0  0  0
    6.7175   -2.6783   -0.1542 F   0  0  0  0  0  0  0  0  0  0  0  0
    4.9756   -0.1120    0.8108 C   0  0  0  0  0  0  0  0  0  0  0  0
    3.7043    0.4250    1.0254 C   0  0  0  0  0  0  0  0  0  0  0  0
   -1.9818    0.1741    0.1432 C   0  0  0  0  0  0  0  0  0  0  0  0
   -1.8592   -0.5029   -1.1414 C   0  0  0  0  0  0  0  0  0  0  0  0
   -2.0464   -1.8865   -1.2303 C   0  0  0  0  0  0  0  0  0  0  0  0
   -1.9152   -2.5347   -2.4597 C   0  0  0  0  0  0  0  0  0  0  0  0
   -1.6009   -1.8031   -3.6045 C   0  0  0  0  0  0  0  0  0  0  0  0
   -1.4208   -0.4229   -3.5232 C   0  0  0  0  0  0  0  0  0  0  0  0
   -1.5517    0.2269   -2.2949 C   0  0  0  0  0  0  0  0  0  0  0  0
   -4.7813    2.0478    0.3094 H   0  0  0  0  0  0  0  0  0  0  0  0
   -4.3744    0.9292   -0.9893 H   0  0  0  0  0  0  0  0  0  0  0  0
   -5.1106    0.3099    0.4968 H   0  0  0  0  0  0  0  0  0  0  0  0
   -4.9726    0.8441    2.8436 H   0  0  0  0  0  0  0  0  0  0  0  0
   -4.5771    2.8431    4.6838 H   0  0  0  0  0  0  0  0  0  0  0  0
    0.7468   -0.4707    1.9287 H   0  0  0  0  0  0  0  0  0  0  0  0
    0.3776   -1.1205    0.3370 H   0  0  0  0  0  0  0  0  0  0  0  0
    1.3895    1.7334    0.9380 H   0  0  0  0  0  0  0  0  0  0  0  0
    0.9136    1.2066   -0.6563 H   0  0  0  0  0  0  0  0  0  0  0  0
    2.2240   -0.5346   -1.8897 H   0  0  0  0  0  0  0  0  0  0  0  0
    4.4638   -1.4800   -2.2675 H   0  0  0  0  0  0  0  0  0  0  0  0
    5.7393    0.0068    1.5785 H   0  0  0  0  0  0  0  0  0  0  0  0
    3.4999    0.9523    1.9558 H   0  0  0  0  0  0  0  0  0  0  0  0
   -2.2946   -2.4666   -0.3446 H   0  0  0  0  0  0  0  0  0  0  0  0
   -2.0607   -3.6101   -2.5250 H   0  0  0  0  0  0  0  0  0  0  0  0
   -1.5016   -2.3087   -4.5620 H   0  0  0  0  0  0  0  0  0  0  0  0
   -1.1822    0.1480   -4.4172 H   0  0  0  0  0  0  0  0  0  0  0  0
   -1.4131    1.3046   -2.2432 H   0  0  0  0  0  0  0  0  0  0  0  0
  1  2  1  0
  2  3  1  0
  3  4  1  0
  4  5  2  0
  4  6  1  0
  6  7  1  0
  3  8  2  0
  8  9  1  0
  9 10  1  0
 10 11  1  0
 11 12  1  0
 12 13  1  0
 13 14  2  0
 14 15  1  0
 15 16  1  0
 16 17  1  0
 16 18  1  0
 16 19  1  0
 15 20  2  0
 20 21  1  0
  9 22  1  0
 22 23  1  0
 23 24  2  0
 24 25  1  0
 25 26  2  0
 26 27  1  0
 27 28  2  0
 22  2  2  0
 28 23  1  0
 21 12  2  0
  1 29  1  0
  1 30  1  0
  1 31  1  0
  6 32  1  0
  7 33  1  0
 10 34  1  0
 10 35  1  0
 11 36  1  0
 11 37  1  0
 13 38  1  0
 14 39  1  0
 20 40  1  0
 21 41  1  0
 24 42  1  0
 25 43  1  0
 26 44  1  0
 27 45  1  0
 28 46  1  0
M  END
>  <_SMILES>  (5) 
Cc1c(C(=O)NO)nn(CCc2ccc(C(F)(F)F)cc2)c1-c1ccccc1

$$$$

     RDKit          3D

 45 47  0  0  0  0  0  0  0  0999 V2000
   -4.4427    0.8150    1.1505 C   0  0  0  0  0  0  0  0  0  0  0  0
   -2.9800    0.8446    1.4150 C   0  0  0  0  0  0  0  0  0  0  0  0
   -2.2898    1.6104    2.4198 C   0  0  0  0  0  0  0  0  0  0  0  0
   -2.8620    2.5816    3.3978 C   0  0  0  0  0  0  0  0  0  0  0  0
   -2.4068    2.6792    4.5367 O   0  0  0  0  0  0  0  0  0  0  0  0
   -3.9265    3.3135    2.8554 N   0  0  0  0  0  0  0  0  0  0  0  0
   -4.4576    4.3834    3.5591 O   0  0  0  0  0  0  0  0  0  0  0  0
   -0.9710    1.3249    2.3967 N   0  0  0  0  0  0  0  0  0  0  0  0
   -0.8238    0.4524    1.3926 N   0  0  0  0  0  0  0  0  0  0  0  0
    0.5171   -0.0010    1.0705 C   0  0  0  0  0  0  0  0  0  0  0  0
    1.1874    0.9184    0.0548 C   0  0  0  0  0  0  0  0  0  0  0  0
    2.5298    0.3787   -0.3761 C   0  0  0  0  0  0  0  0  0  0  0  0
    2.6197   -0.5214   -1.4450 C   0  0  0  0  0  0  0  0  0  0  0  0
    3.8584   -1.0379   -1.8309 C   0  0  0  0  0  0  0  0  0  0  0  0
    5.0281   -0.6724   -1.1477 C   0  0  0  0  0  0  0  0  0  0  0  0
    6.3672   -1.2127   -1.5803 C   0  0  0  0  0  0  0  0  0  0  0  0
    6.2947   -2.4718   -2.0991 F   0  0  0  0  0  0  0  0  0  0  0  0
    6.9503   -0.4481   -2.5453 F   0  0  0  0  0  0  0  0  0  0  0  0
    7.2740   -1.2858   -0.5652 F   0  0  0  0  0  0  0  0  0  0  0  0
    4.9332    0.2311   -0.0789 C   0  0  0  0  0  0  0  0  0  0  0  0
    3.6943    0.7474    0.3070 C   0  0  0  0  0  0  0  0  0  0  0  0
   -1.9941    0.1219    0.7590 C   0  0  0  0  0  0  0  0  0  0  0  0
   -2.0893   -0.7916   -0.3720 C   0  0  0  0  0  0  0  0  0  0  0  0
   -2.2103   -0.2875   -1.6714 C   0  0  0  0  0  0  0  0  0  0  0  0
   -2.2884   -1.1586   -2.7594 C   0  0  0  0  0  0  0  0  0  0  0  0
   -2.2520   -2.5372   -2.5528 C   0  0  0  0  0  0  0  0  0  0  0  0
   -2.1424   -3.0462   -1.2590 C   0  0  0  0  0  0  0  0  0  0  0  0
   -2.0640   -2.1758   -0.1704 C   0  0  0  0  0  0  0  0  0  0  0  0
   -4.7383   -0.1159    0.6558 H   0  0  0  0  0  0  0  0  0  0  0  0
   -5.0143    0.8779    2.0817 H   0  0  0  0  0  0  0  0  0  0  0  0
   -4.7309    1.6469    0.5006 H   0  0  0  0  0  0  0  0  0  0  0  0
   -4.0070    3.3938    1.8518 H   0  0  0  0  0  0  0  0  0  0  0  0
    1.0890   -0.0380    2.0062 H   0  0  0  0  0  0  0  0  0  0  0  0
    0.4515   -1.0305    0.7035 H   0  0  0  0  0  0  0  0  0  0  0  0
    0.5535    1.0494   -0.8315 H   0  0  0  0  0  0  0  0  0  0  0  0
    1.3110    1.9253    0.4745 H   0  0  0  0  0  0  0  0  0  0  0  0
    1.7229   -0.8241   -1.9834 H   0  0  0  0  0  0  0  0  0  0  0  0
    3.9066   -1.7318   -2.6686 H   0  0  0  0  0  0  0  0  0  0  0  0
    5.8266    0.5370    0.4636 H   0  0  0  0  0  0  0  0  0  0  0  0
    3.6414    1.4418    1.1445 H   0  0  0  0  0  0  0  0  0  0  0  0
   -2.2463    0.7872   -1.8377 H   0  0  0  0  0  0  0  0  0  0  0  0
   -2.3848   -0.7594   -3.7655 H   0  0  0  0  0  0  0  0  0  0  0  0
   -2.3189   -3.2152   -3.3994 H   0  0  0  0  0  0  0  0  0  0  0  0
   -2.1254   -4.1202   -1.0948 H   0  0  0  0  0  0  0  0  0  0  0  0
   -1.9901   -2.5787    0.8374 H   0  0  0  0  0  0  0  0  0  0  0  0
  1  2  1  0
  2  3  1  0
  3  4  1  0
  4  5  2  0
  4  6  1  0
  6  7  1  0
  3  8  2  0
  8  9  1  0
  9 10  1  0
 10 11  1  0
 11 12  1  0
 12 13  1  0
 13 14  2  0
 14 15  1  0
 15 16  1  0
 16 17  1  0
 16 18  1  0
 16 19  1  0
 15 20  2  0
 20 21  1  0
  9 22  1  0
 22 23  1  0
 23 24  2  0
 24 25  1  0
 25 26  2  0
 26 27  1  0
 27 28  2  0
 22  2  2  0
 28 23  1  0
 21 12  2  0
  1 29  1  0
  1 30  1  0
  1 31  1  0
  6 32  1  0
 10 33  1  0
 10 34  1  0
 11 35  1  0
 11 36  1  0
 13 37  1  0
 14 38  1  0
 20 39  1  0
 21 40  1  0
 24 41  1  0
 25 42  1  0
 26 43  1  0
 27 44  1  0
 28 45  1  0
M  CHG  1   7  -1
M  END
>  <_SMILES>  (6) 
Cc1c(C(=O)N[O-])nn(CCc2ccc(C(F)(F)F)cc2)c1-c1ccccc1

$$$$

     RDKit          3D

 47 50  0  0  0  0  0  0  0  0999 V2000
    4.2149    3.0952   -0.1625 Cl  0  0  0  0  0  0  0  0  0  0  0  0
    4.3227    1.9096   -1.4180 C   0  0  0  0  0  0  0  0  0  0  0  0
    4.8791    2.3185   -2.6359 C   0  0  0  0  0  0  0  0  0  0  0  0
    4.9516    1.4322   -3.7108 C   0  0  0  0  0  0  0  0  0  0  0  0
    4.4627    0.1355   -3.5762 C   0  0  0  0  0  0  0  0  0  0  0  0
    3.9063   -0.2776   -2.3637 C   0  0  0  0  0  0  0  0  0  0  0  0
    3.8375    0.6015   -1.2682 C   0  0  0  0  0  0  0  0  0  0  0  0
    3.2695    0.1214   -0.0229 C   0  0  0  0  0  0  0  0  0  0  0  0
    3.8946    0.2555    1.1933 N   0  0  0  0  0  0  0  0  0  0  0  0
    3.1014   -0.2982    2.0982 N   0  0  0  0  0  0  0  0  0  0  0  0
    2.0621   -0.7577    1.3986 N   0  0  0  0  0  0  0  0  0  0  0  0
    0.8727   -1.2741    2.0619 C   0  0  1  0  0  0  0  0  0  0  0  0
   -0.0785   -0.1126    2.3852 C   0  0  0  0  0  0  0  0  0  0  0  0
   -1.5299   -0.5507    2.4073 C   0  0  0  0  0  0  0  0  0  0  0  0
   -1.9505   -1.1373    1.0698 N   0  0  1  0  0  0  0  0  0  0  0  0
   -2.8219   -0.2439    0.1705 C   0  0  0  0  0  0  0  0  0  0  0  0
   -4.2353   -0.1379    0.7489 C   0  0  0  0  0  0  0  0  0  0  0  0
   -5.0684    0.7972   -0.1169 C   0  0  0  0  0  0  0  0  0  0  0  0
   -4.4124    2.0557   -0.2289 O   0  0  0  0  0  0  0  0  0  0  0  0
   -3.1597    1.9759   -0.9027 C   0  0  0  0  0  0  0  0  0  0  0  0
   -2.1962    1.1272   -0.0841 C   0  0  0  0  0  0  0  0  0  0  0  0
   -0.8287   -1.8046    0.2862 C   0  0  0  0  0  0  0  0  0  0  0  0
    0.1934   -2.3853    1.2476 C   0  0  0  0  0  0  0  0  0  0  0  0
    2.0907   -0.5278    0.0729 N   0  0  0  0  0  0  0  0  0  0  0  0
    5.2571    3.3319   -2.7552 H   0  0  0  0  0  0  0  0  0  0  0  0
    5.3898    1.7554   -4.6528 H   0  0  0  0  0  0  0  0  0  0  0  0
    4.5225   -0.5563   -4.4139 H   0  0  0  0  0  0  0  0  0  0  0  0
    3.5405   -1.2987   -2.2731 H   0  0  0  0  0  0  0  0  0  0  0  0
    1.2301   -1.7240    2.9979 H   0  0  0  0  0  0  0  0  0  0  0  0
    0.1904    0.3106    3.3611 H   0  0  0  0  0  0  0  0  0  0  0  0
    0.0432    0.7064    1.6656 H   0  0  0  0  0  0  0  0  0  0  0  0
   -1.6828   -1.3425    3.1501 H   0  0  0  0  0  0  0  0  0  0  0  0
   -2.1981    0.2752    2.6626 H   0  0  0  0  0  0  0  0  0  0  0  0
   -2.5764   -1.9158    1.3228 H   0  0  0  0  0  0  0  0  0  0  0  0
   -2.8964   -0.7837   -0.7834 H   0  0  0  0  0  0  0  0  0  0  0  0
   -4.2014    0.2683    1.7658 H   0  0  0  0  0  0  0  0  0  0  0  0
   -4.7111   -1.1234    0.8030 H   0  0  0  0  0  0  0  0  0  0  0  0
   -6.0458    0.9649    0.3464 H   0  0  0  0  0  0  0  0  0  0  0  0
   -5.2399    0.3779   -1.1152 H   0  0  0  0  0  0  0  0  0  0  0  0
   -2.7674    2.9923   -1.0072 H   0  0  0  0  0  0  0  0  0  0  0  0
   -3.3042    1.5679   -1.9099 H   0  0  0  0  0  0  0  0  0  0  0  0
   -1.2389    1.0425   -0.6078 H   0  0  0  0  0  0  0  0  0  0  0  0
   -2.0149    1.6452    0.8637 H   0  0  0  0  0  0  0  0  0  0  0  0
   -0.3967   -1.0617   -0.3880 H   0  0  0  0  0  0  0  0  0  0  0  0
   -1.2968   -2.5933   -0.3123 H   0  0  0  0  0  0  0  0  0  0  0  0
    0.9318   -2.9812    0.6978 H   0  0  0  0  0  0  0  0  0  0  0  0
   -0.3122   -3.0789    1.9323 H   0  0  0  0  0  0  0  0  0  0  0  0
  1  2  1  0
  2  3  2  0
  3  4  1  0
  4  5  2  0
  5  6  1  0
  6  7  2  0
  7  8  1  0
  8  9  1  0
  9 10  2  0
 10 11  1  0
 11 12  1  0
 12 13  1  0
 13 14  1  0
 14 15  1  0
 15 16  1  0
 16 17  1  0
 17 18  1  0
 18 19  1  0
 19 20  1  0
 20 21  1  0
 15 22  1  0
 22 23  1  0
 11 24  1  0
  7  2  1  0
 24  8  2  0
 23 12  1  0
 21 16  1  0
  3 25  1  0
  4 26  1  0
  5 27  1  0
  6 28  1  0
 12 29  1  1
 13 30  1  0
 13 31  1  0
 14 32  1  0
 14 33  1  0
 15 34  1  1
 16 35  1  0
 17 36  1  0
 17 37  1  0
 18 38  1  0
 18 39  1  0
 20 40  1  0
 20 41  1  0
 21 42  1  0
 21 43  1  0
 22 44  1  0
 22 45  1  0
 23 46  1  0
 23 47  1  0
M  CHG  1  15   1
M  END
>  <_SMILES>  (7) 
Clc1ccccc1-c1nnn([C@H]2CC[N@@H+](C3CCOCC3)CC2)n1

$$$$

     RDKit          3D

 47 50  0  0  0  0  0  0  0  0999 V2000
    4.2146   -1.6078   -2.5720 Cl  0  0  0  0  0  0  0  0  0  0  0  0
    5.4426   -1.0820   -1.4688 C   0  0  0  0  0  0  0  0  0  0  0  0
    6.7710   -1.2630   -1.8770 C   0  0  0  0  0  0  0  0  0  0  0  0
    7.8245   -0.9164   -1.0313 C   0  0  0  0  0  0  0  0  0  0  0  0
    7.5569   -0.3935    0.2299 C   0  0  0  0  0  0  0  0  0  0  0  0
    6.2350   -0.2099    0.6423 C   0  0  0  0  0  0  0  0  0  0  0  0
    5.1598   -0.5414   -0.2034 C   0  0  0  0  0  0  0  0  0  0  0  0
    3.8099   -0.3132    0.2845 C   0  0  0  0  0  0  0  0  0  0  0  0
    3.4476   -0.5422    1.5960 N   0  0  0  0  0  0  0  0  0  0  0  0
    2.1635   -0.2318    1.7024 N   0  0  0  0  0  0  0  0  0  0  0  0
    1.8234    0.1953    0.4813 N   0  0  0  0  0  0  0  0  0  0  0  0
    0.4527    0.5204    0.1344 C   0  0  1  0  0  0  0  0  0  0  0  0
   -0.3923   -0.7506    0.0260 C   0  0  0  0  0  0  0  0  0  0  0  0
   -1.8306   -0.4265   -0.3377 C   0  0  0  0  0  0  0  0  0  0  0  0
   -2.4088    0.5301    0.6772 N   0  0  2  0  0  0  0  0  0  0  0  0
   -3.9287    0.7995    0.5827 C   0  0  0  0  0  0  0  0  0  0  0  0
   -4.3699    1.3008   -0.7944 C   0  0  0  0  0  0  0  0  0  0  0  0
   -4.8772    0.1978   -1.7076 C   0  0  0  0  0  0  0  0  0  0  0  0
   -5.8240   -0.6019   -1.0166 O   0  0  0  0  0  0  0  0  0  0  0  0
   -5.2499   -1.3353    0.0538 C   0  0  0  0  0  0  0  0  0  0  0  0
   -4.7354   -0.3876    1.1244 C   0  0  0  0  0  0  0  0  0  0  0  0
   -1.6080    1.8230    0.7463 C   0  0  0  0  0  0  0  0  0  0  0  0
   -0.1695    1.5119    1.1203 C   0  0  0  0  0  0  0  0  0  0  0  0
    2.7902    0.1824   -0.4401 N   0  0  0  0  0  0  0  0  0  0  0  0
    6.9932   -1.6842   -2.8552 H   0  0  0  0  0  0  0  0  0  0  0  0
    8.8530   -1.0619   -1.3546 H   0  0  0  0  0  0  0  0  0  0  0  0
    8.3768   -0.1283    0.8942 H   0  0  0  0  0  0  0  0  0  0  0  0
    6.0502    0.2031    1.6334 H   0  0  0  0  0  0  0  0  0  0  0  0
    0.4931    1.0000   -0.8537 H   0  0  0  0  0  0  0  0  0  0  0  0
   -0.3717   -1.3052    0.9737 H   0  0  0  0  0  0  0  0  0  0  0  0
    0.0312   -1.4208   -0.7324 H   0  0  0  0  0  0  0  0  0  0  0  0
   -1.8951    0.0457   -1.3227 H   0  0  0  0  0  0  0  0  0  0  0  0
   -2.4269   -1.3390   -0.3190 H   0  0  0  0  0  0  0  0  0  0  0  0
   -2.2883    0.0878    1.6016 H   0  0  0  0  0  0  0  0  0  0  0  0
   -4.0778    1.6183    1.2988 H   0  0  0  0  0  0  0  0  0  0  0  0
   -5.2123    1.9855   -0.6236 H   0  0  0  0  0  0  0  0  0  0  0  0
   -3.5986    1.8893   -1.2995 H   0  0  0  0  0  0  0  0  0  0  0  0
   -4.0675   -0.4319   -2.0898 H   0  0  0  0  0  0  0  0  0  0  0  0
   -5.3788    0.6390   -2.5751 H   0  0  0  0  0  0  0  0  0  0  0  0
   -6.0290   -1.9786    0.4761 H   0  0  0  0  0  0  0  0  0  0  0  0
   -4.4676   -1.9970   -0.3290 H   0  0  0  0  0  0  0  0  0  0  0  0
   -5.6199    0.0368    1.6198 H   0  0  0  0  0  0  0  0  0  0  0  0
   -4.1914   -0.9410    1.8978 H   0  0  0  0  0  0  0  0  0  0  0  0
   -1.6744    2.3141   -0.2295 H   0  0  0  0  0  0  0  0  0  0  0  0
   -2.0668    2.4588    1.5102 H   0  0  0  0  0  0  0  0  0  0  0  0
   -0.1421    1.1103    2.1418 H   0  0  0  0  0  0  0  0  0  0  0  0
    0.4133    2.4410    1.1368 H   0  0  0  0  0  0  0  0  0  0  0  0
  1  2  1  0
  2  3  2  0
  3  4  1  0
  4  5  2  0
  5  6  1  0
  6  7  2  0
  7  8  1  0
  8  9  1  0
  9 10  2  0
 10 11  1  0
 11 12  1  0
 12 13  1  0
 13 14  1  0
 14 15  1  0
 15 16  1  0
 16 17  1  0
 17 18  1  0
 18 19  1  0
 19 20  1  0
 20 21  1  0
 15 22  1  0
 22 23  1  0
 11 24  1  0
  7  2  1  0
 24  8  2  0
 23 12  1  0
 21 16  1  0
  3 25  1  0
  4 26  1  0
  5 27  1  0
  6 28  1  0
 12 29  1  6
 13 30  1  0
 13 31  1  0
 14 32  1  0
 14 33  1  0
 15 34  1  1
 16 35  1  0
 17 36  1  0
 17 37  1  0
 18 38  1  0
 18 39  1  0
 20 40  1  0
 20 41  1  0
 21 42  1  0
 21 43  1  0
 22 44  1  0
 22 45  1  0
 23 46  1  0
 23 47  1  0
M  CHG  1  15   1
M  END
>  <_SMILES>  (8) 
Clc1ccccc1-c1nnn([C@H]2CC[N@H+](C3CCOCC3)CC2)n1

$$$$

     RDKit          3D

 72 76  0  0  0  0  0  0  0  0999 V2000
   -0.6410    2.0478   -3.1064 N   0  0  0  0  0  0  0  0  0  0  0  0
   -1.9431    1.7826   -2.8155 C   0  0  0  0  0  0  0  0  0  0  0  0
   -2.8059    2.4663   -3.3579 O   0  0  0  0  0  0  0  0  0  0  0  0
   -2.2388    0.6994   -1.8812 C   0  0  0  0  0  0  0  0  0  0  0  0
   -1.3935   -0.1955   -1.1495 C   0  0  0  0  0  0  0  0  0  0  0  0
    0.0745   -0.3090   -1.1124 C   0  0  0  0  0  0  0  0  0  0  0  0
    0.8539    0.3399   -1.8060 O   0  0  0  0  0  0  0  0  0  0  0  0
    0.5287   -1.2490   -0.2012 N   0  0  0  0  0  0  0  0  0  0  0  0
    1.8972   -1.7483   -0.2175 C   0  0  2  0  0  0  0  0  0  0  0  0
    2.0855   -2.7993    0.8817 C   0  0  0  0  0  0  0  0  0  0  0  0
    2.4639   -2.1295    2.1923 C   0  0  0  0  0  0  0  0  0  0  0  0
    3.7953   -1.3880    2.1115 C   0  0  0  0  0  0  0  0  0  0  0  0
    4.1745   -1.0189    0.6802 N   0  0  2  0  0  0  0  0  0  0  0  0
    5.3130    0.0235    0.6374 C   0  0  0  0  0  0  0  0  0  0  0  0
    6.4971   -0.4723    1.4972 C   0  0  0  0  0  0  0  0  0  0  0  0
    7.8463    0.1498    1.1259 C   0  0  0  0  0  0  0  0  0  0  0  0
    7.6852    1.4912    0.4326 C   0  0  0  0  0  0  0  0  0  0  0  0
    6.8833    1.3520   -0.8586 C   0  0  0  0  0  0  0  0  0  0  0  0
    5.7910    0.2761   -0.7982 C   0  0  0  0  0  0  0  0  0  0  0  0
    2.9356   -0.5945   -0.0998 C   0  0  0  0  0  0  0  0  0  0  0  0
   -2.1088   -1.0576   -0.3954 N   0  0  0  0  0  0  0  0  0  0  0  0
   -3.3942   -0.7065   -0.6111 N   0  0  0  0  0  0  0  0  0  0  0  0
   -4.4578   -1.4603    0.0550 C   0  0  0  0  0  0  0  0  0  0  0  0
   -5.0045   -0.7353    1.2597 C   0  0  0  0  0  0  0  0  0  0  0  0
   -6.3495   -0.3375    1.2960 C   0  0  0  0  0  0  0  0  0  0  0  0
   -6.8588    0.3412    2.4038 C   0  0  0  0  0  0  0  0  0  0  0  0
   -6.0350    0.6190    3.4919 C   0  0  0  0  0  0  0  0  0  0  0  0
   -4.7011    0.2173    3.4755 C   0  0  0  0  0  0  0  0  0  0  0  0
   -4.1881   -0.4581    2.3671 C   0  0  0  0  0  0  0  0  0  0  0  0
   -3.5314    0.3278   -1.5042 C   0  0  0  0  0  0  0  0  0  0  0  0
   -4.8284    0.8762   -1.8938 C   0  0  0  0  0  0  0  0  0  0  0  0
   -5.5162    0.3506   -2.9944 C   0  0  0  0  0  0  0  0  0  0  0  0
   -6.7649    0.8623   -3.3535 C   0  0  0  0  0  0  0  0  0  0  0  0
   -7.3309    1.9015   -2.6149 C   0  0  0  0  0  0  0  0  0  0  0  0
   -6.6424    2.4301   -1.5245 C   0  0  0  0  0  0  0  0  0  0  0  0
   -7.3467    3.7025   -0.6049 Cl  0  0  0  0  0  0  0  0  0  0  0  0
   -5.3937    1.9272   -1.1632 C   0  0  0  0  0  0  0  0  0  0  0  0
   -0.4696    2.7691   -3.7939 H   0  0  0  0  0  0  0  0  0  0  0  0
    0.1457    1.4970   -2.7835 H   0  0  0  0  0  0  0  0  0  0  0  0
   -0.2361   -1.8317    0.1497 H   0  0  0  0  0  0  0  0  0  0  0  0
    2.0263   -2.2406   -1.1898 H   0  0  0  0  0  0  0  0  0  0  0  0
    2.8819   -3.4968    0.5923 H   0  0  0  0  0  0  0  0  0  0  0  0
    1.1780   -3.4003    1.0135 H   0  0  0  0  0  0  0  0  0  0  0  0
    2.5139   -2.8743    2.9951 H   0  0  0  0  0  0  0  0  0  0  0  0
    1.6750   -1.4245    2.4842 H   0  0  0  0  0  0  0  0  0  0  0  0
    4.5954   -2.0321    2.4891 H   0  0  0  0  0  0  0  0  0  0  0  0
    3.7590   -0.4662    2.7024 H   0  0  0  0  0  0  0  0  0  0  0  0
    4.5444   -1.8650    0.2263 H   0  0  0  0  0  0  0  0  0  0  0  0
    4.8952    0.9449    1.0626 H   0  0  0  0  0  0  0  0  0  0  0  0
    6.2876   -0.2443    2.5499 H   0  0  0  0  0  0  0  0  0  0  0  0
    6.6037   -1.5624    1.4301 H   0  0  0  0  0  0  0  0  0  0  0  0
    8.3879   -0.5346    0.4604 H   0  0  0  0  0  0  0  0  0  0  0  0
    8.4622    0.2578    2.0260 H   0  0  0  0  0  0  0  0  0  0  0  0
    8.6660    1.9275    0.2123 H   0  0  0  0  0  0  0  0  0  0  0  0
    7.1762    2.1904    1.1079 H   0  0  0  0  0  0  0  0  0  0  0  0
    6.4326    2.3236   -1.0955 H   0  0  0  0  0  0  0  0  0  0  0  0
    7.5576    1.1187   -1.6917 H   0  0  0  0  0  0  0  0  0  0  0  0
    6.1803   -0.6586   -1.2224 H   0  0  0  0  0  0  0  0  0  0  0  0
    4.9848    0.6041   -1.4590 H   0  0  0  0  0  0  0  0  0  0  0  0
    3.2448   -0.3113   -1.1065 H   0  0  0  0  0  0  0  0  0  0  0  0
    2.5301    0.2849    0.4144 H   0  0  0  0  0  0  0  0  0  0  0  0
   -5.2337   -1.6628   -0.6913 H   0  0  0  0  0  0  0  0  0  0  0  0
   -4.0449   -2.4299    0.3587 H   0  0  0  0  0  0  0  0  0  0  0  0
   -7.0127   -0.5393    0.4566 H   0  0  0  0  0  0  0  0  0  0  0  0
   -7.8997    0.6566    2.4166 H   0  0  0  0  0  0  0  0  0  0  0  0
   -6.4349    1.1485    4.3533 H   0  0  0  0  0  0  0  0  0  0  0  0
   -4.0622    0.4324    4.3280 H   0  0  0  0  0  0  0  0  0  0  0  0
   -3.1441   -0.7636    2.3716 H   0  0  0  0  0  0  0  0  0  0  0  0
   -5.0800   -0.4499   -3.5876 H   0  0  0  0  0  0  0  0  0  0  0  0
   -7.2924    0.4585   -4.2143 H   0  0  0  0  0  0  0  0  0  0  0  0
   -8.3017    2.2998   -2.8986 H   0  0  0  0  0  0  0  0  0  0  0  0
   -4.8674    2.3498   -0.3110 H   0  0  0  0  0  0  0  0  0  0  0  0
  1  2  1  0
  2  3  2  0
  2  4  1  0
  4  5  1  0
  5  6  1  0
  6  7  2  0
  6  8  1  0
  8  9  1  0
  9 10  1  0
 10 11  1  0
 11 12  1  0
 12 13  1  0
 13 14  1  0
 14 15  1  0
 15 16  1  0
 16 17  1  0
 17 18  1  0
 18 19  1  0
 13 20  1  0
  5 21  2  0
 21 22  1  0
 22 23  1  0
 23 24  1  0
 24 25  2  0
 25 26  1  0
 26 27  2  0
 27 28  1  0
 28 29  2  0
 22 30  1  0
 30 31  1  0
 31 32  2  0
 32 33  1  0
 33 34  2  0
 34 35  1  0
 35 36  1  0
 35 37  2  0
 30  4  2  0
 37 31  1  0
 20  9  1  0
 29 24  1  0
 19 14  1  0
  1 38  1  0
  1 39  1  0
  8 40  1  0
  9 41  1  6
 10 42  1  0
 10 43  1  0
 11 44  1  0
 11 45  1  0
 12 46  1  0
 12 47  1  0
 13 48  1  6
 14 49  1  0
 15 50  1  0
 15 51  1  0
 16 52  1  0
 16 53  1  0
 17 54  1  0
 17 55  1  0
 18 56  1  0
 18 57  1  0
 19 58  1  0
 19 59  1  0
 20 60  1  0
 20 61  1  0
 23 62  1  0
 23 63  1  0
 25 64  1  0
 26 65  1  0
 27 66  1  0
 28 67  1  0
 29 68  1  0
 32 69  1  0
 33 70  1  0
 34 71  1  0
 37 72  1  0
M  CHG  1  13   1
M  END
>  <_SMILES>  (9) 
NC(=O)c1c(C(=O)N[C@@H]2CCC[N@H+](C3CCCCC3)C2)nn(Cc2ccccc2)c1-c1cccc(Cl)c1

$$$$

     RDKit          3D

 72 76  0  0  0  0  0  0  0  0999 V2000
   -0.9964   -1.7350   -3.5964 N   0  0  0  0  0  0  0  0  0  0  0  0
   -2.2236   -1.3281   -3.1753 C   0  0  0  0  0  0  0  0  0  0  0  0
   -3.1880   -1.5460   -3.9025 O   0  0  0  0  0  0  0  0  0  0  0  0
   -2.3254   -0.6537   -1.8833 C   0  0  0  0  0  0  0  0  0  0  0  0
   -1.3320   -0.1906   -0.9618 C   0  0  0  0  0  0  0  0  0  0  0  0
    0.1383   -0.2666   -1.0265 C   0  0  0  0  0  0  0  0  0  0  0  0
    0.7745   -0.8494   -1.8988 O   0  0  0  0  0  0  0  0  0  0  0  0
    0.7563    0.3789    0.0317 N   0  0  0  0  0  0  0  0  0  0  0  0
    2.1729    0.2254    0.3120 C   0  0  2  0  0  0  0  0  0  0  0  0
    2.4225   -1.0142    1.1862 C   0  0  0  0  0  0  0  0  0  0  0  0
    2.7335   -0.6257    2.6262 C   0  0  0  0  0  0  0  0  0  0  0  0
    3.9885    0.2400    2.7301 C   0  0  0  0  0  0  0  0  0  0  0  0
    4.0957    1.2619    1.5966 N   0  0  1  0  0  0  0  0  0  0  0  0
    5.2733    0.9865    0.6369 C   0  0  0  0  0  0  0  0  0  0  0  0
    5.2175    1.9013   -0.5978 C   0  0  0  0  0  0  0  0  0  0  0  0
    6.4408    1.7218   -1.4968 C   0  0  0  0  0  0  0  0  0  0  0  0
    7.7414    1.9339   -0.7337 C   0  0  0  0  0  0  0  0  0  0  0  0
    7.8115    1.0370    0.4952 C   0  0  0  0  0  0  0  0  0  0  0  0
    6.5937    1.2252    1.3975 C   0  0  0  0  0  0  0  0  0  0  0  0
    2.7420    1.5051    0.9533 C   0  0  0  0  0  0  0  0  0  0  0  0
   -1.8861    0.4023    0.1198 N   0  0  0  0  0  0  0  0  0  0  0  0
   -3.2166    0.2978   -0.0881 N   0  0  0  0  0  0  0  0  0  0  0  0
   -4.1367    0.8610    0.9015 C   0  0  0  0  0  0  0  0  0  0  0  0
   -4.7398   -0.1959    1.7932 C   0  0  0  0  0  0  0  0  0  0  0  0
   -3.9314   -1.0034    2.6083 C   0  0  0  0  0  0  0  0  0  0  0  0
   -4.5001   -1.9815    3.4254 C   0  0  0  0  0  0  0  0  0  0  0  0
   -5.8816   -2.1600    3.4421 C   0  0  0  0  0  0  0  0  0  0  0  0
   -6.6965   -1.3580    2.6468 C   0  0  0  0  0  0  0  0  0  0  0  0
   -6.1308   -0.3771    1.8313 C   0  0  0  0  0  0  0  0  0  0  0  0
   -3.5356   -0.3086   -1.2782 C   0  0  0  0  0  0  0  0  0  0  0  0
   -4.9124   -0.5313   -1.7139 C   0  0  0  0  0  0  0  0  0  0  0  0
   -5.5706    0.4270   -2.4943 C   0  0  0  0  0  0  0  0  0  0  0  0
   -6.8936    0.2226   -2.8920 C   0  0  0  0  0  0  0  0  0  0  0  0
   -7.5641   -0.9399   -2.5115 C   0  0  0  0  0  0  0  0  0  0  0  0
   -6.9060   -1.8976   -1.7419 C   0  0  0  0  0  0  0  0  0  0  0  0
   -7.7375   -3.3250   -1.2605 Cl  0  0  0  0  0  0  0  0  0  0  0  0
   -5.5839   -1.7026   -1.3461 C   0  0  0  0  0  0  0  0  0  0  0  0
   -0.1285   -1.5739   -3.0964 H   0  0  0  0  0  0  0  0  0  0  0  0
   -0.9477   -2.1879   -4.4986 H   0  0  0  0  0  0  0  0  0  0  0  0
    0.0874    0.6768    0.7454 H   0  0  0  0  0  0  0  0  0  0  0  0
    2.6777    0.0593   -0.6472 H   0  0  0  0  0  0  0  0  0  0  0  0
    1.5687   -1.7017    1.1621 H   0  0  0  0  0  0  0  0  0  0  0  0
    3.2776   -1.5721    0.7834 H   0  0  0  0  0  0  0  0  0  0  0  0
    1.8763   -0.0950    3.0592 H   0  0  0  0  0  0  0  0  0  0  0  0
    2.8701   -1.5278    3.2338 H   0  0  0  0  0  0  0  0  0  0  0  0
    4.8732   -0.4012    2.7034 H   0  0  0  0  0  0  0  0  0  0  0  0
    3.9959    0.8061    3.6673 H   0  0  0  0  0  0  0  0  0  0  0  0
    4.3301    2.1572    2.0478 H   0  0  0  0  0  0  0  0  0  0  0  0
    5.1890   -0.0620    0.3280 H   0  0  0  0  0  0  0  0  0  0  0  0
    4.3329    1.6846   -1.2053 H   0  0  0  0  0  0  0  0  0  0  0  0
    5.1508    2.9515   -0.2860 H   0  0  0  0  0  0  0  0  0  0  0  0
    6.3871    2.4260   -2.3348 H   0  0  0  0  0  0  0  0  0  0  0  0
    6.4299    0.7127   -1.9272 H   0  0  0  0  0  0  0  0  0  0  0  0
    7.8186    2.9840   -0.4261 H   0  0  0  0  0  0  0  0  0  0  0  0
    8.5940    1.7294   -1.3908 H   0  0  0  0  0  0  0  0  0  0  0  0
    8.7248    1.2578    1.0592 H   0  0  0  0  0  0  0  0  0  0  0  0
    7.8748   -0.0123    0.1818 H   0  0  0  0  0  0  0  0  0  0  0  0
    6.6953    0.5447    2.2484 H   0  0  0  0  0  0  0  0  0  0  0  0
    6.6080    2.2433    1.8084 H   0  0  0  0  0  0  0  0  0  0  0  0
    2.8261    2.3292    0.2387 H   0  0  0  0  0  0  0  0  0  0  0  0
    2.0883    1.8729    1.7552 H   0  0  0  0  0  0  0  0  0  0  0  0
   -3.5786    1.5846    1.5079 H   0  0  0  0  0  0  0  0  0  0  0  0
   -4.9009    1.4231    0.3534 H   0  0  0  0  0  0  0  0  0  0  0  0
   -2.8507   -0.8812    2.6067 H   0  0  0  0  0  0  0  0  0  0  0  0
   -3.8676   -2.6088    4.0482 H   0  0  0  0  0  0  0  0  0  0  0  0
   -6.3253   -2.9255    4.0742 H   0  0  0  0  0  0  0  0  0  0  0  0
   -7.7747   -1.5004    2.6579 H   0  0  0  0  0  0  0  0  0  0  0  0
   -6.7889    0.2323    1.2143 H   0  0  0  0  0  0  0  0  0  0  0  0
   -5.0541    1.3299   -2.8117 H   0  0  0  0  0  0  0  0  0  0  0  0
   -7.3982    0.9635   -3.5073 H   0  0  0  0  0  0  0  0  0  0  0  0
   -8.5927   -1.0978   -2.8254 H   0  0  0  0  0  0  0  0  0  0  0  0
   -5.0829   -2.4586   -0.7466 H   0  0  0  0  0  0  0  0  0  0  0  0
  1  2  1  0
  2  3  2  0
  2  4  1  0
  4  5  1  0
  5  6  1  0
  6  7  2  0
  6  8  1  0
  8  9  1  0
  9 10  1  0
 10 11  1  0
 11 12  1  0
 12 13  1  0
 13 14  1  0
 14 15  1  0
 15 16  1  0
 16 17  1  0
 17 18  1  0
 18 19  1  0
 13 20  1  0
  5 21  2  0
 21 22  1  0
 22 23  1  0
 23 24  1  0
 24 25  2  0
 25 26  1  0
 26 27  2  0
 27 28  1  0
 28 29  2  0
 22 30  1  0
 30 31  1  0
 31 32  2  0
 32 33  1  0
 33 34  2  0
 34 35  1  0
 35 36  1  0
 35 37  2  0
 30  4  2  0
 37 31  1  0
 20  9  1  0
 29 24  1  0
 19 14  1  0
  1 38  1  0
  1 39  1  0
  8 40  1  0
  9 41  1  6
 10 42  1  0
 10 43  1  0
 11 44  1  0
 11 45  1  0
 12 46  1  0
 12 47  1  0
 13 48  1  1
 14 49  1  0
 15 50  1  0
 15 51  1  0
 16 52  1  0
 16 53  1  0
 17 54  1  0
 17 55  1  0
 18 56  1  0
 18 57  1  0
 19 58  1  0
 19 59  1  0
 20 60  1  0
 20 61  1  0
 23 62  1  0
 23 63  1  0
 25 64  1  0
 26 65  1  0
 27 66  1  0
 28 67  1  0
 29 68  1  0
 32 69  1  0
 33 70  1  0
 34 71  1  0
 37 72  1  0
M  CHG  1  13   1
M  END
>  <_SMILES>  (10) 
NC(=O)c1c(C(=O)N[C@@H]2CCC[N@@H+](C3CCCCC3)C2)nn(Cc2ccccc2)c1-c1cccc(Cl)c1

$$$$

     RDKit          3D

 66 71  0  0  0  0  0  0  0  0999 V2000
   -0.0565   -0.8970    2.5028 C   0  0  0  0  0  0  0  0  0  0  0  0
   -0.9145   -0.5846    1.3300 C   0  0  0  0  0  0  0  0  0  0  0  0
   -0.5132   -0.4492   -0.0371 C   0  0  0  0  0  0  0  0  0  0  0  0
    0.8472   -0.5334   -0.6073 C   0  0  0  0  0  0  0  0  0  0  0  0
    1.0927   -1.1009   -1.6668 O   0  0  0  0  0  0  0  0  0  0  0  0
    1.8075    0.1144    0.1536 N   0  0  0  0  0  0  0  0  0  0  0  0
    3.2086    0.2798   -0.2398 C   0  0  2  0  0  0  0  0  0  0  0  0
    3.9459    1.0317    0.9021 C   0  0  0  0  0  0  0  0  0  0  0  0
    5.4271    1.2488    0.5549 C   0  0  1  0  0  0  0  0  0  0  0  0
    6.0997   -0.1160    0.3428 C   0  0  0  0  0  0  0  0  0  0  0  0
    5.4028   -0.8710   -0.7994 C   0  0  2  0  0  0  0  0  0  0  0  0
    5.4973   -0.0395   -2.0902 C   0  0  0  0  0  0  0  0  0  0  0  0
    4.8266    1.3300   -1.8887 C   0  0  2  0  0  0  0  0  0  0  0  0
    5.5261    2.0722   -0.7389 C   0  0  0  0  0  0  0  0  0  0  0  0
    3.3440    1.1214   -1.5322 C   0  0  0  0  0  0  0  0  0  0  0  0
    3.9209   -1.0821   -0.4411 C   0  0  0  0  0  0  0  0  0  0  0  0
   -1.5750   -0.2113   -0.8221 N   0  0  0  0  0  0  0  0  0  0  0  0
   -2.6317   -0.1831    0.0068 N   0  0  0  0  0  0  0  0  0  0  0  0
   -3.9736    0.0478   -0.5357 C   0  0  0  0  0  0  0  0  0  0  0  0
   -4.5527   -1.2134   -1.1960 C   0  0  0  0  0  0  0  0  0  0  0  0
   -4.0744   -1.4282   -2.6300 C   0  0  0  0  0  0  0  0  0  0  0  0
   -4.3044   -0.1907   -3.4891 C   0  0  0  0  0  0  0  0  0  0  0  0
   -3.6365    1.0424   -2.8929 C   0  0  0  0  0  0  0  0  0  0  0  0
   -4.0656    1.2866   -1.4462 C   0  0  0  0  0  0  0  0  0  0  0  0
   -2.2890   -0.3963    1.3239 C   0  0  0  0  0  0  0  0  0  0  0  0
   -3.2368   -0.4336    2.4304 C   0  0  0  0  0  0  0  0  0  0  0  0
   -3.4359    0.7013    3.2238 C   0  0  0  0  0  0  0  0  0  0  0  0
   -4.3455    0.6665    4.2821 C   0  0  0  0  0  0  0  0  0  0  0  0
   -5.0557   -0.5025    4.5536 C   0  0  0  0  0  0  0  0  0  0  0  0
   -4.8562   -1.6387    3.7702 C   0  0  0  0  0  0  0  0  0  0  0  0
   -3.9473   -1.6058    2.7114 C   0  0  0  0  0  0  0  0  0  0  0  0
    0.3742    0.0217    2.9130 H   0  0  0  0  0  0  0  0  0  0  0  0
    0.7600   -1.5710    2.2248 H   0  0  0  0  0  0  0  0  0  0  0  0
   -0.6266   -1.3897    3.2968 H   0  0  0  0  0  0  0  0  0  0  0  0
    1.4452    0.7541    0.8480 H   0  0  0  0  0  0  0  0  0  0  0  0
    3.4657    2.0022    1.0866 H   0  0  0  0  0  0  0  0  0  0  0  0
    3.8631    0.4669    1.8404 H   0  0  0  0  0  0  0  0  0  0  0  0
    5.9245    1.7830    1.3721 H   0  0  0  0  0  0  0  0  0  0  0  0
    7.1623    0.0219    0.1079 H   0  0  0  0  0  0  0  0  0  0  0  0
    6.0517   -0.7058    1.2664 H   0  0  0  0  0  0  0  0  0  0  0  0
    5.8876   -1.8422   -0.9492 H   0  0  0  0  0  0  0  0  0  0  0  0
    6.5491    0.0972   -2.3701 H   0  0  0  0  0  0  0  0  0  0  0  0
    5.0150   -0.5750   -2.9172 H   0  0  0  0  0  0  0  0  0  0  0  0
    4.9048    1.9188   -2.8094 H   0  0  0  0  0  0  0  0  0  0  0  0
    5.0654    3.0570   -0.5931 H   0  0  0  0  0  0  0  0  0  0  0  0
    6.5790    2.2477   -0.9917 H   0  0  0  0  0  0  0  0  0  0  0  0
    2.8387    0.6310   -2.3728 H   0  0  0  0  0  0  0  0  0  0  0  0
    2.8507    2.0937   -1.4029 H   0  0  0  0  0  0  0  0  0  0  0  0
    3.8389   -1.6888    0.4703 H   0  0  0  0  0  0  0  0  0  0  0  0
    3.4455   -1.6631   -1.2393 H   0  0  0  0  0  0  0  0  0  0  0  0
   -4.6012    0.2708    0.3355 H   0  0  0  0  0  0  0  0  0  0  0  0
   -4.3252   -2.1044   -0.5985 H   0  0  0  0  0  0  0  0  0  0  0  0
   -5.6468   -1.1214   -1.2124 H   0  0  0  0  0  0  0  0  0  0  0  0
   -3.0109   -1.6924   -2.6376 H   0  0  0  0  0  0  0  0  0  0  0  0
   -4.6100   -2.2790   -3.0668 H   0  0  0  0  0  0  0  0  0  0  0  0
   -3.9171   -0.3663   -4.4991 H   0  0  0  0  0  0  0  0  0  0  0  0
   -5.3818   -0.0101   -3.5885 H   0  0  0  0  0  0  0  0  0  0  0  0
   -2.5483    0.9343   -2.9534 H   0  0  0  0  0  0  0  0  0  0  0  0
   -3.8899    1.9212   -3.4976 H   0  0  0  0  0  0  0  0  0  0  0  0
   -3.4862    2.1180   -1.0264 H   0  0  0  0  0  0  0  0  0  0  0  0
   -5.1130    1.6168   -1.4616 H   0  0  0  0  0  0  0  0  0  0  0  0
   -2.8859    1.6170    3.0204 H   0  0  0  0  0  0  0  0  0  0  0  0
   -4.4992    1.5507    4.8954 H   0  0  0  0  0  0  0  0  0  0  0  0
   -5.7629   -0.5294    5.3790 H   0  0  0  0  0  0  0  0  0  0  0  0
   -5.4058   -2.5515    3.9855 H   0  0  0  0  0  0  0  0  0  0  0  0
   -3.7928   -2.4993    2.1105 H   0  0  0  0  0  0  0  0  0  0  0  0
  1  2  1  0
  2  3  1  0
  3  4  1  0
  4  5  2  0
  4  6  1  0
  7  6  1  1
  7  8  1  0
  8  9  1  0
  9 10  1  0
 10 11  1  0
 11 12  1  0
 12 13  1  0
 13 14  1  0
 13 15  1  0
 11 16  1  0
  3 17  2  0
 17 18  1  0
 18 19  1  0
 19 20  1  0
 20 21  1  0
 21 22  1  0
 22 23  1  0
 23 24  1  0
 18 25  1  0
 25 26  1  0
 26 27  2  0
 27 28  1  0
 28 29  2  0
 29 30  1  0
 30 31  2  0
 25  2  2  0
 31 26  1  0
 15  7  1  0
 24 19  1  0
 16  7  1  0
 14  9  1  0
  1 32  1  0
  1 33  1  0
  1 34  1  0
  6 35  1  0
  8 36  1  0
  8 37  1  0
  9 38  1  1
 10 39  1  0
 10 40  1  0
 11 41  1  6
 12 42  1  0
 12 43  1  0
 13 44  1  6
 14 45  1  0
 14 46  1  0
 15 47  1  0
 15 48  1  0
 16 49  1  0
 16 50  1  0
 19 51  1  0
 20 52  1  0
 20 53  1  0
 21 54  1  0
 21 55  1  0
 22 56  1  0
 22 57  1  0
 23 58  1  0
 23 59  1  0
 24 60  1  0
 24 61  1  0
 27 62  1  0
 28 63  1  0
 29 64  1  0
 30 65  1  0
 31 66  1  0
M  END
>  <_SMILES>  (11) 
Cc1c(C(=O)N[C@]23C[C@H]4C[C@H](C[C@H](C4)C2)C3)nn(C2CCCCC2)c1-c1ccccc1

$$$$

     RDKit          3D

 60 65  0  0  0  0  0  0  0  0999 V2000
   -0.8405   -2.3070   -0.0352 C   0  0  0  0  0  0  0  0  0  0  0  0
   -1.3640   -1.0375   -0.6041 C   0  0  0  0  0  0  0  0  0  0  0  0
   -0.6111    0.0824   -1.0870 C   0  0  0  0  0  0  0  0  0  0  0  0
    0.8548    0.2680   -1.0890 C   0  0  0  0  0  0  0  0  0  0  0  0
    1.4639    0.7605   -2.0331 O   0  0  0  0  0  0  0  0  0  0  0  0
    1.4654   -0.1406    0.0861 N   0  0  0  0  0  0  0  0  0  0  0  0
    2.8872    0.0358    0.3901 C   0  0  2  0  0  0  0  0  0  0  0  0
    3.1634   -0.5842    1.7874 C   0  0  0  0  0  0  0  0  0  0  0  0
    4.6414   -0.4293    2.1787 C   0  0  1  0  0  0  0  0  0  0  0  0
    5.5156   -1.1429    1.1363 C   0  0  0  0  0  0  0  0  0  0  0  0
    5.2783   -0.5312   -0.2529 C   0  0  2  0  0  0  0  0  0  0  0  0
    5.6317    0.9655   -0.2162 C   0  0  0  0  0  0  0  0  0  0  0  0
    4.7617    1.6901    0.8251 C   0  0  2  0  0  0  0  0  0  0  0  0
    5.0010    1.0646    2.2085 C   0  0  0  0  0  0  0  0  0  0  0  0
    3.2787    1.5327    0.4451 C   0  0  0  0  0  0  0  0  0  0  0  0
    3.7956   -0.6916   -0.6337 C   0  0  0  0  0  0  0  0  0  0  0  0
   -1.4274    1.0325   -1.5710 N   0  0  0  0  0  0  0  0  0  0  0  0
   -2.6696    0.5470   -1.3924 N   0  0  0  0  0  0  0  0  0  0  0  0
   -3.8067    1.3567   -1.8215 C   0  0  0  0  0  0  0  0  0  0  0  0
   -4.3758    2.1746   -0.6980 C   0  0  0  0  0  0  0  0  0  0  0  0
   -5.0970    3.4666   -0.9922 C   0  0  0  0  0  0  0  0  0  0  0  0
   -3.7553    3.4941   -0.3136 C   0  0  0  0  0  0  0  0  0  0  0  0
   -2.6933   -0.6977   -0.8105 C   0  0  0  0  0  0  0  0  0  0  0  0
   -3.9076   -1.4453   -0.5112 C   0  0  0  0  0  0  0  0  0  0  0  0
   -4.4341   -1.4405    0.7849 C   0  0  0  0  0  0  0  0  0  0  0  0
   -5.5966   -2.1575    1.0735 C   0  0  0  0  0  0  0  0  0  0  0  0
   -6.2334   -2.8869    0.0701 C   0  0  0  0  0  0  0  0  0  0  0  0
   -5.7079   -2.9033   -1.2214 C   0  0  0  0  0  0  0  0  0  0  0  0
   -4.5460   -2.1863   -1.5118 C   0  0  0  0  0  0  0  0  0  0  0  0
   -0.6635   -2.1966    1.0392 H   0  0  0  0  0  0  0  0  0  0  0  0
    0.0998   -2.5953   -0.5157 H   0  0  0  0  0  0  0  0  0  0  0  0
   -1.5451   -3.1319   -0.1813 H   0  0  0  0  0  0  0  0  0  0  0  0
    0.8402   -0.2776    0.8691 H   0  0  0  0  0  0  0  0  0  0  0  0
    2.5303   -0.1036    2.5454 H   0  0  0  0  0  0  0  0  0  0  0  0
    2.8880   -1.6475    1.7892 H   0  0  0  0  0  0  0  0  0  0  0  0
    4.8108   -0.8701    3.1674 H   0  0  0  0  0  0  0  0  0  0  0  0
    6.5741   -1.0533    1.4099 H   0  0  0  0  0  0  0  0  0  0  0  0
    5.2807   -2.2143    1.1195 H   0  0  0  0  0  0  0  0  0  0  0  0
    5.9059   -1.0410   -0.9924 H   0  0  0  0  0  0  0  0  0  0  0  0
    5.4796    1.4110   -1.2069 H   0  0  0  0  0  0  0  0  0  0  0  0
    6.6931    1.0926    0.0303 H   0  0  0  0  0  0  0  0  0  0  0  0
    5.0246    2.7535    0.8506 H   0  0  0  0  0  0  0  0  0  0  0  0
    4.3956    1.5813    2.9634 H   0  0  0  0  0  0  0  0  0  0  0  0
    6.0506    1.1916    2.5007 H   0  0  0  0  0  0  0  0  0  0  0  0
    2.6487    2.0611    1.1727 H   0  0  0  0  0  0  0  0  0  0  0  0
    3.1028    2.0184   -0.5221 H   0  0  0  0  0  0  0  0  0  0  0  0
    3.6476   -0.2963   -1.6449 H   0  0  0  0  0  0  0  0  0  0  0  0
    3.5341   -1.7569   -0.6797 H   0  0  0  0  0  0  0  0  0  0  0  0
   -4.5680    0.6830   -2.2270 H   0  0  0  0  0  0  0  0  0  0  0  0
   -3.4610    1.9882   -2.6491 H   0  0  0  0  0  0  0  0  0  0  0  0
   -4.7772    1.5554    0.0962 H   0  0  0  0  0  0  0  0  0  0  0  0
   -5.1496    3.8177   -2.0167 H   0  0  0  0  0  0  0  0  0  0  0  0
   -5.9705    3.7081   -0.3968 H   0  0  0  0  0  0  0  0  0  0  0  0
   -2.8994    3.8455   -0.8808 H   0  0  0  0  0  0  0  0  0  0  0  0
   -3.7191    3.7493    0.7394 H   0  0  0  0  0  0  0  0  0  0  0  0
   -3.9436   -0.8764    1.5746 H   0  0  0  0  0  0  0  0  0  0  0  0
   -6.0042   -2.1486    2.0811 H   0  0  0  0  0  0  0  0  0  0  0  0
   -7.1377   -3.4466    0.2957 H   0  0  0  0  0  0  0  0  0  0  0  0
   -6.2007   -3.4775   -2.0019 H   0  0  0  0  0  0  0  0  0  0  0  0
   -4.1391   -2.2128   -2.5202 H   0  0  0  0  0  0  0  0  0  0  0  0
  1  2  1  0
  2  3  1  0
  3  4  1  0
  4  5  2  0
  4  6  1  0
  7  6  1  6
  7  8  1  0
  8  9  1  0
  9 10  1  0
 10 11  1  0
 11 12  1  0
 12 13  1  0
 13 14  1  0
 13 15  1  0
 11 16  1  0
  3 17  2  0
 17 18  1  0
 18 19  1  0
 19 20  1  0
 20 21  1  0
 21 22  1  0
 18 23  1  0
 23 24  1  0
 24 25  2  0
 25 26  1  0
 26 27  2  0
 27 28  1  0
 28 29  2  0
 23  2  2  0
 29 24  1  0
 15  7  1  0
 22 20  1  0
 16  7  1  0
 14  9  1  0
  1 30  1  0
  1 31  1  0
  1 32  1  0
  6 33  1  0
  8 34  1  0
  8 35  1  0
  9 36  1  1
 10 37  1  0
 10 38  1  0
 11 39  1  6
 12 40  1  0
 12 41  1  0
 13 42  1  1
 14 43  1  0
 14 44  1  0
 15 45  1  0
 15 46  1  0
 16 47  1  0
 16 48  1  0
 19 49  1  0
 19 50  1  0
 20 51  1  0
 21 52  1  0
 21 53  1  0
 22 54  1  0
 22 55  1  0
 25 56  1  0
 26 57  1  0
 27 58  1  0
 28 59  1  0
 29 60  1  0
M  END
>  <_SMILES>  (12) 
Cc1c(C(=O)N[C@]23C[C@H]4C[C@H](C[C@H](C4)C2)C3)nn(CC2CC2)c1-c1ccccc1

$$$$

     RDKit          3D

 60 65  0  0  0  0  0  0  0  0999 V2000
    1.2972   -2.1426   -2.4578 C   0  0  0  0  0  0  0  0  0  0  0  0
    1.5211   -1.4244   -1.1763 C   0  0  0  0  0  0  0  0  0  0  0  0
    0.5349   -0.7593   -0.3877 C   0  0  0  0  0  0  0  0  0  0  0  0
   -0.9125   -0.6374   -0.6601 C   0  0  0  0  0  0  0  0  0  0  0  0
   -1.4513   -1.1254   -1.6474 O   0  0  0  0  0  0  0  0  0  0  0  0
   -1.5739    0.0781    0.3148 N   0  0  0  0  0  0  0  0  0  0  0  0
   -3.0031    0.3673    0.3550 C   0  0  2  0  0  0  0  0  0  0  0  0
   -3.8455   -0.9304    0.4244 C   0  0  0  0  0  0  0  0  0  0  0  0
   -5.3454   -0.5977    0.5148 C   0  0  1  0  0  0  0  0  0  0  0  0
   -5.6062    0.2319    1.7820 C   0  0  0  0  0  0  0  0  0  0  0  0
   -4.7976    1.5377    1.7301 C   0  0  2  0  0  0  0  0  0  0  0  0
   -5.2158    2.3467    0.4923 C   0  0  0  0  0  0  0  0  0  0  0  0
   -4.9526    1.5293   -0.7823 C   0  0  2  0  0  0  0  0  0  0  0  0
   -5.7579    0.2202   -0.7209 C   0  0  0  0  0  0  0  0  0  0  0  0
   -3.4526    1.1973   -0.8730 C   0  0  0  0  0  0  0  0  0  0  0  0
   -3.3014    1.2004    1.6299 C   0  0  0  0  0  0  0  0  0  0  0  0
    1.0807   -0.2117    0.7181 N   0  0  0  0  0  0  0  0  0  0  0  0
    2.3969   -0.5102    0.6243 N   0  0  0  0  0  0  0  0  0  0  0  0
    3.2983   -0.0838    1.6945 C   0  0  0  0  0  0  0  0  0  0  0  0
    3.9840    1.2086    1.3611 C   0  0  0  0  0  0  0  0  0  0  0  0
    3.4375    2.3862    0.8841 C   0  0  0  0  0  0  0  0  0  0  0  0
    4.4161    3.4034    0.6942 C   0  0  0  0  0  0  0  0  0  0  0  0
    5.6766    2.9769    1.0452 C   0  0  0  0  0  0  0  0  0  0  0  0
    5.6756    1.3621    1.6041 S   0  0  0  0  0  0  0  0  0  0  0  0
    2.7135   -1.2505   -0.4908 C   0  0  0  0  0  0  0  0  0  0  0  0
    4.0566   -1.7152   -0.8111 C   0  0  0  0  0  0  0  0  0  0  0  0
    4.9658   -0.8642   -1.4480 C   0  0  0  0  0  0  0  0  0  0  0  0
    6.2547   -1.3095   -1.7455 C   0  0  0  0  0  0  0  0  0  0  0  0
    6.6375   -2.6088   -1.4150 C   0  0  0  0  0  0  0  0  0  0  0  0
    5.7320   -3.4654   -0.7899 C   0  0  0  0  0  0  0  0  0  0  0  0
    4.4431   -3.0208   -0.4899 C   0  0  0  0  0  0  0  0  0  0  0  0
    2.2288   -2.5417   -2.8704 H   0  0  0  0  0  0  0  0  0  0  0  0
    0.6111   -2.9826   -2.3095 H   0  0  0  0  0  0  0  0  0  0  0  0
    0.8667   -1.4675   -3.2043 H   0  0  0  0  0  0  0  0  0  0  0  0
   -0.9680    0.3947    1.0689 H   0  0  0  0  0  0  0  0  0  0  0  0
   -3.5431   -1.5308    1.2925 H   0  0  0  0  0  0  0  0  0  0  0  0
   -3.6707   -1.5576   -0.4579 H   0  0  0  0  0  0  0  0  0  0  0  0
   -5.9270   -1.5254    0.5549 H   0  0  0  0  0  0  0  0  0  0  0  0
   -6.6763    0.4570    1.8690 H   0  0  0  0  0  0  0  0  0  0  0  0
   -5.3290   -0.3460    2.6722 H   0  0  0  0  0  0  0  0  0  0  0  0
   -4.9848    2.1248    2.6361 H   0  0  0  0  0  0  0  0  0  0  0  0
   -6.2791    2.6081    0.5571 H   0  0  0  0  0  0  0  0  0  0  0  0
   -4.6577    3.2902    0.4546 H   0  0  0  0  0  0  0  0  0  0  0  0
   -5.2558    2.1088   -1.6614 H   0  0  0  0  0  0  0  0  0  0  0  0
   -5.5892   -0.3667   -1.6321 H   0  0  0  0  0  0  0  0  0  0  0  0
   -6.8311    0.4432   -0.6801 H   0  0  0  0  0  0  0  0  0  0  0  0
   -3.2634    0.6513   -1.8049 H   0  0  0  0  0  0  0  0  0  0  0  0
   -2.8679    2.1244   -0.9365 H   0  0  0  0  0  0  0  0  0  0  0  0
   -2.9864    0.6469    2.5247 H   0  0  0  0  0  0  0  0  0  0  0  0
   -2.7128    2.1276    1.6211 H   0  0  0  0  0  0  0  0  0  0  0  0
    2.6950    0.0366    2.6023 H   0  0  0  0  0  0  0  0  0  0  0  0
    4.0014   -0.9037    1.8764 H   0  0  0  0  0  0  0  0  0  0  0  0
    2.3807    2.5093    0.6721 H   0  0  0  0  0  0  0  0  0  0  0  0
    4.2048    4.3981    0.3212 H   0  0  0  0  0  0  0  0  0  0  0  0
    6.6004    3.5378    1.0053 H   0  0  0  0  0  0  0  0  0  0  0  0
    4.6768    0.1504   -1.7137 H   0  0  0  0  0  0  0  0  0  0  0  0
    6.9586   -0.6423   -2.2361 H   0  0  0  0  0  0  0  0  0  0  0  0
    7.6410   -2.9553   -1.6489 H   0  0  0  0  0  0  0  0  0  0  0  0
    6.0285   -4.4804   -0.5385 H   0  0  0  0  0  0  0  0  0  0  0  0
    3.7426   -3.6982   -0.0072 H   0  0  0  0  0  0  0  0  0  0  0  0
  1  2  1  0
  2  3  1  0
  3  4  1  0
  4  5  2  0
  4  6  1  0
  7  6  1  6
  7  8  1  0
  8  9  1  0
  9 10  1  0
 10 11  1  0
 11 12  1  0
 12 13  1  0
 13 14  1  0
 13 15  1  0
 11 16  1  0
  3 17  2  0
 17 18  1  0
 18 19  1  0
 19 20  1  0
 20 21  2  0
 21 22  1  0
 22 23  2  0
 23 24  1  0
 18 25  1  0
 25 26  1  0
 26 27  2  0
 27 28  1  0
 28 29  2  0
 29 30  1  0
 30 31  2  0
 25  2  2  0
 31 26  1  0
 15  7  1  0
 24 20  1  0
 16  7  1  0
 14  9  1  0
  1 32  1  0
  1 33  1  0
  1 34  1  0
  6 35  1  0
  8 36  1  0
  8 37  1  0
  9 38  1  1
 10 39  1  0
 10 40  1  0
 11 41  1  1
 12 42  1  0
 12 43  1  0
 13 44  1  6
 14 45  1  0
 14 46  1  0
 15 47  1  0
 15 48  1  0
 16 49  1  0
 16 50  1  0
 19 51  1  0
 19 52  1  0
 21 53  1  0
 22 54  1  0
 23 55  1  0
 27 56  1  0
 28 57  1  0
 29 58  1  0
 30 59  1  0
 31 60  1  0
M  END
>  <_SMILES>  (13) 
Cc1c(C(=O)N[C@]23C[C@H]4C[C@H](C[C@H](C4)C2)C3)nn(Cc2cccs2)c1-c1ccccc1

$$$$

     RDKit          3D

 48 52  0  0  0  0  0  0  0  0999 V2000
    3.3387   -0.3372    2.2704 C   0  0  0  0  0  0  0  0  0  0  0  0
    3.1561   -0.2644    0.7936 C   0  0  0  0  0  0  0  0  0  0  0  0
    1.9236   -0.1630    0.0831 C   0  0  0  0  0  0  0  0  0  0  0  0
    0.5456   -0.0839    0.6167 C   0  0  0  0  0  0  0  0  0  0  0  0
    0.2861   -0.0544    1.8143 O   0  0  0  0  0  0  0  0  0  0  0  0
   -0.4032   -0.0381   -0.3828 N   0  0  0  0  0  0  0  0  0  0  0  0
   -1.8459    0.0806   -0.2010 C   0  0  2  0  0  0  0  0  0  0  0  0
   -2.5191    0.0890   -1.5993 C   0  0  0  0  0  0  0  0  0  0  0  0
   -4.0459    0.2145   -1.4751 C   0  0  1  0  0  0  0  0  0  0  0  0
   -4.5852   -0.9752   -0.6657 C   0  0  0  0  0  0  0  0  0  0  0  0
   -3.9501   -0.9887    0.7336 C   0  0  2  0  0  0  0  0  0  0  0  0
   -4.2871    0.3266    1.4566 C   0  0  0  0  0  0  0  0  0  0  0  0
   -3.7503    1.5242    0.6544 C   0  0  2  0  0  0  0  0  0  0  0  0
   -4.3863    1.5232   -0.7447 C   0  0  0  0  0  0  0  0  0  0  0  0
   -2.2224    1.3991    0.5187 C   0  0  0  0  0  0  0  0  0  0  0  0
   -2.4223   -1.1146    0.5979 C   0  0  0  0  0  0  0  0  0  0  0  0
    2.1419   -0.1373   -1.2453 N   0  0  0  0  0  0  0  0  0  0  0  0
    3.4795   -0.1966   -1.3745 N   0  0  0  0  0  0  0  0  0  0  0  0
    4.0157   -0.1623   -2.7174 C   0  0  0  0  0  0  0  0  0  0  0  0
    4.1571   -0.2626   -0.1805 C   0  0  0  0  0  0  0  0  0  0  0  0
    5.5596   -0.3093    0.0298 C   0  0  0  0  0  0  0  0  0  0  0  0
    6.2437   -0.2779    1.1257 N   0  0  0  0  0  0  0  0  0  0  0  0
    7.5826   -0.3691    0.5328 C   0  0  0  0  0  0  0  0  0  0  0  0
    6.8285   -0.4254   -1.0802 S   0  0  0  0  0  0  0  0  0  0  0  0
    3.5930    0.6499    2.6689 H   0  0  0  0  0  0  0  0  0  0  0  0
    2.4394   -0.6924    2.7792 H   0  0  0  0  0  0  0  0  0  0  0  0
    4.1369   -1.0374    2.5348 H   0  0  0  0  0  0  0  0  0  0  0  0
   -0.0057   -0.0372   -1.3200 H   0  0  0  0  0  0  0  0  0  0  0  0
   -2.1278    0.9199   -2.2016 H   0  0  0  0  0  0  0  0  0  0  0  0
   -2.2664   -0.8298   -2.1454 H   0  0  0  0  0  0  0  0  0  0  0  0
   -4.4994    0.2191   -2.4725 H   0  0  0  0  0  0  0  0  0  0  0  0
   -5.6767   -0.9074   -0.5814 H   0  0  0  0  0  0  0  0  0  0  0  0
   -4.3639   -1.9147   -1.1869 H   0  0  0  0  0  0  0  0  0  0  0  0
   -4.3404   -1.8364    1.3078 H   0  0  0  0  0  0  0  0  0  0  0  0
   -5.3732    0.4169    1.5810 H   0  0  0  0  0  0  0  0  0  0  0  0
   -3.8507    0.3236    2.4629 H   0  0  0  0  0  0  0  0  0  0  0  0
   -3.9992    2.4573    1.1722 H   0  0  0  0  0  0  0  0  0  0  0  0
   -4.0220    2.3812   -1.3229 H   0  0  0  0  0  0  0  0  0  0  0  0
   -5.4745    1.6340   -0.6619 H   0  0  0  0  0  0  0  0  0  0  0  0
   -1.8252    2.2590   -0.0365 H   0  0  0  0  0  0  0  0  0  0  0  0
   -1.7695    1.4427    1.5164 H   0  0  0  0  0  0  0  0  0  0  0  0
   -2.1681   -2.0594    0.0998 H   0  0  0  0  0  0  0  0  0  0  0  0
   -1.9785   -1.1671    1.5991 H   0  0  0  0  0  0  0  0  0  0  0  0
    3.1946   -0.0716   -3.4349 H   0  0  0  0  0  0  0  0  0  0  0  0
    4.6674    0.7088   -2.8127 H   0  0  0  0  0  0  0  0  0  0  0  0
    4.5495   -1.0965   -2.9042 H   0  0  0  0  0  0  0  0  0  0  0  0
    8.1209   -1.2687    0.8457 H   0  0  0  0  0  0  0  0  0  0  0  0
    8.1985    0.5094    0.7473 H   0  0  0  0  0  0  0  0  0  0  0  0
  1  2  1  0
  2  3  1  0
  3  4  1  0
  4  5  2  0
  4  6  1  0
  7  6  1  6
  7  8  1  0
  8  9  1  0
  9 10  1  0
 10 11  1  0
 11 12  1  0
 12 13  1  0
 13 14  1  0
 13 15  1  0
 11 16  1  0
  3 17  2  0
 17 18  1  0
 18 19  1  0
 18 20  1  0
 20 21  1  0
 21 22  2  0
 22 23  1  0
 23 24  1  0
 20  2  2  0
 24 21  1  0
 15  7  1  0
 16  7  1  0
 14  9  1  0
  1 25  1  0
  1 26  1  0
  1 27  1  0
  6 28  1  0
  8 29  1  0
  8 30  1  0
  9 31  1  6
 10 32  1  0
 10 33  1  0
 11 34  1  1
 12 35  1  0
 12 36  1  0
 13 37  1  1
 14 38  1  0
 14 39  1  0
 15 40  1  0
 15 41  1  0
 16 42  1  0
 16 43  1  0
 19 44  1  0
 19 45  1  0
 19 46  1  0
 23 47  1  0
 23 48  1  0
M  END
>  <_SMILES>  (14) 
Cc1c(C(=O)N[C@]23C[C@H]4C[C@H](C[C@H](C4)C2)C3)nn(C)c1C1=NCS1

$$$$

     RDKit          3D

 66 68  0  0  0  0  0  0  0  0999 V2000
    5.1744   -2.8581    2.2675 C   0  0  0  0  0  0  0  0  0  0  0  0
    3.8996   -2.2335    1.7280 C   0  0  0  0  0  0  0  0  0  0  0  0
    4.1032   -1.0418    0.7735 C   0  0  2  0  0  0  0  0  0  0  0  0
    2.7928   -0.4534    0.5112 N   0  0  0  0  0  0  0  0  0  0  0  0
    2.6009    0.8825    0.2257 C   0  0  0  0  0  0  0  0  0  0  0  0
    3.4834    1.7310    0.3109 O   0  0  0  0  0  0  0  0  0  0  0  0
    1.2221    1.1812   -0.2079 C   0  0  0  0  0  0  0  0  0  0  0  0
    0.3103    0.1967   -0.3439 N   0  0  0  0  0  0  0  0  0  0  0  0
   -0.8132    0.8334   -0.7287 N   0  0  0  0  0  0  0  0  0  0  0  0
   -2.0213    0.0495   -0.9409 C   0  0  0  0  0  0  0  0  0  0  0  0
   -2.9643    0.0281    0.2790 C   0  0  0  0  0  0  0  0  0  0  0  0
   -4.3552   -0.4977   -0.1162 C   0  0  0  0  0  0  0  0  0  0  0  0
   -4.4419   -1.9752   -0.4858 C   0  0  0  0  0  0  0  0  0  0  0  0
   -3.8125   -2.9571    0.4989 C   0  0  0  0  0  0  0  0  0  0  0  0
   -3.9914   -2.6034    1.9743 C   0  0  0  0  0  0  0  0  0  0  0  0
   -3.3013   -1.3211    2.4636 C   0  0  0  0  0  0  0  0  0  0  0  0
   -2.3149   -0.6903    1.4829 C   0  0  0  0  0  0  0  0  0  0  0  0
   -0.6547    2.1895   -0.8843 C   0  0  0  0  0  0  0  0  0  0  0  0
   -1.7130    3.0991   -1.3050 C   0  0  0  0  0  0  0  0  0  0  0  0
   -2.0349    3.2308   -2.6603 C   0  0  0  0  0  0  0  0  0  0  0  0
   -3.0517    4.0999   -3.0599 C   0  0  0  0  0  0  0  0  0  0  0  0
   -3.7470    4.8445   -2.1079 C   0  0  0  0  0  0  0  0  0  0  0  0
   -3.4240    4.7253   -0.7567 C   0  0  0  0  0  0  0  0  0  0  0  0
   -2.4071    3.8572   -0.3559 C   0  0  0  0  0  0  0  0  0  0  0  0
    0.6635    2.4512   -0.5420 C   0  0  0  0  0  0  0  0  0  0  0  0
    1.3647    3.7610   -0.5248 C   0  0  0  0  0  0  0  0  0  0  0  0
    4.8178   -1.3243   -0.5782 C   0  0  0  0  0  0  0  0  0  0  0  0
    4.3302   -2.5959   -1.2752 C   0  0  0  0  0  0  0  0  0  0  0  0
    6.3437   -1.3280   -0.4567 C   0  0  0  0  0  0  0  0  0  0  0  0
    5.8674   -2.0957    2.6359 H   0  0  0  0  0  0  0  0  0  0  0  0
    4.9371   -3.5281    3.1008 H   0  0  0  0  0  0  0  0  0  0  0  0
    5.6773   -3.4612    1.5081 H   0  0  0  0  0  0  0  0  0  0  0  0
    3.3163   -1.8819    2.5904 H   0  0  0  0  0  0  0  0  0  0  0  0
    3.2825   -3.0084    1.2574 H   0  0  0  0  0  0  0  0  0  0  0  0
    4.6795   -0.2751    1.3078 H   0  0  0  0  0  0  0  0  0  0  0  0
    1.9982   -1.0442    0.2754 H   0  0  0  0  0  0  0  0  0  0  0  0
   -1.7093   -0.9656   -1.2159 H   0  0  0  0  0  0  0  0  0  0  0  0
   -2.5263    0.4681   -1.8182 H   0  0  0  0  0  0  0  0  0  0  0  0
   -3.1279    1.0677    0.5950 H   0  0  0  0  0  0  0  0  0  0  0  0
   -4.7304    0.0899   -0.9648 H   0  0  0  0  0  0  0  0  0  0  0  0
   -5.0636   -0.2926    0.6963 H   0  0  0  0  0  0  0  0  0  0  0  0
   -3.9939   -2.1354   -1.4741 H   0  0  0  0  0  0  0  0  0  0  0  0
   -5.5043   -2.2278   -0.5973 H   0  0  0  0  0  0  0  0  0  0  0  0
   -2.7478   -3.0786    0.2689 H   0  0  0  0  0  0  0  0  0  0  0  0
   -4.2547   -3.9460    0.3212 H   0  0  0  0  0  0  0  0  0  0  0  0
   -5.0608   -2.5481    2.2131 H   0  0  0  0  0  0  0  0  0  0  0  0
   -3.6015   -3.4424    2.5654 H   0  0  0  0  0  0  0  0  0  0  0  0
   -4.0577   -0.5820    2.7550 H   0  0  0  0  0  0  0  0  0  0  0  0
   -2.7634   -1.5605    3.3902 H   0  0  0  0  0  0  0  0  0  0  0  0
   -1.5950   -1.4486    1.1539 H   0  0  0  0  0  0  0  0  0  0  0  0
   -1.7170    0.0506    2.0307 H   0  0  0  0  0  0  0  0  0  0  0  0
   -1.4913    2.6625   -3.4116 H   0  0  0  0  0  0  0  0  0  0  0  0
   -3.2972    4.2001   -4.1140 H   0  0  0  0  0  0  0  0  0  0  0  0
   -4.5365    5.5236   -2.4198 H   0  0  0  0  0  0  0  0  0  0  0  0
   -3.9608    5.3113   -0.0151 H   0  0  0  0  0  0  0  0  0  0  0  0
   -2.1589    3.7745    0.6999 H   0  0  0  0  0  0  0  0  0  0  0  0
    2.2236    3.7436   -1.2033 H   0  0  0  0  0  0  0  0  0  0  0  0
    1.7219    3.9893    0.4845 H   0  0  0  0  0  0  0  0  0  0  0  0
    0.7101    4.5791   -0.8400 H   0  0  0  0  0  0  0  0  0  0  0  0
    4.5834   -0.4906   -1.2555 H   0  0  0  0  0  0  0  0  0  0  0  0
    3.2414   -2.5902   -1.3883 H   0  0  0  0  0  0  0  0  0  0  0  0
    4.6147   -3.4977   -0.7248 H   0  0  0  0  0  0  0  0  0  0  0  0
    4.7656   -2.6730   -2.2776 H   0  0  0  0  0  0  0  0  0  0  0  0
    6.8023   -1.3434   -1.4519 H   0  0  0  0  0  0  0  0  0  0  0  0
    6.6980   -0.4262    0.0533 H   0  0  0  0  0  0  0  0  0  0  0  0
    6.7208   -2.1981    0.0837 H   0  0  0  0  0  0  0  0  0  0  0  0
  1  2  1  0
  2  3  1  0
  3  4  1  0
  4  5  1  0
  5  6  2  0
  5  7  1  0
  7  8  2  0
  8  9  1  0
  9 10  1  0
 10 11  1  0
 11 12  1  0
 12 13  1  0
 13 14  1  0
 14 15  1  0
 15 16  1  0
 16 17  1  0
  9 18  1  0
 18 19  1  0
 19 20  2  0
 20 21  1  0
 21 22  2  0
 22 23  1  0
 23 24  2  0
 18 25  2  0
 25 26  1  0
  3 27  1  0
 27 28  1  0
 27 29  1  0
 25  7  1  0
 17 11  1  0
 24 19  1  0
  1 30  1  0
  1 31  1  0
  1 32  1  0
  2 33  1  0
  2 34  1  0
  3 35  1  1
  4 36  1  0
 10 37  1  0
 10 38  1  0
 11 39  1  0
 12 40  1  0
 12 41  1  0
 13 42  1  0
 13 43  1  0
 14 44  1  0
 14 45  1  0
 15 46  1  0
 15 47  1  0
 16 48  1  0
 16 49  1  0
 17 50  1  0
 17 51  1  0
 20 52  1  0
 21 53  1  0
 22 54  1  0
 23 55  1  0
 24 56  1  0
 26 57  1  0
 26 58  1  0
 26 59  1  0
 27 60  1  0
 28 61  1  0
 28 62  1  0
 28 63  1  0
 29 64  1  0
 29 65  1  0
 29 66  1  0
M  END
>  <_SMILES>  (15) 
CC[C@H](NC(=O)c1nn(CC2CCCCCC2)c(-c2ccccc2)c1C)C(C)C

$$$$

     RDKit          3D

 60 65  0  0  0  0  0  0  0  0999 V2000
    2.7636    1.8103   -0.4763 C   0  0  0  0  0  0  0  0  0  0  0  0
    1.6605    0.8177   -0.3668 C   0  0  0  0  0  0  0  0  0  0  0  0
    1.7525   -0.5979   -0.4950 C   0  0  0  0  0  0  0  0  0  0  0  0
    2.9553   -1.4247   -0.7118 C   0  0  0  0  0  0  0  0  0  0  0  0
    2.9927   -2.3664   -1.5000 O   0  0  0  0  0  0  0  0  0  0  0  0
    4.0339   -1.0492    0.0776 N   0  0  0  0  0  0  0  0  0  0  0  0
    5.2867   -1.7562    0.0835 C   0  0  0  0  0  0  0  0  0  0  0  0
    5.2673   -3.0759    0.8160 C   0  0  0  0  0  0  0  0  0  0  0  0
    6.2064   -1.6273   -1.1098 C   0  0  0  0  0  0  0  0  0  0  0  0
    6.5558   -0.9342    0.1721 C   0  0  0  0  0  0  0  0  0  0  0  0
    0.5427   -1.1593   -0.3862 N   0  0  0  0  0  0  0  0  0  0  0  0
   -0.3260   -0.1466   -0.1707 N   0  0  0  0  0  0  0  0  0  0  0  0
   -1.7617   -0.4904   -0.0499 C   0  0  2  0  0  0  0  0  0  0  0  0
   -2.5197   -0.1183   -1.3520 C   0  0  0  0  0  0  0  0  0  0  0  0
   -4.0104   -0.4927   -1.2531 C   0  0  1  0  0  0  0  0  0  0  0  0
   -4.1452   -2.0077   -1.0424 C   0  0  0  0  0  0  0  0  0  0  0  0
   -3.4395   -2.4186    0.2580 C   0  0  2  0  0  0  0  0  0  0  0  0
   -4.0762   -1.6850    1.4439 C   0  0  0  0  0  0  0  0  0  0  0  0
   -3.9415   -0.1708    1.2466 C   0  0  2  0  0  0  0  0  0  0  0  0
   -4.6435    0.2405   -0.0589 C   0  0  0  0  0  0  0  0  0  0  0  0
   -2.4520    0.2078    1.1554 C   0  0  0  0  0  0  0  0  0  0  0  0
   -1.9546   -2.0344    0.1654 C   0  0  0  0  0  0  0  0  0  0  0  0
    0.3126    1.0822   -0.1487 C   0  0  0  0  0  0  0  0  0  0  0  0
   -0.3034    2.3907    0.0450 C   0  0  0  0  0  0  0  0  0  0  0  0
   -0.3068    2.9820    1.3148 C   0  0  0  0  0  0  0  0  0  0  0  0
   -0.8609    4.2498    1.5004 C   0  0  0  0  0  0  0  0  0  0  0  0
   -1.3986    4.9408    0.4155 C   0  0  0  0  0  0  0  0  0  0  0  0
   -1.3742    4.3701   -0.8563 C   0  0  0  0  0  0  0  0  0  0  0  0
   -0.8198    3.1025   -1.0429 C   0  0  0  0  0  0  0  0  0  0  0  0
    2.4018    2.7746   -0.8467 H   0  0  0  0  0  0  0  0  0  0  0  0
    3.2257    1.9718    0.5026 H   0  0  0  0  0  0  0  0  0  0  0  0
    3.5353    1.4676   -1.1730 H   0  0  0  0  0  0  0  0  0  0  0  0
    3.8564   -0.3945    0.8280 H   0  0  0  0  0  0  0  0  0  0  0  0
    4.9447   -2.9292    1.8522 H   0  0  0  0  0  0  0  0  0  0  0  0
    4.5750   -3.7746    0.3354 H   0  0  0  0  0  0  0  0  0  0  0  0
    6.2558   -3.5476    0.8363 H   0  0  0  0  0  0  0  0  0  0  0  0
    5.8736   -1.0253   -1.9480 H   0  0  0  0  0  0  0  0  0  0  0  0
    6.7899   -2.4922   -1.4046 H   0  0  0  0  0  0  0  0  0  0  0  0
    6.4777    0.1466    0.1937 H   0  0  0  0  0  0  0  0  0  0  0  0
    7.3903   -1.3234    0.7445 H   0  0  0  0  0  0  0  0  0  0  0  0
   -2.4439    0.9539   -1.5547 H   0  0  0  0  0  0  0  0  0  0  0  0
   -2.0657   -0.6264   -2.2131 H   0  0  0  0  0  0  0  0  0  0  0  0
   -4.5230   -0.2029   -2.1773 H   0  0  0  0  0  0  0  0  0  0  0  0
   -5.2048   -2.2879   -0.9986 H   0  0  0  0  0  0  0  0  0  0  0  0
   -3.7090   -2.5453   -1.8933 H   0  0  0  0  0  0  0  0  0  0  0  0
   -3.5325   -3.5010    0.4013 H   0  0  0  0  0  0  0  0  0  0  0  0
   -5.1343   -1.9602    1.5322 H   0  0  0  0  0  0  0  0  0  0  0  0
   -3.5893   -1.9870    2.3793 H   0  0  0  0  0  0  0  0  0  0  0  0
   -4.4020    0.3527    2.0921 H   0  0  0  0  0  0  0  0  0  0  0  0
   -4.5664    1.3255   -0.2014 H   0  0  0  0  0  0  0  0  0  0  0  0
   -5.7128    0.0031    0.0014 H   0  0  0  0  0  0  0  0  0  0  0  0
   -1.9380   -0.0517    2.0899 H   0  0  0  0  0  0  0  0  0  0  0  0
   -2.4082    1.2945    1.0634 H   0  0  0  0  0  0  0  0  0  0  0  0
   -1.5060   -2.5991   -0.6631 H   0  0  0  0  0  0  0  0  0  0  0  0
   -1.4376   -2.3545    1.0804 H   0  0  0  0  0  0  0  0  0  0  0  0
    0.1163    2.4541    2.1663 H   0  0  0  0  0  0  0  0  0  0  0  0
   -0.8700    4.6993    2.4900 H   0  0  0  0  0  0  0  0  0  0  0  0
   -1.8286    5.9289    0.5594 H   0  0  0  0  0  0  0  0  0  0  0  0
   -1.7799    4.9150   -1.7049 H   0  0  0  0  0  0  0  0  0  0  0  0
   -0.7864    2.6768   -2.0433 H   0  0  0  0  0  0  0  0  0  0  0  0
  1  2  1  0
  2  3  1  0
  3  4  1  0
  4  5  2  0
  4  6  1  0
  6  7  1  0
  7  8  1  0
  7  9  1  0
  9 10  1  0
  3 11  2  0
 11 12  1  0
 13 12  1  6
 13 14  1  0
 14 15  1  0
 15 16  1  0
 16 17  1  0
 17 18  1  0
 18 19  1  0
 19 20  1  0
 19 21  1  0
 17 22  1  0
 12 23  1  0
 23 24  1  0
 24 25  2  0
 25 26  1  0
 26 27  2  0
 27 28  1  0
 28 29  2  0
 23  2  2  0
 29 24  1  0
 10  7  1  0
 21 13  1  0
 22 13  1  0
 20 15  1  0
  1 30  1  0
  1 31  1  0
  1 32  1  0
  6 33  1  0
  8 34  1  0
  8 35  1  0
  8 36  1  0
  9 37  1  0
  9 38  1  0
 10 39  1  0
 10 40  1  0
 14 41  1  0
 14 42  1  0
 15 43  1  6
 16 44  1  0
 16 45  1  0
 17 46  1  1
 18 47  1  0
 18 48  1  0
 19 49  1  1
 20 50  1  0
 20 51  1  0
 21 52  1  0
 21 53  1  0
 22 54  1  0
 22 55  1  0
 25 56  1  0
 26 57  1  0
 27 58  1  0
 28 59  1  0
 29 60  1  0
M  END
>  <_SMILES>  (16) 
Cc1c(C(=O)NC2(C)CC2)nn([C@]23C[C@H]4C[C@H](C[C@H](C4)C2)C3)c1-c1ccccc1

$$$$

     RDKit          3D

 59 63  0  0  0  0  0  0  0  0999 V2000
    7.8079   -2.7423    1.2603 C   0  0  0  0  0  0  0  0  0  0  0  0
    7.2109   -1.4131    0.9049 C   0  0  0  0  0  0  0  0  0  0  0  0
    8.0268   -0.2861    0.7484 C   0  0  0  0  0  0  0  0  0  0  0  0
    7.4745    0.9412    0.3788 C   0  0  0  0  0  0  0  0  0  0  0  0
    6.1020    1.0513    0.1555 C   0  0  0  0  0  0  0  0  0  0  0  0
    5.2752   -0.0667    0.2996 C   0  0  0  0  0  0  0  0  0  0  0  0
    3.8369    0.0420    0.0632 C   0  0  0  0  0  0  0  0  0  0  0  0
    3.0897   -0.3656   -1.0376 C   0  0  0  0  0  0  0  0  0  0  0  0
    3.6112   -1.0153   -2.2766 C   0  0  0  0  0  0  0  0  0  0  0  0
    1.7105   -0.0496   -0.7751 C   0  0  0  0  0  0  0  0  0  0  0  0
    0.5556   -0.3144   -1.6455 C   0  0  0  0  0  0  0  0  0  0  0  0
    0.6253   -1.0723   -2.6090 O   0  0  0  0  0  0  0  0  0  0  0  0
   -0.5318    0.4949   -1.4072 N   0  0  0  0  0  0  0  0  0  0  0  0
   -1.7610   -0.0770   -1.1837 C   0  0  0  0  0  0  0  0  0  0  0  0
   -1.9740   -1.2767   -1.1014 O   0  0  0  0  0  0  0  0  0  0  0  0
   -2.7142    0.9083   -1.0190 N   0  0  0  0  0  0  0  0  0  0  0  0
   -4.1035    0.6178   -0.7178 C   0  0  1  0  0  0  0  0  0  0  0  0
   -4.7876   -0.2658   -1.7804 C   0  0  0  0  0  0  0  0  0  0  0  0
   -6.2249   -0.5668   -1.3349 C   0  0  2  0  0  0  0  0  0  0  0  0
   -7.0049    0.7526   -1.1907 C   0  0  0  0  0  0  0  0  0  0  0  0
   -6.3221    1.6697   -0.1598 C   0  0  1  0  0  0  0  0  0  0  0  0
   -6.2579    0.9530    1.1952 C   0  0  0  0  0  0  0  0  0  0  0  0
   -5.4523   -0.3389    1.0288 C   0  0  1  0  0  0  0  0  0  0  0  0
   -6.1439   -1.2695    0.0274 C   0  0  0  0  0  0  0  0  0  0  0  0
   -4.1305   -0.0133    0.5697 O   0  0  0  0  0  0  0  0  0  0  0  0
   -4.8800    1.9503   -0.6049 C   0  0  0  0  0  0  0  0  0  0  0  0
    1.6795    0.5240    0.4869 C   0  0  0  0  0  0  0  0  0  0  0  0
    2.9566    0.5661    0.9828 N   0  0  0  0  0  0  0  0  0  0  0  0
    3.3065    1.0556    2.3004 C   0  0  0  0  0  0  0  0  0  0  0  0
    5.8351   -1.2971    0.6644 C   0  0  0  0  0  0  0  0  0  0  0  0
    7.1005   -3.3455    1.8390 H   0  0  0  0  0  0  0  0  0  0  0  0
    8.0767   -3.2871    0.3502 H   0  0  0  0  0  0  0  0  0  0  0  0
    8.7052   -2.6159    1.8753 H   0  0  0  0  0  0  0  0  0  0  0  0
    9.1002   -0.3596    0.9085 H   0  0  0  0  0  0  0  0  0  0  0  0
    8.1157    1.8100    0.2562 H   0  0  0  0  0  0  0  0  0  0  0  0
    5.6816    2.0079   -0.1439 H   0  0  0  0  0  0  0  0  0  0  0  0
    3.2823   -2.0583   -2.3238 H   0  0  0  0  0  0  0  0  0  0  0  0
    4.7046   -1.0046   -2.3155 H   0  0  0  0  0  0  0  0  0  0  0  0
    3.2478   -0.4916   -3.1667 H   0  0  0  0  0  0  0  0  0  0  0  0
   -0.3733    1.2480   -0.7598 H   0  0  0  0  0  0  0  0  0  0  0  0
   -2.5569    1.7113   -1.6083 H   0  0  0  0  0  0  0  0  0  0  0  0
   -4.2639   -1.2196   -1.9050 H   0  0  0  0  0  0  0  0  0  0  0  0
   -4.7808    0.2300   -2.7590 H   0  0  0  0  0  0  0  0  0  0  0  0
   -6.7184   -1.2157   -2.0665 H   0  0  0  0  0  0  0  0  0  0  0  0
   -8.0355    0.5436   -0.8786 H   0  0  0  0  0  0  0  0  0  0  0  0
   -7.0609    1.2602   -2.1614 H   0  0  0  0  0  0  0  0  0  0  0  0
   -6.8785    2.6084   -0.0649 H   0  0  0  0  0  0  0  0  0  0  0  0
   -5.7673    1.6047    1.9284 H   0  0  0  0  0  0  0  0  0  0  0  0
   -7.2663    0.7355    1.5656 H   0  0  0  0  0  0  0  0  0  0  0  0
   -5.3521   -0.8414    1.9963 H   0  0  0  0  0  0  0  0  0  0  0  0
   -7.1464   -1.5372    0.3808 H   0  0  0  0  0  0  0  0  0  0  0  0
   -5.5686   -2.1978   -0.0745 H   0  0  0  0  0  0  0  0  0  0  0  0
   -4.3981    2.6058    0.1329 H   0  0  0  0  0  0  0  0  0  0  0  0
   -4.8728    2.4870   -1.5620 H   0  0  0  0  0  0  0  0  0  0  0  0
    0.8506    0.8681    1.0919 H   0  0  0  0  0  0  0  0  0  0  0  0
    3.9194    1.9527    2.1840 H   0  0  0  0  0  0  0  0  0  0  0  0
    2.3951    1.3018    2.8515 H   0  0  0  0  0  0  0  0  0  0  0  0
    3.8531    0.2730    2.8325 H   0  0  0  0  0  0  0  0  0  0  0  0
    5.1915   -2.1698    0.7594 H   0  0  0  0  0  0  0  0  0  0  0  0
  1  2  1  0
  2  3  2  0
  3  4  1  0
  4  5  2  0
  5  6  1  0
  6  7  1  0
  7  8  2  0
  8  9  1  0
  8 10  1  0
 10 11  1  0
 11 12  2  0
 11 13  1  0
 13 14  1  0
 14 15  2  0
 14 16  1  0
 17 16  1  6
 17 18  1  0
 18 19  1  0
 19 20  1  0
 20 21  1  0
 21 22  1  0
 22 23  1  0
 23 24  1  0
 23 25  1  0
 21 26  1  0
 10 27  2  0
 27 28  1  0
 28 29  1  0
  6 30  2  0
 30  2  1  0
 28  7  1  0
 25 17  1  0
 26 17  1  0
 24 19  1  0
  1 31  1  0
  1 32  1  0
  1 33  1  0
  3 34  1  0
  4 35  1  0
  5 36  1  0
  9 37  1  0
  9 38  1  0
  9 39  1  0
 13 40  1  0
 16 41  1  0
 18 42  1  0
 18 43  1  0
 19 44  1  6
 20 45  1  0
 20 46  1  0
 21 47  1  1
 22 48  1  0
 22 49  1  0
 23 50  1  1
 24 51  1  0
 24 52  1  0
 26 53  1  0
 26 54  1  0
 27 55  1  0
 29 56  1  0
 29 57  1  0
 29 58  1  0
 30 59  1  0
M  END
>  <_SMILES>  (17) 
Cc1cccc(-c2c(C)c(C(=O)NC(=O)N[C@@]34C[C@@H]5C[C@@H](C[C@@H](C5)O3)C4)cn2C)c1

$$$$

     RDKit          3D

 57 60  0  0  0  0  0  0  0  0999 V2000
   -8.9499   -1.3849    0.3114 C   0  0  0  0  0  0  0  0  0  0  0  0
   -7.7707   -1.0801   -0.5605 C   0  0  0  0  0  0  0  0  0  0  0  0
   -7.8278   -0.9264   -1.7719 O   0  0  0  0  0  0  0  0  0  0  0  0
   -6.6423   -1.0003    0.1969 O   0  0  0  0  0  0  0  0  0  0  0  0
   -5.4218   -0.7071   -0.5139 C   0  0  1  0  0  0  0  0  0  0  0  0
   -5.3513    0.8040   -0.7851 C   0  0  0  0  0  0  0  0  0  0  0  0
   -3.9148    1.3065   -0.8111 C   0  0  0  0  0  0  0  0  0  0  0  0
   -3.2202    1.1000    0.5450 C   0  0  2  0  0  0  0  0  0  0  0  0
   -1.7800    1.0206    0.3464 N   0  0  0  0  0  0  0  0  0  0  0  0
   -0.8907    1.3310    1.3637 C   0  0  0  0  0  0  0  0  0  0  0  0
   -1.2539    1.7814    2.4469 O   0  0  0  0  0  0  0  0  0  0  0  0
    0.5177    1.0273    1.0430 C   0  0  0  0  0  0  0  0  0  0  0  0
    1.3101    0.4274    1.9464 N   0  0  0  0  0  0  0  0  0  0  0  0
    2.5092    0.3473    1.3489 N   0  0  0  0  0  0  0  0  0  0  0  0
    3.6512    0.1537    2.2094 C   0  0  0  0  0  0  0  0  0  0  0  0
    2.4813    0.6842    0.0243 C   0  0  0  0  0  0  0  0  0  0  0  0
    3.5908    0.5429   -1.0647 C   0  0  0  0  0  0  0  0  0  0  0  0
    3.5180    1.2552   -2.2377 N   0  0  0  0  0  0  0  0  0  0  0  0
    4.5884    0.9889   -2.9673 N   0  0  0  0  0  0  0  0  0  0  0  0
    5.3132    0.0955   -2.2895 N   0  0  0  0  0  0  0  0  0  0  0  0
    4.6975   -0.2789   -1.1179 C   0  0  0  0  0  0  0  0  0  0  0  0
    5.2411   -1.4216   -0.3461 C   0  0  0  0  0  0  0  0  0  0  0  0
    6.6651   -1.2568   -0.0638 N   0  0  0  0  0  0  0  0  0  0  0  0
    7.2562   -1.1410    1.1613 C   0  0  0  0  0  0  0  0  0  0  0  0
    8.6051   -1.0190    0.9229 C   0  0  0  0  0  0  0  0  0  0  0  0
    8.7307   -1.0800   -0.4768 C   0  0  0  0  0  0  0  0  0  0  0  0
    7.5515   -1.2268   -1.0881 N   0  0  0  0  0  0  0  0  0  0  0  0
    1.2340    1.2652   -0.1765 C   0  0  0  0  0  0  0  0  0  0  0  0
    0.7324    1.9497   -1.3992 C   0  0  0  0  0  0  0  0  0  0  0  0
   -3.7478   -0.1344    1.3013 C   0  0  0  0  0  0  0  0  0  0  0  0
   -4.2512   -1.2126    0.3438 C   0  0  0  0  0  0  0  0  0  0  0  0
   -8.8013   -2.3439    0.8140 H   0  0  0  0  0  0  0  0  0  0  0  0
   -9.0870   -0.5839    1.0421 H   0  0  0  0  0  0  0  0  0  0  0  0
   -9.8500   -1.4512   -0.3065 H   0  0  0  0  0  0  0  0  0  0  0  0
   -5.4060   -1.2702   -1.4561 H   0  0  0  0  0  0  0  0  0  0  0  0
   -5.9220    1.3574   -0.0279 H   0  0  0  0  0  0  0  0  0  0  0  0
   -5.8373    1.0236   -1.7432 H   0  0  0  0  0  0  0  0  0  0  0  0
   -3.3715    0.7853   -1.6106 H   0  0  0  0  0  0  0  0  0  0  0  0
   -3.8913    2.3710   -1.0739 H   0  0  0  0  0  0  0  0  0  0  0  0
   -3.4125    1.9782    1.1748 H   0  0  0  0  0  0  0  0  0  0  0  0
   -1.4269    0.4298   -0.3951 H   0  0  0  0  0  0  0  0  0  0  0  0
    4.5532    0.5218    1.7188 H   0  0  0  0  0  0  0  0  0  0  0  0
    3.7270   -0.9090    2.4482 H   0  0  0  0  0  0  0  0  0  0  0  0
    3.4996    0.7274    3.1289 H   0  0  0  0  0  0  0  0  0  0  0  0
    6.1979   -0.2356   -2.6702 H   0  0  0  0  0  0  0  0  0  0  0  0
    4.7247   -1.5898    0.5971 H   0  0  0  0  0  0  0  0  0  0  0  0
    5.1504   -2.3477   -0.9272 H   0  0  0  0  0  0  0  0  0  0  0  0
    6.6886   -1.1564    2.0808 H   0  0  0  0  0  0  0  0  0  0  0  0
    9.3908   -0.9061    1.6566 H   0  0  0  0  0  0  0  0  0  0  0  0
    9.6324   -1.0246   -1.0743 H   0  0  0  0  0  0  0  0  0  0  0  0
    1.4485    2.7010   -1.7461 H   0  0  0  0  0  0  0  0  0  0  0  0
    0.5619    1.2250   -2.2014 H   0  0  0  0  0  0  0  0  0  0  0  0
   -0.2052    2.4813   -1.2144 H   0  0  0  0  0  0  0  0  0  0  0  0
   -2.9800   -0.5542    1.9617 H   0  0  0  0  0  0  0  0  0  0  0  0
   -4.5799    0.1722    1.9485 H   0  0  0  0  0  0  0  0  0  0  0  0
   -3.4235   -1.5143   -0.3102 H   0  0  0  0  0  0  0  0  0  0  0  0
   -4.5517   -2.0980    0.9162 H   0  0  0  0  0  0  0  0  0  0  0  0
  1  2  1  0
  2  3  2  0
  2  4  1  0
  4  5  1  0
  5  6  1  0
  6  7  1  0
  7  8  1  0
  8  9  1  0
  9 10  1  0
 10 11  2  0
 10 12  1  0
 12 13  2  0
 13 14  1  0
 14 15  1  0
 14 16  1  0
 16 17  1  0
 17 18  1  0
 18 19  2  0
 19 20  1  0
 20 21  1  0
 21 22  1  0
 22 23  1  0
 23 24  1  0
 24 25  2  0
 25 26  1  0
 26 27  2  0
 16 28  2  0
 28 29  1  0
  8 30  1  0
 30 31  1  0
 31  5  1  0
 28 12  1  0
 21 17  2  0
 27 23  1  0
  1 32  1  0
  1 33  1  0
  1 34  1  0
  5 35  1  6
  6 36  1  0
  6 37  1  0
  7 38  1  0
  7 39  1  0
  8 40  1  1
  9 41  1  0
 15 42  1  0
 15 43  1  0
 15 44  1  0
 20 45  1  0
 22 46  1  0
 22 47  1  0
 24 48  1  0
 25 49  1  0
 26 50  1  0
 29 51  1  0
 29 52  1  0
 29 53  1  0
 30 54  1  0
 30 55  1  0
 31 56  1  0
 31 57  1  0
M  END
>  <_SMILES>  (18) 
CC(=O)O[C@H]1CC[C@H](NC(=O)c2nn(C)c(-c3nn[nH]c3Cn3cccn3)c2C)CC1

$$$$

     RDKit          3D

 57 60  0  0  0  0  0  0  0  0999 V2000
    5.0557    4.7802    3.4441 C   0  0  0  0  0  0  0  0  0  0  0  0
    4.7070    3.7538    2.4104 C   0  0  0  0  0  0  0  0  0  0  0  0
    5.5200    3.1987    1.6858 O   0  0  0  0  0  0  0  0  0  0  0  0
    3.3625    3.5396    2.4051 O   0  0  0  0  0  0  0  0  0  0  0  0
    2.8783    2.5778    1.4449 C   0  0  1  0  0  0  0  0  0  0  0  0
    1.5364    2.0384    1.9646 C   0  0  0  0  0  0  0  0  0  0  0  0
    0.3583    2.8434    1.4201 C   0  0  0  0  0  0  0  0  0  0  0  0
    0.2767    2.7608   -0.1136 C   0  0  2  0  0  0  0  0  0  0  0  0
   -0.5658    1.6477   -0.5181 N   0  0  0  0  0  0  0  0  0  0  0  0
   -1.1999    1.6049   -1.7468 C   0  0  0  0  0  0  0  0  0  0  0  0
   -1.1631    2.5234   -2.5593 O   0  0  0  0  0  0  0  0  0  0  0  0
   -1.9156    0.3414   -1.9791 C   0  0  0  0  0  0  0  0  0  0  0  0
   -3.2297    0.3153   -2.2588 N   0  0  0  0  0  0  0  0  0  0  0  0
   -3.5386   -0.9894   -2.3045 N   0  0  0  0  0  0  0  0  0  0  0  0
   -4.9116   -1.3789   -2.5321 C   0  0  0  0  0  0  0  0  0  0  0  0
   -2.4643   -1.8141   -2.0913 C   0  0  0  0  0  0  0  0  0  0  0  0
   -2.5318   -3.2317   -2.0363 C   0  0  0  0  0  0  0  0  0  0  0  0
   -2.4907   -4.0519   -3.1275 N   0  0  0  0  0  0  0  0  0  0  0  0
   -2.5885   -5.3418   -2.7711 N   0  0  0  0  0  0  0  0  0  0  0  0
   -2.6571   -5.3877   -1.4476 N   0  0  0  0  0  0  0  0  0  0  0  0
   -2.6078   -4.1017   -0.9668 C   0  0  0  0  0  0  0  0  0  0  0  0
   -2.6636   -3.8322    0.4897 C   0  0  0  0  0  0  0  0  0  0  0  0
   -1.3346   -3.5794    1.0317 N   0  0  0  0  0  0  0  0  0  0  0  0
   -0.3224   -4.4907    1.1742 C   0  0  0  0  0  0  0  0  0  0  0  0
    0.7004   -3.8338    1.8149 C   0  0  0  0  0  0  0  0  0  0  0  0
    0.2101   -2.5339    2.0294 C   0  0  0  0  0  0  0  0  0  0  0  0
   -1.0242   -2.3656    1.5471 N   0  0  0  0  0  0  0  0  0  0  0  0
   -1.3753   -0.9826   -1.9078 C   0  0  0  0  0  0  0  0  0  0  0  0
    0.0457   -1.3547   -1.6814 C   0  0  0  0  0  0  0  0  0  0  0  0
    1.6613    2.6308   -0.7748 C   0  0  0  0  0  0  0  0  0  0  0  0
    2.7553    3.2617    0.0747 C   0  0  0  0  0  0  0  0  0  0  0  0
    6.1368    4.9458    3.4402 H   0  0  0  0  0  0  0  0  0  0  0  0
    4.5579    5.7248    3.2110 H   0  0  0  0  0  0  0  0  0  0  0  0
    4.7615    4.4237    4.4345 H   0  0  0  0  0  0  0  0  0  0  0  0
    3.5750    1.7310    1.3935 H   0  0  0  0  0  0  0  0  0  0  0  0
    1.5152    2.0538    3.0605 H   0  0  0  0  0  0  0  0  0  0  0  0
    1.4202    0.9926    1.6531 H   0  0  0  0  0  0  0  0  0  0  0  0
   -0.5759    2.4985    1.8794 H   0  0  0  0  0  0  0  0  0  0  0  0
    0.4831    3.8924    1.7183 H   0  0  0  0  0  0  0  0  0  0  0  0
   -0.2037    3.6790   -0.4747 H   0  0  0  0  0  0  0  0  0  0  0  0
   -0.6826    0.8547    0.1030 H   0  0  0  0  0  0  0  0  0  0  0  0
   -4.9526   -1.9860   -3.4397 H   0  0  0  0  0  0  0  0  0  0  0  0
   -5.5298   -0.4859   -2.6570 H   0  0  0  0  0  0  0  0  0  0  0  0
   -5.2573   -1.9496   -1.6666 H   0  0  0  0  0  0  0  0  0  0  0  0
   -2.3993   -3.8158   -4.1090 H   0  0  0  0  0  0  0  0  0  0  0  0
   -3.2929   -2.9622    0.7073 H   0  0  0  0  0  0  0  0  0  0  0  0
   -3.0716   -4.6893    1.0365 H   0  0  0  0  0  0  0  0  0  0  0  0
   -0.4194   -5.5071    0.8159 H   0  0  0  0  0  0  0  0  0  0  0  0
    1.6607   -4.2406    2.0978 H   0  0  0  0  0  0  0  0  0  0  0  0
    0.7027   -1.7025    2.5169 H   0  0  0  0  0  0  0  0  0  0  0  0
    0.3688   -1.0721   -0.6763 H   0  0  0  0  0  0  0  0  0  0  0  0
    0.6902   -0.8418   -2.4029 H   0  0  0  0  0  0  0  0  0  0  0  0
    0.2096   -2.4302   -1.7989 H   0  0  0  0  0  0  0  0  0  0  0  0
    1.9103    1.5744   -0.9434 H   0  0  0  0  0  0  0  0  0  0  0  0
    1.6392    3.0990   -1.7663 H   0  0  0  0  0  0  0  0  0  0  0  0
    2.5551    4.3341    0.1977 H   0  0  0  0  0  0  0  0  0  0  0  0
    3.7157    3.1980   -0.4505 H   0  0  0  0  0  0  0  0  0  0  0  0
  1  2  1  0
  2  3  2  0
  2  4  1  0
  4  5  1  0
  5  6  1  0
  6  7  1  0
  7  8  1  0
  8  9  1  0
  9 10  1  0
 10 11  2  0
 10 12  1  0
 12 13  2  0
 13 14  1  0
 14 15  1  0
 14 16  1  0
 16 17  1  0
 17 18  1  0
 18 19  1  0
 19 20  2  0
 20 21  1  0
 21 22  1  0
 22 23  1  0
 23 24  1  0
 24 25  2  0
 25 26  1  0
 26 27  2  0
 16 28  2  0
 28 29  1  0
  8 30  1  0
 30 31  1  0
 31  5  1  0
 28 12  1  0
 21 17  2  0
 27 23  1  0
  1 32  1  0
  1 33  1  0
  1 34  1  0
  5 35  1  6
  6 36  1  0
  6 37  1  0
  7 38  1  0
  7 39  1  0
  8 40  1  6
  9 41  1  0
 15 42  1  0
 15 43  1  0
 15 44  1  0
 18 45  1  0
 22 46  1  0
 22 47  1  0
 24 48  1  0
 25 49  1  0
 26 50  1  0
 29 51  1  0
 29 52  1  0
 29 53  1  0
 30 54  1  0
 30 55  1  0
 31 56  1  0
 31 57  1  0
M  END
>  <_SMILES>  (19) 
CC(=O)O[C@H]1CC[C@H](NC(=O)c2nn(C)c(-c3[nH]nnc3Cn3cccn3)c2C)CC1

$$$$

     RDKit          3D

 57 60  0  0  0  0  0  0  0  0999 V2000
    7.5784    0.9455   -1.7293 C   0  0  0  0  0  0  0  0  0  0  0  0
    7.3361   -0.2689   -0.8866 C   0  0  0  0  0  0  0  0  0  0  0  0
    8.0008   -1.2934   -0.9413 O   0  0  0  0  0  0  0  0  0  0  0  0
    6.2709   -0.0581   -0.0664 O   0  0  0  0  0  0  0  0  0  0  0  0
    5.9144   -1.1457    0.8116 C   0  0  1  0  0  0  0  0  0  0  0  0
    5.1415   -0.5494    1.9976 C   0  0  0  0  0  0  0  0  0  0  0  0
    3.6233   -0.4955    1.7857 C   0  0  0  0  0  0  0  0  0  0  0  0
    3.2441   -0.3518    0.3097 C   0  0  2  0  0  0  0  0  0  0  0  0
    1.8047   -0.2272    0.1537 N   0  0  0  0  0  0  0  0  0  0  0  0
    1.1462    0.9775    0.3333 C   0  0  0  0  0  0  0  0  0  0  0  0
    1.7329    2.0312    0.5623 O   0  0  0  0  0  0  0  0  0  0  0  0
   -0.3191    0.8764    0.2130 C   0  0  0  0  0  0  0  0  0  0  0  0
   -0.9987    1.6900   -0.6080 N   0  0  0  0  0  0  0  0  0  0  0  0
   -2.2875    1.3546   -0.4317 N   0  0  0  0  0  0  0  0  0  0  0  0
   -3.2729    2.3255   -0.8429 C   0  0  0  0  0  0  0  0  0  0  0  0
   -2.4603    0.2227    0.3202 C   0  0  0  0  0  0  0  0  0  0  0  0
   -3.7660   -0.6166    0.5895 C   0  0  0  0  0  0  0  0  0  0  0  0
   -3.7775   -1.4888    1.6099 N   0  0  0  0  0  0  0  0  0  0  0  0
   -5.0062   -1.9989    1.5455 N   0  0  0  0  0  0  0  0  0  0  0  0
   -5.7899   -1.6183    0.5341 N   0  0  0  0  0  0  0  0  0  0  0  0
   -5.0115   -0.7185   -0.1016 C   0  0  0  0  0  0  0  0  0  0  0  0
   -5.4744   -0.1722   -1.4051 C   0  0  0  0  0  0  0  0  0  0  0  0
   -6.4792    0.8729   -1.2484 N   0  0  0  0  0  0  0  0  0  0  0  0
   -7.7420    0.7413   -0.7352 C   0  0  0  0  0  0  0  0  0  0  0  0
   -8.3461    1.9678   -0.8716 C   0  0  0  0  0  0  0  0  0  0  0  0
   -7.3828    2.7695   -1.5067 C   0  0  0  0  0  0  0  0  0  0  0  0
   -6.2504    2.1063   -1.7541 N   0  0  0  0  0  0  0  0  0  0  0  0
   -1.2056   -0.0390    0.8670 C   0  0  0  0  0  0  0  0  0  0  0  0
   -0.8359   -1.0645    1.8799 C   0  0  0  0  0  0  0  0  0  0  0  0
    3.7766   -1.5341   -0.5163 C   0  0  0  0  0  0  0  0  0  0  0  0
    5.0548   -2.1587    0.0553 C   0  0  0  0  0  0  0  0  0  0  0  0
    6.7043    1.1420   -2.3552 H   0  0  0  0  0  0  0  0  0  0  0  0
    7.7946    1.8042   -1.0887 H   0  0  0  0  0  0  0  0  0  0  0  0
    8.4407    0.7698   -2.3788 H   0  0  0  0  0  0  0  0  0  0  0  0
    6.8269   -1.6167    1.1976 H   0  0  0  0  0  0  0  0  0  0  0  0
    5.3332   -1.1472    2.8971 H   0  0  0  0  0  0  0  0  0  0  0  0
    5.5094    0.4630    2.2055 H   0  0  0  0  0  0  0  0  0  0  0  0
    3.1708   -1.4129    2.1864 H   0  0  0  0  0  0  0  0  0  0  0  0
    3.2058    0.3254    2.3815 H   0  0  0  0  0  0  0  0  0  0  0  0
    3.6931    0.5744   -0.0715 H   0  0  0  0  0  0  0  0  0  0  0  0
    1.2485   -1.0488   -0.0409 H   0  0  0  0  0  0  0  0  0  0  0  0
   -3.5095    2.1480   -1.8925 H   0  0  0  0  0  0  0  0  0  0  0  0
   -2.8521    3.3293   -0.7282 H   0  0  0  0  0  0  0  0  0  0  0  0
   -4.1427    2.2433   -0.1910 H   0  0  0  0  0  0  0  0  0  0  0  0
   -5.3296   -2.6744    2.2349 H   0  0  0  0  0  0  0  0  0  0  0  0
   -5.9461   -0.9601   -2.0058 H   0  0  0  0  0  0  0  0  0  0  0  0
   -4.6464    0.2198   -2.0000 H   0  0  0  0  0  0  0  0  0  0  0  0
   -8.0906   -0.1946   -0.3194 H   0  0  0  0  0  0  0  0  0  0  0  0
   -9.3458    2.2411   -0.5659 H   0  0  0  0  0  0  0  0  0  0  0  0
   -7.4615    3.8072   -1.8055 H   0  0  0  0  0  0  0  0  0  0  0  0
   -1.4604   -0.9712    2.7738 H   0  0  0  0  0  0  0  0  0  0  0  0
   -0.9482   -2.0719    1.4672 H   0  0  0  0  0  0  0  0  0  0  0  0
    0.1994   -0.9526    2.2147 H   0  0  0  0  0  0  0  0  0  0  0  0
    3.9619   -1.1862   -1.5408 H   0  0  0  0  0  0  0  0  0  0  0  0
    3.0219   -2.3259   -0.6068 H   0  0  0  0  0  0  0  0  0  0  0  0
    5.6186   -2.6099   -0.7690 H   0  0  0  0  0  0  0  0  0  0  0  0
    4.7854   -2.9767    0.7354 H   0  0  0  0  0  0  0  0  0  0  0  0
  1  2  1  0
  2  3  2  0
  2  4  1  0
  4  5  1  0
  5  6  1  0
  6  7  1  0
  7  8  1  0
  8  9  1  0
  9 10  1  0
 10 11  2  0
 10 12  1  0
 12 13  2  0
 13 14  1  0
 14 15  1  0
 14 16  1  0
 16 17  1  0
 17 18  2  0
 18 19  1  0
 19 20  1  0
 20 21  2  0
 21 22  1  0
 22 23  1  0
 23 24  1  0
 24 25  2  0
 25 26  1  0
 26 27  2  0
 16 28  2  0
 28 29  1  0
  8 30  1  0
 30 31  1  0
 31  5  1  0
 28 12  1  0
 21 17  1  0
 27 23  1  0
  1 32  1  0
  1 33  1  0
  1 34  1  0
  5 35  1  1
  6 36  1  0
  6 37  1  0
  7 38  1  0
  7 39  1  0
  8 40  1  6
  9 41  1  0
 15 42  1  0
 15 43  1  0
 15 44  1  0
 19 45  1  0
 22 46  1  0
 22 47  1  0
 24 48  1  0
 25 49  1  0
 26 50  1  0
 29 51  1  0
 29 52  1  0
 29 53  1  0
 30 54  1  0
 30 55  1  0
 31 56  1  0
 31 57  1  0
M  END
>  <_SMILES>  (20) 
CC(=O)O[C@H]1CC[C@H](NC(=O)c2nn(C)c(-c3n[nH]nc3Cn3cccn3)c2C)CC1

$$$$

     RDKit          3D

 66 71  0  0  0  0  0  0  0  0999 V2000
    0.4395   -2.4375    0.7870 C   0  0  0  0  0  0  0  0  0  0  0  0
   -0.3907   -1.2076    0.7028 C   0  0  0  0  0  0  0  0  0  0  0  0
    0.0535    0.1558    0.7324 C   0  0  0  0  0  0  0  0  0  0  0  0
    1.4378    0.6685    0.8041 C   0  0  0  0  0  0  0  0  0  0  0  0
    1.7560    1.6351    1.4891 O   0  0  0  0  0  0  0  0  0  0  0  0
    2.3290   -0.0269    0.0026 N   0  0  0  0  0  0  0  0  0  0  0  0
    3.7328    0.3415   -0.1954 C   0  0  2  0  0  0  0  0  0  0  0  0
    4.5289    0.3356    1.1346 C   0  0  0  0  0  0  0  0  0  0  0  0
    6.0092    0.6729    0.8818 C   0  0  1  0  0  0  0  0  0  0  0  0
    6.6169   -0.3784   -0.0594 C   0  0  0  0  0  0  0  0  0  0  0  0
    5.8599   -0.3840   -1.3962 C   0  0  2  0  0  0  0  0  0  0  0  0
    5.9621    1.0052   -2.0455 C   0  0  0  0  0  0  0  0  0  0  0  0
    5.3514    2.0657   -1.1158 C   0  0  2  0  0  0  0  0  0  0  0  0
    6.1064    2.0603    0.2244 C   0  0  0  0  0  0  0  0  0  0  0  0
    3.8704    1.7306   -0.8652 C   0  0  0  0  0  0  0  0  0  0  0  0
    4.3810   -0.7111   -1.1360 C   0  0  0  0  0  0  0  0  0  0  0  0
   -0.9918    0.9979    0.6709 N   0  0  0  0  0  0  0  0  0  0  0  0
   -2.0725    0.2034    0.6146 N   0  0  0  0  0  0  0  0  0  0  0  0
   -3.3868    0.8199    0.5459 C   0  0  0  0  0  0  0  0  0  0  0  0
   -3.7991    1.1010   -0.8951 C   0  0  0  0  0  0  0  0  0  0  0  0
   -5.2123    1.6214   -0.9714 C   0  0  0  0  0  0  0  0  0  0  0  0
   -6.2915    0.7303   -1.0488 C   0  0  0  0  0  0  0  0  0  0  0  0
   -7.6008    1.2106   -1.0957 C   0  0  0  0  0  0  0  0  0  0  0  0
   -7.8427    2.5827   -1.0613 C   0  0  0  0  0  0  0  0  0  0  0  0
   -6.7760    3.4760   -0.9782 C   0  0  0  0  0  0  0  0  0  0  0  0
   -5.4656    2.9985   -0.9310 C   0  0  0  0  0  0  0  0  0  0  0  0
   -1.7725   -1.1362    0.6049 C   0  0  0  0  0  0  0  0  0  0  0  0
   -2.7658   -2.1985    0.5185 C   0  0  0  0  0  0  0  0  0  0  0  0
   -3.0814   -2.7662   -0.7206 C   0  0  0  0  0  0  0  0  0  0  0  0
   -4.0409   -3.7764   -0.8063 C   0  0  0  0  0  0  0  0  0  0  0  0
   -4.6843   -4.2266    0.3460 C   0  0  0  0  0  0  0  0  0  0  0  0
   -4.3675   -3.6705    1.5849 C   0  0  0  0  0  0  0  0  0  0  0  0
   -3.4087   -2.6599    1.6722 C   0  0  0  0  0  0  0  0  0  0  0  0
    1.3034   -2.2850    1.4416 H   0  0  0  0  0  0  0  0  0  0  0  0
   -0.1310   -3.2784    1.1941 H   0  0  0  0  0  0  0  0  0  0  0  0
    0.8002   -2.7208   -0.2068 H   0  0  0  0  0  0  0  0  0  0  0  0
    1.9050   -0.6186   -0.6993 H   0  0  0  0  0  0  0  0  0  0  0  0
    4.1189    1.0627    1.8444 H   0  0  0  0  0  0  0  0  0  0  0  0
    4.4462   -0.6462    1.6191 H   0  0  0  0  0  0  0  0  0  0  0  0
    6.5541    0.6756    1.8325 H   0  0  0  0  0  0  0  0  0  0  0  0
    7.6782   -0.1602   -0.2303 H   0  0  0  0  0  0  0  0  0  0  0  0
    6.5666   -1.3710    0.4046 H   0  0  0  0  0  0  0  0  0  0  0  0
    6.2938   -1.1369   -2.0636 H   0  0  0  0  0  0  0  0  0  0  0  0
    7.0124    1.2465   -2.2505 H   0  0  0  0  0  0  0  0  0  0  0  0
    5.4407    1.0075   -3.0106 H   0  0  0  0  0  0  0  0  0  0  0  0
    5.4317    3.0545   -1.5812 H   0  0  0  0  0  0  0  0  0  0  0  0
    7.1588    2.3233    0.0613 H   0  0  0  0  0  0  0  0  0  0  0  0
    5.6880    2.8223    0.8934 H   0  0  0  0  0  0  0  0  0  0  0  0
    3.3178    1.7486   -1.8138 H   0  0  0  0  0  0  0  0  0  0  0  0
    3.4270    2.5129   -0.2375 H   0  0  0  0  0  0  0  0  0  0  0  0
    3.8394   -0.7483   -2.0909 H   0  0  0  0  0  0  0  0  0  0  0  0
    4.2940   -1.7139   -0.6965 H   0  0  0  0  0  0  0  0  0  0  0  0
   -4.0995    0.1586    1.0502 H   0  0  0  0  0  0  0  0  0  0  0  0
   -3.3474    1.7460    1.1330 H   0  0  0  0  0  0  0  0  0  0  0  0
   -3.1125    1.8245   -1.3539 H   0  0  0  0  0  0  0  0  0  0  0  0
   -3.7175    0.1949   -1.5087 H   0  0  0  0  0  0  0  0  0  0  0  0
   -6.1187   -0.3439   -1.0718 H   0  0  0  0  0  0  0  0  0  0  0  0
   -8.4327    0.5140   -1.1578 H   0  0  0  0  0  0  0  0  0  0  0  0
   -8.8626    2.9563   -1.0976 H   0  0  0  0  0  0  0  0  0  0  0  0
   -6.9645    4.5461   -0.9487 H   0  0  0  0  0  0  0  0  0  0  0  0
   -4.6436    3.7083   -0.8620 H   0  0  0  0  0  0  0  0  0  0  0  0
   -2.5840   -2.4235   -1.6249 H   0  0  0  0  0  0  0  0  0  0  0  0
   -4.2848   -4.2137   -1.7711 H   0  0  0  0  0  0  0  0  0  0  0  0
   -5.4303   -5.0148    0.2794 H   0  0  0  0  0  0  0  0  0  0  0  0
   -4.8654   -4.0252    2.4838 H   0  0  0  0  0  0  0  0  0  0  0  0
   -3.1656   -2.2353    2.6438 H   0  0  0  0  0  0  0  0  0  0  0  0
  1  2  1  0
  2  3  1  0
  3  4  1  0
  4  5  2  0
  4  6  1  0
  7  6  1  1
  7  8  1  0
  8  9  1  0
  9 10  1  0
 10 11  1  0
 11 12  1  0
 12 13  1  0
 13 14  1  0
 13 15  1  0
 11 16  1  0
  3 17  2  0
 17 18  1  0
 18 19  1  0
 19 20  1  0
 20 21  1  0
 21 22  2  0
 22 23  1  0
 23 24  2  0
 24 25  1  0
 25 26  2  0
 18 27  1  0
 27 28  1  0
 28 29  2  0
 29 30  1  0
 30 31  2  0
 31 32  1  0
 32 33  2  0
 27  2  2  0
 33 28  1  0
 15  7  1  0
 26 21  1  0
 16  7  1  0
 14  9  1  0
  1 34  1  0
  1 35  1  0
  1 36  1  0
  6 37  1  0
  8 38  1  0
  8 39  1  0
  9 40  1  1
 10 41  1  0
 10 42  1  0
 11 43  1  6
 12 44  1  0
 12 45  1  0
 13 46  1  6
 14 47  1  0
 14 48  1  0
 15 49  1  0
 15 50  1  0
 16 51  1  0
 16 52  1  0
 19 53  1  0
 19 54  1  0
 20 55  1  0
 20 56  1  0
 22 57  1  0
 23 58  1  0
 24 59  1  0
 25 60  1  0
 26 61  1  0
 29 62  1  0
 30 63  1  0
 31 64  1  0
 32 65  1  0
 33 66  1  0
M  END
>  <_SMILES>  (21) 
Cc1c(C(=O)N[C@]23C[C@H]4C[C@H](C[C@H](C4)C2)C3)nn(CCc2ccccc2)c1-c1ccccc1

$$$$

     RDKit          3D

 64 69  0  0  0  0  0  0  0  0999 V2000
    0.1798   -2.1862   -0.8899 C   0  0  0  0  0  0  0  0  0  0  0  0
    0.8922   -1.3132    0.0891 C   0  0  0  0  0  0  0  0  0  0  0  0
    0.2976   -0.4150    1.0446 C   0  0  0  0  0  0  0  0  0  0  0  0
   -1.1037   -0.0673    1.2943 C   0  0  0  0  0  0  0  0  0  0  0  0
   -1.4988    0.2736    2.4033 O   0  0  0  0  0  0  0  0  0  0  0  0
   -1.8992   -0.1001    0.1699 N   0  0  0  0  0  0  0  0  0  0  0  0
   -3.3040    0.3103    0.1256 C   0  0  2  0  0  0  0  0  0  0  0  0
   -4.1837   -0.5235    1.0916 C   0  0  0  0  0  0  0  0  0  0  0  0
   -5.6599   -0.1026    0.9803 C   0  0  1  0  0  0  0  0  0  0  0  0
   -5.7867    1.3919    1.3221 C   0  0  0  0  0  0  0  0  0  0  0  0
   -4.9468    2.2320    0.3450 C   0  0  2  0  0  0  0  0  0  0  0  0
   -5.4389    1.9828   -1.0896 C   0  0  0  0  0  0  0  0  0  0  0  0
   -5.3067    0.4920   -1.4386 C   0  0  2  0  0  0  0  0  0  0  0  0
   -6.1487   -0.3375   -0.4573 C   0  0  0  0  0  0  0  0  0  0  0  0
   -3.8328    0.0743   -1.3155 C   0  0  0  0  0  0  0  0  0  0  0  0
   -3.4699    1.8138    0.4562 C   0  0  0  0  0  0  0  0  0  0  0  0
    1.3426    0.1016    1.7889 C   0  0  0  0  0  0  0  0  0  0  0  0
    2.5283   -0.3724    1.2916 N   0  0  0  0  0  0  0  0  0  0  0  0
    3.8365   -0.0267    1.8454 C   0  0  0  0  0  0  0  0  0  0  0  0
    4.5486    1.0249    1.0300 C   0  0  0  0  0  0  0  0  0  0  0  0
    4.0435    2.3307    0.9360 C   0  0  0  0  0  0  0  0  0  0  0  0
    4.7134    3.2993    0.1866 C   0  0  0  0  0  0  0  0  0  0  0  0
    5.8966    2.9762   -0.4742 C   0  0  0  0  0  0  0  0  0  0  0  0
    6.4118    1.6849   -0.3858 C   0  0  0  0  0  0  0  0  0  0  0  0
    5.7440    0.7153    0.3641 C   0  0  0  0  0  0  0  0  0  0  0  0
    2.2745   -1.2514    0.2590 C   0  0  0  0  0  0  0  0  0  0  0  0
    3.3194   -1.9627   -0.4738 C   0  0  0  0  0  0  0  0  0  0  0  0
    3.8147   -3.1801    0.0056 C   0  0  0  0  0  0  0  0  0  0  0  0
    4.8129   -3.8575   -0.6970 C   0  0  0  0  0  0  0  0  0  0  0  0
    5.3165   -3.3232   -1.8827 C   0  0  0  0  0  0  0  0  0  0  0  0
    4.8209   -2.1139   -2.3692 C   0  0  0  0  0  0  0  0  0  0  0  0
    3.8218   -1.4365   -1.6683 C   0  0  0  0  0  0  0  0  0  0  0  0
    0.7738   -3.0680   -1.1498 H   0  0  0  0  0  0  0  0  0  0  0  0
   -0.7665   -2.5493   -0.4770 H   0  0  0  0  0  0  0  0  0  0  0  0
   -0.0268   -1.6324   -1.8110 H   0  0  0  0  0  0  0  0  0  0  0  0
   -1.4000   -0.1275   -0.7080 H   0  0  0  0  0  0  0  0  0  0  0  0
   -4.0816   -1.5932    0.8663 H   0  0  0  0  0  0  0  0  0  0  0  0
   -3.8588   -0.3971    2.1306 H   0  0  0  0  0  0  0  0  0  0  0  0
   -6.2652   -0.6935    1.6768 H   0  0  0  0  0  0  0  0  0  0  0  0
   -5.4536    1.5705    2.3519 H   0  0  0  0  0  0  0  0  0  0  0  0
   -6.8385    1.6991    1.2702 H   0  0  0  0  0  0  0  0  0  0  0  0
   -5.0481    3.2952    0.5902 H   0  0  0  0  0  0  0  0  0  0  0  0
   -6.4846    2.2992   -1.1874 H   0  0  0  0  0  0  0  0  0  0  0  0
   -4.8562    2.5866   -1.7961 H   0  0  0  0  0  0  0  0  0  0  0  0
   -5.6560    0.3196   -2.4628 H   0  0  0  0  0  0  0  0  0  0  0  0
   -6.0768   -1.4029   -0.7084 H   0  0  0  0  0  0  0  0  0  0  0  0
   -7.2066   -0.0606   -0.5437 H   0  0  0  0  0  0  0  0  0  0  0  0
   -3.2287    0.6409   -2.0369 H   0  0  0  0  0  0  0  0  0  0  0  0
   -3.7223   -0.9837   -1.5892 H   0  0  0  0  0  0  0  0  0  0  0  0
   -2.8579    2.4197   -0.2248 H   0  0  0  0  0  0  0  0  0  0  0  0
   -3.1101    2.0332    1.4685 H   0  0  0  0  0  0  0  0  0  0  0  0
    1.3200    0.7908    2.6242 H   0  0  0  0  0  0  0  0  0  0  0  0
    4.4201   -0.9504    1.9244 H   0  0  0  0  0  0  0  0  0  0  0  0
    3.6869    0.3381    2.8690 H   0  0  0  0  0  0  0  0  0  0  0  0
    3.1201    2.6021    1.4437 H   0  0  0  0  0  0  0  0  0  0  0  0
    4.3102    4.3063    0.1181 H   0  0  0  0  0  0  0  0  0  0  0  0
    6.4167    3.7307   -1.0584 H   0  0  0  0  0  0  0  0  0  0  0  0
    7.3335    1.4305   -0.9025 H   0  0  0  0  0  0  0  0  0  0  0  0
    6.1583   -0.2900    0.4145 H   0  0  0  0  0  0  0  0  0  0  0  0
    3.4207   -3.6061    0.9252 H   0  0  0  0  0  0  0  0  0  0  0  0
    5.1938   -4.8035   -0.3213 H   0  0  0  0  0  0  0  0  0  0  0  0
    6.0927   -3.8516   -2.4303 H   0  0  0  0  0  0  0  0  0  0  0  0
    5.2114   -1.6965   -3.2935 H   0  0  0  0  0  0  0  0  0  0  0  0
    3.4444   -0.4902   -2.0492 H   0  0  0  0  0  0  0  0  0  0  0  0
  1  2  1  0
  2  3  1  0
  3  4  1  0
  4  5  2  0
  4  6  1  0
  7  6  1  6
  7  8  1  0
  8  9  1  0
  9 10  1  0
 10 11  1  0
 11 12  1  0
 12 13  1  0
 13 14  1  0
 13 15  1  0
 11 16  1  0
  3 17  2  0
 17 18  1  0
 18 19  1  0
 19 20  1  0
 20 21  2  0
 21 22  1  0
 22 23  2  0
 23 24  1  0
 24 25  2  0
 18 26  1  0
 26 27  1  0
 27 28  2  0
 28 29  1  0
 29 30  2  0
 30 31  1  0
 31 32  2  0
 26  2  2  0
 32 27  1  0
 15  7  1  0
 25 20  1  0
 16  7  1  0
 14  9  1  0
  1 33  1  0
  1 34  1  0
  1 35  1  0
  6 36  1  0
  8 37  1  0
  8 38  1  0
  9 39  1  1
 10 40  1  0
 10 41  1  0
 11 42  1  1
 12 43  1  0
 12 44  1  0
 13 45  1  6
 14 46  1  0
 14 47  1  0
 15 48  1  0
 15 49  1  0
 16 50  1  0
 16 51  1  0
 17 52  1  0
 19 53  1  0
 19 54  1  0
 21 55  1  0
 22 56  1  0
 23 57  1  0
 24 58  1  0
 25 59  1  0
 28 60  1  0
 29 61  1  0
 30 62  1  0
 31 63  1  0
 32 64  1  0
M  END
>  <_SMILES>  (22) 
Cc1c(C(=O)N[C@]23C[C@H]4C[C@H](C[C@H](C4)C2)C3)cn(Cc2ccccc2)c1-c1ccccc1

$$$$

     RDKit          3D

 50 54  0  0  0  0  0  0  0  0999 V2000
    2.0097   -1.1690    0.6807 C   0  0  0  0  0  0  0  0  0  0  0  0
    2.3714   -0.2183   -0.4035 C   0  0  0  0  0  0  0  0  0  0  0  0
    1.5061    0.3198   -1.4163 C   0  0  0  0  0  0  0  0  0  0  0  0
    0.0526    0.1111   -1.5856 C   0  0  0  0  0  0  0  0  0  0  0  0
   -0.4721   -0.0641   -2.6803 O   0  0  0  0  0  0  0  0  0  0  0  0
   -0.6559    0.1613   -0.3957 N   0  0  0  0  0  0  0  0  0  0  0  0
   -2.1158    0.0949   -0.2936 C   0  0  2  0  0  0  0  0  0  0  0  0
   -2.7939    1.2904   -1.0063 C   0  0  0  0  0  0  0  0  0  0  0  0
   -4.3218    1.2279   -0.8321 C   0  0  1  0  0  0  0  0  0  0  0  0
   -4.8460   -0.0920   -1.4231 C   0  0  0  0  0  0  0  0  0  0  0  0
   -4.2077   -1.2884   -0.6967 C   0  0  2  0  0  0  0  0  0  0  0  0
   -4.5531   -1.2171    0.7987 C   0  0  0  0  0  0  0  0  0  0  0  0
   -4.0229    0.0951    1.3963 C   0  0  2  0  0  0  0  0  0  0  0  0
   -4.6653    1.2842    0.6649 C   0  0  0  0  0  0  0  0  0  0  0  0
   -2.4985    0.1532    1.2108 C   0  0  0  0  0  0  0  0  0  0  0  0
   -2.6796   -1.2289   -0.8701 C   0  0  0  0  0  0  0  0  0  0  0  0
    2.1962    1.1011   -2.2646 N   0  0  0  0  0  0  0  0  0  0  0  0
    3.4525    1.0642   -1.8110 N   0  0  0  0  0  0  0  0  0  0  0  0
    3.6258    0.3023   -0.6872 C   0  0  0  0  0  0  0  0  0  0  0  0
    4.9204    0.1522   -0.0330 C   0  0  0  0  0  0  0  0  0  0  0  0
    5.0488    0.3816    1.3432 C   0  0  0  0  0  0  0  0  0  0  0  0
    6.2889    0.2438    1.9734 C   0  0  0  0  0  0  0  0  0  0  0  0
    7.4061   -0.1263    1.2284 C   0  0  0  0  0  0  0  0  0  0  0  0
    8.9322   -0.2972    2.0030 Cl  0  0  0  0  0  0  0  0  0  0  0  0
    7.2939   -0.3597   -0.1403 C   0  0  0  0  0  0  0  0  0  0  0  0
    6.0533   -0.2201   -0.7699 C   0  0  0  0  0  0  0  0  0  0  0  0
    2.8654   -1.7868    0.9708 H   0  0  0  0  0  0  0  0  0  0  0  0
    1.2151   -1.8500    0.3598 H   0  0  0  0  0  0  0  0  0  0  0  0
    1.6648   -0.6236    1.5646 H   0  0  0  0  0  0  0  0  0  0  0  0
   -0.1583    0.5680    0.3849 H   0  0  0  0  0  0  0  0  0  0  0  0
   -2.4106    2.2370   -0.6031 H   0  0  0  0  0  0  0  0  0  0  0  0
   -2.5549    1.2942   -2.0765 H   0  0  0  0  0  0  0  0  0  0  0  0
   -4.7865    2.0747   -1.3494 H   0  0  0  0  0  0  0  0  0  0  0  0
   -5.9379   -0.1364   -1.3278 H   0  0  0  0  0  0  0  0  0  0  0  0
   -4.6180   -0.1393   -2.4951 H   0  0  0  0  0  0  0  0  0  0  0  0
   -4.5904   -2.2242   -1.1193 H   0  0  0  0  0  0  0  0  0  0  0  0
   -5.6395   -1.2800    0.9362 H   0  0  0  0  0  0  0  0  0  0  0  0
   -4.1153   -2.0736    1.3260 H   0  0  0  0  0  0  0  0  0  0  0  0
   -4.2681    0.1410    2.4632 H   0  0  0  0  0  0  0  0  0  0  0  0
   -4.3082    2.2274    1.0963 H   0  0  0  0  0  0  0  0  0  0  0  0
   -5.7537    1.2641    0.8006 H   0  0  0  0  0  0  0  0  0  0  0  0
   -2.1080    1.0743    1.6642 H   0  0  0  0  0  0  0  0  0  0  0  0
   -2.0264   -0.6776    1.7524 H   0  0  0  0  0  0  0  0  0  0  0  0
   -2.2123   -2.0872   -0.3697 H   0  0  0  0  0  0  0  0  0  0  0  0
   -2.4424   -1.3293   -1.9352 H   0  0  0  0  0  0  0  0  0  0  0  0
    4.1555    1.5989   -2.3094 H   0  0  0  0  0  0  0  0  0  0  0  0
    4.1862    0.6798    1.9350 H   0  0  0  0  0  0  0  0  0  0  0  0
    6.3749    0.4276    3.0410 H   0  0  0  0  0  0  0  0  0  0  0  0
    8.1635   -0.6554   -0.7215 H   0  0  0  0  0  0  0  0  0  0  0  0
    5.9798   -0.4256   -1.8358 H   0  0  0  0  0  0  0  0  0  0  0  0
  1  2  1  0
  2  3  1  0
  3  4  1  0
  4  5  2  0
  4  6  1  0
  7  6  1  1
  7  8  1  0
  8  9  1  0
  9 10  1  0
 10 11  1  0
 11 12  1  0
 12 13  1  0
 13 14  1  0
 13 15  1  0
 11 16  1  0
  3 17  2  0
 17 18  1  0
 18 19  1  0
 19 20  1  0
 20 21  1  0
 21 22  2  0
 22 23  1  0
 23 24  1  0
 23 25  2  0
 25 26  1  0
 19  2  2  0
 26 20  2  0
 15  7  1  0
 16  7  1  0
 14  9  1  0
  1 27  1  0
  1 28  1  0
  1 29  1  0
  6 30  1  0
  8 31  1  0
  8 32  1  0
  9 33  1  6
 10 34  1  0
 10 35  1  0
 11 36  1  6
 12 37  1  0
 12 38  1  0
 13 39  1  1
 14 40  1  0
 14 41  1  0
 15 42  1  0
 15 43  1  0
 16 44  1  0
 16 45  1  0
 18 46  1  0
 21 47  1  0
 22 48  1  0
 25 49  1  0
 26 50  1  0
M  END
>  <_SMILES>  (23) 
Cc1c(C(=O)N[C@]23C[C@H]4C[C@H](C[C@H](C4)C2)C3)n[nH]c1-c1ccc(Cl)cc1

$$$$

     RDKit          3D

 50 54  0  0  0  0  0  0  0  0999 V2000
    2.8544   -1.5066    1.0990 C   0  0  0  0  0  0  0  0  0  0  0  0
    2.6612   -0.2241    0.3714 C   0  0  0  0  0  0  0  0  0  0  0  0
    3.6556    0.6098   -0.2342 C   0  0  0  0  0  0  0  0  0  0  0  0
    5.1083    0.4365   -0.2633 C   0  0  0  0  0  0  0  0  0  0  0  0
    5.8189    0.6712   -1.4501 C   0  0  0  0  0  0  0  0  0  0  0  0
    7.2069    0.5110   -1.4923 C   0  0  0  0  0  0  0  0  0  0  0  0
    7.8920    0.1223   -0.3436 C   0  0  0  0  0  0  0  0  0  0  0  0
    9.6003   -0.0754   -0.3921 Cl  0  0  0  0  0  0  0  0  0  0  0  0
    7.2028   -0.1022    0.8466 C   0  0  0  0  0  0  0  0  0  0  0  0
    5.8140    0.0581    0.8875 C   0  0  0  0  0  0  0  0  0  0  0  0
    3.0864    1.6607   -0.8446 N   0  0  0  0  0  0  0  0  0  0  0  0
    1.7851    1.5449   -0.5641 N   0  0  0  0  0  0  0  0  0  0  0  0
    1.4523    0.4115    0.1187 C   0  0  0  0  0  0  0  0  0  0  0  0
    0.1124    0.0531    0.5175 C   0  0  0  0  0  0  0  0  0  0  0  0
   -0.1248   -0.6101    1.5193 O   0  0  0  0  0  0  0  0  0  0  0  0
   -0.8685    0.5021   -0.3466 N   0  0  0  0  0  0  0  0  0  0  0  0
   -2.2982    0.1956   -0.1996 C   0  0  2  0  0  0  0  0  0  0  0  0
   -3.0660    0.9194   -1.3402 C   0  0  0  0  0  0  0  0  0  0  0  0
   -4.5746    0.6379   -1.2574 C   0  0  1  0  0  0  0  0  0  0  0  0
   -4.8116   -0.8763   -1.3701 C   0  0  0  0  0  0  0  0  0  0  0  0
   -4.0833   -1.6081   -0.2316 C   0  0  2  0  0  0  0  0  0  0  0  0
   -4.6122   -1.0970    1.1194 C   0  0  0  0  0  0  0  0  0  0  0  0
   -4.3791    0.4188    1.2408 C   0  0  2  0  0  0  0  0  0  0  0  0
   -5.1065    1.1375    0.0943 C   0  0  0  0  0  0  0  0  0  0  0  0
   -2.8701    0.7077    1.1475 C   0  0  0  0  0  0  0  0  0  0  0  0
   -2.5740   -1.3228   -0.3266 C   0  0  0  0  0  0  0  0  0  0  0  0
    3.7437   -2.0363    0.7441 H   0  0  0  0  0  0  0  0  0  0  0  0
    2.9643   -1.3211    2.1719 H   0  0  0  0  0  0  0  0  0  0  0  0
    2.0034   -2.1788    0.9505 H   0  0  0  0  0  0  0  0  0  0  0  0
    5.2890    0.9832   -2.3482 H   0  0  0  0  0  0  0  0  0  0  0  0
    7.7419    0.6953   -2.4198 H   0  0  0  0  0  0  0  0  0  0  0  0
    7.7380   -0.3941    1.7462 H   0  0  0  0  0  0  0  0  0  0  0  0
    5.2941   -0.0975    1.8296 H   0  0  0  0  0  0  0  0  0  0  0  0
    1.1649    2.2896   -0.8623 H   0  0  0  0  0  0  0  0  0  0  0  0
   -0.5625    0.7021   -1.2888 H   0  0  0  0  0  0  0  0  0  0  0  0
   -2.8866    2.0017   -1.2877 H   0  0  0  0  0  0  0  0  0  0  0  0
   -2.6851    0.5938   -2.3176 H   0  0  0  0  0  0  0  0  0  0  0  0
   -5.0930    1.1549   -2.0726 H   0  0  0  0  0  0  0  0  0  0  0  0
   -4.4526   -1.2411   -2.3404 H   0  0  0  0  0  0  0  0  0  0  0  0
   -5.8863   -1.0916   -1.3270 H   0  0  0  0  0  0  0  0  0  0  0  0
   -4.2603   -2.6863   -0.3136 H   0  0  0  0  0  0  0  0  0  0  0  0
   -4.1087   -1.6207    1.9413 H   0  0  0  0  0  0  0  0  0  0  0  0
   -5.6827   -1.3185    1.2095 H   0  0  0  0  0  0  0  0  0  0  0  0
   -4.7638    0.7758    2.2027 H   0  0  0  0  0  0  0  0  0  0  0  0
   -6.1862    0.9561    0.1628 H   0  0  0  0  0  0  0  0  0  0  0  0
   -4.9598    2.2214    0.1781 H   0  0  0  0  0  0  0  0  0  0  0  0
   -2.6885    1.7857    1.2486 H   0  0  0  0  0  0  0  0  0  0  0  0
   -2.3689    0.2318    1.9976 H   0  0  0  0  0  0  0  0  0  0  0  0
   -2.1823   -1.6988   -1.2808 H   0  0  0  0  0  0  0  0  0  0  0  0
   -2.0537   -1.8824    0.4597 H   0  0  0  0  0  0  0  0  0  0  0  0
  1  2  1  0
  2  3  1  0
  3  4  1  0
  4  5  1  0
  5  6  2  0
  6  7  1  0
  7  8  1  0
  7  9  2  0
  9 10  1  0
  3 11  2  0
 11 12  1  0
 12 13  1  0
 13 14  1  0
 14 15  2  0
 14 16  1  0
 17 16  1  1
 17 18  1  0
 18 19  1  0
 19 20  1  0
 20 21  1  0
 21 22  1  0
 22 23  1  0
 23 24  1  0
 23 25  1  0
 21 26  1  0
 13  2  2  0
 25 17  1  0
 10  4  2  0
 26 17  1  0
 24 19  1  0
  1 27  1  0
  1 28  1  0
  1 29  1  0
  5 30  1  0
  6 31  1  0
  9 32  1  0
 10 33  1  0
 12 34  1  0
 16 35  1  0
 18 36  1  0
 18 37  1  0
 19 38  1  6
 20 39  1  0
 20 40  1  0
 21 41  1  6
 22 42  1  0
 22 43  1  0
 23 44  1  1
 24 45  1  0
 24 46  1  0
 25 47  1  0
 25 48  1  0
 26 49  1  0
 26 50  1  0
M  END
>  <_SMILES>  (24) 
Cc1c(-c2ccc(Cl)cc2)n[nH]c1C(=O)N[C@]12C[C@H]3C[C@H](C[C@H](C3)C1)C2

$$$$

     RDKit          3D

 59 64  0  0  0  0  0  0  0  0999 V2000
    0.8789    1.6088    1.6272 C   0  0  0  0  0  0  0  0  0  0  0  0
    1.4536    0.4785    0.8473 C   0  0  0  0  0  0  0  0  0  0  0  0
    0.7567   -0.6435    0.3162 C   0  0  0  0  0  0  0  0  0  0  0  0
   -0.6941   -0.9221    0.3430 C   0  0  0  0  0  0  0  0  0  0  0  0
   -1.1521   -2.0377    0.5653 O   0  0  0  0  0  0  0  0  0  0  0  0
   -1.4770    0.1867    0.0651 N   0  0  0  0  0  0  0  0  0  0  0  0
   -2.9353    0.1600   -0.0762 C   0  0  2  0  0  0  0  0  0  0  0  0
   -3.4210    1.6093   -0.3532 C   0  0  0  0  0  0  0  0  0  0  0  0
   -4.9479    1.6583   -0.5206 C   0  0  1  0  0  0  0  0  0  0  0  0
   -5.3553    0.7554   -1.6956 C   0  0  0  0  0  0  0  0  0  0  0  0
   -4.9084   -0.6903   -1.4266 C   0  0  2  0  0  0  0  0  0  0  0  0
   -5.5684   -1.1920   -0.1308 C   0  0  0  0  0  0  0  0  0  0  0  0
   -5.1658   -0.2937    1.0512 C   0  0  2  0  0  0  0  0  0  0  0  0
   -5.6121    1.1488    0.7675 C   0  0  0  0  0  0  0  0  0  0  0  0
   -3.6360   -0.3305    1.2164 C   0  0  0  0  0  0  0  0  0  0  0  0
   -3.3785   -0.7282   -1.2644 C   0  0  0  0  0  0  0  0  0  0  0  0
    1.6081   -1.5110   -0.2409 N   0  0  0  0  0  0  0  0  0  0  0  0
    2.8406   -0.9478   -0.1640 N   0  0  0  0  0  0  0  0  0  0  0  0
    3.9341   -1.6234   -0.7992 C   0  0  0  0  0  0  0  0  0  0  0  0
    3.7509   -2.9534   -1.2222 C   0  0  0  0  0  0  0  0  0  0  0  0
    4.7853   -3.6572   -1.8444 C   0  0  0  0  0  0  0  0  0  0  0  0
    6.0130   -3.0408   -2.0626 C   0  0  0  0  0  0  0  0  0  0  0  0
    6.2024   -1.7193   -1.6670 C   0  0  0  0  0  0  0  0  0  0  0  0
    5.1688   -1.0102   -1.0432 C   0  0  0  0  0  0  0  0  0  0  0  0
    2.7941    0.2548    0.5463 C   0  0  0  0  0  0  0  0  0  0  0  0
    3.9357    1.0553    0.9844 C   0  0  0  0  0  0  0  0  0  0  0  0
    4.7940    0.5798    1.9772 C   0  0  0  0  0  0  0  0  0  0  0  0
    5.8486    1.3849    2.3719 C   0  0  0  0  0  0  0  0  0  0  0  0
    6.0911    2.6092    1.8563 N   0  0  0  0  0  0  0  0  0  0  0  0
    5.2373    3.0536    0.9100 C   0  0  0  0  0  0  0  0  0  0  0  0
    4.1545    2.3251    0.4481 C   0  0  0  0  0  0  0  0  0  0  0  0
    1.6044    2.0181    2.3371 H   0  0  0  0  0  0  0  0  0  0  0  0
    0.5678    2.4131    0.9532 H   0  0  0  0  0  0  0  0  0  0  0  0
    0.0094    1.2864    2.2088 H   0  0  0  0  0  0  0  0  0  0  0  0
   -0.9903    0.9691   -0.3510 H   0  0  0  0  0  0  0  0  0  0  0  0
   -2.9393    2.0022   -1.2588 H   0  0  0  0  0  0  0  0  0  0  0  0
   -3.1157    2.2725    0.4673 H   0  0  0  0  0  0  0  0  0  0  0  0
   -5.2658    2.6881   -0.7181 H   0  0  0  0  0  0  0  0  0  0  0  0
   -6.4426    0.7916   -1.8365 H   0  0  0  0  0  0  0  0  0  0  0  0
   -4.9016    1.1213   -2.6249 H   0  0  0  0  0  0  0  0  0  0  0  0
   -5.2060   -1.3304   -2.2647 H   0  0  0  0  0  0  0  0  0  0  0  0
   -6.6596   -1.1938   -0.2439 H   0  0  0  0  0  0  0  0  0  0  0  0
   -5.2673   -2.2282    0.0662 H   0  0  0  0  0  0  0  0  0  0  0  0
   -5.6443   -0.6540    1.9688 H   0  0  0  0  0  0  0  0  0  0  0  0
   -6.7038    1.1911    0.6687 H   0  0  0  0  0  0  0  0  0  0  0  0
   -5.3433    1.7973    1.6103 H   0  0  0  0  0  0  0  0  0  0  0  0
   -3.3339   -1.3538    1.4663 H   0  0  0  0  0  0  0  0  0  0  0  0
   -3.3363    0.2943    2.0681 H   0  0  0  0  0  0  0  0  0  0  0  0
   -3.0593   -1.7668   -1.1165 H   0  0  0  0  0  0  0  0  0  0  0  0
   -2.8963   -0.3881   -2.1903 H   0  0  0  0  0  0  0  0  0  0  0  0
    2.8028   -3.4663   -1.0629 H   0  0  0  0  0  0  0  0  0  0  0  0
    4.6269   -4.6862   -2.1570 H   0  0  0  0  0  0  0  0  0  0  0  0
    6.8179   -3.5864   -2.5480 H   0  0  0  0  0  0  0  0  0  0  0  0
    7.1566   -1.2313   -1.8521 H   0  0  0  0  0  0  0  0  0  0  0  0
    5.3679    0.0258   -0.8010 H   0  0  0  0  0  0  0  0  0  0  0  0
    4.6501   -0.3933    2.4354 H   0  0  0  0  0  0  0  0  0  0  0  0
    6.5467    1.0574    3.1372 H   0  0  0  0  0  0  0  0  0  0  0  0
    5.4540    4.0441    0.5200 H   0  0  0  0  0  0  0  0  0  0  0  0
    3.5049    2.7387   -0.3154 H   0  0  0  0  0  0  0  0  0  0  0  0
  1  2  1  0
  2  3  1  0
  3  4  1  0
  4  5  2  0
  4  6  1  0
  7  6  1  1
  7  8  1  0
  8  9  1  0
  9 10  1  0
 10 11  1  0
 11 12  1  0
 12 13  1  0
 13 14  1  0
 13 15  1  0
 11 16  1  0
  3 17  2  0
 17 18  1  0
 18 19  1  0
 19 20  2  0
 20 21  1  0
 21 22  2  0
 22 23  1  0
 23 24  2  0
 18 25  1  0
 25 26  1  0
 26 27  2  0
 27 28  1  0
 28 29  2  0
 29 30  1  0
 30 31  2  0
 25  2  2  0
 31 26  1  0
 15  7  1  0
 24 19  1  0
 16  7  1  0
 14  9  1  0
  1 32  1  0
  1 33  1  0
  1 34  1  0
  6 35  1  0
  8 36  1  0
  8 37  1  0
  9 38  1  6
 10 39  1  0
 10 40  1  0
 11 41  1  6
 12 42  1  0
 12 43  1  0
 13 44  1  1
 14 45  1  0
 14 46  1  0
 15 47  1  0
 15 48  1  0
 16 49  1  0
 16 50  1  0
 20 51  1  0
 21 52  1  0
 22 53  1  0
 23 54  1  0
 24 55  1  0
 27 56  1  0
 28 57  1  0
 30 58  1  0
 31 59  1  0
M  END
>  <_SMILES>  (25) 
Cc1c(C(=O)N[C@]23C[C@H]4C[C@H](C[C@H](C4)C2)C3)nn(-c2ccccc2)c1-c1ccncc1

$$$$

     RDKit          3D

 62 67  0  0  0  0  0  0  0  0999 V2000
    1.1049   -2.2493   -0.0079 C   0  0  0  0  0  0  0  0  0  0  0  0
    1.6732   -0.8958    0.2639 C   0  0  0  0  0  0  0  0  0  0  0  0
    0.9623    0.2706    0.7212 C   0  0  0  0  0  0  0  0  0  0  0  0
   -0.4597    0.4871    0.9963 C   0  0  0  0  0  0  0  0  0  0  0  0
   -0.8463    1.3116    1.8185 O   0  0  0  0  0  0  0  0  0  0  0  0
   -1.3079   -0.2635    0.2265 N   0  0  0  0  0  0  0  0  0  0  0  0
   -2.7438   -0.1934    0.2681 C   0  0  1  0  0  0  0  0  0  0  0  0
   -3.3029   -0.6928    1.6166 C   0  0  0  0  0  0  0  0  0  0  0  0
   -4.7136   -0.1433    1.8826 C   0  0  0  0  0  0  0  0  0  0  0  0
   -5.4978    0.0773    0.5753 C   0  0  2  0  0  0  0  0  0  0  0  0
   -6.9198    0.5494    0.8877 C   0  0  0  0  0  0  0  0  0  0  0  0
   -5.5203   -1.2524   -0.2231 C   0  0  0  0  0  0  0  0  0  0  0  0
   -4.4645   -1.0242   -1.2978 C   0  0  1  0  0  0  0  0  0  0  0  0
   -4.7893    0.3921   -1.7408 C   0  0  0  0  0  0  0  0  0  0  0  0
   -4.7630    1.0906   -0.3805 C   0  0  2  0  0  0  0  0  0  0  0  0
   -3.2770    1.2190   -0.0214 C   0  0  0  0  0  0  0  0  0  0  0  0
   -3.1259   -1.1083   -0.7835 O   0  0  0  0  0  0  0  0  0  0  0  0
    1.9179    1.2527    0.9103 C   0  0  0  0  0  0  0  0  0  0  0  0
    3.1433    0.7661    0.5419 N   0  0  0  0  0  0  0  0  0  0  0  0
    4.3745    1.5507    0.5996 C   0  0  0  0  0  0  0  0  0  0  0  0
    4.6372    2.2701   -0.6897 C   0  0  0  0  0  0  0  0  0  0  0  0
    4.0356    3.6266   -0.9597 C   0  0  0  0  0  0  0  0  0  0  0  0
    5.5122    3.4985   -0.7054 C   0  0  0  0  0  0  0  0  0  0  0  0
    3.0180   -0.5472    0.1424 C   0  0  0  0  0  0  0  0  0  0  0  0
    4.1408   -1.3691   -0.3037 C   0  0  0  0  0  0  0  0  0  0  0  0
    4.9348   -2.0463    0.6282 C   0  0  0  0  0  0  0  0  0  0  0  0
    6.0052   -2.8328    0.1991 C   0  0  0  0  0  0  0  0  0  0  0  0
    6.2830   -2.9495   -1.1626 C   0  0  0  0  0  0  0  0  0  0  0  0
    5.4896   -2.2837   -2.0965 C   0  0  0  0  0  0  0  0  0  0  0  0
    4.4187   -1.4973   -1.6686 C   0  0  0  0  0  0  0  0  0  0  0  0
    1.8598   -3.0335    0.1075 H   0  0  0  0  0  0  0  0  0  0  0  0
    0.2943   -2.4825    0.6895 H   0  0  0  0  0  0  0  0  0  0  0  0
    0.7176   -2.2994   -1.0303 H   0  0  0  0  0  0  0  0  0  0  0  0
   -0.9362   -0.7852   -0.5494 H   0  0  0  0  0  0  0  0  0  0  0  0
   -3.3250   -1.7900    1.6260 H   0  0  0  0  0  0  0  0  0  0  0  0
   -2.6684   -0.3958    2.4595 H   0  0  0  0  0  0  0  0  0  0  0  0
   -5.2462   -0.8328    2.5495 H   0  0  0  0  0  0  0  0  0  0  0  0
   -4.6355    0.8074    2.4263 H   0  0  0  0  0  0  0  0  0  0  0  0
   -7.4938    0.7183   -0.0302 H   0  0  0  0  0  0  0  0  0  0  0  0
   -6.9057    1.4905    1.4483 H   0  0  0  0  0  0  0  0  0  0  0  0
   -7.4588   -0.1921    1.4876 H   0  0  0  0  0  0  0  0  0  0  0  0
   -5.3077   -2.1310    0.3941 H   0  0  0  0  0  0  0  0  0  0  0  0
   -6.4985   -1.4082   -0.6951 H   0  0  0  0  0  0  0  0  0  0  0  0
   -4.5588   -1.7439   -2.1158 H   0  0  0  0  0  0  0  0  0  0  0  0
   -4.0521    0.7959   -2.4420 H   0  0  0  0  0  0  0  0  0  0  0  0
   -5.7825    0.4547   -2.2001 H   0  0  0  0  0  0  0  0  0  0  0  0
   -5.2362    2.0767   -0.4209 H   0  0  0  0  0  0  0  0  0  0  0  0
   -3.1481    1.8829    0.8414 H   0  0  0  0  0  0  0  0  0  0  0  0
   -2.7279    1.6832   -0.8510 H   0  0  0  0  0  0  0  0  0  0  0  0
    1.8038    2.2698    1.2647 H   0  0  0  0  0  0  0  0  0  0  0  0
    4.2739    2.2483    1.4402 H   0  0  0  0  0  0  0  0  0  0  0  0
    5.2032    0.8780    0.8400 H   0  0  0  0  0  0  0  0  0  0  0  0
    4.7366    1.5853   -1.5248 H   0  0  0  0  0  0  0  0  0  0  0  0
    3.7079    3.8404   -1.9710 H   0  0  0  0  0  0  0  0  0  0  0  0
    3.4250    4.0896   -0.1926 H   0  0  0  0  0  0  0  0  0  0  0  0
    6.1847    3.6308   -1.5458 H   0  0  0  0  0  0  0  0  0  0  0  0
    5.8986    3.8790    0.2333 H   0  0  0  0  0  0  0  0  0  0  0  0
    4.7186   -1.9657    1.6909 H   0  0  0  0  0  0  0  0  0  0  0  0
    6.6191   -3.3570    0.9268 H   0  0  0  0  0  0  0  0  0  0  0  0
    7.1155   -3.5636   -1.4964 H   0  0  0  0  0  0  0  0  0  0  0  0
    5.7025   -2.3790   -3.1580 H   0  0  0  0  0  0  0  0  0  0  0  0
    3.8010   -0.9845   -2.4020 H   0  0  0  0  0  0  0  0  0  0  0  0
  1  2  1  0
  2  3  1  0
  3  4  1  0
  4  5  2  0
  4  6  1  0
  7  6  1  1
  7  8  1  0
  8  9  1  0
  9 10  1  0
 10 11  1  1
 10 12  1  0
 12 13  1  0
 13 14  1  0
 14 15  1  0
 15 16  1  0
 13 17  1  0
  3 18  2  0
 18 19  1  0
 19 20  1  0
 20 21  1  0
 21 22  1  0
 22 23  1  0
 19 24  1  0
 24 25  1  0
 25 26  2  0
 26 27  1  0
 27 28  2  0
 28 29  1  0
 29 30  2  0
 24  2  2  0
 30 25  1  0
 16  7  1  0
 23 21  1  0
 17  7  1  0
 15 10  1  0
  1 31  1  0
  1 32  1  0
  1 33  1  0
  6 34  1  0
  8 35  1  0
  8 36  1  0
  9 37  1  0
  9 38  1  0
 11 39  1  0
 11 40  1  0
 11 41  1  0
 12 42  1  0
 12 43  1  0
 13 44  1  6
 14 45  1  0
 14 46  1  0
 15 47  1  6
 16 48  1  0
 16 49  1  0
 18 50  1  0
 20 51  1  0
 20 52  1  0
 21 53  1  0
 22 54  1  0
 22 55  1  0
 23 56  1  0
 23 57  1  0
 26 58  1  0
 27 59  1  0
 28 60  1  0
 29 61  1  0
 30 62  1  0
M  END
>  <_SMILES>  (26) 
Cc1c(C(=O)N[C@@]23CC[C@]4(C)C[C@@H](C[C@@H]4C2)O3)cn(CC2CC2)c1-c1ccccc1

$$$$

     RDKit          3D

 69 73  0  0  0  0  0  0  0  0999 V2000
   -1.0730   -2.4935    1.0362 C   0  0  0  0  0  0  0  0  0  0  0  0
   -1.3109   -1.1397    0.4426 C   0  0  0  0  0  0  0  0  0  0  0  0
   -0.2943   -0.2663   -0.0734 C   0  0  0  0  0  0  0  0  0  0  0  0
    1.1394   -0.5535   -0.1491 C   0  0  0  0  0  0  0  0  0  0  0  0
    1.5710   -1.6950   -0.2264 O   0  0  0  0  0  0  0  0  0  0  0  0
    1.9706    0.5543   -0.0642 N   0  0  0  0  0  0  0  0  0  0  0  0
    3.3871    0.3651    0.1401 C   0  0  1  0  0  0  0  0  0  0  0  0
    3.7115   -0.1545    1.5562 C   0  0  0  0  0  0  0  0  0  0  0  0
    5.0935   -0.8196    1.6322 C   0  0  0  0  0  0  0  0  0  0  0  0
    6.1021   -0.1954    0.6505 C   0  0  2  0  0  0  0  0  0  0  0  0
    7.4696   -0.8670    0.8128 C   0  0  0  0  0  0  0  0  0  0  0  0
    6.2066    1.3286    0.9244 C   0  0  0  0  0  0  0  0  0  0  0  0
    5.4256    1.9511   -0.2215 C   0  0  1  0  0  0  0  0  0  0  0  0
    5.8631    1.1063   -1.4017 C   0  0  0  0  0  0  0  0  0  0  0  0
    5.6048   -0.2926   -0.8398 C   0  0  2  0  0  0  0  0  0  0  0  0
    4.0846   -0.5158   -0.9163 C   0  0  0  0  0  0  0  0  0  0  0  0
    3.9391    1.7638   -0.0100 N   0  0  0  0  0  0  0  0  0  0  0  0
   -0.9469    0.8756   -0.5074 C   0  0  0  0  0  0  0  0  0  0  0  0
   -2.3000    0.7116   -0.3125 N   0  0  0  0  0  0  0  0  0  0  0  0
   -3.3078    1.6834   -0.7330 C   0  0  0  0  0  0  0  0  0  0  0  0
   -4.1140    1.2317   -1.9632 C   0  0  0  0  0  0  0  0  0  0  0  0
   -5.5401    0.8089   -1.6303 N   0  0  0  0  0  0  0  0  0  0  0  0
   -6.1414   -0.0299   -2.7309 C   0  0  0  0  0  0  0  0  0  0  0  0
   -6.4520    1.9511   -1.2731 C   0  0  0  0  0  0  0  0  0  0  0  0
   -2.5385   -0.4992    0.3049 C   0  0  0  0  0  0  0  0  0  0  0  0
   -3.8652   -0.9900    0.6727 C   0  0  0  0  0  0  0  0  0  0  0  0
   -4.4135   -2.0917    0.0023 C   0  0  0  0  0  0  0  0  0  0  0  0
   -5.6964   -2.5414    0.3188 C   0  0  0  0  0  0  0  0  0  0  0  0
   -6.4348   -1.8983    1.3110 C   0  0  0  0  0  0  0  0  0  0  0  0
   -5.8870   -0.8164    1.9991 C   0  0  0  0  0  0  0  0  0  0  0  0
   -4.6030   -0.3665    1.6860 C   0  0  0  0  0  0  0  0  0  0  0  0
   -1.9181   -2.8234    1.6478 H   0  0  0  0  0  0  0  0  0  0  0  0
   -0.9155   -3.2296    0.2417 H   0  0  0  0  0  0  0  0  0  0  0  0
   -0.1910   -2.4827    1.6847 H   0  0  0  0  0  0  0  0  0  0  0  0
    1.5053    1.3410    0.3690 H   0  0  0  0  0  0  0  0  0  0  0  0
    2.9719   -0.8949    1.8853 H   0  0  0  0  0  0  0  0  0  0  0  0
    3.6426    0.6594    2.2896 H   0  0  0  0  0  0  0  0  0  0  0  0
    5.4623   -0.7583    2.6639 H   0  0  0  0  0  0  0  0  0  0  0  0
    4.9878   -1.8900    1.4110 H   0  0  0  0  0  0  0  0  0  0  0  0
    8.2052   -0.4459    0.1187 H   0  0  0  0  0  0  0  0  0  0  0  0
    7.4040   -1.9424    0.6144 H   0  0  0  0  0  0  0  0  0  0  0  0
    7.8554   -0.7352    1.8297 H   0  0  0  0  0  0  0  0  0  0  0  0
    5.8311    1.6283    1.9085 H   0  0  0  0  0  0  0  0  0  0  0  0
    7.2511    1.6617    0.8690 H   0  0  0  0  0  0  0  0  0  0  0  0
    5.6072    3.0216   -0.3474 H   0  0  0  0  0  0  0  0  0  0  0  0
    5.3013    1.3209   -2.3167 H   0  0  0  0  0  0  0  0  0  0  0  0
    6.9287    1.2506   -1.6162 H   0  0  0  0  0  0  0  0  0  0  0  0
    6.1278   -1.0586   -1.4216 H   0  0  0  0  0  0  0  0  0  0  0  0
    3.8815   -1.5791   -0.7449 H   0  0  0  0  0  0  0  0  0  0  0  0
    3.7102   -0.2943   -1.9243 H   0  0  0  0  0  0  0  0  0  0  0  0
    3.4643    2.1593   -0.8284 H   0  0  0  0  0  0  0  0  0  0  0  0
    3.6559    2.3296    0.7961 H   0  0  0  0  0  0  0  0  0  0  0  0
   -0.5622    1.7692   -0.9824 H   0  0  0  0  0  0  0  0  0  0  0  0
   -2.7639    2.6014   -0.9869 H   0  0  0  0  0  0  0  0  0  0  0  0
   -3.9264    1.9149    0.1380 H   0  0  0  0  0  0  0  0  0  0  0  0
   -4.2061    2.0529   -2.6829 H   0  0  0  0  0  0  0  0  0  0  0  0
   -3.6329    0.3847   -2.4654 H   0  0  0  0  0  0  0  0  0  0  0  0
   -5.5117    0.1861   -0.8094 H   0  0  0  0  0  0  0  0  0  0  0  0
   -7.1338   -0.3549   -2.4074 H   0  0  0  0  0  0  0  0  0  0  0  0
   -6.2011    0.5789   -3.6369 H   0  0  0  0  0  0  0  0  0  0  0  0
   -5.4990   -0.9009   -2.8840 H   0  0  0  0  0  0  0  0  0  0  0  0
   -6.0288    2.4800   -0.4170 H   0  0  0  0  0  0  0  0  0  0  0  0
   -6.5356    2.6134   -2.1388 H   0  0  0  0  0  0  0  0  0  0  0  0
   -7.4264    1.5356   -1.0025 H   0  0  0  0  0  0  0  0  0  0  0  0
   -3.8373   -2.6206   -0.7555 H   0  0  0  0  0  0  0  0  0  0  0  0
   -6.1086   -3.4158   -0.1823 H   0  0  0  0  0  0  0  0  0  0  0  0
   -7.4224   -2.2703    1.5809 H   0  0  0  0  0  0  0  0  0  0  0  0
   -6.4483   -0.3495    2.8070 H   0  0  0  0  0  0  0  0  0  0  0  0
   -4.1738    0.4518    2.2614 H   0  0  0  0  0  0  0  0  0  0  0  0
  1  2  1  0
  2  3  1  0
  3  4  1  0
  4  5  2  0
  4  6  1  0
  7  6  1  6
  7  8  1  0
  8  9  1  0
  9 10  1  0
 10 11  1  6
 10 12  1  0
 12 13  1  0
 13 14  1  0
 14 15  1  0
 15 16  1  0
 13 17  1  0
  3 18  2  0
 18 19  1  0
 19 20  1  0
 20 21  1  0
 21 22  1  0
 22 23  1  0
 22 24  1  0
 19 25  1  0
 25 26  1  0
 26 27  2  0
 27 28  1  0
 28 29  2  0
 29 30  1  0
 30 31  2  0
 25  2  2  0
 31 26  1  0
 16  7  1  0
 17  7  1  0
 15 10  1  0
  1 32  1  0
  1 33  1  0
  1 34  1  0
  6 35  1  0
  8 36  1  0
  8 37  1  0
  9 38  1  0
  9 39  1  0
 11 40  1  0
 11 41  1  0
 11 42  1  0
 12 43  1  0
 12 44  1  0
 13 45  1  6
 14 46  1  0
 14 47  1  0
 15 48  1  6
 16 49  1  0
 16 50  1  0
 17 51  1  0
 17 52  1  0
 18 53  1  0
 20 54  1  0
 20 55  1  0
 21 56  1  0
 21 57  1  0
 22 58  1  0
 23 59  1  0
 23 60  1  0
 23 61  1  0
 24 62  1  0
 24 63  1  0
 24 64  1  0
 27 65  1  0
 28 66  1  0
 29 67  1  0
 30 68  1  0
 31 69  1  0
M  CHG  2  17   1  22   1
M  END
>  <_SMILES>  (27) 
Cc1c(C(=O)N[C@@]23CC[C@]4(C)C[C@@H](C[C@@H]4C2)[NH2+]3)cn(CC[NH+](C)C)c1-c1ccccc1

$$$$

     RDKit          3D

 67 72  0  0  0  0  0  0  0  0999 V2000
   -1.0925    2.9735   -0.6554 C   0  0  0  0  0  0  0  0  0  0  0  0
   -1.4504    1.6085   -0.1623 C   0  0  0  0  0  0  0  0  0  0  0  0
   -0.5265    0.5369    0.0870 C   0  0  0  0  0  0  0  0  0  0  0  0
    0.9174    0.5586   -0.1209 C   0  0  0  0  0  0  0  0  0  0  0  0
    1.5208    1.4813   -0.6692 O   0  0  0  0  0  0  0  0  0  0  0  0
    1.6192   -0.5536    0.3075 N   0  0  0  0  0  0  0  0  0  0  0  0
    3.0481   -0.5179    0.4403 C   0  0  1  0  0  0  0  0  0  0  0  0
    3.5100    0.4915    1.5119 C   0  0  0  0  0  0  0  0  0  0  0  0
    4.8968    0.1570    2.0788 C   0  0  0  0  0  0  0  0  0  0  0  0
    5.7910   -0.5509    1.0464 C   0  0  2  0  0  0  0  0  0  0  0  0
    7.1746   -0.8151    1.6489 C   0  0  0  0  0  0  0  0  0  0  0  0
    5.9089    0.3356   -0.2253 C   0  0  0  0  0  0  0  0  0  0  0  0
    5.0121   -0.3609   -1.2373 C   0  0  1  0  0  0  0  0  0  0  0  0
    5.3352   -1.8238   -0.9824 C   0  0  0  0  0  0  0  0  0  0  0  0
    5.1370   -1.8889    0.5371 C   0  0  2  0  0  0  0  0  0  0  0  0
    3.6150   -1.9053    0.7791 C   0  0  0  0  0  0  0  0  0  0  0  0
    3.5695   -0.1340   -0.9063 N   0  0  0  0  0  0  0  0  0  0  0  0
   -1.2861   -0.5206    0.5558 C   0  0  0  0  0  0  0  0  0  0  0  0
   -2.6178   -0.1667    0.5328 N   0  0  0  0  0  0  0  0  0  0  0  0
   -3.7051   -1.0654    0.9346 C   0  0  0  0  0  0  0  0  0  0  0  0
   -4.5265   -1.5676   -0.2308 C   0  0  0  0  0  0  0  0  0  0  0  0
   -5.8165   -1.0372   -0.4258 C   0  0  0  0  0  0  0  0  0  0  0  0
   -6.6136   -1.4505   -1.4953 C   0  0  0  0  0  0  0  0  0  0  0  0
   -6.1366   -2.4107   -2.3795 C   0  0  0  0  0  0  0  0  0  0  0  0
   -7.1139   -2.9189   -3.6997 Cl  0  0  0  0  0  0  0  0  0  0  0  0
   -4.8745   -2.9670   -2.1990 C   0  0  0  0  0  0  0  0  0  0  0  0
   -4.0754   -2.5512   -1.1287 C   0  0  0  0  0  0  0  0  0  0  0  0
   -2.5405   -3.3258   -0.9525 Cl  0  0  0  0  0  0  0  0  0  0  0  0
   -2.7298    1.1532    0.1458 C   0  0  0  0  0  0  0  0  0  0  0  0
   -3.9963    1.8789    0.0647 C   0  0  0  0  0  0  0  0  0  0  0  0
   -4.6130    2.3604    1.2250 C   0  0  0  0  0  0  0  0  0  0  0  0
   -5.8212    3.0550    1.1419 C   0  0  0  0  0  0  0  0  0  0  0  0
   -6.4143    3.2776   -0.1003 C   0  0  0  0  0  0  0  0  0  0  0  0
   -5.7986    2.8120   -1.2613 C   0  0  0  0  0  0  0  0  0  0  0  0
   -4.5903    2.1180   -1.1801 C   0  0  0  0  0  0  0  0  0  0  0  0
   -0.3015    3.4084   -0.0360 H   0  0  0  0  0  0  0  0  0  0  0  0
   -0.7386    2.9198   -1.6899 H   0  0  0  0  0  0  0  0  0  0  0  0
   -1.9436    3.6600   -0.6255 H   0  0  0  0  0  0  0  0  0  0  0  0
    1.1158   -1.1600    0.9436 H   0  0  0  0  0  0  0  0  0  0  0  0
    2.8007    0.5051    2.3504 H   0  0  0  0  0  0  0  0  0  0  0  0
    3.5097    1.5139    1.1135 H   0  0  0  0  0  0  0  0  0  0  0  0
    5.3682    1.0798    2.4396 H   0  0  0  0  0  0  0  0  0  0  0  0
    4.7784   -0.4876    2.9600 H   0  0  0  0  0  0  0  0  0  0  0  0
    7.8285   -1.3284    0.9353 H   0  0  0  0  0  0  0  0  0  0  0  0
    7.0994   -1.4448    2.5423 H   0  0  0  0  0  0  0  0  0  0  0  0
    7.6642    0.1215    1.9375 H   0  0  0  0  0  0  0  0  0  0  0  0
    5.6314    1.3823   -0.0612 H   0  0  0  0  0  0  0  0  0  0  0  0
    6.9401    0.3366   -0.6015 H   0  0  0  0  0  0  0  0  0  0  0  0
    5.1754   -0.0391   -2.2688 H   0  0  0  0  0  0  0  0  0  0  0  0
    6.3740   -2.0506   -1.2507 H   0  0  0  0  0  0  0  0  0  0  0  0
    4.6850   -2.5099   -1.5351 H   0  0  0  0  0  0  0  0  0  0  0  0
    5.5966   -2.7869    0.9624 H   0  0  0  0  0  0  0  0  0  0  0  0
    3.3956   -2.1636    1.8232 H   0  0  0  0  0  0  0  0  0  0  0  0
    3.1399   -2.6878    0.1724 H   0  0  0  0  0  0  0  0  0  0  0  0
    2.9843   -0.6316   -1.5864 H   0  0  0  0  0  0  0  0  0  0  0  0
    3.2910    0.8546   -1.0527 H   0  0  0  0  0  0  0  0  0  0  0  0
   -1.0107   -1.5185    0.8684 H   0  0  0  0  0  0  0  0  0  0  0  0
   -3.2694   -1.9066    1.4866 H   0  0  0  0  0  0  0  0  0  0  0  0
   -4.3215   -0.5217    1.6597 H   0  0  0  0  0  0  0  0  0  0  0  0
   -6.2127   -0.2804    0.2510 H   0  0  0  0  0  0  0  0  0  0  0  0
   -7.6017   -1.0164   -1.6307 H   0  0  0  0  0  0  0  0  0  0  0  0
   -4.5169   -3.7277   -2.8886 H   0  0  0  0  0  0  0  0  0  0  0  0
   -4.1525    2.2071    2.1977 H   0  0  0  0  0  0  0  0  0  0  0  0
   -6.2965    3.4311    2.0447 H   0  0  0  0  0  0  0  0  0  0  0  0
   -7.3530    3.8232   -0.1647 H   0  0  0  0  0  0  0  0  0  0  0  0
   -6.2577    2.9928   -2.2302 H   0  0  0  0  0  0  0  0  0  0  0  0
   -4.1182    1.7592   -2.0917 H   0  0  0  0  0  0  0  0  0  0  0  0
  1  2  1  0
  2  3  1  0
  3  4  1  0
  4  5  2  0
  4  6  1  0
  7  6  1  6
  7  8  1  0
  8  9  1  0
  9 10  1  0
 10 11  1  1
 10 12  1  0
 12 13  1  0
 13 14  1  0
 14 15  1  0
 15 16  1  0
 13 17  1  0
  3 18  2  0
 18 19  1  0
 19 20  1  0
 20 21  1  0
 21 22  1  0
 22 23  2  0
 23 24  1  0
 24 25  1  0
 24 26  2  0
 26 27  1  0
 27 28  1  0
 19 29  1  0
 29 30  1  0
 30 31  2  0
 31 32  1  0
 32 33  2  0
 33 34  1  0
 34 35  2  0
 29  2  2  0
 35 30  1  0
 16  7  1  0
 27 21  2  0
 17  7  1  0
 15 10  1  0
  1 36  1  0
  1 37  1  0
  1 38  1  0
  6 39  1  0
  8 40  1  0
  8 41  1  0
  9 42  1  0
  9 43  1  0
 11 44  1  0
 11 45  1  0
 11 46  1  0
 12 47  1  0
 12 48  1  0
 13 49  1  6
 14 50  1  0
 14 51  1  0
 15 52  1  1
 16 53  1  0
 16 54  1  0
 17 55  1  0
 17 56  1  0
 18 57  1  0
 20 58  1  0
 20 59  1  0
 22 60  1  0
 23 61  1  0
 26 62  1  0
 31 63  1  0
 32 64  1  0
 33 65  1  0
 34 66  1  0
 35 67  1  0
M  CHG  1  17   1
M  END
>  <_SMILES>  (28) 
Cc1c(C(=O)N[C@@]23CC[C@]4(C)C[C@@H](C[C@@H]4C2)[NH2+]3)cn(Cc2ccc(Cl)cc2Cl)c1-c1ccccc1

$$$$

     RDKit          3D

 77 82  0  0  0  0  0  0  0  0999 V2000
   -1.0497    1.5379   -0.5567 C   0  0  0  0  0  0  0  0  0  0  0  0
   -0.2966    0.4888    0.1971 C   0  0  0  0  0  0  0  0  0  0  0  0
   -0.8309   -0.7640    0.6639 C   0  0  0  0  0  0  0  0  0  0  0  0
   -2.1716   -1.3452    0.5382 C   0  0  0  0  0  0  0  0  0  0  0  0
   -2.3097   -2.5400    0.3093 O   0  0  0  0  0  0  0  0  0  0  0  0
   -3.1947   -0.4538    0.7487 N   0  0  0  0  0  0  0  0  0  0  0  0
   -4.5572   -0.6716    0.3007 C   0  0  1  0  0  0  0  0  0  0  0  0
   -5.0967   -2.0833    0.6238 C   0  0  0  0  0  0  0  0  0  0  0  0
   -6.6298   -2.1138    0.7305 C   0  0  0  0  0  0  0  0  0  0  0  0
   -7.2814   -1.0547   -0.1742 C   0  0  2  0  0  0  0  0  0  0  0  0
   -8.8063   -1.1669   -0.1045 C   0  0  0  0  0  0  0  0  0  0  0  0
   -6.7781   -1.2565   -1.6284 C   0  0  0  0  0  0  0  0  0  0  0  0
   -5.7461   -0.1476   -1.7941 C   0  0  1  0  0  0  0  0  0  0  0  0
   -6.4597    1.0264   -1.1438 C   0  0  0  0  0  0  0  0  0  0  0  0
   -6.8027    0.3936    0.2062 C   0  0  2  0  0  0  0  0  0  0  0  0
   -5.4805    0.3564    0.9850 C   0  0  0  0  0  0  0  0  0  0  0  0
   -4.5095   -0.4276   -1.1171 O   0  0  0  0  0  0  0  0  0  0  0  0
    0.2205   -1.4423    1.2507 C   0  0  0  0  0  0  0  0  0  0  0  0
    1.3369   -0.6638    1.1921 N   0  0  0  0  0  0  0  0  0  0  0  0
    2.6308   -1.0938    1.6937 C   0  0  0  0  0  0  0  0  0  0  0  0
    3.4503   -1.8161    0.6208 C   0  0  0  0  0  0  0  0  0  0  0  0
    4.9451   -1.7458    0.9140 C   0  0  0  0  0  0  0  0  0  0  0  0
    5.5764   -0.5055    0.2482 N   0  0  0  0  0  0  0  0  0  0  0  0
    5.9463   -0.7831   -1.2128 C   0  0  0  0  0  0  0  0  0  0  0  0
    6.5090    0.4733   -1.9282 C   0  0  0  0  0  0  0  0  0  0  0  0
    7.1763    1.4401   -0.9823 N   0  0  0  0  0  0  0  0  0  0  0  0
    7.8020    0.8056    0.2250 C   0  0  0  0  0  0  0  0  0  0  0  0
    6.7732    0.0058    1.0671 C   0  0  0  0  0  0  0  0  0  0  0  0
    1.0571    0.5201    0.5384 C   0  0  0  0  0  0  0  0  0  0  0  0
    2.0665    1.5294    0.2256 C   0  0  0  0  0  0  0  0  0  0  0  0
    2.4717    1.7185   -1.1018 C   0  0  0  0  0  0  0  0  0  0  0  0
    3.4621    2.6512   -1.4097 C   0  0  0  0  0  0  0  0  0  0  0  0
    4.0618    3.3813   -0.3854 C   0  0  0  0  0  0  0  0  0  0  0  0
    5.3994    4.3967   -0.7470 Cl  0  0  0  0  0  0  0  0  0  0  0  0
    3.6490    3.2249    0.9356 C   0  0  0  0  0  0  0  0  0  0  0  0
    2.6412    2.3071    1.2380 C   0  0  0  0  0  0  0  0  0  0  0  0
   -1.5785    2.1953    0.1406 H   0  0  0  0  0  0  0  0  0  0  0  0
   -1.7796    1.0842   -1.2347 H   0  0  0  0  0  0  0  0  0  0  0  0
   -0.3876    2.1585   -1.1665 H   0  0  0  0  0  0  0  0  0  0  0  0
   -2.9320    0.5109    0.8511 H   0  0  0  0  0  0  0  0  0  0  0  0
   -4.6924   -2.4488    1.5762 H   0  0  0  0  0  0  0  0  0  0  0  0
   -4.7824   -2.7921   -0.1519 H   0  0  0  0  0  0  0  0  0  0  0  0
   -6.9254   -1.9378    1.7732 H   0  0  0  0  0  0  0  0  0  0  0  0
   -6.9865   -3.1206    0.4795 H   0  0  0  0  0  0  0  0  0  0  0  0
   -9.1449   -2.1528   -0.4416 H   0  0  0  0  0  0  0  0  0  0  0  0
   -9.2901   -0.4131   -0.7354 H   0  0  0  0  0  0  0  0  0  0  0  0
   -9.1635   -1.0206    0.9207 H   0  0  0  0  0  0  0  0  0  0  0  0
   -6.3576   -2.2510   -1.8072 H   0  0  0  0  0  0  0  0  0  0  0  0
   -7.5942   -1.1087   -2.3468 H   0  0  0  0  0  0  0  0  0  0  0  0
   -5.5196    0.0405   -2.8473 H   0  0  0  0  0  0  0  0  0  0  0  0
   -7.3660    1.3042   -1.6939 H   0  0  0  0  0  0  0  0  0  0  0  0
   -5.8207    1.9102   -1.0495 H   0  0  0  0  0  0  0  0  0  0  0  0
   -7.5536    0.9755    0.7498 H   0  0  0  0  0  0  0  0  0  0  0  0
   -5.0276    1.3569    0.9868 H   0  0  0  0  0  0  0  0  0  0  0  0
   -5.6446    0.0973    2.0385 H   0  0  0  0  0  0  0  0  0  0  0  0
    0.2291   -2.4290    1.7005 H   0  0  0  0  0  0  0  0  0  0  0  0
    2.4567   -1.7546    2.5516 H   0  0  0  0  0  0  0  0  0  0  0  0
    3.1524   -0.2146    2.0812 H   0  0  0  0  0  0  0  0  0  0  0  0
    3.2278   -1.4308   -0.3805 H   0  0  0  0  0  0  0  0  0  0  0  0
    3.1414   -2.8692    0.6156 H   0  0  0  0  0  0  0  0  0  0  0  0
    5.1336   -1.6762    1.9911 H   0  0  0  0  0  0  0  0  0  0  0  0
    5.4768   -2.6181    0.5196 H   0  0  0  0  0  0  0  0  0  0  0  0
    4.8492    0.2286    0.2614 H   0  0  0  0  0  0  0  0  0  0  0  0
    5.0536   -1.1489   -1.7282 H   0  0  0  0  0  0  0  0  0  0  0  0
    6.7017   -1.5771   -1.1957 H   0  0  0  0  0  0  0  0  0  0  0  0
    5.7143    1.0339   -2.4269 H   0  0  0  0  0  0  0  0  0  0  0  0
    7.2549    0.1841   -2.6754 H   0  0  0  0  0  0  0  0  0  0  0  0
    6.5266    2.1956   -0.7050 H   0  0  0  0  0  0  0  0  0  0  0  0
    7.9094    1.9536   -1.5050 H   0  0  0  0  0  0  0  0  0  0  0  0
    8.2619    1.6041    0.8146 H   0  0  0  0  0  0  0  0  0  0  0  0
    8.5909    0.1440   -0.1488 H   0  0  0  0  0  0  0  0  0  0  0  0
    7.2663   -0.8588    1.5245 H   0  0  0  0  0  0  0  0  0  0  0  0
    6.3431    0.6341    1.8540 H   0  0  0  0  0  0  0  0  0  0  0  0
    1.9847    1.1612   -1.9030 H   0  0  0  0  0  0  0  0  0  0  0  0
    3.7339    2.8203   -2.4499 H   0  0  0  0  0  0  0  0  0  0  0  0
    4.0779    3.8321    1.7312 H   0  0  0  0  0  0  0  0  0  0  0  0
    2.2863    2.2163    2.2651 H   0  0  0  0  0  0  0  0  0  0  0  0
  1  2  1  0
  2  3  1  0
  3  4  1  0
  4  5  2  0
  4  6  1  0
  7  6  1  1
  7  8  1  0
  8  9  1  0
  9 10  1  0
 10 11  1  6
 10 12  1  0
 12 13  1  0
 13 14  1  0
 14 15  1  0
 15 16  1  0
 13 17  1  0
  3 18  2  0
 18 19  1  0
 19 20  1  0
 20 21  1  0
 21 22  1  0
 22 23  1  0
 23 24  1  0
 24 25  1  0
 25 26  1  0
 26 27  1  0
 27 28  1  0
 19 29  1  0
 29 30  1  0
 30 31  1  0
 31 32  2  0
 32 33  1  0
 33 34  1  0
 33 35  2  0
 35 36  1  0
 29  2  2  0
 36 30  2  0
 16  7  1  0
 28 23  1  0
 17  7  1  0
 15 10  1  0
  1 37  1  0
  1 38  1  0
  1 39  1  0
  6 40  1  0
  8 41  1  0
  8 42  1  0
  9 43  1  0
  9 44  1  0
 11 45  1  0
 11 46  1  0
 11 47  1  0
 12 48  1  0
 12 49  1  0
 13 50  1  6
 14 51  1  0
 14 52  1  0
 15 53  1  1
 16 54  1  0
 16 55  1  0
 18 56  1  0
 20 57  1  0
 20 58  1  0
 21 59  1  0
 21 60  1  0
 22 61  1  0
 22 62  1  0
 23 63  1  0
 24 64  1  0
 24 65  1  0
 25 66  1  0
 25 67  1  0
 26 68  1  0
 26 69  1  0
 27 70  1  0
 27 71  1  0
 28 72  1  0
 28 73  1  0
 31 74  1  0
 32 75  1  0
 35 76  1  0
 36 77  1  0
M  CHG  2  23   1  26   1
M  END
>  <_SMILES>  (29) 
Cc1c(C(=O)N[C@@]23CC[C@]4(C)C[C@@H](C[C@@H]4C2)O3)cn(CCC[NH+]2CC[NH2+]CC2)c1-c1ccc(Cl)cc1

$$$$

     RDKit          3D

 39 42  0  0  0  0  0  0  0  0999 V2000
   -3.9716    1.1376   -0.7639 C   0  0  0  0  0  0  0  0  0  0  0  0
   -2.7076    0.5363   -0.1320 C   0  0  2  0  0  0  0  0  0  0  0  0
   -1.7575    1.6745    0.2794 C   0  0  0  0  0  0  0  0  0  0  0  0
   -0.4574    1.1789    0.9251 C   0  0  0  0  0  0  0  0  0  0  0  0
    0.0244   -0.1703    0.3520 C   0  0  2  0  0  0  0  0  0  0  0  0
    1.4602   -0.3231    0.4550 N   0  0  0  0  0  0  0  0  0  0  0  0
    2.3816    0.4418   -0.2152 C   0  0  0  0  0  0  0  0  0  0  0  0
    2.0702    1.3418   -0.9889 O   0  0  0  0  0  0  0  0  0  0  0  0
    3.7790    0.1048    0.0635 C   0  0  0  0  0  0  0  0  0  0  0  0
    4.3438   -0.9024    0.9055 C   0  0  0  0  0  0  0  0  0  0  0  0
    5.7164   -0.8099    0.8241 C   0  0  0  0  0  0  0  0  0  0  0  0
    6.0188    0.2121   -0.0336 N   0  0  0  0  0  0  0  0  0  0  0  0
    4.8588    0.7693   -0.4978 C   0  0  0  0  0  0  0  0  0  0  0  0
   -0.4896   -0.3669   -1.0830 C   0  0  0  0  0  0  0  0  0  0  0  0
   -2.0239   -0.4644   -1.1227 C   0  0  1  0  0  0  0  0  0  0  0  0
   -2.4416   -1.8408   -0.5991 C   0  0  0  0  0  0  0  0  0  0  0  0
   -2.3552   -1.6487    0.9057 C   0  0  2  0  0  0  0  0  0  0  0  0
   -3.0889   -0.3254    1.1024 C   0  0  0  0  0  0  0  0  0  0  0  0
   -0.6033   -1.5539    1.4368 S   0  0  0  0  0  0  0  0  0  0  0  0
   -4.4978    1.7845   -0.0533 H   0  0  0  0  0  0  0  0  0  0  0  0
   -4.6689    0.3553   -1.0841 H   0  0  0  0  0  0  0  0  0  0  0  0
   -3.7221    1.7391   -1.6451 H   0  0  0  0  0  0  0  0  0  0  0  0
   -1.5033    2.2686   -0.6089 H   0  0  0  0  0  0  0  0  0  0  0  0
   -2.2563    2.3655    0.9708 H   0  0  0  0  0  0  0  0  0  0  0  0
    0.2939    1.9631    0.7694 H   0  0  0  0  0  0  0  0  0  0  0  0
   -0.5737    1.1287    2.0157 H   0  0  0  0  0  0  0  0  0  0  0  0
    1.7704   -1.0361    1.0950 H   0  0  0  0  0  0  0  0  0  0  0  0
    3.8161   -1.6264    1.5119 H   0  0  0  0  0  0  0  0  0  0  0  0
    6.4998   -1.3832    1.3018 H   0  0  0  0  0  0  0  0  0  0  0  0
    6.9525    0.5103   -0.2867 H   0  0  0  0  0  0  0  0  0  0  0  0
    4.8831    1.5985   -1.1938 H   0  0  0  0  0  0  0  0  0  0  0  0
   -0.0368   -1.2535   -1.5470 H   0  0  0  0  0  0  0  0  0  0  0  0
   -0.1809    0.4780   -1.7116 H   0  0  0  0  0  0  0  0  0  0  0  0
   -2.3631   -0.3329   -2.1565 H   0  0  0  0  0  0  0  0  0  0  0  0
   -1.8196   -2.6608   -0.9738 H   0  0  0  0  0  0  0  0  0  0  0  0
   -3.4769   -2.0548   -0.8940 H   0  0  0  0  0  0  0  0  0  0  0  0
   -2.8377   -2.4639    1.4522 H   0  0  0  0  0  0  0  0  0  0  0  0
   -2.8661    0.1539    2.0621 H   0  0  0  0  0  0  0  0  0  0  0  0
   -4.1688   -0.5254    1.1042 H   0  0  0  0  0  0  0  0  0  0  0  0
  2  1  1  6
  2  3  1  0
  3  4  1  0
  4  5  1  0
  5  6  1  6
  6  7  1  0
  7  8  2  0
  7  9  1  0
  9 10  1  0
 10 11  2  0
 11 12  1  0
 12 13  1  0
  5 14  1  0
 14 15  1  0
 15 16  1  0
 16 17  1  0
 17 18  1  0
 17 19  1  0
 15  2  1  0
 18  2  1  0
 19  5  1  0
 13  9  2  0
  1 20  1  0
  1 21  1  0
  1 22  1  0
  3 23  1  0
  3 24  1  0
  4 25  1  0
  4 26  1  0
  6 27  1  0
 10 28  1  0
 11 29  1  0
 12 30  1  0
 13 31  1  0
 14 32  1  0
 14 33  1  0
 15 34  1  6
 16 35  1  0
 16 36  1  0
 17 37  1  1
 18 38  1  0
 18 39  1  0
M  END
>  <_SMILES>  (30) 
C[C@]12CC[C@]3(NC(=O)c4cc[nH]c4)C[C@H]1C[C@H](C2)S3

$$$$

     RDKit          3D

 66 70  0  0  0  0  0  0  0  0999 V2000
   -8.5303    1.4851   -0.4320 C   0  0  0  0  0  0  0  0  0  0  0  0
   -7.2144    0.7060   -0.3676 C   0  0  2  0  0  0  0  0  0  0  0  0
   -6.4430    1.0739    0.9118 C   0  0  0  0  0  0  0  0  0  0  0  0
   -5.1363    0.2754    1.0408 C   0  0  0  0  0  0  0  0  0  0  0  0
   -4.5445   -0.1230   -0.3362 C   0  0  2  0  0  0  0  0  0  0  0  0
   -3.1300   -0.3939   -0.1530 N   0  0  0  0  0  0  0  0  0  0  0  0
   -2.2651   -0.6577   -1.1836 C   0  0  0  0  0  0  0  0  0  0  0  0
   -2.5024   -0.5447   -2.3789 O   0  0  0  0  0  0  0  0  0  0  0  0
   -0.9423   -1.1887   -0.7655 C   0  0  0  0  0  0  0  0  0  0  0  0
   -0.3235   -0.8477    0.3725 C   0  0  0  0  0  0  0  0  0  0  0  0
    1.0582   -1.3827    0.7617 C   0  0  0  0  0  0  0  0  0  0  0  0
    2.0448   -2.1880    0.3201 C   0  0  0  0  0  0  0  0  0  0  0  0
    2.7956   -1.9042    1.5312 N   0  0  0  0  0  0  0  0  0  0  0  0
    4.1141   -2.2479    1.9638 C   0  0  0  0  0  0  0  0  0  0  0  0
    5.2124   -1.5182    1.1864 C   0  0  0  0  0  0  0  0  0  0  0  0
    5.2324   -0.0098    1.4678 C   0  0  0  0  0  0  0  0  0  0  0  0
    6.3038    0.7918    0.7028 C   0  0  0  0  0  0  0  0  0  0  0  0
    7.7258    0.2588    0.9048 C   0  0  0  0  0  0  0  0  0  0  0  0
    8.7733    1.2070    0.3129 C   0  0  0  0  0  0  0  0  0  0  0  0
    8.2713    1.9946   -0.8988 C   0  0  0  0  0  0  0  0  0  0  0  0
    7.1992    1.2334   -1.6657 C   0  0  0  0  0  0  0  0  0  0  0  0
    5.9747    0.9295   -0.7968 C   0  0  0  0  0  0  0  0  0  0  0  0
    1.8386   -1.0655    1.9726 C   0  0  0  0  0  0  0  0  0  0  0  0
    1.6986   -0.3518    2.9403 O   0  0  0  0  0  0  0  0  0  0  0  0
   -4.8492    1.0270   -1.3139 C   0  0  0  0  0  0  0  0  0  0  0  0
   -6.3444    0.9568   -1.6528 C   0  0  1  0  0  0  0  0  0  0  0  0
   -6.5097   -0.3315   -2.4628 C   0  0  0  0  0  0  0  0  0  0  0  0
   -6.4243   -1.3508   -1.3389 C   0  0  2  0  0  0  0  0  0  0  0  0
   -7.4787   -0.8224   -0.3735 C   0  0  0  0  0  0  0  0  0  0  0  0
   -5.1180   -1.3757   -0.7455 O   0  0  0  0  0  0  0  0  0  0  0  0
   -9.1688    1.2525    0.4273 H   0  0  0  0  0  0  0  0  0  0  0  0
   -9.0916    1.2434   -1.3413 H   0  0  0  0  0  0  0  0  0  0  0  0
   -8.3467    2.5651   -0.4325 H   0  0  0  0  0  0  0  0  0  0  0  0
   -6.2111    2.1471    0.9026 H   0  0  0  0  0  0  0  0  0  0  0  0
   -7.0570    0.9045    1.8053 H   0  0  0  0  0  0  0  0  0  0  0  0
   -5.3148   -0.6251    1.6426 H   0  0  0  0  0  0  0  0  0  0  0  0
   -4.4249    0.8904    1.6077 H   0  0  0  0  0  0  0  0  0  0  0  0
   -2.9116   -0.8519    0.7187 H   0  0  0  0  0  0  0  0  0  0  0  0
   -0.4724   -1.8326   -1.5012 H   0  0  0  0  0  0  0  0  0  0  0  0
   -0.7735   -0.1540    1.0777 H   0  0  0  0  0  0  0  0  0  0  0  0
    2.1937   -2.7872   -0.5748 H   0  0  0  0  0  0  0  0  0  0  0  0
    4.1955   -2.0202    3.0324 H   0  0  0  0  0  0  0  0  0  0  0  0
    4.2298   -3.3299    1.8382 H   0  0  0  0  0  0  0  0  0  0  0  0
    6.1735   -1.9548    1.4805 H   0  0  0  0  0  0  0  0  0  0  0  0
    5.0873   -1.7074    0.1152 H   0  0  0  0  0  0  0  0  0  0  0  0
    4.2519    0.4254    1.2407 H   0  0  0  0  0  0  0  0  0  0  0  0
    5.3931    0.1390    2.5436 H   0  0  0  0  0  0  0  0  0  0  0  0
    6.2779    1.8062    1.1279 H   0  0  0  0  0  0  0  0  0  0  0  0
    7.9374    0.1056    1.9695 H   0  0  0  0  0  0  0  0  0  0  0  0
    7.8282   -0.7198    0.4194 H   0  0  0  0  0  0  0  0  0  0  0  0
    9.1063    1.9171    1.0795 H   0  0  0  0  0  0  0  0  0  0  0  0
    9.6584    0.6219    0.0348 H   0  0  0  0  0  0  0  0  0  0  0  0
    7.8592    2.9546   -0.5631 H   0  0  0  0  0  0  0  0  0  0  0  0
    9.1143    2.2320   -1.5576 H   0  0  0  0  0  0  0  0  0  0  0  0
    7.6238    0.2908   -2.0338 H   0  0  0  0  0  0  0  0  0  0  0  0
    6.8895    1.8014   -2.5503 H   0  0  0  0  0  0  0  0  0  0  0  0
    5.4916    0.0293   -1.1910 H   0  0  0  0  0  0  0  0  0  0  0  0
    5.2402    1.7368   -0.9140 H   0  0  0  0  0  0  0  0  0  0  0  0
   -4.2778    0.9607   -2.2438 H   0  0  0  0  0  0  0  0  0  0  0  0
   -4.5833    1.9963   -0.8738 H   0  0  0  0  0  0  0  0  0  0  0  0
   -6.6509    1.8390   -2.2235 H   0  0  0  0  0  0  0  0  0  0  0  0
   -5.7264   -0.4662   -3.2155 H   0  0  0  0  0  0  0  0  0  0  0  0
   -7.4853   -0.3622   -2.9615 H   0  0  0  0  0  0  0  0  0  0  0  0
   -6.6611   -2.3625   -1.6799 H   0  0  0  0  0  0  0  0  0  0  0  0
   -7.4015   -1.2760    0.6199 H   0  0  0  0  0  0  0  0  0  0  0  0
   -8.4798   -1.0446   -0.7639 H   0  0  0  0  0  0  0  0  0  0  0  0
  2  1  1  6
  2  3  1  0
  3  4  1  0
  4  5  1  0
  5  6  1  1
  6  7  1  0
  7  8  2  0
  7  9  1  0
  9 10  2  0
 10 11  1  0
 11 12  2  0
 12 13  1  0
 13 14  1  0
 14 15  1  0
 15 16  1  0
 16 17  1  0
 17 18  1  0
 18 19  1  0
 19 20  1  0
 20 21  1  0
 21 22  1  0
 13 23  1  0
 23 24  2  0
  5 25  1  0
 25 26  1  0
 26 27  1  0
 27 28  1  0
 28 29  1  0
 28 30  1  0
 26  2  1  0
 29  2  1  0
 30  5  1  0
 23 11  1  0
 22 17  1  0
  1 31  1  0
  1 32  1  0
  1 33  1  0
  3 34  1  0
  3 35  1  0
  4 36  1  0
  4 37  1  0
  6 38  1  0
  9 39  1  0
 10 40  1  0
 12 41  1  0
 14 42  1  0
 14 43  1  0
 15 44  1  0
 15 45  1  0
 16 46  1  0
 16 47  1  0
 17 48  1  0
 18 49  1  0
 18 50  1  0
 19 51  1  0
 19 52  1  0
 20 53  1  0
 20 54  1  0
 21 55  1  0
 21 56  1  0
 22 57  1  0
 22 58  1  0
 25 59  1  0
 25 60  1  0
 26 61  1  6
 27 62  1  0
 27 63  1  0
 28 64  1  6
 29 65  1  0
 29 66  1  0
M  END
>  <_SMILES>  (31) 
C[C@]12CC[C@]3(NC(=O)/C=C/C4=CN(CCCC5CCCCC5)C4=O)C[C@H]1C[C@H](C2)O3

$$$$

     RDKit          3D

 69 73  0  0  0  0  0  0  0  0999 V2000
    0.3421    3.2479    1.0637 C   0  0  0  0  0  0  0  0  0  0  0  0
   -0.3690    2.2112    0.2582 C   0  0  0  0  0  0  0  0  0  0  0  0
    0.1865    0.9488   -0.1505 C   0  0  0  0  0  0  0  0  0  0  0  0
    1.5260    0.4297    0.1573 C   0  0  0  0  0  0  0  0  0  0  0  0
    2.2177    0.9083    1.0481 O   0  0  0  0  0  0  0  0  0  0  0  0
    1.9337   -0.6129   -0.6479 N   0  0  0  0  0  0  0  0  0  0  0  0
    3.2533   -1.2170   -0.6221 C   0  0  2  0  0  0  0  0  0  0  0  0
    3.3106   -2.4018   -1.6322 C   0  0  0  0  0  0  0  0  0  0  0  0
    4.7719   -2.8974   -1.7505 C   0  0  0  0  0  0  0  0  0  0  0  0
    5.5208   -2.5014   -0.4572 C   0  0  2  0  0  0  0  0  0  0  0  0
    6.9073   -3.1174   -0.3763 C   0  0  0  0  0  0  0  0  0  0  0  0
    4.5883   -2.9612    0.6914 C   0  0  0  0  0  0  0  0  0  0  0  0
    3.7573   -1.6781    0.8269 C   0  0  1  0  0  0  0  0  0  0  0  0
    4.9306   -0.7296    1.1232 C   0  0  0  0  0  0  0  0  0  0  0  0
    5.5398   -0.9156   -0.2690 C   0  0  2  0  0  0  0  0  0  0  0  0
    4.3962   -0.2793   -1.0768 C   0  0  0  0  0  0  0  0  0  0  0  0
   -0.8071    0.3114   -0.8749 C   0  0  0  0  0  0  0  0  0  0  0  0
   -1.9212    1.1135   -0.9095 N   0  0  0  0  0  0  0  0  0  0  0  0
   -3.1582    0.7401   -1.5803 C   0  0  0  0  0  0  0  0  0  0  0  0
   -4.2422    0.1994   -0.6435 C   0  0  0  0  0  0  0  0  0  0  0  0
   -3.8532   -1.1231    0.0273 C   0  0  0  0  0  0  0  0  0  0  0  0
   -5.0071   -1.7685    0.8178 C   0  0  0  0  0  0  0  0  0  0  0  0
   -5.4651   -0.9020    1.9921 C   0  0  0  0  0  0  0  0  0  0  0  0
   -4.5781   -3.1460    1.3289 C   0  0  0  0  0  0  0  0  0  0  0  0
   -1.6669    2.2914   -0.2404 C   0  0  0  0  0  0  0  0  0  0  0  0
   -2.6402    3.3787   -0.0908 C   0  0  0  0  0  0  0  0  0  0  0  0
   -3.3551    3.4709    1.1136 C   0  0  0  0  0  0  0  0  0  0  0  0
   -4.2890    4.4895    1.3127 C   0  0  0  0  0  0  0  0  0  0  0  0
   -4.5141    5.4332    0.3131 C   0  0  0  0  0  0  0  0  0  0  0  0
   -3.8021    5.3617   -0.8848 C   0  0  0  0  0  0  0  0  0  0  0  0
   -2.8657    4.3423   -1.0877 C   0  0  0  0  0  0  0  0  0  0  0  0
   -2.0116    4.3254   -2.5926 Cl  0  0  0  0  0  0  0  0  0  0  0  0
   -0.2149    4.1888    1.1042 H   0  0  0  0  0  0  0  0  0  0  0  0
    1.3220    3.4677    0.6277 H   0  0  0  0  0  0  0  0  0  0  0  0
    0.4851    2.8966    2.0905 H   0  0  0  0  0  0  0  0  0  0  0  0
    1.3729   -0.7737   -1.4716 H   0  0  0  0  0  0  0  0  0  0  0  0
    2.6503   -3.2125   -1.2995 H   0  0  0  0  0  0  0  0  0  0  0  0
    2.9489   -2.1015   -2.6239 H   0  0  0  0  0  0  0  0  0  0  0  0
    5.2612   -2.4519   -2.6251 H   0  0  0  0  0  0  0  0  0  0  0  0
    4.7774   -3.9832   -1.9045 H   0  0  0  0  0  0  0  0  0  0  0  0
    6.8570   -4.2106   -0.4194 H   0  0  0  0  0  0  0  0  0  0  0  0
    7.5346   -2.7750   -1.2061 H   0  0  0  0  0  0  0  0  0  0  0  0
    7.4086   -2.8421    0.5579 H   0  0  0  0  0  0  0  0  0  0  0  0
    3.9864   -3.8448    0.4543 H   0  0  0  0  0  0  0  0  0  0  0  0
    5.1397   -3.1897    1.6122 H   0  0  0  0  0  0  0  0  0  0  0  0
    2.9922   -1.7273    1.6040 H   0  0  0  0  0  0  0  0  0  0  0  0
    5.5902   -1.0680    1.9300 H   0  0  0  0  0  0  0  0  0  0  0  0
    4.6294    0.2988    1.3411 H   0  0  0  0  0  0  0  0  0  0  0  0
    6.5091   -0.4360   -0.4182 H   0  0  0  0  0  0  0  0  0  0  0  0
    4.2299    0.7667   -0.7922 H   0  0  0  0  0  0  0  0  0  0  0  0
    4.5734   -0.2858   -2.1575 H   0  0  0  0  0  0  0  0  0  0  0  0
   -0.8281   -0.6638   -1.3426 H   0  0  0  0  0  0  0  0  0  0  0  0
   -2.9097   -0.0040   -2.3467 H   0  0  0  0  0  0  0  0  0  0  0  0
   -3.5280    1.6223   -2.1122 H   0  0  0  0  0  0  0  0  0  0  0  0
   -4.4774    0.9478    0.1190 H   0  0  0  0  0  0  0  0  0  0  0  0
   -5.1552    0.0465   -1.2317 H   0  0  0  0  0  0  0  0  0  0  0  0
   -3.5184   -1.8253   -0.7469 H   0  0  0  0  0  0  0  0  0  0  0  0
   -3.0013   -0.9617    0.6990 H   0  0  0  0  0  0  0  0  0  0  0  0
   -5.8603   -1.9117    0.1428 H   0  0  0  0  0  0  0  0  0  0  0  0
   -4.6311   -0.6691    2.6628 H   0  0  0  0  0  0  0  0  0  0  0  0
   -5.8989    0.0412    1.6467 H   0  0  0  0  0  0  0  0  0  0  0  0
   -6.2352   -1.4166    2.5770 H   0  0  0  0  0  0  0  0  0  0  0  0
   -4.2854   -3.7961    0.4976 H   0  0  0  0  0  0  0  0  0  0  0  0
   -3.7277   -3.0685    2.0150 H   0  0  0  0  0  0  0  0  0  0  0  0
   -5.3996   -3.6371    1.8614 H   0  0  0  0  0  0  0  0  0  0  0  0
   -3.1824    2.7433    1.9047 H   0  0  0  0  0  0  0  0  0  0  0  0
   -4.8359    4.5475    2.2507 H   0  0  0  0  0  0  0  0  0  0  0  0
   -5.2383    6.2291    0.4686 H   0  0  0  0  0  0  0  0  0  0  0  0
   -3.9767    6.1074   -1.6563 H   0  0  0  0  0  0  0  0  0  0  0  0
  1  2  1  0
  2  3  1  0
  3  4  1  0
  4  5  2  0
  4  6  1  0
  7  6  1  1
  7  8  1  0
  8  9  1  0
  9 10  1  0
 10 11  1  1
 10 12  1  0
 12 13  1  0
 13 14  1  0
 14 15  1  0
 15 16  1  0
  3 17  2  0
 17 18  1  0
 18 19  1  0
 19 20  1  0
 20 21  1  0
 21 22  1  0
 22 23  1  0
 22 24  1  0
 18 25  1  0
 25 26  1  0
 26 27  2  0
 27 28  1  0
 28 29  2  0
 29 30  1  0
 30 31  2  0
 31 32  1  0
 25  2  2  0
 31 26  1  0
 13  7  1  0
 16  7  1  0
 15 10  1  0
  1 33  1  0
  1 34  1  0
  1 35  1  0
  6 36  1  0
  8 37  1  0
  8 38  1  0
  9 39  1  0
  9 40  1  0
 11 41  1  0
 11 42  1  0
 11 43  1  0
 12 44  1  0
 12 45  1  0
 13 46  1  1
 14 47  1  0
 14 48  1  0
 15 49  1  1
 16 50  1  0
 16 51  1  0
 17 52  1  0
 19 53  1  0
 19 54  1  0
 20 55  1  0
 20 56  1  0
 21 57  1  0
 21 58  1  0
 22 59  1  0
 23 60  1  0
 23 61  1  0
 23 62  1  0
 24 63  1  0
 24 64  1  0
 24 65  1  0
 27 66  1  0
 28 67  1  0
 29 68  1  0
 30 69  1  0
M  END
>  <_SMILES>  (32) 
Cc1c(C(=O)N[C@]23CC[C@]4(C)C[C@H]2C[C@@H]4C3)cn(CCCC(C)C)c1-c1ccccc1Cl

$$$$

     RDKit          3D

 86 91  0  0  0  0  0  0  0  0999 V2000
   10.0784    2.8829   -2.0031 C   0  0  0  0  0  0  0  0  0  0  0  0
    9.9300    1.5386   -1.3152 C   0  0  0  0  0  0  0  0  0  0  0  0
    8.4747    1.1542   -1.2009 N   0  0  0  0  0  0  0  0  0  0  0  0
    8.2420    0.1330   -0.0902 C   0  0  0  0  0  0  0  0  0  0  0  0
    6.8701   -0.5684   -0.2108 C   0  0  0  0  0  0  0  0  0  0  0  0
    5.8932    0.2020   -0.9867 N   0  0  0  0  0  0  0  0  0  0  0  0
    4.5247    0.2458   -0.7308 C   0  0  0  0  0  0  0  0  0  0  0  0
    3.7549    0.7869   -1.5227 O   0  0  0  0  0  0  0  0  0  0  0  0
    4.0277   -0.3794    0.5632 C   0  0  0  0  0  0  0  0  0  0  0  0
    2.5098   -0.2784    0.7447 C   0  0  0  0  0  0  0  0  0  0  0  0
    1.7437   -1.2043   -0.2028 C   0  0  0  0  0  0  0  0  0  0  0  0
    0.3104   -1.2168    0.0677 N   0  0  0  0  0  0  0  0  0  0  0  0
   -0.5856   -0.3870   -0.5492 C   0  0  0  0  0  0  0  0  0  0  0  0
   -1.8651   -0.6974   -0.1235 C   0  0  0  0  0  0  0  0  0  0  0  0
   -3.0475    0.0085   -0.6167 C   0  0  0  0  0  0  0  0  0  0  0  0
   -3.0459    0.6473   -1.6611 O   0  0  0  0  0  0  0  0  0  0  0  0
   -4.1510   -0.0387    0.2182 N   0  0  0  0  0  0  0  0  0  0  0  0
   -5.3079    0.7682   -0.0612 C   0  0  1  0  0  0  0  0  0  0  0  0
   -5.0666    2.2627    0.2292 C   0  0  0  0  0  0  0  0  0  0  0  0
   -6.0750    3.1680   -0.4933 C   0  0  0  0  0  0  0  0  0  0  0  0
   -7.4474    2.4937   -0.6756 C   0  0  2  0  0  0  0  0  0  0  0  0
   -8.4174    3.4650   -1.3563 C   0  0  0  0  0  0  0  0  0  0  0  0
   -7.9936    2.0596    0.7109 C   0  0  0  0  0  0  0  0  0  0  0  0
   -7.7840    0.5537    0.7214 C   0  0  1  0  0  0  0  0  0  0  0  0
   -8.1877    0.1667   -0.6877 C   0  0  0  0  0  0  0  0  0  0  0  0
   -7.3361    1.1516   -1.4907 C   0  0  2  0  0  0  0  0  0  0  0  0
   -5.9015    0.5962   -1.4738 C   0  0  0  0  0  0  0  0  0  0  0  0
   -6.3224    0.2288    0.9183 N   0  0  0  0  0  0  0  0  0  0  0  0
   -1.7239   -1.8006    0.7926 C   0  0  0  0  0  0  0  0  0  0  0  0
   -2.8096   -2.5667    1.4726 C   0  0  0  0  0  0  0  0  0  0  0  0
   -0.3609   -2.0710    0.9142 C   0  0  0  0  0  0  0  0  0  0  0  0
    0.3028   -3.0878    1.7285 C   0  0  0  0  0  0  0  0  0  0  0  0
    0.6624   -2.8052    3.0506 C   0  0  0  0  0  0  0  0  0  0  0  0
    1.2888   -3.7784    3.8311 C   0  0  0  0  0  0  0  0  0  0  0  0
    1.5539   -5.0382    3.2950 C   0  0  0  0  0  0  0  0  0  0  0  0
    1.1918   -5.3278    1.9800 C   0  0  0  0  0  0  0  0  0  0  0  0
    0.5656   -4.3558    1.1981 C   0  0  0  0  0  0  0  0  0  0  0  0
    6.3186    0.6456   -2.3227 C   0  0  0  0  0  0  0  0  0  0  0  0
    7.8431    0.6919   -2.5034 C   0  0  0  0  0  0  0  0  0  0  0  0
   11.1293    3.1898   -1.9963 H   0  0  0  0  0  0  0  0  0  0  0  0
    9.4991    3.6573   -1.4898 H   0  0  0  0  0  0  0  0  0  0  0  0
    9.7549    2.8473   -3.0469 H   0  0  0  0  0  0  0  0  0  0  0  0
   10.4491    0.7386   -1.8529 H   0  0  0  0  0  0  0  0  0  0  0  0
   10.3264    1.6057   -0.2963 H   0  0  0  0  0  0  0  0  0  0  0  0
    7.9497    1.9937   -0.9144 H   0  0  0  0  0  0  0  0  0  0  0  0
    8.3037    0.6966    0.8470 H   0  0  0  0  0  0  0  0  0  0  0  0
    9.0534   -0.6024   -0.1233 H   0  0  0  0  0  0  0  0  0  0  0  0
    6.9921   -1.5269   -0.7303 H   0  0  0  0  0  0  0  0  0  0  0  0
    6.5010   -0.8004    0.7910 H   0  0  0  0  0  0  0  0  0  0  0  0
    4.3304   -1.4316    0.5955 H   0  0  0  0  0  0  0  0  0  0  0  0
    4.5083    0.1517    1.3930 H   0  0  0  0  0  0  0  0  0  0  0  0
    2.1761    0.7572    0.6040 H   0  0  0  0  0  0  0  0  0  0  0  0
    2.2717   -0.5400    1.7826 H   0  0  0  0  0  0  0  0  0  0  0  0
    2.1105   -2.2334   -0.1310 H   0  0  0  0  0  0  0  0  0  0  0  0
    1.8671   -0.8995   -1.2477 H   0  0  0  0  0  0  0  0  0  0  0  0
   -0.2510    0.3607   -1.2600 H   0  0  0  0  0  0  0  0  0  0  0  0
   -3.8789   -0.2035    1.1780 H   0  0  0  0  0  0  0  0  0  0  0  0
   -4.0618    2.5681   -0.0886 H   0  0  0  0  0  0  0  0  0  0  0  0
   -5.0934    2.4540    1.3098 H   0  0  0  0  0  0  0  0  0  0  0  0
   -6.1719    4.1088    0.0631 H   0  0  0  0  0  0  0  0  0  0  0  0
   -5.6708    3.4384   -1.4780 H   0  0  0  0  0  0  0  0  0  0  0  0
   -9.4012    3.0064   -1.5057 H   0  0  0  0  0  0  0  0  0  0  0  0
   -8.0412    3.7702   -2.3389 H   0  0  0  0  0  0  0  0  0  0  0  0
   -8.5578    4.3691   -0.7538 H   0  0  0  0  0  0  0  0  0  0  0  0
   -9.0676    2.2727    0.7887 H   0  0  0  0  0  0  0  0  0  0  0  0
   -7.5093    2.5629    1.5544 H   0  0  0  0  0  0  0  0  0  0  0  0
   -8.3451    0.0368    1.5041 H   0  0  0  0  0  0  0  0  0  0  0  0
   -7.9808   -0.8826   -0.9221 H   0  0  0  0  0  0  0  0  0  0  0  0
   -9.2562    0.3473   -0.8553 H   0  0  0  0  0  0  0  0  0  0  0  0
   -7.6940    1.2400   -2.5217 H   0  0  0  0  0  0  0  0  0  0  0  0
   -5.8901   -0.4575   -1.7818 H   0  0  0  0  0  0  0  0  0  0  0  0
   -5.3099    1.1369   -2.2215 H   0  0  0  0  0  0  0  0  0  0  0  0
   -6.2245   -0.7917    0.8674 H   0  0  0  0  0  0  0  0  0  0  0  0
   -6.0518    0.4967    1.8695 H   0  0  0  0  0  0  0  0  0  0  0  0
   -3.1335   -2.0419    2.3768 H   0  0  0  0  0  0  0  0  0  0  0  0
   -2.4809   -3.5695    1.7626 H   0  0  0  0  0  0  0  0  0  0  0  0
   -3.6719   -2.6931    0.8105 H   0  0  0  0  0  0  0  0  0  0  0  0
    0.4529   -1.8290    3.4805 H   0  0  0  0  0  0  0  0  0  0  0  0
    1.5625   -3.5592    4.8604 H   0  0  0  0  0  0  0  0  0  0  0  0
    2.0337   -5.7996    3.9061 H   0  0  0  0  0  0  0  0  0  0  0  0
    1.3888   -6.3144    1.5671 H   0  0  0  0  0  0  0  0  0  0  0  0
    0.2778   -4.5948    0.1768 H   0  0  0  0  0  0  0  0  0  0  0  0
    5.9017    1.6465   -2.4899 H   0  0  0  0  0  0  0  0  0  0  0  0
    5.8741   -0.0220   -3.0701 H   0  0  0  0  0  0  0  0  0  0  0  0
    8.1132    1.3881   -3.3012 H   0  0  0  0  0  0  0  0  0  0  0  0
    8.2587   -0.2971   -2.7262 H   0  0  0  0  0  0  0  0  0  0  0  0
  1  2  1  0
  2  3  1  0
  3  4  1  0
  4  5  1  0
  5  6  1  0
  6  7  1  0
  7  8  2  0
  7  9  1  0
  9 10  1  0
 10 11  1  0
 11 12  1  0
 12 13  1  0
 13 14  2  0
 14 15  1  0
 15 16  2  0
 15 17  1  0
 18 17  1  6
 18 19  1  0
 19 20  1  0
 20 21  1  0
 21 22  1  6
 21 23  1  0
 23 24  1  0
 24 25  1  0
 25 26  1  0
 26 27  1  0
 24 28  1  0
 14 29  1  0
 29 30  1  0
 29 31  2  0
 31 32  1  0
 32 33  2  0
 33 34  1  0
 34 35  2  0
 35 36  1  0
 36 37  2  0
  6 38  1  0
 38 39  1  0
 39  3  1  0
 31 12  1  0
 37 32  1  0
 27 18  1  0
 28 18  1  0
 26 21  1  0
  1 40  1  0
  1 41  1  0
  1 42  1  0
  2 43  1  0
  2 44  1  0
  3 45  1  0
  4 46  1  0
  4 47  1  0
  5 48  1  0
  5 49  1  0
  9 50  1  0
  9 51  1  0
 10 52  1  0
 10 53  1  0
 11 54  1  0
 11 55  1  0
 13 56  1  0
 17 57  1  0
 19 58  1  0
 19 59  1  0
 20 60  1  0
 20 61  1  0
 22 62  1  0
 22 63  1  0
 22 64  1  0
 23 65  1  0
 23 66  1  0
 24 67  1  1
 25 68  1  0
 25 69  1  0
 26 70  1  6
 27 71  1  0
 27 72  1  0
 28 73  1  0
 28 74  1  0
 30 75  1  0
 30 76  1  0
 30 77  1  0
 33 78  1  0
 34 79  1  0
 35 80  1  0
 36 81  1  0
 37 82  1  0
 38 83  1  0
 38 84  1  0
 39 85  1  0
 39 86  1  0
M  CHG  2   3   1  28   1
M  END
>  <_SMILES>  (33) 
CC[NH+]1CCN(C(=O)CCCn2cc(C(=O)N[C@@]34CC[C@]5(C)C[C@@H](C[C@@H]5C3)[NH2+]4)c(C)c2-c2ccccc2)CC1

$$$$

     RDKit          3D

 68 73  0  0  0  0  0  0  0  0999 V2000
   -0.3838   -1.9287    2.0456 C   0  0  0  0  0  0  0  0  0  0  0  0
   -1.1040   -1.4681    0.8204 C   0  0  0  0  0  0  0  0  0  0  0  0
   -0.6384   -0.4797   -0.1168 C   0  0  0  0  0  0  0  0  0  0  0  0
    0.6270    0.2560   -0.1919 C   0  0  0  0  0  0  0  0  0  0  0  0
    0.6950    1.3803   -0.6742 O   0  0  0  0  0  0  0  0  0  0  0  0
    1.7167   -0.4540    0.2649 N   0  0  0  0  0  0  0  0  0  0  0  0
    3.1108    0.0057    0.1886 C   0  0  1  0  0  0  0  0  0  0  0  0
    3.5724    0.0841   -1.2893 C   0  0  0  0  0  0  0  0  0  0  0  0
    4.7076    1.0930   -1.5079 C   0  0  0  0  0  0  0  0  0  0  0  0
    5.6186    1.2372   -0.2765 C   0  0  2  0  0  0  0  0  0  0  0  0
    6.7441    2.2326   -0.5804 C   0  0  0  0  0  0  0  0  0  0  0  0
    6.2081   -0.1469    0.1035 C   0  0  0  0  0  0  0  0  0  0  0  0
    5.4060   -0.5647    1.3343 C   0  0  1  0  0  0  0  0  0  0  0  0
    5.3375    0.7558    2.0923 C   0  0  0  0  0  0  0  0  0  0  0  0
    4.8097    1.6804    0.9932 C   0  0  2  0  0  0  0  0  0  0  0  0
    3.3044    1.3940    0.8383 C   0  0  0  0  0  0  0  0  0  0  0  0
    3.9818   -1.0360    0.9725 C   0  0  0  0  0  0  0  0  0  0  0  0
   -1.6702   -0.2874   -1.0144 C   0  0  0  0  0  0  0  0  0  0  0  0
   -2.7281   -1.0906   -0.6750 N   0  0  0  0  0  0  0  0  0  0  0  0
   -3.9630   -1.1378   -1.4458 C   0  0  0  0  0  0  0  0  0  0  0  0
   -4.9728    0.0060   -1.2091 C   0  0  0  0  0  0  0  0  0  0  0  0
   -5.4614    0.1124    0.2472 C   0  0  0  0  0  0  0  0  0  0  0  0
   -6.1045    1.4633    0.5820 C   0  0  0  0  0  0  0  0  0  0  0  0
   -6.6816    2.1511   -0.6467 C   0  0  0  0  0  0  0  0  0  0  0  0
   -5.6108    2.4098   -1.7076 C   0  0  0  0  0  0  0  0  0  0  0  0
   -4.4835    1.3715   -1.7071 C   0  0  0  0  0  0  0  0  0  0  0  0
   -2.3646   -1.8926    0.3909 C   0  0  0  0  0  0  0  0  0  0  0  0
   -3.1985   -2.9375    0.9241 C   0  0  0  0  0  0  0  0  0  0  0  0
   -4.4912   -2.7976    1.1344 N   0  0  0  0  0  0  0  0  0  0  0  0
   -5.0787   -3.9507    1.6168 N   0  0  0  0  0  0  0  0  0  0  0  0
   -4.2025   -4.9215    1.7486 C   0  0  0  0  0  0  0  0  0  0  0  0
   -2.6046   -4.5115    1.2881 S   0  0  0  0  0  0  0  0  0  0  0  0
    0.2560   -2.7857    1.8137 H   0  0  0  0  0  0  0  0  0  0  0  0
    0.2388   -1.1301    2.4609 H   0  0  0  0  0  0  0  0  0  0  0  0
   -1.0849   -2.2192    2.8344 H   0  0  0  0  0  0  0  0  0  0  0  0
    1.5712   -1.4493    0.3575 H   0  0  0  0  0  0  0  0  0  0  0  0
    3.8810   -0.9092   -1.6393 H   0  0  0  0  0  0  0  0  0  0  0  0
    2.7467    0.3705   -1.9521 H   0  0  0  0  0  0  0  0  0  0  0  0
    4.2723    2.0712   -1.7525 H   0  0  0  0  0  0  0  0  0  0  0  0
    5.2873    0.7916   -2.3896 H   0  0  0  0  0  0  0  0  0  0  0  0
    6.3380    3.2162   -0.8410 H   0  0  0  0  0  0  0  0  0  0  0  0
    7.4037    2.3650    0.2843 H   0  0  0  0  0  0  0  0  0  0  0  0
    7.3582    1.8888   -1.4200 H   0  0  0  0  0  0  0  0  0  0  0  0
    6.1538   -0.8854   -0.7032 H   0  0  0  0  0  0  0  0  0  0  0  0
    7.2670   -0.0561    0.3789 H   0  0  0  0  0  0  0  0  0  0  0  0
    5.9252   -1.3383    1.9087 H   0  0  0  0  0  0  0  0  0  0  0  0
    4.6868    0.7096    2.9715 H   0  0  0  0  0  0  0  0  0  0  0  0
    6.3336    1.0726    2.4246 H   0  0  0  0  0  0  0  0  0  0  0  0
    4.9626    2.7325    1.2560 H   0  0  0  0  0  0  0  0  0  0  0  0
    2.8033    1.4398    1.8140 H   0  0  0  0  0  0  0  0  0  0  0  0
    2.8505    2.1838    0.2282 H   0  0  0  0  0  0  0  0  0  0  0  0
    3.4697   -1.2851    1.9132 H   0  0  0  0  0  0  0  0  0  0  0  0
    4.0382   -1.9761    0.4082 H   0  0  0  0  0  0  0  0  0  0  0  0
   -1.7228    0.3789   -1.8671 H   0  0  0  0  0  0  0  0  0  0  0  0
   -4.4467   -2.1038   -1.2724 H   0  0  0  0  0  0  0  0  0  0  0  0
   -3.6643   -1.1478   -2.5026 H   0  0  0  0  0  0  0  0  0  0  0  0
   -5.8477   -0.2529   -1.8241 H   0  0  0  0  0  0  0  0  0  0  0  0
   -4.6430   -0.0469    0.9570 H   0  0  0  0  0  0  0  0  0  0  0  0
   -6.1896   -0.6878    0.4285 H   0  0  0  0  0  0  0  0  0  0  0  0
   -6.8840    1.3210    1.3391 H   0  0  0  0  0  0  0  0  0  0  0  0
   -5.3491    2.1185    1.0343 H   0  0  0  0  0  0  0  0  0  0  0  0
   -7.4728    1.5215   -1.0729 H   0  0  0  0  0  0  0  0  0  0  0  0
   -7.1564    3.0978   -0.3651 H   0  0  0  0  0  0  0  0  0  0  0  0
   -6.0920    2.4340   -2.6928 H   0  0  0  0  0  0  0  0  0  0  0  0
   -5.1720    3.4040   -1.5584 H   0  0  0  0  0  0  0  0  0  0  0  0
   -3.6772    1.7355   -1.0587 H   0  0  0  0  0  0  0  0  0  0  0  0
   -4.0670    1.2946   -2.7182 H   0  0  0  0  0  0  0  0  0  0  0  0
   -4.4720   -5.9019    2.1151 H   0  0  0  0  0  0  0  0  0  0  0  0
  1  2  1  0
  2  3  1  0
  3  4  1  0
  4  5  2  0
  4  6  1  0
  7  6  1  6
  7  8  1  0
  8  9  1  0
  9 10  1  0
 10 11  1  6
 10 12  1  0
 12 13  1  0
 13 14  1  0
 14 15  1  0
 15 16  1  0
 13 17  1  0
  3 18  2  0
 18 19  1  0
 19 20  1  0
 20 21  1  0
 21 22  1  0
 22 23  1  0
 23 24  1  0
 24 25  1  0
 25 26  1  0
 19 27  1  0
 27 28  1  0
 28 29  2  0
 29 30  1  0
 30 31  2  0
 31 32  1  0
 27  2  2  0
 32 28  1  0
 16  7  1  0
 26 21  1  0
 17  7  1  0
 15 10  1  0
  1 33  1  0
  1 34  1  0
  1 35  1  0
  6 36  1  0
  8 37  1  0
  8 38  1  0
  9 39  1  0
  9 40  1  0
 11 41  1  0
 11 42  1  0
 11 43  1  0
 12 44  1  0
 12 45  1  0
 13 46  1  1
 14 47  1  0
 14 48  1  0
 15 49  1  1
 16 50  1  0
 16 51  1  0
 17 52  1  0
 17 53  1  0
 18 54  1  0
 20 55  1  0
 20 56  1  0
 21 57  1  0
 22 58  1  0
 22 59  1  0
 23 60  1  0
 23 61  1  0
 24 62  1  0
 24 63  1  0
 25 64  1  0
 25 65  1  0
 26 66  1  0
 26 67  1  0
 31 68  1  0
M  END
>  <_SMILES>  (34) 
Cc1c(C(=O)N[C@@]23CC[C@]4(C)C[C@@H](C[C@@H]4C2)C3)cn(CC2CCCCC2)c1-c1nncs1

$$$$

     RDKit          3D

 79 83  0  0  0  0  0  0  0  0999 V2000
   -2.4150   -6.8122   -0.6057 C   0  0  0  0  0  0  0  0  0  0  0  0
   -2.3578   -5.4954    0.1521 C   0  0  0  0  0  0  0  0  0  0  0  0
   -2.1372   -4.3147   -0.7929 C   0  0  0  0  0  0  0  0  0  0  0  0
   -2.0805   -2.9925   -0.0266 C   0  0  0  0  0  0  0  0  0  0  0  0
   -1.8633   -1.8102   -0.9741 C   0  0  0  0  0  0  0  0  0  0  0  0
   -1.7881   -0.4995   -0.2404 C   0  0  0  0  0  0  0  0  0  0  0  0
   -0.5984    0.1074    0.2977 C   0  0  0  0  0  0  0  0  0  0  0  0
    0.7718   -0.4207    0.2609 C   0  0  0  0  0  0  0  0  0  0  0  0
    1.0156   -1.5998    0.0308 O   0  0  0  0  0  0  0  0  0  0  0  0
    1.7542    0.5257    0.4768 N   0  0  0  0  0  0  0  0  0  0  0  0
    3.1948    0.2527    0.3909 C   0  0  1  0  0  0  0  0  0  0  0  0
    3.5684   -0.1937   -1.0461 C   0  0  0  0  0  0  0  0  0  0  0  0
    5.0029    0.1781   -1.4439 C   0  0  0  0  0  0  0  0  0  0  0  0
    5.9572    0.2320   -0.2391 C   0  0  2  0  0  0  0  0  0  0  0  0
    7.3717    0.5819   -0.7154 C   0  0  0  0  0  0  0  0  0  0  0  0
    5.9566   -1.1349    0.4959 C   0  0  0  0  0  0  0  0  0  0  0  0
    5.1258   -0.8806    1.7531 C   0  0  1  0  0  0  0  0  0  0  0  0
    5.6343    0.4984    2.1569 C   0  0  0  0  0  0  0  0  0  0  0  0
    5.4618    1.2570    0.8389 C   0  0  2  0  0  0  0  0  0  0  0  0
    3.9618    1.5621    0.6862 C   0  0  0  0  0  0  0  0  0  0  0  0
    3.6128   -0.8223    1.4477 C   0  0  0  0  0  0  0  0  0  0  0  0
   -1.0102    1.2879    0.8960 C   0  0  0  0  0  0  0  0  0  0  0  0
   -2.3644    1.4293    0.7231 N   0  0  0  0  0  0  0  0  0  0  0  0
   -3.1314    2.5509    1.2439 C   0  0  0  0  0  0  0  0  0  0  0  0
   -3.4283    3.6409    0.2165 C   0  0  0  0  0  0  0  0  0  0  0  0
   -2.1702    4.3385   -0.2948 C   0  0  0  0  0  0  0  0  0  0  0  0
   -2.4992    5.3750   -1.2198 O   0  0  0  0  0  0  0  0  0  0  0  0
   -2.8380    6.6044   -0.5928 C   0  0  0  0  0  0  0  0  0  0  0  0
   -2.8624    0.3414    0.0419 C   0  0  0  0  0  0  0  0  0  0  0  0
   -4.2758    0.1603   -0.2827 C   0  0  0  0  0  0  0  0  0  0  0  0
   -4.7670    0.5469   -1.5340 C   0  0  0  0  0  0  0  0  0  0  0  0
   -6.1164    0.3702   -1.8447 C   0  0  0  0  0  0  0  0  0  0  0  0
   -6.9788   -0.1999   -0.9088 C   0  0  0  0  0  0  0  0  0  0  0  0
   -6.4930   -0.5972    0.3365 C   0  0  0  0  0  0  0  0  0  0  0  0
   -5.1441   -0.4197    0.6485 C   0  0  0  0  0  0  0  0  0  0  0  0
   -1.4806   -6.9947   -1.1460 H   0  0  0  0  0  0  0  0  0  0  0  0
   -2.5733   -7.6428    0.0892 H   0  0  0  0  0  0  0  0  0  0  0  0
   -3.2365   -6.8131   -1.3292 H   0  0  0  0  0  0  0  0  0  0  0  0
   -1.5473   -5.5394    0.8888 H   0  0  0  0  0  0  0  0  0  0  0  0
   -3.2935   -5.3588    0.7068 H   0  0  0  0  0  0  0  0  0  0  0  0
   -1.2021   -4.4579   -1.3479 H   0  0  0  0  0  0  0  0  0  0  0  0
   -2.9486   -4.2776   -1.5301 H   0  0  0  0  0  0  0  0  0  0  0  0
   -3.0134   -2.8535    0.5337 H   0  0  0  0  0  0  0  0  0  0  0  0
   -1.2734   -3.0324    0.7153 H   0  0  0  0  0  0  0  0  0  0  0  0
   -0.9493   -1.9588   -1.5610 H   0  0  0  0  0  0  0  0  0  0  0  0
   -2.6791   -1.7751   -1.7068 H   0  0  0  0  0  0  0  0  0  0  0  0
    1.4606    1.4906    0.4351 H   0  0  0  0  0  0  0  0  0  0  0  0
    3.4244   -1.2758   -1.1563 H   0  0  0  0  0  0  0  0  0  0  0  0
    2.8912    0.2658   -1.7788 H   0  0  0  0  0  0  0  0  0  0  0  0
    4.9917    1.1575   -1.9408 H   0  0  0  0  0  0  0  0  0  0  0  0
    5.3617   -0.5366   -2.1953 H   0  0  0  0  0  0  0  0  0  0  0  0
    8.0723    0.6413    0.1249 H   0  0  0  0  0  0  0  0  0  0  0  0
    7.3851    1.5507   -1.2268 H   0  0  0  0  0  0  0  0  0  0  0  0
    7.7501   -0.1725   -1.4138 H   0  0  0  0  0  0  0  0  0  0  0  0
    6.9755   -1.4180    0.7907 H   0  0  0  0  0  0  0  0  0  0  0  0
    5.5620   -1.9589   -0.1080 H   0  0  0  0  0  0  0  0  0  0  0  0
    5.3255   -1.6308    2.5247 H   0  0  0  0  0  0  0  0  0  0  0  0
    6.6905    0.4595    2.4499 H   0  0  0  0  0  0  0  0  0  0  0  0
    5.0693    0.9341    2.9873 H   0  0  0  0  0  0  0  0  0  0  0  0
    6.0336    2.1909    0.8421 H   0  0  0  0  0  0  0  0  0  0  0  0
    3.8024    2.2890   -0.1213 H   0  0  0  0  0  0  0  0  0  0  0  0
    3.5781    2.0411    1.5971 H   0  0  0  0  0  0  0  0  0  0  0  0
    3.2787   -1.8184    1.1342 H   0  0  0  0  0  0  0  0  0  0  0  0
    3.0896   -0.6110    2.3909 H   0  0  0  0  0  0  0  0  0  0  0  0
   -0.4511    2.0310    1.4487 H   0  0  0  0  0  0  0  0  0  0  0  0
   -4.0655    2.1526    1.6543 H   0  0  0  0  0  0  0  0  0  0  0  0
   -2.5741    2.9686    2.0912 H   0  0  0  0  0  0  0  0  0  0  0  0
   -3.9841    3.2377   -0.6372 H   0  0  0  0  0  0  0  0  0  0  0  0
   -4.0961    4.3765    0.6790 H   0  0  0  0  0  0  0  0  0  0  0  0
   -1.5637    4.7363    0.5273 H   0  0  0  0  0  0  0  0  0  0  0  0
   -1.5487    3.6245   -0.8445 H   0  0  0  0  0  0  0  0  0  0  0  0
   -3.7343    6.4986    0.0238 H   0  0  0  0  0  0  0  0  0  0  0  0
   -2.0033    6.9678    0.0144 H   0  0  0  0  0  0  0  0  0  0  0  0
   -3.0433    7.3411   -1.3743 H   0  0  0  0  0  0  0  0  0  0  0  0
   -4.0988    0.9855   -2.2715 H   0  0  0  0  0  0  0  0  0  0  0  0
   -6.4923    0.6731   -2.8184 H   0  0  0  0  0  0  0  0  0  0  0  0
   -8.0284   -0.3415   -1.1532 H   0  0  0  0  0  0  0  0  0  0  0  0
   -7.1624   -1.0513    1.0623 H   0  0  0  0  0  0  0  0  0  0  0  0
   -4.7691   -0.7429    1.6167 H   0  0  0  0  0  0  0  0  0  0  0  0
  1  2  1  0
  2  3  1  0
  3  4  1  0
  4  5  1  0
  5  6  1  0
  6  7  1  0
  7  8  1  0
  8  9  2  0
  8 10  1  0
 11 10  1  6
 11 12  1  0
 12 13  1  0
 13 14  1  0
 14 15  1  6
 14 16  1  0
 16 17  1  0
 17 18  1  0
 18 19  1  0
 19 20  1  0
 17 21  1  0
  7 22  2  0
 22 23  1  0
 23 24  1  0
 24 25  1  0
 25 26  1  0
 26 27  1  0
 27 28  1  0
 23 29  1  0
 29 30  1  0
 30 31  2  0
 31 32  1  0
 32 33  2  0
 33 34  1  0
 34 35  2  0
 29  6  2  0
 35 30  1  0
 20 11  1  0
 21 11  1  0
 19 14  1  0
  1 36  1  0
  1 37  1  0
  1 38  1  0
  2 39  1  0
  2 40  1  0
  3 41  1  0
  3 42  1  0
  4 43  1  0
  4 44  1  0
  5 45  1  0
  5 46  1  0
 10 47  1  0
 12 48  1  0
 12 49  1  0
 13 50  1  0
 13 51  1  0
 15 52  1  0
 15 53  1  0
 15 54  1  0
 16 55  1  0
 16 56  1  0
 17 57  1  1
 18 58  1  0
 18 59  1  0
 19 60  1  1
 20 61  1  0
 20 62  1  0
 21 63  1  0
 21 64  1  0
 22 65  1  0
 24 66  1  0
 24 67  1  0
 25 68  1  0
 25 69  1  0
 26 70  1  0
 26 71  1  0
 28 72  1  0
 28 73  1  0
 28 74  1  0
 31 75  1  0
 32 76  1  0
 33 77  1  0
 34 78  1  0
 35 79  1  0
M  END
>  <_SMILES>  (35) 
CCCCCc1c(C(=O)N[C@@]23CC[C@]4(C)C[C@@H](C[C@@H]4C2)C3)cn(CCCOC)c1-c1ccccc1

$$$$

     RDKit          3D

 55 59  0  0  0  0  0  0  0  0999 V2000
    2.4166   -1.5280   -0.2503 C   0  0  0  0  0  0  0  0  0  0  0  0
    2.8446   -0.1459    0.1149 C   0  0  0  0  0  0  0  0  0  0  0  0
    1.9982    0.8450    0.7330 C   0  0  0  0  0  0  0  0  0  0  0  0
    0.5708    0.8197    1.0505 C   0  0  0  0  0  0  0  0  0  0  0  0
    0.1208    1.3044    2.0816 O   0  0  0  0  0  0  0  0  0  0  0  0
   -0.2086    0.2595    0.0625 N   0  0  0  0  0  0  0  0  0  0  0  0
   -1.6637    0.0444    0.1716 C   0  0  1  0  0  0  0  0  0  0  0  0
   -2.3911    1.3935    0.4187 C   0  0  0  0  0  0  0  0  0  0  0  0
   -3.8300    1.4192   -0.1127 C   0  0  0  0  0  0  0  0  0  0  0  0
   -4.4771    0.0252   -0.1410 C   0  0  2  0  0  0  0  0  0  0  0  0
   -5.9110    0.1343   -0.6739 C   0  0  0  0  0  0  0  0  0  0  0  0
   -4.4800   -0.5712    1.2929 C   0  0  0  0  0  0  0  0  0  0  0  0
   -3.3703   -1.6199    1.2607 C   0  0  1  0  0  0  0  0  0  0  0  0
   -3.6188   -2.2486   -0.1066 C   0  0  0  0  0  0  0  0  0  0  0  0
   -3.6422   -1.0000   -0.9935 C   0  0  2  0  0  0  0  0  0  0  0  0
   -2.1782   -0.5552   -1.1692 C   0  0  1  0  0  0  0  0  0  0  0  0
   -2.0776    0.3701   -2.2535 O   0  0  0  0  0  0  0  0  0  0  0  0
   -1.9636   -0.9809    1.3138 C   0  0  0  0  0  0  0  0  0  0  0  0
    2.8134    1.9129    1.0439 C   0  0  0  0  0  0  0  0  0  0  0  0
    4.0773    1.6551    0.5902 N   0  0  0  0  0  0  0  0  0  0  0  0
    5.1643    2.5944    0.7481 C   0  0  0  0  0  0  0  0  0  0  0  0
    4.1162    0.4191   -0.0209 C   0  0  0  0  0  0  0  0  0  0  0  0
    5.3716   -0.2306   -0.7263 C   0  0  0  0  0  0  0  0  0  0  0  0
    6.6980    0.2670   -0.8258 C   0  0  0  0  0  0  0  0  0  0  0  0
    7.4174   -0.6594   -1.5449 C   0  0  0  0  0  0  0  0  0  0  0  0
    6.6235   -1.6950   -1.9055 O   0  0  0  0  0  0  0  0  0  0  0  0
    5.3867   -1.4284   -1.4095 C   0  0  0  0  0  0  0  0  0  0  0  0
    2.2845   -1.6164   -1.3328 H   0  0  0  0  0  0  0  0  0  0  0  0
    3.1499   -2.2655    0.0897 H   0  0  0  0  0  0  0  0  0  0  0  0
    1.4734   -1.8029    0.2310 H   0  0  0  0  0  0  0  0  0  0  0  0
    0.2699   -0.0793   -0.7613 H   0  0  0  0  0  0  0  0  0  0  0  0
   -1.8443    2.2202   -0.0543 H   0  0  0  0  0  0  0  0  0  0  0  0
   -2.3984    1.6269    1.4907 H   0  0  0  0  0  0  0  0  0  0  0  0
   -3.8353    1.8466   -1.1236 H   0  0  0  0  0  0  0  0  0  0  0  0
   -4.4225    2.1100    0.5011 H   0  0  0  0  0  0  0  0  0  0  0  0
   -6.3987   -0.8461   -0.7103 H   0  0  0  0  0  0  0  0  0  0  0  0
   -5.9217    0.5477   -1.6885 H   0  0  0  0  0  0  0  0  0  0  0  0
   -6.5194    0.7870   -0.0381 H   0  0  0  0  0  0  0  0  0  0  0  0
   -4.3282    0.1744    2.0807 H   0  0  0  0  0  0  0  0  0  0  0  0
   -5.4363   -1.0663    1.5062 H   0  0  0  0  0  0  0  0  0  0  0  0
   -3.4831   -2.3482    2.0700 H   0  0  0  0  0  0  0  0  0  0  0  0
   -4.5864   -2.7645   -0.1339 H   0  0  0  0  0  0  0  0  0  0  0  0
   -2.8456   -2.9703   -0.3892 H   0  0  0  0  0  0  0  0  0  0  0  0
   -4.0998   -1.2006   -1.9683 H   0  0  0  0  0  0  0  0  0  0  0  0
   -1.5596   -1.4144   -1.4584 H   0  0  0  0  0  0  0  0  0  0  0  0
   -1.3206    0.9560   -2.0773 H   0  0  0  0  0  0  0  0  0  0  0  0
   -1.2268   -1.7946    1.2593 H   0  0  0  0  0  0  0  0  0  0  0  0
   -1.8193   -0.5106    2.2943 H   0  0  0  0  0  0  0  0  0  0  0  0
    2.5711    2.8421    1.5458 H   0  0  0  0  0  0  0  0  0  0  0  0
    5.5206    2.8863   -0.2423 H   0  0  0  0  0  0  0  0  0  0  0  0
    5.9493    2.1219    1.3427 H   0  0  0  0  0  0  0  0  0  0  0  0
    4.8084    3.4849    1.2742 H   0  0  0  0  0  0  0  0  0  0  0  0
    7.1163    1.1779   -0.4303 H   0  0  0  0  0  0  0  0  0  0  0  0
    8.4471   -0.7232   -1.8681 H   0  0  0  0  0  0  0  0  0  0  0  0
    4.6484   -2.1794   -1.6426 H   0  0  0  0  0  0  0  0  0  0  0  0
  1  2  1  0
  2  3  1  0
  3  4  1  0
  4  5  2  0
  4  6  1  0
  7  6  1  6
  7  8  1  0
  8  9  1  0
  9 10  1  0
 10 11  1  6
 10 12  1  0
 12 13  1  0
 13 14  1  0
 14 15  1  0
 15 16  1  0
 16 17  1  0
 13 18  1  0
  3 19  2  0
 19 20  1  0
 20 21  1  0
 20 22  1  0
 22 23  1  0
 23 24  1  0
 24 25  2  0
 25 26  1  0
 26 27  1  0
 22  2  2  0
 27 23  2  0
 16  7  1  0
 18  7  1  0
 15 10  1  0
  1 28  1  0
  1 29  1  0
  1 30  1  0
  6 31  1  0
  8 32  1  0
  8 33  1  0
  9 34  1  0
  9 35  1  0
 11 36  1  0
 11 37  1  0
 11 38  1  0
 12 39  1  0
 12 40  1  0
 13 41  1  1
 14 42  1  0
 14 43  1  0
 15 44  1  6
 16 45  1  6
 17 46  1  0
 18 47  1  0
 18 48  1  0
 19 49  1  0
 21 50  1  0
 21 51  1  0
 21 52  1  0
 24 53  1  0
 25 54  1  0
 27 55  1  0
M  END
>  <_SMILES>  (36) 
Cc1c(C(=O)N[C@@]23CC[C@]4(C)C[C@@H](C[C@@H]4[C@H]2O)C3)cn(C)c1-c1ccoc1

$$$$

     RDKit          3D

 68 72  0  0  0  0  0  0  0  0999 V2000
   -6.7168    0.2038    0.6885 C   0  0  0  0  0  0  0  0  0  0  0  0
   -6.0415   -1.1410    0.9838 C   0  0  0  0  0  0  0  0  0  0  0  0
   -6.4704   -2.1873   -0.0536 C   0  0  0  0  0  0  0  0  0  0  0  0
   -6.4847   -1.6268    2.3752 C   0  0  0  0  0  0  0  0  0  0  0  0
   -4.5082   -0.9485    0.9687 C   0  0  0  0  0  0  0  0  0  0  0  0
   -3.8683   -0.8966    2.0224 O   0  0  0  0  0  0  0  0  0  0  0  0
   -3.8326   -0.8219   -0.3876 C   0  0  0  0  0  0  0  0  0  0  0  0
   -2.4723   -0.2960   -0.3168 N   0  0  0  0  0  0  0  0  0  0  0  0
   -1.3473   -1.0610   -0.4743 C   0  0  0  0  0  0  0  0  0  0  0  0
   -0.2251   -0.2471   -0.4100 C   0  0  0  0  0  0  0  0  0  0  0  0
    1.1358   -0.7754   -0.5343 C   0  0  0  0  0  0  0  0  0  0  0  0
    1.3401   -1.9580   -0.7903 O   0  0  0  0  0  0  0  0  0  0  0  0
    2.1464    0.1371   -0.3359 N   0  0  0  0  0  0  0  0  0  0  0  0
    3.5836   -0.1700   -0.3211 C   0  0  1  0  0  0  0  0  0  0  0  0
    3.9269   -1.0759    0.8895 C   0  0  0  0  0  0  0  0  0  0  0  0
    5.1791   -1.9323    0.6592 C   0  0  0  0  0  0  0  0  0  0  0  0
    6.2016   -1.2505   -0.2662 C   0  0  2  0  0  0  0  0  0  0  0  0
    7.4354   -2.1468   -0.4220 C   0  0  0  0  0  0  0  0  0  0  0  0
    6.6043    0.1269    0.3238 C   0  0  0  0  0  0  0  0  0  0  0  0
    5.8541    1.1344   -0.5451 C   0  0  1  0  0  0  0  0  0  0  0  0
    6.0507    0.5218   -1.9268 C   0  0  0  0  0  0  0  0  0  0  0  0
    5.5788   -0.9104   -1.6660 C   0  0  2  0  0  0  0  0  0  0  0  0
    4.0398   -0.8827   -1.6135 C   0  0  0  0  0  0  0  0  0  0  0  0
    4.3495    1.1938   -0.2073 C   0  0  0  0  0  0  0  0  0  0  0  0
   -0.7279    1.0763   -0.2197 C   0  0  0  0  0  0  0  0  0  0  0  0
    0.2060    2.5016   -0.0782 Cl  0  0  0  0  0  0  0  0  0  0  0  0
   -2.1144    1.0281   -0.1746 C   0  0  0  0  0  0  0  0  0  0  0  0
   -3.0752    2.1114    0.0069 C   0  0  0  0  0  0  0  0  0  0  0  0
   -3.5407    2.4299    1.2880 C   0  0  0  0  0  0  0  0  0  0  0  0
   -4.4654    3.4616    1.4638 C   0  0  0  0  0  0  0  0  0  0  0  0
   -4.9225    4.1758    0.3580 C   0  0  0  0  0  0  0  0  0  0  0  0
   -6.0695    5.4396    0.5718 Cl  0  0  0  0  0  0  0  0  0  0  0  0
   -4.4590    3.8714   -0.9211 C   0  0  0  0  0  0  0  0  0  0  0  0
   -3.5327    2.8405   -1.0966 C   0  0  0  0  0  0  0  0  0  0  0  0
   -6.4189    0.9626    1.4203 H   0  0  0  0  0  0  0  0  0  0  0  0
   -6.4492    0.5850   -0.3025 H   0  0  0  0  0  0  0  0  0  0  0  0
   -7.8084    0.1150    0.7246 H   0  0  0  0  0  0  0  0  0  0  0  0
   -6.2760   -1.8486   -1.0771 H   0  0  0  0  0  0  0  0  0  0  0  0
   -5.9284   -3.1291    0.0895 H   0  0  0  0  0  0  0  0  0  0  0  0
   -7.5428   -2.4011    0.0183 H   0  0  0  0  0  0  0  0  0  0  0  0
   -6.2298   -0.8983    3.1537 H   0  0  0  0  0  0  0  0  0  0  0  0
   -7.5680   -1.7872    2.4149 H   0  0  0  0  0  0  0  0  0  0  0  0
   -5.9951   -2.5718    2.6379 H   0  0  0  0  0  0  0  0  0  0  0  0
   -3.7818   -1.8120   -0.8520 H   0  0  0  0  0  0  0  0  0  0  0  0
   -4.3993   -0.1563   -1.0439 H   0  0  0  0  0  0  0  0  0  0  0  0
   -1.4100   -2.1345   -0.6105 H   0  0  0  0  0  0  0  0  0  0  0  0
    1.8671    1.0586   -0.0236 H   0  0  0  0  0  0  0  0  0  0  0  0
    4.0518   -0.4646    1.7924 H   0  0  0  0  0  0  0  0  0  0  0  0
    3.1019   -1.7588    1.1262 H   0  0  0  0  0  0  0  0  0  0  0  0
    4.8776   -2.8928    0.2201 H   0  0  0  0  0  0  0  0  0  0  0  0
    5.6302   -2.1725    1.6302 H   0  0  0  0  0  0  0  0  0  0  0  0
    7.1627   -3.1192   -0.8466 H   0  0  0  0  0  0  0  0  0  0  0  0
    8.1778   -1.6915   -1.0868 H   0  0  0  0  0  0  0  0  0  0  0  0
    7.9176   -2.3253    0.5455 H   0  0  0  0  0  0  0  0  0  0  0  0
    6.3711    0.2355    1.3883 H   0  0  0  0  0  0  0  0  0  0  0  0
    7.6840    0.2948    0.2175 H   0  0  0  0  0  0  0  0  0  0  0  0
    6.2964    2.1331   -0.4750 H   0  0  0  0  0  0  0  0  0  0  0  0
    7.1076    0.5379   -2.2193 H   0  0  0  0  0  0  0  0  0  0  0  0
    5.4766    1.0338   -2.7059 H   0  0  0  0  0  0  0  0  0  0  0  0
    5.9113   -1.5860   -2.4611 H   0  0  0  0  0  0  0  0  0  0  0  0
    3.6608   -1.9107   -1.6535 H   0  0  0  0  0  0  0  0  0  0  0  0
    3.6353   -0.3766   -2.4997 H   0  0  0  0  0  0  0  0  0  0  0  0
    3.8879    1.9149   -0.8973 H   0  0  0  0  0  0  0  0  0  0  0  0
    4.2138    1.6160    0.7969 H   0  0  0  0  0  0  0  0  0  0  0  0
   -3.1858    1.8740    2.1550 H   0  0  0  0  0  0  0  0  0  0  0  0
   -4.8214    3.7001    2.4625 H   0  0  0  0  0  0  0  0  0  0  0  0
   -4.8086    4.4348   -1.7821 H   0  0  0  0  0  0  0  0  0  0  0  0
   -3.1659    2.6145   -2.0954 H   0  0  0  0  0  0  0  0  0  0  0  0
  1  2  1  0
  2  3  1  0
  2  4  1  0
  2  5  1  0
  5  6  2  0
  5  7  1  0
  7  8  1  0
  8  9  1  0
  9 10  2  0
 10 11  1  0
 11 12  2  0
 11 13  1  0
 14 13  1  6
 14 15  1  0
 15 16  1  0
 16 17  1  0
 17 18  1  6
 17 19  1  0
 19 20  1  0
 20 21  1  0
 21 22  1  0
 22 23  1  0
 20 24  1  0
 10 25  1  0
 25 26  1  0
 25 27  2  0
 27 28  1  0
 28 29  1  0
 29 30  2  0
 30 31  1  0
 31 32  1  0
 31 33  2  0
 33 34  1  0
 27  8  1  0
 34 28  2  0
 23 14  1  0
 24 14  1  0
 22 17  1  0
  1 35  1  0
  1 36  1  0
  1 37  1  0
  3 38  1  0
  3 39  1  0
  3 40  1  0
  4 41  1  0
  4 42  1  0
  4 43  1  0
  7 44  1  0
  7 45  1  0
  9 46  1  0
 13 47  1  0
 15 48  1  0
 15 49  1  0
 16 50  1  0
 16 51  1  0
 18 52  1  0
 18 53  1  0
 18 54  1  0
 19 55  1  0
 19 56  1  0
 20 57  1  6
 21 58  1  0
 21 59  1  0
 22 60  1  6
 23 61  1  0
 23 62  1  0
 24 63  1  0
 24 64  1  0
 29 65  1  0
 30 66  1  0
 33 67  1  0
 34 68  1  0
M  END
>  <_SMILES>  (37) 
CC(C)(C)C(=O)Cn1cc(C(=O)N[C@@]23CC[C@]4(C)C[C@@H](C[C@@H]4C2)C3)c(Cl)c1-c1ccc(Cl)cc1

$$$$

     RDKit          3D

 66 71  0  0  0  0  0  0  0  0999 V2000
    5.3583    2.2102    4.3197 C   0  0  0  0  0  0  0  0  0  0  0  0
    4.2488    1.5020    3.5602 C   0  0  0  0  0  0  0  0  0  0  0  0
    3.5061    2.4634    2.6363 C   0  0  0  0  0  0  0  0  0  0  0  0
    2.4390    1.8036    1.9053 N   0  0  0  0  0  0  0  0  0  0  0  0
    1.1199    1.7757    2.2828 C   0  0  0  0  0  0  0  0  0  0  0  0
    0.4003    1.0675    1.3277 C   0  0  0  0  0  0  0  0  0  0  0  0
   -1.0347    0.8213    1.3792 C   0  0  0  0  0  0  0  0  0  0  0  0
   -1.7280    1.2215    2.3085 O   0  0  0  0  0  0  0  0  0  0  0  0
   -1.5278    0.1117    0.3073 N   0  0  0  0  0  0  0  0  0  0  0  0
   -2.9255   -0.2949    0.1382 C   0  0  1  0  0  0  0  0  0  0  0  0
   -3.8452    0.9532    0.0945 C   0  0  0  0  0  0  0  0  0  0  0  0
   -5.1145    0.7443   -0.7420 C   0  0  0  0  0  0  0  0  0  0  0  0
   -5.5810   -0.7208   -0.7532 C   0  0  2  0  0  0  0  0  0  0  0  0
   -6.8640   -0.8486   -1.5824 C   0  0  0  0  0  0  0  0  0  0  0  0
   -5.8254   -1.2075    0.7003 C   0  0  0  0  0  0  0  0  0  0  0  0
   -4.6189   -2.0952    1.0033 C   0  0  1  0  0  0  0  0  0  0  0  0
   -4.4773   -2.8437   -0.3173 C   0  0  0  0  0  0  0  0  0  0  0  0
   -4.4636   -1.6727   -1.3033 C   0  0  2  0  0  0  0  0  0  0  0  0
   -3.0708   -1.0246   -1.2166 C   0  0  0  0  0  0  0  0  0  0  0  0
   -3.3446   -1.2696    1.2858 C   0  0  0  0  0  0  0  0  0  0  0  0
    1.3437    0.6616    0.3451 C   0  0  0  0  0  0  0  0  0  0  0  0
    1.1669   -0.0582   -0.7935 N   0  0  0  0  0  0  0  0  0  0  0  0
    2.3168   -0.2601   -1.5046 C   0  0  0  0  0  0  0  0  0  0  0  0
    2.1225   -1.0773   -2.7507 C   0  0  0  0  0  0  0  0  0  0  0  0
    3.5804    0.2334   -1.1068 C   0  0  0  0  0  0  0  0  0  0  0  0
    4.8395    0.0304   -1.8698 C   0  0  0  0  0  0  0  0  0  0  0  0
    6.0839    0.0018   -1.2315 C   0  0  0  0  0  0  0  0  0  0  0  0
    7.2447   -0.1716   -1.9832 C   0  0  0  0  0  0  0  0  0  0  0  0
    7.1468   -0.3076   -3.3597 C   0  0  0  0  0  0  0  0  0  0  0  0
    5.8870   -0.2644   -3.9269 C   0  0  0  0  0  0  0  0  0  0  0  0
    4.7457   -0.1014   -3.2196 N   0  0  0  0  0  0  0  0  0  0  0  0
    3.7460    0.9436    0.0512 N   0  0  0  0  0  0  0  0  0  0  0  0
    2.5943    1.1283    0.7243 C   0  0  0  0  0  0  0  0  0  0  0  0
    5.8780    1.5055    4.9764 H   0  0  0  0  0  0  0  0  0  0  0  0
    6.0936    2.6381    3.6308 H   0  0  0  0  0  0  0  0  0  0  0  0
    4.9559    3.0183    4.9389 H   0  0  0  0  0  0  0  0  0  0  0  0
    4.6789    0.6766    2.9803 H   0  0  0  0  0  0  0  0  0  0  0  0
    3.5490    1.0533    4.2756 H   0  0  0  0  0  0  0  0  0  0  0  0
    3.0556    3.2828    3.2087 H   0  0  0  0  0  0  0  0  0  0  0  0
    4.1854    2.9120    1.9023 H   0  0  0  0  0  0  0  0  0  0  0  0
    0.7820    2.2548    3.1940 H   0  0  0  0  0  0  0  0  0  0  0  0
   -0.8495   -0.1828   -0.3931 H   0  0  0  0  0  0  0  0  0  0  0  0
   -4.1222    1.2561    1.1121 H   0  0  0  0  0  0  0  0  0  0  0  0
   -3.3067    1.8119   -0.3288 H   0  0  0  0  0  0  0  0  0  0  0  0
   -4.9193    1.0702   -1.7725 H   0  0  0  0  0  0  0  0  0  0  0  0
   -5.9051    1.4038   -0.3623 H   0  0  0  0  0  0  0  0  0  0  0  0
   -7.2128   -1.8866   -1.6201 H   0  0  0  0  0  0  0  0  0  0  0  0
   -7.6699   -0.2401   -1.1575 H   0  0  0  0  0  0  0  0  0  0  0  0
   -6.6996   -0.5168   -2.6135 H   0  0  0  0  0  0  0  0  0  0  0  0
   -5.9390   -0.3932    1.4237 H   0  0  0  0  0  0  0  0  0  0  0  0
   -6.7395   -1.8128    0.7587 H   0  0  0  0  0  0  0  0  0  0  0  0
   -4.8200   -2.7747    1.8375 H   0  0  0  0  0  0  0  0  0  0  0  0
   -5.3415   -3.4948   -0.4965 H   0  0  0  0  0  0  0  0  0  0  0  0
   -3.5742   -3.4610   -0.3620 H   0  0  0  0  0  0  0  0  0  0  0  0
   -4.6523   -2.0147   -2.3263 H   0  0  0  0  0  0  0  0  0  0  0  0
   -2.2913   -1.7894   -1.3337 H   0  0  0  0  0  0  0  0  0  0  0  0
   -2.9246   -0.3219   -2.0476 H   0  0  0  0  0  0  0  0  0  0  0  0
   -2.5226   -1.9768    1.4654 H   0  0  0  0  0  0  0  0  0  0  0  0
   -3.4772   -0.7185    2.2248 H   0  0  0  0  0  0  0  0  0  0  0  0
    1.1139   -1.5058   -2.7739 H   0  0  0  0  0  0  0  0  0  0  0  0
    2.8251   -1.9155   -2.7848 H   0  0  0  0  0  0  0  0  0  0  0  0
    2.2297   -0.4527   -3.6422 H   0  0  0  0  0  0  0  0  0  0  0  0
    6.1527    0.1154   -0.1531 H   0  0  0  0  0  0  0  0  0  0  0  0
    8.2144   -0.1948   -1.4941 H   0  0  0  0  0  0  0  0  0  0  0  0
    8.0292   -0.4401   -3.9753 H   0  0  0  0  0  0  0  0  0  0  0  0
    5.7548   -0.3616   -5.0010 H   0  0  0  0  0  0  0  0  0  0  0  0
  1  2  1  0
  2  3  1  0
  3  4  1  0
  4  5  1  0
  5  6  2  0
  6  7  1  0
  7  8  2  0
  7  9  1  0
 10  9  1  1
 10 11  1  0
 11 12  1  0
 12 13  1  0
 13 14  1  6
 13 15  1  0
 15 16  1  0
 16 17  1  0
 17 18  1  0
 18 19  1  0
 16 20  1  0
  6 21  1  0
 21 22  1  0
 22 23  2  0
 23 24  1  0
 23 25  1  0
 25 26  1  0
 26 27  2  0
 27 28  1  0
 28 29  2  0
 29 30  1  0
 30 31  2  0
 25 32  2  0
 32 33  1  0
 33  4  1  0
 19 10  1  0
 33 21  2  0
 20 10  1  0
 31 26  1  0
 18 13  1  0
  1 34  1  0
  1 35  1  0
  1 36  1  0
  2 37  1  0
  2 38  1  0
  3 39  1  0
  3 40  1  0
  5 41  1  0
  9 42  1  0
 11 43  1  0
 11 44  1  0
 12 45  1  0
 12 46  1  0
 14 47  1  0
 14 48  1  0
 14 49  1  0
 15 50  1  0
 15 51  1  0
 16 52  1  1
 17 53  1  0
 17 54  1  0
 18 55  1  6
 19 56  1  0
 19 57  1  0
 20 58  1  0
 20 59  1  0
 24 60  1  0
 24 61  1  0
 24 62  1  0
 27 63  1  0
 28 64  1  0
 29 65  1  0
 30 66  1  0
M  END
>  <_SMILES>  (38) 
CCCn1cc(C(=O)N[C@@]23CC[C@]4(C)C[C@@H](C[C@@H]4C2)C3)c2nc(C)c(-c3ccccn3)nc21

$$$$

     RDKit          3D

 64 68  0  0  0  0  0  0  0  0999 V2000
    0.3993   -0.6891   -2.7456 C   0  0  0  0  0  0  0  0  0  0  0  0
    1.0703    0.2619   -1.8178 C   0  0  0  0  0  0  0  0  0  0  0  0
    2.3119    0.8350   -2.0339 C   0  0  0  0  0  0  0  0  0  0  0  0
    2.6429    1.5806   -0.9380 N   0  0  0  0  0  0  0  0  0  0  0  0
    3.8817    2.3117   -0.7646 C   0  0  0  0  0  0  0  0  0  0  0  0
    5.1089    1.4220   -0.5217 C   0  0  1  0  0  0  0  0  0  0  0  0
    6.2709    2.2678   -0.4892 O   0  0  0  0  0  0  0  0  0  0  0  0
    5.0057    0.6151    0.7870 C   0  0  0  0  0  0  0  0  0  0  0  0
    6.1534   -0.3494    0.9704 C   0  0  0  0  0  0  0  0  0  0  0  0
    7.1536   -0.1125    1.9226 C   0  0  0  0  0  0  0  0  0  0  0  0
    8.2034   -1.0177    2.0669 C   0  0  0  0  0  0  0  0  0  0  0  0
    9.1537   -0.7803    2.9803 F   0  0  0  0  0  0  0  0  0  0  0  0
    8.2819   -2.1628    1.2809 C   0  0  0  0  0  0  0  0  0  0  0  0
    7.2920   -2.4088    0.3316 C   0  0  0  0  0  0  0  0  0  0  0  0
    6.2412   -1.5054    0.1844 C   0  0  0  0  0  0  0  0  0  0  0  0
    5.2969   -1.7584   -0.7328 F   0  0  0  0  0  0  0  0  0  0  0  0
    1.6230    1.5337   -0.0326 C   0  0  0  0  0  0  0  0  0  0  0  0
    0.6076    0.7358   -0.5384 C   0  0  0  0  0  0  0  0  0  0  0  0
   -0.6341    0.4746    0.1954 C   0  0  0  0  0  0  0  0  0  0  0  0
   -0.6925    0.5502    1.4179 O   0  0  0  0  0  0  0  0  0  0  0  0
   -1.7210    0.2003   -0.6061 N   0  0  0  0  0  0  0  0  0  0  0  0
   -3.0881    0.0097   -0.1054 C   0  0  1  0  0  0  0  0  0  0  0  0
   -3.5948    1.3091    0.5713 C   0  0  0  0  0  0  0  0  0  0  0  0
   -5.1158    1.4885    0.4777 C   0  0  0  0  0  0  0  0  0  0  0  0
   -5.8686    0.1486    0.4188 C   0  0  2  0  0  0  0  0  0  0  0  0
   -7.3783    0.4064    0.3534 C   0  0  0  0  0  0  0  0  0  0  0  0
   -5.5196   -0.7076    1.6655 C   0  0  0  0  0  0  0  0  0  0  0  0
   -4.5618   -1.7710    1.1297 C   0  0  1  0  0  0  0  0  0  0  0  0
   -5.2321   -2.1174   -0.1947 C   0  0  0  0  0  0  0  0  0  0  0  0
   -5.3976   -0.7206   -0.7981 C   0  0  2  0  0  0  0  0  0  0  0  0
   -4.0142   -0.2822   -1.3082 C   0  0  0  0  0  0  0  0  0  0  0  0
   -3.1468   -1.2050    0.8786 C   0  0  0  0  0  0  0  0  0  0  0  0
    1.1228   -1.1463   -3.4291 H   0  0  0  0  0  0  0  0  0  0  0  0
   -0.0876   -1.4989   -2.1934 H   0  0  0  0  0  0  0  0  0  0  0  0
   -0.3516   -0.1697   -3.3488 H   0  0  0  0  0  0  0  0  0  0  0  0
    2.9932    0.7387   -2.8706 H   0  0  0  0  0  0  0  0  0  0  0  0
    4.0274    2.9197   -1.6664 H   0  0  0  0  0  0  0  0  0  0  0  0
    3.7526    3.0222    0.0612 H   0  0  0  0  0  0  0  0  0  0  0  0
    5.2398    0.7468   -1.3749 H   0  0  0  0  0  0  0  0  0  0  0  0
    6.2916    2.7340    0.3641 H   0  0  0  0  0  0  0  0  0  0  0  0
    4.9739    1.3021    1.6424 H   0  0  0  0  0  0  0  0  0  0  0  0
    4.0756    0.0356    0.8191 H   0  0  0  0  0  0  0  0  0  0  0  0
    7.1326    0.7682    2.5571 H   0  0  0  0  0  0  0  0  0  0  0  0
    9.1100   -2.8516    1.4131 H   0  0  0  0  0  0  0  0  0  0  0  0
    7.3298   -3.2948   -0.2941 H   0  0  0  0  0  0  0  0  0  0  0  0
    1.6762    2.0632    0.9110 H   0  0  0  0  0  0  0  0  0  0  0  0
   -1.6150    0.4434   -1.5803 H   0  0  0  0  0  0  0  0  0  0  0  0
   -3.2847    1.3340    1.6234 H   0  0  0  0  0  0  0  0  0  0  0  0
   -3.1277    2.1895    0.1096 H   0  0  0  0  0  0  0  0  0  0  0  0
   -5.3501    2.0749   -0.4210 H   0  0  0  0  0  0  0  0  0  0  0  0
   -5.4572    2.0918    1.3283 H   0  0  0  0  0  0  0  0  0  0  0  0
   -7.6368    1.0017   -0.5293 H   0  0  0  0  0  0  0  0  0  0  0  0
   -7.7238    0.9506    1.2393 H   0  0  0  0  0  0  0  0  0  0  0  0
   -7.9411   -0.5319    0.2965 H   0  0  0  0  0  0  0  0  0  0  0  0
   -5.0866   -0.1297    2.4887 H   0  0  0  0  0  0  0  0  0  0  0  0
   -6.4170   -1.2003    2.0620 H   0  0  0  0  0  0  0  0  0  0  0  0
   -4.5081   -2.6362    1.7980 H   0  0  0  0  0  0  0  0  0  0  0  0
   -6.2081   -2.5905   -0.0313 H   0  0  0  0  0  0  0  0  0  0  0  0
   -4.6298   -2.7905   -0.8134 H   0  0  0  0  0  0  0  0  0  0  0  0
   -6.1145   -0.7296   -1.6258 H   0  0  0  0  0  0  0  0  0  0  0  0
   -4.1087    0.6088   -1.9431 H   0  0  0  0  0  0  0  0  0  0  0  0
   -3.5830   -1.0609   -1.9515 H   0  0  0  0  0  0  0  0  0  0  0  0
   -2.5293   -2.0180    0.4716 H   0  0  0  0  0  0  0  0  0  0  0  0
   -2.6979   -0.9390    1.8430 H   0  0  0  0  0  0  0  0  0  0  0  0
  1  2  1  0
  2  3  2  0
  3  4  1  0
  4  5  1  0
  5  6  1  0
  6  7  1  0
  6  8  1  0
  8  9  1  0
  9 10  1  0
 10 11  2  0
 11 12  1  0
 11 13  1  0
 13 14  2  0
 14 15  1  0
 15 16  1  0
  4 17  1  0
 17 18  2  0
 18 19  1  0
 19 20  2  0
 19 21  1  0
 22 21  1  6
 22 23  1  0
 23 24  1  0
 24 25  1  0
 25 26  1  6
 25 27  1  0
 27 28  1  0
 28 29  1  0
 29 30  1  0
 30 31  1  0
 28 32  1  0
 18  2  1  0
 31 22  1  0
 15  9  2  0
 32 22  1  0
 30 25  1  0
  1 33  1  0
  1 34  1  0
  1 35  1  0
  3 36  1  0
  5 37  1  0
  5 38  1  0
  6 39  1  6
  7 40  1  0
  8 41  1  0
  8 42  1  0
 10 43  1  0
 13 44  1  0
 14 45  1  0
 17 46  1  0
 21 47  1  0
 23 48  1  0
 23 49  1  0
 24 50  1  0
 24 51  1  0
 26 52  1  0
 26 53  1  0
 26 54  1  0
 27 55  1  0
 27 56  1  0
 28 57  1  1
 29 58  1  0
 29 59  1  0
 30 60  1  6
 31 61  1  0
 31 62  1  0
 32 63  1  0
 32 64  1  0
M  END
>  <_SMILES>  (39) 
Cc1cn(C[C@@H](O)Cc2cc(F)ccc2F)cc1C(=O)N[C@@]12CC[C@]3(C)C[C@@H](C[C@@H]3C1)C2

$$$$

     RDKit          3D

 72 76  0  0  0  0  0  0  0  0999 V2000
    0.5406   -2.9757   -1.8973 C   0  0  0  0  0  0  0  0  0  0  0  0
    0.9274   -1.9126   -0.9230 C   0  0  0  0  0  0  0  0  0  0  0  0
    0.0597   -0.8737   -0.4305 C   0  0  0  0  0  0  0  0  0  0  0  0
   -1.3465   -0.6513   -0.7937 C   0  0  0  0  0  0  0  0  0  0  0  0
   -1.8717   -1.2157   -1.7473 O   0  0  0  0  0  0  0  0  0  0  0  0
   -2.0271    0.2170    0.0365 N   0  0  0  0  0  0  0  0  0  0  0  0
   -3.4576    0.5266   -0.0853 C   0  0  1  0  0  0  0  0  0  0  0  0
   -4.3013   -0.7571    0.1255 C   0  0  0  0  0  0  0  0  0  0  0  0
   -5.6899   -0.4811    0.7172 C   0  0  0  0  0  0  0  0  0  0  0  0
   -6.2354    0.9032    0.3284 C   0  0  2  0  0  0  0  0  0  0  0  0
   -7.6316    1.0965    0.9311 C   0  0  0  0  0  0  0  0  0  0  0  0
   -6.2906    1.0335   -1.2172 C   0  0  0  0  0  0  0  0  0  0  0  0
   -5.1054    1.9365   -1.5567 C   0  0  1  0  0  0  0  0  0  0  0  0
   -5.2030    2.9676   -0.4385 C   0  0  0  0  0  0  0  0  0  0  0  0
   -5.2673    2.0491    0.7841 C   0  0  2  0  0  0  0  0  0  0  0  0
   -3.8423    1.5248    1.0308 C   0  0  0  0  0  0  0  0  0  0  0  0
   -3.7588    1.1845   -1.4721 C   0  0  0  0  0  0  0  0  0  0  0  0
    0.8290   -0.1129    0.4356 C   0  0  0  0  0  0  0  0  0  0  0  0
    2.0950   -0.6402    0.4861 N   0  0  0  0  0  0  0  0  0  0  0  0
    3.1746   -0.0792    1.2931 C   0  0  0  0  0  0  0  0  0  0  0  0
    3.9730    0.9765    0.5223 C   0  0  0  0  0  0  0  0  0  0  0  0
    5.2224    1.5314    1.2544 C   0  0  0  0  0  0  0  0  0  0  0  0
    6.2619    0.4220    1.4887 C   0  0  0  0  0  0  0  0  0  0  0  0
    5.8597    2.6158    0.3639 C   0  0  0  0  0  0  0  0  0  0  0  0
    4.8422    2.1649    2.6021 C   0  0  0  0  0  0  0  0  0  0  0  0
    2.1755   -1.7465   -0.3303 C   0  0  0  0  0  0  0  0  0  0  0  0
    3.3933   -2.5343   -0.5080 C   0  0  0  0  0  0  0  0  0  0  0  0
    3.7031   -3.5657    0.3850 C   0  0  0  0  0  0  0  0  0  0  0  0
    4.8720   -4.3107    0.2197 C   0  0  0  0  0  0  0  0  0  0  0  0
    5.7330   -4.0311   -0.8412 C   0  0  0  0  0  0  0  0  0  0  0  0
    5.4244   -3.0109   -1.7404 C   0  0  0  0  0  0  0  0  0  0  0  0
    4.2555   -2.2659   -1.5763 C   0  0  0  0  0  0  0  0  0  0  0  0
    0.3332   -2.5341   -2.8772 H   0  0  0  0  0  0  0  0  0  0  0  0
    1.3310   -3.7211   -2.0264 H   0  0  0  0  0  0  0  0  0  0  0  0
   -0.3546   -3.5035   -1.5527 H   0  0  0  0  0  0  0  0  0  0  0  0
   -1.5645    0.4781    0.8942 H   0  0  0  0  0  0  0  0  0  0  0  0
   -3.7836   -1.4494    0.8031 H   0  0  0  0  0  0  0  0  0  0  0  0
   -4.4063   -1.3013   -0.8213 H   0  0  0  0  0  0  0  0  0  0  0  0
   -6.3774   -1.2755    0.4003 H   0  0  0  0  0  0  0  0  0  0  0  0
   -5.6308   -0.5526    1.8116 H   0  0  0  0  0  0  0  0  0  0  0  0
   -8.0408    2.0819    0.6820 H   0  0  0  0  0  0  0  0  0  0  0  0
   -8.3303    0.3399    0.5573 H   0  0  0  0  0  0  0  0  0  0  0  0
   -7.6020    1.0167    2.0234 H   0  0  0  0  0  0  0  0  0  0  0  0
   -7.2192    1.5269   -1.5326 H   0  0  0  0  0  0  0  0  0  0  0  0
   -6.2496    0.0728   -1.7413 H   0  0  0  0  0  0  0  0  0  0  0  0
   -5.2196    2.3941   -2.5444 H   0  0  0  0  0  0  0  0  0  0  0  0
   -6.1200    3.5624   -0.5289 H   0  0  0  0  0  0  0  0  0  0  0  0
   -4.3532    3.6577   -0.4204 H   0  0  0  0  0  0  0  0  0  0  0  0
   -5.6235    2.5900    1.6671 H   0  0  0  0  0  0  0  0  0  0  0  0
   -3.7806    1.0408    2.0146 H   0  0  0  0  0  0  0  0  0  0  0  0
   -3.1320    2.3618    1.0665 H   0  0  0  0  0  0  0  0  0  0  0  0
   -2.9600    1.9035   -1.7018 H   0  0  0  0  0  0  0  0  0  0  0  0
   -3.7252    0.4318   -2.2688 H   0  0  0  0  0  0  0  0  0  0  0  0
    0.5928    0.7775    1.0021 H   0  0  0  0  0  0  0  0  0  0  0  0
    2.7082    0.3556    2.1843 H   0  0  0  0  0  0  0  0  0  0  0  0
    3.8016   -0.9081    1.6308 H   0  0  0  0  0  0  0  0  0  0  0  0
    3.2992    1.8096    0.2776 H   0  0  0  0  0  0  0  0  0  0  0  0
    4.2859    0.5606   -0.4444 H   0  0  0  0  0  0  0  0  0  0  0  0
    7.1884    0.8331    1.9060 H   0  0  0  0  0  0  0  0  0  0  0  0
    6.5165   -0.0853    0.5514 H   0  0  0  0  0  0  0  0  0  0  0  0
    5.9000   -0.3340    2.1928 H   0  0  0  0  0  0  0  0  0  0  0  0
    6.1581    2.2051   -0.6074 H   0  0  0  0  0  0  0  0  0  0  0  0
    5.1593    3.4379    0.1785 H   0  0  0  0  0  0  0  0  0  0  0  0
    6.7539    3.0413    0.8334 H   0  0  0  0  0  0  0  0  0  0  0  0
    4.0686    2.9303    2.4742 H   0  0  0  0  0  0  0  0  0  0  0  0
    4.4646    1.4186    3.3088 H   0  0  0  0  0  0  0  0  0  0  0  0
    5.7096    2.6440    3.0708 H   0  0  0  0  0  0  0  0  0  0  0  0
    3.0321   -3.7936    1.2096 H   0  0  0  0  0  0  0  0  0  0  0  0
    5.1077   -5.1117    0.9152 H   0  0  0  0  0  0  0  0  0  0  0  0
    6.6414   -4.6136   -0.9717 H   0  0  0  0  0  0  0  0  0  0  0  0
    6.0906   -2.7978   -2.5721 H   0  0  0  0  0  0  0  0  0  0  0  0
    4.0171   -1.4757   -2.2844 H   0  0  0  0  0  0  0  0  0  0  0  0
  1  2  1  0
  2  3  1  0
  3  4  1  0
  4  5  2  0
  4  6  1  0
  7  6  1  6
  7  8  1  0
  8  9  1  0
  9 10  1  0
 10 11  1  1
 10 12  1  0
 12 13  1  0
 13 14  1  0
 14 15  1  0
 15 16  1  0
 13 17  1  0
  3 18  2  0
 18 19  1  0
 19 20  1  0
 20 21  1  0
 21 22  1  0
 22 23  1  0
 22 24  1  0
 22 25  1  0
 19 26  1  0
 26 27  1  0
 27 28  2  0
 28 29  1  0
 29 30  2  0
 30 31  1  0
 31 32  2  0
 26  2  2  0
 32 27  1  0
 16  7  1  0
 17  7  1  0
 15 10  1  0
  1 33  1  0
  1 34  1  0
  1 35  1  0
  6 36  1  0
  8 37  1  0
  8 38  1  0
  9 39  1  0
  9 40  1  0
 11 41  1  0
 11 42  1  0
 11 43  1  0
 12 44  1  0
 12 45  1  0
 13 46  1  6
 14 47  1  0
 14 48  1  0
 15 49  1  1
 16 50  1  0
 16 51  1  0
 17 52  1  0
 17 53  1  0
 18 54  1  0
 20 55  1  0
 20 56  1  0
 21 57  1  0
 21 58  1  0
 23 59  1  0
 23 60  1  0
 23 61  1  0
 24 62  1  0
 24 63  1  0
 24 64  1  0
 25 65  1  0
 25 66  1  0
 25 67  1  0
 28 68  1  0
 29 69  1  0
 30 70  1  0
 31 71  1  0
 32 72  1  0
M  END
>  <_SMILES>  (40) 
Cc1c(C(=O)N[C@@]23CC[C@]4(C)C[C@@H](C[C@@H]4C2)C3)cn(CCC(C)(C)C)c1-c1ccccc1

$$$$

     RDKit          3D

 74 79  0  0  0  0  0  0  0  0999 V2000
    0.0965   -2.4483   -0.4452 C   0  0  0  0  0  0  0  0  0  0  0  0
   -0.6059   -1.1857   -0.0690 C   0  0  0  0  0  0  0  0  0  0  0  0
   -0.0433    0.1392   -0.0364 C   0  0  0  0  0  0  0  0  0  0  0  0
    1.3166    0.6146   -0.3043 C   0  0  0  0  0  0  0  0  0  0  0  0
    1.5361    1.7362   -0.7477 O   0  0  0  0  0  0  0  0  0  0  0  0
    2.3050   -0.2814    0.0420 N   0  0  0  0  0  0  0  0  0  0  0  0
    3.7485   -0.0191   -0.0460 C   0  0  1  0  0  0  0  0  0  0  0  0
    4.1722    0.2132   -1.5211 C   0  0  0  0  0  0  0  0  0  0  0  0
    5.4240    1.0906   -1.6513 C   0  0  0  0  0  0  0  0  0  0  0  0
    6.3877    0.9251   -0.4640 C   0  0  2  0  0  0  0  0  0  0  0  0
    7.6287    1.7985   -0.6800 C   0  0  0  0  0  0  0  0  0  0  0  0
    6.7927   -0.5662   -0.3236 C   0  0  0  0  0  0  0  0  0  0  0  0
    5.9807   -1.0585    0.8726 C   0  0  1  0  0  0  0  0  0  0  0  0
    6.1215    0.1279    1.8194 C   0  0  0  0  0  0  0  0  0  0  0  0
    5.6913    1.2724    0.8988 C   0  0  2  0  0  0  0  0  0  0  0  0
    4.1564    1.2161    0.7861 C   0  0  0  0  0  0  0  0  0  0  0  0
    4.4926   -1.2772    0.5242 C   0  0  0  0  0  0  0  0  0  0  0  0
   -1.0814    0.9887    0.2976 C   0  0  0  0  0  0  0  0  0  0  0  0
   -2.2207    0.2550    0.4948 N   0  0  0  0  0  0  0  0  0  0  0  0
   -3.4946    0.8504    0.8786 C   0  0  0  0  0  0  0  0  0  0  0  0
   -4.1460    1.7098   -0.2244 C   0  0  1  0  0  0  0  0  0  0  0  0
   -4.4922    0.8678   -1.4686 C   0  0  0  0  0  0  0  0  0  0  0  0
   -5.5812    1.5312   -2.3007 C   0  0  0  0  0  0  0  0  0  0  0  0
   -6.8952    1.6319   -1.5201 C   0  0  2  0  0  0  0  0  0  0  0  0
   -7.6067    2.7677   -2.0069 O   0  0  0  0  0  0  0  0  0  0  0  0
   -6.6893    1.7550   -0.0053 C   0  0  0  0  0  0  0  0  0  0  0  0
   -5.3772    2.4629    0.3264 C   0  0  0  0  0  0  0  0  0  0  0  0
   -1.9452   -1.0834    0.3086 C   0  0  0  0  0  0  0  0  0  0  0  0
   -2.9324   -2.1503    0.4689 C   0  0  0  0  0  0  0  0  0  0  0  0
   -3.5518   -2.7143   -0.6516 C   0  0  0  0  0  0  0  0  0  0  0  0
   -4.4934   -3.7331   -0.4972 C   0  0  0  0  0  0  0  0  0  0  0  0
   -4.8154   -4.1973    0.7776 C   0  0  0  0  0  0  0  0  0  0  0  0
   -4.1947   -3.6465    1.8984 C   0  0  0  0  0  0  0  0  0  0  0  0
   -3.2532   -2.6272    1.7448 C   0  0  0  0  0  0  0  0  0  0  0  0
    0.8413   -2.2658   -1.2262 H   0  0  0  0  0  0  0  0  0  0  0  0
    0.5991   -2.8764    0.4278 H   0  0  0  0  0  0  0  0  0  0  0  0
   -0.5979   -3.1973   -0.8373 H   0  0  0  0  0  0  0  0  0  0  0  0
    2.0053   -1.0569    0.6152 H   0  0  0  0  0  0  0  0  0  0  0  0
    4.3374   -0.7505   -2.0198 H   0  0  0  0  0  0  0  0  0  0  0  0
    3.3759    0.6915   -2.1029 H   0  0  0  0  0  0  0  0  0  0  0  0
    5.1163    2.1423   -1.7247 H   0  0  0  0  0  0  0  0  0  0  0  0
    5.9267    0.8559   -2.5981 H   0  0  0  0  0  0  0  0  0  0  0  0
    8.3294    1.7102    0.1577 H   0  0  0  0  0  0  0  0  0  0  0  0
    7.3536    2.8551   -0.7718 H   0  0  0  0  0  0  0  0  0  0  0  0
    8.1606    1.5087   -1.5929 H   0  0  0  0  0  0  0  0  0  0  0  0
    6.6117   -1.1592   -1.2263 H   0  0  0  0  0  0  0  0  0  0  0  0
    7.8623   -0.6584   -0.0938 H   0  0  0  0  0  0  0  0  0  0  0  0
    6.4066   -1.9725    1.2981 H   0  0  0  0  0  0  0  0  0  0  0  0
    7.1623    0.2553    2.1408 H   0  0  0  0  0  0  0  0  0  0  0  0
    5.5002    0.0340    2.7161 H   0  0  0  0  0  0  0  0  0  0  0  0
    5.9986    2.2418    1.3050 H   0  0  0  0  0  0  0  0  0  0  0  0
    3.7920    2.1409    0.3232 H   0  0  0  0  0  0  0  0  0  0  0  0
    3.7011    1.1794    1.7844 H   0  0  0  0  0  0  0  0  0  0  0  0
    3.9889   -1.5986    1.4472 H   0  0  0  0  0  0  0  0  0  0  0  0
    4.3955   -2.1185   -0.1742 H   0  0  0  0  0  0  0  0  0  0  0  0
   -1.0822    2.0662    0.4097 H   0  0  0  0  0  0  0  0  0  0  0  0
   -3.2800    1.4655    1.7620 H   0  0  0  0  0  0  0  0  0  0  0  0
   -4.1785    0.0610    1.2038 H   0  0  0  0  0  0  0  0  0  0  0  0
   -3.4208    2.4767   -0.5295 H   0  0  0  0  0  0  0  0  0  0  0  0
   -4.8385   -0.1294   -1.1736 H   0  0  0  0  0  0  0  0  0  0  0  0
   -3.5935    0.7238   -2.0795 H   0  0  0  0  0  0  0  0  0  0  0  0
   -5.2461    2.5247   -2.6263 H   0  0  0  0  0  0  0  0  0  0  0  0
   -5.7522    0.9595   -3.2208 H   0  0  0  0  0  0  0  0  0  0  0  0
   -7.5154    0.7515   -1.7254 H   0  0  0  0  0  0  0  0  0  0  0  0
   -8.4726    2.7847   -1.5648 H   0  0  0  0  0  0  0  0  0  0  0  0
   -6.6683    0.7532    0.4415 H   0  0  0  0  0  0  0  0  0  0  0  0
   -7.5226    2.2979    0.4552 H   0  0  0  0  0  0  0  0  0  0  0  0
   -5.4029    3.4687   -0.1134 H   0  0  0  0  0  0  0  0  0  0  0  0
   -5.2954    2.6089    1.4097 H   0  0  0  0  0  0  0  0  0  0  0  0
   -3.3023   -2.3595   -1.6490 H   0  0  0  0  0  0  0  0  0  0  0  0
   -4.9719   -4.1661   -1.3717 H   0  0  0  0  0  0  0  0  0  0  0  0
   -5.5464   -4.9929    0.8973 H   0  0  0  0  0  0  0  0  0  0  0  0
   -4.4401   -4.0134    2.8915 H   0  0  0  0  0  0  0  0  0  0  0  0
   -2.7678   -2.2079    2.6227 H   0  0  0  0  0  0  0  0  0  0  0  0
  1  2  1  0
  2  3  1  0
  3  4  1  0
  4  5  2  0
  4  6  1  0
  7  6  1  6
  7  8  1  0
  8  9  1  0
  9 10  1  0
 10 11  1  6
 10 12  1  0
 12 13  1  0
 13 14  1  0
 14 15  1  0
 15 16  1  0
 13 17  1  0
  3 18  2  0
 18 19  1  0
 19 20  1  0
 20 21  1  0
 21 22  1  0
 22 23  1  0
 23 24  1  0
 24 25  1  0
 24 26  1  0
 26 27  1  0
 19 28  1  0
 28 29  1  0
 29 30  2  0
 30 31  1  0
 31 32  2  0
 32 33  1  0
 33 34  2  0
 28  2  2  0
 34 29  1  0
 16  7  1  0
 27 21  1  0
 17  7  1  0
 15 10  1  0
  1 35  1  0
  1 36  1  0
  1 37  1  0
  6 38  1  0
  8 39  1  0
  8 40  1  0
  9 41  1  0
  9 42  1  0
 11 43  1  0
 11 44  1  0
 11 45  1  0
 12 46  1  0
 12 47  1  0
 13 48  1  1
 14 49  1  0
 14 50  1  0
 15 51  1  1
 16 52  1  0
 16 53  1  0
 17 54  1  0
 17 55  1  0
 18 56  1  0
 20 57  1  0
 20 58  1  0
 21 59  1  6
 22 60  1  0
 22 61  1  0
 23 62  1  0
 23 63  1  0
 24 64  1  1
 25 65  1  0
 26 66  1  0
 26 67  1  0
 27 68  1  0
 27 69  1  0
 30 70  1  0
 31 71  1  0
 32 72  1  0
 33 73  1  0
 34 74  1  0
M  END
>  <_SMILES>  (41) 
Cc1c(C(=O)N[C@@]23CC[C@]4(C)C[C@@H](C[C@@H]4C2)C3)cn(C[C@H]2CC[C@H](O)CC2)c1-c1ccccc1

$$$$

     RDKit          3D

 66 70  0  0  0  0  0  0  0  0999 V2000
   -4.1137   -2.9255    0.6436 C   0  0  0  0  0  0  0  0  0  0  0  0
   -4.7282   -2.2290   -0.3252 C   0  0  0  0  0  0  0  0  0  0  0  0
   -6.1738   -1.9013   -0.1581 C   0  0  0  0  0  0  0  0  0  0  0  0
   -6.8685   -2.3342    0.7532 O   0  0  0  0  0  0  0  0  0  0  0  0
   -4.0554   -1.7965   -1.5987 C   0  0  0  0  0  0  0  0  0  0  0  0
   -3.7564   -0.2955   -1.6880 C   0  0  0  0  0  0  0  0  0  0  0  0
   -2.7698    0.1653   -0.7210 N   0  0  0  0  0  0  0  0  0  0  0  0
   -1.4294   -0.1189   -0.8151 C   0  0  0  0  0  0  0  0  0  0  0  0
   -0.7750    0.4314    0.2751 C   0  0  0  0  0  0  0  0  0  0  0  0
    0.6572    0.3325    0.5888 C   0  0  0  0  0  0  0  0  0  0  0  0
    1.0989    0.5956    1.7014 O   0  0  0  0  0  0  0  0  0  0  0  0
    1.4513   -0.0517   -0.4737 N   0  0  0  0  0  0  0  0  0  0  0  0
    2.9202   -0.1160   -0.4445 C   0  0  1  0  0  0  0  0  0  0  0  0
    3.5182    1.3055   -0.2839 C   0  0  0  0  0  0  0  0  0  0  0  0
    4.9097    1.2989    0.3627 C   0  0  0  0  0  0  0  0  0  0  0  0
    5.7078    0.0238    0.0401 C   0  0  2  0  0  0  0  0  0  0  0  0
    7.0941    0.1040    0.6895 C   0  0  0  0  0  0  0  0  0  0  0  0
    5.8390   -0.1365   -1.4976 C   0  0  0  0  0  0  0  0  0  0  0  0
    4.8421   -1.2419   -1.8400 C   0  0  1  0  0  0  0  0  0  0  0  0
    5.0862   -2.2126   -0.6907 C   0  0  0  0  0  0  0  0  0  0  0  0
    4.9478   -1.2681    0.5052 C   0  0  2  0  0  0  0  0  0  0  0  0
    3.4441   -1.0028    0.7073 C   0  0  0  0  0  0  0  0  0  0  0  0
    3.3816   -0.7447   -1.8051 C   0  0  0  0  0  0  0  0  0  0  0  0
   -1.7878    1.0991    1.0494 C   0  0  0  0  0  0  0  0  0  0  0  0
   -1.5544    1.8411    2.3242 C   0  0  0  0  0  0  0  0  0  0  0  0
   -3.0055    0.9381    0.3946 C   0  0  0  0  0  0  0  0  0  0  0  0
   -4.3244    1.4400    0.7739 C   0  0  0  0  0  0  0  0  0  0  0  0
   -5.0756    0.7796    1.7508 C   0  0  0  0  0  0  0  0  0  0  0  0
   -6.3466    1.2434    2.0931 C   0  0  0  0  0  0  0  0  0  0  0  0
   -6.8658    2.3787    1.4724 C   0  0  0  0  0  0  0  0  0  0  0  0
   -6.1140    3.0537    0.5114 C   0  0  0  0  0  0  0  0  0  0  0  0
   -4.8453    2.5867    0.1634 C   0  0  0  0  0  0  0  0  0  0  0  0
   -3.0650   -3.1961    0.5729 H   0  0  0  0  0  0  0  0  0  0  0  0
   -4.6394   -3.2335    1.5445 H   0  0  0  0  0  0  0  0  0  0  0  0
   -6.5923   -1.2334   -0.9292 H   0  0  0  0  0  0  0  0  0  0  0  0
   -4.6983   -2.0753   -2.4437 H   0  0  0  0  0  0  0  0  0  0  0  0
   -3.1255   -2.3633   -1.7379 H   0  0  0  0  0  0  0  0  0  0  0  0
   -4.6710    0.2945   -1.5830 H   0  0  0  0  0  0  0  0  0  0  0  0
   -3.3463   -0.0625   -2.6786 H   0  0  0  0  0  0  0  0  0  0  0  0
   -1.0585   -0.7215   -1.6333 H   0  0  0  0  0  0  0  0  0  0  0  0
    1.0157   -0.0096   -1.3830 H   0  0  0  0  0  0  0  0  0  0  0  0
    2.8735    1.9443    0.3319 H   0  0  0  0  0  0  0  0  0  0  0  0
    3.5604    1.8074   -1.2590 H   0  0  0  0  0  0  0  0  0  0  0  0
    4.7967    1.3894    1.4514 H   0  0  0  0  0  0  0  0  0  0  0  0
    5.4566    2.1941    0.0406 H   0  0  0  0  0  0  0  0  0  0  0  0
    7.0123    0.2081    1.7771 H   0  0  0  0  0  0  0  0  0  0  0  0
    7.6577    0.9637    0.3106 H   0  0  0  0  0  0  0  0  0  0  0  0
    7.6825   -0.7976    0.4863 H   0  0  0  0  0  0  0  0  0  0  0  0
    5.6490    0.7869   -2.0547 H   0  0  0  0  0  0  0  0  0  0  0  0
    6.8498   -0.4679   -1.7692 H   0  0  0  0  0  0  0  0  0  0  0  0
    5.0633   -1.6957   -2.8112 H   0  0  0  0  0  0  0  0  0  0  0  0
    4.3723   -3.0425   -0.6744 H   0  0  0  0  0  0  0  0  0  0  0  0
    6.0967   -2.6362   -0.7393 H   0  0  0  0  0  0  0  0  0  0  0  0
    5.3712   -1.7144    1.4112 H   0  0  0  0  0  0  0  0  0  0  0  0
    2.8905   -1.9497    0.7514 H   0  0  0  0  0  0  0  0  0  0  0  0
    3.2940   -0.5194    1.6797 H   0  0  0  0  0  0  0  0  0  0  0  0
    2.7366   -1.6063   -2.0305 H   0  0  0  0  0  0  0  0  0  0  0  0
    3.2172   -0.0299   -2.6219 H   0  0  0  0  0  0  0  0  0  0  0  0
   -0.7443    2.5675    2.2024 H   0  0  0  0  0  0  0  0  0  0  0  0
   -1.2839    1.1437    3.1234 H   0  0  0  0  0  0  0  0  0  0  0  0
   -2.4423    2.3933    2.6462 H   0  0  0  0  0  0  0  0  0  0  0  0
   -4.6788   -0.1045    2.2451 H   0  0  0  0  0  0  0  0  0  0  0  0
   -6.9299    0.7155    2.8438 H   0  0  0  0  0  0  0  0  0  0  0  0
   -7.8543    2.7403    1.7441 H   0  0  0  0  0  0  0  0  0  0  0  0
   -6.5138    3.9459    0.0369 H   0  0  0  0  0  0  0  0  0  0  0  0
   -4.2614    3.1229   -0.5806 H   0  0  0  0  0  0  0  0  0  0  0  0
  1  2  2  0
  2  3  1  0
  3  4  2  0
  2  5  1  0
  5  6  1  0
  6  7  1  0
  7  8  1  0
  8  9  2  0
  9 10  1  0
 10 11  2  0
 10 12  1  0
 13 12  1  6
 13 14  1  0
 14 15  1  0
 15 16  1  0
 16 17  1  1
 16 18  1  0
 18 19  1  0
 19 20  1  0
 20 21  1  0
 21 22  1  0
 19 23  1  0
  9 24  1  0
 24 25  1  0
 24 26  2  0
 26 27  1  0
 27 28  2  0
 28 29  1  0
 29 30  2  0
 30 31  1  0
 31 32  2  0
 26  7  1  0
 32 27  1  0
 22 13  1  0
 23 13  1  0
 21 16  1  0
  1 33  1  0
  1 34  1  0
  3 35  1  0
  5 36  1  0
  5 37  1  0
  6 38  1  0
  6 39  1  0
  8 40  1  0
 12 41  1  0
 14 42  1  0
 14 43  1  0
 15 44  1  0
 15 45  1  0
 17 46  1  0
 17 47  1  0
 17 48  1  0
 18 49  1  0
 18 50  1  0
 19 51  1  6
 20 52  1  0
 20 53  1  0
 21 54  1  1
 22 55  1  0
 22 56  1  0
 23 57  1  0
 23 58  1  0
 25 59  1  0
 25 60  1  0
 25 61  1  0
 28 62  1  0
 29 63  1  0
 30 64  1  0
 31 65  1  0
 32 66  1  0
M  END
>  <_SMILES>  (42) 
C=C(C=O)CCn1cc(C(=O)N[C@@]23CC[C@]4(C)C[C@@H](C[C@@H]4C2)C3)c(C)c1-c1ccccc1

$$$$

     RDKit          3D

 76 81  0  0  0  0  0  0  0  0999 V2000
    5.7516    4.0761   -0.9752 C   0  0  0  0  0  0  0  0  0  0  0  0
    4.8288    3.0502   -0.3076 C   0  0  2  0  0  0  0  0  0  0  0  0
    5.1037    1.6529   -0.8833 C   0  0  0  0  0  0  0  0  0  0  0  0
    4.2213    0.5704   -0.2494 C   0  0  0  0  0  0  0  0  0  0  0  0
    2.8432    1.0965    0.2452 C   0  0  1  0  0  0  0  0  0  0  0  0
    1.9021   -0.0361    0.2133 N   0  0  0  0  0  0  0  0  0  0  0  0
    0.5653    0.0292    0.5096 C   0  0  0  0  0  0  0  0  0  0  0  0
   -0.0692    1.0603    0.7273 O   0  0  0  0  0  0  0  0  0  0  0  0
   -0.1134   -1.2578    0.4933 C   0  0  0  0  0  0  0  0  0  0  0  0
    0.0584   -2.3557   -0.3937 C   0  0  0  0  0  0  0  0  0  0  0  0
   -0.9248   -3.2959   -0.1265 C   0  0  0  0  0  0  0  0  0  0  0  0
   -1.1840   -4.5571   -0.8141 C   0  0  0  0  0  0  0  0  0  0  0  0
   -0.9287   -5.7765   -0.1764 C   0  0  0  0  0  0  0  0  0  0  0  0
   -1.1755   -6.9815   -0.8366 C   0  0  0  0  0  0  0  0  0  0  0  0
   -1.6727   -6.9741   -2.1389 C   0  0  0  0  0  0  0  0  0  0  0  0
   -1.9194   -5.7633   -2.7843 C   0  0  0  0  0  0  0  0  0  0  0  0
   -1.6728   -4.5572   -2.1254 C   0  0  0  0  0  0  0  0  0  0  0  0
   -1.6949   -2.7880    0.8989 N   0  0  0  0  0  0  0  0  0  0  0  0
   -2.9513   -3.3271    1.3987 C   0  0  0  0  0  0  0  0  0  0  0  0
   -4.1929   -2.8186    0.6431 C   0  0  0  0  0  0  0  0  0  0  0  0
   -4.5268   -1.3373    0.8941 C   0  0  0  0  0  0  0  0  0  0  0  0
   -3.8362   -0.3694   -0.0820 C   0  0  0  0  0  0  0  0  0  0  0  0
   -3.4657    0.9541    0.5977 C   0  0  2  0  0  0  0  0  0  0  0  0
   -4.6271    1.9376    0.7456 C   0  0  0  0  0  0  0  0  0  0  0  0
   -4.4341    2.9398   -0.3806 C   0  0  0  0  0  0  0  0  0  0  0  0
   -2.9302    3.0815   -0.4566 C   0  0  0  0  0  0  0  0  0  0  0  0
   -2.4588    1.6869   -0.2473 N   0  0  0  0  0  0  0  0  0  0  0  0
   -1.1425   -1.6117    1.3453 C   0  0  0  0  0  0  0  0  0  0  0  0
    2.9680    1.6510    1.7017 C   0  0  0  0  0  0  0  0  0  0  0  0
    3.6445    3.0345    1.8110 C   0  0  2  0  0  0  0  0  0  0  0  0
    2.9513    4.0304    0.8871 C   0  0  0  0  0  0  0  0  0  0  0  0
    3.3244    3.4546   -0.4823 C   0  0  2  0  0  0  0  0  0  0  0  0
    2.4234    2.2277   -0.7200 C   0  0  0  0  0  0  0  0  0  0  0  0
    5.0555    3.0372    1.2271 C   0  0  0  0  0  0  0  0  0  0  0  0
    5.5933    4.0996   -2.0591 H   0  0  0  0  0  0  0  0  0  0  0  0
    5.5683    5.0860   -0.5919 H   0  0  0  0  0  0  0  0  0  0  0  0
    6.8049    3.8354   -0.7941 H   0  0  0  0  0  0  0  0  0  0  0  0
    6.1577    1.3762   -0.7546 H   0  0  0  0  0  0  0  0  0  0  0  0
    4.9265    1.6666   -1.9672 H   0  0  0  0  0  0  0  0  0  0  0  0
    4.0827   -0.2175   -1.0027 H   0  0  0  0  0  0  0  0  0  0  0  0
    4.7570    0.0852    0.5766 H   0  0  0  0  0  0  0  0  0  0  0  0
    2.3106   -0.9645    0.2250 H   0  0  0  0  0  0  0  0  0  0  0  0
    0.7891   -2.4406   -1.1899 H   0  0  0  0  0  0  0  0  0  0  0  0
   -0.5290   -5.7970    0.8348 H   0  0  0  0  0  0  0  0  0  0  0  0
   -0.9739   -7.9267   -0.3380 H   0  0  0  0  0  0  0  0  0  0  0  0
   -1.8609   -7.9136   -2.6536 H   0  0  0  0  0  0  0  0  0  0  0  0
   -2.2994   -5.7610   -3.8030 H   0  0  0  0  0  0  0  0  0  0  0  0
   -1.8653   -3.6214   -2.6428 H   0  0  0  0  0  0  0  0  0  0  0  0
   -2.8996   -4.4183    1.3388 H   0  0  0  0  0  0  0  0  0  0  0  0
   -3.0167   -3.0755    2.4640 H   0  0  0  0  0  0  0  0  0  0  0  0
   -4.1024   -3.0123   -0.4321 H   0  0  0  0  0  0  0  0  0  0  0  0
   -5.0451   -3.4120    0.9980 H   0  0  0  0  0  0  0  0  0  0  0  0
   -4.2951   -1.0865    1.9359 H   0  0  0  0  0  0  0  0  0  0  0  0
   -5.6105   -1.2029    0.7836 H   0  0  0  0  0  0  0  0  0  0  0  0
   -2.9434   -0.8308   -0.5110 H   0  0  0  0  0  0  0  0  0  0  0  0
   -4.5017   -0.1850   -0.9354 H   0  0  0  0  0  0  0  0  0  0  0  0
   -2.9849    0.7839    1.5666 H   0  0  0  0  0  0  0  0  0  0  0  0
   -4.5480    2.4526    1.7113 H   0  0  0  0  0  0  0  0  0  0  0  0
   -5.6107    1.4597    0.7100 H   0  0  0  0  0  0  0  0  0  0  0  0
   -4.9333    3.8924   -0.1828 H   0  0  0  0  0  0  0  0  0  0  0  0
   -4.8285    2.5347   -1.3202 H   0  0  0  0  0  0  0  0  0  0  0  0
   -2.5630    3.4378   -1.4219 H   0  0  0  0  0  0  0  0  0  0  0  0
   -2.5266    3.6871    0.3609 H   0  0  0  0  0  0  0  0  0  0  0  0
   -2.3086    1.2171   -1.1478 H   0  0  0  0  0  0  0  0  0  0  0  0
   -1.5212    1.6636    0.2154 H   0  0  0  0  0  0  0  0  0  0  0  0
   -1.5668   -1.0853    2.1905 H   0  0  0  0  0  0  0  0  0  0  0  0
    1.9694    1.7473    2.1462 H   0  0  0  0  0  0  0  0  0  0  0  0
    3.5010    0.9277    2.3323 H   0  0  0  0  0  0  0  0  0  0  0  0
    3.6416    3.3733    2.8519 H   0  0  0  0  0  0  0  0  0  0  0  0
    3.3660    5.0381    1.0121 H   0  0  0  0  0  0  0  0  0  0  0  0
    1.8709    4.0865    1.0558 H   0  0  0  0  0  0  0  0  0  0  0  0
    3.1657    4.1909   -1.2773 H   0  0  0  0  0  0  0  0  0  0  0  0
    2.5032    1.8901   -1.7616 H   0  0  0  0  0  0  0  0  0  0  0  0
    1.3757    2.5175   -0.5857 H   0  0  0  0  0  0  0  0  0  0  0  0
    5.5758    3.9482    1.5507 H   0  0  0  0  0  0  0  0  0  0  0  0
    5.6552    2.1899    1.5761 H   0  0  0  0  0  0  0  0  0  0  0  0
  2  1  1  6
  2  3  1  0
  3  4  1  0
  4  5  1  0
  5  6  1  1
  6  7  1  0
  7  8  2  0
  7  9  1  0
  9 10  1  0
 10 11  2  0
 11 12  1  0
 12 13  2  0
 13 14  1  0
 14 15  2  0
 15 16  1  0
 16 17  2  0
 11 18  1  0
 18 19  1  0
 19 20  1  0
 20 21  1  0
 21 22  1  0
 22 23  1  0
 23 24  1  0
 24 25  1  0
 25 26  1  0
 26 27  1  0
 18 28  1  0
  5 29  1  0
 29 30  1  0
 30 31  1  0
 31 32  1  0
 32 33  1  0
 30 34  1  0
 32  2  1  0
 34  2  1  0
 33  5  1  0
 28  9  2  0
 17 12  1  0
 27 23  1  0
  1 35  1  0
  1 36  1  0
  1 37  1  0
  3 38  1  0
  3 39  1  0
  4 40  1  0
  4 41  1  0
  6 42  1  0
 10 43  1  0
 13 44  1  0
 14 45  1  0
 15 46  1  0
 16 47  1  0
 17 48  1  0
 19 49  1  0
 19 50  1  0
 20 51  1  0
 20 52  1  0
 21 53  1  0
 21 54  1  0
 22 55  1  0
 22 56  1  0
 23 57  1  1
 24 58  1  0
 24 59  1  0
 25 60  1  0
 25 61  1  0
 26 62  1  0
 26 63  1  0
 27 64  1  0
 27 65  1  0
 28 66  1  0
 29 67  1  0
 29 68  1  0
 30 69  1  1
 31 70  1  0
 31 71  1  0
 32 72  1  6
 33 73  1  0
 33 74  1  0
 34 75  1  0
 34 76  1  0
M  CHG  1  27   1
M  END
>  <_SMILES>  (43) 
C[C@]12CC[C@@]3(NC(=O)c4cc(-c5ccccc5)n(CCCC[C@@H]5CCC[NH2+]5)c4)C[C@H](C[C@@H]1C3)C2

$$$$

     RDKit          3D

 95101  0  0  0  0  0  0  0  0999 V2000
   -1.9058   -2.3429    0.5023 C   0  0  0  0  0  0  0  0  0  0  0  0
   -1.1991   -1.1063    0.9600 C   0  0  0  0  0  0  0  0  0  0  0  0
   -1.7885    0.1774    1.2373 C   0  0  0  0  0  0  0  0  0  0  0  0
   -3.1559    0.6985    1.1002 C   0  0  0  0  0  0  0  0  0  0  0  0
   -3.4987    1.7261    1.6753 O   0  0  0  0  0  0  0  0  0  0  0  0
   -3.9733    0.0036    0.2399 N   0  0  0  0  0  0  0  0  0  0  0  0
   -5.3606    0.3815   -0.0716 C   0  0  1  0  0  0  0  0  0  0  0  0
   -5.3930    1.7681   -0.7645 C   0  0  0  0  0  0  0  0  0  0  0  0
   -6.5746    1.9376   -1.7285 C   0  0  0  0  0  0  0  0  0  0  0  0
   -7.8008    1.1066   -1.3147 C   0  0  2  0  0  0  0  0  0  0  0  0
   -8.9460    1.3467   -2.3050 C   0  0  0  0  0  0  0  0  0  0  0  0
   -8.2391    1.4930    0.1233 C   0  0  0  0  0  0  0  0  0  0  0  0
   -7.7575    0.3263    0.9849 C   0  0  1  0  0  0  0  0  0  0  0  0
   -8.1121   -0.8550    0.0892 C   0  0  0  0  0  0  0  0  0  0  0  0
   -7.4537   -0.4194   -1.2221 C   0  0  2  0  0  0  0  0  0  0  0  0
   -5.9407   -0.6498   -1.0664 C   0  0  0  0  0  0  0  0  0  0  0  0
   -6.2326    0.3725    1.2266 C   0  0  0  0  0  0  0  0  0  0  0  0
   -0.7730    0.9451    1.7807 C   0  0  0  0  0  0  0  0  0  0  0  0
    0.4011    0.2462    1.7447 N   0  0  0  0  0  0  0  0  0  0  0  0
    1.6580    0.7937    2.2209 C   0  0  0  0  0  0  0  0  0  0  0  0
    2.1208    2.0857    1.5325 C   0  0  0  0  0  0  0  0  0  0  0  0
    2.5378    1.9830    0.0784 N   0  0  2  0  0  0  0  0  0  0  0  0
    1.4086    2.0261   -0.9404 C   0  0  0  0  0  0  0  0  0  0  0  0
    1.7433    0.9424   -1.9461 C   0  0  0  0  0  0  0  0  0  0  0  0
    3.2463    0.7723   -1.8323 C   0  0  0  0  0  0  0  0  0  0  0  0
    3.4879    0.8534   -0.3315 C   0  0  1  0  0  0  0  0  0  0  0  0
    4.9159    1.1995    0.1148 C   0  0  0  0  0  0  0  0  0  0  0  0
    6.0445    0.1572   -0.1761 C   0  0  0  0  0  0  0  0  0  0  0  0
    5.5855   -1.2419    0.2869 C   0  0  0  0  0  0  0  0  0  0  0  0
    7.2906    0.5825    0.6443 C   0  0  0  0  0  0  0  0  0  0  0  0
    8.5228   -0.2981    0.4200 C   0  0  0  0  0  0  0  0  0  0  0  0
    8.6689   -0.7970   -1.0153 C   0  0  0  0  0  0  0  0  0  0  0  0
    7.9047    0.0715   -1.9988 C   0  0  0  0  0  0  0  0  0  0  0  0
    6.4049    0.1301   -1.6882 C   0  0  0  0  0  0  0  0  0  0  0  0
    0.1636   -1.0252    1.2647 C   0  0  0  0  0  0  0  0  0  0  0  0
    1.1754   -2.0834    1.1749 C   0  0  0  0  0  0  0  0  0  0  0  0
    1.7876   -2.5857    2.3300 C   0  0  0  0  0  0  0  0  0  0  0  0
    2.7442   -3.5988    2.2397 C   0  0  0  0  0  0  0  0  0  0  0  0
    3.0837   -4.1288    0.9963 C   0  0  0  0  0  0  0  0  0  0  0  0
    2.4621   -3.6535   -0.1568 C   0  0  0  0  0  0  0  0  0  0  0  0
    1.5092   -2.6368   -0.0677 C   0  0  0  0  0  0  0  0  0  0  0  0
   -2.8947   -2.4229    0.9644 H   0  0  0  0  0  0  0  0  0  0  0  0
   -1.3579   -3.2491    0.7789 H   0  0  0  0  0  0  0  0  0  0  0  0
   -2.0195   -2.3335   -0.5861 H   0  0  0  0  0  0  0  0  0  0  0  0
   -3.5476   -0.6953   -0.3472 H   0  0  0  0  0  0  0  0  0  0  0  0
   -4.4705    1.9321   -1.3377 H   0  0  0  0  0  0  0  0  0  0  0  0
   -5.4142    2.5671   -0.0129 H   0  0  0  0  0  0  0  0  0  0  0  0
   -6.2574    1.6377   -2.7363 H   0  0  0  0  0  0  0  0  0  0  0  0
   -6.8293    3.0028   -1.7975 H   0  0  0  0  0  0  0  0  0  0  0  0
   -9.2408    2.4018   -2.3182 H   0  0  0  0  0  0  0  0  0  0  0  0
   -8.6503    1.0672   -3.3222 H   0  0  0  0  0  0  0  0  0  0  0  0
   -9.8305    0.7555   -2.0430 H   0  0  0  0  0  0  0  0  0  0  0  0
   -9.3327    1.5612    0.1909 H   0  0  0  0  0  0  0  0  0  0  0  0
   -7.8410    2.4558    0.4607 H   0  0  0  0  0  0  0  0  0  0  0  0
   -8.2892    0.2871    1.9409 H   0  0  0  0  0  0  0  0  0  0  0  0
   -7.7324   -1.8081    0.4715 H   0  0  0  0  0  0  0  0  0  0  0  0
   -9.1983   -0.9472   -0.0309 H   0  0  0  0  0  0  0  0  0  0  0  0
   -7.8342   -1.0012   -2.0682 H   0  0  0  0  0  0  0  0  0  0  0  0
   -5.4410   -0.5646   -2.0405 H   0  0  0  0  0  0  0  0  0  0  0  0
   -5.7473   -1.6746   -0.7220 H   0  0  0  0  0  0  0  0  0  0  0  0
   -6.0000    1.2440    1.8502 H   0  0  0  0  0  0  0  0  0  0  0  0
   -5.9629   -0.5084    1.8260 H   0  0  0  0  0  0  0  0  0  0  0  0
   -0.8298    1.9506    2.1827 H   0  0  0  0  0  0  0  0  0  0  0  0
    2.4409    0.0356    2.1735 H   0  0  0  0  0  0  0  0  0  0  0  0
    1.5015    1.0019    3.2873 H   0  0  0  0  0  0  0  0  0  0  0  0
    1.3601    2.8726    1.5809 H   0  0  0  0  0  0  0  0  0  0  0  0
    3.0032    2.4654    2.0599 H   0  0  0  0  0  0  0  0  0  0  0  0
    3.0570    2.8539   -0.1003 H   0  0  0  0  0  0  0  0  0  0  0  0
    1.4369    3.0235   -1.3914 H   0  0  0  0  0  0  0  0  0  0  0  0
    0.4450    1.8741   -0.4562 H   0  0  0  0  0  0  0  0  0  0  0  0
    1.2332    0.0120   -1.6765 H   0  0  0  0  0  0  0  0  0  0  0  0
    1.4291    1.2096   -2.9593 H   0  0  0  0  0  0  0  0  0  0  0  0
    3.5722   -0.1799   -2.2591 H   0  0  0  0  0  0  0  0  0  0  0  0
    3.7543    1.5860   -2.3630 H   0  0  0  0  0  0  0  0  0  0  0  0
    3.1241   -0.0558    0.1486 H   0  0  0  0  0  0  0  0  0  0  0  0
    4.8873    1.3593    1.2014 H   0  0  0  0  0  0  0  0  0  0  0  0
    5.2095    2.1676   -0.3145 H   0  0  0  0  0  0  0  0  0  0  0  0
    5.2696   -1.2233    1.3361 H   0  0  0  0  0  0  0  0  0  0  0  0
    6.3752   -1.9927    0.1955 H   0  0  0  0  0  0  0  0  0  0  0  0
    4.7442   -1.6035   -0.3118 H   0  0  0  0  0  0  0  0  0  0  0  0
    7.0609    0.5971    1.7176 H   0  0  0  0  0  0  0  0  0  0  0  0
    7.5532    1.6165    0.3807 H   0  0  0  0  0  0  0  0  0  0  0  0
    9.4142    0.2764    0.7009 H   0  0  0  0  0  0  0  0  0  0  0  0
    8.4986   -1.1602    1.0976 H   0  0  0  0  0  0  0  0  0  0  0  0
    8.3059   -1.8292   -1.0871 H   0  0  0  0  0  0  0  0  0  0  0  0
    9.7306   -0.8293   -1.2859 H   0  0  0  0  0  0  0  0  0  0  0  0
    8.0499   -0.3004   -3.0197 H   0  0  0  0  0  0  0  0  0  0  0  0
    8.3186    1.0878   -1.9795 H   0  0  0  0  0  0  0  0  0  0  0  0
    6.0176    1.0218   -2.1943 H   0  0  0  0  0  0  0  0  0  0  0  0
    5.9163   -0.7247   -2.1724 H   0  0  0  0  0  0  0  0  0  0  0  0
    1.5061   -2.2114    3.3121 H   0  0  0  0  0  0  0  0  0  0  0  0
    3.2078   -3.9924    3.1416 H   0  0  0  0  0  0  0  0  0  0  0  0
    3.8158   -4.9309    0.9294 H   0  0  0  0  0  0  0  0  0  0  0  0
    2.7072   -4.0901   -1.1223 H   0  0  0  0  0  0  0  0  0  0  0  0
    1.0128   -2.2994   -0.9738 H   0  0  0  0  0  0  0  0  0  0  0  0
  1  2  1  0
  2  3  1  0
  3  4  1  0
  4  5  2  0
  4  6  1  0
  7  6  1  1
  7  8  1  0
  8  9  1  0
  9 10  1  0
 10 11  1  6
 10 12  1  0
 12 13  1  0
 13 14  1  0
 14 15  1  0
 15 16  1  0
 13 17  1  0
  3 18  2  0
 18 19  1  0
 19 20  1  0
 20 21  1  0
 21 22  1  0
 22 23  1  0
 23 24  1  0
 24 25  1  0
 25 26  1  0
 26 27  1  0
 27 28  1  0
 28 29  1  0
 28 30  1  0
 30 31  1  0
 31 32  1  0
 32 33  1  0
 33 34  1  0
 19 35  1  0
 35 36  1  0
 36 37  2  0
 37 38  1  0
 38 39  2  0
 39 40  1  0
 40 41  2  0
 35  2  2  0
 41 36  1  0
 16  7  1  0
 26 22  1  0
 34 28  1  0
 17  7  1  0
 15 10  1  0
  1 42  1  0
  1 43  1  0
  1 44  1  0
  6 45  1  0
  8 46  1  0
  8 47  1  0
  9 48  1  0
  9 49  1  0
 11 50  1  0
 11 51  1  0
 11 52  1  0
 12 53  1  0
 12 54  1  0
 13 55  1  1
 14 56  1  0
 14 57  1  0
 15 58  1  6
 16 59  1  0
 16 60  1  0
 17 61  1  0
 17 62  1  0
 18 63  1  0
 20 64  1  0
 20 65  1  0
 21 66  1  0
 21 67  1  0
 22 68  1  6
 23 69  1  0
 23 70  1  0
 24 71  1  0
 24 72  1  0
 25 73  1  0
 25 74  1  0
 26 75  1  1
 27 76  1  0
 27 77  1  0
 29 78  1  0
 29 79  1  0
 29 80  1  0
 30 81  1  0
 30 82  1  0
 31 83  1  0
 31 84  1  0
 32 85  1  0
 32 86  1  0
 33 87  1  0
 33 88  1  0
 34 89  1  0
 34 90  1  0
 37 91  1  0
 38 92  1  0
 39 93  1  0
 40 94  1  0
 41 95  1  0
M  CHG  1  22   1
M  END
>  <_SMILES>  (44) 
Cc1c(C(=O)N[C@@]23CC[C@]4(C)C[C@@H](C[C@@H]4C2)C3)cn(CC[N@@H+]2CCC[C@H]2CC2(C)CCCCC2)c1-c1ccccc1

$$$$

     RDKit          3D

 95101  0  0  0  0  0  0  0  0999 V2000
   -2.0452    2.6245    0.5175 C   0  0  0  0  0  0  0  0  0  0  0  0
   -1.2081    1.5962    1.2102 C   0  0  0  0  0  0  0  0  0  0  0  0
   -1.4077    0.1726    1.1618 C   0  0  0  0  0  0  0  0  0  0  0  0
   -2.4057   -0.6418    0.4616 C   0  0  0  0  0  0  0  0  0  0  0  0
   -2.1267   -1.7624    0.0535 O   0  0  0  0  0  0  0  0  0  0  0  0
   -3.6456   -0.0555    0.3575 N   0  0  0  0  0  0  0  0  0  0  0  0
   -4.8425   -0.7043   -0.2040 C   0  0  1  0  0  0  0  0  0  0  0  0
   -5.9723    0.3663   -0.2305 C   0  0  0  0  0  0  0  0  0  0  0  0
   -7.0313    0.1210   -1.3121 C   0  0  0  0  0  0  0  0  0  0  0  0
   -7.1975   -1.3686   -1.6472 C   0  0  2  0  0  0  0  0  0  0  0  0
   -8.2768   -1.5404   -2.7221 C   0  0  0  0  0  0  0  0  0  0  0  0
   -7.5817   -2.1533   -0.3652 C   0  0  0  0  0  0  0  0  0  0  0  0
   -6.2929   -2.8696    0.0322 C   0  0  1  0  0  0  0  0  0  0  0  0
   -5.7863   -3.3237   -1.3328 C   0  0  0  0  0  0  0  0  0  0  0  0
   -5.8417   -2.0048   -2.1097 C   0  0  2  0  0  0  0  0  0  0  0  0
   -4.6303   -1.1634   -1.6640 C   0  0  0  0  0  0  0  0  0  0  0  0
   -5.2702   -1.9158    0.6867 C   0  0  0  0  0  0  0  0  0  0  0  0
   -0.3982   -0.3851    1.9218 C   0  0  0  0  0  0  0  0  0  0  0  0
    0.3839    0.6120    2.4329 N   0  0  0  0  0  0  0  0  0  0  0  0
    1.5722    0.3355    3.2290 C   0  0  0  0  0  0  0  0  0  0  0  0
    2.7474   -0.1382    2.3661 C   0  0  0  0  0  0  0  0  0  0  0  0
    3.2891    0.9652    1.4861 N   0  0  1  0  0  0  0  0  0  0  0  0
    4.1990    1.9654    2.1540 C   0  0  0  0  0  0  0  0  0  0  0  0
    4.9493    2.6259    1.0064 C   0  0  0  0  0  0  0  0  0  0  0  0
    4.4880    1.9277   -0.2691 C   0  0  0  0  0  0  0  0  0  0  0  0
    3.9703    0.5614    0.1836 C   0  0  1  0  0  0  0  0  0  0  0  0
    5.0944   -0.4724    0.4147 C   0  0  0  0  0  0  0  0  0  0  0  0
    5.3652   -1.4496   -0.7765 C   0  0  0  0  0  0  0  0  0  0  0  0
    6.6232   -2.2696   -0.3920 C   0  0  0  0  0  0  0  0  0  0  0  0
    4.1661   -2.4283   -0.9513 C   0  0  0  0  0  0  0  0  0  0  0  0
    3.7494   -2.6622   -2.4059 C   0  0  0  0  0  0  0  0  0  0  0  0
    4.9511   -2.8209   -3.3247 C   0  0  0  0  0  0  0  0  0  0  0  0
    5.8723   -1.6019   -3.2968 C   0  0  0  0  0  0  0  0  0  0  0  0
    5.6423   -0.6871   -2.0908 C   0  0  0  0  0  0  0  0  0  0  0  0
   -0.0867    1.8393    2.0083 C   0  0  0  0  0  0  0  0  0  0  0  0
    0.5382    3.1221    2.3407 C   0  0  0  0  0  0  0  0  0  0  0  0
    1.1249    3.9015    1.3337 C   0  0  0  0  0  0  0  0  0  0  0  0
    1.7389    5.1156    1.6465 C   0  0  0  0  0  0  0  0  0  0  0  0
    1.7655    5.5617    2.9665 C   0  0  0  0  0  0  0  0  0  0  0  0
    1.1665    4.8033    3.9713 C   0  0  0  0  0  0  0  0  0  0  0  0
    0.5488    3.5908    3.6591 C   0  0  0  0  0  0  0  0  0  0  0  0
   -2.3379    2.2802   -0.4795 H   0  0  0  0  0  0  0  0  0  0  0  0
   -2.9496    2.8278    1.0996 H   0  0  0  0  0  0  0  0  0  0  0  0
   -1.5145    3.5709    0.3858 H   0  0  0  0  0  0  0  0  0  0  0  0
   -3.8101    0.7211    0.9827 H   0  0  0  0  0  0  0  0  0  0  0  0
   -6.4506    0.4324    0.7552 H   0  0  0  0  0  0  0  0  0  0  0  0
   -5.5491    1.3645   -0.4103 H   0  0  0  0  0  0  0  0  0  0  0  0
   -6.7447    0.6670   -2.2210 H   0  0  0  0  0  0  0  0  0  0  0  0
   -7.9835    0.5584   -0.9865 H   0  0  0  0  0  0  0  0  0  0  0  0
   -9.2437   -1.1607   -2.3740 H   0  0  0  0  0  0  0  0  0  0  0  0
   -8.0111   -0.9968   -3.6355 H   0  0  0  0  0  0  0  0  0  0  0  0
   -8.4081   -2.5945   -2.9904 H   0  0  0  0  0  0  0  0  0  0  0  0
   -7.9737   -1.5198    0.4375 H   0  0  0  0  0  0  0  0  0  0  0  0
   -8.3547   -2.9013   -0.5845 H   0  0  0  0  0  0  0  0  0  0  0  0
   -6.4944   -3.7170    0.6952 H   0  0  0  0  0  0  0  0  0  0  0  0
   -4.7838   -3.7618   -1.2904 H   0  0  0  0  0  0  0  0  0  0  0  0
   -6.4614   -4.0656   -1.7764 H   0  0  0  0  0  0  0  0  0  0  0  0
   -5.7943   -2.1799   -3.1897 H   0  0  0  0  0  0  0  0  0  0  0  0
   -4.5044   -0.2944   -2.3231 H   0  0  0  0  0  0  0  0  0  0  0  0
   -3.7169   -1.7555   -1.7830 H   0  0  0  0  0  0  0  0  0  0  0  0
   -5.6632   -1.5540    1.6456 H   0  0  0  0  0  0  0  0  0  0  0  0
   -4.3886   -2.5174    0.9404 H   0  0  0  0  0  0  0  0  0  0  0  0
   -0.2020   -1.4315    2.1292 H   0  0  0  0  0  0  0  0  0  0  0  0
    1.2950   -0.4522    3.9400 H   0  0  0  0  0  0  0  0  0  0  0  0
    1.8365    1.2166    3.8168 H   0  0  0  0  0  0  0  0  0  0  0  0
    3.5682   -0.4885    3.0001 H   0  0  0  0  0  0  0  0  0  0  0  0
    2.4377   -0.9520    1.7019 H   0  0  0  0  0  0  0  0  0  0  0  0
    2.4624    1.4979    1.1741 H   0  0  0  0  0  0  0  0  0  0  0  0
    3.5880    2.6615    2.7318 H   0  0  0  0  0  0  0  0  0  0  0  0
    4.8802    1.4203    2.8154 H   0  0  0  0  0  0  0  0  0  0  0  0
    6.0292    2.5044    1.1481 H   0  0  0  0  0  0  0  0  0  0  0  0
    4.7519    3.7018    0.9609 H   0  0  0  0  0  0  0  0  0  0  0  0
    3.6654    2.5001   -0.7168 H   0  0  0  0  0  0  0  0  0  0  0  0
    5.2878    1.8774   -1.0118 H   0  0  0  0  0  0  0  0  0  0  0  0
    3.1824    0.1872   -0.4770 H   0  0  0  0  0  0  0  0  0  0  0  0
    4.8747   -1.0937    1.2900 H   0  0  0  0  0  0  0  0  0  0  0  0
    6.0277    0.0530    0.6573 H   0  0  0  0  0  0  0  0  0  0  0  0
    6.8495   -3.0495   -1.1254 H   0  0  0  0  0  0  0  0  0  0  0  0
    6.4890   -2.7659    0.5763 H   0  0  0  0  0  0  0  0  0  0  0  0
    7.5047   -1.6233   -0.3124 H   0  0  0  0  0  0  0  0  0  0  0  0
    3.2827   -2.0788   -0.4051 H   0  0  0  0  0  0  0  0  0  0  0  0
    4.4105   -3.3989   -0.4996 H   0  0  0  0  0  0  0  0  0  0  0  0
    3.1154   -3.5545   -2.4633 H   0  0  0  0  0  0  0  0  0  0  0  0
    3.1338   -1.8216   -2.7501 H   0  0  0  0  0  0  0  0  0  0  0  0
    5.5170   -3.7118   -3.0255 H   0  0  0  0  0  0  0  0  0  0  0  0
    4.6164   -3.0046   -4.3522 H   0  0  0  0  0  0  0  0  0  0  0  0
    5.7280   -1.0136   -4.2116 H   0  0  0  0  0  0  0  0  0  0  0  0
    6.9156   -1.9390   -3.3218 H   0  0  0  0  0  0  0  0  0  0  0  0
    6.5077   -0.0228   -1.9765 H   0  0  0  0  0  0  0  0  0  0  0  0
    4.7889   -0.0411   -2.3302 H   0  0  0  0  0  0  0  0  0  0  0  0
    1.0825    3.5850    0.2935 H   0  0  0  0  0  0  0  0  0  0  0  0
    2.1722    5.7295    0.8597 H   0  0  0  0  0  0  0  0  0  0  0  0
    2.2249    6.5180    3.2097 H   0  0  0  0  0  0  0  0  0  0  0  0
    1.1588    5.1703    4.9958 H   0  0  0  0  0  0  0  0  0  0  0  0
    0.0572    3.0278    4.4504 H   0  0  0  0  0  0  0  0  0  0  0  0
  1  2  1  0
  2  3  1  0
  3  4  1  0
  4  5  2  0
  4  6  1  0
  7  6  1  1
  7  8  1  0
  8  9  1  0
  9 10  1  0
 10 11  1  6
 10 12  1  0
 12 13  1  0
 13 14  1  0
 14 15  1  0
 15 16  1  0
 13 17  1  0
  3 18  2  0
 18 19  1  0
 19 20  1  0
 20 21  1  0
 21 22  1  0
 22 23  1  0
 23 24  1  0
 24 25  1  0
 25 26  1  0
 26 27  1  0
 27 28  1  0
 28 29  1  0
 28 30  1  0
 30 31  1  0
 31 32  1  0
 32 33  1  0
 33 34  1  0
 19 35  1  0
 35 36  1  0
 36 37  2  0
 37 38  1  0
 38 39  2  0
 39 40  1  0
 40 41  2  0
 35  2  2  0
 41 36  1  0
 16  7  1  0
 26 22  1  0
 34 28  1  0
 17  7  1  0
 15 10  1  0
  1 42  1  0
  1 43  1  0
  1 44  1  0
  6 45  1  0
  8 46  1  0
  8 47  1  0
  9 48  1  0
  9 49  1  0
 11 50  1  0
 11 51  1  0
 11 52  1  0
 12 53  1  0
 12 54  1  0
 13 55  1  1
 14 56  1  0
 14 57  1  0
 15 58  1  6
 16 59  1  0
 16 60  1  0
 17 61  1  0
 17 62  1  0
 18 63  1  0
 20 64  1  0
 20 65  1  0
 21 66  1  0
 21 67  1  0
 22 68  1  6
 23 69  1  0
 23 70  1  0
 24 71  1  0
 24 72  1  0
 25 73  1  0
 25 74  1  0
 26 75  1  6
 27 76  1  0
 27 77  1  0
 29 78  1  0
 29 79  1  0
 29 80  1  0
 30 81  1  0
 30 82  1  0
 31 83  1  0
 31 84  1  0
 32 85  1  0
 32 86  1  0
 33 87  1  0
 33 88  1  0
 34 89  1  0
 34 90  1  0
 37 91  1  0
 38 92  1  0
 39 93  1  0
 40 94  1  0
 41 95  1  0
M  CHG  1  22   1
M  END
>  <_SMILES>  (45) 
Cc1c(C(=O)N[C@@]23CC[C@]4(C)C[C@@H](C[C@@H]4C2)C3)cn(CC[N@H+]2CCC[C@H]2CC2(C)CCCCC2)c1-c1ccccc1

$$$$

     RDKit          3D

 37 40  0  0  0  0  0  0  0  0999 V2000
    1.9931    0.3157   -1.7961 O   0  0  0  0  0  0  0  0  0  0  0  0
    2.2014    0.0447   -0.6192 C   0  0  0  0  0  0  0  0  0  0  0  0
    1.2184   -0.1379    0.3326 N   0  0  0  0  0  0  0  0  0  0  0  0
   -0.2235   -0.0392    0.0969 C   0  0  2  0  0  0  0  0  0  0  0  0
   -0.6277    1.3760   -0.3857 C   0  0  0  0  0  0  0  0  0  0  0  0
   -2.1518    1.4670   -0.5791 C   0  0  1  0  0  0  0  0  0  0  0  0
   -2.5938    0.4210   -1.6167 C   0  0  0  0  0  0  0  0  0  0  0  0
   -2.2299   -0.9927   -1.1317 C   0  0  2  0  0  0  0  0  0  0  0  0
   -2.9294   -1.2642    0.2095 C   0  0  0  0  0  0  0  0  0  0  0  0
   -2.4848   -0.2271    1.2526 C   0  0  2  0  0  0  0  0  0  0  0  0
   -2.8518    1.1811    0.7589 C   0  0  0  0  0  0  0  0  0  0  0  0
   -0.9612   -0.3163    1.4344 C   0  0  0  0  0  0  0  0  0  0  0  0
   -0.7058   -1.0852   -0.9386 C   0  0  0  0  0  0  0  0  0  0  0  0
    3.5996   -0.1112   -0.1227 C   0  0  0  0  0  0  0  0  0  0  0  0
    4.6566    0.0470   -0.9760 C   0  0  0  0  0  0  0  0  0  0  0  0
    5.8710   -0.1246   -0.3837 C   0  0  0  0  0  0  0  0  0  0  0  0
    6.0116   -0.4224    0.9221 N   0  0  0  0  0  0  0  0  0  0  0  0
    4.9427   -0.5569    1.6715 N   0  0  0  0  0  0  0  0  0  0  0  0
    3.7383   -0.4105    1.1900 N   0  0  0  0  0  0  0  0  0  0  0  0
    1.5391   -0.3590    1.2716 H   0  0  0  0  0  0  0  0  0  0  0  0
   -0.1325    1.6233   -1.3322 H   0  0  0  0  0  0  0  0  0  0  0  0
   -0.2973    2.1308    0.3398 H   0  0  0  0  0  0  0  0  0  0  0  0
   -2.4197    2.4704   -0.9286 H   0  0  0  0  0  0  0  0  0  0  0  0
   -2.1111    0.6223   -2.5809 H   0  0  0  0  0  0  0  0  0  0  0  0
   -3.6760    0.4924   -1.7815 H   0  0  0  0  0  0  0  0  0  0  0  0
   -2.5531   -1.7322   -1.8728 H   0  0  0  0  0  0  0  0  0  0  0  0
   -4.0178   -1.2226    0.0798 H   0  0  0  0  0  0  0  0  0  0  0  0
   -2.6889   -2.2756    0.5598 H   0  0  0  0  0  0  0  0  0  0  0  0
   -2.9839   -0.4258    2.2075 H   0  0  0  0  0  0  0  0  0  0  0  0
   -2.5555    1.9292    1.5044 H   0  0  0  0  0  0  0  0  0  0  0  0
   -3.9389    1.2647    0.6386 H   0  0  0  0  0  0  0  0  0  0  0  0
   -0.6918   -1.3107    1.8149 H   0  0  0  0  0  0  0  0  0  0  0  0
   -0.6374    0.4019    2.1997 H   0  0  0  0  0  0  0  0  0  0  0  0
   -0.4315   -2.0961   -0.6098 H   0  0  0  0  0  0  0  0  0  0  0  0
   -0.2137   -0.9338   -1.9066 H   0  0  0  0  0  0  0  0  0  0  0  0
    4.5389    0.2858   -2.0227 H   0  0  0  0  0  0  0  0  0  0  0  0
    6.7981   -0.0294   -0.9386 H   0  0  0  0  0  0  0  0  0  0  0  0
  1  2  2  0
  2  3  1  0
  4  3  1  1
  4  5  1  0
  5  6  1  0
  6  7  1  0
  7  8  1  0
  8  9  1  0
  9 10  1  0
 10 11  1  0
 10 12  1  0
  8 13  1  0
  2 14  1  0
 14 15  1  0
 15 16  2  0
 16 17  1  0
 17 18  2  0
 18 19  1  0
 12  4  1  0
 19 14  2  0
 13  4  1  0
 11  6  1  0
  3 20  1  0
  5 21  1  0
  5 22  1  0
  6 23  1  6
  7 24  1  0
  7 25  1  0
  8 26  1  6
  9 27  1  0
  9 28  1  0
 10 29  1  1
 11 30  1  0
 11 31  1  0
 12 32  1  0
 12 33  1  0
 13 34  1  0
 13 35  1  0
 15 36  1  0
 16 37  1  0
M  END
>  <_SMILES>  (46) 
O=C(N[C@]12C[C@H]3C[C@H](C[C@H](C3)C1)C2)c1ccnnn1

$$$$

     RDKit          3D

 63 68  0  0  0  0  0  0  0  0999 V2000
    1.0575   -3.1373    0.5146 C   0  0  0  0  0  0  0  0  0  0  0  0
    1.2353   -1.6691    0.3513 C   0  0  0  0  0  0  0  0  0  0  0  0
    0.1991   -0.7069    0.2018 C   0  0  0  0  0  0  0  0  0  0  0  0
   -1.2601   -0.9380    0.1748 C   0  0  0  0  0  0  0  0  0  0  0  0
   -1.7621   -2.0510    0.2850 O   0  0  0  0  0  0  0  0  0  0  0  0
   -1.9768    0.2280    0.0135 N   0  0  0  0  0  0  0  0  0  0  0  0
   -3.4293    0.3472   -0.0539 C   0  0  2  0  0  0  0  0  0  0  0  0
   -3.7926    1.8444   -0.2404 C   0  0  0  0  0  0  0  0  0  0  0  0
   -5.3156    2.0362   -0.3188 C   0  0  1  0  0  0  0  0  0  0  0  0
   -5.8640    1.2339   -1.5091 C   0  0  0  0  0  0  0  0  0  0  0  0
   -5.5375   -0.2574   -1.3319 C   0  0  2  0  0  0  0  0  0  0  0  0
   -6.1736   -0.7644   -0.0264 C   0  0  0  0  0  0  0  0  0  0  0  0
   -5.6298    0.0322    1.1718 C   0  0  2  0  0  0  0  0  0  0  0  0
   -5.9558    1.5218    0.9801 C   0  0  0  0  0  0  0  0  0  0  0  0
   -4.1035   -0.1486    1.2493 C   0  0  0  0  0  0  0  0  0  0  0  0
   -4.0112   -0.4383   -1.2551 C   0  0  0  0  0  0  0  0  0  0  0  0
    0.7042    0.5328    0.0770 N   0  0  0  0  0  0  0  0  0  0  0  0
    2.0458    0.3748    0.1448 N   0  0  0  0  0  0  0  0  0  0  0  0
    2.8681    1.6074    0.0325 C   0  0  1  0  0  0  0  0  0  0  0  0
    3.9203    1.8522    1.1266 C   0  0  0  0  0  0  0  0  0  0  0  0
    4.8452    2.4127    0.0122 C   0  0  1  0  0  0  0  0  0  0  0  0
    6.3132    2.0504    0.1083 C   0  0  0  0  0  0  0  0  0  0  0  0
    3.9990    1.6051   -1.0092 C   0  0  0  0  0  0  0  0  0  0  0  0
    2.4241   -0.9466    0.3116 C   0  0  0  0  0  0  0  0  0  0  0  0
    3.7790   -1.4785    0.4231 C   0  0  0  0  0  0  0  0  0  0  0  0
    4.3697   -1.6509    1.6805 C   0  0  0  0  0  0  0  0  0  0  0  0
    5.6448   -2.2088    1.7920 C   0  0  0  0  0  0  0  0  0  0  0  0
    6.3281   -2.6203    0.6491 C   0  0  0  0  0  0  0  0  0  0  0  0
    5.7331   -2.4860   -0.6041 C   0  0  0  0  0  0  0  0  0  0  0  0
    4.4580   -1.9280   -0.7156 C   0  0  0  0  0  0  0  0  0  0  0  0
    0.5356   -3.5565   -0.3517 H   0  0  0  0  0  0  0  0  0  0  0  0
    0.4706   -3.3524    1.4135 H   0  0  0  0  0  0  0  0  0  0  0  0
    2.0133   -3.6606    0.6104 H   0  0  0  0  0  0  0  0  0  0  0  0
   -1.3940    1.0594   -0.0612 H   0  0  0  0  0  0  0  0  0  0  0  0
   -3.3873    2.4375    0.5904 H   0  0  0  0  0  0  0  0  0  0  0  0
   -3.3231    2.2359   -1.1529 H   0  0  0  0  0  0  0  0  0  0  0  0
   -5.5486    3.0988   -0.4503 H   0  0  0  0  0  0  0  0  0  0  0  0
   -5.4275    1.6047   -2.4446 H   0  0  0  0  0  0  0  0  0  0  0  0
   -6.9493    1.3733   -1.5870 H   0  0  0  0  0  0  0  0  0  0  0  0
   -5.9338   -0.8254   -2.1810 H   0  0  0  0  0  0  0  0  0  0  0  0
   -7.2647   -0.6630   -0.0784 H   0  0  0  0  0  0  0  0  0  0  0  0
   -5.9592   -1.8321    0.1050 H   0  0  0  0  0  0  0  0  0  0  0  0
   -6.0915   -0.3305    2.0969 H   0  0  0  0  0  0  0  0  0  0  0  0
   -7.0426    1.6662    0.9451 H   0  0  0  0  0  0  0  0  0  0  0  0
   -5.5852    2.0999    1.8356 H   0  0  0  0  0  0  0  0  0  0  0  0
   -3.8775   -1.2065    1.4285 H   0  0  0  0  0  0  0  0  0  0  0  0
   -3.7056    0.4006    2.1128 H   0  0  0  0  0  0  0  0  0  0  0  0
   -3.7817   -1.5073   -1.1714 H   0  0  0  0  0  0  0  0  0  0  0  0
   -3.5470   -0.0971   -2.1898 H   0  0  0  0  0  0  0  0  0  0  0  0
    2.2232    2.4911   -0.0935 H   0  0  0  0  0  0  0  0  0  0  0  0
    4.3216    0.9785    1.6394 H   0  0  0  0  0  0  0  0  0  0  0  0
    3.6297    2.5821    1.8890 H   0  0  0  0  0  0  0  0  0  0  0  0
    4.7175    3.4969   -0.1179 H   0  0  0  0  0  0  0  0  0  0  0  0
    6.7798    2.5581    0.9583 H   0  0  0  0  0  0  0  0  0  0  0  0
    6.8446    2.3549   -0.7989 H   0  0  0  0  0  0  0  0  0  0  0  0
    6.4565    0.9728    0.2382 H   0  0  0  0  0  0  0  0  0  0  0  0
    4.4292    0.6409   -1.2787 H   0  0  0  0  0  0  0  0  0  0  0  0
    3.7708    2.1395   -1.9370 H   0  0  0  0  0  0  0  0  0  0  0  0
    3.8389   -1.3519    2.5817 H   0  0  0  0  0  0  0  0  0  0  0  0
    6.1006   -2.3294    2.7714 H   0  0  0  0  0  0  0  0  0  0  0  0
    7.3195   -3.0577    0.7362 H   0  0  0  0  0  0  0  0  0  0  0  0
    6.2579   -2.8228   -1.4944 H   0  0  0  0  0  0  0  0  0  0  0  0
    3.9966   -1.8469   -1.6974 H   0  0  0  0  0  0  0  0  0  0  0  0
  1  2  1  0
  2  3  1  0
  3  4  1  0
  4  5  2  0
  4  6  1  0
  7  6  1  1
  7  8  1  0
  8  9  1  0
  9 10  1  0
 10 11  1  0
 11 12  1  0
 12 13  1  0
 13 14  1  0
 13 15  1  0
 11 16  1  0
  3 17  2  0
 17 18  1  0
 18 19  1  0
 19 20  1  0
 20 21  1  0
 21 22  1  0
 21 23  1  0
 18 24  1  0
 24 25  1  0
 25 26  2  0
 26 27  1  0
 27 28  2  0
 28 29  1  0
 29 30  2  0
 24  2  2  0
 30 25  1  0
 15  7  1  0
 23 19  1  0
 16  7  1  0
 14  9  1  0
  1 31  1  0
  1 32  1  0
  1 33  1  0
  6 34  1  0
  8 35  1  0
  8 36  1  0
  9 37  1  6
 10 38  1  0
 10 39  1  0
 11 40  1  6
 12 41  1  0
 12 42  1  0
 13 43  1  1
 14 44  1  0
 14 45  1  0
 15 46  1  0
 15 47  1  0
 16 48  1  0
 16 49  1  0
 19 50  1  6
 20 51  1  0
 20 52  1  0
 21 53  1  6
 22 54  1  0
 22 55  1  0
 22 56  1  0
 23 57  1  0
 23 58  1  0
 26 59  1  0
 27 60  1  0
 28 61  1  0
 29 62  1  0
 30 63  1  0
M  END
>  <_SMILES>  (47) 
Cc1c(C(=O)N[C@]23C[C@H]4C[C@H](C[C@H](C4)C2)C3)nn([C@H]2C[C@@H](C)C2)c1-c1ccccc1

$$$$

     RDKit          3D

 63 68  0  0  0  0  0  0  0  0999 V2000
   -1.0176   -2.3262    2.2309 C   0  0  0  0  0  0  0  0  0  0  0  0
   -1.2218   -1.2586    1.2152 C   0  0  0  0  0  0  0  0  0  0  0  0
   -0.2028   -0.5464    0.5236 C   0  0  0  0  0  0  0  0  0  0  0  0
    1.2611   -0.6998    0.6520 C   0  0  0  0  0  0  0  0  0  0  0  0
    1.7838   -1.5056    1.4141 O   0  0  0  0  0  0  0  0  0  0  0  0
    1.9567    0.1569   -0.1734 N   0  0  0  0  0  0  0  0  0  0  0  0
    3.4076    0.2586   -0.2881 C   0  0  2  0  0  0  0  0  0  0  0  0
    4.0587    0.6687    1.0559 C   0  0  0  0  0  0  0  0  0  0  0  0
    5.5823    0.8159    0.8965 C   0  0  1  0  0  0  0  0  0  0  0  0
    6.1734   -0.5232    0.4237 C   0  0  0  0  0  0  0  0  0  0  0  0
    5.5600   -0.9246   -0.9286 C   0  0  2  0  0  0  0  0  0  0  0  0
    5.8591    0.1695   -1.9656 C   0  0  0  0  0  0  0  0  0  0  0  0
    5.2635    1.5083   -1.5025 C   0  0  2  0  0  0  0  0  0  0  0  0
    5.8812    1.8999   -0.1510 C   0  0  0  0  0  0  0  0  0  0  0  0
    3.7435    1.3530   -1.3359 C   0  0  0  0  0  0  0  0  0  0  0  0
    4.0365   -1.0722   -0.7697 C   0  0  0  0  0  0  0  0  0  0  0  0
   -0.7310    0.3519   -0.3267 N   0  0  0  0  0  0  0  0  0  0  0  0
   -2.0693    0.2216   -0.1861 N   0  0  0  0  0  0  0  0  0  0  0  0
   -2.9264    1.1084   -1.0214 C   0  0  1  0  0  0  0  0  0  0  0  0
   -4.0100    0.4183   -1.8558 C   0  0  0  0  0  0  0  0  0  0  0  0
   -5.0966    1.1958   -1.0784 C   0  0  2  0  0  0  0  0  0  0  0  0
   -5.9943    2.0875   -1.9180 C   0  0  0  0  0  0  0  0  0  0  0  0
   -3.9908    1.9221   -0.2789 C   0  0  0  0  0  0  0  0  0  0  0  0
   -2.4236   -0.7443    0.7394 C   0  0  0  0  0  0  0  0  0  0  0  0
   -3.7722   -1.1391    1.1324 C   0  0  0  0  0  0  0  0  0  0  0  0
   -4.4169   -2.1977    0.4816 C   0  0  0  0  0  0  0  0  0  0  0  0
   -5.6884   -2.6072    0.8879 C   0  0  0  0  0  0  0  0  0  0  0  0
   -6.3150   -1.9749    1.9605 C   0  0  0  0  0  0  0  0  0  0  0  0
   -5.6671   -0.9412    2.6347 C   0  0  0  0  0  0  0  0  0  0  0  0
   -4.3956   -0.5315    2.2287 C   0  0  0  0  0  0  0  0  0  0  0  0
   -1.9649   -2.7164    2.6146 H   0  0  0  0  0  0  0  0  0  0  0  0
   -0.4653   -3.1655    1.7960 H   0  0  0  0  0  0  0  0  0  0  0  0
   -0.4497   -1.9383    3.0827 H   0  0  0  0  0  0  0  0  0  0  0  0
    1.3584    0.7566   -0.7381 H   0  0  0  0  0  0  0  0  0  0  0  0
    3.6274    1.6137    1.4116 H   0  0  0  0  0  0  0  0  0  0  0  0
    3.8509   -0.0751    1.8343 H   0  0  0  0  0  0  0  0  0  0  0  0
    6.0280    1.0979    1.8570 H   0  0  0  0  0  0  0  0  0  0  0  0
    7.2630   -0.4382    0.3293 H   0  0  0  0  0  0  0  0  0  0  0  0
    5.9786   -1.3033    1.1699 H   0  0  0  0  0  0  0  0  0  0  0  0
    5.9899   -1.8760   -1.2615 H   0  0  0  0  0  0  0  0  0  0  0  0
    6.9427    0.2691   -2.1036 H   0  0  0  0  0  0  0  0  0  0  0  0
    5.4387   -0.1115   -2.9390 H   0  0  0  0  0  0  0  0  0  0  0  0
    5.4771    2.2847   -2.2455 H   0  0  0  0  0  0  0  0  0  0  0  0
    6.9653    2.0293   -0.2578 H   0  0  0  0  0  0  0  0  0  0  0  0
    5.4768    2.8640    0.1812 H   0  0  0  0  0  0  0  0  0  0  0  0
    3.3046    2.3131   -1.0328 H   0  0  0  0  0  0  0  0  0  0  0  0
    3.2891    1.1013   -2.3036 H   0  0  0  0  0  0  0  0  0  0  0  0
    3.5891   -1.3773   -1.7249 H   0  0  0  0  0  0  0  0  0  0  0  0
    3.8278   -1.8825   -0.0610 H   0  0  0  0  0  0  0  0  0  0  0  0
   -2.3009    1.7592   -1.6498 H   0  0  0  0  0  0  0  0  0  0  0  0
   -4.0782   -0.6692   -1.7855 H   0  0  0  0  0  0  0  0  0  0  0  0
   -3.9515    0.6660   -2.9228 H   0  0  0  0  0  0  0  0  0  0  0  0
   -5.7064    0.5399   -0.4454 H   0  0  0  0  0  0  0  0  0  0  0  0
   -5.4125    2.7553   -2.5619 H   0  0  0  0  0  0  0  0  0  0  0  0
   -6.6465    1.4836   -2.5570 H   0  0  0  0  0  0  0  0  0  0  0  0
   -6.6309    2.7051   -1.2762 H   0  0  0  0  0  0  0  0  0  0  0  0
   -4.0467    1.8013    0.8048 H   0  0  0  0  0  0  0  0  0  0  0  0
   -3.9217    2.9990   -0.4767 H   0  0  0  0  0  0  0  0  0  0  0  0
   -3.9305   -2.7129   -0.3437 H   0  0  0  0  0  0  0  0  0  0  0  0
   -6.1859   -3.4245    0.3722 H   0  0  0  0  0  0  0  0  0  0  0  0
   -7.3036   -2.2960    2.2788 H   0  0  0  0  0  0  0  0  0  0  0  0
   -6.1480   -0.4588    3.4818 H   0  0  0  0  0  0  0  0  0  0  0  0
   -3.8924    0.2624    2.7760 H   0  0  0  0  0  0  0  0  0  0  0  0
  1  2  1  0
  2  3  1  0
  3  4  1  0
  4  5  2  0
  4  6  1  0
  7  6  1  1
  7  8  1  0
  8  9  1  0
  9 10  1  0
 10 11  1  0
 11 12  1  0
 12 13  1  0
 13 14  1  0
 13 15  1  0
 11 16  1  0
  3 17  2  0
 17 18  1  0
 18 19  1  0
 19 20  1  0
 20 21  1  0
 21 22  1  0
 21 23  1  0
 18 24  1  0
 24 25  1  0
 25 26  2  0
 26 27  1  0
 27 28  2  0
 28 29  1  0
 29 30  2  0
 24  2  2  0
 30 25  1  0
 15  7  1  0
 23 19  1  0
 16  7  1  0
 14  9  1  0
  1 31  1  0
  1 32  1  0
  1 33  1  0
  6 34  1  0
  8 35  1  0
  8 36  1  0
  9 37  1  1
 10 38  1  0
 10 39  1  0
 11 40  1  6
 12 41  1  0
 12 42  1  0
 13 43  1  6
 14 44  1  0
 14 45  1  0
 15 46  1  0
 15 47  1  0
 16 48  1  0
 16 49  1  0
 19 50  1  6
 20 51  1  0
 20 52  1  0
 21 53  1  1
 22 54  1  0
 22 55  1  0
 22 56  1  0
 23 57  1  0
 23 58  1  0
 26 59  1  0
 27 60  1  0
 28 61  1  0
 29 62  1  0
 30 63  1  0
M  END
>  <_SMILES>  (48) 
Cc1c(C(=O)N[C@]23C[C@H]4C[C@H](C[C@H](C4)C2)C3)nn([C@H]2C[C@H](C)C2)c1-c1ccccc1

$$$$

     RDKit          3D

 66 71  0  0  0  0  0  0  0  0999 V2000
    0.9162   -0.6088    3.8167 C   0  0  0  0  0  0  0  0  0  0  0  0
    1.4190    0.3438    2.7453 C   0  0  0  0  0  0  0  0  0  0  0  0
    1.3782   -0.2408    1.4157 N   0  0  0  0  0  0  0  0  0  0  0  0
    0.2873   -0.2576    0.5728 C   0  0  0  0  0  0  0  0  0  0  0  0
   -1.0485    0.2677    0.8348 C   0  0  0  0  0  0  0  0  0  0  0  0
   -1.3908    0.7970    1.8872 O   0  0  0  0  0  0  0  0  0  0  0  0
   -1.8949    0.0969   -0.2397 N   0  0  0  0  0  0  0  0  0  0  0  0
   -3.2997    0.4882   -0.3086 C   0  0  2  0  0  0  0  0  0  0  0  0
   -3.4769    2.0166   -0.1308 C   0  0  0  0  0  0  0  0  0  0  0  0
   -4.9601    2.4077   -0.2558 C   0  0  1  0  0  0  0  0  0  0  0  0
   -5.4755    2.0075   -1.6472 C   0  0  0  0  0  0  0  0  0  0  0  0
   -5.3308    0.4904   -1.8439 C   0  0  2  0  0  0  0  0  0  0  0  0
   -6.1439   -0.2427   -0.7655 C   0  0  0  0  0  0  0  0  0  0  0  0
   -5.6325    0.1444    0.6311 C   0  0  2  0  0  0  0  0  0  0  0  0
   -5.7718    1.6647    0.8190 C   0  0  0  0  0  0  0  0  0  0  0  0
   -4.1496   -0.2477    0.7566 C   0  0  0  0  0  0  0  0  0  0  0  0
   -3.8495    0.1036   -1.7082 C   0  0  0  0  0  0  0  0  0  0  0  0
    0.5967   -0.8486   -0.5730 N   0  0  0  0  0  0  0  0  0  0  0  0
    1.9214   -1.2163   -0.4727 C   0  0  0  0  0  0  0  0  0  0  0  0
    2.5879   -1.9243   -1.6058 C   0  0  0  0  0  0  0  0  0  0  0  0
    3.4420   -0.9041   -2.3210 C   0  0  0  0  0  0  0  0  0  0  0  0
    2.8579    0.1429   -3.0518 C   0  0  0  0  0  0  0  0  0  0  0  0
    3.6537    1.0768   -3.7171 C   0  0  0  0  0  0  0  0  0  0  0  0
    5.0422    0.9727   -3.6660 C   0  0  0  0  0  0  0  0  0  0  0  0
    5.6362   -0.0655   -2.9513 C   0  0  0  0  0  0  0  0  0  0  0  0
    4.8417   -1.0006   -2.2853 C   0  0  0  0  0  0  0  0  0  0  0  0
    2.4279   -0.8659    0.7704 C   0  0  0  0  0  0  0  0  0  0  0  0
    3.7562   -1.0637    1.3310 C   0  0  0  0  0  0  0  0  0  0  0  0
    4.7493   -0.0950    1.1440 C   0  0  0  0  0  0  0  0  0  0  0  0
    6.0277   -0.2869    1.6723 C   0  0  0  0  0  0  0  0  0  0  0  0
    6.3122   -1.4486    2.3875 C   0  0  0  0  0  0  0  0  0  0  0  0
    7.8871   -1.6874    3.0371 Cl  0  0  0  0  0  0  0  0  0  0  0  0
    5.3309   -2.4205    2.5771 C   0  0  0  0  0  0  0  0  0  0  0  0
    4.0528   -2.2288    2.0468 C   0  0  0  0  0  0  0  0  0  0  0  0
   -0.1190   -0.9121    3.6317 H   0  0  0  0  0  0  0  0  0  0  0  0
    1.5250   -1.5178    3.8549 H   0  0  0  0  0  0  0  0  0  0  0  0
    0.9598   -0.1295    4.7996 H   0  0  0  0  0  0  0  0  0  0  0  0
    2.4509    0.6381    2.9622 H   0  0  0  0  0  0  0  0  0  0  0  0
    0.8387    1.2710    2.7320 H   0  0  0  0  0  0  0  0  0  0  0  0
   -1.4648   -0.3766   -1.0316 H   0  0  0  0  0  0  0  0  0  0  0  0
   -2.8839    2.5552   -0.8815 H   0  0  0  0  0  0  0  0  0  0  0  0
   -3.1031    2.3432    0.8468 H   0  0  0  0  0  0  0  0  0  0  0  0
   -5.0689    3.4894   -0.1191 H   0  0  0  0  0  0  0  0  0  0  0  0
   -4.9137    2.5418   -2.4231 H   0  0  0  0  0  0  0  0  0  0  0  0
   -6.5268    2.3011   -1.7562 H   0  0  0  0  0  0  0  0  0  0  0  0
   -5.6972    0.2098   -2.8377 H   0  0  0  0  0  0  0  0  0  0  0  0
   -6.0629   -1.3274   -0.9071 H   0  0  0  0  0  0  0  0  0  0  0  0
   -7.2067    0.0122   -0.8594 H   0  0  0  0  0  0  0  0  0  0  0  0
   -6.2179   -0.3777    1.3962 H   0  0  0  0  0  0  0  0  0  0  0  0
   -6.8281    1.9538    0.7559 H   0  0  0  0  0  0  0  0  0  0  0  0
   -5.4223    1.9524    1.8182 H   0  0  0  0  0  0  0  0  0  0  0  0
   -3.8010   -0.0089    1.7684 H   0  0  0  0  0  0  0  0  0  0  0  0
   -4.0396   -1.3342    0.6427 H   0  0  0  0  0  0  0  0  0  0  0  0
   -3.7323   -0.9754   -1.8763 H   0  0  0  0  0  0  0  0  0  0  0  0
   -3.2638    0.6006   -2.4933 H   0  0  0  0  0  0  0  0  0  0  0  0
    1.8485   -2.3400   -2.2999 H   0  0  0  0  0  0  0  0  0  0  0  0
    3.1894   -2.7618   -1.2351 H   0  0  0  0  0  0  0  0  0  0  0  0
    1.7742    0.2372   -3.0960 H   0  0  0  0  0  0  0  0  0  0  0  0
    3.1884    1.8853   -4.2745 H   0  0  0  0  0  0  0  0  0  0  0  0
    5.6610    1.6998   -4.1848 H   0  0  0  0  0  0  0  0  0  0  0  0
    6.7191   -0.1487   -2.9125 H   0  0  0  0  0  0  0  0  0  0  0  0
    5.3233   -1.8029   -1.7303 H   0  0  0  0  0  0  0  0  0  0  0  0
    4.5345    0.8069    0.5733 H   0  0  0  0  0  0  0  0  0  0  0  0
    6.7930    0.4687    1.5175 H   0  0  0  0  0  0  0  0  0  0  0  0
    5.5538   -3.3278    3.1322 H   0  0  0  0  0  0  0  0  0  0  0  0
    3.2921   -2.9926    2.1926 H   0  0  0  0  0  0  0  0  0  0  0  0
  1  2  1  0
  2  3  1  0
  3  4  1  0
  4  5  1  0
  5  6  2  0
  5  7  1  0
  8  7  1  6
  8  9  1  0
  9 10  1  0
 10 11  1  0
 11 12  1  0
 12 13  1  0
 13 14  1  0
 14 15  1  0
 14 16  1  0
 12 17  1  0
  4 18  2  0
 18 19  1  0
 19 20  1  0
 20 21  1  0
 21 22  2  0
 22 23  1  0
 23 24  2  0
 24 25  1  0
 25 26  2  0
 19 27  2  0
 27 28  1  0
 28 29  1  0
 29 30  2  0
 30 31  1  0
 31 32  1  0
 31 33  2  0
 33 34  1  0
 27  3  1  0
 34 28  2  0
 16  8  1  0
 26 21  1  0
 17  8  1  0
 15 10  1  0
  1 35  1  0
  1 36  1  0
  1 37  1  0
  2 38  1  0
  2 39  1  0
  7 40  1  0
  9 41  1  0
  9 42  1  0
 10 43  1  1
 11 44  1  0
 11 45  1  0
 12 46  1  6
 13 47  1  0
 13 48  1  0
 14 49  1  1
 15 50  1  0
 15 51  1  0
 16 52  1  0
 16 53  1  0
 17 54  1  0
 17 55  1  0
 20 56  1  0
 20 57  1  0
 22 58  1  0
 23 59  1  0
 24 60  1  0
 25 61  1  0
 26 62  1  0
 29 63  1  0
 30 64  1  0
 33 65  1  0
 34 66  1  0
M  END
>  <_SMILES>  (49) 
CCn1c(C(=O)N[C@]23C[C@H]4C[C@H](C[C@H](C4)C2)C3)nc(Cc2ccccc2)c1-c1ccc(Cl)cc1

$$$$

     RDKit          3D

 67 72  0  0  0  0  0  0  0  0999 V2000
   -0.0201    2.1909    1.8492 C   0  0  0  0  0  0  0  0  0  0  0  0
    0.2478    0.6992    1.7731 C   0  0  0  0  0  0  0  0  0  0  0  0
    0.9297    0.3167    0.5241 N   0  0  0  0  0  0  0  0  0  0  0  0
    0.3299   -0.3606   -0.4950 C   0  0  0  0  0  0  0  0  0  0  0  0
   -1.0181   -0.7760   -0.7021 C   0  0  0  0  0  0  0  0  0  0  0  0
   -1.2230   -1.8200   -1.3102 O   0  0  0  0  0  0  0  0  0  0  0  0
   -2.0048    0.0936   -0.2715 N   0  0  0  0  0  0  0  0  0  0  0  0
   -3.4462   -0.1264   -0.4790 C   0  0  2  0  0  0  0  0  0  0  0  0
   -3.9280   -1.4536    0.1600 C   0  0  0  0  0  0  0  0  0  0  0  0
   -5.4458   -1.6252   -0.0286 C   0  0  1  0  0  0  0  0  0  0  0  0
   -6.1779   -0.4576    0.6507 C   0  0  0  0  0  0  0  0  0  0  0  0
   -5.7337    0.8737    0.0255 C   0  0  2  0  0  0  0  0  0  0  0  0
   -6.0628    0.8663   -1.4758 C   0  0  0  0  0  0  0  0  0  0  0  0
   -5.3308   -0.2942   -2.1686 C   0  0  2  0  0  0  0  0  0  0  0  0
   -5.7718   -1.6234   -1.5320 C   0  0  0  0  0  0  0  0  0  0  0  0
   -3.8128   -0.1218   -1.9828 C   0  0  0  0  0  0  0  0  0  0  0  0
   -4.2163    1.0344    0.2079 C   0  0  0  0  0  0  0  0  0  0  0  0
    1.3121   -0.6324   -1.3695 N   0  0  0  0  0  0  0  0  0  0  0  0
    2.5178   -0.0696   -1.0186 C   0  0  0  0  0  0  0  0  0  0  0  0
    3.7439   -0.3114   -1.8329 C   0  0  0  0  0  0  0  0  0  0  0  0
    4.7143   -1.2412   -1.1476 C   0  0  0  0  0  0  0  0  0  0  0  0
    5.9640   -0.7753   -0.7138 C   0  0  0  0  0  0  0  0  0  0  0  0
    6.8528   -1.6316   -0.0621 C   0  0  0  0  0  0  0  0  0  0  0  0
    6.5079   -2.9630    0.1561 C   0  0  0  0  0  0  0  0  0  0  0  0
    5.2758   -3.4426   -0.2811 C   0  0  0  0  0  0  0  0  0  0  0  0
    4.3835   -2.5888   -0.9313 C   0  0  0  0  0  0  0  0  0  0  0  0
    2.2927    0.5679    0.1996 C   0  0  0  0  0  0  0  0  0  0  0  0
    3.3774    1.3663    1.0312 C   0  0  0  0  0  0  0  0  0  0  0  0
    3.4571    1.2371    2.4196 C   0  0  0  0  0  0  0  0  0  0  0  0
    4.4226    1.9505    3.1387 C   0  0  0  0  0  0  0  0  0  0  0  0
    5.3054    2.7953    2.4716 C   0  0  0  0  0  0  0  0  0  0  0  0
    6.4885    3.6709    3.3570 Cl  0  0  0  0  0  0  0  0  0  0  0  0
    5.2337    2.9295    1.0882 C   0  0  0  0  0  0  0  0  0  0  0  0
    4.2731    2.2132    0.3669 C   0  0  0  0  0  0  0  0  0  0  0  0
    0.9101    2.7650    1.8717 H   0  0  0  0  0  0  0  0  0  0  0  0
   -0.5853    2.4291    2.7553 H   0  0  0  0  0  0  0  0  0  0  0  0
   -0.5943    2.5362    0.9849 H   0  0  0  0  0  0  0  0  0  0  0  0
   -0.6927    0.1480    1.8567 H   0  0  0  0  0  0  0  0  0  0  0  0
    0.8384    0.3611    2.6249 H   0  0  0  0  0  0  0  0  0  0  0  0
   -1.7346    1.0555   -0.1127 H   0  0  0  0  0  0  0  0  0  0  0  0
   -3.4179   -2.3149   -0.2859 H   0  0  0  0  0  0  0  0  0  0  0  0
   -3.6793   -1.4694    1.2293 H   0  0  0  0  0  0  0  0  0  0  0  0
   -5.7680   -2.5724    0.4182 H   0  0  0  0  0  0  0  0  0  0  0  0
   -7.2624   -0.5801    0.5410 H   0  0  0  0  0  0  0  0  0  0  0  0
   -5.9648   -0.4565    1.7267 H   0  0  0  0  0  0  0  0  0  0  0  0
   -6.2555    1.7040    0.5143 H   0  0  0  0  0  0  0  0  0  0  0  0
   -5.7669    1.8202   -1.9294 H   0  0  0  0  0  0  0  0  0  0  0  0
   -7.1454    0.7668   -1.6215 H   0  0  0  0  0  0  0  0  0  0  0  0
   -5.5732   -0.2978   -3.2371 H   0  0  0  0  0  0  0  0  0  0  0  0
   -6.8488   -1.7697   -1.6808 H   0  0  0  0  0  0  0  0  0  0  0  0
   -5.2657   -2.4618   -2.0263 H   0  0  0  0  0  0  0  0  0  0  0  0
   -3.2925   -0.9272   -2.5147 H   0  0  0  0  0  0  0  0  0  0  0  0
   -3.4836    0.8163   -2.4487 H   0  0  0  0  0  0  0  0  0  0  0  0
   -3.8962    1.9989   -0.2088 H   0  0  0  0  0  0  0  0  0  0  0  0
   -3.9716    1.0678    1.2781 H   0  0  0  0  0  0  0  0  0  0  0  0
    1.1314   -1.2202   -2.1834 H   0  0  0  0  0  0  0  0  0  0  0  0
    4.2133    0.6446   -2.0818 H   0  0  0  0  0  0  0  0  0  0  0  0
    3.4507   -0.7567   -2.7921 H   0  0  0  0  0  0  0  0  0  0  0  0
    6.2692    0.2554   -0.8809 H   0  0  0  0  0  0  0  0  0  0  0  0
    7.8211   -1.2629    0.2702 H   0  0  0  0  0  0  0  0  0  0  0  0
    7.2054   -3.6301    0.6578 H   0  0  0  0  0  0  0  0  0  0  0  0
    5.0161   -4.4868   -0.1208 H   0  0  0  0  0  0  0  0  0  0  0  0
    3.4334   -2.9946   -1.2716 H   0  0  0  0  0  0  0  0  0  0  0  0
    2.8385    0.5379    2.9698 H   0  0  0  0  0  0  0  0  0  0  0  0
    4.4935    1.8301    4.2180 H   0  0  0  0  0  0  0  0  0  0  0  0
    5.9187    3.5964    0.5682 H   0  0  0  0  0  0  0  0  0  0  0  0
    4.2209    2.3769   -0.7054 H   0  0  0  0  0  0  0  0  0  0  0  0
  1  2  1  0
  2  3  1  0
  3  4  1  0
  4  5  1  0
  5  6  2  0
  5  7  1  0
  8  7  1  6
  8  9  1  0
  9 10  1  0
 10 11  1  0
 11 12  1  0
 12 13  1  0
 13 14  1  0
 14 15  1  0
 14 16  1  0
 12 17  1  0
  4 18  2  0
 18 19  1  0
 19 20  1  0
 20 21  1  0
 21 22  2  0
 22 23  1  0
 23 24  2  0
 24 25  1  0
 25 26  2  0
 19 27  2  0
 27 28  1  0
 28 29  1  0
 29 30  2  0
 30 31  1  0
 31 32  1  0
 31 33  2  0
 33 34  1  0
 27  3  1  0
 34 28  2  0
 16  8  1  0
 26 21  1  0
 17  8  1  0
 15 10  1  0
  1 35  1  0
  1 36  1  0
  1 37  1  0
  2 38  1  0
  2 39  1  0
  7 40  1  0
  9 41  1  0
  9 42  1  0
 10 43  1  1
 11 44  1  0
 11 45  1  0
 12 46  1  1
 13 47  1  0
 13 48  1  0
 14 49  1  6
 15 50  1  0
 15 51  1  0
 16 52  1  0
 16 53  1  0
 17 54  1  0
 17 55  1  0
 18 56  1  0
 20 57  1  0
 20 58  1  0
 22 59  1  0
 23 60  1  0
 24 61  1  0
 25 62  1  0
 26 63  1  0
 29 64  1  0
 30 65  1  0
 33 66  1  0
 34 67  1  0
M  CHG  1  18   1
M  END
>  <_SMILES>  (50) 
CCn1c(C(=O)N[C@]23C[C@H]4C[C@H](C[C@H](C4)C2)C3)[nH+]c(Cc2ccccc2)c1-c1ccc(Cl)cc1

$$$$

     RDKit          3D

 50 54  0  0  0  0  0  0  0  0999 V2000
    1.2530    3.1024    0.2801 C   0  0  0  0  0  0  0  0  0  0  0  0
    0.7456    1.7055    0.6174 C   0  0  1  0  0  0  0  0  0  0  0  0
    0.2798    1.0462   -0.6690 N   0  0  0  0  0  0  0  0  0  0  0  0
   -1.1590    0.6979   -0.8597 C   0  0  2  0  0  0  0  0  0  0  0  0
   -2.0360    1.9636   -0.8120 C   0  0  0  0  0  0  0  0  0  0  0  0
   -3.5073    1.5825   -1.0638 C   0  0  1  0  0  0  0  0  0  0  0  0
   -3.6325    0.9313   -2.4517 C   0  0  0  0  0  0  0  0  0  0  0  0
   -2.7608   -0.3339   -2.5218 C   0  0  2  0  0  0  0  0  0  0  0  0
   -3.2241   -1.3293   -1.4451 C   0  0  0  0  0  0  0  0  0  0  0  0
   -3.0959   -0.6948   -0.0501 C   0  0  2  0  0  0  0  0  0  0  0  0
   -3.9618    0.5767    0.0095 C   0  0  0  0  0  0  0  0  0  0  0  0
   -1.6239   -0.3182    0.2037 C   0  0  0  0  0  0  0  0  0  0  0  0
   -1.2941    0.0489   -2.2575 C   0  0  0  0  0  0  0  0  0  0  0  0
    1.8144    0.8320    1.2318 C   0  0  0  0  0  0  0  0  0  0  0  0
    2.5170    0.9696    2.4396 C   0  0  0  0  0  0  0  0  0  0  0  0
    3.3528   -0.1273    2.4942 C   0  0  0  0  0  0  0  0  0  0  0  0
    4.2672   -0.4296    3.5332 C   0  0  0  0  0  0  0  0  0  0  0  0
    5.0104   -0.6663    4.3895 N   0  0  0  0  0  0  0  0  0  0  0  0
    3.1300   -0.8769    1.3552 N   0  0  0  0  0  0  0  0  0  0  0  0
    3.6934   -2.0803    0.9072 C   0  0  0  0  0  0  0  0  0  0  0  0
    4.6625   -2.8569    1.5056 C   0  0  0  0  0  0  0  0  0  0  0  0
    4.9667   -4.0172    0.7264 C   0  0  0  0  0  0  0  0  0  0  0  0
    4.2213   -4.0797   -0.4292 C   0  0  0  0  0  0  0  0  0  0  0  0
    3.1612   -2.7479   -0.5738 S   0  0  0  0  0  0  0  0  0  0  0  0
    2.1710   -0.2797    0.5720 N   0  0  0  0  0  0  0  0  0  0  0  0
    1.5714    3.6299    1.1860 H   0  0  0  0  0  0  0  0  0  0  0  0
    2.1138    3.0666   -0.3977 H   0  0  0  0  0  0  0  0  0  0  0  0
    0.4700    3.7020   -0.1959 H   0  0  0  0  0  0  0  0  0  0  0  0
   -0.1043    1.7681    1.3028 H   0  0  0  0  0  0  0  0  0  0  0  0
    0.8310    0.1614   -0.6870 H   0  0  0  0  0  0  0  0  0  0  0  0
    0.6440    1.5631   -1.4774 H   0  0  0  0  0  0  0  0  0  0  0  0
   -1.9593    2.4617    0.1618 H   0  0  0  0  0  0  0  0  0  0  0  0
   -1.7062    2.6894   -1.5663 H   0  0  0  0  0  0  0  0  0  0  0  0
   -4.1339    2.4802   -1.0189 H   0  0  0  0  0  0  0  0  0  0  0  0
   -3.3241    1.6423   -3.2281 H   0  0  0  0  0  0  0  0  0  0  0  0
   -4.6802    0.6756   -2.6521 H   0  0  0  0  0  0  0  0  0  0  0  0
   -2.8515   -0.7917   -3.5131 H   0  0  0  0  0  0  0  0  0  0  0  0
   -2.6217   -2.2446   -1.4970 H   0  0  0  0  0  0  0  0  0  0  0  0
   -4.2650   -1.6223   -1.6291 H   0  0  0  0  0  0  0  0  0  0  0  0
   -3.4312   -1.4071    0.7120 H   0  0  0  0  0  0  0  0  0  0  0  0
   -3.8890    1.0328    1.0045 H   0  0  0  0  0  0  0  0  0  0  0  0
   -5.0164    0.3173   -0.1453 H   0  0  0  0  0  0  0  0  0  0  0  0
   -1.5342    0.0938    1.2153 H   0  0  0  0  0  0  0  0  0  0  0  0
   -0.9998   -1.2207    0.1734 H   0  0  0  0  0  0  0  0  0  0  0  0
   -0.6616   -0.8459   -2.3281 H   0  0  0  0  0  0  0  0  0  0  0  0
   -0.9495    0.7406   -3.0374 H   0  0  0  0  0  0  0  0  0  0  0  0
    2.4384    1.7554    3.1819 H   0  0  0  0  0  0  0  0  0  0  0  0
    5.1596   -2.6534    2.4457 H   0  0  0  0  0  0  0  0  0  0  0  0
    5.6986   -4.7681    1.0037 H   0  0  0  0  0  0  0  0  0  0  0  0
    4.2506   -4.8450   -1.1941 H   0  0  0  0  0  0  0  0  0  0  0  0
  1  2  1  0
  2  3  1  0
  4  3  1  1
  4  5  1  0
  5  6  1  0
  6  7  1  0
  7  8  1  0
  8  9  1  0
  9 10  1  0
 10 11  1  0
 10 12  1  0
  8 13  1  0
  2 14  1  0
 14 15  1  0
 15 16  2  0
 16 17  1  0
 17 18  3  0
 16 19  1  0
 19 20  1  0
 20 21  2  0
 21 22  1  0
 22 23  2  0
 23 24  1  0
 19 25  1  0
 12  4  1  0
 25 14  2  0
 13  4  1  0
 24 20  1  0
 11  6  1  0
  1 26  1  0
  1 27  1  0
  1 28  1  0
  2 29  1  1
  3 30  1  0
  3 31  1  0
  5 32  1  0
  5 33  1  0
  6 34  1  6
  7 35  1  0
  7 36  1  0
  8 37  1  6
  9 38  1  0
  9 39  1  0
 10 40  1  1
 11 41  1  0
 11 42  1  0
 12 43  1  0
 12 44  1  0
 13 45  1  0
 13 46  1  0
 15 47  1  0
 21 48  1  0
 22 49  1  0
 23 50  1  0
M  CHG  1   3   1
M  END
>  <_SMILES>  (51) 
C[C@@H]([NH2+][C@]12C[C@H]3C[C@H](C[C@H](C3)C1)C2)c1cc(C#N)n(-c2cccs2)n1

$$$$

     RDKit          3D

 54 58  0  0  0  0  0  0  0  0999 V2000
    1.7144    4.0147   -0.1222 C   0  0  0  0  0  0  0  0  0  0  0  0
    1.4984    2.8543   -1.4545 S   0  0  0  0  0  0  0  0  0  0  0  0
    2.2681    3.3386   -2.5815 O   0  0  0  0  0  0  0  0  0  0  0  0
    0.0805    2.6104   -1.6320 O   0  0  0  0  0  0  0  0  0  0  0  0
    2.2099    1.4978   -0.8537 N   0  0  0  0  0  0  0  0  0  0  0  0
    1.4954    0.5239   -0.1156 C   0  0  0  0  0  0  0  0  0  0  0  0
    0.1185    0.6407    0.3986 C   0  0  0  0  0  0  0  0  0  0  0  0
   -0.1426    1.4731    1.2570 O   0  0  0  0  0  0  0  0  0  0  0  0
   -0.7558   -0.2576   -0.1660 N   0  0  0  0  0  0  0  0  0  0  0  0
   -2.2039   -0.2501    0.0746 C   0  0  2  0  0  0  0  0  0  0  0  0
   -2.5438   -0.4636    1.5719 C   0  0  0  0  0  0  0  0  0  0  0  0
   -4.0680   -0.5022    1.7818 C   0  0  1  0  0  0  0  0  0  0  0  0
   -4.6787    0.8234    1.2958 C   0  0  0  0  0  0  0  0  0  0  0  0
   -4.3794    1.0279   -0.1990 C   0  0  2  0  0  0  0  0  0  0  0  0
   -4.9726   -0.1427   -0.9992 C   0  0  0  0  0  0  0  0  0  0  0  0
   -4.3595   -1.4690   -0.5225 C   0  0  2  0  0  0  0  0  0  0  0  0
   -4.6640   -1.6631    0.9707 C   0  0  0  0  0  0  0  0  0  0  0  0
   -2.8366   -1.4220   -0.7242 C   0  0  0  0  0  0  0  0  0  0  0  0
   -2.8557    1.0679   -0.4106 C   0  0  0  0  0  0  0  0  0  0  0  0
    2.3490   -0.4666    0.1547 C   0  0  0  0  0  0  0  0  0  0  0  0
    3.6082   -0.1982   -0.3479 N   0  0  0  0  0  0  0  0  0  0  0  0
    4.7705   -1.0193   -0.2351 C   0  0  0  0  0  0  0  0  0  0  0  0
    5.9952   -0.6631   -0.8196 C   0  0  0  0  0  0  0  0  0  0  0  0
    7.1258   -1.4820   -0.7029 C   0  0  0  0  0  0  0  0  0  0  0  0
    7.0560   -2.6781    0.0004 C   0  0  0  0  0  0  0  0  0  0  0  0
    5.8545   -3.0565    0.5859 C   0  0  0  0  0  0  0  0  0  0  0  0
    4.7250   -2.2369    0.4680 C   0  0  0  0  0  0  0  0  0  0  0  0
    3.5475    1.0660   -0.9540 C   0  0  0  0  0  0  0  0  0  0  0  0
    4.4402    1.7279   -1.4518 O   0  0  0  0  0  0  0  0  0  0  0  0
    1.2000    3.6527    0.7675 H   0  0  0  0  0  0  0  0  0  0  0  0
    1.2820    4.9678   -0.4350 H   0  0  0  0  0  0  0  0  0  0  0  0
    2.7823    4.1391    0.0675 H   0  0  0  0  0  0  0  0  0  0  0  0
   -0.4493   -0.7049   -1.0217 H   0  0  0  0  0  0  0  0  0  0  0  0
   -2.1238    0.3374    2.1905 H   0  0  0  0  0  0  0  0  0  0  0  0
   -2.0928   -1.3978    1.9314 H   0  0  0  0  0  0  0  0  0  0  0  0
   -4.2902   -0.6433    2.8455 H   0  0  0  0  0  0  0  0  0  0  0  0
   -5.7630    0.8184    1.4624 H   0  0  0  0  0  0  0  0  0  0  0  0
   -4.2712    1.6594    1.8774 H   0  0  0  0  0  0  0  0  0  0  0  0
   -4.8235    1.9700   -0.5393 H   0  0  0  0  0  0  0  0  0  0  0  0
   -4.7774   -0.0024   -2.0694 H   0  0  0  0  0  0  0  0  0  0  0  0
   -6.0622   -0.1675   -0.8749 H   0  0  0  0  0  0  0  0  0  0  0  0
   -4.7836   -2.2999   -1.0973 H   0  0  0  0  0  0  0  0  0  0  0  0
   -4.2468   -2.6163    1.3181 H   0  0  0  0  0  0  0  0  0  0  0  0
   -5.7482   -1.7135    1.1290 H   0  0  0  0  0  0  0  0  0  0  0  0
   -2.6108   -1.3152   -1.7937 H   0  0  0  0  0  0  0  0  0  0  0  0
   -2.3908   -2.3757   -0.4114 H   0  0  0  0  0  0  0  0  0  0  0  0
   -2.4405    1.9290    0.1269 H   0  0  0  0  0  0  0  0  0  0  0  0
   -2.6315    1.2310   -1.4729 H   0  0  0  0  0  0  0  0  0  0  0  0
    2.1202   -1.3479    0.7335 H   0  0  0  0  0  0  0  0  0  0  0  0
    6.1189    0.2522   -1.3906 H   0  0  0  0  0  0  0  0  0  0  0  0
    8.0608   -1.1776   -1.1680 H   0  0  0  0  0  0  0  0  0  0  0  0
    7.9343   -3.3119    0.0900 H   0  0  0  0  0  0  0  0  0  0  0  0
    5.7917   -3.9914    1.1377 H   0  0  0  0  0  0  0  0  0  0  0  0
    3.8186   -2.5875    0.9497 H   0  0  0  0  0  0  0  0  0  0  0  0
  1  2  1  0
  2  3  2  0
  2  4  2  0
  2  5  1  0
  5  6  1  0
  6  7  1  0
  7  8  2  0
  7  9  1  0
 10  9  1  1
 10 11  1  0
 11 12  1  0
 12 13  1  0
 13 14  1  0
 14 15  1  0
 15 16  1  0
 16 17  1  0
 16 18  1  0
 14 19  1  0
  6 20  2  0
 20 21  1  0
 21 22  1  0
 22 23  2  0
 23 24  1  0
 24 25  2  0
 25 26  1  0
 26 27  2  0
 21 28  1  0
 28 29  2  0
 28  5  1  0
 18 10  1  0
 27 22  1  0
 19 10  1  0
 17 12  1  0
  1 30  1  0
  1 31  1  0
  1 32  1  0
  9 33  1  0
 11 34  1  0
 11 35  1  0
 12 36  1  1
 13 37  1  0
 13 38  1  0
 14 39  1  6
 15 40  1  0
 15 41  1  0
 16 42  1  6
 17 43  1  0
 17 44  1  0
 18 45  1  0
 18 46  1  0
 19 47  1  0
 19 48  1  0
 20 49  1  0
 23 50  1  0
 24 51  1  0
 25 52  1  0
 26 53  1  0
 27 54  1  0
M  END
>  <_SMILES>  (52) 
CS(=O)(=O)n1c(C(=O)N[C@]23C[C@H]4C[C@H](C[C@H](C4)C2)C3)cn(-c2ccccc2)c1=O

$$$$

     RDKit          3D

 51 54  0  0  0  0  0  0  0  0999 V2000
   -2.8181   -1.6409    2.6162 O   0  0  0  0  0  0  0  0  0  0  0  0
   -1.9461   -1.3839    1.7957 C   0  0  0  0  0  0  0  0  0  0  0  0
   -2.1533   -0.6600    0.6396 N   0  0  0  0  0  0  0  0  0  0  0  0
   -3.4082    0.0080    0.3486 C   0  0  1  0  0  0  0  0  0  0  0  0
   -3.4922    1.3498    1.0894 C   0  0  0  0  0  0  0  0  0  0  0  0
   -4.7737    2.1024    0.7456 C   0  0  0  0  0  0  0  0  0  0  0  0
   -4.9312    2.2853   -0.7625 C   0  0  2  0  0  0  0  0  0  0  0  0
   -6.1776    2.9109   -1.0423 O   0  0  0  0  0  0  0  0  0  0  0  0
   -4.8508    0.9515   -1.5023 C   0  0  0  0  0  0  0  0  0  0  0  0
   -3.5678    0.1997   -1.1636 C   0  0  0  0  0  0  0  0  0  0  0  0
   -0.5323   -1.8360    1.9933 C   0  0  0  0  0  0  0  0  0  0  0  0
   -0.1997   -2.5967    3.0953 C   0  0  0  0  0  0  0  0  0  0  0  0
    1.1272   -2.9838    3.2283 C   0  0  0  0  0  0  0  0  0  0  0  0
    1.5325   -3.9441    4.6100 Cl  0  0  0  0  0  0  0  0  0  0  0  0
    2.0772   -2.6021    2.2727 C   0  0  0  0  0  0  0  0  0  0  0  0
    3.7275   -3.1248    2.4052 Cl  0  0  0  0  0  0  0  0  0  0  0  0
    1.6532   -1.8149    1.1825 C   0  0  0  0  0  0  0  0  0  0  0  0
    2.5710   -1.3866    0.1970 N   0  0  0  0  0  0  0  0  0  0  0  0
    1.9651   -1.2399   -1.1349 C   0  0  0  0  0  0  0  0  0  0  0  0
    3.0799   -1.0793   -2.1719 C   0  0  0  0  0  0  0  0  0  0  0  0
    4.0531    0.0062   -1.7840 C   0  0  0  0  0  0  0  0  0  0  0  0
    4.8944    0.5699   -2.7531 C   0  0  0  0  0  0  0  0  0  0  0  0
    5.8206    1.5497   -2.3984 C   0  0  0  0  0  0  0  0  0  0  0  0
    5.9197    1.9681   -1.0740 C   0  0  0  0  0  0  0  0  0  0  0  0
    5.0953    1.4039   -0.1000 C   0  0  0  0  0  0  0  0  0  0  0  0
    4.1628    0.4107   -0.4397 C   0  0  0  0  0  0  0  0  0  0  0  0
    3.2595   -0.1576    0.6398 C   0  0  0  0  0  0  0  0  0  0  0  0
    0.3585   -1.4389    1.0440 N   0  0  0  0  0  0  0  0  0  0  0  0
   -1.3136   -0.4193    0.1179 H   0  0  0  0  0  0  0  0  0  0  0  0
   -4.2197   -0.6378    0.7092 H   0  0  0  0  0  0  0  0  0  0  0  0
   -3.4452    1.1886    2.1731 H   0  0  0  0  0  0  0  0  0  0  0  0
   -2.6245    1.9713    0.8318 H   0  0  0  0  0  0  0  0  0  0  0  0
   -5.6405    1.5621    1.1478 H   0  0  0  0  0  0  0  0  0  0  0  0
   -4.7798    3.0814    1.2397 H   0  0  0  0  0  0  0  0  0  0  0  0
   -4.1443    2.9533   -1.1317 H   0  0  0  0  0  0  0  0  0  0  0  0
   -6.8873    2.3411   -0.6990 H   0  0  0  0  0  0  0  0  0  0  0  0
   -4.9123    1.1236   -2.5836 H   0  0  0  0  0  0  0  0  0  0  0  0
   -5.7220    0.3328   -1.2506 H   0  0  0  0  0  0  0  0  0  0  0  0
   -2.7070    0.7514   -1.5638 H   0  0  0  0  0  0  0  0  0  0  0  0
   -3.5705   -0.7754   -1.6657 H   0  0  0  0  0  0  0  0  0  0  0  0
   -0.9531   -2.8808    3.8231 H   0  0  0  0  0  0  0  0  0  0  0  0
    1.2955   -0.3690   -1.1688 H   0  0  0  0  0  0  0  0  0  0  0  0
    1.3771   -2.1290   -1.3969 H   0  0  0  0  0  0  0  0  0  0  0  0
    3.6375   -2.0198   -2.2639 H   0  0  0  0  0  0  0  0  0  0  0  0
    2.6309   -0.8547   -3.1463 H   0  0  0  0  0  0  0  0  0  0  0  0
    4.8337    0.2451   -3.7893 H   0  0  0  0  0  0  0  0  0  0  0  0
    6.4686    1.9838   -3.1554 H   0  0  0  0  0  0  0  0  0  0  0  0
    6.6427    2.7316   -0.7986 H   0  0  0  0  0  0  0  0  0  0  0  0
    5.1874    1.7413    0.9302 H   0  0  0  0  0  0  0  0  0  0  0  0
    2.5269    0.6179    0.9039 H   0  0  0  0  0  0  0  0  0  0  0  0
    3.8729   -0.3659    1.5241 H   0  0  0  0  0  0  0  0  0  0  0  0
  1  2  2  0
  2  3  1  0
  3  4  1  0
  4  5  1  0
  5  6  1  0
  6  7  1  0
  7  8  1  0
  7  9  1  0
  9 10  1  0
  2 11  1  0
 11 12  1  0
 12 13  2  0
 13 14  1  0
 13 15  1  0
 15 16  1  0
 15 17  2  0
 17 18  1  0
 18 19  1  0
 19 20  1  0
 20 21  1  0
 21 22  2  0
 22 23  1  0
 23 24  2  0
 24 25  1  0
 25 26  2  0
 26 27  1  0
 17 28  1  0
 10  4  1  0
 28 11  2  0
 27 18  1  0
 26 21  1  0
  3 29  1  0
  4 30  1  1
  5 31  1  0
  5 32  1  0
  6 33  1  0
  6 34  1  0
  7 35  1  6
  8 36  1  0
  9 37  1  0
  9 38  1  0
 10 39  1  0
 10 40  1  0
 12 41  1  0
 19 42  1  0
 19 43  1  0
 20 44  1  0
 20 45  1  0
 22 46  1  0
 23 47  1  0
 24 48  1  0
 25 49  1  0
 27 50  1  0
 27 51  1  0
M  END
>  <_SMILES>  (53) 
O=C(N[C@H]1CC[C@H](O)CC1)c1cc(Cl)c(Cl)c(N2CCc3ccccc3C2)n1

$$$$

     RDKit          3D

 62 66  0  0  0  0  0  0  0  0999 V2000
   -0.7100    0.8417   -2.0177 C   0  0  0  0  0  0  0  0  0  0  0  0
   -1.3133    0.0885   -0.8855 C   0  0  0  0  0  0  0  0  0  0  0  0
   -0.6450   -0.7598    0.0453 C   0  0  0  0  0  0  0  0  0  0  0  0
    0.7992   -1.0539    0.1492 C   0  0  0  0  0  0  0  0  0  0  0  0
    1.2370   -2.1765    0.3798 O   0  0  0  0  0  0  0  0  0  0  0  0
    1.6041    0.0632   -0.0084 N   0  0  0  0  0  0  0  0  0  0  0  0
    3.0591    0.0713    0.1584 C   0  0  2  0  0  0  0  0  0  0  0  0
    3.5717    1.5078   -0.1359 C   0  0  0  0  0  0  0  0  0  0  0  0
    5.0974    1.5947    0.0271 C   0  0  1  0  0  0  0  0  0  0  0  0
    5.4732    1.2089    1.4665 C   0  0  0  0  0  0  0  0  0  0  0  0
    4.9995   -0.2218    1.7675 C   0  0  2  0  0  0  0  0  0  0  0  0
    5.6629   -1.1943    0.7774 C   0  0  0  0  0  0  0  0  0  0  0  0
    5.2918   -0.8156   -0.6666 C   0  0  2  0  0  0  0  0  0  0  0  0
    5.7649    0.6179   -0.9528 C   0  0  0  0  0  0  0  0  0  0  0  0
    3.7635   -0.8904   -0.8323 C   0  0  0  0  0  0  0  0  0  0  0  0
    3.4709   -0.2965    1.6049 C   0  0  0  0  0  0  0  0  0  0  0  0
   -1.5219   -1.3115    0.8932 N   0  0  0  0  0  0  0  0  0  0  0  0
   -2.7329   -0.8176    0.5530 N   0  0  0  0  0  0  0  0  0  0  0  0
   -3.9079   -1.2955    1.3188 C   0  0  0  0  0  0  0  0  0  0  0  0
   -3.4766   -1.8731    2.6952 C   0  0  0  0  0  0  0  0  0  0  0  0
   -4.9192   -0.1736    1.6274 C   0  0  0  0  0  0  0  0  0  0  0  0
   -4.6030   -2.4252    0.5381 C   0  0  0  0  0  0  0  0  0  0  0  0
   -2.6573    0.0356   -0.5337 C   0  0  0  0  0  0  0  0  0  0  0  0
   -3.7692    0.7178   -1.1861 C   0  0  0  0  0  0  0  0  0  0  0  0
   -4.4965    0.0819   -2.1981 C   0  0  0  0  0  0  0  0  0  0  0  0
   -5.5384    0.7509   -2.8427 C   0  0  0  0  0  0  0  0  0  0  0  0
   -5.8490    2.0635   -2.4897 C   0  0  0  0  0  0  0  0  0  0  0  0
   -5.1141    2.7117   -1.4980 C   0  0  0  0  0  0  0  0  0  0  0  0
   -4.0719    2.0438   -0.8526 C   0  0  0  0  0  0  0  0  0  0  0  0
   -1.4296    0.9955   -2.8280 H   0  0  0  0  0  0  0  0  0  0  0  0
    0.1413    0.3002   -2.4423 H   0  0  0  0  0  0  0  0  0  0  0  0
   -0.3643    1.8230   -1.6780 H   0  0  0  0  0  0  0  0  0  0  0  0
    1.1262    0.9512    0.0672 H   0  0  0  0  0  0  0  0  0  0  0  0
    3.2892    1.8077   -1.1540 H   0  0  0  0  0  0  0  0  0  0  0  0
    3.0885    2.2267    0.5394 H   0  0  0  0  0  0  0  0  0  0  0  0
    5.4345    2.6161   -0.1819 H   0  0  0  0  0  0  0  0  0  0  0  0
    6.5594    1.2804    1.6021 H   0  0  0  0  0  0  0  0  0  0  0  0
    5.0172    1.9117    2.1746 H   0  0  0  0  0  0  0  0  0  0  0  0
    5.2746   -0.4935    2.7928 H   0  0  0  0  0  0  0  0  0  0  0  0
    6.7525   -1.1687    0.9020 H   0  0  0  0  0  0  0  0  0  0  0  0
    5.3425   -2.2217    0.9896 H   0  0  0  0  0  0  0  0  0  0  0  0
    5.7727   -1.5090   -1.3656 H   0  0  0  0  0  0  0  0  0  0  0  0
    6.8560    0.6788   -0.8583 H   0  0  0  0  0  0  0  0  0  0  0  0
    5.5187    0.8950   -1.9852 H   0  0  0  0  0  0  0  0  0  0  0  0
    3.4860   -0.6381   -1.8643 H   0  0  0  0  0  0  0  0  0  0  0  0
    3.4429   -1.9262   -0.6738 H   0  0  0  0  0  0  0  0  0  0  0  0
    2.9859    0.3815    2.3194 H   0  0  0  0  0  0  0  0  0  0  0  0
    3.1318   -1.3069    1.8629 H   0  0  0  0  0  0  0  0  0  0  0  0
   -2.9416   -1.1229    3.2895 H   0  0  0  0  0  0  0  0  0  0  0  0
   -4.3453   -2.2008    3.2786 H   0  0  0  0  0  0  0  0  0  0  0  0
   -2.8221   -2.7459    2.5856 H   0  0  0  0  0  0  0  0  0  0  0  0
   -5.6609   -0.5015    2.3658 H   0  0  0  0  0  0  0  0  0  0  0  0
   -5.4917    0.1234    0.7451 H   0  0  0  0  0  0  0  0  0  0  0  0
   -4.4194    0.7135    2.0323 H   0  0  0  0  0  0  0  0  0  0  0  0
   -3.9054   -3.2408    0.3146 H   0  0  0  0  0  0  0  0  0  0  0  0
   -5.4372   -2.8463    1.1109 H   0  0  0  0  0  0  0  0  0  0  0  0
   -5.0089   -2.0736   -0.4143 H   0  0  0  0  0  0  0  0  0  0  0  0
   -4.2502   -0.9352   -2.4947 H   0  0  0  0  0  0  0  0  0  0  0  0
   -6.1029    0.2497   -3.6249 H   0  0  0  0  0  0  0  0  0  0  0  0
   -6.6594    2.5843   -2.9938 H   0  0  0  0  0  0  0  0  0  0  0  0
   -5.3501    3.7382   -1.2296 H   0  0  0  0  0  0  0  0  0  0  0  0
   -3.4998    2.5603   -0.0855 H   0  0  0  0  0  0  0  0  0  0  0  0
  1  2  1  0
  2  3  1  0
  3  4  1  0
  4  5  2  0
  4  6  1  0
  7  6  1  1
  7  8  1  0
  8  9  1  0
  9 10  1  0
 10 11  1  0
 11 12  1  0
 12 13  1  0
 13 14  1  0
 13 15  1  0
 11 16  1  0
  3 17  2  0
 17 18  1  0
 18 19  1  0
 19 20  1  0
 19 21  1  0
 19 22  1  0
 18 23  1  0
 23 24  1  0
 24 25  2  0
 25 26  1  0
 26 27  2  0
 27 28  1  0
 28 29  2  0
 23  2  2  0
 29 24  1  0
 15  7  1  0
 16  7  1  0
 14  9  1  0
  1 30  1  0
  1 31  1  0
  1 32  1  0
  6 33  1  0
  8 34  1  0
  8 35  1  0
  9 36  1  6
 10 37  1  0
 10 38  1  0
 11 39  1  1
 12 40  1  0
 12 41  1  0
 13 42  1  6
 14 43  1  0
 14 44  1  0
 15 45  1  0
 15 46  1  0
 16 47  1  0
 16 48  1  0
 20 49  1  0
 20 50  1  0
 20 51  1  0
 21 52  1  0
 21 53  1  0
 21 54  1  0
 22 55  1  0
 22 56  1  0
 22 57  1  0
 25 58  1  0
 26 59  1  0
 27 60  1  0
 28 61  1  0
 29 62  1  0
M  END
>  <_SMILES>  (54) 
Cc1c(C(=O)N[C@]23C[C@H]4C[C@H](C[C@H](C4)C2)C3)nn(C(C)(C)C)c1-c1ccccc1

$$$$

     RDKit          3D

 47 51  0  0  0  0  0  0  0  0999 V2000
    0.1563   -1.5410   -0.3357 O   0  0  0  0  0  0  0  0  0  0  0  0
    0.3366   -0.3299   -0.2618 C   0  0  0  0  0  0  0  0  0  0  0  0
   -0.7018    0.5808   -0.1515 N   0  0  0  0  0  0  0  0  0  0  0  0
   -2.1194    0.2221   -0.0494 C   0  0  2  0  0  0  0  0  0  0  0  0
   -2.4096   -0.6065    1.2265 C   0  0  0  0  0  0  0  0  0  0  0  0
   -3.9124   -0.9191    1.3388 C   0  0  1  0  0  0  0  0  0  0  0  0
   -4.7011    0.3976    1.4153 C   0  0  0  0  0  0  0  0  0  0  0  0
   -4.4502    1.2338    0.1506 C   0  0  2  0  0  0  0  0  0  0  0  0
   -4.9013    0.4382   -1.0838 C   0  0  0  0  0  0  0  0  0  0  0  0
   -4.1132   -0.8775   -1.1753 C   0  0  2  0  0  0  0  0  0  0  0  0
   -4.3605   -1.7073    0.0962 C   0  0  0  0  0  0  0  0  0  0  0  0
   -2.6107   -0.5645   -1.2912 C   0  0  0  0  0  0  0  0  0  0  0  0
   -2.9475    1.5341    0.0349 C   0  0  0  0  0  0  0  0  0  0  0  0
    1.6832    0.2685   -0.2679 C   0  0  0  0  0  0  0  0  0  0  0  0
    2.0373    1.5995   -0.3910 C   0  0  0  0  0  0  0  0  0  0  0  0
    3.4059    1.6230   -0.3515 N   0  0  0  0  0  0  0  0  0  0  0  0
    3.8656    0.3357   -0.2048 C   0  0  0  0  0  0  0  0  0  0  0  0
    5.2807   -0.0477   -0.1258 C   0  0  0  0  0  0  0  0  0  0  0  0
    6.3230    0.8913   -0.0926 C   0  0  0  0  0  0  0  0  0  0  0  0
    7.6572    0.4757   -0.0178 C   0  0  0  0  0  0  0  0  0  0  0  0
    7.9675   -0.8815    0.0259 C   0  0  0  0  0  0  0  0  0  0  0  0
    6.9458   -1.8260   -0.0037 C   0  0  0  0  0  0  0  0  0  0  0  0
    5.6141   -1.4105   -0.0781 C   0  0  0  0  0  0  0  0  0  0  0  0
    2.8368   -0.4906   -0.1573 N   0  0  0  0  0  0  0  0  0  0  0  0
   -0.4502    1.5321    0.0692 H   0  0  0  0  0  0  0  0  0  0  0  0
   -1.8485   -1.5483    1.2180 H   0  0  0  0  0  0  0  0  0  0  0  0
   -2.0747   -0.0581    2.1168 H   0  0  0  0  0  0  0  0  0  0  0  0
   -4.0986   -1.5135    2.2403 H   0  0  0  0  0  0  0  0  0  0  0  0
   -4.4002    0.9638    2.3053 H   0  0  0  0  0  0  0  0  0  0  0  0
   -5.7727    0.1873    1.5190 H   0  0  0  0  0  0  0  0  0  0  0  0
   -5.0118    2.1727    0.2108 H   0  0  0  0  0  0  0  0  0  0  0  0
   -5.9762    0.2282   -1.0225 H   0  0  0  0  0  0  0  0  0  0  0  0
   -4.7444    1.0333   -1.9918 H   0  0  0  0  0  0  0  0  0  0  0  0
   -4.4407   -1.4430   -2.0550 H   0  0  0  0  0  0  0  0  0  0  0  0
   -3.8135   -2.6562    0.0368 H   0  0  0  0  0  0  0  0  0  0  0  0
   -5.4253   -1.9583    0.1771 H   0  0  0  0  0  0  0  0  0  0  0  0
   -2.4185    0.0140   -2.2043 H   0  0  0  0  0  0  0  0  0  0  0  0
   -2.0625   -1.5066   -1.4048 H   0  0  0  0  0  0  0  0  0  0  0  0
   -2.7607    2.1553   -0.8514 H   0  0  0  0  0  0  0  0  0  0  0  0
   -2.6237    2.1297    0.8992 H   0  0  0  0  0  0  0  0  0  0  0  0
    1.4648    2.5059   -0.5188 H   0  0  0  0  0  0  0  0  0  0  0  0
    3.9855    2.4447   -0.4325 H   0  0  0  0  0  0  0  0  0  0  0  0
    6.1268    1.9581   -0.1185 H   0  0  0  0  0  0  0  0  0  0  0  0
    8.4557    1.2131    0.0081 H   0  0  0  0  0  0  0  0  0  0  0  0
    9.0039   -1.2037    0.0844 H   0  0  0  0  0  0  0  0  0  0  0  0
    7.1789   -2.8871    0.0314 H   0  0  0  0  0  0  0  0  0  0  0  0
    4.8244   -2.1614   -0.1000 H   0  0  0  0  0  0  0  0  0  0  0  0
  1  2  2  0
  2  3  1  0
  4  3  1  6
  4  5  1  0
  5  6  1  0
  6  7  1  0
  7  8  1  0
  8  9  1  0
  9 10  1  0
 10 11  1  0
 10 12  1  0
  8 13  1  0
  2 14  1  0
 14 15  2  0
 15 16  1  0
 16 17  1  0
 17 18  1  0
 18 19  2  0
 19 20  1  0
 20 21  2  0
 21 22  1  0
 22 23  2  0
 17 24  2  0
 12  4  1  0
 24 14  1  0
 13  4  1  0
 23 18  1  0
 11  6  1  0
  3 25  1  0
  5 26  1  0
  5 27  1  0
  6 28  1  1
  7 29  1  0
  7 30  1  0
  8 31  1  1
  9 32  1  0
  9 33  1  0
 10 34  1  6
 11 35  1  0
 11 36  1  0
 12 37  1  0
 12 38  1  0
 13 39  1  0
 13 40  1  0
 15 41  1  0
 16 42  1  0
 19 43  1  0
 20 44  1  0
 21 45  1  0
 22 46  1  0
 23 47  1  0
M  END
>  <_SMILES>  (55) 
O=C(N[C@]12C[C@H]3C[C@H](C[C@H](C3)C1)C2)c1c[nH]c(-c2ccccc2)n1

$$$$

     RDKit          3D

 47 51  0  0  0  0  0  0  0  0999 V2000
    0.2199    1.1508   -0.9170 O   0  0  0  0  0  0  0  0  0  0  0  0
    0.3611    0.1696   -0.1952 C   0  0  0  0  0  0  0  0  0  0  0  0
   -0.6898   -0.5511    0.3229 N   0  0  0  0  0  0  0  0  0  0  0  0
   -2.1083   -0.2581    0.0928 C   0  0  2  0  0  0  0  0  0  0  0  0
   -2.9561   -1.3115    0.8573 C   0  0  0  0  0  0  0  0  0  0  0  0
   -4.4594   -1.0617    0.6580 C   0  0  1  0  0  0  0  0  0  0  0  0
   -4.8108    0.3398    1.1807 C   0  0  0  0  0  0  0  0  0  0  0  0
   -4.0021    1.4015    0.4191 C   0  0  2  0  0  0  0  0  0  0  0  0
   -4.3292    1.3090   -1.0812 C   0  0  0  0  0  0  0  0  0  0  0  0
   -3.9807   -0.0912   -1.6141 C   0  0  2  0  0  0  0  0  0  0  0  0
   -4.7895   -1.1440   -0.8404 C   0  0  0  0  0  0  0  0  0  0  0  0
   -2.4778   -0.3518   -1.4088 C   0  0  0  0  0  0  0  0  0  0  0  0
   -2.4993    1.1427    0.6268 C   0  0  0  0  0  0  0  0  0  0  0  0
    1.6706   -0.3048    0.1669 C   0  0  0  0  0  0  0  0  0  0  0  0
    2.1320   -1.3482    0.9379 C   0  0  0  0  0  0  0  0  0  0  0  0
    3.5028   -1.3731    0.9706 N   0  0  0  0  0  0  0  0  0  0  0  0
    3.9141   -0.3581    0.2297 C   0  0  0  0  0  0  0  0  0  0  0  0
    5.3116    0.0125   -0.0276 C   0  0  0  0  0  0  0  0  0  0  0  0
    5.6714    1.1076   -0.8278 C   0  0  0  0  0  0  0  0  0  0  0  0
    7.0173    1.4228   -1.0451 C   0  0  0  0  0  0  0  0  0  0  0  0
    8.0208    0.6493   -0.4666 C   0  0  0  0  0  0  0  0  0  0  0  0
    7.6817   -0.4405    0.3299 C   0  0  0  0  0  0  0  0  0  0  0  0
    6.3376   -0.7546    0.5464 C   0  0  0  0  0  0  0  0  0  0  0  0
    2.8224    0.3089   -0.2714 N   0  0  0  0  0  0  0  0  0  0  0  0
   -0.4737   -1.3447    0.9078 H   0  0  0  0  0  0  0  0  0  0  0  0
   -2.7157   -1.2835    1.9286 H   0  0  0  0  0  0  0  0  0  0  0  0
   -2.7008   -2.3228    0.5131 H   0  0  0  0  0  0  0  0  0  0  0  0
   -5.0358   -1.8157    1.2055 H   0  0  0  0  0  0  0  0  0  0  0  0
   -4.5968    0.4044    2.2546 H   0  0  0  0  0  0  0  0  0  0  0  0
   -5.8847    0.5272    1.0583 H   0  0  0  0  0  0  0  0  0  0  0  0
   -4.2593    2.3991    0.7925 H   0  0  0  0  0  0  0  0  0  0  0  0
   -3.7676    2.0714   -1.6349 H   0  0  0  0  0  0  0  0  0  0  0  0
   -5.3939    1.5166   -1.2448 H   0  0  0  0  0  0  0  0  0  0  0  0
   -4.2227   -0.1512   -2.6812 H   0  0  0  0  0  0  0  0  0  0  0  0
   -5.8630   -0.9819   -0.9973 H   0  0  0  0  0  0  0  0  0  0  0  0
   -4.5602   -2.1471   -1.2207 H   0  0  0  0  0  0  0  0  0  0  0  0
   -2.2133   -1.3425   -1.8012 H   0  0  0  0  0  0  0  0  0  0  0  0
   -1.9072    0.3740   -1.9999 H   0  0  0  0  0  0  0  0  0  0  0  0
   -2.2501    1.2229    1.6931 H   0  0  0  0  0  0  0  0  0  0  0  0
   -1.9296    1.9298    0.1192 H   0  0  0  0  0  0  0  0  0  0  0  0
    1.5622   -2.0922    1.4781 H   0  0  0  0  0  0  0  0  0  0  0  0
    4.9223    1.7372   -1.2979 H   0  0  0  0  0  0  0  0  0  0  0  0
    7.2816    2.2743   -1.6674 H   0  0  0  0  0  0  0  0  0  0  0  0
    9.0658    0.8953   -0.6361 H   0  0  0  0  0  0  0  0  0  0  0  0
    8.4591   -1.0487    0.7847 H   0  0  0  0  0  0  0  0  0  0  0  0
    6.0876   -1.6105    1.1721 H   0  0  0  0  0  0  0  0  0  0  0  0
    2.8352    1.1228   -0.8689 H   0  0  0  0  0  0  0  0  0  0  0  0
  1  2  2  0
  2  3  1  0
  4  3  1  6
  4  5  1  0
  5  6  1  0
  6  7  1  0
  7  8  1  0
  8  9  1  0
  9 10  1  0
 10 11  1  0
 10 12  1  0
  8 13  1  0
  2 14  1  0
 14 15  2  0
 15 16  1  0
 16 17  2  0
 17 18  1  0
 18 19  2  0
 19 20  1  0
 20 21  2  0
 21 22  1  0
 22 23  2  0
 17 24  1  0
 12  4  1  0
 24 14  1  0
 13  4  1  0
 23 18  1  0
 11  6  1  0
  3 25  1  0
  5 26  1  0
  5 27  1  0
  6 28  1  1
  7 29  1  0
  7 30  1  0
  8 31  1  1
  9 32  1  0
  9 33  1  0
 10 34  1  6
 11 35  1  0
 11 36  1  0
 12 37  1  0
 12 38  1  0
 13 39  1  0
 13 40  1  0
 15 41  1  0
 19 42  1  0
 20 43  1  0
 21 44  1  0
 22 45  1  0
 23 46  1  0
 24 47  1  0
M  END
>  <_SMILES>  (56) 
O=C(N[C@]12C[C@H]3C[C@H](C[C@H](C3)C1)C2)c1cnc(-c2ccccc2)[nH]1

$$$$

     RDKit          3D

 48 52  0  0  0  0  0  0  0  0999 V2000
   -0.6704   -1.7749   -1.9659 O   0  0  0  0  0  0  0  0  0  0  0  0
    0.0236   -1.0571   -1.2566 C   0  0  0  0  0  0  0  0  0  0  0  0
   -0.4994   -0.1565   -0.3398 N   0  0  0  0  0  0  0  0  0  0  0  0
   -1.9447    0.0518   -0.1275 C   0  0  2  0  0  0  0  0  0  0  0  0
   -2.6340    0.6115   -1.3959 C   0  0  0  0  0  0  0  0  0  0  0  0
   -4.1262    0.8765   -1.1276 C   0  0  1  0  0  0  0  0  0  0  0  0
   -4.8065   -0.4366   -0.7042 C   0  0  0  0  0  0  0  0  0  0  0  0
   -4.1550   -0.9819    0.5783 C   0  0  2  0  0  0  0  0  0  0  0  0
   -4.2938    0.0588    1.7000 C   0  0  0  0  0  0  0  0  0  0  0  0
   -3.6068    1.3690    1.2860 C   0  0  2  0  0  0  0  0  0  0  0  0
   -4.2640    1.9063    0.0050 C   0  0  0  0  0  0  0  0  0  0  0  0
   -2.1199    1.0935    1.0122 C   0  0  0  0  0  0  0  0  0  0  0  0
   -2.6625   -1.2496    0.3133 C   0  0  0  0  0  0  0  0  0  0  0  0
    1.4636   -1.0058   -1.2548 C   0  0  0  0  0  0  0  0  0  0  0  0
    2.2727   -1.5587   -2.2147 C   0  0  0  0  0  0  0  0  0  0  0  0
    3.5731   -1.3165   -1.8352 N   0  0  0  0  0  0  0  0  0  0  0  0
    3.6202   -0.6646   -0.6655 C   0  0  0  0  0  0  0  0  0  0  0  0
    4.8973   -0.2302    0.1273 C   0  0  0  0  0  0  0  0  0  0  0  0
    6.1195   -0.8550   -0.1335 C   0  0  0  0  0  0  0  0  0  0  0  0
    7.2551   -0.4655    0.5767 C   0  0  0  0  0  0  0  0  0  0  0  0
    7.1677    0.5413    1.5379 C   0  0  0  0  0  0  0  0  0  0  0  0
    5.9456    1.1628    1.7941 C   0  0  0  0  0  0  0  0  0  0  0  0
    4.8044    0.7786    1.0897 C   0  0  0  0  0  0  0  0  0  0  0  0
    2.3410   -0.4703   -0.3106 N   0  0  0  0  0  0  0  0  0  0  0  0
    0.0826    0.6145   -0.0458 H   0  0  0  0  0  0  0  0  0  0  0  0
   -2.5403   -0.0887   -2.2343 H   0  0  0  0  0  0  0  0  0  0  0  0
   -2.1412    1.5393   -1.7148 H   0  0  0  0  0  0  0  0  0  0  0  0
   -4.6010    1.2623   -2.0366 H   0  0  0  0  0  0  0  0  0  0  0  0
   -4.7259   -1.1770   -1.5096 H   0  0  0  0  0  0  0  0  0  0  0  0
   -5.8768   -0.2652   -0.5355 H   0  0  0  0  0  0  0  0  0  0  0  0
   -4.6491   -1.9133    0.8765 H   0  0  0  0  0  0  0  0  0  0  0  0
   -5.3542    0.2421    1.9126 H   0  0  0  0  0  0  0  0  0  0  0  0
   -3.8452   -0.3244    2.6247 H   0  0  0  0  0  0  0  0  0  0  0  0
   -3.7047    2.1076    2.0895 H   0  0  0  0  0  0  0  0  0  0  0  0
   -3.7938    2.8526   -0.2895 H   0  0  0  0  0  0  0  0  0  0  0  0
   -5.3237    2.1212    0.1892 H   0  0  0  0  0  0  0  0  0  0  0  0
   -1.6156    2.0324    0.7464 H   0  0  0  0  0  0  0  0  0  0  0  0
   -1.6335    0.7344    1.9291 H   0  0  0  0  0  0  0  0  0  0  0  0
   -2.5764   -2.0288   -0.4521 H   0  0  0  0  0  0  0  0  0  0  0  0
   -2.1884   -1.6539    1.2172 H   0  0  0  0  0  0  0  0  0  0  0  0
    2.0838   -2.0965   -3.1292 H   0  0  0  0  0  0  0  0  0  0  0  0
    4.3980   -1.5891   -2.3633 H   0  0  0  0  0  0  0  0  0  0  0  0
    6.2118   -1.6512   -0.8663 H   0  0  0  0  0  0  0  0  0  0  0  0
    8.2136   -0.9464    0.3878 H   0  0  0  0  0  0  0  0  0  0  0  0
    8.0566    0.8431    2.0900 H   0  0  0  0  0  0  0  0  0  0  0  0
    5.8907    1.9503    2.5439 H   0  0  0  0  0  0  0  0  0  0  0  0
    3.8688    1.2884    1.2979 H   0  0  0  0  0  0  0  0  0  0  0  0
    2.0635   -0.0804    0.5834 H   0  0  0  0  0  0  0  0  0  0  0  0
  1  2  2  0
  2  3  1  0
  4  3  1  6
  4  5  1  0
  5  6  1  0
  6  7  1  0
  7  8  1  0
  8  9  1  0
  9 10  1  0
 10 11  1  0
 10 12  1  0
  8 13  1  0
  2 14  1  0
 14 15  2  0
 15 16  1  0
 16 17  1  0
 17 18  1  0
 18 19  2  0
 19 20  1  0
 20 21  2  0
 21 22  1  0
 22 23  2  0
 17 24  2  0
 12  4  1  0
 24 14  1  0
 13  4  1  0
 23 18  1  0
 11  6  1  0
  3 25  1  0
  5 26  1  0
  5 27  1  0
  6 28  1  6
  7 29  1  0
  7 30  1  0
  8 31  1  1
  9 32  1  0
  9 33  1  0
 10 34  1  1
 11 35  1  0
 11 36  1  0
 12 37  1  0
 12 38  1  0
 13 39  1  0
 13 40  1  0
 15 41  1  0
 16 42  1  0
 19 43  1  0
 20 44  1  0
 21 45  1  0
 22 46  1  0
 23 47  1  0
 24 48  1  0
M  CHG  1  24   1
M  END
>  <_SMILES>  (57) 
O=C(N[C@]12C[C@H]3C[C@H](C[C@H](C3)C1)C2)c1c[nH]c(-c2ccccc2)[nH+]1

$$$$

     RDKit          3D

 60 65  0  0  0  0  0  0  0  0999 V2000
   -1.4906    2.7809    1.7443 C   0  0  0  0  0  0  0  0  0  0  0  0
   -1.6543    1.5002    1.0042 C   0  0  0  0  0  0  0  0  0  0  0  0
   -0.6082    0.6920    0.4876 C   0  0  0  0  0  0  0  0  0  0  0  0
    0.8489    0.9181    0.5871 C   0  0  0  0  0  0  0  0  0  0  0  0
    1.3359    1.8826    1.1660 O   0  0  0  0  0  0  0  0  0  0  0  0
    1.5818   -0.0688   -0.0359 N   0  0  0  0  0  0  0  0  0  0  0  0
    3.0373   -0.1530   -0.0998 C   0  0  2  0  0  0  0  0  0  0  0  0
    3.4220   -1.4258   -0.9002 C   0  0  0  0  0  0  0  0  0  0  0  0
    4.9486   -1.5721   -1.0021 C   0  0  1  0  0  0  0  0  0  0  0  0
    5.5267   -0.3382   -1.7127 C   0  0  0  0  0  0  0  0  0  0  0  0
    5.1790    0.9332   -0.9226 C   0  0  2  0  0  0  0  0  0  0  0  0
    5.7674    0.8268    0.4947 C   0  0  0  0  0  0  0  0  0  0  0  0
    5.1937   -0.4053    1.2150 C   0  0  2  0  0  0  0  0  0  0  0  0
    5.5412   -1.6691    0.4125 C   0  0  0  0  0  0  0  0  0  0  0  0
    3.6639   -0.2687    1.3116 C   0  0  0  0  0  0  0  0  0  0  0  0
    3.6491    1.0702   -0.8266 C   0  0  0  0  0  0  0  0  0  0  0  0
   -1.0970   -0.3685   -0.1762 N   0  0  0  0  0  0  0  0  0  0  0  0
   -2.4470   -0.3178   -0.0107 N   0  0  0  0  0  0  0  0  0  0  0  0
   -3.2277   -1.4167   -0.5005 C   0  0  0  0  0  0  0  0  0  0  0  0
   -2.6278   -2.3292   -1.3920 C   0  0  0  0  0  0  0  0  0  0  0  0
   -3.3489   -3.4143   -1.8972 C   0  0  0  0  0  0  0  0  0  0  0  0
   -4.6663   -3.6005   -1.5056 C   0  0  0  0  0  0  0  0  0  0  0  0
   -5.3595   -4.6403   -1.9864 F   0  0  0  0  0  0  0  0  0  0  0  0
   -5.2719   -2.7269   -0.6123 C   0  0  0  0  0  0  0  0  0  0  0  0
   -4.5539   -1.6379   -0.1041 C   0  0  0  0  0  0  0  0  0  0  0  0
   -2.8317    0.8594    0.6330 C   0  0  0  0  0  0  0  0  0  0  0  0
   -4.1983    1.3533    0.8000 C   0  0  0  0  0  0  0  0  0  0  0  0
   -4.9199    1.8130   -0.3116 C   0  0  0  0  0  0  0  0  0  0  0  0
   -6.2171    2.3049   -0.1490 C   0  0  0  0  0  0  0  0  0  0  0  0
   -6.7859    2.3450    1.1208 C   0  0  0  0  0  0  0  0  0  0  0  0
   -8.0301    2.8171    1.2686 F   0  0  0  0  0  0  0  0  0  0  0  0
   -6.0858    1.9052    2.2351 C   0  0  0  0  0  0  0  0  0  0  0  0
   -4.7953    1.4160    2.0681 C   0  0  0  0  0  0  0  0  0  0  0  0
   -4.1282    0.9861    3.1495 F   0  0  0  0  0  0  0  0  0  0  0  0
   -0.9014    3.4910    1.1550 H   0  0  0  0  0  0  0  0  0  0  0  0
   -0.9779    2.6065    2.6957 H   0  0  0  0  0  0  0  0  0  0  0  0
   -2.4502    3.2569    1.9648 H   0  0  0  0  0  0  0  0  0  0  0  0
    1.0130   -0.8029   -0.4515 H   0  0  0  0  0  0  0  0  0  0  0  0
    2.9965   -2.3170   -0.4194 H   0  0  0  0  0  0  0  0  0  0  0  0
    2.9860   -1.3844   -1.9074 H   0  0  0  0  0  0  0  0  0  0  0  0
    5.1969   -2.4758   -1.5698 H   0  0  0  0  0  0  0  0  0  0  0  0
    5.1244   -0.2688   -2.7308 H   0  0  0  0  0  0  0  0  0  0  0  0
    6.6153   -0.4354   -1.8064 H   0  0  0  0  0  0  0  0  0  0  0  0
    5.5964    1.8094   -1.4311 H   0  0  0  0  0  0  0  0  0  0  0  0
    6.8606    0.7527    0.4408 H   0  0  0  0  0  0  0  0  0  0  0  0
    5.5377    1.7351    1.0651 H   0  0  0  0  0  0  0  0  0  0  0  0
    5.6217   -0.4778    2.2211 H   0  0  0  0  0  0  0  0  0  0  0  0
    6.6300   -1.7892    0.3553 H   0  0  0  0  0  0  0  0  0  0  0  0
    5.1493   -2.5572    0.9233 H   0  0  0  0  0  0  0  0  0  0  0  0
    3.2443   -1.1342    1.8412 H   0  0  0  0  0  0  0  0  0  0  0  0
    3.4208    0.6103    1.9204 H   0  0  0  0  0  0  0  0  0  0  0  0
    3.2188    1.1660   -1.8321 H   0  0  0  0  0  0  0  0  0  0  0  0
    3.4064    2.0005   -0.2995 H   0  0  0  0  0  0  0  0  0  0  0  0
   -1.5966   -2.2014   -1.7170 H   0  0  0  0  0  0  0  0  0  0  0  0
   -2.8888   -4.1115   -2.5901 H   0  0  0  0  0  0  0  0  0  0  0  0
   -6.2980   -2.9047   -0.3041 H   0  0  0  0  0  0  0  0  0  0  0  0
   -5.0568   -1.0199    0.6289 H   0  0  0  0  0  0  0  0  0  0  0  0
   -4.4764    1.7956   -1.3054 H   0  0  0  0  0  0  0  0  0  0  0  0
   -6.7854    2.6617   -1.0032 H   0  0  0  0  0  0  0  0  0  0  0  0
   -6.5366    1.9436    3.2198 H   0  0  0  0  0  0  0  0  0  0  0  0
  1  2  1  0
  2  3  1  0
  3  4  1  0
  4  5  2  0
  4  6  1  0
  7  6  1  1
  7  8  1  0
  8  9  1  0
  9 10  1  0
 10 11  1  0
 11 12  1  0
 12 13  1  0
 13 14  1  0
 13 15  1  0
 11 16  1  0
  3 17  2  0
 17 18  1  0
 18 19  1  0
 19 20  1  0
 20 21  2  0
 21 22  1  0
 22 23  1  0
 22 24  2  0
 24 25  1  0
 18 26  1  0
 26 27  1  0
 27 28  1  0
 28 29  2  0
 29 30  1  0
 30 31  1  0
 30 32  2  0
 32 33  1  0
 33 34  1  0
 26  2  2  0
 33 27  2  0
 15  7  1  0
 25 19  2  0
 16  7  1  0
 14  9  1  0
  1 35  1  0
  1 36  1  0
  1 37  1  0
  6 38  1  0
  8 39  1  0
  8 40  1  0
  9 41  1  6
 10 42  1  0
 10 43  1  0
 11 44  1  6
 12 45  1  0
 12 46  1  0
 13 47  1  1
 14 48  1  0
 14 49  1  0
 15 50  1  0
 15 51  1  0
 16 52  1  0
 16 53  1  0
 20 54  1  0
 21 55  1  0
 24 56  1  0
 25 57  1  0
 28 58  1  0
 29 59  1  0
 32 60  1  0
M  END
>  <_SMILES>  (58) 
Cc1c(C(=O)N[C@]23C[C@H]4C[C@H](C[C@H](C4)C2)C3)nn(-c2ccc(F)cc2)c1-c1ccc(F)cc1F

$$$$

     RDKit          3D

 60 65  0  0  0  0  0  0  0  0999 V2000
    1.1740    3.8073    0.3749 C   0  0  0  0  0  0  0  0  0  0  0  0
    1.4681    2.3535    0.2829 C   0  0  0  0  0  0  0  0  0  0  0  0
    0.5126    1.3016    0.1857 C   0  0  0  0  0  0  0  0  0  0  0  0
   -0.9612    1.4085    0.1646 C   0  0  0  0  0  0  0  0  0  0  0  0
   -1.5570    2.4777    0.2403 O   0  0  0  0  0  0  0  0  0  0  0  0
   -1.5766    0.1802    0.0534 N   0  0  0  0  0  0  0  0  0  0  0  0
   -3.0132   -0.0679    0.0155 C   0  0  2  0  0  0  0  0  0  0  0  0
   -3.6802    0.6239   -1.1991 C   0  0  0  0  0  0  0  0  0  0  0  0
   -5.1856    0.3075   -1.2428 C   0  0  1  0  0  0  0  0  0  0  0  0
   -5.3821   -1.2116   -1.3674 C   0  0  0  0  0  0  0  0  0  0  0  0
   -4.7470   -1.9233   -0.1625 C   0  0  2  0  0  0  0  0  0  0  0  0
   -5.4103   -1.4246    1.1310 C   0  0  0  0  0  0  0  0  0  0  0  0
   -5.2140    0.0933    1.2699 C   0  0  2  0  0  0  0  0  0  0  0  0
   -5.8441    0.7994    0.0573 C   0  0  0  0  0  0  0  0  0  0  0  0
   -3.7086    0.4096    1.3143 C   0  0  0  0  0  0  0  0  0  0  0  0
   -3.2459   -1.5964   -0.1178 C   0  0  0  0  0  0  0  0  0  0  0  0
    1.1215    0.1024    0.1087 N   0  0  0  0  0  0  0  0  0  0  0  0
    2.4408    0.3805    0.1528 N   0  0  0  0  0  0  0  0  0  0  0  0
    3.3681   -0.7476    0.0689 C   0  0  2  0  0  0  0  0  0  0  0  0
    4.1095   -1.0178    1.4028 C   0  0  0  0  0  0  0  0  0  0  0  0
    5.6110   -1.2762    1.2448 C   0  0  0  0  0  0  0  0  0  0  0  0
    5.8787   -2.2010    0.0951 C   0  0  2  0  0  0  0  0  0  0  0  0
    6.6781   -1.7426   -1.0971 C   0  0  0  0  0  0  0  0  0  0  0  0
    5.1821   -1.8799   -1.2016 C   0  0  2  0  0  0  0  0  0  0  0  0
    4.2759   -0.6816   -1.1733 C   0  0  0  0  0  0  0  0  0  0  0  0
    2.7043    1.7242    0.2769 C   0  0  0  0  0  0  0  0  0  0  0  0
    4.0638    2.3186    0.3637 C   0  0  0  0  0  0  0  0  0  0  0  0
    0.6519    4.0319    1.3105 H   0  0  0  0  0  0  0  0  0  0  0  0
    2.0864    4.4100    0.3456 H   0  0  0  0  0  0  0  0  0  0  0  0
    0.5438    4.1254   -0.4619 H   0  0  0  0  0  0  0  0  0  0  0  0
   -0.9213   -0.5981    0.0123 H   0  0  0  0  0  0  0  0  0  0  0  0
   -3.2020    0.2942   -2.1309 H   0  0  0  0  0  0  0  0  0  0  0  0
   -3.5447    1.7110   -1.1532 H   0  0  0  0  0  0  0  0  0  0  0  0
   -5.6433    0.8104   -2.1021 H   0  0  0  0  0  0  0  0  0  0  0  0
   -6.4519   -1.4481   -1.4213 H   0  0  0  0  0  0  0  0  0  0  0  0
   -4.9288   -1.5732   -2.2985 H   0  0  0  0  0  0  0  0  0  0  0  0
   -4.8875   -3.0059   -0.2564 H   0  0  0  0  0  0  0  0  0  0  0  0
   -4.9772   -1.9396    1.9973 H   0  0  0  0  0  0  0  0  0  0  0  0
   -6.4805   -1.6648    1.1201 H   0  0  0  0  0  0  0  0  0  0  0  0
   -5.6918    0.4443    2.1914 H   0  0  0  0  0  0  0  0  0  0  0  0
   -5.7227    1.8856    0.1513 H   0  0  0  0  0  0  0  0  0  0  0  0
   -6.9226    0.6011    0.0283 H   0  0  0  0  0  0  0  0  0  0  0  0
   -3.5737    1.4886    1.4559 H   0  0  0  0  0  0  0  0  0  0  0  0
   -3.2509   -0.0739    2.1873 H   0  0  0  0  0  0  0  0  0  0  0  0
   -2.7774   -2.1243    0.7238 H   0  0  0  0  0  0  0  0  0  0  0  0
   -2.7575   -1.9748   -1.0259 H   0  0  0  0  0  0  0  0  0  0  0  0
    2.7242   -1.6279   -0.0875 H   0  0  0  0  0  0  0  0  0  0  0  0
    3.9582   -0.2089    2.1273 H   0  0  0  0  0  0  0  0  0  0  0  0
    3.6551   -1.9065    1.8625 H   0  0  0  0  0  0  0  0  0  0  0  0
    6.1317   -0.3229    1.0958 H   0  0  0  0  0  0  0  0  0  0  0  0
    6.0123   -1.7071    2.1690 H   0  0  0  0  0  0  0  0  0  0  0  0
    5.9321   -3.2417    0.3927 H   0  0  0  0  0  0  0  0  0  0  0  0
    7.1138   -0.7500   -1.0882 H   0  0  0  0  0  0  0  0  0  0  0  0
    7.2897   -2.4791   -1.6079 H   0  0  0  0  0  0  0  0  0  0  0  0
    4.7712   -2.7072   -1.7686 H   0  0  0  0  0  0  0  0  0  0  0  0
    4.8720    0.2366   -1.1832 H   0  0  0  0  0  0  0  0  0  0  0  0
    3.6670   -0.6613   -2.0853 H   0  0  0  0  0  0  0  0  0  0  0  0
    4.4284    2.5745   -0.6360 H   0  0  0  0  0  0  0  0  0  0  0  0
    4.0494    3.2355    0.9618 H   0  0  0  0  0  0  0  0  0  0  0  0
    4.7842    1.6484    0.8353 H   0  0  0  0  0  0  0  0  0  0  0  0
  1  2  1  0
  2  3  1  0
  3  4  1  0
  4  5  2  0
  4  6  1  0
  7  6  1  1
  7  8  1  0
  8  9  1  0
  9 10  1  0
 10 11  1  0
 11 12  1  0
 12 13  1  0
 13 14  1  0
 13 15  1  0
 11 16  1  0
  3 17  2  0
 17 18  1  0
 18 19  1  0
 19 20  1  0
 20 21  1  0
 21 22  1  0
 22 23  1  0
 23 24  1  0
 24 25  1  0
 18 26  1  0
 26 27  1  0
 26  2  2  0
 15  7  1  0
 25 19  1  0
 16  7  1  0
 24 22  1  0
 14  9  1  0
  1 28  1  0
  1 29  1  0
  1 30  1  0
  6 31  1  0
  8 32  1  0
  8 33  1  0
  9 34  1  6
 10 35  1  0
 10 36  1  0
 11 37  1  6
 12 38  1  0
 12 39  1  0
 13 40  1  1
 14 41  1  0
 14 42  1  0
 15 43  1  0
 15 44  1  0
 16 45  1  0
 16 46  1  0
 19 47  1  6
 20 48  1  0
 20 49  1  0
 21 50  1  0
 21 51  1  0
 22 52  1  1
 23 53  1  0
 23 54  1  0
 24 55  1  6
 25 56  1  0
 25 57  1  0
 27 58  1  0
 27 59  1  0
 27 60  1  0
M  END
>  <_SMILES>  (59) 
Cc1c(C(=O)N[C@]23C[C@H]4C[C@H](C[C@H](C4)C2)C3)nn([C@@H]2CC[C@@H]3C[C@@H]3C2)c1C

$$$$

     RDKit          3D

 60 65  0  0  0  0  0  0  0  0999 V2000
    0.3581   -0.9370   -3.1454 C   0  0  0  0  0  0  0  0  0  0  0  0
    1.2521   -0.6354   -1.9976 C   0  0  0  0  0  0  0  0  0  0  0  0
    0.9097   -0.6182   -0.6067 C   0  0  0  0  0  0  0  0  0  0  0  0
   -0.4116   -0.8391    0.0159 C   0  0  0  0  0  0  0  0  0  0  0  0
   -0.5683   -1.5090    1.0316 O   0  0  0  0  0  0  0  0  0  0  0  0
   -1.4460   -0.1929   -0.6427 N   0  0  0  0  0  0  0  0  0  0  0  0
   -2.8318   -0.1467   -0.1715 C   0  0  2  0  0  0  0  0  0  0  0  0
   -3.6693    0.6488   -1.2100 C   0  0  0  0  0  0  0  0  0  0  0  0
   -5.1406    0.7455   -0.7766 C   0  0  1  0  0  0  0  0  0  0  0  0
   -5.7218   -0.6707   -0.6489 C   0  0  0  0  0  0  0  0  0  0  0  0
   -4.9244   -1.4719    0.3916 C   0  0  2  0  0  0  0  0  0  0  0  0
   -4.9993   -0.7556    1.7509 C   0  0  0  0  0  0  0  0  0  0  0  0
   -4.4196    0.6644    1.6343 C   0  0  2  0  0  0  0  0  0  0  0  0
   -5.2193    1.4533    0.5853 C   0  0  0  0  0  0  0  0  0  0  0  0
   -2.9480    0.5770    1.1922 C   0  0  0  0  0  0  0  0  0  0  0  0
   -3.4534   -1.5616   -0.0524 C   0  0  0  0  0  0  0  0  0  0  0  0
    1.9875   -0.3406    0.1428 N   0  0  0  0  0  0  0  0  0  0  0  0
    2.9991   -0.2034   -0.7294 N   0  0  0  0  0  0  0  0  0  0  0  0
    4.3447    0.0856   -0.2211 C   0  0  1  0  0  0  0  0  0  0  0  0
    4.4847    1.5889    0.1182 C   0  0  0  0  0  0  0  0  0  0  0  0
    5.3992    1.8501    1.3146 C   0  0  0  0  0  0  0  0  0  0  0  0
    4.8623    1.1229    2.5084 C   0  0  2  0  0  0  0  0  0  0  0  0
    5.6350    0.0345    3.2032 C   0  0  0  0  0  0  0  0  0  0  0  0
    4.4976   -0.3204    2.2786 C   0  0  2  0  0  0  0  0  0  0  0  0
    4.7651   -0.8811    0.9104 C   0  0  0  0  0  0  0  0  0  0  0  0
    2.6034   -0.3287   -2.0393 C   0  0  0  0  0  0  0  0  0  0  0  0
    3.5270   -0.1705   -3.1925 C   0  0  0  0  0  0  0  0  0  0  0  0
   -0.1235   -0.0213   -3.5023 H   0  0  0  0  0  0  0  0  0  0  0  0
    0.9160   -1.3779   -3.9775 H   0  0  0  0  0  0  0  0  0  0  0  0
   -0.4202   -1.6531   -2.8637 H   0  0  0  0  0  0  0  0  0  0  0  0
   -1.1547    0.5256   -1.2922 H   0  0  0  0  0  0  0  0  0  0  0  0
   -3.2558    1.6588   -1.3345 H   0  0  0  0  0  0  0  0  0  0  0  0
   -3.6031    0.1683   -2.1955 H   0  0  0  0  0  0  0  0  0  0  0  0
   -5.7095    1.3129   -1.5215 H   0  0  0  0  0  0  0  0  0  0  0  0
   -5.6881   -1.1793   -1.6202 H   0  0  0  0  0  0  0  0  0  0  0  0
   -6.7769   -0.6180   -0.3535 H   0  0  0  0  0  0  0  0  0  0  0  0
   -5.3443   -2.4800    0.4816 H   0  0  0  0  0  0  0  0  0  0  0  0
   -4.4448   -1.3259    2.5063 H   0  0  0  0  0  0  0  0  0  0  0  0
   -6.0413   -0.7070    2.0905 H   0  0  0  0  0  0  0  0  0  0  0  0
   -4.4835    1.1704    2.6041 H   0  0  0  0  0  0  0  0  0  0  0  0
   -6.2659    1.5426    0.9012 H   0  0  0  0  0  0  0  0  0  0  0  0
   -4.8240    2.4731    0.5015 H   0  0  0  0  0  0  0  0  0  0  0  0
   -2.5187    1.5851    1.1224 H   0  0  0  0  0  0  0  0  0  0  0  0
   -2.3724    0.0517    1.9637 H   0  0  0  0  0  0  0  0  0  0  0  0
   -2.9047   -2.1753    0.6708 H   0  0  0  0  0  0  0  0  0  0  0  0
   -3.3841   -2.0860   -1.0145 H   0  0  0  0  0  0  0  0  0  0  0  0
    5.0221   -0.1319   -1.0564 H   0  0  0  0  0  0  0  0  0  0  0  0
    3.5001    2.0256    0.3340 H   0  0  0  0  0  0  0  0  0  0  0  0
    4.8651    2.1250   -0.7600 H   0  0  0  0  0  0  0  0  0  0  0  0
    5.4404    2.9244    1.5253 H   0  0  0  0  0  0  0  0  0  0  0  0
    6.4218    1.5297    1.0821 H   0  0  0  0  0  0  0  0  0  0  0  0
    4.1656    1.7207    3.0855 H   0  0  0  0  0  0  0  0  0  0  0  0
    6.6524   -0.1655    2.8885 H   0  0  0  0  0  0  0  0  0  0  0  0
    5.4747   -0.0979    4.2680 H   0  0  0  0  0  0  0  0  0  0  0  0
    3.5587   -0.6673    2.6963 H   0  0  0  0  0  0  0  0  0  0  0  0
    4.2791   -1.8587    0.8054 H   0  0  0  0  0  0  0  0  0  0  0  0
    5.8421   -1.0723    0.8121 H   0  0  0  0  0  0  0  0  0  0  0  0
    2.9806   -0.1436   -4.1402 H   0  0  0  0  0  0  0  0  0  0  0  0
    4.2335   -1.0054   -3.2351 H   0  0  0  0  0  0  0  0  0  0  0  0
    4.0912    0.7645   -3.1159 H   0  0  0  0  0  0  0  0  0  0  0  0
  1  2  1  0
  2  3  1  0
  3  4  1  0
  4  5  2  0
  4  6  1  0
  7  6  1  6
  7  8  1  0
  8  9  1  0
  9 10  1  0
 10 11  1  0
 11 12  1  0
 12 13  1  0
 13 14  1  0
 13 15  1  0
 11 16  1  0
  3 17  2  0
 17 18  1  0
 18 19  1  0
 19 20  1  0
 20 21  1  0
 21 22  1  0
 22 23  1  0
 23 24  1  0
 24 25  1  0
 18 26  1  0
 26 27  1  0
 26  2  2  0
 15  7  1  0
 25 19  1  0
 16  7  1  0
 24 22  1  0
 14  9  1  0
  1 28  1  0
  1 29  1  0
  1 30  1  0
  6 31  1  0
  8 32  1  0
  8 33  1  0
  9 34  1  6
 10 35  1  0
 10 36  1  0
 11 37  1  1
 12 38  1  0
 12 39  1  0
 13 40  1  1
 14 41  1  0
 14 42  1  0
 15 43  1  0
 15 44  1  0
 16 45  1  0
 16 46  1  0
 19 47  1  6
 20 48  1  0
 20 49  1  0
 21 50  1  0
 21 51  1  0
 22 52  1  1
 23 53  1  0
 23 54  1  0
 24 55  1  1
 25 56  1  0
 25 57  1  0
 27 58  1  0
 27 59  1  0
 27 60  1  0
M  END
>  <_SMILES>  (60) 
Cc1c(C(=O)N[C@]23C[C@H]4C[C@H](C[C@H](C4)C2)C3)nn([C@H]2CC[C@@H]3C[C@@H]3C2)c1C

$$$$

     RDKit          3D

 60 65  0  0  0  0  0  0  0  0999 V2000
   -0.3550   -0.6316   -3.2330 C   0  0  0  0  0  0  0  0  0  0  0  0
   -1.2102   -0.0138   -2.1869 C   0  0  0  0  0  0  0  0  0  0  0  0
   -0.7870    0.6006   -0.9643 C   0  0  0  0  0  0  0  0  0  0  0  0
    0.5821    0.7197   -0.4220 C   0  0  0  0  0  0  0  0  0  0  0  0
    1.0016    1.7400    0.1146 O   0  0  0  0  0  0  0  0  0  0  0  0
    1.3297   -0.4402   -0.5519 N   0  0  0  0  0  0  0  0  0  0  0  0
    2.6698   -0.6328    0.0062 C   0  0  2  0  0  0  0  0  0  0  0  0
    2.6637   -0.5424    1.5519 C   0  0  0  0  0  0  0  0  0  0  0  0
    4.0713   -0.8080    2.1146 C   0  0  1  0  0  0  0  0  0  0  0  0
    4.5256   -2.2174    1.7029 C   0  0  0  0  0  0  0  0  0  0  0  0
    4.5629   -2.3304    0.1707 C   0  0  2  0  0  0  0  0  0  0  0  0
    5.5441   -1.2915   -0.3930 C   0  0  0  0  0  0  0  0  0  0  0  0
    5.0950    0.1227    0.0054 C   0  0  2  0  0  0  0  0  0  0  0  0
    5.0514    0.2287    1.5395 C   0  0  0  0  0  0  0  0  0  0  0  0
    3.6885    0.3890   -0.5602 C   0  0  0  0  0  0  0  0  0  0  0  0
    3.1590   -2.0530   -0.3895 C   0  0  0  0  0  0  0  0  0  0  0  0
   -1.8401    1.0867   -0.2896 N   0  0  0  0  0  0  0  0  0  0  0  0
   -2.9090    0.8083   -1.0509 N   0  0  0  0  0  0  0  0  0  0  0  0
   -4.2424    1.2335   -0.6126 C   0  0  2  0  0  0  0  0  0  0  0  0
   -4.2417    2.6399    0.0915 C   0  0  0  0  0  0  0  0  0  0  0  0
   -3.9925    2.6295    1.6280 C   0  0  0  0  0  0  0  0  0  0  0  0
   -4.1445    1.2426    2.1403 C   0  0  1  0  0  0  0  0  0  0  0  0
   -5.1287    0.4723    2.9599 C   0  0  0  0  0  0  0  0  0  0  0  0
   -5.4055    0.6762    1.5033 C   0  0  2  0  0  0  0  0  0  0  0  0
   -4.9506    0.0997    0.2078 C   0  0  0  0  0  0  0  0  0  0  0  0
   -2.5905    0.1134   -2.1936 C   0  0  0  0  0  0  0  0  0  0  0  0
   -3.6021   -0.3408   -3.1830 C   0  0  0  0  0  0  0  0  0  0  0  0
   -0.1903   -1.6908   -3.0121 H   0  0  0  0  0  0  0  0  0  0  0  0
   -0.8196   -0.5557   -4.2211 H   0  0  0  0  0  0  0  0  0  0  0  0
    0.6175   -0.1331   -3.2946 H   0  0  0  0  0  0  0  0  0  0  0  0
    0.7940   -1.2716   -0.7635 H   0  0  0  0  0  0  0  0  0  0  0  0
    1.9519   -1.2665    1.9695 H   0  0  0  0  0  0  0  0  0  0  0  0
    2.3253    0.4463    1.8842 H   0  0  0  0  0  0  0  0  0  0  0  0
    4.0516   -0.7313    3.2075 H   0  0  0  0  0  0  0  0  0  0  0  0
    5.5188   -2.4273    2.1184 H   0  0  0  0  0  0  0  0  0  0  0  0
    3.8417   -2.9679    2.1179 H   0  0  0  0  0  0  0  0  0  0  0  0
    4.8844   -3.3373   -0.1180 H   0  0  0  0  0  0  0  0  0  0  0  0
    5.5932   -1.3756   -1.4856 H   0  0  0  0  0  0  0  0  0  0  0  0
    6.5548   -1.4852   -0.0130 H   0  0  0  0  0  0  0  0  0  0  0  0
    5.7993    0.8600   -0.3960 H   0  0  0  0  0  0  0  0  0  0  0  0
    4.7453    1.2392    1.8369 H   0  0  0  0  0  0  0  0  0  0  0  0
    6.0539    0.0651    1.9538 H   0  0  0  0  0  0  0  0  0  0  0  0
    3.3985    1.4161   -0.3119 H   0  0  0  0  0  0  0  0  0  0  0  0
    3.7091    0.3326   -1.6565 H   0  0  0  0  0  0  0  0  0  0  0  0
    2.4578   -2.8115   -0.0159 H   0  0  0  0  0  0  0  0  0  0  0  0
    3.1678   -2.1577   -1.4829 H   0  0  0  0  0  0  0  0  0  0  0  0
   -4.8075    1.3718   -1.5440 H   0  0  0  0  0  0  0  0  0  0  0  0
   -5.2367    3.0793   -0.0680 H   0  0  0  0  0  0  0  0  0  0  0  0
   -3.5391    3.3276   -0.3951 H   0  0  0  0  0  0  0  0  0  0  0  0
   -2.9765    2.9855    1.8339 H   0  0  0  0  0  0  0  0  0  0  0  0
   -4.6803    3.3214    2.1275 H   0  0  0  0  0  0  0  0  0  0  0  0
   -3.1907    0.7230    2.0387 H   0  0  0  0  0  0  0  0  0  0  0  0
   -5.7197    1.0233    3.6829 H   0  0  0  0  0  0  0  0  0  0  0  0
   -4.8555   -0.5244    3.2879 H   0  0  0  0  0  0  0  0  0  0  0  0
   -6.2745    1.3115    1.3324 H   0  0  0  0  0  0  0  0  0  0  0  0
   -5.8219   -0.2604   -0.3520 H   0  0  0  0  0  0  0  0  0  0  0  0
   -4.2970   -0.7672    0.3654 H   0  0  0  0  0  0  0  0  0  0  0  0
   -3.1688   -1.0449   -3.8999 H   0  0  0  0  0  0  0  0  0  0  0  0
   -4.4341   -0.8517   -2.6884 H   0  0  0  0  0  0  0  0  0  0  0  0
   -3.9975    0.5115   -3.7444 H   0  0  0  0  0  0  0  0  0  0  0  0
  1  2  1  0
  2  3  1  0
  3  4  1  0
  4  5  2  0
  4  6  1  0
  7  6  1  6
  7  8  1  0
  8  9  1  0
  9 10  1  0
 10 11  1  0
 11 12  1  0
 12 13  1  0
 13 14  1  0
 13 15  1  0
 11 16  1  0
  3 17  2  0
 17 18  1  0
 18 19  1  0
 19 20  1  0
 20 21  1  0
 21 22  1  0
 22 23  1  0
 23 24  1  0
 24 25  1  0
 18 26  1  0
 26 27  1  0
 26  2  2  0
 15  7  1  0
 25 19  1  0
 16  7  1  0
 24 22  1  0
 14  9  1  0
  1 28  1  0
  1 29  1  0
  1 30  1  0
  6 31  1  0
  8 32  1  0
  8 33  1  0
  9 34  1  1
 10 35  1  0
 10 36  1  0
 11 37  1  1
 12 38  1  0
 12 39  1  0
 13 40  1  6
 14 41  1  0
 14 42  1  0
 15 43  1  0
 15 44  1  0
 16 45  1  0
 16 46  1  0
 19 47  1  6
 20 48  1  0
 20 49  1  0
 21 50  1  0
 21 51  1  0
 22 52  1  6
 23 53  1  0
 23 54  1  0
 24 55  1  1
 25 56  1  0
 25 57  1  0
 27 58  1  0
 27 59  1  0
 27 60  1  0
M  END
>  <_SMILES>  (61) 
Cc1c(C(=O)N[C@]23C[C@H]4C[C@H](C[C@H](C4)C2)C3)nn([C@@H]2CC[C@H]3C[C@@H]3C2)c1C

$$$$

     RDKit          3D

 60 65  0  0  0  0  0  0  0  0999 V2000
    0.4722   -2.2821   -1.6516 C   0  0  0  0  0  0  0  0  0  0  0  0
    1.1657   -1.1422   -0.9961 C   0  0  0  0  0  0  0  0  0  0  0  0
    0.6038    0.1231   -0.6353 C   0  0  0  0  0  0  0  0  0  0  0  0
   -0.7928    0.5835   -0.7805 C   0  0  0  0  0  0  0  0  0  0  0  0
   -1.0882    1.7116   -1.1615 O   0  0  0  0  0  0  0  0  0  0  0  0
   -1.7294   -0.3711   -0.4163 N   0  0  0  0  0  0  0  0  0  0  0  0
   -3.1740   -0.1387   -0.3547 C   0  0  2  0  0  0  0  0  0  0  0  0
   -3.7559    0.2748   -1.7305 C   0  0  0  0  0  0  0  0  0  0  0  0
   -5.2816    0.4570   -1.6413 C   0  0  1  0  0  0  0  0  0  0  0  0
   -5.9280   -0.8692   -1.2128 C   0  0  0  0  0  0  0  0  0  0  0  0
   -5.3846   -1.2971    0.1589 C   0  0  2  0  0  0  0  0  0  0  0  0
   -5.7081   -0.2107    1.1966 C   0  0  0  0  0  0  0  0  0  0  0  0
   -5.0612    1.1206    0.7823 C   0  0  2  0  0  0  0  0  0  0  0  0
   -5.6012    1.5392   -0.5959 C   0  0  0  0  0  0  0  0  0  0  0  0
   -3.5353    0.9397    0.6958 C   0  0  0  0  0  0  0  0  0  0  0  0
   -3.8601   -1.4673    0.0659 C   0  0  0  0  0  0  0  0  0  0  0  0
    1.5385    0.9162   -0.0918 N   0  0  0  0  0  0  0  0  0  0  0  0
    2.6702    0.1909   -0.0941 N   0  0  0  0  0  0  0  0  0  0  0  0
    3.8712    0.8260    0.4437 C   0  0  1  0  0  0  0  0  0  0  0  0
    4.4574    0.0822    1.6939 C   0  0  0  0  0  0  0  0  0  0  0  0
    5.7710    0.7140    2.2440 C   0  0  0  0  0  0  0  0  0  0  0  0
    6.3064    1.6617    1.2294 C   0  0  1  0  0  0  0  0  0  0  0  0
    7.4718    1.7342    0.2953 C   0  0  0  0  0  0  0  0  0  0  0  0
    6.2822    0.9190   -0.1022 C   0  0  2  0  0  0  0  0  0  0  0  0
    4.9241    1.1595   -0.6698 C   0  0  0  0  0  0  0  0  0  0  0  0
    2.5007   -1.0668   -0.6230 C   0  0  0  0  0  0  0  0  0  0  0  0
    3.5739   -2.0890   -0.7412 C   0  0  0  0  0  0  0  0  0  0  0  0
    0.0049   -2.9246   -0.8988 H   0  0  0  0  0  0  0  0  0  0  0  0
    1.1670   -2.8921   -2.2364 H   0  0  0  0  0  0  0  0  0  0  0  0
   -0.3037   -1.9295   -2.3385 H   0  0  0  0  0  0  0  0  0  0  0  0
   -1.3630   -1.1455    0.1212 H   0  0  0  0  0  0  0  0  0  0  0  0
   -3.3100    1.2115   -2.0834 H   0  0  0  0  0  0  0  0  0  0  0  0
   -3.5131   -0.4841   -2.4860 H   0  0  0  0  0  0  0  0  0  0  0  0
   -5.6744    0.7598   -2.6185 H   0  0  0  0  0  0  0  0  0  0  0  0
   -7.0182   -0.7574   -1.1661 H   0  0  0  0  0  0  0  0  0  0  0  0
   -5.7193   -1.6464   -1.9583 H   0  0  0  0  0  0  0  0  0  0  0  0
   -5.8453   -2.2446    0.4599 H   0  0  0  0  0  0  0  0  0  0  0  0
   -5.3410   -0.5144    2.1847 H   0  0  0  0  0  0  0  0  0  0  0  0
   -6.7946   -0.0881    1.2845 H   0  0  0  0  0  0  0  0  0  0  0  0
   -5.2994    1.8926    1.5226 H   0  0  0  0  0  0  0  0  0  0  0  0
   -6.6855    1.6962   -0.5403 H   0  0  0  0  0  0  0  0  0  0  0  0
   -5.1564    2.4953   -0.8980 H   0  0  0  0  0  0  0  0  0  0  0  0
   -3.0740    1.9018    0.4429 H   0  0  0  0  0  0  0  0  0  0  0  0
   -3.1365    0.6574    1.6791 H   0  0  0  0  0  0  0  0  0  0  0  0
   -3.4682   -1.8042    1.0351 H   0  0  0  0  0  0  0  0  0  0  0  0
   -3.6181   -2.2609   -0.6539 H   0  0  0  0  0  0  0  0  0  0  0  0
    3.5278    1.7996    0.8281 H   0  0  0  0  0  0  0  0  0  0  0  0
    3.7075    0.0413    2.4937 H   0  0  0  0  0  0  0  0  0  0  0  0
    4.6729   -0.9621    1.4430 H   0  0  0  0  0  0  0  0  0  0  0  0
    5.5533    1.2564    3.1711 H   0  0  0  0  0  0  0  0  0  0  0  0
    6.4960   -0.0697    2.4915 H   0  0  0  0  0  0  0  0  0  0  0  0
    5.8000    2.6221    1.3357 H   0  0  0  0  0  0  0  0  0  0  0  0
    8.3811    1.2178    0.5827 H   0  0  0  0  0  0  0  0  0  0  0  0
    7.6487    2.6611   -0.2395 H   0  0  0  0  0  0  0  0  0  0  0  0
    6.5046   -0.1474   -0.1425 H   0  0  0  0  0  0  0  0  0  0  0  0
    4.8071    2.2016   -0.9926 H   0  0  0  0  0  0  0  0  0  0  0  0
    4.7842    0.5432   -1.5641 H   0  0  0  0  0  0  0  0  0  0  0  0
    3.5775   -2.7329    0.1441 H   0  0  0  0  0  0  0  0  0  0  0  0
    3.4131   -2.7248   -1.6174 H   0  0  0  0  0  0  0  0  0  0  0  0
    4.5664   -1.6480   -0.8513 H   0  0  0  0  0  0  0  0  0  0  0  0
  1  2  1  0
  2  3  1  0
  3  4  1  0
  4  5  2  0
  4  6  1  0
  7  6  1  6
  7  8  1  0
  8  9  1  0
  9 10  1  0
 10 11  1  0
 11 12  1  0
 12 13  1  0
 13 14  1  0
 13 15  1  0
 11 16  1  0
  3 17  2  0
 17 18  1  0
 18 19  1  0
 19 20  1  0
 20 21  1  0
 21 22  1  0
 22 23  1  0
 23 24  1  0
 24 25  1  0
 18 26  1  0
 26 27  1  0
 26  2  2  0
 15  7  1  0
 25 19  1  0
 16  7  1  0
 24 22  1  0
 14  9  1  0
  1 28  1  0
  1 29  1  0
  1 30  1  0
  6 31  1  0
  8 32  1  0
  8 33  1  0
  9 34  1  6
 10 35  1  0
 10 36  1  0
 11 37  1  1
 12 38  1  0
 12 39  1  0
 13 40  1  1
 14 41  1  0
 14 42  1  0
 15 43  1  0
 15 44  1  0
 16 45  1  0
 16 46  1  0
 19 47  1  1
 20 48  1  0
 20 49  1  0
 21 50  1  0
 21 51  1  0
 22 52  1  6
 23 53  1  0
 23 54  1  0
 24 55  1  1
 25 56  1  0
 25 57  1  0
 27 58  1  0
 27 59  1  0
 27 60  1  0
M  END
>  <_SMILES>  (62) 
Cc1c(C(=O)N[C@]23C[C@H]4C[C@H](C[C@H](C4)C2)C3)nn([C@H]2CC[C@H]3C[C@@H]3C2)c1C

$$$$

     RDKit          3D

 60 65  0  0  0  0  0  0  0  0999 V2000
    0.9864   -3.8434   -0.8756 C   0  0  0  0  0  0  0  0  0  0  0  0
    1.3623   -2.4311   -0.6066 C   0  0  0  0  0  0  0  0  0  0  0  0
    0.4704   -1.3558   -0.3293 C   0  0  0  0  0  0  0  0  0  0  0  0
   -1.0040   -1.3957   -0.2375 C   0  0  0  0  0  0  0  0  0  0  0  0
   -1.6578   -2.4215   -0.3931 O   0  0  0  0  0  0  0  0  0  0  0  0
   -1.5479   -0.1604    0.0415 N   0  0  0  0  0  0  0  0  0  0  0  0
   -2.9645    0.1442    0.2070 C   0  0  2  0  0  0  0  0  0  0  0  0
   -3.1106    1.6593    0.5092 C   0  0  0  0  0  0  0  0  0  0  0  0
   -4.5870    2.0441    0.6951 C   0  0  1  0  0  0  0  0  0  0  0  0
   -5.3603    1.7114   -0.5906 C   0  0  0  0  0  0  0  0  0  0  0  0
   -5.2502    0.2091   -0.8952 C   0  0  2  0  0  0  0  0  0  0  0  0
   -5.8317   -0.5914    0.2826 C   0  0  0  0  0  0  0  0  0  0  0  0
   -5.0631   -0.2659    1.5747 C   0  0  2  0  0  0  0  0  0  0  0  0
   -5.1742    1.2392    1.8651 C   0  0  0  0  0  0  0  0  0  0  0  0
   -3.5819   -0.6406    1.3908 C   0  0  0  0  0  0  0  0  0  0  0  0
   -3.7690   -0.1655   -1.0797 C   0  0  0  0  0  0  0  0  0  0  0  0
    1.1458   -0.2051   -0.1426 N   0  0  0  0  0  0  0  0  0  0  0  0
    2.4438   -0.5361   -0.3012 N   0  0  0  0  0  0  0  0  0  0  0  0
    3.4293    0.5348   -0.1692 C   0  0  2  0  0  0  0  0  0  0  0  0
    4.2667    0.7697   -1.4745 C   0  0  0  0  0  0  0  0  0  0  0  0
    5.3606    1.8700   -1.3315 C   0  0  0  0  0  0  0  0  0  0  0  0
    5.5415    2.1780    0.1131 C   0  0  2  0  0  0  0  0  0  0  0  0
    6.5874    1.9707    1.1615 C   0  0  0  0  0  0  0  0  0  0  0  0
    5.6759    0.8344    0.8214 C   0  0  1  0  0  0  0  0  0  0  0  0
    4.2829    0.4082    1.1402 C   0  0  0  0  0  0  0  0  0  0  0  0
    2.6312   -1.8721   -0.5651 C   0  0  0  0  0  0  0  0  0  0  0  0
    3.9512   -2.5237   -0.7726 C   0  0  0  0  0  0  0  0  0  0  0  0
    0.2784   -3.9003   -1.7087 H   0  0  0  0  0  0  0  0  0  0  0  0
    0.5213   -4.2893    0.0093 H   0  0  0  0  0  0  0  0  0  0  0  0
    1.8557   -4.4520   -1.1414 H   0  0  0  0  0  0  0  0  0  0  0  0
   -0.8507    0.5743    0.1456 H   0  0  0  0  0  0  0  0  0  0  0  0
   -2.6740    2.2508   -0.3068 H   0  0  0  0  0  0  0  0  0  0  0  0
   -2.5438    1.9203    1.4130 H   0  0  0  0  0  0  0  0  0  0  0  0
   -4.6663    3.1162    0.9072 H   0  0  0  0  0  0  0  0  0  0  0  0
   -6.4139    1.9949   -0.4783 H   0  0  0  0  0  0  0  0  0  0  0  0
   -4.9614    2.2943   -1.4298 H   0  0  0  0  0  0  0  0  0  0  0  0
   -5.8061   -0.0236   -1.8104 H   0  0  0  0  0  0  0  0  0  0  0  0
   -5.7716   -1.6661    0.0714 H   0  0  0  0  0  0  0  0  0  0  0  0
   -6.8945   -0.3509    0.4093 H   0  0  0  0  0  0  0  0  0  0  0  0
   -5.4865   -0.8351    2.4098 H   0  0  0  0  0  0  0  0  0  0  0  0
   -6.2247    1.5146    2.0197 H   0  0  0  0  0  0  0  0  0  0  0  0
   -4.6415    1.4824    2.7926 H   0  0  0  0  0  0  0  0  0  0  0  0
   -3.0261   -0.4303    2.3140 H   0  0  0  0  0  0  0  0  0  0  0  0
   -3.5042   -1.7219    1.2259 H   0  0  0  0  0  0  0  0  0  0  0  0
   -3.6988   -1.2287   -1.3386 H   0  0  0  0  0  0  0  0  0  0  0  0
   -3.3475    0.3859   -1.9304 H   0  0  0  0  0  0  0  0  0  0  0  0
    2.8325    1.4525   -0.0466 H   0  0  0  0  0  0  0  0  0  0  0  0
    3.6004    1.0219   -2.3088 H   0  0  0  0  0  0  0  0  0  0  0  0
    4.7676   -0.1580   -1.7721 H   0  0  0  0  0  0  0  0  0  0  0  0
    6.2960    1.5399   -1.7976 H   0  0  0  0  0  0  0  0  0  0  0  0
    5.0383    2.7742   -1.8601 H   0  0  0  0  0  0  0  0  0  0  0  0
    4.7796    2.8940    0.4240 H   0  0  0  0  0  0  0  0  0  0  0  0
    6.4564    2.4508    2.1252 H   0  0  0  0  0  0  0  0  0  0  0  0
    7.6215    1.9194    0.8386 H   0  0  0  0  0  0  0  0  0  0  0  0
    6.2029    0.0092    0.3418 H   0  0  0  0  0  0  0  0  0  0  0  0
    3.8472    1.0325    1.9302 H   0  0  0  0  0  0  0  0  0  0  0  0
    4.2904   -0.6163    1.5271 H   0  0  0  0  0  0  0  0  0  0  0  0
    3.9412   -3.5480   -0.3857 H   0  0  0  0  0  0  0  0  0  0  0  0
    4.7650   -2.0037   -0.2639 H   0  0  0  0  0  0  0  0  0  0  0  0
    4.1842   -2.5688   -1.8411 H   0  0  0  0  0  0  0  0  0  0  0  0
  1  2  1  0
  2  3  1  0
  3  4  1  0
  4  5  2  0
  4  6  1  0
  7  6  1  6
  7  8  1  0
  8  9  1  0
  9 10  1  0
 10 11  1  0
 11 12  1  0
 12 13  1  0
 13 14  1  0
 13 15  1  0
 11 16  1  0
  3 17  2  0
 17 18  1  0
 18 19  1  0
 19 20  1  0
 20 21  1  0
 21 22  1  0
 22 23  1  0
 23 24  1  0
 24 25  1  0
 18 26  1  0
 26 27  1  0
 26  2  2  0
 15  7  1  0
 25 19  1  0
 16  7  1  0
 24 22  1  0
 14  9  1  0
  1 28  1  0
  1 29  1  0
  1 30  1  0
  6 31  1  0
  8 32  1  0
  8 33  1  0
  9 34  1  1
 10 35  1  0
 10 36  1  0
 11 37  1  6
 12 38  1  0
 12 39  1  0
 13 40  1  1
 14 41  1  0
 14 42  1  0
 15 43  1  0
 15 44  1  0
 16 45  1  0
 16 46  1  0
 19 47  1  1
 20 48  1  0
 20 49  1  0
 21 50  1  0
 21 51  1  0
 22 52  1  1
 23 53  1  0
 23 54  1  0
 24 55  1  6
 25 56  1  0
 25 57  1  0
 27 58  1  0
 27 59  1  0
 27 60  1  0
M  END
>  <_SMILES>  (63) 
Cc1c(C(=O)N[C@]23C[C@H]4C[C@H](C[C@H](C4)C2)C3)nn([C@@H]2CC[C@@H]3C[C@H]3C2)c1C

$$$$

     RDKit          3D

 60 65  0  0  0  0  0  0  0  0999 V2000
   -0.0605   -1.4504    2.8546 C   0  0  0  0  0  0  0  0  0  0  0  0
   -1.0081   -0.9221    1.8392 C   0  0  0  0  0  0  0  0  0  0  0  0
   -0.7359    0.0333    0.8068 C   0  0  0  0  0  0  0  0  0  0  0  0
    0.5503    0.6764    0.4669 C   0  0  0  0  0  0  0  0  0  0  0  0
    0.6475    1.8649    0.1788 O   0  0  0  0  0  0  0  0  0  0  0  0
    1.6244   -0.1994    0.4765 N   0  0  0  0  0  0  0  0  0  0  0  0
    2.9859    0.1489    0.0643 C   0  0  2  0  0  0  0  0  0  0  0  0
    3.8842   -1.1040    0.2544 C   0  0  0  0  0  0  0  0  0  0  0  0
    5.3335   -0.8144   -0.1669 C   0  0  1  0  0  0  0  0  0  0  0  0
    5.3545   -0.3970   -1.6458 C   0  0  0  0  0  0  0  0  0  0  0  0
    4.4935    0.8599   -1.8491 C   0  0  2  0  0  0  0  0  0  0  0  0
    5.0477    2.0002   -0.9780 C   0  0  0  0  0  0  0  0  0  0  0  0
    5.0301    1.5909    0.5047 C   0  0  2  0  0  0  0  0  0  0  0  0
    5.8886    0.3308    0.6935 C   0  0  0  0  0  0  0  0  0  0  0  0
    3.5818    1.2890    0.9290 C   0  0  0  0  0  0  0  0  0  0  0  0
    3.0445    0.5576   -1.4278 C   0  0  0  0  0  0  0  0  0  0  0  0
   -1.8486    0.3036    0.1068 N   0  0  0  0  0  0  0  0  0  0  0  0
   -2.8097   -0.4469    0.6678 N   0  0  0  0  0  0  0  0  0  0  0  0
   -4.1686   -0.3525    0.1421 C   0  0  1  0  0  0  0  0  0  0  0  0
   -4.7977    1.0585    0.4028 C   0  0  0  0  0  0  0  0  0  0  0  0
   -6.1080    1.3113   -0.3925 C   0  0  0  0  0  0  0  0  0  0  0  0
   -5.8122    0.9308   -1.7994 C   0  0  2  0  0  0  0  0  0  0  0  0
   -6.3971    0.0911   -2.8879 C   0  0  0  0  0  0  0  0  0  0  0  0
   -5.6507   -0.5861   -1.7829 C   0  0  1  0  0  0  0  0  0  0  0  0
   -4.2415   -0.8133   -1.3519 C   0  0  0  0  0  0  0  0  0  0  0  0
   -2.3535   -1.2278    1.7009 C   0  0  0  0  0  0  0  0  0  0  0  0
   -3.2209   -2.1605    2.4663 C   0  0  0  0  0  0  0  0  0  0  0  0
   -0.5778   -1.7113    3.7831 H   0  0  0  0  0  0  0  0  0  0  0  0
    0.4395   -2.3475    2.4764 H   0  0  0  0  0  0  0  0  0  0  0  0
    0.7022   -0.7078    3.1094 H   0  0  0  0  0  0  0  0  0  0  0  0
    1.3763   -1.1799    0.4694 H   0  0  0  0  0  0  0  0  0  0  0  0
    3.8602   -1.4296    1.3031 H   0  0  0  0  0  0  0  0  0  0  0  0
    3.4910   -1.9434   -0.3349 H   0  0  0  0  0  0  0  0  0  0  0  0
    5.9460   -1.7121   -0.0274 H   0  0  0  0  0  0  0  0  0  0  0  0
    4.9776   -1.2150   -2.2720 H   0  0  0  0  0  0  0  0  0  0  0  0
    6.3854   -0.2007   -1.9651 H   0  0  0  0  0  0  0  0  0  0  0  0
    4.5164    1.1560   -2.9039 H   0  0  0  0  0  0  0  0  0  0  0  0
    4.4490    2.9078   -1.1235 H   0  0  0  0  0  0  0  0  0  0  0  0
    6.0722    2.2420   -1.2866 H   0  0  0  0  0  0  0  0  0  0  0  0
    5.4315    2.4057    1.1177 H   0  0  0  0  0  0  0  0  0  0  0  0
    5.8959    0.0368    1.7503 H   0  0  0  0  0  0  0  0  0  0  0  0
    6.9285    0.5399    0.4140 H   0  0  0  0  0  0  0  0  0  0  0  0
    2.9898    2.2065    0.8365 H   0  0  0  0  0  0  0  0  0  0  0  0
    3.5529    1.0112    1.9909 H   0  0  0  0  0  0  0  0  0  0  0  0
    2.4246    1.4425   -1.6153 H   0  0  0  0  0  0  0  0  0  0  0  0
    2.6328   -0.2438   -2.0552 H   0  0  0  0  0  0  0  0  0  0  0  0
   -4.7796   -1.0607    0.7160 H   0  0  0  0  0  0  0  0  0  0  0  0
   -4.9841    1.1913    1.4753 H   0  0  0  0  0  0  0  0  0  0  0  0
   -4.0743    1.8344    0.1184 H   0  0  0  0  0  0  0  0  0  0  0  0
   -6.9344    0.7290    0.0313 H   0  0  0  0  0  0  0  0  0  0  0  0
   -6.3828    2.3694   -0.3295 H   0  0  0  0  0  0  0  0  0  0  0  0
   -5.0151    1.5759   -2.1747 H   0  0  0  0  0  0  0  0  0  0  0  0
   -7.4764   -0.0073   -2.9223 H   0  0  0  0  0  0  0  0  0  0  0  0
   -5.9313    0.1185   -3.8671 H   0  0  0  0  0  0  0  0  0  0  0  0
   -6.3090   -1.2156   -1.1832 H   0  0  0  0  0  0  0  0  0  0  0  0
   -3.9873   -1.8768   -1.4278 H   0  0  0  0  0  0  0  0  0  0  0  0
   -3.5288   -0.2665   -1.9813 H   0  0  0  0  0  0  0  0  0  0  0  0
   -2.6470   -2.7261    3.2063 H   0  0  0  0  0  0  0  0  0  0  0  0
   -3.6948   -2.8857    1.7968 H   0  0  0  0  0  0  0  0  0  0  0  0
   -4.0024   -1.6097    2.9993 H   0  0  0  0  0  0  0  0  0  0  0  0
  1  2  1  0
  2  3  1  0
  3  4  1  0
  4  5  2  0
  4  6  1  0
  7  6  1  1
  7  8  1  0
  8  9  1  0
  9 10  1  0
 10 11  1  0
 11 12  1  0
 12 13  1  0
 13 14  1  0
 13 15  1  0
 11 16  1  0
  3 17  2  0
 17 18  1  0
 18 19  1  0
 19 20  1  0
 20 21  1  0
 21 22  1  0
 22 23  1  0
 23 24  1  0
 24 25  1  0
 18 26  1  0
 26 27  1  0
 26  2  2  0
 15  7  1  0
 25 19  1  0
 16  7  1  0
 24 22  1  0
 14  9  1  0
  1 28  1  0
  1 29  1  0
  1 30  1  0
  6 31  1  0
  8 32  1  0
  8 33  1  0
  9 34  1  6
 10 35  1  0
 10 36  1  0
 11 37  1  6
 12 38  1  0
 12 39  1  0
 13 40  1  1
 14 41  1  0
 14 42  1  0
 15 43  1  0
 15 44  1  0
 16 45  1  0
 16 46  1  0
 19 47  1  1
 20 48  1  0
 20 49  1  0
 21 50  1  0
 21 51  1  0
 22 52  1  6
 23 53  1  0
 23 54  1  0
 24 55  1  1
 25 56  1  0
 25 57  1  0
 27 58  1  0
 27 59  1  0
 27 60  1  0
M  END
>  <_SMILES>  (64) 
Cc1c(C(=O)N[C@]23C[C@H]4C[C@H](C[C@H](C4)C2)C3)nn([C@H]2CC[C@@H]3C[C@H]3C2)c1C

$$$$

     RDKit          3D

 60 65  0  0  0  0  0  0  0  0999 V2000
   -0.8288   -4.2945   -1.1421 C   0  0  0  0  0  0  0  0  0  0  0  0
   -1.4064   -3.0262   -0.6269 C   0  0  0  0  0  0  0  0  0  0  0  0
   -0.6936   -1.8174   -0.3707 C   0  0  0  0  0  0  0  0  0  0  0  0
    0.7476   -1.5499   -0.5573 C   0  0  0  0  0  0  0  0  0  0  0  0
    1.5369   -2.3877   -0.9803 O   0  0  0  0  0  0  0  0  0  0  0  0
    1.0910   -0.2621   -0.2060 N   0  0  0  0  0  0  0  0  0  0  0  0
    2.4194    0.3333   -0.2856 C   0  0  2  0  0  0  0  0  0  0  0  0
    3.4363   -0.4174    0.6093 C   0  0  0  0  0  0  0  0  0  0  0  0
    4.8170    0.2592    0.5444 C   0  0  1  0  0  0  0  0  0  0  0  0
    5.3124    0.2597   -0.9118 C   0  0  0  0  0  0  0  0  0  0  0  0
    4.3278    1.0327   -1.8057 C   0  0  2  0  0  0  0  0  0  0  0  0
    4.2095    2.4783   -1.2974 C   0  0  0  0  0  0  0  0  0  0  0  0
    3.7069    2.4846    0.1549 C   0  0  2  0  0  0  0  0  0  0  0  0
    4.6960    1.7092    1.0392 C   0  0  0  0  0  0  0  0  0  0  0  0
    2.3325    1.7994    0.2156 C   0  0  0  0  0  0  0  0  0  0  0  0
    2.9470    0.3563   -1.7413 C   0  0  0  0  0  0  0  0  0  0  0  0
   -1.5183   -0.8568    0.0906 N   0  0  0  0  0  0  0  0  0  0  0  0
   -2.7299   -1.4421    0.1415 N   0  0  0  0  0  0  0  0  0  0  0  0
   -3.8785   -0.6594    0.6121 C   0  0  2  0  0  0  0  0  0  0  0  0
   -4.3799    0.2913   -0.5018 C   0  0  0  0  0  0  0  0  0  0  0  0
   -4.8949    1.6264    0.0349 C   0  0  0  0  0  0  0  0  0  0  0  0
   -3.8046    2.2959    0.8139 C   0  0  1  0  0  0  0  0  0  0  0  0
   -3.9376    2.5969    2.2823 C   0  0  0  0  0  0  0  0  0  0  0  0
   -3.1011    1.4288    1.8246 C   0  0  1  0  0  0  0  0  0  0  0  0
   -3.6010    0.0192    1.9737 C   0  0  0  0  0  0  0  0  0  0  0  0
   -2.7241   -2.7430   -0.3023 C   0  0  0  0  0  0  0  0  0  0  0  0
   -3.9466   -3.5852   -0.3762 C   0  0  0  0  0  0  0  0  0  0  0  0
   -1.5716   -5.0957   -1.1856 H   0  0  0  0  0  0  0  0  0  0  0  0
   -0.4322   -4.1498   -2.1521 H   0  0  0  0  0  0  0  0  0  0  0  0
   -0.0154   -4.6362   -0.4938 H   0  0  0  0  0  0  0  0  0  0  0  0
    0.2980    0.2950    0.1075 H   0  0  0  0  0  0  0  0  0  0  0  0
    3.0802   -0.4409    1.6476 H   0  0  0  0  0  0  0  0  0  0  0  0
    3.5359   -1.4634    0.2957 H   0  0  0  0  0  0  0  0  0  0  0  0
    5.5259   -0.2882    1.1757 H   0  0  0  0  0  0  0  0  0  0  0  0
    6.3073    0.7183   -0.9680 H   0  0  0  0  0  0  0  0  0  0  0  0
    5.4163   -0.7710   -1.2727 H   0  0  0  0  0  0  0  0  0  0  0  0
    4.6901    1.0337   -2.8398 H   0  0  0  0  0  0  0  0  0  0  0  0
    3.5201    3.0449   -1.9354 H   0  0  0  0  0  0  0  0  0  0  0  0
    5.1839    2.9782   -1.3589 H   0  0  0  0  0  0  0  0  0  0  0  0
    3.6221    3.5168    0.5124 H   0  0  0  0  0  0  0  0  0  0  0  0
    4.3567    1.7223    2.0823 H   0  0  0  0  0  0  0  0  0  0  0  0
    5.6789    2.1958    1.0180 H   0  0  0  0  0  0  0  0  0  0  0  0
    1.6109    2.3635   -0.3906 H   0  0  0  0  0  0  0  0  0  0  0  0
    1.9515    1.8243    1.2455 H   0  0  0  0  0  0  0  0  0  0  0  0
    2.2398    0.8885   -2.3910 H   0  0  0  0  0  0  0  0  0  0  0  0
    3.0273   -0.6606   -2.1438 H   0  0  0  0  0  0  0  0  0  0  0  0
   -4.6715   -1.3920    0.8065 H   0  0  0  0  0  0  0  0  0  0  0  0
   -3.5761    0.4960   -1.2218 H   0  0  0  0  0  0  0  0  0  0  0  0
   -5.1737   -0.2064   -1.0724 H   0  0  0  0  0  0  0  0  0  0  0  0
   -5.7828    1.4624    0.6572 H   0  0  0  0  0  0  0  0  0  0  0  0
   -5.2020    2.2697   -0.7971 H   0  0  0  0  0  0  0  0  0  0  0  0
   -3.1875    2.9430    0.2007 H   0  0  0  0  0  0  0  0  0  0  0  0
   -3.4178    3.4675    2.6683 H   0  0  0  0  0  0  0  0  0  0  0  0
   -4.8870    2.4074    2.7695 H   0  0  0  0  0  0  0  0  0  0  0  0
   -2.0208    1.4988    1.8759 H   0  0  0  0  0  0  0  0  0  0  0  0
   -4.5392    0.0354    2.5443 H   0  0  0  0  0  0  0  0  0  0  0  0
   -2.8953   -0.5652    2.5765 H   0  0  0  0  0  0  0  0  0  0  0  0
   -3.7540   -4.5338   -0.8850 H   0  0  0  0  0  0  0  0  0  0  0  0
   -4.3149   -3.8140    0.6290 H   0  0  0  0  0  0  0  0  0  0  0  0
   -4.7385   -3.0734   -0.9326 H   0  0  0  0  0  0  0  0  0  0  0  0
  1  2  1  0
  2  3  1  0
  3  4  1  0
  4  5  2  0
  4  6  1  0
  7  6  1  6
  7  8  1  0
  8  9  1  0
  9 10  1  0
 10 11  1  0
 11 12  1  0
 12 13  1  0
 13 14  1  0
 13 15  1  0
 11 16  1  0
  3 17  2  0
 17 18  1  0
 18 19  1  0
 19 20  1  0
 20 21  1  0
 21 22  1  0
 22 23  1  0
 23 24  1  0
 24 25  1  0
 18 26  1  0
 26 27  1  0
 26  2  2  0
 15  7  1  0
 25 19  1  0
 16  7  1  0
 24 22  1  0
 14  9  1  0
  1 28  1  0
  1 29  1  0
  1 30  1  0
  6 31  1  0
  8 32  1  0
  8 33  1  0
  9 34  1  1
 10 35  1  0
 10 36  1  0
 11 37  1  6
 12 38  1  0
 12 39  1  0
 13 40  1  1
 14 41  1  0
 14 42  1  0
 15 43  1  0
 15 44  1  0
 16 45  1  0
 16 46  1  0
 19 47  1  1
 20 48  1  0
 20 49  1  0
 21 50  1  0
 21 51  1  0
 22 52  1  6
 23 53  1  0
 23 54  1  0
 24 55  1  6
 25 56  1  0
 25 57  1  0
 27 58  1  0
 27 59  1  0
 27 60  1  0
M  END
>  <_SMILES>  (65) 
Cc1c(C(=O)N[C@]23C[C@H]4C[C@H](C[C@H](C4)C2)C3)nn([C@@H]2CC[C@H]3C[C@H]3C2)c1C

$$$$

     RDKit          3D

 60 65  0  0  0  0  0  0  0  0999 V2000
    0.1457   -2.7959    0.2545 C   0  0  0  0  0  0  0  0  0  0  0  0
    0.9909   -1.5731    0.2554 C   0  0  0  0  0  0  0  0  0  0  0  0
    0.5814   -0.2335    0.5420 C   0  0  0  0  0  0  0  0  0  0  0  0
   -0.7749    0.2681    0.8453 C   0  0  0  0  0  0  0  0  0  0  0  0
   -0.9999    1.1018    1.7168 O   0  0  0  0  0  0  0  0  0  0  0  0
   -1.7579   -0.2721    0.0310 N   0  0  0  0  0  0  0  0  0  0  0  0
   -3.1640    0.1373    0.0401 C   0  0  2  0  0  0  0  0  0  0  0  0
   -3.3298    1.6222   -0.3655 C   0  0  0  0  0  0  0  0  0  0  0  0
   -4.8189    2.0087   -0.4060 C   0  0  1  0  0  0  0  0  0  0  0  0
   -5.5442    1.1297   -1.4373 C   0  0  0  0  0  0  0  0  0  0  0  0
   -5.4155   -0.3515   -1.0481 C   0  0  2  0  0  0  0  0  0  0  0  0
   -6.0390   -0.5697    0.3388 C   0  0  0  0  0  0  0  0  0  0  0  0
   -5.3159    0.2982    1.3802 C   0  0  2  0  0  0  0  0  0  0  0  0
   -5.4404    1.7789    0.9822 C   0  0  0  0  0  0  0  0  0  0  0  0
   -3.8273   -0.0907    1.4224 C   0  0  0  0  0  0  0  0  0  0  0  0
   -3.9273   -0.7316   -0.9967 C   0  0  0  0  0  0  0  0  0  0  0  0
    1.6304    0.5999    0.4917 N   0  0  0  0  0  0  0  0  0  0  0  0
    2.6912   -0.1723    0.1937 N   0  0  0  0  0  0  0  0  0  0  0  0
    3.9888    0.4957    0.1033 C   0  0  1  0  0  0  0  0  0  0  0  0
    5.0941   -0.1692    0.9358 C   0  0  0  0  0  0  0  0  0  0  0  0
    6.3173    0.7421    1.0250 C   0  0  0  0  0  0  0  0  0  0  0  0
    6.7472    1.2969   -0.2991 C   0  0  1  0  0  0  0  0  0  0  0  0
    6.9986    0.4104   -1.4885 C   0  0  0  0  0  0  0  0  0  0  0  0
    5.7901    1.3193   -1.4678 C   0  0  1  0  0  0  0  0  0  0  0  0
    4.4173    0.7168   -1.3543 C   0  0  0  0  0  0  0  0  0  0  0  0
    2.3534   -1.4915    0.0031 C   0  0  0  0  0  0  0  0  0  0  0  0
    3.3081   -2.5712   -0.3589 C   0  0  0  0  0  0  0  0  0  0  0  0
    0.7324   -3.6837    0.5111 H   0  0  0  0  0  0  0  0  0  0  0  0
   -0.6619   -2.7196    0.9894 H   0  0  0  0  0  0  0  0  0  0  0  0
   -0.2963   -2.9511   -0.7346 H   0  0  0  0  0  0  0  0  0  0  0  0
   -1.4165   -0.7329   -0.8021 H   0  0  0  0  0  0  0  0  0  0  0  0
   -2.8075    2.2805    0.3390 H   0  0  0  0  0  0  0  0  0  0  0  0
   -2.8715    1.7987   -1.3475 H   0  0  0  0  0  0  0  0  0  0  0  0
   -4.9184    3.0635   -0.6854 H   0  0  0  0  0  0  0  0  0  0  0  0
   -6.6027    1.4121   -1.4922 H   0  0  0  0  0  0  0  0  0  0  0  0
   -5.1189    1.2938   -2.4350 H   0  0  0  0  0  0  0  0  0  0  0  0
   -5.9314   -0.9742   -1.7875 H   0  0  0  0  0  0  0  0  0  0  0  0
   -7.1059   -0.3159    0.3147 H   0  0  0  0  0  0  0  0  0  0  0  0
   -5.9697   -1.6279    0.6193 H   0  0  0  0  0  0  0  0  0  0  0  0
   -5.7658    0.1417    2.3670 H   0  0  0  0  0  0  0  0  0  0  0  0
   -4.9396    2.4104    1.7262 H   0  0  0  0  0  0  0  0  0  0  0  0
   -6.4965    2.0754    0.9724 H   0  0  0  0  0  0  0  0  0  0  0  0
   -3.3317    0.4995    2.2013 H   0  0  0  0  0  0  0  0  0  0  0  0
   -3.7234   -1.1420    1.7216 H   0  0  0  0  0  0  0  0  0  0  0  0
   -3.8242   -1.7959   -0.7456 H   0  0  0  0  0  0  0  0  0  0  0  0
   -3.4821   -0.6085   -1.9932 H   0  0  0  0  0  0  0  0  0  0  0  0
    3.8289    1.4910    0.5463 H   0  0  0  0  0  0  0  0  0  0  0  0
    5.3964   -1.1230    0.4920 H   0  0  0  0  0  0  0  0  0  0  0  0
    4.7342   -0.3924    1.9474 H   0  0  0  0  0  0  0  0  0  0  0  0
    6.0846    1.5828    1.6901 H   0  0  0  0  0  0  0  0  0  0  0  0
    7.1510    0.1989    1.4841 H   0  0  0  0  0  0  0  0  0  0  0  0
    7.4142    2.1444   -0.1727 H   0  0  0  0  0  0  0  0  0  0  0  0
    6.8578   -0.6592   -1.3866 H   0  0  0  0  0  0  0  0  0  0  0  0
    7.8160    0.6753   -2.1517 H   0  0  0  0  0  0  0  0  0  0  0  0
    5.8056    2.1834   -2.1234 H   0  0  0  0  0  0  0  0  0  0  0  0
    3.6949    1.3841   -1.8420 H   0  0  0  0  0  0  0  0  0  0  0  0
    4.3887   -0.2166   -1.9268 H   0  0  0  0  0  0  0  0  0  0  0  0
    2.7830   -3.4229   -0.8039 H   0  0  0  0  0  0  0  0  0  0  0  0
    4.0470   -2.2412   -1.0921 H   0  0  0  0  0  0  0  0  0  0  0  0
    3.8298   -2.9321    0.5329 H   0  0  0  0  0  0  0  0  0  0  0  0
  1  2  1  0
  2  3  1  0
  3  4  1  0
  4  5  2  0
  4  6  1  0
  7  6  1  1
  7  8  1  0
  8  9  1  0
  9 10  1  0
 10 11  1  0
 11 12  1  0
 12 13  1  0
 13 14  1  0
 13 15  1  0
 11 16  1  0
  3 17  2  0
 17 18  1  0
 18 19  1  0
 19 20  1  0
 20 21  1  0
 21 22  1  0
 22 23  1  0
 23 24  1  0
 24 25  1  0
 18 26  1  0
 26 27  1  0
 26  2  2  0
 15  7  1  0
 25 19  1  0
 16  7  1  0
 24 22  1  0
 14  9  1  0
  1 28  1  0
  1 29  1  0
  1 30  1  0
  6 31  1  0
  8 32  1  0
  8 33  1  0
  9 34  1  6
 10 35  1  0
 10 36  1  0
 11 37  1  6
 12 38  1  0
 12 39  1  0
 13 40  1  1
 14 41  1  0
 14 42  1  0
 15 43  1  0
 15 44  1  0
 16 45  1  0
 16 46  1  0
 19 47  1  1
 20 48  1  0
 20 49  1  0
 21 50  1  0
 21 51  1  0
 22 52  1  1
 23 53  1  0
 23 54  1  0
 24 55  1  6
 25 56  1  0
 25 57  1  0
 27 58  1  0
 27 59  1  0
 27 60  1  0
M  END
>  <_SMILES>  (66) 
Cc1c(C(=O)N[C@]23C[C@H]4C[C@H](C[C@H](C4)C2)C3)nn([C@H]2CC[C@H]3C[C@H]3C2)c1C

$$$$

     RDKit          3D

 62 66  0  0  0  0  0  0  0  0999 V2000
   -6.7693   -2.0571   -0.6144 C   0  0  0  0  0  0  0  0  0  0  0  0
   -6.4789   -0.7496    0.0229 C   0  0  0  0  0  0  0  0  0  0  0  0
   -7.4979    0.0297    0.4169 N   0  0  0  0  0  0  0  0  0  0  0  0
   -6.9377    1.1554    0.9846 O   0  0  0  0  0  0  0  0  0  0  0  0
   -5.5994    1.0408    0.9238 C   0  0  0  0  0  0  0  0  0  0  0  0
   -5.2317   -0.1338    0.3121 C   0  0  0  0  0  0  0  0  0  0  0  0
   -3.7779   -0.5244    0.1247 C   0  0  0  0  0  0  0  0  0  0  0  0
   -3.4224   -1.5378    1.2453 C   0  0  0  0  0  0  0  0  0  0  0  0
   -3.5517   -1.2298   -1.2293 C   0  0  0  0  0  0  0  0  0  0  0  0
   -2.8594    0.8222    0.2188 C   0  0  2  0  0  0  0  0  0  0  0  0
   -3.0270    1.7298   -1.0287 C   0  0  0  0  0  0  0  0  0  0  0  0
   -1.3933    0.5051    0.4708 C   0  0  0  0  0  0  0  0  0  0  0  0
   -0.3204    0.7581   -0.3023 C   0  0  0  0  0  0  0  0  0  0  0  0
    1.0281    0.3947    0.2187 C   0  0  0  0  0  0  0  0  0  0  0  0
    1.1744    0.0567    1.3848 O   0  0  0  0  0  0  0  0  0  0  0  0
    2.0147    0.4912   -0.7252 N   0  0  0  0  0  0  0  0  0  0  0  0
    3.4295    0.1689   -0.4824 C   0  0  2  0  0  0  0  0  0  0  0  0
    4.2222    0.4145   -1.7952 C   0  0  0  0  0  0  0  0  0  0  0  0
    5.7134    0.0925   -1.6081 C   0  0  1  0  0  0  0  0  0  0  0  0
    6.2876    0.9899   -0.5009 C   0  0  0  0  0  0  0  0  0  0  0  0
    5.5342    0.7450    0.8158 C   0  0  2  0  0  0  0  0  0  0  0  0
    5.6801   -0.7329    1.2169 C   0  0  0  0  0  0  0  0  0  0  0  0
    5.1075   -1.6400    0.1144 C   0  0  2  0  0  0  0  0  0  0  0  0
    5.8632   -1.3810   -1.1984 C   0  0  0  0  0  0  0  0  0  0  0  0
    3.6161   -1.3164   -0.0843 C   0  0  0  0  0  0  0  0  0  0  0  0
    4.0432    1.0711    0.6177 C   0  0  0  0  0  0  0  0  0  0  0  0
   -3.3113    1.6697    1.4300 N   0  0  0  0  0  0  0  0  0  0  0  0
   -4.7529    2.1166    1.4413 C   0  0  0  0  0  0  0  0  0  0  0  0
   -6.5330   -2.0201   -1.6823 H   0  0  0  0  0  0  0  0  0  0  0  0
   -6.1769   -2.8526   -0.1524 H   0  0  0  0  0  0  0  0  0  0  0  0
   -7.8253   -2.3285   -0.5121 H   0  0  0  0  0  0  0  0  0  0  0  0
   -2.4131   -1.9444    1.1222 H   0  0  0  0  0  0  0  0  0  0  0  0
   -4.1087   -2.3934    1.2375 H   0  0  0  0  0  0  0  0  0  0  0  0
   -3.4916   -1.0861    2.2409 H   0  0  0  0  0  0  0  0  0  0  0  0
   -4.0271   -2.2164   -1.2540 H   0  0  0  0  0  0  0  0  0  0  0  0
   -2.4856   -1.3882   -1.4244 H   0  0  0  0  0  0  0  0  0  0  0  0
   -3.9698   -0.6553   -2.0631 H   0  0  0  0  0  0  0  0  0  0  0  0
   -2.5136    2.6899   -0.8942 H   0  0  0  0  0  0  0  0  0  0  0  0
   -4.0750    1.9533   -1.2508 H   0  0  0  0  0  0  0  0  0  0  0  0
   -2.6124    1.2633   -1.9292 H   0  0  0  0  0  0  0  0  0  0  0  0
   -1.1909    0.0134    1.4262 H   0  0  0  0  0  0  0  0  0  0  0  0
   -0.3704    1.2319   -1.2736 H   0  0  0  0  0  0  0  0  0  0  0  0
    1.7697    0.7330   -1.6756 H   0  0  0  0  0  0  0  0  0  0  0  0
    3.8104   -0.2020   -2.6055 H   0  0  0  0  0  0  0  0  0  0  0  0
    4.1064    1.4585   -2.1159 H   0  0  0  0  0  0  0  0  0  0  0  0
    6.2513    0.2720   -2.5457 H   0  0  0  0  0  0  0  0  0  0  0  0
    7.3560    0.7816   -0.3659 H   0  0  0  0  0  0  0  0  0  0  0  0
    6.2029    2.0444   -0.7909 H   0  0  0  0  0  0  0  0  0  0  0  0
    5.9498    1.3842    1.6029 H   0  0  0  0  0  0  0  0  0  0  0  0
    6.7375   -0.9715    1.3853 H   0  0  0  0  0  0  0  0  0  0  0  0
    5.1575   -0.9177    2.1634 H   0  0  0  0  0  0  0  0  0  0  0  0
    5.2212   -2.6906    0.4044 H   0  0  0  0  0  0  0  0  0  0  0  0
    5.4733   -2.0322   -1.9903 H   0  0  0  0  0  0  0  0  0  0  0  0
    6.9245   -1.6297   -1.0754 H   0  0  0  0  0  0  0  0  0  0  0  0
    3.0748   -1.5448    0.8414 H   0  0  0  0  0  0  0  0  0  0  0  0
    3.1916   -1.9704   -0.8574 H   0  0  0  0  0  0  0  0  0  0  0  0
    3.9243    2.1287    0.3479 H   0  0  0  0  0  0  0  0  0  0  0  0
    3.5207    0.9378    1.5721 H   0  0  0  0  0  0  0  0  0  0  0  0
   -3.1552    1.1209    2.2847 H   0  0  0  0  0  0  0  0  0  0  0  0
   -2.7023    2.4927    1.5192 H   0  0  0  0  0  0  0  0  0  0  0  0
   -4.8134    3.0149    0.8202 H   0  0  0  0  0  0  0  0  0  0  0  0
   -4.9908    2.3747    2.4768 H   0  0  0  0  0  0  0  0  0  0  0  0
  1  2  1  0
  2  3  2  0
  3  4  1  0
  4  5  1  0
  5  6  2  0
  6  7  1  0
  7  8  1  0
  7  9  1  0
  7 10  1  0
 10 11  1  6
 10 12  1  0
 12 13  2  0
 13 14  1  0
 14 15  2  0
 14 16  1  0
 17 16  1  6
 17 18  1  0
 18 19  1  0
 19 20  1  0
 20 21  1  0
 21 22  1  0
 22 23  1  0
 23 24  1  0
 23 25  1  0
 21 26  1  0
 10 27  1  0
 27 28  1  0
  6  2  1  0
 25 17  1  0
 28  5  1  0
 26 17  1  0
 24 19  1  0
  1 29  1  0
  1 30  1  0
  1 31  1  0
  8 32  1  0
  8 33  1  0
  8 34  1  0
  9 35  1  0
  9 36  1  0
  9 37  1  0
 11 38  1  0
 11 39  1  0
 11 40  1  0
 12 41  1  0
 13 42  1  0
 16 43  1  0
 18 44  1  0
 18 45  1  0
 19 46  1  6
 20 47  1  0
 20 48  1  0
 21 49  1  1
 22 50  1  0
 22 51  1  0
 23 52  1  1
 24 53  1  0
 24 54  1  0
 25 55  1  0
 25 56  1  0
 26 57  1  0
 26 58  1  0
 27 59  1  0
 27 60  1  0
 28 61  1  0
 28 62  1  0
M  CHG  1  27   1
M  END
>  <_SMILES>  (67) 
Cc1noc2c1C(C)(C)[C@](C)(/C=C/C(=O)N[C@]13C[C@H]4C[C@H](C[C@H](C4)C1)C3)[NH2+]C2

$$$$

     RDKit          3D

 62 66  0  0  0  0  0  0  0  0999 V2000
   -6.9012    1.3421    0.8599 C   0  0  0  0  0  0  0  0  0  0  0  0
   -6.3188   -0.0187    0.7583 C   0  0  0  0  0  0  0  0  0  0  0  0
   -7.1127   -1.0850    0.9407 N   0  0  0  0  0  0  0  0  0  0  0  0
   -6.3128   -2.2000    0.8056 O   0  0  0  0  0  0  0  0  0  0  0  0
   -5.0583   -1.7934    0.5466 C   0  0  0  0  0  0  0  0  0  0  0  0
   -4.9821   -0.4240    0.4871 C   0  0  0  0  0  0  0  0  0  0  0  0
   -3.6720    0.3112    0.2268 C   0  0  0  0  0  0  0  0  0  0  0  0
   -3.9296    1.5298   -0.6873 C   0  0  0  0  0  0  0  0  0  0  0  0
   -3.1669    0.8069    1.6078 C   0  0  0  0  0  0  0  0  0  0  0  0
   -2.6097   -0.7313   -0.4620 C   0  0  1  0  0  0  0  0  0  0  0  0
   -2.9891   -1.0447   -1.9332 C   0  0  0  0  0  0  0  0  0  0  0  0
   -1.1279   -0.3522   -0.5075 C   0  0  0  0  0  0  0  0  0  0  0  0
   -0.5353    0.8459   -0.3672 C   0  0  0  0  0  0  0  0  0  0  0  0
    0.9175    1.0213   -0.6231 C   0  0  0  0  0  0  0  0  0  0  0  0
    1.2805    1.9029   -1.3848 O   0  0  0  0  0  0  0  0  0  0  0  0
    1.7203    0.1651    0.0851 N   0  0  0  0  0  0  0  0  0  0  0  0
    3.1908    0.2226    0.0689 C   0  0  2  0  0  0  0  0  0  0  0  0
    3.7147    1.5595    0.6481 C   0  0  0  0  0  0  0  0  0  0  0  0
    5.2535    1.5715    0.6727 C   0  0  1  0  0  0  0  0  0  0  0  0
    5.7567    0.4177    1.5545 C   0  0  0  0  0  0  0  0  0  0  0  0
    5.2693   -0.9261    0.9900 C   0  0  2  0  0  0  0  0  0  0  0  0
    5.8052   -1.1026   -0.4390 C   0  0  0  0  0  0  0  0  0  0  0  0
    5.3013    0.0414   -1.3322 C   0  0  2  0  0  0  0  0  0  0  0  0
    5.7849    1.3844   -0.7587 C   0  0  0  0  0  0  0  0  0  0  0  0
    3.7625    0.0274   -1.3586 C   0  0  0  0  0  0  0  0  0  0  0  0
    3.7328   -0.9311    0.9561 C   0  0  0  0  0  0  0  0  0  0  0  0
   -2.6662   -2.0806    0.3032 N   0  0  0  0  0  0  0  0  0  0  0  0
   -4.0037   -2.7813    0.3432 C   0  0  0  0  0  0  0  0  0  0  0  0
   -7.9106    1.3163    1.2842 H   0  0  0  0  0  0  0  0  0  0  0  0
   -6.2883    1.9789    1.5047 H   0  0  0  0  0  0  0  0  0  0  0  0
   -6.9643    1.8034   -0.1304 H   0  0  0  0  0  0  0  0  0  0  0  0
   -4.5280    1.2558   -1.5639 H   0  0  0  0  0  0  0  0  0  0  0  0
   -3.0077    1.9857   -1.0523 H   0  0  0  0  0  0  0  0  0  0  0  0
   -4.4788    2.3170   -0.1595 H   0  0  0  0  0  0  0  0  0  0  0  0
   -3.9399    1.3896    2.1239 H   0  0  0  0  0  0  0  0  0  0  0  0
   -2.2951    1.4586    1.5343 H   0  0  0  0  0  0  0  0  0  0  0  0
   -2.9094   -0.0271    2.2696 H   0  0  0  0  0  0  0  0  0  0  0  0
   -2.7942   -0.1840   -2.5843 H   0  0  0  0  0  0  0  0  0  0  0  0
   -4.0460   -1.3018   -2.0528 H   0  0  0  0  0  0  0  0  0  0  0  0
   -2.4039   -1.8842   -2.3294 H   0  0  0  0  0  0  0  0  0  0  0  0
   -0.4610   -1.1700   -0.7943 H   0  0  0  0  0  0  0  0  0  0  0  0
   -1.0494    1.7858   -0.2148 H   0  0  0  0  0  0  0  0  0  0  0  0
    1.3053   -0.3294    0.8606 H   0  0  0  0  0  0  0  0  0  0  0  0
    3.3238    1.7100    1.6630 H   0  0  0  0  0  0  0  0  0  0  0  0
    3.3586    2.4090    0.0532 H   0  0  0  0  0  0  0  0  0  0  0  0
    5.6081    2.5264    1.0766 H   0  0  0  0  0  0  0  0  0  0  0  0
    6.8527    0.4302    1.5986 H   0  0  0  0  0  0  0  0  0  0  0  0
    5.3954    0.5461    2.5823 H   0  0  0  0  0  0  0  0  0  0  0  0
    5.6283   -1.7451    1.6232 H   0  0  0  0  0  0  0  0  0  0  0  0
    6.9020   -1.1158   -0.4293 H   0  0  0  0  0  0  0  0  0  0  0  0
    5.4788   -2.0676   -0.8457 H   0  0  0  0  0  0  0  0  0  0  0  0
    5.6886   -0.0868   -2.3492 H   0  0  0  0  0  0  0  0  0  0  0  0
    6.8814    1.4168   -0.7573 H   0  0  0  0  0  0  0  0  0  0  0  0
    5.4431    2.2091   -1.3961 H   0  0  0  0  0  0  0  0  0  0  0  0
    3.4143    0.8165   -2.0346 H   0  0  0  0  0  0  0  0  0  0  0  0
    3.4040   -0.9200   -1.7821 H   0  0  0  0  0  0  0  0  0  0  0  0
    3.3726   -1.8977    0.5793 H   0  0  0  0  0  0  0  0  0  0  0  0
    3.3423   -0.8367    1.9784 H   0  0  0  0  0  0  0  0  0  0  0  0
   -1.9837   -2.7392   -0.0890 H   0  0  0  0  0  0  0  0  0  0  0  0
   -2.3777   -1.9107    1.2737 H   0  0  0  0  0  0  0  0  0  0  0  0
   -4.1171   -3.3087   -0.6083 H   0  0  0  0  0  0  0  0  0  0  0  0
   -3.9481   -3.5092    1.1572 H   0  0  0  0  0  0  0  0  0  0  0  0
  1  2  1  0
  2  3  2  0
  3  4  1  0
  4  5  1  0
  5  6  2  0
  6  7  1  0
  7  8  1  0
  7  9  1  0
  7 10  1  0
 10 11  1  6
 10 12  1  0
 12 13  2  0
 13 14  1  0
 14 15  2  0
 14 16  1  0
 17 16  1  6
 17 18  1  0
 18 19  1  0
 19 20  1  0
 20 21  1  0
 21 22  1  0
 22 23  1  0
 23 24  1  0
 23 25  1  0
 21 26  1  0
 10 27  1  0
 27 28  1  0
  6  2  1  0
 25 17  1  0
 28  5  1  0
 26 17  1  0
 24 19  1  0
  1 29  1  0
  1 30  1  0
  1 31  1  0
  8 32  1  0
  8 33  1  0
  8 34  1  0
  9 35  1  0
  9 36  1  0
  9 37  1  0
 11 38  1  0
 11 39  1  0
 11 40  1  0
 12 41  1  0
 13 42  1  0
 16 43  1  0
 18 44  1  0
 18 45  1  0
 19 46  1  1
 20 47  1  0
 20 48  1  0
 21 49  1  1
 22 50  1  0
 22 51  1  0
 23 52  1  6
 24 53  1  0
 24 54  1  0
 25 55  1  0
 25 56  1  0
 26 57  1  0
 26 58  1  0
 27 59  1  0
 27 60  1  0
 28 61  1  0
 28 62  1  0
M  CHG  1  27   1
M  END
>  <_SMILES>  (68) 
Cc1noc2c1C(C)(C)[C@@](C)(/C=C/C(=O)N[C@]13C[C@H]4C[C@H](C[C@H](C4)C1)C3)[NH2+]C2

$$$$

     RDKit          3D

 66 71  0  0  0  0  0  0  0  0999 V2000
    1.2967    1.7556    0.9103 O   0  0  0  0  0  0  0  0  0  0  0  0
    0.9843    0.6541    0.4711 C   0  0  0  0  0  0  0  0  0  0  0  0
    1.8939   -0.2339   -0.0763 N   0  0  0  0  0  0  0  0  0  0  0  0
    3.3287    0.0290   -0.2243 C   0  0  2  0  0  0  0  0  0  0  0  0
    3.5976    1.2226   -1.1731 C   0  0  0  0  0  0  0  0  0  0  0  0
    5.1106    1.4383   -1.3550 C   0  0  1  0  0  0  0  0  0  0  0  0
    5.7523    1.7114    0.0162 C   0  0  0  0  0  0  0  0  0  0  0  0
    5.5246    0.5148    0.9557 C   0  0  2  0  0  0  0  0  0  0  0  0
    6.1472   -0.7445    0.3336 C   0  0  0  0  0  0  0  0  0  0  0  0
    5.5026   -1.0273   -1.0319 C   0  0  2  0  0  0  0  0  0  0  0  0
    5.7350    0.1726   -1.9634 C   0  0  0  0  0  0  0  0  0  0  0  0
    3.9915   -1.2328   -0.8426 C   0  0  0  0  0  0  0  0  0  0  0  0
    4.0122    0.2972    1.1405 C   0  0  0  0  0  0  0  0  0  0  0  0
   -0.4128    0.1713    0.4657 C   0  0  0  0  0  0  0  0  0  0  0  0
   -1.4268    0.9985    0.1664 N   0  0  0  0  0  0  0  0  0  0  0  0
   -2.5379    0.2497    0.2729 N   0  0  0  0  0  0  0  0  0  0  0  0
   -3.8419    0.8724    0.0258 C   0  0  0  0  0  0  0  0  0  0  0  0
   -4.0646    2.1381    0.8814 C   0  0  0  0  0  0  0  0  0  0  0  0
   -3.8385    3.4216    0.0885 C   0  0  0  0  0  0  0  0  0  0  0  0
   -4.7617    3.5162   -1.1276 C   0  0  0  0  0  0  0  0  0  0  0  0
   -5.1323    2.1586   -1.7268 C   0  0  0  0  0  0  0  0  0  0  0  0
   -4.0512    1.1145   -1.4801 C   0  0  0  0  0  0  0  0  0  0  0  0
   -2.2767   -1.0611    0.5971 C   0  0  0  0  0  0  0  0  0  0  0  0
   -3.2976   -2.0893    0.7410 C   0  0  0  0  0  0  0  0  0  0  0  0
   -3.8156   -2.3957    2.0039 C   0  0  0  0  0  0  0  0  0  0  0  0
   -4.7996   -3.3765    2.1384 C   0  0  0  0  0  0  0  0  0  0  0  0
   -5.2675   -4.0548    1.0136 C   0  0  0  0  0  0  0  0  0  0  0  0
   -4.7517   -3.7558   -0.2469 C   0  0  0  0  0  0  0  0  0  0  0  0
   -3.7673   -2.7758   -0.3842 C   0  0  0  0  0  0  0  0  0  0  0  0
   -0.8981   -1.1391    0.7567 C   0  0  0  0  0  0  0  0  0  0  0  0
   -0.0579   -2.2937    1.1438 C   0  0  0  0  0  0  0  0  0  0  0  0
    0.7156   -2.6975    0.0986 F   0  0  0  0  0  0  0  0  0  0  0  0
   -0.7666   -3.3789    1.5408 F   0  0  0  0  0  0  0  0  0  0  0  0
    0.7879   -1.9904    2.1604 F   0  0  0  0  0  0  0  0  0  0  0  0
    1.5223   -1.0143   -0.6043 H   0  0  0  0  0  0  0  0  0  0  0  0
    3.1497    2.1433   -0.7810 H   0  0  0  0  0  0  0  0  0  0  0  0
    3.1260    1.0432   -2.1482 H   0  0  0  0  0  0  0  0  0  0  0  0
    5.2837    2.2915   -2.0204 H   0  0  0  0  0  0  0  0  0  0  0  0
    6.8275    1.8924   -0.1041 H   0  0  0  0  0  0  0  0  0  0  0  0
    5.3238    2.6203    0.4561 H   0  0  0  0  0  0  0  0  0  0  0  0
    5.9897    0.7145    1.9276 H   0  0  0  0  0  0  0  0  0  0  0  0
    6.0038   -1.6029    1.0014 H   0  0  0  0  0  0  0  0  0  0  0  0
    7.2295   -0.6094    0.2167 H   0  0  0  0  0  0  0  0  0  0  0  0
    5.9466   -1.9276   -1.4710 H   0  0  0  0  0  0  0  0  0  0  0  0
    6.8103    0.3231   -2.1195 H   0  0  0  0  0  0  0  0  0  0  0  0
    5.2951   -0.0262   -2.9484 H   0  0  0  0  0  0  0  0  0  0  0  0
    3.5280   -1.4667   -1.8105 H   0  0  0  0  0  0  0  0  0  0  0  0
    3.8130   -2.1055   -0.1999 H   0  0  0  0  0  0  0  0  0  0  0  0
    3.5863    1.1809    1.6290 H   0  0  0  0  0  0  0  0  0  0  0  0
    3.8357   -0.5450    1.8225 H   0  0  0  0  0  0  0  0  0  0  0  0
   -4.5945    0.1479    0.3590 H   0  0  0  0  0  0  0  0  0  0  0  0
   -3.4328    2.1318    1.7776 H   0  0  0  0  0  0  0  0  0  0  0  0
   -5.1024    2.1396    1.2408 H   0  0  0  0  0  0  0  0  0  0  0  0
   -2.7948    3.4657   -0.2453 H   0  0  0  0  0  0  0  0  0  0  0  0
   -3.9929    4.2947    0.7328 H   0  0  0  0  0  0  0  0  0  0  0  0
   -5.6845    4.0417   -0.8530 H   0  0  0  0  0  0  0  0  0  0  0  0
   -4.2742    4.1368   -1.8894 H   0  0  0  0  0  0  0  0  0  0  0  0
   -5.3162    2.2690   -2.8015 H   0  0  0  0  0  0  0  0  0  0  0  0
   -6.0745    1.8112   -1.2842 H   0  0  0  0  0  0  0  0  0  0  0  0
   -3.1215    1.4453   -1.9610 H   0  0  0  0  0  0  0  0  0  0  0  0
   -4.3258    0.1708   -1.9671 H   0  0  0  0  0  0  0  0  0  0  0  0
   -3.4571   -1.8762    2.8897 H   0  0  0  0  0  0  0  0  0  0  0  0
   -5.1983   -3.6143    3.1214 H   0  0  0  0  0  0  0  0  0  0  0  0
   -6.0317   -4.8208    1.1204 H   0  0  0  0  0  0  0  0  0  0  0  0
   -5.1139   -4.2892   -1.1222 H   0  0  0  0  0  0  0  0  0  0  0  0
   -3.3707   -2.5548   -1.3724 H   0  0  0  0  0  0  0  0  0  0  0  0
  1  2  2  0
  2  3  1  0
  4  3  1  1
  4  5  1  0
  5  6  1  0
  6  7  1  0
  7  8  1  0
  8  9  1  0
  9 10  1  0
 10 11  1  0
 10 12  1  0
  8 13  1  0
  2 14  1  0
 14 15  2  0
 15 16  1  0
 16 17  1  0
 17 18  1  0
 18 19  1  0
 19 20  1  0
 20 21  1  0
 21 22  1  0
 16 23  1  0
 23 24  1  0
 24 25  2  0
 25 26  1  0
 26 27  2  0
 27 28  1  0
 28 29  2  0
 23 30  2  0
 30 31  1  0
 31 32  1  0
 31 33  1  0
 31 34  1  0
 12  4  1  0
 30 14  1  0
 13  4  1  0
 22 17  1  0
 29 24  1  0
 11  6  1  0
  3 35  1  0
  5 36  1  0
  5 37  1  0
  6 38  1  6
  7 39  1  0
  7 40  1  0
  8 41  1  1
  9 42  1  0
  9 43  1  0
 10 44  1  6
 11 45  1  0
 11 46  1  0
 12 47  1  0
 12 48  1  0
 13 49  1  0
 13 50  1  0
 17 51  1  0
 18 52  1  0
 18 53  1  0
 19 54  1  0
 19 55  1  0
 20 56  1  0
 20 57  1  0
 21 58  1  0
 21 59  1  0
 22 60  1  0
 22 61  1  0
 25 62  1  0
 26 63  1  0
 27 64  1  0
 28 65  1  0
 29 66  1  0
M  END
>  <_SMILES>  (69) 
O=C(N[C@]12C[C@H]3C[C@H](C[C@H](C3)C1)C2)c1nn(C2CCCCC2)c(-c2ccccc2)c1C(F)(F)F

$$$$

     RDKit          3D

 47 51  0  0  0  0  0  0  0  0999 V2000
    3.5216   -1.8981   -0.1519 C   0  0  0  0  0  0  0  0  0  0  0  0
    3.2108   -0.4864    0.1903 C   0  0  0  0  0  0  0  0  0  0  0  0
    1.9090    0.1178    0.2791 C   0  0  0  0  0  0  0  0  0  0  0  0
    0.5788   -0.4958    0.0582 C   0  0  0  0  0  0  0  0  0  0  0  0
    0.4171   -1.6716   -0.2475 O   0  0  0  0  0  0  0  0  0  0  0  0
   -0.4509    0.4041    0.2354 N   0  0  0  0  0  0  0  0  0  0  0  0
   -1.8766    0.1276    0.0951 C   0  0  2  0  0  0  0  0  0  0  0  0
   -2.3507   -0.9498    1.1017 C   0  0  0  0  0  0  0  0  0  0  0  0
   -3.8651   -1.1878    0.9664 C   0  0  1  0  0  0  0  0  0  0  0  0
   -4.6132    0.1234    1.2541 C   0  0  0  0  0  0  0  0  0  0  0  0
   -4.1770    1.2065    0.2551 C   0  0  2  0  0  0  0  0  0  0  0  0
   -4.4936    0.7383   -1.1739 C   0  0  0  0  0  0  0  0  0  0  0  0
   -3.7448   -0.5694   -1.4758 C   0  0  2  0  0  0  0  0  0  0  0  0
   -4.1792   -1.6470   -0.4677 C   0  0  0  0  0  0  0  0  0  0  0  0
   -2.2304   -0.3311   -1.3412 C   0  0  0  0  0  0  0  0  0  0  0  0
   -2.6626    1.4335    0.3871 C   0  0  0  0  0  0  0  0  0  0  0  0
    2.0000    1.4239    0.6143 N   0  0  0  0  0  0  0  0  0  0  0  0
    3.3156    1.6371    0.7331 N   0  0  0  0  0  0  0  0  0  0  0  0
    4.0900    0.5403    0.4935 C   0  0  0  0  0  0  0  0  0  0  0  0
    5.6552    0.5601    0.5756 C   0  0  0  0  0  0  0  0  0  0  0  0
    6.4252    1.7188    0.9069 C   0  0  0  0  0  0  0  0  0  0  0  0
    7.7804    1.4676    0.9100 C   0  0  0  0  0  0  0  0  0  0  0  0
    8.1310   -0.1567    0.5160 S   0  0  0  0  0  0  0  0  0  0  0  0
    6.4668   -0.5271    0.3403 C   0  0  0  0  0  0  0  0  0  0  0  0
    2.6316   -2.4977   -0.3475 H   0  0  0  0  0  0  0  0  0  0  0  0
    4.1414   -1.9439   -1.0531 H   0  0  0  0  0  0  0  0  0  0  0  0
    4.0566   -2.3808    0.6723 H   0  0  0  0  0  0  0  0  0  0  0  0
   -0.1353    1.3386    0.4876 H   0  0  0  0  0  0  0  0  0  0  0  0
   -2.1116   -0.6395    2.1273 H   0  0  0  0  0  0  0  0  0  0  0  0
   -1.8239   -1.8974    0.9375 H   0  0  0  0  0  0  0  0  0  0  0  0
   -4.1824   -1.9577    1.6787 H   0  0  0  0  0  0  0  0  0  0  0  0
   -5.6957   -0.0390    1.1819 H   0  0  0  0  0  0  0  0  0  0  0  0
   -4.4087    0.4546    2.2796 H   0  0  0  0  0  0  0  0  0  0  0  0
   -4.7109    2.1399    0.4651 H   0  0  0  0  0  0  0  0  0  0  0  0
   -5.5740    0.5865   -1.2879 H   0  0  0  0  0  0  0  0  0  0  0  0
   -4.2030    1.5119   -1.8953 H   0  0  0  0  0  0  0  0  0  0  0  0
   -3.9769   -0.9009   -2.4940 H   0  0  0  0  0  0  0  0  0  0  0  0
   -5.2535   -1.8434   -0.5704 H   0  0  0  0  0  0  0  0  0  0  0  0
   -3.6614   -2.5903   -0.6811 H   0  0  0  0  0  0  0  0  0  0  0  0
   -1.6990   -1.2550   -1.5990 H   0  0  0  0  0  0  0  0  0  0  0  0
   -1.9048    0.4234   -2.0694 H   0  0  0  0  0  0  0  0  0  0  0  0
   -2.3459    2.2270   -0.3031 H   0  0  0  0  0  0  0  0  0  0  0  0
   -2.4296    1.7963    1.3973 H   0  0  0  0  0  0  0  0  0  0  0  0
    3.6273    2.5677    0.9841 H   0  0  0  0  0  0  0  0  0  0  0  0
    6.0231    2.6971    1.1348 H   0  0  0  0  0  0  0  0  0  0  0  0
    8.5831    2.1599    1.1249 H   0  0  0  0  0  0  0  0  0  0  0  0
    6.1958   -1.5357    0.0715 H   0  0  0  0  0  0  0  0  0  0  0  0
  1  2  1  0
  2  3  1  0
  3  4  1  0
  4  5  2  0
  4  6  1  0
  7  6  1  6
  7  8  1  0
  8  9  1  0
  9 10  1  0
 10 11  1  0
 11 12  1  0
 12 13  1  0
 13 14  1  0
 13 15  1  0
 11 16  1  0
  3 17  2  0
 17 18  1  0
 18 19  1  0
 19 20  1  0
 20 21  1  0
 21 22  2  0
 22 23  1  0
 23 24  1  0
 19  2  2  0
 24 20  2  0
 15  7  1  0
 16  7  1  0
 14  9  1  0
  1 25  1  0
  1 26  1  0
  1 27  1  0
  6 28  1  0
  8 29  1  0
  8 30  1  0
  9 31  1  1
 10 32  1  0
 10 33  1  0
 11 34  1  1
 12 35  1  0
 12 36  1  0
 13 37  1  6
 14 38  1  0
 14 39  1  0
 15 40  1  0
 15 41  1  0
 16 42  1  0
 16 43  1  0
 18 44  1  0
 21 45  1  0
 22 46  1  0
 24 47  1  0
M  END
>  <_SMILES>  (70) 
Cc1c(C(=O)N[C@]23C[C@H]4C[C@H](C[C@H](C4)C2)C3)n[nH]c1-c1ccsc1

$$$$

     RDKit          3D

 47 51  0  0  0  0  0  0  0  0999 V2000
    3.3788   -0.6462   -1.7858 C   0  0  0  0  0  0  0  0  0  0  0  0
    3.1721    0.1037   -0.5194 C   0  0  0  0  0  0  0  0  0  0  0  0
    4.1390    0.5547    0.4237 C   0  0  0  0  0  0  0  0  0  0  0  0
    5.5984    0.4029    0.3340 C   0  0  0  0  0  0  0  0  0  0  0  0
    6.3421    0.4767   -0.8828 C   0  0  0  0  0  0  0  0  0  0  0  0
    7.6954    0.3097   -0.6775 C   0  0  0  0  0  0  0  0  0  0  0  0
    8.0723    0.0847    0.9756 S   0  0  0  0  0  0  0  0  0  0  0  0
    6.4267    0.2198    1.4229 C   0  0  0  0  0  0  0  0  0  0  0  0
    3.5685    1.1430    1.4815 N   0  0  0  0  0  0  0  0  0  0  0  0
    2.2662    1.1501    1.1794 N   0  0  0  0  0  0  0  0  0  0  0  0
    1.9523    0.5009    0.0187 C   0  0  0  0  0  0  0  0  0  0  0  0
    0.6146    0.3582   -0.5040 C   0  0  0  0  0  0  0  0  0  0  0  0
    0.3757    0.2949   -1.7033 O   0  0  0  0  0  0  0  0  0  0  0  0
   -0.3610    0.2738    0.4712 N   0  0  0  0  0  0  0  0  0  0  0  0
   -1.7857    0.0444    0.1927 C   0  0  2  0  0  0  0  0  0  0  0  0
   -2.3928    1.1566   -0.7007 C   0  0  0  0  0  0  0  0  0  0  0  0
   -3.8961    0.9125   -0.9239 C   0  0  1  0  0  0  0  0  0  0  0  0
   -4.0917   -0.4580   -1.5946 C   0  0  0  0  0  0  0  0  0  0  0  0
   -3.5276   -1.5727   -0.6972 C   0  0  2  0  0  0  0  0  0  0  0  0
   -4.2525   -1.5476    0.6578 C   0  0  0  0  0  0  0  0  0  0  0  0
   -4.0528   -0.1827    1.3351 C   0  0  2  0  0  0  0  0  0  0  0  0
   -4.6198    0.9224    0.4312 C   0  0  0  0  0  0  0  0  0  0  0  0
   -2.5499    0.0604    1.5455 C   0  0  0  0  0  0  0  0  0  0  0  0
   -2.0238   -1.3326   -0.4744 C   0  0  0  0  0  0  0  0  0  0  0  0
    3.5537    0.0471   -2.6143 H   0  0  0  0  0  0  0  0  0  0  0  0
    2.5079   -1.2616   -2.0326 H   0  0  0  0  0  0  0  0  0  0  0  0
    4.2325   -1.3266   -1.7102 H   0  0  0  0  0  0  0  0  0  0  0  0
    5.9210    0.6561   -1.8636 H   0  0  0  0  0  0  0  0  0  0  0  0
    8.4838    0.3184   -1.4176 H   0  0  0  0  0  0  0  0  0  0  0  0
    6.1383    0.1541    2.4633 H   0  0  0  0  0  0  0  0  0  0  0  0
    1.6319    1.6287    1.8095 H   0  0  0  0  0  0  0  0  0  0  0  0
   -0.0434   -0.0277    1.3822 H   0  0  0  0  0  0  0  0  0  0  0  0
   -1.8957    1.1972   -1.6762 H   0  0  0  0  0  0  0  0  0  0  0  0
   -2.2381    2.1394   -0.2365 H   0  0  0  0  0  0  0  0  0  0  0  0
   -4.3058    1.7000   -1.5664 H   0  0  0  0  0  0  0  0  0  0  0  0
   -3.5907   -0.4728   -2.5704 H   0  0  0  0  0  0  0  0  0  0  0  0
   -5.1583   -0.6332   -1.7819 H   0  0  0  0  0  0  0  0  0  0  0  0
   -3.6779   -2.5458   -1.1780 H   0  0  0  0  0  0  0  0  0  0  0  0
   -5.3226   -1.7415    0.5139 H   0  0  0  0  0  0  0  0  0  0  0  0
   -3.8682   -2.3468    1.3035 H   0  0  0  0  0  0  0  0  0  0  0  0
   -4.5687   -0.1706    2.3017 H   0  0  0  0  0  0  0  0  0  0  0  0
   -5.6960    0.7704    0.2829 H   0  0  0  0  0  0  0  0  0  0  0  0
   -4.4998    1.9003    0.9134 H   0  0  0  0  0  0  0  0  0  0  0  0
   -2.1445   -0.7082    2.2173 H   0  0  0  0  0  0  0  0  0  0  0  0
   -2.3967    1.0219    2.0537 H   0  0  0  0  0  0  0  0  0  0  0  0
   -1.5045   -1.3959   -1.4380 H   0  0  0  0  0  0  0  0  0  0  0  0
   -1.6068   -2.1322    0.1517 H   0  0  0  0  0  0  0  0  0  0  0  0
  1  2  1  0
  2  3  1  0
  3  4  1  0
  4  5  1  0
  5  6  2  0
  6  7  1  0
  7  8  1  0
  3  9  2  0
  9 10  1  0
 10 11  1  0
 11 12  1  0
 12 13  2  0
 12 14  1  0
 15 14  1  1
 15 16  1  0
 16 17  1  0
 17 18  1  0
 18 19  1  0
 19 20  1  0
 20 21  1  0
 21 22  1  0
 21 23  1  0
 19 24  1  0
 11  2  2  0
 23 15  1  0
  8  4  2  0
 24 15  1  0
 22 17  1  0
  1 25  1  0
  1 26  1  0
  1 27  1  0
  5 28  1  0
  6 29  1  0
  8 30  1  0
 10 31  1  0
 14 32  1  0
 16 33  1  0
 16 34  1  0
 17 35  1  6
 18 36  1  0
 18 37  1  0
 19 38  1  6
 20 39  1  0
 20 40  1  0
 21 41  1  1
 22 42  1  0
 22 43  1  0
 23 44  1  0
 23 45  1  0
 24 46  1  0
 24 47  1  0
M  END
>  <_SMILES>  (71) 
Cc1c(-c2ccsc2)n[nH]c1C(=O)N[C@]12C[C@H]3C[C@H](C[C@H](C3)C1)C2

$$$$

     RDKit          3D

 67 72  0  0  0  0  0  0  0  0999 V2000
    8.6690    0.7460    0.2080 C   0  0  0  0  0  0  0  0  0  0  0  0
    7.7144    0.8404    1.3855 C   0  0  0  0  0  0  0  0  0  0  0  0
    6.4695    0.2146    1.0807 O   0  0  0  0  0  0  0  0  0  0  0  0
    5.4800    0.9547    0.4940 C   0  0  0  0  0  0  0  0  0  0  0  0
    5.5877    2.2723    0.0550 C   0  0  0  0  0  0  0  0  0  0  0  0
    4.4854    2.9086   -0.5151 C   0  0  0  0  0  0  0  0  0  0  0  0
    3.2765    2.2263   -0.6586 C   0  0  0  0  0  0  0  0  0  0  0  0
    3.1547    0.8887   -0.2456 C   0  0  0  0  0  0  0  0  0  0  0  0
    1.8944    0.2278   -0.4163 N   0  0  0  0  0  0  0  0  0  0  0  0
    0.8099    0.9896   -0.7143 N   0  0  0  0  0  0  0  0  0  0  0  0
   -0.2460    0.1691   -0.7040 C   0  0  0  0  0  0  0  0  0  0  0  0
   -1.6096    0.6924   -0.9272 C   0  0  0  0  0  0  0  0  0  0  0  0
   -1.8599    1.5663   -1.7506 O   0  0  0  0  0  0  0  0  0  0  0  0
   -2.5642    0.1256   -0.0983 N   0  0  0  0  0  0  0  0  0  0  0  0
   -3.9677    0.5417   -0.0394 C   0  0  2  0  0  0  0  0  0  0  0  0
   -4.6983   -0.3646    0.9890 C   0  0  0  0  0  0  0  0  0  0  0  0
   -6.1813    0.0201    1.1098 C   0  0  1  0  0  0  0  0  0  0  0  0
   -6.2866    1.4850    1.5625 C   0  0  0  0  0  0  0  0  0  0  0  0
   -5.5938    2.4013    0.5416 C   0  0  2  0  0  0  0  0  0  0  0  0
   -6.2666    2.2307   -0.8312 C   0  0  0  0  0  0  0  0  0  0  0  0
   -6.1657    0.7666   -1.2925 C   0  0  2  0  0  0  0  0  0  0  0  0
   -6.8559   -0.1391   -0.2611 C   0  0  0  0  0  0  0  0  0  0  0  0
   -4.6821    0.3727   -1.4046 C   0  0  0  0  0  0  0  0  0  0  0  0
   -4.1095    2.0098    0.4314 C   0  0  0  0  0  0  0  0  0  0  0  0
    0.1611   -1.1761   -0.4792 C   0  0  0  0  0  0  0  0  0  0  0  0
   -0.6953   -2.3934   -0.4927 C   0  0  0  0  0  0  0  0  0  0  0  0
    1.5417   -1.1196   -0.3134 C   0  0  0  0  0  0  0  0  0  0  0  0
    2.4529   -2.2531   -0.1716 C   0  0  0  0  0  0  0  0  0  0  0  0
    2.4705   -2.9998    1.0134 C   0  0  0  0  0  0  0  0  0  0  0  0
    3.3262   -4.0953    1.1417 C   0  0  0  0  0  0  0  0  0  0  0  0
    4.1607   -4.4562    0.0846 C   0  0  0  0  0  0  0  0  0  0  0  0
    4.1384   -3.7264   -1.1032 C   0  0  0  0  0  0  0  0  0  0  0  0
    3.2835   -2.6308   -1.2343 C   0  0  0  0  0  0  0  0  0  0  0  0
    4.2648    0.2701    0.3414 C   0  0  0  0  0  0  0  0  0  0  0  0
    9.6469    1.1603    0.4694 H   0  0  0  0  0  0  0  0  0  0  0  0
    8.7993   -0.2979   -0.0964 H   0  0  0  0  0  0  0  0  0  0  0  0
    8.2850    1.2840   -0.6637 H   0  0  0  0  0  0  0  0  0  0  0  0
    8.1446    0.2793    2.2231 H   0  0  0  0  0  0  0  0  0  0  0  0
    7.5926    1.8676    1.7460 H   0  0  0  0  0  0  0  0  0  0  0  0
    6.5102    2.8354    0.1387 H   0  0  0  0  0  0  0  0  0  0  0  0
    4.5652    3.9392   -0.8522 H   0  0  0  0  0  0  0  0  0  0  0  0
    2.4367    2.7524   -1.1117 H   0  0  0  0  0  0  0  0  0  0  0  0
   -2.2015   -0.3809    0.6983 H   0  0  0  0  0  0  0  0  0  0  0  0
   -4.2164   -0.2838    1.9727 H   0  0  0  0  0  0  0  0  0  0  0  0
   -4.6109   -1.4184    0.6919 H   0  0  0  0  0  0  0  0  0  0  0  0
   -6.6739   -0.6294    1.8419 H   0  0  0  0  0  0  0  0  0  0  0  0
   -7.3407    1.7699    1.6672 H   0  0  0  0  0  0  0  0  0  0  0  0
   -5.8244    1.6067    2.5499 H   0  0  0  0  0  0  0  0  0  0  0  0
   -5.6765    3.4445    0.8665 H   0  0  0  0  0  0  0  0  0  0  0  0
   -5.7891    2.8893   -1.5670 H   0  0  0  0  0  0  0  0  0  0  0  0
   -7.3197    2.5316   -0.7710 H   0  0  0  0  0  0  0  0  0  0  0  0
   -6.6521    0.6522   -2.2677 H   0  0  0  0  0  0  0  0  0  0  0  0
   -6.8034   -1.1854   -0.5861 H   0  0  0  0  0  0  0  0  0  0  0  0
   -7.9197    0.1186   -0.1879 H   0  0  0  0  0  0  0  0  0  0  0  0
   -4.2113    0.9914   -2.1768 H   0  0  0  0  0  0  0  0  0  0  0  0
   -4.5956   -0.6662   -1.7492 H   0  0  0  0  0  0  0  0  0  0  0  0
   -3.6148    2.1443    1.4023 H   0  0  0  0  0  0  0  0  0  0  0  0
   -3.6091    2.6936   -0.2646 H   0  0  0  0  0  0  0  0  0  0  0  0
   -1.0868   -2.5913    0.5101 H   0  0  0  0  0  0  0  0  0  0  0  0
   -0.1368   -3.2751   -0.8224 H   0  0  0  0  0  0  0  0  0  0  0  0
   -1.5399   -2.2752   -1.1788 H   0  0  0  0  0  0  0  0  0  0  0  0
    1.8257   -2.7271    1.8454 H   0  0  0  0  0  0  0  0  0  0  0  0
    3.3434   -4.6662    2.0664 H   0  0  0  0  0  0  0  0  0  0  0  0
    4.8288   -5.3078    0.1857 H   0  0  0  0  0  0  0  0  0  0  0  0
    4.7870   -4.0096   -1.9282 H   0  0  0  0  0  0  0  0  0  0  0  0
    3.2721   -2.0732   -2.1685 H   0  0  0  0  0  0  0  0  0  0  0  0
    4.2262   -0.7395    0.7315 H   0  0  0  0  0  0  0  0  0  0  0  0
  1  2  1  0
  2  3  1  0
  3  4  1  0
  4  5  1  0
  5  6  2  0
  6  7  1  0
  7  8  2  0
  8  9  1  0
  9 10  1  0
 10 11  2  0
 11 12  1  0
 12 13  2  0
 12 14  1  0
 15 14  1  6
 15 16  1  0
 16 17  1  0
 17 18  1  0
 18 19  1  0
 19 20  1  0
 20 21  1  0
 21 22  1  0
 21 23  1  0
 19 24  1  0
 11 25  1  0
 25 26  1  0
 25 27  2  0
 27 28  1  0
 28 29  2  0
 29 30  1  0
 30 31  2  0
 31 32  1  0
 32 33  2  0
  8 34  1  0
 34  4  2  0
 27  9  1  0
 33 28  1  0
 23 15  1  0
 24 15  1  0
 22 17  1  0
  1 35  1  0
  1 36  1  0
  1 37  1  0
  2 38  1  0
  2 39  1  0
  5 40  1  0
  6 41  1  0
  7 42  1  0
 14 43  1  0
 16 44  1  0
 16 45  1  0
 17 46  1  1
 18 47  1  0
 18 48  1  0
 19 49  1  1
 20 50  1  0
 20 51  1  0
 21 52  1  6
 22 53  1  0
 22 54  1  0
 23 55  1  0
 23 56  1  0
 24 57  1  0
 24 58  1  0
 26 59  1  0
 26 60  1  0
 26 61  1  0
 29 62  1  0
 30 63  1  0
 31 64  1  0
 32 65  1  0
 33 66  1  0
 34 67  1  0
M  END
>  <_SMILES>  (72) 
CCOc1cccc(-n2nc(C(=O)N[C@]34C[C@H]5C[C@H](C[C@H](C5)C3)C4)c(C)c2-c2ccccc2)c1

$$$$

     RDKit          3D

 54 57  0  0  0  0  0  0  0  0999 V2000
    8.2549    0.2782    0.7167 C   0  0  0  0  0  0  0  0  0  0  0  0
    7.4624    0.1819   -0.5733 C   0  0  0  0  0  0  0  0  0  0  0  0
    6.1210    0.6485   -0.3658 O   0  0  0  0  0  0  0  0  0  0  0  0
    5.2307   -0.2807    0.0845 C   0  0  0  0  0  0  0  0  0  0  0  0
    5.4976   -1.4478    0.3331 O   0  0  0  0  0  0  0  0  0  0  0  0
    3.8651    0.3565    0.2572 C   0  0  0  0  0  0  0  0  0  0  0  0
    2.9048   -0.5977    0.9748 C   0  0  0  0  0  0  0  0  0  0  0  0
    1.5133    0.0092    1.0974 C   0  0  0  0  0  0  0  0  0  0  0  0
    0.9959    0.4547   -0.1991 N   0  0  0  0  0  0  0  0  0  0  0  0
   -0.3725    0.6524   -0.4059 C   0  0  0  0  0  0  0  0  0  0  0  0
   -0.8138    1.5083   -1.1648 O   0  0  0  0  0  0  0  0  0  0  0  0
   -1.1667   -0.2143    0.3037 N   0  0  0  0  0  0  0  0  0  0  0  0
   -2.6336   -0.2238    0.2438 C   0  0  2  0  0  0  0  0  0  0  0  0
   -3.1449   -1.3070    1.2331 C   0  0  0  0  0  0  0  0  0  0  0  0
   -4.6798   -1.3837    1.2246 C   0  0  1  0  0  0  0  0  0  0  0  0
   -5.2543   -0.0209    1.6401 C   0  0  0  0  0  0  0  0  0  0  0  0
   -4.7820    1.0660    0.6624 C   0  0  2  0  0  0  0  0  0  0  0  0
   -5.2574    0.7136   -0.7575 C   0  0  0  0  0  0  0  0  0  0  0  0
   -4.6880   -0.6503   -1.1839 C   0  0  2  0  0  0  0  0  0  0  0  0
   -5.1594   -1.7277   -0.1944 C   0  0  0  0  0  0  0  0  0  0  0  0
   -3.1504   -0.5846   -1.1707 C   0  0  0  0  0  0  0  0  0  0  0  0
   -3.2444    1.1332    0.6792 C   0  0  0  0  0  0  0  0  0  0  0  0
    1.8841    1.3325   -0.9565 C   0  0  0  0  0  0  0  0  0  0  0  0
    3.2840    0.7488   -1.1022 C   0  0  0  0  0  0  0  0  0  0  0  0
    9.2948   -0.0200    0.5562 H   0  0  0  0  0  0  0  0  0  0  0  0
    7.8233   -0.3626    1.4920 H   0  0  0  0  0  0  0  0  0  0  0  0
    8.2366    1.3024    1.1035 H   0  0  0  0  0  0  0  0  0  0  0  0
    7.9128    0.8310   -1.3314 H   0  0  0  0  0  0  0  0  0  0  0  0
    7.4722   -0.8375   -0.9759 H   0  0  0  0  0  0  0  0  0  0  0  0
    3.9963    1.2485    0.8841 H   0  0  0  0  0  0  0  0  0  0  0  0
    2.8359   -1.5440    0.4218 H   0  0  0  0  0  0  0  0  0  0  0  0
    3.2894   -0.8438    1.9719 H   0  0  0  0  0  0  0  0  0  0  0  0
    1.5336    0.8865    1.7561 H   0  0  0  0  0  0  0  0  0  0  0  0
    0.8476   -0.7196    1.5673 H   0  0  0  0  0  0  0  0  0  0  0  0
   -0.7437   -1.1283    0.3690 H   0  0  0  0  0  0  0  0  0  0  0  0
   -2.7894   -1.0878    2.2489 H   0  0  0  0  0  0  0  0  0  0  0  0
   -2.7269   -2.2877    0.9685 H   0  0  0  0  0  0  0  0  0  0  0  0
   -5.0158   -2.1558    1.9257 H   0  0  0  0  0  0  0  0  0  0  0  0
   -6.3503   -0.0639    1.6525 H   0  0  0  0  0  0  0  0  0  0  0  0
   -4.9338    0.2265    2.6595 H   0  0  0  0  0  0  0  0  0  0  0  0
   -5.1965    2.0355    0.9608 H   0  0  0  0  0  0  0  0  0  0  0  0
   -6.3536    0.6869   -0.7884 H   0  0  0  0  0  0  0  0  0  0  0  0
   -4.9381    1.4903   -1.4633 H   0  0  0  0  0  0  0  0  0  0  0  0
   -5.0375   -0.8976   -2.1925 H   0  0  0  0  0  0  0  0  0  0  0  0
   -6.2538   -1.8003   -0.2126 H   0  0  0  0  0  0  0  0  0  0  0  0
   -4.7703   -2.7084   -0.4945 H   0  0  0  0  0  0  0  0  0  0  0  0
   -2.8174    0.1534   -1.9099 H   0  0  0  0  0  0  0  0  0  0  0  0
   -2.7330   -1.5485   -1.4903 H   0  0  0  0  0  0  0  0  0  0  0  0
   -2.8925    1.3998    1.6844 H   0  0  0  0  0  0  0  0  0  0  0  0
   -2.9209    1.9439    0.0167 H   0  0  0  0  0  0  0  0  0  0  0  0
    1.9205    2.2980   -0.4367 H   0  0  0  0  0  0  0  0  0  0  0  0
    1.4677    1.5141   -1.9540 H   0  0  0  0  0  0  0  0  0  0  0  0
    3.2457   -0.1340   -1.7542 H   0  0  0  0  0  0  0  0  0  0  0  0
    3.9308    1.4780   -1.6042 H   0  0  0  0  0  0  0  0  0  0  0  0
  1  2  1  0
  2  3  1  0
  3  4  1  0
  4  5  2  0
  4  6  1  0
  6  7  1  0
  7  8  1  0
  8  9  1  0
  9 10  1  0
 10 11  2  0
 10 12  1  0
 13 12  1  6
 13 14  1  0
 14 15  1  0
 15 16  1  0
 16 17  1  0
 17 18  1  0
 18 19  1  0
 19 20  1  0
 19 21  1  0
 17 22  1  0
  9 23  1  0
 23 24  1  0
 24  6  1  0
 21 13  1  0
 22 13  1  0
 20 15  1  0
  1 25  1  0
  1 26  1  0
  1 27  1  0
  2 28  1  0
  2 29  1  0
  6 30  1  0
  7 31  1  0
  7 32  1  0
  8 33  1  0
  8 34  1  0
 12 35  1  0
 14 36  1  0
 14 37  1  0
 15 38  1  1
 16 39  1  0
 16 40  1  0
 17 41  1  1
 18 42  1  0
 18 43  1  0
 19 44  1  6
 20 45  1  0
 20 46  1  0
 21 47  1  0
 21 48  1  0
 22 49  1  0
 22 50  1  0
 23 51  1  0
 23 52  1  0
 24 53  1  0
 24 54  1  0
M  END
>  <_SMILES>  (73) 
CCOC(=O)C1CCN(C(=O)N[C@]23C[C@H]4C[C@H](C[C@H](C4)C2)C3)CC1

$$$$

     RDKit          3D

 69 73  0  0  0  0  0  0  0  0999 V2000
   -9.4160    2.6049    1.2148 C   0  0  0  0  0  0  0  0  0  0  0  0
   -8.0510    2.4295    0.5737 C   0  0  0  0  0  0  0  0  0  0  0  0
   -7.1831    1.8415    1.5409 O   0  0  0  0  0  0  0  0  0  0  0  0
   -5.8899    1.6128    1.1609 C   0  0  0  0  0  0  0  0  0  0  0  0
   -5.3438    1.8740   -0.0955 C   0  0  0  0  0  0  0  0  0  0  0  0
   -3.9974    1.5868   -0.3507 C   0  0  0  0  0  0  0  0  0  0  0  0
   -3.1871    1.0285    0.6437 C   0  0  0  0  0  0  0  0  0  0  0  0
   -1.7842    0.7356    0.3822 C   0  0  0  0  0  0  0  0  0  0  0  0
   -0.6580    1.3403    0.9045 C   0  0  0  0  0  0  0  0  0  0  0  0
    0.4487    0.6983    0.3030 C   0  0  0  0  0  0  0  0  0  0  0  0
    1.8746    0.9931    0.5213 C   0  0  0  0  0  0  0  0  0  0  0  0
    2.2584    1.8688    1.2884 O   0  0  0  0  0  0  0  0  0  0  0  0
    2.7028    0.1811   -0.2220 N   0  0  0  0  0  0  0  0  0  0  0  0
    4.1612    0.2093   -0.2286 C   0  0  2  0  0  0  0  0  0  0  0  0
    4.6706   -0.8786   -1.2110 C   0  0  0  0  0  0  0  0  0  0  0  0
    6.2066   -0.8990   -1.2621 C   0  0  1  0  0  0  0  0  0  0  0  0
    6.7137    0.4751   -1.7270 C   0  0  0  0  0  0  0  0  0  0  0  0
    6.2416    1.5659   -0.7527 C   0  0  2  0  0  0  0  0  0  0  0  0
    6.7853    1.2600    0.6534 C   0  0  0  0  0  0  0  0  0  0  0  0
    6.2819   -0.1137    1.1283 C   0  0  2  0  0  0  0  0  0  0  0  0
    6.7537   -1.1948    0.1432 C   0  0  0  0  0  0  0  0  0  0  0  0
    4.7436   -0.1019    1.1723 C   0  0  0  0  0  0  0  0  0  0  0  0
    4.7034    1.5781   -0.7092 C   0  0  0  0  0  0  0  0  0  0  0  0
    0.0423   -0.2655   -0.5473 N   0  0  0  0  0  0  0  0  0  0  0  0
   -1.3060   -0.2594   -0.4412 N   0  0  0  0  0  0  0  0  0  0  0  0
   -2.0626   -1.2274   -1.2193 C   0  0  0  0  0  0  0  0  0  0  0  0
   -2.1834   -2.6525   -0.6156 C   0  0  0  0  0  0  0  0  0  0  0  0
   -0.8082   -3.3242   -0.4610 C   0  0  0  0  0  0  0  0  0  0  0  0
   -3.0301   -3.5032   -1.5837 C   0  0  0  0  0  0  0  0  0  0  0  0
   -2.8880   -2.6273    0.7500 C   0  0  0  0  0  0  0  0  0  0  0  0
   -3.7325    0.7840    1.9064 C   0  0  0  0  0  0  0  0  0  0  0  0
   -5.0770    1.0690    2.1581 C   0  0  0  0  0  0  0  0  0  0  0  0
   -9.3461    3.2431    2.1019 H   0  0  0  0  0  0  0  0  0  0  0  0
  -10.1225    3.0540    0.5112 H   0  0  0  0  0  0  0  0  0  0  0  0
   -9.8128    1.6398    1.5470 H   0  0  0  0  0  0  0  0  0  0  0  0
   -8.1476    1.7734   -0.2990 H   0  0  0  0  0  0  0  0  0  0  0  0
   -7.6709    3.4110    0.2675 H   0  0  0  0  0  0  0  0  0  0  0  0
   -5.9331    2.3057   -0.8974 H   0  0  0  0  0  0  0  0  0  0  0  0
   -3.5843    1.8134   -1.3313 H   0  0  0  0  0  0  0  0  0  0  0  0
   -0.6270    2.1569    1.6134 H   0  0  0  0  0  0  0  0  0  0  0  0
    2.2033   -0.4911   -0.8009 H   0  0  0  0  0  0  0  0  0  0  0  0
    4.2693   -0.6964   -2.2171 H   0  0  0  0  0  0  0  0  0  0  0  0
    4.2974   -1.8660   -0.9074 H   0  0  0  0  0  0  0  0  0  0  0  0
    6.5435   -1.6732   -1.9605 H   0  0  0  0  0  0  0  0  0  0  0  0
    6.3440    0.6893   -2.7373 H   0  0  0  0  0  0  0  0  0  0  0  0
    7.8092    0.4711   -1.7830 H   0  0  0  0  0  0  0  0  0  0  0  0
    6.6089    2.5428   -1.0864 H   0  0  0  0  0  0  0  0  0  0  0  0
    6.4665    2.0395    1.3562 H   0  0  0  0  0  0  0  0  0  0  0  0
    7.8821    1.2721    0.6408 H   0  0  0  0  0  0  0  0  0  0  0  0
    6.6776   -0.3270    2.1276 H   0  0  0  0  0  0  0  0  0  0  0  0
    6.4128   -2.1821    0.4784 H   0  0  0  0  0  0  0  0  0  0  0  0
    7.8499   -1.2277    0.1194 H   0  0  0  0  0  0  0  0  0  0  0  0
    4.4124    0.6414    1.9072 H   0  0  0  0  0  0  0  0  0  0  0  0
    4.3727   -1.0719    1.5284 H   0  0  0  0  0  0  0  0  0  0  0  0
    4.3709    2.3852   -0.0456 H   0  0  0  0  0  0  0  0  0  0  0  0
    4.3034    1.8144   -1.7040 H   0  0  0  0  0  0  0  0  0  0  0  0
   -3.0594   -0.8107   -1.3960 H   0  0  0  0  0  0  0  0  0  0  0  0
   -1.5777   -1.2744   -2.2038 H   0  0  0  0  0  0  0  0  0  0  0  0
   -0.1987   -2.8309    0.3031 H   0  0  0  0  0  0  0  0  0  0  0  0
   -0.2511   -3.3075   -1.4043 H   0  0  0  0  0  0  0  0  0  0  0  0
   -0.9142   -4.3723   -0.1577 H   0  0  0  0  0  0  0  0  0  0  0  0
   -4.0298   -3.0744   -1.7166 H   0  0  0  0  0  0  0  0  0  0  0  0
   -3.1551   -4.5260   -1.2103 H   0  0  0  0  0  0  0  0  0  0  0  0
   -2.5587   -3.5651   -2.5711 H   0  0  0  0  0  0  0  0  0  0  0  0
   -3.0403   -3.6430    1.1330 H   0  0  0  0  0  0  0  0  0  0  0  0
   -3.8722   -2.1518    0.6783 H   0  0  0  0  0  0  0  0  0  0  0  0
   -2.2997   -2.0853    1.4976 H   0  0  0  0  0  0  0  0  0  0  0  0
   -3.1196    0.3654    2.7013 H   0  0  0  0  0  0  0  0  0  0  0  0
   -5.4935    0.8691    3.1426 H   0  0  0  0  0  0  0  0  0  0  0  0
  1  2  1  0
  2  3  1  0
  3  4  1  0
  4  5  1  0
  5  6  2  0
  6  7  1  0
  7  8  1  0
  8  9  2  0
  9 10  1  0
 10 11  1  0
 11 12  2  0
 11 13  1  0
 14 13  1  1
 14 15  1  0
 15 16  1  0
 16 17  1  0
 17 18  1  0
 18 19  1  0
 19 20  1  0
 20 21  1  0
 20 22  1  0
 18 23  1  0
 10 24  2  0
 24 25  1  0
 25 26  1  0
 26 27  1  0
 27 28  1  0
 27 29  1  0
 27 30  1  0
  7 31  2  0
 31 32  1  0
 32  4  2  0
 25  8  1  0
 22 14  1  0
 23 14  1  0
 21 16  1  0
  1 33  1  0
  1 34  1  0
  1 35  1  0
  2 36  1  0
  2 37  1  0
  5 38  1  0
  6 39  1  0
  9 40  1  0
 13 41  1  0
 15 42  1  0
 15 43  1  0
 16 44  1  6
 17 45  1  0
 17 46  1  0
 18 47  1  6
 19 48  1  0
 19 49  1  0
 20 50  1  1
 21 51  1  0
 21 52  1  0
 22 53  1  0
 22 54  1  0
 23 55  1  0
 23 56  1  0
 26 57  1  0
 26 58  1  0
 28 59  1  0
 28 60  1  0
 28 61  1  0
 29 62  1  0
 29 63  1  0
 29 64  1  0
 30 65  1  0
 30 66  1  0
 30 67  1  0
 31 68  1  0
 32 69  1  0
M  END
>  <_SMILES>  (74) 
CCOc1ccc(-c2cc(C(=O)N[C@]34C[C@H]5C[C@H](C[C@H](C5)C3)C4)nn2CC(C)(C)C)cc1

$$$$

     RDKit          3D

 46 50  0  0  0  0  0  0  0  0999 V2000
    0.3867   -1.7924    0.1735 O   0  0  0  0  0  0  0  0  0  0  0  0
    0.6913   -0.6140    0.0081 C   0  0  0  0  0  0  0  0  0  0  0  0
   -0.2312    0.3950   -0.1141 N   0  0  0  0  0  0  0  0  0  0  0  0
   -1.6863    0.2336   -0.0682 C   0  0  2  0  0  0  0  0  0  0  0  0
   -2.1978   -0.6803   -1.2095 C   0  0  0  0  0  0  0  0  0  0  0  0
   -3.7322   -0.7911   -1.1680 C   0  0  1  0  0  0  0  0  0  0  0  0
   -4.1615   -1.3702    0.1909 C   0  0  0  0  0  0  0  0  0  0  0  0
   -3.6911   -0.4509    1.3310 C   0  0  2  0  0  0  0  0  0  0  0  0
   -4.3067    0.9446    1.1437 C   0  0  0  0  0  0  0  0  0  0  0  0
   -3.8737    1.5315   -0.2088 C   0  0  2  0  0  0  0  0  0  0  0  0
   -4.3476    0.6065   -1.3406 C   0  0  0  0  0  0  0  0  0  0  0  0
   -2.3406    1.6306   -0.2475 C   0  0  0  0  0  0  0  0  0  0  0  0
   -2.1566   -0.3398    1.2918 C   0  0  0  0  0  0  0  0  0  0  0  0
    2.1264   -0.1886   -0.0735 C   0  0  0  0  0  0  0  0  0  0  0  0
    3.0608   -1.1520    0.0423 C   0  0  0  0  0  0  0  0  0  0  0  0
    4.4882   -0.8390   -0.0238 C   0  0  0  0  0  0  0  0  0  0  0  0
    5.4617   -1.8339    0.0956 C   0  0  0  0  0  0  0  0  0  0  0  0
    6.8159   -1.4971    0.0274 C   0  0  0  0  0  0  0  0  0  0  0  0
    7.2007   -0.1683   -0.1597 C   0  0  0  0  0  0  0  0  0  0  0  0
    6.2339    0.8307   -0.2798 C   0  0  0  0  0  0  0  0  0  0  0  0
    4.8837    0.4899   -0.2112 C   0  0  0  0  0  0  0  0  0  0  0  0
    3.9044    1.4812   -0.3300 N   0  0  0  0  0  0  0  0  0  0  0  0
    2.5579    1.2281   -0.2734 C   0  0  0  0  0  0  0  0  0  0  0  0
    1.7471    2.1468   -0.3851 O   0  0  0  0  0  0  0  0  0  0  0  0
    0.1305    1.3401   -0.2487 H   0  0  0  0  0  0  0  0  0  0  0  0
   -1.7660   -1.6849   -1.1311 H   0  0  0  0  0  0  0  0  0  0  0  0
   -1.8779   -0.2840   -2.1822 H   0  0  0  0  0  0  0  0  0  0  0  0
   -4.0763   -1.4478   -1.9749 H   0  0  0  0  0  0  0  0  0  0  0  0
   -5.2527   -1.4773    0.2234 H   0  0  0  0  0  0  0  0  0  0  0  0
   -3.7392   -2.3743    0.3206 H   0  0  0  0  0  0  0  0  0  0  0  0
   -4.0060   -0.8667    2.2946 H   0  0  0  0  0  0  0  0  0  0  0  0
   -3.9898    1.6067    1.9588 H   0  0  0  0  0  0  0  0  0  0  0  0
   -5.4007    0.8813    1.1919 H   0  0  0  0  0  0  0  0  0  0  0  0
   -4.3125    2.5273   -0.3371 H   0  0  0  0  0  0  0  0  0  0  0  0
   -4.0601    1.0253   -2.3128 H   0  0  0  0  0  0  0  0  0  0  0  0
   -5.4423    0.5374   -1.3348 H   0  0  0  0  0  0  0  0  0  0  0  0
   -1.9942    2.3132    0.5401 H   0  0  0  0  0  0  0  0  0  0  0  0
   -2.0228    2.0764   -1.1997 H   0  0  0  0  0  0  0  0  0  0  0  0
   -1.7232   -1.3308    1.4707 H   0  0  0  0  0  0  0  0  0  0  0  0
   -1.8072    0.3005    2.1123 H   0  0  0  0  0  0  0  0  0  0  0  0
    2.7829   -2.1922    0.1884 H   0  0  0  0  0  0  0  0  0  0  0  0
    5.1788   -2.8737    0.2418 H   0  0  0  0  0  0  0  0  0  0  0  0
    7.5722   -2.2730    0.1206 H   0  0  0  0  0  0  0  0  0  0  0  0
    8.2563    0.0878   -0.2120 H   0  0  0  0  0  0  0  0  0  0  0  0
    6.5453    1.8609   -0.4251 H   0  0  0  0  0  0  0  0  0  0  0  0
    4.1713    2.4469   -0.4658 H   0  0  0  0  0  0  0  0  0  0  0  0
  1  2  2  0
  2  3  1  0
  4  3  1  1
  4  5  1  0
  5  6  1  0
  6  7  1  0
  7  8  1  0
  8  9  1  0
  9 10  1  0
 10 11  1  0
 10 12  1  0
  8 13  1  0
  2 14  1  0
 14 15  2  0
 15 16  1  0
 16 17  2  0
 17 18  1  0
 18 19  2  0
 19 20  1  0
 20 21  2  0
 21 22  1  0
 22 23  1  0
 23 24  2  0
 12  4  1  0
 23 14  1  0
 13  4  1  0
 21 16  1  0
 11  6  1  0
  3 25  1  0
  5 26  1  0
  5 27  1  0
  6 28  1  6
  7 29  1  0
  7 30  1  0
  8 31  1  1
  9 32  1  0
  9 33  1  0
 10 34  1  6
 11 35  1  0
 11 36  1  0
 12 37  1  0
 12 38  1  0
 13 39  1  0
 13 40  1  0
 15 41  1  0
 17 42  1  0
 18 43  1  0
 19 44  1  0
 20 45  1  0
 22 46  1  0
M  END
>  <_SMILES>  (75) 
O=C(N[C@]12C[C@H]3C[C@H](C[C@H](C3)C1)C2)c1cc2ccccc2[nH]c1=O

$$$$

     RDKit          3D

 46 50  0  0  0  0  0  0  0  0999 V2000
    0.4659    0.8973   -1.5343 O   0  0  0  0  0  0  0  0  0  0  0  0
    0.7433    0.2594   -0.5236 C   0  0  0  0  0  0  0  0  0  0  0  0
   -0.1981   -0.2069    0.3657 N   0  0  0  0  0  0  0  0  0  0  0  0
   -1.6465   -0.0197    0.2490 C   0  0  2  0  0  0  0  0  0  0  0  0
   -2.3286   -0.7052    1.4641 C   0  0  0  0  0  0  0  0  0  0  0  0
   -3.8559   -0.5452    1.4025 C   0  0  1  0  0  0  0  0  0  0  0  0
   -4.2065    0.9509    1.4083 C   0  0  0  0  0  0  0  0  0  0  0  0
   -3.5623    1.6452    0.1981 C   0  0  2  0  0  0  0  0  0  0  0  0
   -4.0812    0.9947   -1.0957 C   0  0  0  0  0  0  0  0  0  0  0  0
   -3.7346   -0.5040   -1.1111 C   0  0  2  0  0  0  0  0  0  0  0  0
   -4.3777   -1.1856    0.1068 C   0  0  0  0  0  0  0  0  0  0  0  0
   -2.2064   -0.6712   -1.0399 C   0  0  0  0  0  0  0  0  0  0  0  0
   -2.0339    1.4799    0.2704 C   0  0  0  0  0  0  0  0  0  0  0  0
    2.1716   -0.0375   -0.2243 C   0  0  0  0  0  0  0  0  0  0  0  0
    3.1519    0.4221   -1.1077 C   0  0  0  0  0  0  0  0  0  0  0  0
    4.5081    0.1626   -0.8603 C   0  0  0  0  0  0  0  0  0  0  0  0
    5.5153    0.6124   -1.7313 C   0  0  0  0  0  0  0  0  0  0  0  0
    6.8541    0.3395   -1.4594 C   0  0  0  0  0  0  0  0  0  0  0  0
    7.1908   -0.3818   -0.3197 C   0  0  0  0  0  0  0  0  0  0  0  0
    6.1864   -0.8278    0.5446 C   0  0  0  0  0  0  0  0  0  0  0  0
    4.8442   -0.5702    0.2985 C   0  0  0  0  0  0  0  0  0  0  0  0
    3.9135   -1.0199    1.1592 N   0  0  0  0  0  0  0  0  0  0  0  0
    2.6237   -0.7447    0.8772 C   0  0  0  0  0  0  0  0  0  0  0  0
    1.7911   -1.2542    1.8232 O   0  0  0  0  0  0  0  0  0  0  0  0
    0.1459   -0.7251    1.1711 H   0  0  0  0  0  0  0  0  0  0  0  0
   -2.0693   -1.7722    1.4897 H   0  0  0  0  0  0  0  0  0  0  0  0
   -1.9493   -0.2759    2.4012 H   0  0  0  0  0  0  0  0  0  0  0  0
   -4.3147   -1.0358    2.2682 H   0  0  0  0  0  0  0  0  0  0  0  0
   -5.2953    1.0809    1.3794 H   0  0  0  0  0  0  0  0  0  0  0  0
   -3.8549    1.4151    2.3379 H   0  0  0  0  0  0  0  0  0  0  0  0
   -3.8185    2.7105    0.2045 H   0  0  0  0  0  0  0  0  0  0  0  0
   -3.6387    1.4907   -1.9682 H   0  0  0  0  0  0  0  0  0  0  0  0
   -5.1675    1.1277   -1.1710 H   0  0  0  0  0  0  0  0  0  0  0  0
   -4.1129   -0.9612   -2.0322 H   0  0  0  0  0  0  0  0  0  0  0  0
   -4.1495   -2.2585    0.1001 H   0  0  0  0  0  0  0  0  0  0  0  0
   -5.4695   -1.0921    0.0557 H   0  0  0  0  0  0  0  0  0  0  0  0
   -1.7570   -0.2223   -1.9335 H   0  0  0  0  0  0  0  0  0  0  0  0
   -1.9453   -1.7372   -1.0679 H   0  0  0  0  0  0  0  0  0  0  0  0
   -1.5776    2.0151   -0.5706 H   0  0  0  0  0  0  0  0  0  0  0  0
   -1.6492    1.9560    1.1819 H   0  0  0  0  0  0  0  0  0  0  0  0
    2.8569    0.9845   -1.9921 H   0  0  0  0  0  0  0  0  0  0  0  0
    5.2606    1.1777   -2.6256 H   0  0  0  0  0  0  0  0  0  0  0  0
    7.6308    0.6889   -2.1353 H   0  0  0  0  0  0  0  0  0  0  0  0
    8.2326   -0.5999   -0.0987 H   0  0  0  0  0  0  0  0  0  0  0  0
    6.4608   -1.3912    1.4334 H   0  0  0  0  0  0  0  0  0  0  0  0
    2.4535   -1.6659    2.4118 H   0  0  0  0  0  0  0  0  0  0  0  0
  1  2  2  0
  2  3  1  0
  4  3  1  1
  4  5  1  0
  5  6  1  0
  6  7  1  0
  7  8  1  0
  8  9  1  0
  9 10  1  0
 10 11  1  0
 10 12  1  0
  8 13  1  0
  2 14  1  0
 14 15  2  0
 15 16  1  0
 16 17  2  0
 17 18  1  0
 18 19  2  0
 19 20  1  0
 20 21  2  0
 21 22  1  0
 22 23  2  0
 23 24  1  0
 12  4  1  0
 23 14  1  0
 13  4  1  0
 21 16  1  0
 11  6  1  0
  3 25  1  0
  5 26  1  0
  5 27  1  0
  6 28  1  1
  7 29  1  0
  7 30  1  0
  8 31  1  6
  9 32  1  0
  9 33  1  0
 10 34  1  6
 11 35  1  0
 11 36  1  0
 12 37  1  0
 12 38  1  0
 13 39  1  0
 13 40  1  0
 15 41  1  0
 17 42  1  0
 18 43  1  0
 19 44  1  0
 20 45  1  0
 24 46  1  0
M  END
>  <_SMILES>  (76) 
O=C(N[C@]12C[C@H]3C[C@H](C[C@H](C3)C1)C2)c1cc2ccccc2nc1O

$$$$

     RDKit          3D

 41 44  0  0  0  0  0  0  0  0999 V2000
    8.1350   -0.8332    1.1213 N   0  0  0  0  0  0  0  0  0  0  0  0
    7.0281   -0.6497    0.8251 C   0  0  0  0  0  0  0  0  0  0  0  0
    5.6578   -0.4257    0.4667 C   0  0  0  0  0  0  0  0  0  0  0  0
    4.7299   -0.0448    1.4435 C   0  0  0  0  0  0  0  0  0  0  0  0
    3.3918    0.1747    1.0977 C   0  0  0  0  0  0  0  0  0  0  0  0
    2.9741    0.0056   -0.2290 C   0  0  0  0  0  0  0  0  0  0  0  0
    1.5627    0.2360   -0.6469 C   0  0  0  0  0  0  0  0  0  0  0  0
    1.3290    0.6082   -1.7895 O   0  0  0  0  0  0  0  0  0  0  0  0
    0.6005   -0.0299    0.3062 N   0  0  0  0  0  0  0  0  0  0  0  0
   -0.8459    0.0552    0.0680 C   0  0  2  0  0  0  0  0  0  0  0  0
   -1.5785   -0.2786    1.3963 C   0  0  0  0  0  0  0  0  0  0  0  0
   -3.1036   -0.2151    1.2174 C   0  0  1  0  0  0  0  0  0  0  0  0
   -3.5000    1.2008    0.7722 C   0  0  0  0  0  0  0  0  0  0  0  0
   -2.8060    1.5460   -0.5544 C   0  0  2  0  0  0  0  0  0  0  0  0
   -3.2264    0.5275   -1.6278 C   0  0  0  0  0  0  0  0  0  0  0  0
   -2.8339   -0.8945   -1.1917 C   0  0  2  0  0  0  0  0  0  0  0  0
   -3.5271   -1.2254    0.1395 C   0  0  0  0  0  0  0  0  0  0  0  0
   -1.3082   -0.9640   -1.0022 C   0  0  0  0  0  0  0  0  0  0  0  0
   -1.2802    1.4792   -0.3636 C   0  0  0  0  0  0  0  0  0  0  0  0
    3.9080   -0.3593   -1.2076 C   0  0  0  0  0  0  0  0  0  0  0  0
    5.2443   -0.5795   -0.8606 C   0  0  0  0  0  0  0  0  0  0  0  0
    5.0446    0.0939    2.4768 H   0  0  0  0  0  0  0  0  0  0  0  0
    2.6975    0.5055    1.8657 H   0  0  0  0  0  0  0  0  0  0  0  0
    0.8904   -0.5607    1.1162 H   0  0  0  0  0  0  0  0  0  0  0  0
   -1.2907   -1.2796    1.7450 H   0  0  0  0  0  0  0  0  0  0  0  0
   -1.2677    0.4205    2.1843 H   0  0  0  0  0  0  0  0  0  0  0  0
   -3.5979   -0.4566    2.1650 H   0  0  0  0  0  0  0  0  0  0  0  0
   -3.2192    1.9290    1.5429 H   0  0  0  0  0  0  0  0  0  0  0  0
   -4.5886    1.2659    0.6540 H   0  0  0  0  0  0  0  0  0  0  0  0
   -3.0941    2.5551   -0.8696 H   0  0  0  0  0  0  0  0  0  0  0  0
   -2.7479    0.7717   -2.5842 H   0  0  0  0  0  0  0  0  0  0  0  0
   -4.3098    0.5825   -1.7909 H   0  0  0  0  0  0  0  0  0  0  0  0
   -3.1432   -1.6144   -1.9576 H   0  0  0  0  0  0  0  0  0  0  0  0
   -3.2658   -2.2428    0.4555 H   0  0  0  0  0  0  0  0  0  0  0  0
   -4.6162   -1.2018    0.0110 H   0  0  0  0  0  0  0  0  0  0  0  0
   -1.0145   -1.9800   -0.7074 H   0  0  0  0  0  0  0  0  0  0  0  0
   -0.8185   -0.7703   -1.9639 H   0  0  0  0  0  0  0  0  0  0  0  0
   -0.9646    2.2139    0.3887 H   0  0  0  0  0  0  0  0  0  0  0  0
   -0.7947    1.7732   -1.3011 H   0  0  0  0  0  0  0  0  0  0  0  0
    3.5941   -0.4729   -2.2444 H   0  0  0  0  0  0  0  0  0  0  0  0
    5.9555   -0.8657   -1.6337 H   0  0  0  0  0  0  0  0  0  0  0  0
  1  2  3  0
  2  3  1  0
  3  4  1  0
  4  5  2  0
  5  6  1  0
  6  7  1  0
  7  8  2  0
  7  9  1  0
 10  9  1  1
 10 11  1  0
 11 12  1  0
 12 13  1  0
 13 14  1  0
 14 15  1  0
 15 16  1  0
 16 17  1  0
 16 18  1  0
 14 19  1  0
  6 20  2  0
 20 21  1  0
 21  3  2  0
 18 10  1  0
 19 10  1  0
 17 12  1  0
  4 22  1  0
  5 23  1  0
  9 24  1  0
 11 25  1  0
 11 26  1  0
 12 27  1  1
 13 28  1  0
 13 29  1  0
 14 30  1  6
 15 31  1  0
 15 32  1  0
 16 33  1  6
 17 34  1  0
 17 35  1  0
 18 36  1  0
 18 37  1  0
 19 38  1  0
 19 39  1  0
 20 40  1  0
 21 41  1  0
M  END
>  <_SMILES>  (77) 
N#Cc1ccc(C(=O)N[C@]23C[C@H]4C[C@H](C[C@H](C4)C2)C3)cc1

$$$$

     RDKit          3D

 59 64  0  0  0  0  0  0  0  0999 V2000
    2.3395   -1.8136    1.3535 O   0  0  0  0  0  0  0  0  0  0  0  0
    1.9928   -0.8345    0.7064 C   0  0  0  0  0  0  0  0  0  0  0  0
    0.5587   -0.4547    0.6656 C   0  0  0  0  0  0  0  0  0  0  0  0
   -0.0330    0.0926   -0.4078 C   0  0  0  0  0  0  0  0  0  0  0  0
   -1.4606    0.4420   -0.4603 C   0  0  0  0  0  0  0  0  0  0  0  0
   -1.8439    1.5959   -1.1552 C   0  0  0  0  0  0  0  0  0  0  0  0
   -3.1874    1.9758   -1.2672 C   0  0  0  0  0  0  0  0  0  0  0  0
   -4.1422    1.1513   -0.6651 C   0  0  0  0  0  0  0  0  0  0  0  0
   -5.5125    1.2639   -0.6155 N   0  0  0  0  0  0  0  0  0  0  0  0
   -6.0718    0.2195    0.0877 C   0  0  0  0  0  0  0  0  0  0  0  0
   -7.5170    0.0870    0.3012 C   0  0  0  0  0  0  0  0  0  0  0  0
   -8.2677    1.2166    0.6673 C   0  0  0  0  0  0  0  0  0  0  0  0
   -9.6459    1.1255    0.8810 C   0  0  0  0  0  0  0  0  0  0  0  0
  -10.2949   -0.0975    0.7336 C   0  0  0  0  0  0  0  0  0  0  0  0
   -9.5683   -1.2322    0.3753 C   0  0  0  0  0  0  0  0  0  0  0  0
   -8.1897   -1.1388    0.1625 C   0  0  0  0  0  0  0  0  0  0  0  0
   -7.4969   -2.2628   -0.2030 O   0  0  0  0  0  0  0  0  0  0  0  0
   -5.0199   -0.5916    0.4766 C   0  0  0  0  0  0  0  0  0  0  0  0
   -3.8052   -0.0121    0.0197 C   0  0  0  0  0  0  0  0  0  0  0  0
   -2.4467   -0.3757    0.1176 C   0  0  0  0  0  0  0  0  0  0  0  0
    2.8345    0.0222    0.0422 N   0  0  0  0  0  0  0  0  0  0  0  0
    4.2963   -0.0931    0.0262 C   0  0  2  0  0  0  0  0  0  0  0  0
    4.8661    1.0408   -0.8691 C   0  0  0  0  0  0  0  0  0  0  0  0
    6.4008    0.9819   -0.9251 C   0  0  1  0  0  0  0  0  0  0  0  0
    6.9632    1.1314    0.4973 C   0  0  0  0  0  0  0  0  0  0  0  0
    6.4328    0.0008    1.3931 C   0  0  2  0  0  0  0  0  0  0  0  0
    6.8594   -1.3548    0.8046 C   0  0  0  0  0  0  0  0  0  0  0  0
    6.3003   -1.5136   -0.6197 C   0  0  2  0  0  0  0  0  0  0  0  0
    6.8321   -0.3746   -1.5033 C   0  0  0  0  0  0  0  0  0  0  0  0
    4.7635   -1.4450   -0.5705 C   0  0  0  0  0  0  0  0  0  0  0  0
    4.8962    0.0705    1.4444 C   0  0  0  0  0  0  0  0  0  0  0  0
    0.0094   -0.7163    1.5637 H   0  0  0  0  0  0  0  0  0  0  0  0
    0.5310    0.3015   -1.3130 H   0  0  0  0  0  0  0  0  0  0  0  0
   -1.0905    2.2286   -1.6206 H   0  0  0  0  0  0  0  0  0  0  0  0
   -3.4692    2.8750   -1.8047 H   0  0  0  0  0  0  0  0  0  0  0  0
   -6.0403    2.0024   -1.0565 H   0  0  0  0  0  0  0  0  0  0  0  0
   -7.7809    2.1778    0.8136 H   0  0  0  0  0  0  0  0  0  0  0  0
  -10.2092    2.0090    1.1707 H   0  0  0  0  0  0  0  0  0  0  0  0
  -11.3665   -0.1680    0.9023 H   0  0  0  0  0  0  0  0  0  0  0  0
  -10.0898   -2.1781    0.2661 H   0  0  0  0  0  0  0  0  0  0  0  0
   -8.1126   -3.0088   -0.2714 H   0  0  0  0  0  0  0  0  0  0  0  0
   -5.1197   -1.5112    1.0387 H   0  0  0  0  0  0  0  0  0  0  0  0
   -2.1843   -1.2955    0.6316 H   0  0  0  0  0  0  0  0  0  0  0  0
    2.4404    0.8973   -0.2745 H   0  0  0  0  0  0  0  0  0  0  0  0
    4.5492    2.0200   -0.4854 H   0  0  0  0  0  0  0  0  0  0  0  0
    4.4544    0.9625   -1.8843 H   0  0  0  0  0  0  0  0  0  0  0  0
    6.7795    1.7913   -1.5592 H   0  0  0  0  0  0  0  0  0  0  0  0
    6.6770    2.1051    0.9135 H   0  0  0  0  0  0  0  0  0  0  0  0
    8.0595    1.1061    0.4714 H   0  0  0  0  0  0  0  0  0  0  0  0
    6.8405    0.1093    2.4044 H   0  0  0  0  0  0  0  0  0  0  0  0
    7.9539   -1.4264    0.7864 H   0  0  0  0  0  0  0  0  0  0  0  0
    6.4978   -2.1708    1.4423 H   0  0  0  0  0  0  0  0  0  0  0  0
    6.6132   -2.4785   -1.0340 H   0  0  0  0  0  0  0  0  0  0  0  0
    6.4517   -0.4846   -2.5262 H   0  0  0  0  0  0  0  0  0  0  0  0
    7.9262   -0.4259   -1.5632 H   0  0  0  0  0  0  0  0  0  0  0  0
    4.3509   -1.5745   -1.5797 H   0  0  0  0  0  0  0  0  0  0  0  0
    4.3911   -2.2877    0.0232 H   0  0  0  0  0  0  0  0  0  0  0  0
    4.5244   -0.7104    2.1184 H   0  0  0  0  0  0  0  0  0  0  0  0
    4.5802    1.0276    1.8798 H   0  0  0  0  0  0  0  0  0  0  0  0
  1  2  2  0
  2  3  1  0
  3  4  2  0
  4  5  1  0
  5  6  2  0
  6  7  1  0
  7  8  2  0
  8  9  1  0
  9 10  1  0
 10 11  1  0
 11 12  2  0
 12 13  1  0
 13 14  2  0
 14 15  1  0
 15 16  2  0
 16 17  1  0
 10 18  2  0
 18 19  1  0
 19 20  2  0
  2 21  1  0
 22 21  1  1
 22 23  1  0
 23 24  1  0
 24 25  1  0
 25 26  1  0
 26 27  1  0
 27 28  1  0
 28 29  1  0
 28 30  1  0
 26 31  1  0
 20  5  1  0
 30 22  1  0
 19  8  1  0
 31 22  1  0
 16 11  1  0
 29 24  1  0
  3 32  1  0
  4 33  1  0
  6 34  1  0
  7 35  1  0
  9 36  1  0
 12 37  1  0
 13 38  1  0
 14 39  1  0
 15 40  1  0
 17 41  1  0
 18 42  1  0
 20 43  1  0
 21 44  1  0
 23 45  1  0
 23 46  1  0
 24 47  1  6
 25 48  1  0
 25 49  1  0
 26 50  1  1
 27 51  1  0
 27 52  1  0
 28 53  1  6
 29 54  1  0
 29 55  1  0
 30 56  1  0
 30 57  1  0
 31 58  1  0
 31 59  1  0
M  END
>  <_SMILES>  (78) 
O=C(/C=C/c1ccc2[nH]c(-c3ccccc3O)cc2c1)N[C@]12C[C@H]3C[C@H](C[C@H](C3)C1)C2

$$$$

     RDKit          3D

 59 64  0  0  0  0  0  0  0  0999 V2000
   -1.3185   -1.8109    0.2483 O   0  0  0  0  0  0  0  0  0  0  0  0
   -1.8366   -1.6745   -0.8485 C   0  0  0  0  0  0  0  0  0  0  0  0
   -1.1770   -2.1088   -2.1026 C   0  0  0  0  0  0  0  0  0  0  0  0
    0.0920   -1.8330   -2.4415 C   0  0  0  0  0  0  0  0  0  0  0  0
    1.0649   -1.0073   -1.7109 C   0  0  0  0  0  0  0  0  0  0  0  0
    0.7404    0.2631   -1.2215 C   0  0  0  0  0  0  0  0  0  0  0  0
    1.6879    1.0628   -0.5700 C   0  0  0  0  0  0  0  0  0  0  0  0
    2.9826    0.5522   -0.4381 C   0  0  0  0  0  0  0  0  0  0  0  0
    4.1014    1.1010    0.1440 N   0  0  0  0  0  0  0  0  0  0  0  0
    5.1790    0.2474    0.0525 C   0  0  0  0  0  0  0  0  0  0  0  0
    6.5016    0.5743    0.5955 C   0  0  0  0  0  0  0  0  0  0  0  0
    6.6002    1.1452    1.8751 C   0  0  0  0  0  0  0  0  0  0  0  0
    7.8441    1.4670    2.4250 C   0  0  0  0  0  0  0  0  0  0  0  0
    9.0096    1.2212    1.7037 C   0  0  0  0  0  0  0  0  0  0  0  0
    8.9348    0.6508    0.4337 C   0  0  0  0  0  0  0  0  0  0  0  0
    7.6892    0.3291   -0.1140 C   0  0  0  0  0  0  0  0  0  0  0  0
    7.6373   -0.2176   -1.3693 O   0  0  0  0  0  0  0  0  0  0  0  0
    4.7284   -0.8725   -0.6247 C   0  0  0  0  0  0  0  0  0  0  0  0
    3.3506   -0.6971   -0.9275 C   0  0  0  0  0  0  0  0  0  0  0  0
    2.3796   -1.4851   -1.5776 C   0  0  0  0  0  0  0  0  0  0  0  0
   -3.0705   -1.1189   -1.0926 N   0  0  0  0  0  0  0  0  0  0  0  0
   -3.9241   -0.5172   -0.0636 C   0  0  2  0  0  0  0  0  0  0  0  0
   -3.2345    0.6975    0.6064 C   0  0  0  0  0  0  0  0  0  0  0  0
   -4.1686    1.3457    1.6434 C   0  0  1  0  0  0  0  0  0  0  0  0
   -5.4489    1.8274    0.9429 C   0  0  0  0  0  0  0  0  0  0  0  0
   -6.1672    0.6381    0.2862 C   0  0  2  0  0  0  0  0  0  0  0  0
   -6.5307   -0.3953    1.3635 C   0  0  0  0  0  0  0  0  0  0  0  0
   -5.2567   -0.8904    2.0656 C   0  0  2  0  0  0  0  0  0  0  0  0
   -4.5372    0.3046    2.7140 C   0  0  0  0  0  0  0  0  0  0  0  0
   -4.3237   -1.5410    1.0287 C   0  0  0  0  0  0  0  0  0  0  0  0
   -5.2277   -0.0138   -0.7408 C   0  0  0  0  0  0  0  0  0  0  0  0
   -1.7863   -2.7237   -2.7556 H   0  0  0  0  0  0  0  0  0  0  0  0
    0.4768   -2.2576   -3.3669 H   0  0  0  0  0  0  0  0  0  0  0  0
   -0.2673    0.6546   -1.3375 H   0  0  0  0  0  0  0  0  0  0  0  0
    1.4183    2.0400   -0.1844 H   0  0  0  0  0  0  0  0  0  0  0  0
    4.1315    2.0165    0.5671 H   0  0  0  0  0  0  0  0  0  0  0  0
    5.7065    1.3230    2.4688 H   0  0  0  0  0  0  0  0  0  0  0  0
    7.9008    1.9014    3.4199 H   0  0  0  0  0  0  0  0  0  0  0  0
    9.9768    1.4694    2.1331 H   0  0  0  0  0  0  0  0  0  0  0  0
    9.8533    0.4643   -0.1141 H   0  0  0  0  0  0  0  0  0  0  0  0
    8.5385   -0.3013   -1.7170 H   0  0  0  0  0  0  0  0  0  0  0  0
    5.3336   -1.7353   -0.8699 H   0  0  0  0  0  0  0  0  0  0  0  0
    2.6574   -2.4626   -1.9605 H   0  0  0  0  0  0  0  0  0  0  0  0
   -3.3335   -0.9735   -2.0581 H   0  0  0  0  0  0  0  0  0  0  0  0
   -2.3043    0.3948    1.1020 H   0  0  0  0  0  0  0  0  0  0  0  0
   -2.9500    1.4367   -0.1539 H   0  0  0  0  0  0  0  0  0  0  0  0
   -3.6630    2.1965    2.1138 H   0  0  0  0  0  0  0  0  0  0  0  0
   -5.2010    2.5809    0.1853 H   0  0  0  0  0  0  0  0  0  0  0  0
   -6.1134    2.3123    1.6686 H   0  0  0  0  0  0  0  0  0  0  0  0
   -7.0777    0.9865   -0.2140 H   0  0  0  0  0  0  0  0  0  0  0  0
   -7.2134    0.0515    2.0966 H   0  0  0  0  0  0  0  0  0  0  0  0
   -7.0610   -1.2410    0.9086 H   0  0  0  0  0  0  0  0  0  0  0  0
   -5.5212   -1.6243    2.8351 H   0  0  0  0  0  0  0  0  0  0  0  0
   -3.6323   -0.0381    3.2308 H   0  0  0  0  0  0  0  0  0  0  0  0
   -5.1831    0.7623    3.4734 H   0  0  0  0  0  0  0  0  0  0  0  0
   -4.8195   -2.4070    0.5707 H   0  0  0  0  0  0  0  0  0  0  0  0
   -3.4395   -1.9320    1.5450 H   0  0  0  0  0  0  0  0  0  0  0  0
   -4.9872    0.7099   -1.5313 H   0  0  0  0  0  0  0  0  0  0  0  0
   -5.7418   -0.8482   -1.2363 H   0  0  0  0  0  0  0  0  0  0  0  0
  1  2  2  0
  2  3  1  0
  3  4  2  0
  4  5  1  0
  5  6  2  0
  6  7  1  0
  7  8  2  0
  8  9  1  0
  9 10  1  0
 10 11  1  0
 11 12  2  0
 12 13  1  0
 13 14  2  0
 14 15  1  0
 15 16  2  0
 16 17  1  0
 10 18  2  0
 18 19  1  0
 19 20  2  0
  2 21  1  0
 22 21  1  6
 22 23  1  0
 23 24  1  0
 24 25  1  0
 25 26  1  0
 26 27  1  0
 27 28  1  0
 28 29  1  0
 28 30  1  0
 26 31  1  0
 20  5  1  0
 30 22  1  0
 19  8  1  0
 31 22  1  0
 16 11  1  0
 29 24  1  0
  3 32  1  0
  4 33  1  0
  6 34  1  0
  7 35  1  0
  9 36  1  0
 12 37  1  0
 13 38  1  0
 14 39  1  0
 15 40  1  0
 17 41  1  0
 18 42  1  0
 20 43  1  0
 21 44  1  0
 23 45  1  0
 23 46  1  0
 24 47  1  1
 25 48  1  0
 25 49  1  0
 26 50  1  6
 27 51  1  0
 27 52  1  0
 28 53  1  1
 29 54  1  0
 29 55  1  0
 30 56  1  0
 30 57  1  0
 31 58  1  0
 31 59  1  0
M  END
>  <_SMILES>  (79) 
O=C(/C=C\c1ccc2[nH]c(-c3ccccc3O)cc2c1)N[C@]12C[C@H]3C[C@H](C[C@H](C3)C1)C2

$$$$

     RDKit          3D

 56 61  0  0  0  0  0  0  0  0999 V2000
   -0.3637    1.1865    0.1848 O   0  0  0  0  0  0  0  0  0  0  0  0
   -0.4403    0.0667    0.6742 C   0  0  0  0  0  0  0  0  0  0  0  0
   -1.6159   -0.6397    0.8371 N   0  0  0  0  0  0  0  0  0  0  0  0
   -2.9334   -0.1685    0.3957 C   0  0  2  0  0  0  0  0  0  0  0  0
   -2.9909    0.0046   -1.1419 C   0  0  0  0  0  0  0  0  0  0  0  0
   -4.3982    0.4433   -1.5845 C   0  0  1  0  0  0  0  0  0  0  0  0
   -5.4188   -0.6278   -1.1681 C   0  0  0  0  0  0  0  0  0  0  0  0
   -5.3999   -0.8059    0.3583 C   0  0  2  0  0  0  0  0  0  0  0  0
   -5.7552    0.5287    1.0312 C   0  0  0  0  0  0  0  0  0  0  0  0
   -4.7361    1.6057    0.6285 C   0  0  2  0  0  0  0  0  0  0  0  0
   -4.7528    1.7746   -0.9004 C   0  0  0  0  0  0  0  0  0  0  0  0
   -3.3294    1.1679    1.0738 C   0  0  0  0  0  0  0  0  0  0  0  0
   -3.9907   -1.2327    0.7986 C   0  0  0  0  0  0  0  0  0  0  0  0
    0.7998   -0.6402    1.0999 C   0  0  0  0  0  0  0  0  0  0  0  0
    0.8005   -1.5292    2.1779 C   0  0  0  0  0  0  0  0  0  0  0  0
    1.9711   -2.1926    2.5556 C   0  0  0  0  0  0  0  0  0  0  0  0
    3.1377   -1.9248    1.8275 C   0  0  0  0  0  0  0  0  0  0  0  0
    4.4030   -2.4408    1.9804 N   0  0  0  0  0  0  0  0  0  0  0  0
    5.2497   -1.9065    1.0498 C   0  0  0  0  0  0  0  0  0  0  0  0
    4.5430   -1.0054    0.2857 C   0  0  0  0  0  0  0  0  0  0  0  0
    5.0847   -0.2775   -0.7248 N   0  0  0  0  0  0  0  0  0  0  0  0
    4.4570    0.8946   -1.3265 C   0  0  0  0  0  0  0  0  0  0  0  0
    5.6029    1.6198   -2.0299 C   0  0  0  0  0  0  0  0  0  0  0  0
    6.5536    0.4932   -2.3905 C   0  0  0  0  0  0  0  0  0  0  0  0
    6.4685   -0.4164   -1.1698 C   0  0  0  0  0  0  0  0  0  0  0  0
    3.1878   -1.0207    0.7608 C   0  0  0  0  0  0  0  0  0  0  0  0
    1.9857   -0.3729    0.3973 C   0  0  0  0  0  0  0  0  0  0  0  0
   -1.5251   -1.6325    1.0078 H   0  0  0  0  0  0  0  0  0  0  0  0
   -2.7200   -0.9366   -1.6380 H   0  0  0  0  0  0  0  0  0  0  0  0
   -2.2606    0.7498   -1.4789 H   0  0  0  0  0  0  0  0  0  0  0  0
   -4.4194    0.5698   -2.6727 H   0  0  0  0  0  0  0  0  0  0  0  0
   -6.4233   -0.3370   -1.4991 H   0  0  0  0  0  0  0  0  0  0  0  0
   -5.1848   -1.5800   -1.6599 H   0  0  0  0  0  0  0  0  0  0  0  0
   -6.1269   -1.5721    0.6500 H   0  0  0  0  0  0  0  0  0  0  0  0
   -5.7633    0.4089    2.1215 H   0  0  0  0  0  0  0  0  0  0  0  0
   -6.7654    0.8396    0.7376 H   0  0  0  0  0  0  0  0  0  0  0  0
   -4.9953    2.5562    1.1081 H   0  0  0  0  0  0  0  0  0  0  0  0
   -4.0386    2.5516   -1.1995 H   0  0  0  0  0  0  0  0  0  0  0  0
   -5.7443    2.1105   -1.2282 H   0  0  0  0  0  0  0  0  0  0  0  0
   -3.2993    1.0600    2.1660 H   0  0  0  0  0  0  0  0  0  0  0  0
   -2.6178    1.9633    0.8250 H   0  0  0  0  0  0  0  0  0  0  0  0
   -3.9728   -1.3894    1.8855 H   0  0  0  0  0  0  0  0  0  0  0  0
   -3.7421   -2.2021    0.3460 H   0  0  0  0  0  0  0  0  0  0  0  0
   -0.1041   -1.7017    2.7553 H   0  0  0  0  0  0  0  0  0  0  0  0
    1.9725   -2.8850    3.3915 H   0  0  0  0  0  0  0  0  0  0  0  0
    4.6645   -3.1218    2.6789 H   0  0  0  0  0  0  0  0  0  0  0  0
    6.2871   -2.2066    1.0251 H   0  0  0  0  0  0  0  0  0  0  0  0
    3.9974    1.5570   -0.5854 H   0  0  0  0  0  0  0  0  0  0  0  0
    3.7031    0.5805   -2.0567 H   0  0  0  0  0  0  0  0  0  0  0  0
    5.2659    2.1898   -2.9002 H   0  0  0  0  0  0  0  0  0  0  0  0
    6.0916    2.3131   -1.3345 H   0  0  0  0  0  0  0  0  0  0  0  0
    7.5721    0.8397   -2.5856 H   0  0  0  0  0  0  0  0  0  0  0  0
    6.1906   -0.0335   -3.2813 H   0  0  0  0  0  0  0  0  0  0  0  0
    7.1551   -0.0702   -0.3881 H   0  0  0  0  0  0  0  0  0  0  0  0
    6.7191   -1.4482   -1.4383 H   0  0  0  0  0  0  0  0  0  0  0  0
    1.9643    0.3257   -0.4324 H   0  0  0  0  0  0  0  0  0  0  0  0
  1  2  2  0
  2  3  1  0
  4  3  1  6
  4  5  1  0
  5  6  1  0
  6  7  1  0
  7  8  1  0
  8  9  1  0
  9 10  1  0
 10 11  1  0
 10 12  1  0
  8 13  1  0
  2 14  1  0
 14 15  2  0
 15 16  1  0
 16 17  2  0
 17 18  1  0
 18 19  1  0
 19 20  2  0
 20 21  1  0
 21 22  1  0
 22 23  1  0
 23 24  1  0
 24 25  1  0
 20 26  1  0
 26 27  2  0
 12  4  1  0
 27 14  1  0
 13  4  1  0
 26 17  1  0
 11  6  1  0
 25 21  1  0
  3 28  1  0
  5 29  1  0
  5 30  1  0
  6 31  1  6
  7 32  1  0
  7 33  1  0
  8 34  1  6
  9 35  1  0
  9 36  1  0
 10 37  1  1
 11 38  1  0
 11 39  1  0
 12 40  1  0
 12 41  1  0
 13 42  1  0
 13 43  1  0
 15 44  1  0
 16 45  1  0
 18 46  1  0
 19 47  1  0
 22 48  1  0
 22 49  1  0
 23 50  1  0
 23 51  1  0
 24 52  1  0
 24 53  1  0
 25 54  1  0
 25 55  1  0
 27 56  1  0
M  END
>  <_SMILES>  (80) 
O=C(N[C@]12C[C@H]3C[C@H](C[C@H](C3)C1)C2)c1ccc2[nH]cc(N3CCCC3)c2c1

$$$$

     RDKit          3D

 56 61  0  0  0  0  0  0  0  0999 V2000
    6.8293    1.6530    0.8309 C   0  0  0  0  0  0  0  0  0  0  0  0
    7.0546    0.3327    0.1426 C   0  0  0  0  0  0  0  0  0  0  0  0
    8.3797   -0.0670   -0.1124 C   0  0  0  0  0  0  0  0  0  0  0  0
    8.6555   -1.2728   -0.7554 C   0  0  0  0  0  0  0  0  0  0  0  0
    7.6119   -2.1011   -1.1493 C   0  0  0  0  0  0  0  0  0  0  0  0
    6.2924   -1.7250   -0.8927 C   0  0  0  0  0  0  0  0  0  0  0  0
    5.9919   -0.5160   -0.2380 C   0  0  0  0  0  0  0  0  0  0  0  0
    4.5876   -0.1936    0.0032 C   0  0  0  0  0  0  0  0  0  0  0  0
    3.4311   -0.3484   -0.7380 C   0  0  0  0  0  0  0  0  0  0  0  0
    2.3608    0.1333    0.0611 C   0  0  0  0  0  0  0  0  0  0  0  0
    0.9687    0.2669   -0.0971 C   0  0  0  0  0  0  0  0  0  0  0  0
    0.2201    0.8104    0.9646 C   0  0  0  0  0  0  0  0  0  0  0  0
   -1.2563    0.9807    0.8579 C   0  0  0  0  0  0  0  0  0  0  0  0
   -1.8013    1.9013    1.4529 O   0  0  0  0  0  0  0  0  0  0  0  0
   -1.9162    0.0337    0.1007 N   0  0  0  0  0  0  0  0  0  0  0  0
   -3.3740   -0.0291   -0.0595 C   0  0  2  0  0  0  0  0  0  0  0  0
   -3.7084   -1.2070   -1.0151 C   0  0  0  0  0  0  0  0  0  0  0  0
   -5.2256   -1.3365   -1.2230 C   0  0  1  0  0  0  0  0  0  0  0  0
   -5.9014   -1.5808    0.1354 C   0  0  0  0  0  0  0  0  0  0  0  0
   -5.6057   -0.4108    1.0871 C   0  0  2  0  0  0  0  0  0  0  0  0
   -6.1375    0.8931    0.4679 C   0  0  0  0  0  0  0  0  0  0  0  0
   -5.4660    1.1460   -0.8927 C   0  0  2  0  0  0  0  0  0  0  0  0
   -5.7634   -0.0327   -1.8323 C   0  0  0  0  0  0  0  0  0  0  0  0
   -3.9448    1.2659   -0.6916 C   0  0  0  0  0  0  0  0  0  0  0  0
   -4.0849   -0.2922    1.2908 C   0  0  0  0  0  0  0  0  0  0  0  0
    0.8514    1.2336    2.1446 C   0  0  0  0  0  0  0  0  0  0  0  0
    2.2346    1.1051    2.3158 C   0  0  0  0  0  0  0  0  0  0  0  0
    2.9409    0.5504    1.2522 C   0  0  0  0  0  0  0  0  0  0  0  0
    4.2845    0.3438    1.2214 O   0  0  0  0  0  0  0  0  0  0  0  0
    6.0394    2.2245    0.3329 H   0  0  0  0  0  0  0  0  0  0  0  0
    6.5667    1.4934    1.8812 H   0  0  0  0  0  0  0  0  0  0  0  0
    7.7309    2.2749    0.8015 H   0  0  0  0  0  0  0  0  0  0  0  0
    9.2103    0.5688    0.1880 H   0  0  0  0  0  0  0  0  0  0  0  0
    9.6852   -1.5634   -0.9469 H   0  0  0  0  0  0  0  0  0  0  0  0
    7.8221   -3.0429   -1.6490 H   0  0  0  0  0  0  0  0  0  0  0  0
    5.4934   -2.3986   -1.1952 H   0  0  0  0  0  0  0  0  0  0  0  0
    3.3714   -0.7529   -1.7383 H   0  0  0  0  0  0  0  0  0  0  0  0
    0.5007   -0.0198   -1.0329 H   0  0  0  0  0  0  0  0  0  0  0  0
   -1.4024   -0.8065   -0.1289 H   0  0  0  0  0  0  0  0  0  0  0  0
   -3.3115   -2.1471   -0.6088 H   0  0  0  0  0  0  0  0  0  0  0  0
   -3.2121   -1.0592   -1.9837 H   0  0  0  0  0  0  0  0  0  0  0  0
   -5.4368   -2.1742   -1.8970 H   0  0  0  0  0  0  0  0  0  0  0  0
   -6.9846   -1.6900    0.0009 H   0  0  0  0  0  0  0  0  0  0  0  0
   -5.5386   -2.5197    0.5715 H   0  0  0  0  0  0  0  0  0  0  0  0
   -6.0940   -0.5876    2.0520 H   0  0  0  0  0  0  0  0  0  0  0  0
   -7.2254    0.8301    0.3416 H   0  0  0  0  0  0  0  0  0  0  0  0
   -5.9440    1.7351    1.1438 H   0  0  0  0  0  0  0  0  0  0  0  0
   -5.8542    2.0729   -1.3297 H   0  0  0  0  0  0  0  0  0  0  0  0
   -5.3015    0.1425   -2.8117 H   0  0  0  0  0  0  0  0  0  0  0  0
   -6.8443   -0.1151   -2.0002 H   0  0  0  0  0  0  0  0  0  0  0  0
   -3.4545    1.4635   -1.6539 H   0  0  0  0  0  0  0  0  0  0  0  0
   -3.7407    2.1374   -0.0594 H   0  0  0  0  0  0  0  0  0  0  0  0
   -3.8806    0.5152    2.0040 H   0  0  0  0  0  0  0  0  0  0  0  0
   -3.6967   -1.2115    1.7487 H   0  0  0  0  0  0  0  0  0  0  0  0
    0.2575    1.6699    2.9473 H   0  0  0  0  0  0  0  0  0  0  0  0
    2.7348    1.4233    3.2225 H   0  0  0  0  0  0  0  0  0  0  0  0
  1  2  1  0
  2  3  2  0
  3  4  1  0
  4  5  2  0
  5  6  1  0
  6  7  2  0
  7  8  1  0
  8  9  2  0
  9 10  1  0
 10 11  2  0
 11 12  1  0
 12 13  1  0
 13 14  2  0
 13 15  1  0
 16 15  1  1
 16 17  1  0
 17 18  1  0
 18 19  1  0
 19 20  1  0
 20 21  1  0
 21 22  1  0
 22 23  1  0
 22 24  1  0
 20 25  1  0
 12 26  2  0
 26 27  1  0
 27 28  2  0
 28 29  1  0
  7  2  1  0
 29  8  1  0
 28 10  1  0
 24 16  1  0
 25 16  1  0
 23 18  1  0
  1 30  1  0
  1 31  1  0
  1 32  1  0
  3 33  1  0
  4 34  1  0
  5 35  1  0
  6 36  1  0
  9 37  1  0
 11 38  1  0
 15 39  1  0
 17 40  1  0
 17 41  1  0
 18 42  1  6
 19 43  1  0
 19 44  1  0
 20 45  1  1
 21 46  1  0
 21 47  1  0
 22 48  1  6
 23 49  1  0
 23 50  1  0
 24 51  1  0
 24 52  1  0
 25 53  1  0
 25 54  1  0
 26 55  1  0
 27 56  1  0
M  END
>  <_SMILES>  (81) 
Cc1ccccc1-c1cc2cc(C(=O)N[C@]34C[C@H]5C[C@H](C[C@H](C5)C3)C4)ccc2o1

$$$$

     RDKit          3D

 53 58  0  0  0  0  0  0  0  0999 V2000
   -1.1174    0.8242    2.1857 O   0  0  0  0  0  0  0  0  0  0  0  0
   -0.6553    0.4128    1.1294 C   0  0  0  0  0  0  0  0  0  0  0  0
   -1.4004    0.0052    0.0462 N   0  0  0  0  0  0  0  0  0  0  0  0
   -2.8654    0.0463   -0.0180 C   0  0  2  0  0  0  0  0  0  0  0  0
   -3.5180   -0.8189    1.0899 C   0  0  0  0  0  0  0  0  0  0  0  0
   -5.0517   -0.7948    0.9635 C   0  0  1  0  0  0  0  0  0  0  0  0
   -5.5461    0.6571    1.0808 C   0  0  0  0  0  0  0  0  0  0  0  0
   -4.9336    1.5174   -0.0377 C   0  0  2  0  0  0  0  0  0  0  0  0
   -5.3399    0.9383   -1.4021 C   0  0  0  0  0  0  0  0  0  0  0  0
   -4.8409   -0.5098   -1.5275 C   0  0  2  0  0  0  0  0  0  0  0  0
   -5.4579   -1.3599   -0.4063 C   0  0  0  0  0  0  0  0  0  0  0  0
   -3.3103   -0.5292   -1.3902 C   0  0  0  0  0  0  0  0  0  0  0  0
   -3.3999    1.4959    0.0880 C   0  0  0  0  0  0  0  0  0  0  0  0
    0.8171    0.3615    0.8945 C   0  0  0  0  0  0  0  0  0  0  0  0
    1.4725   -0.7297    0.1822 C   0  0  0  0  0  0  0  0  0  0  0  0
    2.8052   -0.7429   -0.0087 C   0  0  0  0  0  0  0  0  0  0  0  0
    3.6019    0.3280    0.4967 C   0  0  0  0  0  0  0  0  0  0  0  0
    4.9449    0.6462    0.4847 C   0  0  0  0  0  0  0  0  0  0  0  0
    5.9972   -0.1295   -0.1379 C   0  0  0  0  0  0  0  0  0  0  0  0
    7.1010   -0.5426    0.6178 C   0  0  0  0  0  0  0  0  0  0  0  0
    8.1255   -1.2818    0.0221 C   0  0  0  0  0  0  0  0  0  0  0  0
    8.0560   -1.6066   -1.3318 C   0  0  0  0  0  0  0  0  0  0  0  0
    6.9642   -1.1919   -2.0930 C   0  0  0  0  0  0  0  0  0  0  0  0
    5.9381   -0.4538   -1.4991 C   0  0  0  0  0  0  0  0  0  0  0  0
    5.0254    1.8377    1.2316 C   0  0  0  0  0  0  0  0  0  0  0  0
    3.8399    2.2655    1.6654 N   0  0  0  0  0  0  0  0  0  0  0  0
    2.9537    1.3393    1.2181 N   0  0  0  0  0  0  0  0  0  0  0  0
    1.5741    1.3458    1.4099 C   0  0  0  0  0  0  0  0  0  0  0  0
   -0.9081   -0.1292   -0.8270 H   0  0  0  0  0  0  0  0  0  0  0  0
   -3.2403   -0.4583    2.0869 H   0  0  0  0  0  0  0  0  0  0  0  0
   -3.1534   -1.8525    1.0250 H   0  0  0  0  0  0  0  0  0  0  0  0
   -5.4967   -1.4021    1.7597 H   0  0  0  0  0  0  0  0  0  0  0  0
   -5.2740    1.0677    2.0610 H   0  0  0  0  0  0  0  0  0  0  0  0
   -6.6408    0.6853    1.0168 H   0  0  0  0  0  0  0  0  0  0  0  0
   -5.2960    2.5479    0.0483 H   0  0  0  0  0  0  0  0  0  0  0  0
   -6.4307    0.9697   -1.5129 H   0  0  0  0  0  0  0  0  0  0  0  0
   -4.9202    1.5510   -2.2095 H   0  0  0  0  0  0  0  0  0  0  0  0
   -5.1304   -0.9175   -2.5025 H   0  0  0  0  0  0  0  0  0  0  0  0
   -5.1233   -2.4006   -0.4969 H   0  0  0  0  0  0  0  0  0  0  0  0
   -6.5509   -1.3677   -0.4997 H   0  0  0  0  0  0  0  0  0  0  0  0
   -2.9403   -1.5569   -1.5059 H   0  0  0  0  0  0  0  0  0  0  0  0
   -2.8603    0.0513   -2.2068 H   0  0  0  0  0  0  0  0  0  0  0  0
   -3.1124    1.9496    1.0440 H   0  0  0  0  0  0  0  0  0  0  0  0
   -2.9522    2.1214   -0.6954 H   0  0  0  0  0  0  0  0  0  0  0  0
    0.8653   -1.5620   -0.1615 H   0  0  0  0  0  0  0  0  0  0  0  0
    3.2838   -1.5739   -0.5185 H   0  0  0  0  0  0  0  0  0  0  0  0
    7.1680   -0.3031    1.6768 H   0  0  0  0  0  0  0  0  0  0  0  0
    8.9774   -1.6041    0.6155 H   0  0  0  0  0  0  0  0  0  0  0  0
    8.8552   -2.1803   -1.7946 H   0  0  0  0  0  0  0  0  0  0  0  0
    6.9141   -1.4384   -3.1504 H   0  0  0  0  0  0  0  0  0  0  0  0
    5.1007   -0.1239   -2.1094 H   0  0  0  0  0  0  0  0  0  0  0  0
    5.9071    2.4186    1.4714 H   0  0  0  0  0  0  0  0  0  0  0  0
    1.1784    2.1781    1.9786 H   0  0  0  0  0  0  0  0  0  0  0  0
  1  2  2  0
  2  3  1  0
  4  3  1  6
  4  5  1  0
  5  6  1  0
  6  7  1  0
  7  8  1  0
  8  9  1  0
  9 10  1  0
 10 11  1  0
 10 12  1  0
  8 13  1  0
  2 14  1  0
 14 15  1  0
 15 16  2  0
 16 17  1  0
 17 18  2  0
 18 19  1  0
 19 20  2  0
 20 21  1  0
 21 22  2  0
 22 23  1  0
 23 24  2  0
 18 25  1  0
 25 26  2  0
 26 27  1  0
 27 28  1  0
 12  4  1  0
 28 14  2  0
 13  4  1  0
 27 17  1  0
 11  6  1  0
 24 19  1  0
  3 29  1  0
  5 30  1  0
  5 31  1  0
  6 32  1  1
  7 33  1  0
  7 34  1  0
  8 35  1  6
  9 36  1  0
  9 37  1  0
 10 38  1  6
 11 39  1  0
 11 40  1  0
 12 41  1  0
 12 42  1  0
 13 43  1  0
 13 44  1  0
 15 45  1  0
 16 46  1  0
 20 47  1  0
 21 48  1  0
 22 49  1  0
 23 50  1  0
 24 51  1  0
 25 52  1  0
 28 53  1  0
M  END
>  <_SMILES>  (82) 
O=C(N[C@]12C[C@H]3C[C@H](C[C@H](C3)C1)C2)c1ccc2c(-c3ccccc3)cnn2c1

$$$$

     RDKit          3D

 43 46  0  0  0  0  0  0  0  0999 V2000
    6.8331    0.1261   -0.3164 C   0  0  0  0  0  0  0  0  0  0  0  0
    5.3577   -0.1440   -0.2697 C   0  0  0  0  0  0  0  0  0  0  0  0
    4.5176    0.6432    0.5280 C   0  0  0  0  0  0  0  0  0  0  0  0
    3.1391    0.4119    0.5512 C   0  0  0  0  0  0  0  0  0  0  0  0
    2.5853   -0.6009   -0.2411 C   0  0  0  0  0  0  0  0  0  0  0  0
    1.1227   -0.8838   -0.2492 C   0  0  0  0  0  0  0  0  0  0  0  0
    0.7276   -2.0205   -0.4757 O   0  0  0  0  0  0  0  0  0  0  0  0
    0.2996    0.2032   -0.0300 N   0  0  0  0  0  0  0  0  0  0  0  0
   -1.1661    0.1573   -0.0853 C   0  0  2  0  0  0  0  0  0  0  0  0
   -1.6716   -0.2194   -1.4996 C   0  0  0  0  0  0  0  0  0  0  0  0
   -3.2098   -0.2043   -1.5460 C   0  0  1  0  0  0  0  0  0  0  0  0
   -3.7580   -1.2073   -0.5166 C   0  0  0  0  0  0  0  0  0  0  0  0
   -3.2935   -0.8216    0.8983 C   0  0  2  0  0  0  0  0  0  0  0  0
   -3.7990    0.5906    1.2309 C   0  0  0  0  0  0  0  0  0  0  0  0
   -3.2464    1.5981    0.2112 C   0  0  2  0  0  0  0  0  0  0  0  0
   -3.7149    1.2050   -1.1986 C   0  0  0  0  0  0  0  0  0  0  0  0
   -1.7105    1.5710    0.2578 C   0  0  0  0  0  0  0  0  0  0  0  0
   -1.7553   -0.8370    0.9476 C   0  0  0  0  0  0  0  0  0  0  0  0
    3.4219   -1.3913   -1.0365 C   0  0  0  0  0  0  0  0  0  0  0  0
    4.7988   -1.1569   -1.0584 C   0  0  0  0  0  0  0  0  0  0  0  0
    7.0551    0.8535   -1.1032 H   0  0  0  0  0  0  0  0  0  0  0  0
    7.1886    0.5203    0.6413 H   0  0  0  0  0  0  0  0  0  0  0  0
    7.3926   -0.7939   -0.5162 H   0  0  0  0  0  0  0  0  0  0  0  0
    4.9349    1.4353    1.1466 H   0  0  0  0  0  0  0  0  0  0  0  0
    2.5176    1.0106    1.2107 H   0  0  0  0  0  0  0  0  0  0  0  0
    0.7253    1.1172   -0.1057 H   0  0  0  0  0  0  0  0  0  0  0  0
   -1.3140   -1.2144   -1.7905 H   0  0  0  0  0  0  0  0  0  0  0  0
   -1.2688    0.4807   -2.2432 H   0  0  0  0  0  0  0  0  0  0  0  0
   -3.5509   -0.4815   -2.5498 H   0  0  0  0  0  0  0  0  0  0  0  0
   -4.8540   -1.2240   -0.5583 H   0  0  0  0  0  0  0  0  0  0  0  0
   -3.4148   -2.2202   -0.7607 H   0  0  0  0  0  0  0  0  0  0  0  0
   -3.6927   -1.5371    1.6260 H   0  0  0  0  0  0  0  0  0  0  0  0
   -3.4863    0.8720    2.2440 H   0  0  0  0  0  0  0  0  0  0  0  0
   -4.8957    0.6088    1.2197 H   0  0  0  0  0  0  0  0  0  0  0  0
   -3.6064    2.6043    0.4533 H   0  0  0  0  0  0  0  0  0  0  0  0
   -3.3416    1.9288   -1.9335 H   0  0  0  0  0  0  0  0  0  0  0  0
   -4.8102    1.2341   -1.2512 H   0  0  0  0  0  0  0  0  0  0  0  0
   -1.3637    1.8770    1.2540 H   0  0  0  0  0  0  0  0  0  0  0  0
   -1.3083    2.3116   -0.4466 H   0  0  0  0  0  0  0  0  0  0  0  0
   -1.4107   -0.5795    1.9577 H   0  0  0  0  0  0  0  0  0  0  0  0
   -1.4069   -1.8582    0.7562 H   0  0  0  0  0  0  0  0  0  0  0  0
    3.0012   -2.1898   -1.6448 H   0  0  0  0  0  0  0  0  0  0  0  0
    5.4318   -1.7752   -1.6915 H   0  0  0  0  0  0  0  0  0  0  0  0
  1  2  1  0
  2  3  1  0
  3  4  2  0
  4  5  1  0
  5  6  1  0
  6  7  2  0
  6  8  1  0
  9  8  1  6
  9 10  1  0
 10 11  1  0
 11 12  1  0
 12 13  1  0
 13 14  1  0
 14 15  1  0
 15 16  1  0
 15 17  1  0
 13 18  1  0
  5 19  2  0
 19 20  1  0
 20  2  2  0
 17  9  1  0
 18  9  1  0
 16 11  1  0
  1 21  1  0
  1 22  1  0
  1 23  1  0
  3 24  1  0
  4 25  1  0
  8 26  1  0
 10 27  1  0
 10 28  1  0
 11 29  1  6
 12 30  1  0
 12 31  1  0
 13 32  1  1
 14 33  1  0
 14 34  1  0
 15 35  1  1
 16 36  1  0
 16 37  1  0
 17 38  1  0
 17 39  1  0
 18 40  1  0
 18 41  1  0
 19 42  1  0
 20 43  1  0
M  END
>  <_SMILES>  (83) 
Cc1ccc(C(=O)N[C@]23C[C@H]4C[C@H](C[C@H](C4)C2)C3)cc1

$$$$

     RDKit          3D

 56 61  0  0  0  0  0  0  0  0999 V2000
   -0.3413    0.7031    1.0904 O   0  0  0  0  0  0  0  0  0  0  0  0
   -0.5300   -0.4724    0.8045 C   0  0  0  0  0  0  0  0  0  0  0  0
   -1.7680   -1.0395    0.5795 N   0  0  0  0  0  0  0  0  0  0  0  0
   -3.0345   -0.2977    0.6014 C   0  0  2  0  0  0  0  0  0  0  0  0
   -3.2918    0.3710    1.9758 C   0  0  0  0  0  0  0  0  0  0  0  0
   -4.6497    1.0956    1.9803 C   0  0  1  0  0  0  0  0  0  0  0  0
   -4.6561    2.1644    0.8739 C   0  0  0  0  0  0  0  0  0  0  0  0
   -4.4393    1.5065   -0.4996 C   0  0  2  0  0  0  0  0  0  0  0  0
   -5.5601    0.4863   -0.7550 C   0  0  0  0  0  0  0  0  0  0  0  0
   -5.5525   -0.5883    0.3436 C   0  0  2  0  0  0  0  0  0  0  0  0
   -5.7695    0.0790    1.7102 C   0  0  0  0  0  0  0  0  0  0  0  0
   -4.1911   -1.3014    0.3417 C   0  0  0  0  0  0  0  0  0  0  0  0
   -3.0811    0.7828   -0.5067 C   0  0  0  0  0  0  0  0  0  0  0  0
    0.6381   -1.3810    0.6395 C   0  0  0  0  0  0  0  0  0  0  0  0
    0.5578   -2.7429    0.9560 C   0  0  0  0  0  0  0  0  0  0  0  0
    1.6632   -3.5863    0.7955 C   0  0  0  0  0  0  0  0  0  0  0  0
    2.8453   -3.0071    0.3227 C   0  0  0  0  0  0  0  0  0  0  0  0
    4.0732   -3.5460    0.0577 N   0  0  0  0  0  0  0  0  0  0  0  0
    4.9760   -2.6690   -0.4014 N   0  0  0  0  0  0  0  0  0  0  0  0
    4.3294   -1.4904   -0.4024 C   0  0  0  0  0  0  0  0  0  0  0  0
    5.0143   -0.2651   -0.8188 C   0  0  0  0  0  0  0  0  0  0  0  0
    4.7943    0.9495   -0.1572 C   0  0  0  0  0  0  0  0  0  0  0  0
    5.4546    2.1131   -0.5673 C   0  0  0  0  0  0  0  0  0  0  0  0
    6.3490    2.0847   -1.6475 C   0  0  0  0  0  0  0  0  0  0  0  0
    7.0795    3.3345   -2.0737 C   0  0  0  0  0  0  0  0  0  0  0  0
    7.3875    3.3482   -3.4011 F   0  0  0  0  0  0  0  0  0  0  0  0
    8.2599    3.4957   -1.4147 F   0  0  0  0  0  0  0  0  0  0  0  0
    6.3669    4.4739   -1.8482 F   0  0  0  0  0  0  0  0  0  0  0  0
    6.5851    0.8641   -2.2958 C   0  0  0  0  0  0  0  0  0  0  0  0
    5.9242   -0.2975   -1.8846 C   0  0  0  0  0  0  0  0  0  0  0  0
    2.9717   -1.6545    0.0243 C   0  0  0  0  0  0  0  0  0  0  0  0
    1.8437   -0.8240    0.1810 C   0  0  0  0  0  0  0  0  0  0  0  0
   -1.7800   -1.9366    0.1128 H   0  0  0  0  0  0  0  0  0  0  0  0
   -3.2678   -0.3838    2.7728 H   0  0  0  0  0  0  0  0  0  0  0  0
   -2.5053    1.0952    2.2163 H   0  0  0  0  0  0  0  0  0  0  0  0
   -4.8104    1.5712    2.9543 H   0  0  0  0  0  0  0  0  0  0  0  0
   -5.6104    2.7052    0.8826 H   0  0  0  0  0  0  0  0  0  0  0  0
   -3.8691    2.9047    1.0632 H   0  0  0  0  0  0  0  0  0  0  0  0
   -4.4526    2.2729   -1.2826 H   0  0  0  0  0  0  0  0  0  0  0  0
   -6.5320    0.9945   -0.7754 H   0  0  0  0  0  0  0  0  0  0  0  0
   -5.4246    0.0188   -1.7381 H   0  0  0  0  0  0  0  0  0  0  0  0
   -6.3511   -1.3146    0.1558 H   0  0  0  0  0  0  0  0  0  0  0  0
   -6.7448    0.5806    1.7320 H   0  0  0  0  0  0  0  0  0  0  0  0
   -5.7847   -0.6812    2.5009 H   0  0  0  0  0  0  0  0  0  0  0  0
   -4.1841   -2.0905    1.1056 H   0  0  0  0  0  0  0  0  0  0  0  0
   -4.0425   -1.8075   -0.6218 H   0  0  0  0  0  0  0  0  0  0  0  0
   -2.2814    1.5200   -0.3677 H   0  0  0  0  0  0  0  0  0  0  0  0
   -2.9077    0.3238   -1.4889 H   0  0  0  0  0  0  0  0  0  0  0  0
   -0.3613   -3.1637    1.3573 H   0  0  0  0  0  0  0  0  0  0  0  0
    1.6019   -4.6423    1.0397 H   0  0  0  0  0  0  0  0  0  0  0  0
    4.3584   -4.5128    0.1625 H   0  0  0  0  0  0  0  0  0  0  0  0
    4.1241    1.0037    0.6979 H   0  0  0  0  0  0  0  0  0  0  0  0
    5.2693    3.0445   -0.0335 H   0  0  0  0  0  0  0  0  0  0  0  0
    7.2881    0.8090   -3.1258 H   0  0  0  0  0  0  0  0  0  0  0  0
    6.1238   -1.2356   -2.4002 H   0  0  0  0  0  0  0  0  0  0  0  0
    1.8954    0.2353   -0.0576 H   0  0  0  0  0  0  0  0  0  0  0  0
  1  2  2  0
  2  3  1  0
  4  3  1  1
  4  5  1  0
  5  6  1  0
  6  7  1  0
  7  8  1  0
  8  9  1  0
  9 10  1  0
 10 11  1  0
 10 12  1  0
  8 13  1  0
  2 14  1  0
 14 15  2  0
 15 16  1  0
 16 17  2  0
 17 18  1  0
 18 19  1  0
 19 20  2  0
 20 21  1  0
 21 22  1  0
 22 23  2  0
 23 24  1  0
 24 25  1  0
 25 26  1  0
 25 27  1  0
 25 28  1  0
 24 29  2  0
 29 30  1  0
 20 31  1  0
 31 32  2  0
 12  4  1  0
 32 14  1  0
 13  4  1  0
 31 17  1  0
 11  6  1  0
 30 21  2  0
  3 33  1  0
  5 34  1  0
  5 35  1  0
  6 36  1  1
  7 37  1  0
  7 38  1  0
  8 39  1  6
  9 40  1  0
  9 41  1  0
 10 42  1  6
 11 43  1  0
 11 44  1  0
 12 45  1  0
 12 46  1  0
 13 47  1  0
 13 48  1  0
 15 49  1  0
 16 50  1  0
 18 51  1  0
 22 52  1  0
 23 53  1  0
 29 54  1  0
 30 55  1  0
 32 56  1  0
M  END
>  <_SMILES>  (84) 
O=C(N[C@]12C[C@H]3C[C@H](C[C@H](C3)C1)C2)c1ccc2[nH]nc(-c3ccc(C(F)(F)F)cc3)c2c1

$$$$

     RDKit          3D

 56 61  0  0  0  0  0  0  0  0999 V2000
    0.5542   -0.1776    1.2479 O   0  0  0  0  0  0  0  0  0  0  0  0
    0.7181   -0.7827    0.1965 C   0  0  0  0  0  0  0  0  0  0  0  0
    1.8759   -0.7618   -0.5541 N   0  0  0  0  0  0  0  0  0  0  0  0
    3.0648    0.0317   -0.2209 C   0  0  2  0  0  0  0  0  0  0  0  0
    4.1559   -0.2535   -1.2888 C   0  0  0  0  0  0  0  0  0  0  0  0
    5.4321    0.5542   -1.0042 C   0  0  1  0  0  0  0  0  0  0  0  0
    5.0931    2.0531   -1.0164 C   0  0  0  0  0  0  0  0  0  0  0  0
    4.0344    2.3608    0.0544 C   0  0  2  0  0  0  0  0  0  0  0  0
    4.5799    1.9615    1.4362 C   0  0  0  0  0  0  0  0  0  0  0  0
    4.9218    0.4619    1.4577 C   0  0  2  0  0  0  0  0  0  0  0  0
    5.9756    0.1661    0.3794 C   0  0  0  0  0  0  0  0  0  0  0  0
    3.6489   -0.3515    1.1627 C   0  0  0  0  0  0  0  0  0  0  0  0
    2.7604    1.5498   -0.2417 C   0  0  0  0  0  0  0  0  0  0  0  0
   -0.4054   -1.5806   -0.3731 C   0  0  0  0  0  0  0  0  0  0  0  0
   -0.1316   -2.7997   -1.0819 C   0  0  0  0  0  0  0  0  0  0  0  0
   -1.1377   -3.6117   -1.6542 C   0  0  0  0  0  0  0  0  0  0  0  0
   -2.4422   -3.1292   -1.4563 C   0  0  0  0  0  0  0  0  0  0  0  0
   -3.6141   -3.6386   -1.8621 N   0  0  0  0  0  0  0  0  0  0  0  0
   -4.5391   -2.7825   -1.3895 N   0  0  0  0  0  0  0  0  0  0  0  0
   -4.0409   -1.7080   -0.6923 C   0  0  0  0  0  0  0  0  0  0  0  0
   -4.8997   -0.6923   -0.0968 C   0  0  0  0  0  0  0  0  0  0  0  0
   -4.7864   -0.3730    1.2610 C   0  0  0  0  0  0  0  0  0  0  0  0
   -5.6146    0.5957    1.8360 C   0  0  0  0  0  0  0  0  0  0  0  0
   -6.5694    1.2688    1.0606 C   0  0  0  0  0  0  0  0  0  0  0  0
   -7.4794    2.3000    1.6830 C   0  0  0  0  0  0  0  0  0  0  0  0
   -7.8318    3.2912    0.8170 F   0  0  0  0  0  0  0  0  0  0  0  0
   -6.9271    2.9260    2.7591 F   0  0  0  0  0  0  0  0  0  0  0  0
   -8.6476    1.7571    2.1238 F   0  0  0  0  0  0  0  0  0  0  0  0
   -6.6876    0.9410   -0.2981 C   0  0  0  0  0  0  0  0  0  0  0  0
   -5.8587   -0.0286   -0.8715 C   0  0  0  0  0  0  0  0  0  0  0  0
   -2.6800   -1.9101   -0.7186 C   0  0  0  0  0  0  0  0  0  0  0  0
   -1.7112   -1.0840   -0.1507 C   0  0  0  0  0  0  0  0  0  0  0  0
    1.8080   -1.0937   -1.5073 H   0  0  0  0  0  0  0  0  0  0  0  0
    3.7787   -0.0043   -2.2898 H   0  0  0  0  0  0  0  0  0  0  0  0
    4.3920   -1.3259   -1.3095 H   0  0  0  0  0  0  0  0  0  0  0  0
    6.1850    0.3392   -1.7707 H   0  0  0  0  0  0  0  0  0  0  0  0
    5.9984    2.6435   -0.8289 H   0  0  0  0  0  0  0  0  0  0  0  0
    4.7215    2.3457   -2.0061 H   0  0  0  0  0  0  0  0  0  0  0  0
    3.8003    3.4312    0.0448 H   0  0  0  0  0  0  0  0  0  0  0  0
    5.4745    2.5520    1.6695 H   0  0  0  0  0  0  0  0  0  0  0  0
    3.8380    2.1881    2.2117 H   0  0  0  0  0  0  0  0  0  0  0  0
    5.3150    0.1867    2.4428 H   0  0  0  0  0  0  0  0  0  0  0  0
    6.8957    0.7245    0.5910 H   0  0  0  0  0  0  0  0  0  0  0  0
    6.2388   -0.8986    0.3942 H   0  0  0  0  0  0  0  0  0  0  0  0
    3.8758   -1.4253    1.1919 H   0  0  0  0  0  0  0  0  0  0  0  0
    2.9218   -0.1704    1.9624 H   0  0  0  0  0  0  0  0  0  0  0  0
    1.9929    1.8047    0.4988 H   0  0  0  0  0  0  0  0  0  0  0  0
    2.3521    1.8394   -1.2188 H   0  0  0  0  0  0  0  0  0  0  0  0
    0.8988   -3.1439   -1.1695 H   0  0  0  0  0  0  0  0  0  0  0  0
   -0.9304   -4.5296   -2.1867 H   0  0  0  0  0  0  0  0  0  0  0  0
   -5.5147   -2.9946   -1.5656 H   0  0  0  0  0  0  0  0  0  0  0  0
   -4.0561   -0.8820    1.8881 H   0  0  0  0  0  0  0  0  0  0  0  0
   -5.5077    0.8239    2.8960 H   0  0  0  0  0  0  0  0  0  0  0  0
   -7.4240    1.4480   -0.9207 H   0  0  0  0  0  0  0  0  0  0  0  0
   -5.9596   -0.2439   -1.9334 H   0  0  0  0  0  0  0  0  0  0  0  0
   -1.9052   -0.1677    0.3918 H   0  0  0  0  0  0  0  0  0  0  0  0
  1  2  2  0
  2  3  1  0
  4  3  1  6
  4  5  1  0
  5  6  1  0
  6  7  1  0
  7  8  1  0
  8  9  1  0
  9 10  1  0
 10 11  1  0
 10 12  1  0
  8 13  1  0
  2 14  1  0
 14 15  1  0
 15 16  2  0
 16 17  1  0
 17 18  2  0
 18 19  1  0
 19 20  1  0
 20 21  1  0
 21 22  1  0
 22 23  2  0
 23 24  1  0
 24 25  1  0
 25 26  1  0
 25 27  1  0
 25 28  1  0
 24 29  2  0
 29 30  1  0
 20 31  2  0
 31 32  1  0
 12  4  1  0
 32 14  2  0
 13  4  1  0
 31 17  1  0
 11  6  1  0
 30 21  2  0
  3 33  1  0
  5 34  1  0
  5 35  1  0
  6 36  1  6
  7 37  1  0
  7 38  1  0
  8 39  1  1
  9 40  1  0
  9 41  1  0
 10 42  1  1
 11 43  1  0
 11 44  1  0
 12 45  1  0
 12 46  1  0
 13 47  1  0
 13 48  1  0
 15 49  1  0
 16 50  1  0
 19 51  1  0
 22 52  1  0
 23 53  1  0
 29 54  1  0
 30 55  1  0
 32 56  1  0
M  END
>  <_SMILES>  (85) 
O=C(N[C@]12C[C@H]3C[C@H](C[C@H](C3)C1)C2)c1ccc2n[nH]c(-c3ccc(C(F)(F)F)cc3)c2c1

$$$$

     RDKit          3D

 55 60  0  0  0  0  0  0  0  0999 V2000
    9.0612    1.2048    0.6110 C   0  0  0  0  0  0  0  0  0  0  0  0
    8.8697   -0.1226    0.2488 C   0  0  0  0  0  0  0  0  0  0  0  0
    7.5809   -0.5801   -0.0206 C   0  0  0  0  0  0  0  0  0  0  0  0
    6.5208    0.3142    0.0842 C   0  0  0  0  0  0  0  0  0  0  0  0
    5.1270   -0.0496   -0.1724 C   0  0  0  0  0  0  0  0  0  0  0  0
    4.0271    0.7687   -0.3765 C   0  0  0  0  0  0  0  0  0  0  0  0
    2.8815   -0.0438   -0.5698 C   0  0  0  0  0  0  0  0  0  0  0  0
    1.5220    0.2253   -0.8151 C   0  0  0  0  0  0  0  0  0  0  0  0
    0.6147   -0.8421   -0.9516 C   0  0  0  0  0  0  0  0  0  0  0  0
   -0.8479   -0.5548   -1.1434 C   0  0  0  0  0  0  0  0  0  0  0  0
   -1.4981   -0.3203    0.1816 N   0  0  0  0  0  0  0  0  0  0  0  0
   -2.9622   -0.0041    0.2401 C   0  0  2  0  0  0  0  0  0  0  0  0
   -3.2742    1.3032   -0.5145 C   0  0  0  0  0  0  0  0  0  0  0  0
   -4.7738    1.6327   -0.3822 C   0  0  1  0  0  0  0  0  0  0  0  0
   -5.6004    0.4733   -0.9680 C   0  0  0  0  0  0  0  0  0  0  0  0
   -5.2993   -0.8318   -0.2087 C   0  0  2  0  0  0  0  0  0  0  0  0
   -5.6508   -0.6438    1.2766 C   0  0  0  0  0  0  0  0  0  0  0  0
   -4.8243    0.5079    1.8728 C   0  0  2  0  0  0  0  0  0  0  0  0
   -5.1288    1.8046    1.1042 C   0  0  0  0  0  0  0  0  0  0  0  0
   -3.3284    0.1791    1.7321 C   0  0  0  0  0  0  0  0  0  0  0  0
   -3.7994   -1.1604   -0.3411 C   0  0  0  0  0  0  0  0  0  0  0  0
    1.0735   -2.1622   -0.8402 C   0  0  0  0  0  0  0  0  0  0  0  0
    2.4230   -2.4476   -0.6025 C   0  0  0  0  0  0  0  0  0  0  0  0
    3.2995   -1.3662   -0.4703 C   0  0  0  0  0  0  0  0  0  0  0  0
    4.6572   -1.3432   -0.2334 N   0  0  0  0  0  0  0  0  0  0  0  0
    6.6898    1.6114    0.4319 N   0  0  0  0  0  0  0  0  0  0  0  0
    7.9503    2.0262    0.6869 C   0  0  0  0  0  0  0  0  0  0  0  0
   10.0517    1.5912    0.8249 H   0  0  0  0  0  0  0  0  0  0  0  0
    9.7193   -0.7958    0.1717 H   0  0  0  0  0  0  0  0  0  0  0  0
    7.4363   -1.6110   -0.3182 H   0  0  0  0  0  0  0  0  0  0  0  0
    4.0664    1.8515   -0.3830 H   0  0  0  0  0  0  0  0  0  0  0  0
    1.2025    1.2611   -0.8997 H   0  0  0  0  0  0  0  0  0  0  0  0
   -0.9845    0.3395   -1.7585 H   0  0  0  0  0  0  0  0  0  0  0  0
   -1.3484   -1.3993   -1.6261 H   0  0  0  0  0  0  0  0  0  0  0  0
   -0.9720    0.4351    0.6423 H   0  0  0  0  0  0  0  0  0  0  0  0
   -1.3061   -1.1501    0.7591 H   0  0  0  0  0  0  0  0  0  0  0  0
   -3.0276    1.2119   -1.5789 H   0  0  0  0  0  0  0  0  0  0  0  0
   -2.6742    2.1314   -0.1167 H   0  0  0  0  0  0  0  0  0  0  0  0
   -4.9976    2.5577   -0.9251 H   0  0  0  0  0  0  0  0  0  0  0  0
   -5.3684    0.3489   -2.0329 H   0  0  0  0  0  0  0  0  0  0  0  0
   -6.6702    0.7062   -0.9006 H   0  0  0  0  0  0  0  0  0  0  0  0
   -5.8947   -1.6500   -0.6289 H   0  0  0  0  0  0  0  0  0  0  0  0
   -5.4540   -1.5712    1.8283 H   0  0  0  0  0  0  0  0  0  0  0  0
   -6.7215   -0.4305    1.3839 H   0  0  0  0  0  0  0  0  0  0  0  0
   -5.0777    0.6364    2.9310 H   0  0  0  0  0  0  0  0  0  0  0  0
   -4.5568    2.6370    1.5320 H   0  0  0  0  0  0  0  0  0  0  0  0
   -6.1903    2.0608    1.2085 H   0  0  0  0  0  0  0  0  0  0  0  0
   -3.0981   -0.7328    2.2987 H   0  0  0  0  0  0  0  0  0  0  0  0
   -2.7316    0.9859    2.1776 H   0  0  0  0  0  0  0  0  0  0  0  0
   -3.5675   -1.3205   -1.4006 H   0  0  0  0  0  0  0  0  0  0  0  0
   -3.5762   -2.0994    0.1811 H   0  0  0  0  0  0  0  0  0  0  0  0
    0.3880   -3.0026   -0.9460 H   0  0  0  0  0  0  0  0  0  0  0  0
    2.7739   -3.4731   -0.5263 H   0  0  0  0  0  0  0  0  0  0  0  0
    5.2223   -2.1697   -0.1027 H   0  0  0  0  0  0  0  0  0  0  0  0
    8.0467    3.0726    0.9627 H   0  0  0  0  0  0  0  0  0  0  0  0
  1  2  2  0
  2  3  1  0
  3  4  2  0
  4  5  1  0
  5  6  2  0
  6  7  1  0
  7  8  2  0
  8  9  1  0
  9 10  1  0
 10 11  1  0
 12 11  1  1
 12 13  1  0
 13 14  1  0
 14 15  1  0
 15 16  1  0
 16 17  1  0
 17 18  1  0
 18 19  1  0
 18 20  1  0
 16 21  1  0
  9 22  2  0
 22 23  1  0
 23 24  2  0
 24 25  1  0
  4 26  1  0
 26 27  2  0
 27  1  1  0
 25  5  1  0
 24  7  1  0
 20 12  1  0
 21 12  1  0
 19 14  1  0
  1 28  1  0
  2 29  1  0
  3 30  1  0
  6 31  1  0
  8 32  1  0
 10 33  1  0
 10 34  1  0
 11 35  1  0
 11 36  1  0
 13 37  1  0
 13 38  1  0
 14 39  1  6
 15 40  1  0
 15 41  1  0
 16 42  1  6
 17 43  1  0
 17 44  1  0
 18 45  1  1
 19 46  1  0
 19 47  1  0
 20 48  1  0
 20 49  1  0
 21 50  1  0
 21 51  1  0
 22 52  1  0
 23 53  1  0
 25 54  1  0
 27 55  1  0
M  CHG  1  11   1
M  END
>  <_SMILES>  (86) 
c1ccc(-c2cc3cc(C[NH2+][C@]45C[C@H]6C[C@H](C[C@H](C6)C4)C5)ccc3[nH]2)nc1

$$$$

     RDKit          3D

 63 68  0  0  0  0  0  0  0  0999 V2000
    8.8799    1.4246    1.6564 C   0  0  0  0  0  0  0  0  0  0  0  0
    8.7040    1.7820    0.1887 C   0  0  0  0  0  0  0  0  0  0  0  0
    9.2421    0.7152   -0.7698 C   0  0  0  0  0  0  0  0  0  0  0  0
    8.5436   -0.6434   -0.6875 C   0  0  0  0  0  0  0  0  0  0  0  0
    7.1398   -0.5989   -1.0480 N   0  0  0  0  0  0  0  0  0  0  0  0
    6.0737   -0.7315   -0.2037 C   0  0  0  0  0  0  0  0  0  0  0  0
    4.9550   -0.6333   -0.9943 C   0  0  0  0  0  0  0  0  0  0  0  0
    3.4915   -0.7114   -0.5097 C   0  0  0  0  0  0  0  0  0  0  0  0
    3.0503   -0.8903    0.7826 C   0  0  0  0  0  0  0  0  0  0  0  0
    1.6276   -0.8980    0.7582 C   0  0  0  0  0  0  0  0  0  0  0  0
    0.6324   -1.0488    1.7430 C   0  0  0  0  0  0  0  0  0  0  0  0
   -0.7182   -1.0070    1.3688 C   0  0  0  0  0  0  0  0  0  0  0  0
   -1.0827   -0.8084    0.0319 C   0  0  0  0  0  0  0  0  0  0  0  0
   -2.5126   -0.7577   -0.3870 C   0  0  0  0  0  0  0  0  0  0  0  0
   -2.8268   -1.1292   -1.5109 O   0  0  0  0  0  0  0  0  0  0  0  0
   -3.3930   -0.2415    0.5430 N   0  0  0  0  0  0  0  0  0  0  0  0
   -4.8233   -0.0225    0.2981 C   0  0  2  0  0  0  0  0  0  0  0  0
   -5.4615    0.5291    1.6024 C   0  0  0  0  0  0  0  0  0  0  0  0
   -6.9645    0.7896    1.4149 C   0  0  1  0  0  0  0  0  0  0  0  0
   -7.1617    1.8120    0.2846 C   0  0  0  0  0  0  0  0  0  0  0  0
   -6.5615    1.2715   -1.0230 C   0  0  2  0  0  0  0  0  0  0  0  0
   -7.2551   -0.0513   -1.3905 C   0  0  0  0  0  0  0  0  0  0  0  0
   -7.0626   -1.0813   -0.2642 C   0  0  2  0  0  0  0  0  0  0  0  0
   -7.6607   -0.5270    1.0380 C   0  0  0  0  0  0  0  0  0  0  0  0
   -5.5582   -1.3380   -0.0651 C   0  0  0  0  0  0  0  0  0  0  0  0
   -5.0565    1.0173   -0.8253 C   0  0  0  0  0  0  0  0  0  0  0  0
   -0.1035   -0.6763   -0.9651 C   0  0  0  0  0  0  0  0  0  0  0  0
    1.2389   -0.7198   -0.5691 C   0  0  0  0  0  0  0  0  0  0  0  0
    2.3899   -0.6135   -1.3173 N   0  0  0  0  0  0  0  0  0  0  0  0
    5.4488   -0.4531   -2.2994 C   0  0  0  0  0  0  0  0  0  0  0  0
    6.7845   -0.4360   -2.3384 N   0  0  0  0  0  0  0  0  0  0  0  0
    8.5698    2.2645    2.2865 H   0  0  0  0  0  0  0  0  0  0  0  0
    9.9268    1.2001    1.8833 H   0  0  0  0  0  0  0  0  0  0  0  0
    8.2717    0.5599    1.9362 H   0  0  0  0  0  0  0  0  0  0  0  0
    7.6461    1.9811   -0.0157 H   0  0  0  0  0  0  0  0  0  0  0  0
    9.2393    2.7193   -0.0056 H   0  0  0  0  0  0  0  0  0  0  0  0
   10.3117    0.5691   -0.5751 H   0  0  0  0  0  0  0  0  0  0  0  0
    9.1634    1.1027   -1.7934 H   0  0  0  0  0  0  0  0  0  0  0  0
    9.0214   -1.3492   -1.3775 H   0  0  0  0  0  0  0  0  0  0  0  0
    8.6236   -1.0743    0.3160 H   0  0  0  0  0  0  0  0  0  0  0  0
    6.2027   -0.8759    0.8588 H   0  0  0  0  0  0  0  0  0  0  0  0
    3.6754   -1.0063    1.6575 H   0  0  0  0  0  0  0  0  0  0  0  0
    0.9078   -1.2074    2.7818 H   0  0  0  0  0  0  0  0  0  0  0  0
   -1.4728   -1.1611    2.1355 H   0  0  0  0  0  0  0  0  0  0  0  0
   -2.9879    0.2576    1.3236 H   0  0  0  0  0  0  0  0  0  0  0  0
   -4.9618    1.4599    1.9028 H   0  0  0  0  0  0  0  0  0  0  0  0
   -5.3075   -0.1801    2.4267 H   0  0  0  0  0  0  0  0  0  0  0  0
   -7.3914    1.1803    2.3454 H   0  0  0  0  0  0  0  0  0  0  0  0
   -8.2303    2.0192    0.1489 H   0  0  0  0  0  0  0  0  0  0  0  0
   -6.6844    2.7630    0.5513 H   0  0  0  0  0  0  0  0  0  0  0  0
   -6.7093    2.0019   -1.8264 H   0  0  0  0  0  0  0  0  0  0  0  0
   -8.3251    0.1222   -1.5590 H   0  0  0  0  0  0  0  0  0  0  0  0
   -6.8443   -0.4417   -2.3297 H   0  0  0  0  0  0  0  0  0  0  0  0
   -7.5643   -2.0183   -0.5308 H   0  0  0  0  0  0  0  0  0  0  0  0
   -8.7378   -0.3599    0.9148 H   0  0  0  0  0  0  0  0  0  0  0  0
   -7.5424   -1.2589    1.8464 H   0  0  0  0  0  0  0  0  0  0  0  0
   -5.1514   -1.7774   -0.9829 H   0  0  0  0  0  0  0  0  0  0  0  0
   -5.4074   -2.0848    0.7255 H   0  0  0  0  0  0  0  0  0  0  0  0
   -4.5480    1.9588   -0.5795 H   0  0  0  0  0  0  0  0  0  0  0  0
   -4.6236    0.6735   -1.7722 H   0  0  0  0  0  0  0  0  0  0  0  0
   -0.3831   -0.5422   -2.0064 H   0  0  0  0  0  0  0  0  0  0  0  0
    2.4112   -0.4839   -2.3185 H   0  0  0  0  0  0  0  0  0  0  0  0
    4.9021   -0.3345   -3.2247 H   0  0  0  0  0  0  0  0  0  0  0  0
  1  2  1  0
  2  3  1  0
  3  4  1  0
  4  5  1  0
  5  6  1  0
  6  7  2  0
  7  8  1  0
  8  9  2  0
  9 10  1  0
 10 11  2  0
 11 12  1  0
 12 13  2  0
 13 14  1  0
 14 15  2  0
 14 16  1  0
 17 16  1  1
 17 18  1  0
 18 19  1  0
 19 20  1  0
 20 21  1  0
 21 22  1  0
 22 23  1  0
 23 24  1  0
 23 25  1  0
 21 26  1  0
 13 27  1  0
 27 28  2  0
 28 29  1  0
  7 30  1  0
 30 31  2  0
 31  5  1  0
 29  8  1  0
 28 10  1  0
 25 17  1  0
 26 17  1  0
 24 19  1  0
  1 32  1  0
  1 33  1  0
  1 34  1  0
  2 35  1  0
  2 36  1  0
  3 37  1  0
  3 38  1  0
  4 39  1  0
  4 40  1  0
  6 41  1  0
  9 42  1  0
 11 43  1  0
 12 44  1  0
 16 45  1  0
 18 46  1  0
 18 47  1  0
 19 48  1  1
 20 49  1  0
 20 50  1  0
 21 51  1  6
 22 52  1  0
 22 53  1  0
 23 54  1  6
 24 55  1  0
 24 56  1  0
 25 57  1  0
 25 58  1  0
 26 59  1  0
 26 60  1  0
 27 61  1  0
 29 62  1  0
 30 63  1  0
M  END
>  <_SMILES>  (87) 
CCCCn1cc(-c2cc3ccc(C(=O)N[C@]45C[C@H]6C[C@H](C[C@H](C6)C4)C5)cc3[nH]2)cn1

$$$$

     RDKit          3D

 59 64  0  0  0  0  0  0  0  0999 V2000
   -2.6327   -2.3019    1.8523 O   0  0  0  0  0  0  0  0  0  0  0  0
   -2.0631   -1.2766    1.5050 C   0  0  0  0  0  0  0  0  0  0  0  0
   -0.5926   -1.1637    1.6577 C   0  0  0  0  0  0  0  0  0  0  0  0
    0.1838   -0.5686    0.7395 C   0  0  0  0  0  0  0  0  0  0  0  0
    1.5900   -0.5026    0.9008 C   0  0  0  0  0  0  0  0  0  0  0  0
    2.4763   -0.8325    1.9064 C   0  0  0  0  0  0  0  0  0  0  0  0
    3.7819   -0.5261    1.4512 C   0  0  0  0  0  0  0  0  0  0  0  0
    3.6823   -0.0022    0.1744 C   0  0  0  0  0  0  0  0  0  0  0  0
    4.7192    0.4601   -0.7501 C   0  0  0  0  0  0  0  0  0  0  0  0
    4.4964    1.5530   -1.5979 C   0  0  0  0  0  0  0  0  0  0  0  0
    5.4900    1.9826   -2.4797 C   0  0  0  0  0  0  0  0  0  0  0  0
    6.7197    1.3255   -2.5216 C   0  0  0  0  0  0  0  0  0  0  0  0
    6.9690    0.2376   -1.6772 C   0  0  0  0  0  0  0  0  0  0  0  0
    8.2579   -0.4456   -1.7297 C   0  0  0  0  0  0  0  0  0  0  0  0
    8.9892   -0.8230   -2.9029 C   0  0  0  0  0  0  0  0  0  0  0  0
   10.1815   -1.4460   -2.6061 C   0  0  0  0  0  0  0  0  0  0  0  0
   10.4363   -1.5718   -0.9212 S   0  0  0  0  0  0  0  0  0  0  0  0
    8.9493   -0.7932   -0.5841 C   0  0  0  0  0  0  0  0  0  0  0  0
    5.9625   -0.1884   -0.7969 C   0  0  0  0  0  0  0  0  0  0  0  0
    2.3397   -0.0086   -0.1426 N   0  0  0  0  0  0  0  0  0  0  0  0
   -2.6746   -0.1415    1.0319 N   0  0  0  0  0  0  0  0  0  0  0  0
   -4.1260    0.0270    0.9031 C   0  0  2  0  0  0  0  0  0  0  0  0
   -4.4024    1.4282    0.2929 C   0  0  0  0  0  0  0  0  0  0  0  0
   -5.9113    1.6744    0.1359 C   0  0  1  0  0  0  0  0  0  0  0  0
   -6.5029    0.6014   -0.7910 C   0  0  0  0  0  0  0  0  0  0  0  0
   -6.2634   -0.7947   -0.1958 C   0  0  2  0  0  0  0  0  0  0  0  0
   -6.9307   -0.8785    1.1876 C   0  0  0  0  0  0  0  0  0  0  0  0
   -6.3449    0.1920    2.1241 C   0  0  2  0  0  0  0  0  0  0  0  0
   -6.5831    1.5829    1.5150 C   0  0  0  0  0  0  0  0  0  0  0  0
   -4.8320   -0.0431    2.2795 C   0  0  0  0  0  0  0  0  0  0  0  0
   -4.7502   -1.0304   -0.0427 C   0  0  0  0  0  0  0  0  0  0  0  0
   -0.1952   -1.6713    2.5291 H   0  0  0  0  0  0  0  0  0  0  0  0
   -0.2645   -0.1470   -0.1571 H   0  0  0  0  0  0  0  0  0  0  0  0
    2.2217   -1.2519    2.8712 H   0  0  0  0  0  0  0  0  0  0  0  0
    4.7009   -0.6660    2.0062 H   0  0  0  0  0  0  0  0  0  0  0  0
    3.5563    2.0974   -1.5681 H   0  0  0  0  0  0  0  0  0  0  0  0
    5.3096    2.8363   -3.1281 H   0  0  0  0  0  0  0  0  0  0  0  0
    7.4860    1.6813   -3.2065 H   0  0  0  0  0  0  0  0  0  0  0  0
    8.6507   -0.6561   -3.9183 H   0  0  0  0  0  0  0  0  0  0  0  0
   10.9164   -1.8341   -3.2979 H   0  0  0  0  0  0  0  0  0  0  0  0
    8.6642   -0.6245    0.4456 H   0  0  0  0  0  0  0  0  0  0  0  0
    6.1379   -1.0509   -0.1572 H   0  0  0  0  0  0  0  0  0  0  0  0
    1.9704    0.2820   -1.0367 H   0  0  0  0  0  0  0  0  0  0  0  0
   -2.1128    0.6989    1.0022 H   0  0  0  0  0  0  0  0  0  0  0  0
   -3.9080    1.5183   -0.6836 H   0  0  0  0  0  0  0  0  0  0  0  0
   -3.9665    2.2099    0.9295 H   0  0  0  0  0  0  0  0  0  0  0  0
   -6.0816    2.6681   -0.2931 H   0  0  0  0  0  0  0  0  0  0  0  0
   -6.0437    0.6693   -1.7849 H   0  0  0  0  0  0  0  0  0  0  0  0
   -7.5781    0.7727   -0.9247 H   0  0  0  0  0  0  0  0  0  0  0  0
   -6.6898   -1.5562   -0.8584 H   0  0  0  0  0  0  0  0  0  0  0  0
   -6.7786   -1.8762    1.6174 H   0  0  0  0  0  0  0  0  0  0  0  0
   -8.0140   -0.7363    1.0890 H   0  0  0  0  0  0  0  0  0  0  0  0
   -6.8301    0.1306    3.1046 H   0  0  0  0  0  0  0  0  0  0  0  0
   -7.6597    1.7713    1.4207 H   0  0  0  0  0  0  0  0  0  0  0  0
   -6.1815    2.3572    2.1801 H   0  0  0  0  0  0  0  0  0  0  0  0
   -4.6674   -1.0180    2.7537 H   0  0  0  0  0  0  0  0  0  0  0  0
   -4.4059    0.7052    2.9607 H   0  0  0  0  0  0  0  0  0  0  0  0
   -4.2639   -0.9904   -1.0263 H   0  0  0  0  0  0  0  0  0  0  0  0
   -4.5877   -2.0451    0.3383 H   0  0  0  0  0  0  0  0  0  0  0  0
  1  2  2  0
  2  3  1  0
  3  4  2  0
  4  5  1  0
  5  6  2  0
  6  7  1  0
  7  8  2  0
  8  9  1  0
  9 10  2  0
 10 11  1  0
 11 12  2  0
 12 13  1  0
 13 14  1  0
 14 15  1  0
 15 16  2  0
 16 17  1  0
 17 18  1  0
 13 19  2  0
  8 20  1  0
  2 21  1  0
 22 21  1  1
 22 23  1  0
 23 24  1  0
 24 25  1  0
 25 26  1  0
 26 27  1  0
 27 28  1  0
 28 29  1  0
 28 30  1  0
 26 31  1  0
 20  5  1  0
 30 22  1  0
 19  9  1  0
 31 22  1  0
 18 14  2  0
 29 24  1  0
  3 32  1  0
  4 33  1  0
  6 34  1  0
  7 35  1  0
 10 36  1  0
 11 37  1  0
 12 38  1  0
 15 39  1  0
 16 40  1  0
 18 41  1  0
 19 42  1  0
 20 43  1  0
 21 44  1  0
 23 45  1  0
 23 46  1  0
 24 47  1  6
 25 48  1  0
 25 49  1  0
 26 50  1  6
 27 51  1  0
 27 52  1  0
 28 53  1  1
 29 54  1  0
 29 55  1  0
 30 56  1  0
 30 57  1  0
 31 58  1  0
 31 59  1  0
M  END
>  <_SMILES>  (88) 
O=C(/C=C/c1ccc(-c2cccc(-c3ccsc3)c2)[nH]1)N[C@]12C[C@H]3C[C@H](C[C@H](C3)C1)C2

$$$$

     RDKit          3D

 59 64  0  0  0  0  0  0  0  0999 V2000
   -2.1190   -4.3069   -0.0809 O   0  0  0  0  0  0  0  0  0  0  0  0
   -1.5251   -3.4257    0.5273 C   0  0  0  0  0  0  0  0  0  0  0  0
   -0.4174   -3.7939    1.4461 C   0  0  0  0  0  0  0  0  0  0  0  0
    0.7641   -3.1962    1.6639 C   0  0  0  0  0  0  0  0  0  0  0  0
    1.2469   -2.0665    0.9638 C   0  0  0  0  0  0  0  0  0  0  0  0
    1.1566   -1.6132   -0.3359 C   0  0  0  0  0  0  0  0  0  0  0  0
    1.8694   -0.3932   -0.4177 C   0  0  0  0  0  0  0  0  0  0  0  0
    2.3984   -0.1175    0.8314 C   0  0  0  0  0  0  0  0  0  0  0  0
    3.2235    1.0011    1.2917 C   0  0  0  0  0  0  0  0  0  0  0  0
    3.0846    1.5163    2.5872 C   0  0  0  0  0  0  0  0  0  0  0  0
    3.8732    2.5860    3.0151 C   0  0  0  0  0  0  0  0  0  0  0  0
    4.8106    3.1532    2.1518 C   0  0  0  0  0  0  0  0  0  0  0  0
    4.9677    2.6556    0.8533 C   0  0  0  0  0  0  0  0  0  0  0  0
    5.9472    3.2592   -0.0452 C   0  0  0  0  0  0  0  0  0  0  0  0
    6.1919    4.6572   -0.2434 C   0  0  0  0  0  0  0  0  0  0  0  0
    7.1950    4.8951   -1.1572 C   0  0  0  0  0  0  0  0  0  0  0  0
    7.8563    3.4453   -1.7740 S   0  0  0  0  0  0  0  0  0  0  0  0
    6.7996    2.4945   -0.8197 C   0  0  0  0  0  0  0  0  0  0  0  0
    4.1661    1.5838    0.4312 C   0  0  0  0  0  0  0  0  0  0  0  0
    2.0346   -1.1695    1.6467 N   0  0  0  0  0  0  0  0  0  0  0  0
   -1.8490   -2.0956    0.5182 N   0  0  0  0  0  0  0  0  0  0  0  0
   -2.8979   -1.4874   -0.3029 C   0  0  2  0  0  0  0  0  0  0  0  0
   -2.9126    0.0405   -0.0261 C   0  0  0  0  0  0  0  0  0  0  0  0
   -3.9964    0.7418   -0.8600 C   0  0  1  0  0  0  0  0  0  0  0  0
   -3.7171    0.5038   -2.3523 C   0  0  0  0  0  0  0  0  0  0  0  0
   -3.7247   -1.0032   -2.6538 C   0  0  2  0  0  0  0  0  0  0  0  0
   -5.0979   -1.5881   -2.2823 C   0  0  0  0  0  0  0  0  0  0  0  0
   -5.3863   -1.3553   -0.7895 C   0  0  2  0  0  0  0  0  0  0  0  0
   -5.3692    0.1536   -0.4989 C   0  0  0  0  0  0  0  0  0  0  0  0
   -4.2982   -2.0479    0.0500 C   0  0  0  0  0  0  0  0  0  0  0  0
   -2.6352   -1.6945   -1.8153 C   0  0  0  0  0  0  0  0  0  0  0  0
   -0.6371   -4.7135    1.9837 H   0  0  0  0  0  0  0  0  0  0  0  0
    1.4157   -3.6418    2.4141 H   0  0  0  0  0  0  0  0  0  0  0  0
    0.6342   -2.1071   -1.1462 H   0  0  0  0  0  0  0  0  0  0  0  0
    1.9802    0.2230   -1.3011 H   0  0  0  0  0  0  0  0  0  0  0  0
    2.3460    1.1087    3.2725 H   0  0  0  0  0  0  0  0  0  0  0  0
    3.7544    2.9812    4.0209 H   0  0  0  0  0  0  0  0  0  0  0  0
    5.4225    3.9798    2.5055 H   0  0  0  0  0  0  0  0  0  0  0  0
    5.6488    5.4526    0.2525 H   0  0  0  0  0  0  0  0  0  0  0  0
    7.5721    5.8512   -1.4931 H   0  0  0  0  0  0  0  0  0  0  0  0
    6.8673    1.4162   -0.8741 H   0  0  0  0  0  0  0  0  0  0  0  0
    4.2748    1.1980   -0.5803 H   0  0  0  0  0  0  0  0  0  0  0  0
    2.3121   -1.2587    2.6143 H   0  0  0  0  0  0  0  0  0  0  0  0
   -1.2502   -1.4721    1.0445 H   0  0  0  0  0  0  0  0  0  0  0  0
   -1.9304    0.4750   -0.2563 H   0  0  0  0  0  0  0  0  0  0  0  0
   -3.0874    0.2287    1.0417 H   0  0  0  0  0  0  0  0  0  0  0  0
   -3.9877    1.8170   -0.6492 H   0  0  0  0  0  0  0  0  0  0  0  0
   -4.4750    1.0118   -2.9612 H   0  0  0  0  0  0  0  0  0  0  0  0
   -2.7467    0.9360   -2.6259 H   0  0  0  0  0  0  0  0  0  0  0  0
   -3.5292   -1.1671   -3.7194 H   0  0  0  0  0  0  0  0  0  0  0  0
   -5.8807   -1.1198   -2.8916 H   0  0  0  0  0  0  0  0  0  0  0  0
   -5.1207   -2.6619   -2.5055 H   0  0  0  0  0  0  0  0  0  0  0  0
   -6.3682   -1.7691   -0.5340 H   0  0  0  0  0  0  0  0  0  0  0  0
   -6.1556    0.6554   -1.0760 H   0  0  0  0  0  0  0  0  0  0  0  0
   -5.5877    0.3339    0.5608 H   0  0  0  0  0  0  0  0  0  0  0  0
   -4.3448   -3.1284   -0.1287 H   0  0  0  0  0  0  0  0  0  0  0  0
   -4.5034   -1.9045    1.1191 H   0  0  0  0  0  0  0  0  0  0  0  0
   -2.6133   -2.7618   -2.0658 H   0  0  0  0  0  0  0  0  0  0  0  0
   -1.6495   -1.2950   -2.0862 H   0  0  0  0  0  0  0  0  0  0  0  0
  1  2  2  0
  2  3  1  0
  3  4  2  0
  4  5  1  0
  5  6  2  0
  6  7  1  0
  7  8  2  0
  8  9  1  0
  9 10  2  0
 10 11  1  0
 11 12  2  0
 12 13  1  0
 13 14  1  0
 14 15  1  0
 15 16  2  0
 16 17  1  0
 17 18  1  0
 13 19  2  0
  8 20  1  0
  2 21  1  0
 22 21  1  1
 22 23  1  0
 23 24  1  0
 24 25  1  0
 25 26  1  0
 26 27  1  0
 27 28  1  0
 28 29  1  0
 28 30  1  0
 26 31  1  0
 20  5  1  0
 30 22  1  0
 19  9  1  0
 31 22  1  0
 18 14  2  0
 29 24  1  0
  3 32  1  0
  4 33  1  0
  6 34  1  0
  7 35  1  0
 10 36  1  0
 11 37  1  0
 12 38  1  0
 15 39  1  0
 16 40  1  0
 18 41  1  0
 19 42  1  0
 20 43  1  0
 21 44  1  0
 23 45  1  0
 23 46  1  0
 24 47  1  6
 25 48  1  0
 25 49  1  0
 26 50  1  6
 27 51  1  0
 27 52  1  0
 28 53  1  1
 29 54  1  0
 29 55  1  0
 30 56  1  0
 30 57  1  0
 31 58  1  0
 31 59  1  0
M  END
>  <_SMILES>  (89) 
O=C(/C=C\c1ccc(-c2cccc(-c3ccsc3)c2)[nH]1)N[C@]12C[C@H]3C[C@H](C[C@H](C3)C1)C2

$$$$

     RDKit          3D

 75 81  0  0  0  0  0  0  0  0999 V2000
   -6.3355   -1.6639    1.2651 C   0  0  0  0  0  0  0  0  0  0  0  0
   -6.5941   -0.2206    0.7666 C   0  0  0  0  0  0  0  0  0  0  0  0
   -8.0973    0.0320    1.0406 C   0  0  0  0  0  0  0  0  0  0  0  0
   -5.7008    0.8099    1.5307 C   0  0  2  0  0  0  0  0  0  0  0  0
   -5.9786    2.2480    1.0397 C   0  0  0  0  0  0  0  0  0  0  0  0
   -5.6871    2.3601   -0.4654 C   0  0  2  0  0  0  0  0  0  0  0  0
   -6.5466    1.3557   -1.2488 C   0  0  0  0  0  0  0  0  0  0  0  0
   -6.2672   -0.0809   -0.7558 C   0  0  1  0  0  0  0  0  0  0  0  0
   -4.7720   -0.3724   -1.0248 C   0  0  0  0  0  0  0  0  0  0  0  0
   -3.8679    0.6031   -0.2273 C   0  0  1  0  0  0  0  0  0  0  0  0
   -2.4429    0.3581   -0.4780 N   0  0  0  0  0  0  0  0  0  0  0  0
   -1.7979   -0.8306   -0.1991 C   0  0  0  0  0  0  0  0  0  0  0  0
   -2.3439   -1.8327    0.2446 O   0  0  0  0  0  0  0  0  0  0  0  0
   -0.3275   -0.8343   -0.4312 C   0  0  0  0  0  0  0  0  0  0  0  0
    0.2501   -0.0954   -1.4667 C   0  0  0  0  0  0  0  0  0  0  0  0
    1.6348   -0.1046   -1.6708 C   0  0  0  0  0  0  0  0  0  0  0  0
    2.4309   -0.8796   -0.8089 C   0  0  0  0  0  0  0  0  0  0  0  0
    1.8686   -1.6396    0.2194 C   0  0  0  0  0  0  0  0  0  0  0  0
    0.4727   -1.6233    0.4066 C   0  0  0  0  0  0  0  0  0  0  0  0
    2.9306   -2.3042    0.8823 C   0  0  0  0  0  0  0  0  0  0  0  0
    4.1179   -1.9604    0.2651 C   0  0  0  0  0  0  0  0  0  0  0  0
    5.4677   -2.3993    0.6022 C   0  0  0  0  0  0  0  0  0  0  0  0
    6.1344   -1.8388    1.6971 C   0  0  0  0  0  0  0  0  0  0  0  0
    7.4287   -2.2510    2.0189 C   0  0  0  0  0  0  0  0  0  0  0  0
    8.0590   -3.2312    1.2532 C   0  0  0  0  0  0  0  0  0  0  0  0
    7.3949   -3.8036    0.1688 C   0  0  0  0  0  0  0  0  0  0  0  0
    6.1008   -3.3914   -0.1545 C   0  0  0  0  0  0  0  0  0  0  0  0
    3.8046   -1.0729   -0.7507 N   0  0  0  0  0  0  0  0  0  0  0  0
    4.7726   -0.4452   -1.6493 C   0  0  0  0  0  0  0  0  0  0  0  0
    5.4669    0.7359   -1.0099 C   0  0  0  0  0  0  0  0  0  0  0  0
    6.8436    0.6843   -0.7371 C   0  0  0  0  0  0  0  0  0  0  0  0
    7.5001    1.7650   -0.1422 C   0  0  0  0  0  0  0  0  0  0  0  0
    6.7927    2.9207    0.1852 C   0  0  0  0  0  0  0  0  0  0  0  0
    5.4217    2.9858   -0.0883 C   0  0  0  0  0  0  0  0  0  0  0  0
    4.6704    4.2015    0.2474 N   0  0  0  0  0  0  0  0  0  0  0  0
    3.4939    4.2766   -0.1366 O   0  0  0  0  0  0  0  0  0  0  0  0
    5.2579    5.0846    0.8883 O   0  0  0  0  0  0  0  0  0  0  0  0
    4.7577    1.9031   -0.6838 C   0  0  0  0  0  0  0  0  0  0  0  0
   -4.2044    2.0401   -0.7088 C   0  0  0  0  0  0  0  0  0  0  0  0
   -4.2005    0.5261    1.2839 C   0  0  0  0  0  0  0  0  0  0  0  0
   -5.3034   -1.9971    1.1396 H   0  0  0  0  0  0  0  0  0  0  0  0
   -6.9676   -2.3791    0.7257 H   0  0  0  0  0  0  0  0  0  0  0  0
   -6.5701   -1.7531    2.3323 H   0  0  0  0  0  0  0  0  0  0  0  0
   -8.4414    1.0234    0.7399 H   0  0  0  0  0  0  0  0  0  0  0  0
   -8.3187   -0.0701    2.1095 H   0  0  0  0  0  0  0  0  0  0  0  0
   -8.7166   -0.6955    0.5028 H   0  0  0  0  0  0  0  0  0  0  0  0
   -5.9027    0.7542    2.6075 H   0  0  0  0  0  0  0  0  0  0  0  0
   -5.3457    2.9549    1.5918 H   0  0  0  0  0  0  0  0  0  0  0  0
   -7.0107    2.5456    1.2504 H   0  0  0  0  0  0  0  0  0  0  0  0
   -5.9031    3.3780   -0.8088 H   0  0  0  0  0  0  0  0  0  0  0  0
   -6.3167    1.4294   -2.3196 H   0  0  0  0  0  0  0  0  0  0  0  0
   -7.6076    1.6075   -1.1543 H   0  0  0  0  0  0  0  0  0  0  0  0
   -6.8785   -0.7832   -1.3357 H   0  0  0  0  0  0  0  0  0  0  0  0
   -4.5473   -1.4165   -0.7895 H   0  0  0  0  0  0  0  0  0  0  0  0
   -4.5656   -0.2722   -2.0994 H   0  0  0  0  0  0  0  0  0  0  0  0
   -1.8572    1.1753   -0.5902 H   0  0  0  0  0  0  0  0  0  0  0  0
   -0.3713    0.4799   -2.1489 H   0  0  0  0  0  0  0  0  0  0  0  0
    2.0642    0.4748   -2.4820 H   0  0  0  0  0  0  0  0  0  0  0  0
    0.0202   -2.2142    1.1994 H   0  0  0  0  0  0  0  0  0  0  0  0
    2.8379   -2.9780    1.7249 H   0  0  0  0  0  0  0  0  0  0  0  0
    5.6495   -1.0741    2.2996 H   0  0  0  0  0  0  0  0  0  0  0  0
    7.9416   -1.8106    2.8699 H   0  0  0  0  0  0  0  0  0  0  0  0
    9.0643   -3.5567    1.5084 H   0  0  0  0  0  0  0  0  0  0  0  0
    7.8809   -4.5777   -0.4194 H   0  0  0  0  0  0  0  0  0  0  0  0
    5.5850   -3.8539   -0.9928 H   0  0  0  0  0  0  0  0  0  0  0  0
    4.2581   -0.1247   -2.5610 H   0  0  0  0  0  0  0  0  0  0  0  0
    5.4861   -1.2156   -1.9610 H   0  0  0  0  0  0  0  0  0  0  0  0
    7.4175   -0.2120   -0.9722 H   0  0  0  0  0  0  0  0  0  0  0  0
    8.5654    1.7005    0.0695 H   0  0  0  0  0  0  0  0  0  0  0  0
    7.3187    3.7528    0.6485 H   0  0  0  0  0  0  0  0  0  0  0  0
    3.6898    1.9598   -0.8859 H   0  0  0  0  0  0  0  0  0  0  0  0
   -3.5768    2.7732   -0.1841 H   0  0  0  0  0  0  0  0  0  0  0  0
   -3.9693    2.1474   -1.7763 H   0  0  0  0  0  0  0  0  0  0  0  0
   -3.9242   -0.4452    1.7052 H   0  0  0  0  0  0  0  0  0  0  0  0
   -3.5933    1.2584    1.8338 H   0  0  0  0  0  0  0  0  0  0  0  0
  1  2  1  0
  2  3  1  0
  2  4  1  0
  4  5  1  0
  5  6  1  0
  6  7  1  0
  7  8  1  0
  8  9  1  0
  9 10  1  0
 10 11  1  1
 11 12  1  0
 12 13  2  0
 12 14  1  0
 14 15  2  0
 15 16  1  0
 16 17  2  0
 17 18  1  0
 18 19  2  0
 18 20  1  0
 20 21  2  0
 21 22  1  0
 22 23  2  0
 23 24  1  0
 24 25  2  0
 25 26  1  0
 26 27  2  0
 21 28  1  0
 28 29  1  0
 29 30  1  0
 30 31  2  0
 31 32  1  0
 32 33  2  0
 33 34  1  0
 34 35  1  0
 35 36  2  0
 35 37  1  0
 34 38  2  0
 10 39  1  0
 10 40  1  0
  8  2  1  0
 19 14  1  0
 27 22  1  0
 38 30  1  0
 40  4  1  0
 39  6  1  0
 28 17  1  0
  1 41  1  0
  1 42  1  0
  1 43  1  0
  3 44  1  0
  3 45  1  0
  3 46  1  0
  4 47  1  1
  5 48  1  0
  5 49  1  0
  6 50  1  6
  7 51  1  0
  7 52  1  0
  8 53  1  6
  9 54  1  0
  9 55  1  0
 11 56  1  0
 15 57  1  0
 16 58  1  0
 19 59  1  0
 20 60  1  0
 23 61  1  0
 24 62  1  0
 25 63  1  0
 26 64  1  0
 27 65  1  0
 29 66  1  0
 29 67  1  0
 31 68  1  0
 32 69  1  0
 33 70  1  0
 38 71  1  0
 39 72  1  0
 39 73  1  0
 40 74  1  0
 40 75  1  0
M  CHG  2  35   1  37  -1
M  END
>  <_SMILES>  (90) 
CC1(C)[C@@H]2C[C@@H]3C[C@H]1C[C@@](NC(=O)c1ccc4c(c1)cc(-c1ccccc1)n4Cc1cccc([N+](=O)[O-])c1)(C3)C2

$$$$

     RDKit          3D

 57 61  0  0  0  0  0  0  0  0999 V2000
   11.5586   -0.1754    0.6977 O   0  0  0  0  0  0  0  0  0  0  0  0
   10.9651    0.5687   -0.0720 C   0  0  0  0  0  0  0  0  0  0  0  0
    9.4935    0.5990   -0.2272 C   0  0  0  0  0  0  0  0  0  0  0  0
    8.7149   -0.2143    0.5003 C   0  0  0  0  0  0  0  0  0  0  0  0
    7.2490   -0.2240    0.4136 C   0  0  0  0  0  0  0  0  0  0  0  0
    6.5023   -0.4393    1.5747 C   0  0  0  0  0  0  0  0  0  0  0  0
    5.1023   -0.4678    1.5274 C   0  0  0  0  0  0  0  0  0  0  0  0
    4.4004   -0.2895    0.3222 C   0  0  0  0  0  0  0  0  0  0  0  0
    2.9217   -0.3112    0.2948 C   0  0  0  0  0  0  0  0  0  0  0  0
    2.1695    0.4002   -0.6368 C   0  0  0  0  0  0  0  0  0  0  0  0
    0.7581    0.3430   -0.6325 C   0  0  0  0  0  0  0  0  0  0  0  0
    0.0485    1.1255   -1.6863 C   0  0  0  0  0  0  0  0  0  0  0  0
    0.5114    1.0470   -2.8635 O   0  0  0  0  0  0  0  0  0  0  0  0
   -0.9296    1.8401   -1.3074 O   0  0  0  0  0  0  0  0  0  0  0  0
    0.1285   -0.4539    0.3298 C   0  0  0  0  0  0  0  0  0  0  0  0
   -1.3287   -0.7333    0.4948 C   0  0  0  0  0  0  0  0  0  0  0  0
   -1.6660   -1.8217    0.9592 O   0  0  0  0  0  0  0  0  0  0  0  0
   -2.2251    0.2532    0.1711 N   0  0  0  0  0  0  0  0  0  0  0  0
   -3.6794    0.1122    0.1452 C   0  0  2  0  0  0  0  0  0  0  0  0
   -4.1265   -0.9579   -0.8808 C   0  0  0  0  0  0  0  0  0  0  0  0
   -5.6617   -1.0534   -0.9299 C   0  0  1  0  0  0  0  0  0  0  0  0
   -6.1916   -1.4232    0.4660 C   0  0  0  0  0  0  0  0  0  0  0  0
   -5.7866   -0.3475    1.4883 C   0  0  2  0  0  0  0  0  0  0  0  0
   -6.3672    1.0077    1.0564 C   0  0  0  0  0  0  0  0  0  0  0  0
   -5.8338    1.3864   -0.3334 C   0  0  2  0  0  0  0  0  0  0  0  0
   -6.2425    0.3067   -1.3479 C   0  0  0  0  0  0  0  0  0  0  0  0
   -4.3003    1.4715   -0.2789 C   0  0  0  0  0  0  0  0  0  0  0  0
   -4.2514   -0.2511    1.5394 C   0  0  0  0  0  0  0  0  0  0  0  0
    0.9626   -1.1298    1.2223 C   0  0  0  0  0  0  0  0  0  0  0  0
    2.3226   -1.0698    1.2426 N   0  0  0  0  0  0  0  0  0  0  0  0
    5.1677   -0.1055   -0.8412 C   0  0  0  0  0  0  0  0  0  0  0  0
    6.5686   -0.0761   -0.7988 C   0  0  0  0  0  0  0  0  0  0  0  0
   11.5031    1.2838   -0.7161 H   0  0  0  0  0  0  0  0  0  0  0  0
    9.1002    1.3156   -0.9372 H   0  0  0  0  0  0  0  0  0  0  0  0
    9.1558   -0.8987    1.2233 H   0  0  0  0  0  0  0  0  0  0  0  0
    6.9948   -0.5790    2.5341 H   0  0  0  0  0  0  0  0  0  0  0  0
    4.5477   -0.6294    2.4511 H   0  0  0  0  0  0  0  0  0  0  0  0
    2.6519    1.0220   -1.3880 H   0  0  0  0  0  0  0  0  0  0  0  0
   -1.8431    1.0652   -0.3410 H   0  0  0  0  0  0  0  0  0  0  0  0
   -3.7357   -0.7119   -1.8770 H   0  0  0  0  0  0  0  0  0  0  0  0
   -3.7134   -1.9408   -0.6238 H   0  0  0  0  0  0  0  0  0  0  0  0
   -5.9602   -1.8202   -1.6535 H   0  0  0  0  0  0  0  0  0  0  0  0
   -5.7944   -2.3990    0.7713 H   0  0  0  0  0  0  0  0  0  0  0  0
   -7.2840   -1.5190    0.4376 H   0  0  0  0  0  0  0  0  0  0  0  0
   -6.1722   -0.6152    2.4785 H   0  0  0  0  0  0  0  0  0  0  0  0
   -7.4628    0.9573    1.0368 H   0  0  0  0  0  0  0  0  0  0  0  0
   -6.0970    1.7811    1.7858 H   0  0  0  0  0  0  0  0  0  0  0  0
   -6.2477    2.3544   -0.6370 H   0  0  0  0  0  0  0  0  0  0  0  0
   -5.8826    0.5765   -2.3484 H   0  0  0  0  0  0  0  0  0  0  0  0
   -7.3359    0.2446   -1.4089 H   0  0  0  0  0  0  0  0  0  0  0  0
   -3.9157    1.7722   -1.2626 H   0  0  0  0  0  0  0  0  0  0  0  0
   -3.9964    2.2601    0.4225 H   0  0  0  0  0  0  0  0  0  0  0  0
   -3.9482    0.5016    2.2789 H   0  0  0  0  0  0  0  0  0  0  0  0
   -3.8509   -1.2074    1.8941 H   0  0  0  0  0  0  0  0  0  0  0  0
    0.5421   -1.7765    1.9900 H   0  0  0  0  0  0  0  0  0  0  0  0
    4.6804   -0.0023   -1.8096 H   0  0  0  0  0  0  0  0  0  0  0  0
    7.1094    0.0485   -1.7331 H   0  0  0  0  0  0  0  0  0  0  0  0
  1  2  2  0
  2  3  1  0
  3  4  2  0
  4  5  1  0
  5  6  1  0
  6  7  2  0
  7  8  1  0
  8  9  1  0
  9 10  2  0
 10 11  1  0
 11 12  1  0
 12 13  2  0
 12 14  1  0
 11 15  2  0
 15 16  1  0
 16 17  2  0
 16 18  1  0
 19 18  1  1
 19 20  1  0
 20 21  1  0
 21 22  1  0
 22 23  1  0
 23 24  1  0
 24 25  1  0
 25 26  1  0
 25 27  1  0
 23 28  1  0
 15 29  1  0
 29 30  2  0
  8 31  2  0
 31 32  1  0
 32  5  2  0
 30  9  1  0
 27 19  1  0
 28 19  1  0
 26 21  1  0
  2 33  1  0
  3 34  1  0
  4 35  1  0
  6 36  1  0
  7 37  1  0
 10 38  1  0
 18 39  1  0
 20 40  1  0
 20 41  1  0
 21 42  1  6
 22 43  1  0
 22 44  1  0
 23 45  1  1
 24 46  1  0
 24 47  1  0
 25 48  1  6
 26 49  1  0
 26 50  1  0
 27 51  1  0
 27 52  1  0
 28 53  1  0
 28 54  1  0
 29 55  1  0
 31 56  1  0
 32 57  1  0
M  CHG  1  14  -1
M  END
>  <_SMILES>  (91) 
O=C/C=C/c1ccc(-c2cc(C(=O)[O-])c(C(=O)N[C@]34C[C@H]5C[C@H](C[C@H](C5)C3)C4)cn2)cc1

$$$$

     RDKit          3D

 53 58  0  0  0  0  0  0  0  0999 V2000
   -1.7807   -1.7216   -2.0408 O   0  0  0  0  0  0  0  0  0  0  0  0
   -1.0654   -1.0705   -1.2891 C   0  0  0  0  0  0  0  0  0  0  0  0
   -1.5236   -0.2106   -0.3125 N   0  0  0  0  0  0  0  0  0  0  0  0
   -2.9235    0.0712   -0.0033 C   0  0  2  0  0  0  0  0  0  0  0  0
   -3.6617    0.6915   -1.2153 C   0  0  0  0  0  0  0  0  0  0  0  0
   -5.1194    1.0227   -0.8495 C   0  0  1  0  0  0  0  0  0  0  0  0
   -5.8367   -0.2658   -0.4120 C   0  0  0  0  0  0  0  0  0  0  0  0
   -5.1333   -0.8733    0.8138 C   0  0  2  0  0  0  0  0  0  0  0  0
   -5.1495    0.1457    1.9641 C   0  0  0  0  0  0  0  0  0  0  0  0
   -4.4267    1.4324    1.5356 C   0  0  2  0  0  0  0  0  0  0  0  0
   -5.1356    2.0307    0.3105 C   0  0  0  0  0  0  0  0  0  0  0  0
   -2.9745    1.0944    1.1625 C   0  0  0  0  0  0  0  0  0  0  0  0
   -3.6757   -1.2051    0.4484 C   0  0  0  0  0  0  0  0  0  0  0  0
    0.4329   -1.1579   -1.3707 C   0  0  0  0  0  0  0  0  0  0  0  0
    1.0105   -1.9973   -2.3204 C   0  0  0  0  0  0  0  0  0  0  0  0
    2.3982   -2.0823   -2.3998 C   0  0  0  0  0  0  0  0  0  0  0  0
    3.1053   -1.2953   -1.4914 C   0  0  0  0  0  0  0  0  0  0  0  0
    4.4544   -1.1300   -1.2883 N   0  0  0  0  0  0  0  0  0  0  0  0
    4.6928   -0.2383   -0.2616 C   0  0  0  0  0  0  0  0  0  0  0  0
    6.0393    0.1412    0.1689 C   0  0  0  0  0  0  0  0  0  0  0  0
    6.3026    1.4518    0.5896 C   0  0  0  0  0  0  0  0  0  0  0  0
    7.5853    1.8263    0.9986 C   0  0  0  0  0  0  0  0  0  0  0  0
    8.6187    0.8927    0.9958 C   0  0  0  0  0  0  0  0  0  0  0  0
    8.3703   -0.4154    0.5867 C   0  0  0  0  0  0  0  0  0  0  0  0
    7.0876   -0.7897    0.1760 C   0  0  0  0  0  0  0  0  0  0  0  0
    3.4502    0.1816    0.1874 C   0  0  0  0  0  0  0  0  0  0  0  0
    2.4575   -0.4788   -0.5714 C   0  0  0  0  0  0  0  0  0  0  0  0
    1.1101   -0.3812   -0.4779 N   0  0  0  0  0  0  0  0  0  0  0  0
   -0.7910    0.2490    0.2248 H   0  0  0  0  0  0  0  0  0  0  0  0
   -3.1440    1.6009   -1.5475 H   0  0  0  0  0  0  0  0  0  0  0  0
   -3.6549    0.0053   -2.0705 H   0  0  0  0  0  0  0  0  0  0  0  0
   -5.6292    1.4524   -1.7190 H   0  0  0  0  0  0  0  0  0  0  0  0
   -5.8440   -0.9892   -1.2366 H   0  0  0  0  0  0  0  0  0  0  0  0
   -6.8843   -0.0470   -0.1713 H   0  0  0  0  0  0  0  0  0  0  0  0
   -5.6531   -1.7870    1.1229 H   0  0  0  0  0  0  0  0  0  0  0  0
   -6.1841    0.3739    2.2483 H   0  0  0  0  0  0  0  0  0  0  0  0
   -4.6628   -0.2809    2.8498 H   0  0  0  0  0  0  0  0  0  0  0  0
   -4.4387    2.1550    2.3592 H   0  0  0  0  0  0  0  0  0  0  0  0
   -4.6390    2.9603    0.0064 H   0  0  0  0  0  0  0  0  0  0  0  0
   -6.1700    2.2913    0.5662 H   0  0  0  0  0  0  0  0  0  0  0  0
   -2.4412    2.0127    0.8822 H   0  0  0  0  0  0  0  0  0  0  0  0
   -2.4509    0.6926    2.0404 H   0  0  0  0  0  0  0  0  0  0  0  0
   -3.1681   -1.6571    1.3107 H   0  0  0  0  0  0  0  0  0  0  0  0
   -3.6693   -1.9637   -0.3433 H   0  0  0  0  0  0  0  0  0  0  0  0
    0.3853   -2.5790   -2.9919 H   0  0  0  0  0  0  0  0  0  0  0  0
    2.8903   -2.7216   -3.1236 H   0  0  0  0  0  0  0  0  0  0  0  0
    5.1752   -1.5822   -1.8328 H   0  0  0  0  0  0  0  0  0  0  0  0
    5.5128    2.1994    0.5924 H   0  0  0  0  0  0  0  0  0  0  0  0
    7.7751    2.8476    1.3187 H   0  0  0  0  0  0  0  0  0  0  0  0
    9.6157    1.1836    1.3166 H   0  0  0  0  0  0  0  0  0  0  0  0
    9.1736   -1.1477    0.5939 H   0  0  0  0  0  0  0  0  0  0  0  0
    6.9179   -1.8229   -0.1150 H   0  0  0  0  0  0  0  0  0  0  0  0
    3.2695    0.8851    0.9884 H   0  0  0  0  0  0  0  0  0  0  0  0
  1  2  2  0
  2  3  1  0
  4  3  1  6
  4  5  1  0
  5  6  1  0
  6  7  1  0
  7  8  1  0
  8  9  1  0
  9 10  1  0
 10 11  1  0
 10 12  1  0
  8 13  1  0
  2 14  1  0
 14 15  1  0
 15 16  2  0
 16 17  1  0
 17 18  1  0
 18 19  1  0
 19 20  1  0
 20 21  2  0
 21 22  1  0
 22 23  2  0
 23 24  1  0
 24 25  2  0
 19 26  2  0
 26 27  1  0
 27 28  1  0
 12  4  1  0
 28 14  2  0
 13  4  1  0
 27 17  2  0
 11  6  1  0
 25 20  1  0
  3 29  1  0
  5 30  1  0
  5 31  1  0
  6 32  1  6
  7 33  1  0
  7 34  1  0
  8 35  1  1
  9 36  1  0
  9 37  1  0
 10 38  1  1
 11 39  1  0
 11 40  1  0
 12 41  1  0
 12 42  1  0
 13 43  1  0
 13 44  1  0
 15 45  1  0
 16 46  1  0
 18 47  1  0
 21 48  1  0
 22 49  1  0
 23 50  1  0
 24 51  1  0
 25 52  1  0
 26 53  1  0
M  END
>  <_SMILES>  (92) 
O=C(N[C@]12C[C@H]3C[C@H](C[C@H](C3)C1)C2)c1ccc2[nH]c(-c3ccccc3)cc2n1

$$$$

     RDKit          3D

 53 58  0  0  0  0  0  0  0  0999 V2000
   -1.5686    2.3624    1.1692 O   0  0  0  0  0  0  0  0  0  0  0  0
   -0.9283    1.3889    0.7970 C   0  0  0  0  0  0  0  0  0  0  0  0
   -1.4548    0.2799    0.1650 N   0  0  0  0  0  0  0  0  0  0  0  0
   -2.8858    0.0610   -0.0655 C   0  0  2  0  0  0  0  0  0  0  0  0
   -3.0549   -1.2801   -0.8298 C   0  0  0  0  0  0  0  0  0  0  0  0
   -4.5382   -1.5790   -1.0990 C   0  0  1  0  0  0  0  0  0  0  0  0
   -5.2870   -1.6621    0.2406 C   0  0  0  0  0  0  0  0  0  0  0  0
   -5.1553   -0.3320    0.9996 C   0  0  2  0  0  0  0  0  0  0  0  0
   -5.7451    0.8010    0.1426 C   0  0  0  0  0  0  0  0  0  0  0  0
   -5.0008    0.8919   -1.2005 C   0  0  2  0  0  0  0  0  0  0  0  0
   -5.1347   -0.4448   -1.9463 C   0  0  0  0  0  0  0  0  0  0  0  0
   -3.5124    1.1805   -0.9354 C   0  0  0  0  0  0  0  0  0  0  0  0
   -3.6673   -0.0440    1.2669 C   0  0  0  0  0  0  0  0  0  0  0  0
    0.5554    1.2648    1.0169 C   0  0  0  0  0  0  0  0  0  0  0  0
    1.1219    1.9617    2.0273 C   0  0  0  0  0  0  0  0  0  0  0  0
    2.5618    1.8567    2.2503 C   0  0  0  0  0  0  0  0  0  0  0  0
    3.2929    1.0966    1.4226 C   0  0  0  0  0  0  0  0  0  0  0  0
    4.6430    0.8940    1.4099 N   0  0  0  0  0  0  0  0  0  0  0  0
    4.8482    0.1335    0.3631 C   0  0  0  0  0  0  0  0  0  0  0  0
    6.1924   -0.3385   -0.0461 C   0  0  0  0  0  0  0  0  0  0  0  0
    6.4089   -1.0992   -1.2018 C   0  0  0  0  0  0  0  0  0  0  0  0
    7.7008   -1.5169   -1.5379 C   0  0  0  0  0  0  0  0  0  0  0  0
    8.7818   -1.1784   -0.7258 C   0  0  0  0  0  0  0  0  0  0  0  0
    8.5761   -0.4205    0.4244 C   0  0  0  0  0  0  0  0  0  0  0  0
    7.2875   -0.0018    0.7626 C   0  0  0  0  0  0  0  0  0  0  0  0
    3.6291   -0.2327   -0.3906 C   0  0  0  0  0  0  0  0  0  0  0  0
    2.6799    0.3732    0.3210 C   0  0  0  0  0  0  0  0  0  0  0  0
    1.3139    0.4358    0.1838 N   0  0  0  0  0  0  0  0  0  0  0  0
   -0.8630   -0.5416    0.1925 H   0  0  0  0  0  0  0  0  0  0  0  0
   -2.6135   -2.1028   -0.2511 H   0  0  0  0  0  0  0  0  0  0  0  0
   -2.5046   -1.2450   -1.7796 H   0  0  0  0  0  0  0  0  0  0  0  0
   -4.6329   -2.5300   -1.6350 H   0  0  0  0  0  0  0  0  0  0  0  0
   -6.3455   -1.8899    0.0647 H   0  0  0  0  0  0  0  0  0  0  0  0
   -4.8815   -2.4814    0.8469 H   0  0  0  0  0  0  0  0  0  0  0  0
   -5.6951   -0.3951    1.9510 H   0  0  0  0  0  0  0  0  0  0  0  0
   -5.6688    1.7550    0.6788 H   0  0  0  0  0  0  0  0  0  0  0  0
   -6.8125    0.6194   -0.0334 H   0  0  0  0  0  0  0  0  0  0  0  0
   -5.4301    1.6972   -1.8071 H   0  0  0  0  0  0  0  0  0  0  0  0
   -6.1907   -0.6512   -2.1594 H   0  0  0  0  0  0  0  0  0  0  0  0
   -4.6199   -0.3880   -2.9132 H   0  0  0  0  0  0  0  0  0  0  0  0
   -2.9722    1.2652   -1.8875 H   0  0  0  0  0  0  0  0  0  0  0  0
   -3.4249    2.1570   -0.4457 H   0  0  0  0  0  0  0  0  0  0  0  0
   -3.5790    0.8836    1.8451 H   0  0  0  0  0  0  0  0  0  0  0  0
   -3.2402   -0.8380    1.8935 H   0  0  0  0  0  0  0  0  0  0  0  0
    0.5440    2.6101    2.6779 H   0  0  0  0  0  0  0  0  0  0  0  0
    3.0187    2.4109    3.0603 H   0  0  0  0  0  0  0  0  0  0  0  0
    5.5969   -1.3797   -1.8632 H   0  0  0  0  0  0  0  0  0  0  0  0
    7.8644   -2.1067   -2.4367 H   0  0  0  0  0  0  0  0  0  0  0  0
    9.7850   -1.5039   -0.9897 H   0  0  0  0  0  0  0  0  0  0  0  0
    9.4164   -0.1529    1.0601 H   0  0  0  0  0  0  0  0  0  0  0  0
    7.1429    0.5905    1.6645 H   0  0  0  0  0  0  0  0  0  0  0  0
    3.5302   -0.8451   -1.2630 H   0  0  0  0  0  0  0  0  0  0  0  0
    0.9154    0.2109   -0.7199 H   0  0  0  0  0  0  0  0  0  0  0  0
  1  2  2  0
  2  3  1  0
  4  3  1  1
  4  5  1  0
  5  6  1  0
  6  7  1  0
  7  8  1  0
  8  9  1  0
  9 10  1  0
 10 11  1  0
 10 12  1  0
  8 13  1  0
  2 14  1  0
 14 15  2  0
 15 16  1  0
 16 17  2  0
 17 18  1  0
 18 19  2  0
 19 20  1  0
 20 21  2  0
 21 22  1  0
 22 23  2  0
 23 24  1  0
 24 25  2  0
 19 26  1  0
 26 27  2  0
 27 28  1  0
 12  4  1  0
 28 14  1  0
 13  4  1  0
 27 17  1  0
 11  6  1  0
 25 20  1  0
  3 29  1  0
  5 30  1  0
  5 31  1  0
  6 32  1  6
  7 33  1  0
  7 34  1  0
  8 35  1  1
  9 36  1  0
  9 37  1  0
 10 38  1  6
 11 39  1  0
 11 40  1  0
 12 41  1  0
 12 42  1  0
 13 43  1  0
 13 44  1  0
 15 45  1  0
 16 46  1  0
 21 47  1  0
 22 48  1  0
 23 49  1  0
 24 50  1  0
 25 51  1  0
 26 52  1  0
 28 53  1  0
M  END
>  <_SMILES>  (93) 
O=C(N[C@]12C[C@H]3C[C@H](C[C@H](C3)C1)C2)c1ccc2nc(-c3ccccc3)cc-2[nH]1

$$$$

     RDKit          3D

 55 58  0  0  0  0  0  0  0  0999 V2000
   -5.8084   -1.1008   -1.2139 C   0  0  0  0  0  0  0  0  0  0  0  0
   -5.2213   -1.6486    0.0864 C   0  0  0  0  0  0  0  0  0  0  0  0
   -4.0738   -2.6176   -0.2089 C   0  0  0  0  0  0  0  0  0  0  0  0
   -4.8139   -0.5461    1.0775 C   0  0  0  0  0  0  0  0  0  0  0  0
   -3.7483    0.3653    0.5216 N   0  0  0  0  0  0  0  0  0  0  0  0
   -4.2593    1.7373    0.1015 C   0  0  0  0  0  0  0  0  0  0  0  0
   -3.1934    2.4123   -0.7755 C   0  0  0  0  0  0  0  0  0  0  0  0
   -1.8261    1.9921   -0.4404 N   0  0  0  0  0  0  0  0  0  0  0  0
   -0.8223    2.4391   -1.3055 C   0  0  0  0  0  0  0  0  0  0  0  0
   -1.0707    3.0950   -2.3118 O   0  0  0  0  0  0  0  0  0  0  0  0
    0.5827    2.0958   -1.0104 C   0  0  0  0  0  0  0  0  0  0  0  0
    1.5042    3.1294   -0.8375 C   0  0  0  0  0  0  0  0  0  0  0  0
    2.8424    2.8452   -0.5522 C   0  0  0  0  0  0  0  0  0  0  0  0
    3.2130    1.4973   -0.4649 C   0  0  0  0  0  0  0  0  0  0  0  0
    4.4424    0.9316   -0.2113 N   0  0  0  0  0  0  0  0  0  0  0  0
    4.3682   -0.4440   -0.2338 C   0  0  0  0  0  0  0  0  0  0  0  0
    5.5246   -1.3083    0.0085 C   0  0  0  0  0  0  0  0  0  0  0  0
    6.8016   -0.9543   -0.4493 C   0  0  0  0  0  0  0  0  0  0  0  0
    7.8998   -1.7853   -0.2108 C   0  0  0  0  0  0  0  0  0  0  0  0
    7.7337   -2.9795    0.4865 C   0  0  0  0  0  0  0  0  0  0  0  0
    6.4699   -3.3462    0.9424 C   0  0  0  0  0  0  0  0  0  0  0  0
    5.3714   -2.5163    0.7026 C   0  0  0  0  0  0  0  0  0  0  0  0
    3.0481   -0.7590   -0.5069 C   0  0  0  0  0  0  0  0  0  0  0  0
    2.3153    0.4494   -0.6572 C   0  0  0  0  0  0  0  0  0  0  0  0
    0.9716    0.7485   -0.9484 C   0  0  0  0  0  0  0  0  0  0  0  0
   -1.5936    1.6292    0.9633 C   0  0  0  0  0  0  0  0  0  0  0  0
   -2.5301    0.4979    1.4350 C   0  0  0  0  0  0  0  0  0  0  0  0
   -5.0601   -0.5679   -1.8091 H   0  0  0  0  0  0  0  0  0  0  0  0
   -6.6367   -0.4151   -1.0078 H   0  0  0  0  0  0  0  0  0  0  0  0
   -6.1999   -1.9168   -1.8312 H   0  0  0  0  0  0  0  0  0  0  0  0
   -6.0128   -2.2306    0.5773 H   0  0  0  0  0  0  0  0  0  0  0  0
   -3.6538   -3.0173    0.7201 H   0  0  0  0  0  0  0  0  0  0  0  0
   -4.4325   -3.4654   -0.8027 H   0  0  0  0  0  0  0  0  0  0  0  0
   -3.2648   -2.1407   -0.7708 H   0  0  0  0  0  0  0  0  0  0  0  0
   -4.4222   -1.0020    1.9942 H   0  0  0  0  0  0  0  0  0  0  0  0
   -5.6731    0.0736    1.3580 H   0  0  0  0  0  0  0  0  0  0  0  0
   -3.3720   -0.0444   -0.3446 H   0  0  0  0  0  0  0  0  0  0  0  0
   -4.4476    2.3009    1.0219 H   0  0  0  0  0  0  0  0  0  0  0  0
   -5.1971    1.6132   -0.4475 H   0  0  0  0  0  0  0  0  0  0  0  0
   -3.2624    3.5023   -0.6814 H   0  0  0  0  0  0  0  0  0  0  0  0
   -3.3732    2.1624   -1.8283 H   0  0  0  0  0  0  0  0  0  0  0  0
    1.1868    4.1663   -0.9329 H   0  0  0  0  0  0  0  0  0  0  0  0
    3.5666    3.6438   -0.4195 H   0  0  0  0  0  0  0  0  0  0  0  0
    5.2855    1.4563   -0.0239 H   0  0  0  0  0  0  0  0  0  0  0  0
    6.9584   -0.0410   -1.0172 H   0  0  0  0  0  0  0  0  0  0  0  0
    8.8844   -1.5036   -0.5762 H   0  0  0  0  0  0  0  0  0  0  0  0
    8.5883   -3.6262    0.6702 H   0  0  0  0  0  0  0  0  0  0  0  0
    6.3388   -4.2789    1.4851 H   0  0  0  0  0  0  0  0  0  0  0  0
    4.3964   -2.8197    1.0747 H   0  0  0  0  0  0  0  0  0  0  0  0
    2.6573   -1.7634   -0.6072 H   0  0  0  0  0  0  0  0  0  0  0  0
    0.2626   -0.0499   -1.1364 H   0  0  0  0  0  0  0  0  0  0  0  0
   -1.7868    2.5347    1.5527 H   0  0  0  0  0  0  0  0  0  0  0  0
   -0.5556    1.3567    1.1637 H   0  0  0  0  0  0  0  0  0  0  0  0
   -2.8826    0.6836    2.4552 H   0  0  0  0  0  0  0  0  0  0  0  0
   -2.0197   -0.4701    1.3929 H   0  0  0  0  0  0  0  0  0  0  0  0
  1  2  1  0
  2  3  1  0
  2  4  1  0
  4  5  1  0
  5  6  1  0
  6  7  1  0
  7  8  1  0
  8  9  1  0
  9 10  2  0
  9 11  1  0
 11 12  2  0
 12 13  1  0
 13 14  2  0
 14 15  1  0
 15 16  1  0
 16 17  1  0
 17 18  2  0
 18 19  1  0
 19 20  2  0
 20 21  1  0
 21 22  2  0
 16 23  2  0
 23 24  1  0
 24 25  2  0
  8 26  1  0
 26 27  1  0
 27  5  1  0
 25 11  1  0
 24 14  1  0
 22 17  1  0
  1 28  1  0
  1 29  1  0
  1 30  1  0
  2 31  1  0
  3 32  1  0
  3 33  1  0
  3 34  1  0
  4 35  1  0
  4 36  1  0
  5 37  1  0
  6 38  1  0
  6 39  1  0
  7 40  1  0
  7 41  1  0
 12 42  1  0
 13 43  1  0
 15 44  1  0
 18 45  1  0
 19 46  1  0
 20 47  1  0
 21 48  1  0
 22 49  1  0
 23 50  1  0
 25 51  1  0
 26 52  1  0
 26 53  1  0
 27 54  1  0
 27 55  1  0
M  CHG  1   5   1
M  END
>  <_SMILES>  (94) 
CC(C)C[NH+]1CCN(C(=O)c2ccc3[nH]c(-c4ccccc4)cc3c2)CC1

$$$$

     RDKit          3D

 56 60  0  0  0  0  0  0  0  0999 V2000
    7.4737   -0.6606   -1.2157 C   0  0  0  0  0  0  0  0  0  0  0  0
    6.2797    0.0502   -0.6250 N   0  0  2  0  0  0  0  0  0  0  0  0
    5.8366   -0.6307    0.6593 C   0  0  0  0  0  0  0  0  0  0  0  0
    4.8879    0.2448    1.4801 C   0  0  0  0  0  0  0  0  0  0  0  0
    3.4622    0.1812    0.9906 C   0  0  0  0  0  0  0  0  0  0  0  0
    2.4694   -0.3492    1.8336 C   0  0  0  0  0  0  0  0  0  0  0  0
    1.1404   -0.4418    1.4122 C   0  0  0  0  0  0  0  0  0  0  0  0
    0.7825    0.0098    0.1418 C   0  0  0  0  0  0  0  0  0  0  0  0
   -0.6080   -0.0962   -0.3789 C   0  0  0  0  0  0  0  0  0  0  0  0
   -0.7754   -0.2158   -1.5861 O   0  0  0  0  0  0  0  0  0  0  0  0
   -1.6165   -0.0221    0.5576 N   0  0  0  0  0  0  0  0  0  0  0  0
   -3.0499   -0.0343    0.2334 C   0  0  2  0  0  0  0  0  0  0  0  0
   -3.4649   -1.3297   -0.5096 C   0  0  0  0  0  0  0  0  0  0  0  0
   -4.9785   -1.3331   -0.7885 C   0  0  1  0  0  0  0  0  0  0  0  0
   -5.7412   -1.2635    0.5435 C   0  0  0  0  0  0  0  0  0  0  0  0
   -5.3646    0.0219    1.2960 C   0  0  2  0  0  0  0  0  0  0  0  0
   -5.7265    1.2416    0.4339 C   0  0  0  0  0  0  0  0  0  0  0  0
   -4.9643    1.1869   -0.8996 C   0  0  2  0  0  0  0  0  0  0  0  0
   -5.3377   -0.1063   -1.6443 C   0  0  0  0  0  0  0  0  0  0  0  0
   -3.4507    1.1930   -0.6213 C   0  0  0  0  0  0  0  0  0  0  0  0
   -3.8510    0.0245    1.5627 C   0  0  0  0  0  0  0  0  0  0  0  0
    1.7660    0.5403   -0.7029 C   0  0  0  0  0  0  0  0  0  0  0  0
    3.1064    0.6335   -0.2913 C   0  0  0  0  0  0  0  0  0  0  0  0
    4.1231    1.2132   -1.2421 C   0  0  0  0  0  0  0  0  0  0  0  0
    5.1816    0.1961   -1.6667 C   0  0  0  0  0  0  0  0  0  0  0  0
    7.8083   -0.0960   -2.0900 H   0  0  0  0  0  0  0  0  0  0  0  0
    8.2674   -0.6756   -0.4641 H   0  0  0  0  0  0  0  0  0  0  0  0
    7.1727   -1.6746   -1.4921 H   0  0  0  0  0  0  0  0  0  0  0  0
    6.6025    0.9960   -0.3811 H   0  0  0  0  0  0  0  0  0  0  0  0
    5.4055   -1.6028    0.3936 H   0  0  0  0  0  0  0  0  0  0  0  0
    6.7494   -0.7944    1.2432 H   0  0  0  0  0  0  0  0  0  0  0  0
    4.9252   -0.1041    2.5200 H   0  0  0  0  0  0  0  0  0  0  0  0
    5.2243    1.2886    1.5027 H   0  0  0  0  0  0  0  0  0  0  0  0
    2.7194   -0.7092    2.8313 H   0  0  0  0  0  0  0  0  0  0  0  0
    0.4063   -0.8948    2.0739 H   0  0  0  0  0  0  0  0  0  0  0  0
   -1.3719    0.3111    1.4802 H   0  0  0  0  0  0  0  0  0  0  0  0
   -3.1923   -2.2103    0.0868 H   0  0  0  0  0  0  0  0  0  0  0  0
   -2.9308   -1.4273   -1.4615 H   0  0  0  0  0  0  0  0  0  0  0  0
   -5.2527   -2.2495   -1.3230 H   0  0  0  0  0  0  0  0  0  0  0  0
   -6.8222   -1.2867    0.3584 H   0  0  0  0  0  0  0  0  0  0  0  0
   -5.5044   -2.1410    1.1576 H   0  0  0  0  0  0  0  0  0  0  0  0
   -5.9081    0.0666    2.2464 H   0  0  0  0  0  0  0  0  0  0  0  0
   -5.4791    2.1664    0.9695 H   0  0  0  0  0  0  0  0  0  0  0  0
   -6.8073    1.2612    0.2473 H   0  0  0  0  0  0  0  0  0  0  0  0
   -5.2298    2.0558   -1.5122 H   0  0  0  0  0  0  0  0  0  0  0  0
   -6.4110   -0.1102   -1.8708 H   0  0  0  0  0  0  0  0  0  0  0  0
   -4.8096   -0.1515   -2.6047 H   0  0  0  0  0  0  0  0  0  0  0  0
   -2.9108    1.1978   -1.5757 H   0  0  0  0  0  0  0  0  0  0  0  0
   -3.1696    2.1204   -0.1051 H   0  0  0  0  0  0  0  0  0  0  0  0
   -3.5788    0.9260    2.1280 H   0  0  0  0  0  0  0  0  0  0  0  0
   -3.5850   -0.8286    2.2013 H   0  0  0  0  0  0  0  0  0  0  0  0
    1.4676    0.8811   -1.6953 H   0  0  0  0  0  0  0  0  0  0  0  0
    4.5793    2.1052   -0.7958 H   0  0  0  0  0  0  0  0  0  0  0  0
    3.6107    1.5621   -2.1478 H   0  0  0  0  0  0  0  0  0  0  0  0
    4.7702   -0.8003   -1.8645 H   0  0  0  0  0  0  0  0  0  0  0  0
    5.6741    0.5647   -2.5737 H   0  0  0  0  0  0  0  0  0  0  0  0
  1  2  1  0
  2  3  1  0
  3  4  1  0
  4  5  1  0
  5  6  1  0
  6  7  2  0
  7  8  1  0
  8  9  1  0
  9 10  2  0
  9 11  1  0
 12 11  1  1
 12 13  1  0
 13 14  1  0
 14 15  1  0
 15 16  1  0
 16 17  1  0
 17 18  1  0
 18 19  1  0
 18 20  1  0
 16 21  1  0
  8 22  2  0
 22 23  1  0
 23 24  1  0
 24 25  1  0
 25  2  1  0
 23  5  2  0
 20 12  1  0
 21 12  1  0
 19 14  1  0
  1 26  1  0
  1 27  1  0
  1 28  1  0
  2 29  1  1
  3 30  1  0
  3 31  1  0
  4 32  1  0
  4 33  1  0
  6 34  1  0
  7 35  1  0
 11 36  1  0
 13 37  1  0
 13 38  1  0
 14 39  1  6
 15 40  1  0
 15 41  1  0
 16 42  1  1
 17 43  1  0
 17 44  1  0
 18 45  1  6
 19 46  1  0
 19 47  1  0
 20 48  1  0
 20 49  1  0
 21 50  1  0
 21 51  1  0
 22 52  1  0
 24 53  1  0
 24 54  1  0
 25 55  1  0
 25 56  1  0
M  CHG  1   2   1
M  END
>  <_SMILES>  (95) 
C[N@@H+]1CCc2ccc(C(=O)N[C@]34C[C@H]5C[C@H](C[C@H](C5)C3)C4)cc2CC1

$$$$

     RDKit          3D

 56 60  0  0  0  0  0  0  0  0999 V2000
    7.6370   -0.1877   -0.6530 C   0  0  0  0  0  0  0  0  0  0  0  0
    6.4283    0.0097    0.2252 N   0  0  1  0  0  0  0  0  0  0  0  0
    5.7594    1.3525    0.0089 C   0  0  0  0  0  0  0  0  0  0  0  0
    4.7522    1.3358   -1.1381 C   0  0  0  0  0  0  0  0  0  0  0  0
    3.3787    0.8028   -0.7853 C   0  0  0  0  0  0  0  0  0  0  0  0
    2.2854    1.3579   -1.4841 C   0  0  0  0  0  0  0  0  0  0  0  0
    0.9727    0.9465   -1.2402 C   0  0  0  0  0  0  0  0  0  0  0  0
    0.7234   -0.0307   -0.2805 C   0  0  0  0  0  0  0  0  0  0  0  0
   -0.6480   -0.5301    0.0194 C   0  0  0  0  0  0  0  0  0  0  0  0
   -0.7786   -1.6653    0.4602 O   0  0  0  0  0  0  0  0  0  0  0  0
   -1.6829    0.3545   -0.1980 N   0  0  0  0  0  0  0  0  0  0  0  0
   -3.0935    0.0684    0.0993 C   0  0  2  0  0  0  0  0  0  0  0  0
   -3.6149   -1.1588   -0.6909 C   0  0  0  0  0  0  0  0  0  0  0  0
   -5.1062   -1.3995   -0.3959 C   0  0  1  0  0  0  0  0  0  0  0  0
   -5.2914   -1.6367    1.1126 C   0  0  0  0  0  0  0  0  0  0  0  0
   -4.8119   -0.4085    1.9050 C   0  0  2  0  0  0  0  0  0  0  0  0
   -5.6210    0.8232    1.4688 C   0  0  0  0  0  0  0  0  0  0  0  0
   -5.4325    1.0692   -0.0364 C   0  0  2  0  0  0  0  0  0  0  0  0
   -5.9141   -0.1627   -0.8180 C   0  0  0  0  0  0  0  0  0  0  0  0
   -3.9408    1.2985   -0.3267 C   0  0  0  0  0  0  0  0  0  0  0  0
   -3.3203   -0.1671    1.6129 C   0  0  0  0  0  0  0  0  0  0  0  0
    1.8028   -0.6106    0.3985 C   0  0  0  0  0  0  0  0  0  0  0  0
    3.1364   -0.2260    0.1455 C   0  0  0  0  0  0  0  0  0  0  0  0
    4.2088   -0.9542    0.9272 C   0  0  0  0  0  0  0  0  0  0  0  0
    5.5065   -1.1920    0.1616 C   0  0  0  0  0  0  0  0  0  0  0  0
    7.3153   -0.2024   -1.6971 H   0  0  0  0  0  0  0  0  0  0  0  0
    8.1060   -1.1353   -0.3751 H   0  0  0  0  0  0  0  0  0  0  0  0
    8.3309    0.6361   -0.4666 H   0  0  0  0  0  0  0  0  0  0  0  0
    6.7901    0.0396    1.1883 H   0  0  0  0  0  0  0  0  0  0  0  0
    6.5613    2.0714   -0.1929 H   0  0  0  0  0  0  0  0  0  0  0  0
    5.2973    1.6385    0.9608 H   0  0  0  0  0  0  0  0  0  0  0  0
    5.1379    0.7841   -2.0032 H   0  0  0  0  0  0  0  0  0  0  0  0
    4.6355    2.3793   -1.4604 H   0  0  0  0  0  0  0  0  0  0  0  0
    2.4471    2.1243   -2.2430 H   0  0  0  0  0  0  0  0  0  0  0  0
    0.1667    1.3782   -1.8279 H   0  0  0  0  0  0  0  0  0  0  0  0
   -1.4467    1.3268   -0.3392 H   0  0  0  0  0  0  0  0  0  0  0  0
   -3.4666   -1.0046   -1.7678 H   0  0  0  0  0  0  0  0  0  0  0  0
   -3.0536   -2.0634   -0.4309 H   0  0  0  0  0  0  0  0  0  0  0  0
   -5.4553   -2.2759   -0.9533 H   0  0  0  0  0  0  0  0  0  0  0  0
   -4.7299   -2.5262    1.4240 H   0  0  0  0  0  0  0  0  0  0  0  0
   -6.3478   -1.8341    1.3328 H   0  0  0  0  0  0  0  0  0  0  0  0
   -4.9538   -0.5823    2.9776 H   0  0  0  0  0  0  0  0  0  0  0  0
   -5.2978    1.7044    2.0364 H   0  0  0  0  0  0  0  0  0  0  0  0
   -6.6840    0.6721    1.6936 H   0  0  0  0  0  0  0  0  0  0  0  0
   -6.0088    1.9495   -0.3421 H   0  0  0  0  0  0  0  0  0  0  0  0
   -5.8017    0.0090   -1.8956 H   0  0  0  0  0  0  0  0  0  0  0  0
   -6.9820   -0.3309   -0.6321 H   0  0  0  0  0  0  0  0  0  0  0  0
   -3.5966    2.1962    0.2045 H   0  0  0  0  0  0  0  0  0  0  0  0
   -3.7978    1.5026   -1.3963 H   0  0  0  0  0  0  0  0  0  0  0  0
   -2.7421   -1.0295    1.9654 H   0  0  0  0  0  0  0  0  0  0  0  0
   -2.9624    0.6976    2.1870 H   0  0  0  0  0  0  0  0  0  0  0  0
    1.5888   -1.3918    1.1306 H   0  0  0  0  0  0  0  0  0  0  0  0
    3.8221   -1.9462    1.1963 H   0  0  0  0  0  0  0  0  0  0  0  0
    4.3922   -0.4253    1.8703 H   0  0  0  0  0  0  0  0  0  0  0  0
    6.0660   -2.0119    0.6262 H   0  0  0  0  0  0  0  0  0  0  0  0
    5.3342   -1.4390   -0.8924 H   0  0  0  0  0  0  0  0  0  0  0  0
  1  2  1  0
  2  3  1  0
  3  4  1  0
  4  5  1  0
  5  6  1  0
  6  7  2  0
  7  8  1  0
  8  9  1  0
  9 10  2  0
  9 11  1  0
 12 11  1  1
 12 13  1  0
 13 14  1  0
 14 15  1  0
 15 16  1  0
 16 17  1  0
 17 18  1  0
 18 19  1  0
 18 20  1  0
 16 21  1  0
  8 22  2  0
 22 23  1  0
 23 24  1  0
 24 25  1  0
 25  2  1  0
 23  5  2  0
 20 12  1  0
 21 12  1  0
 19 14  1  0
  1 26  1  0
  1 27  1  0
  1 28  1  0
  2 29  1  1
  3 30  1  0
  3 31  1  0
  4 32  1  0
  4 33  1  0
  6 34  1  0
  7 35  1  0
 11 36  1  0
 13 37  1  0
 13 38  1  0
 14 39  1  6
 15 40  1  0
 15 41  1  0
 16 42  1  1
 17 43  1  0
 17 44  1  0
 18 45  1  6
 19 46  1  0
 19 47  1  0
 20 48  1  0
 20 49  1  0
 21 50  1  0
 21 51  1  0
 22 52  1  0
 24 53  1  0
 24 54  1  0
 25 55  1  0
 25 56  1  0
M  CHG  1   2   1
M  END
>  <_SMILES>  (96) 
C[N@H+]1CCc2ccc(C(=O)N[C@]34C[C@H]5C[C@H](C[C@H](C5)C3)C4)cc2CC1

$$$$

     RDKit          3D

 51 56  0  0  0  0  0  0  0  0999 V2000
   -1.3337    0.7639   -1.9020 O   0  0  0  0  0  0  0  0  0  0  0  0
   -1.1739    0.1207   -0.8714 C   0  0  0  0  0  0  0  0  0  0  0  0
   -2.1922   -0.5462   -0.2187 N   0  0  0  0  0  0  0  0  0  0  0  0
   -3.5401   -0.5588   -0.7483 C   0  0  1  0  0  0  0  0  0  0  0  0
   -4.4659   -1.5409   -0.0129 C   0  0  0  0  0  0  0  0  0  0  0  0
   -5.7537   -0.7701    0.2837 C   0  0  1  0  0  0  0  0  0  0  0  0
   -5.7326   -0.0588    1.6546 C   0  0  0  0  0  0  0  0  0  0  0  0
   -5.5303    1.4139    1.2689 C   0  0  2  0  0  0  0  0  0  0  0  0
   -6.4341    1.5407    0.0450 C   0  0  0  0  0  0  0  0  0  0  0  0
   -5.7468    0.4128   -0.7055 C   0  0  1  0  0  0  0  0  0  0  0  0
   -4.2545    0.7983   -0.6868 C   0  0  1  0  0  0  0  0  0  0  0  0
   -4.1322    1.5701    0.6495 C   0  0  0  0  0  0  0  0  0  0  0  0
    0.1820   -0.0108   -0.2714 C   0  0  0  0  0  0  0  0  0  0  0  0
    0.3600   -0.1558    1.1099 C   0  0  0  0  0  0  0  0  0  0  0  0
    1.6402   -0.2789    1.6625 C   0  0  0  0  0  0  0  0  0  0  0  0
    2.7291   -0.2438    0.7843 C   0  0  0  0  0  0  0  0  0  0  0  0
    4.0788   -0.3341    1.0381 N   0  0  0  0  0  0  0  0  0  0  0  0
    4.8107   -0.2482   -0.1262 C   0  0  0  0  0  0  0  0  0  0  0  0
    6.2729   -0.3029   -0.1561 C   0  0  0  0  0  0  0  0  0  0  0  0
    6.9851   -1.1395    0.7149 C   0  0  0  0  0  0  0  0  0  0  0  0
    8.3818   -1.1821    0.6793 C   0  0  0  0  0  0  0  0  0  0  0  0
    9.0818   -0.3900   -0.2278 C   0  0  0  0  0  0  0  0  0  0  0  0
    8.3867    0.4421   -1.1022 C   0  0  0  0  0  0  0  0  0  0  0  0
    6.9904    0.4834   -1.0676 C   0  0  0  0  0  0  0  0  0  0  0  0
    3.8927   -0.0798   -1.1488 C   0  0  0  0  0  0  0  0  0  0  0  0
    2.5852   -0.0826   -0.5912 C   0  0  0  0  0  0  0  0  0  0  0  0
    1.2911    0.0424   -1.1304 C   0  0  0  0  0  0  0  0  0  0  0  0
   -1.9405   -1.2439    0.4680 H   0  0  0  0  0  0  0  0  0  0  0  0
   -3.4717   -0.8713   -1.7991 H   0  0  0  0  0  0  0  0  0  0  0  0
   -4.0222   -1.9636    0.8948 H   0  0  0  0  0  0  0  0  0  0  0  0
   -4.6876   -2.3834   -0.6796 H   0  0  0  0  0  0  0  0  0  0  0  0
   -6.6419   -1.4039    0.1963 H   0  0  0  0  0  0  0  0  0  0  0  0
   -4.9564   -0.4299    2.3310 H   0  0  0  0  0  0  0  0  0  0  0  0
   -6.7023   -0.1845    2.1511 H   0  0  0  0  0  0  0  0  0  0  0  0
   -5.7376    2.1161    2.0786 H   0  0  0  0  0  0  0  0  0  0  0  0
   -7.4863    1.3315    0.2630 H   0  0  0  0  0  0  0  0  0  0  0  0
   -6.3435    2.5084   -0.4586 H   0  0  0  0  0  0  0  0  0  0  0  0
   -6.1392    0.1754   -1.6968 H   0  0  0  0  0  0  0  0  0  0  0  0
   -3.9755    1.4482   -1.5231 H   0  0  0  0  0  0  0  0  0  0  0  0
   -3.3414    1.2038    1.3101 H   0  0  0  0  0  0  0  0  0  0  0  0
   -3.9333    2.6286    0.4428 H   0  0  0  0  0  0  0  0  0  0  0  0
   -0.4943   -0.1457    1.7821 H   0  0  0  0  0  0  0  0  0  0  0  0
    1.7774   -0.3851    2.7339 H   0  0  0  0  0  0  0  0  0  0  0  0
    4.4802   -0.4253    1.9599 H   0  0  0  0  0  0  0  0  0  0  0  0
    6.4635   -1.7853    1.4161 H   0  0  0  0  0  0  0  0  0  0  0  0
    8.9223   -1.8395    1.3554 H   0  0  0  0  0  0  0  0  0  0  0  0
   10.1678   -0.4239   -0.2567 H   0  0  0  0  0  0  0  0  0  0  0  0
    8.9292    1.0608   -1.8123 H   0  0  0  0  0  0  0  0  0  0  0  0
    6.4677    1.1461   -1.7534 H   0  0  0  0  0  0  0  0  0  0  0  0
    4.1348    0.0256   -2.1986 H   0  0  0  0  0  0  0  0  0  0  0  0
    1.1526    0.1756   -2.2004 H   0  0  0  0  0  0  0  0  0  0  0  0
  1  2  2  0
  2  3  1  0
  3  4  1  0
  4  5  1  0
  5  6  1  0
  6  7  1  0
  7  8  1  0
  8  9  1  0
  9 10  1  0
 10 11  1  0
 11 12  1  0
  2 13  1  0
 13 14  2  0
 14 15  1  0
 15 16  2  0
 16 17  1  0
 17 18  1  0
 18 19  1  0
 19 20  2  0
 20 21  1  0
 21 22  2  0
 22 23  1  0
 23 24  2  0
 18 25  2  0
 25 26  1  0
 26 27  2  0
 11  4  1  0
 27 13  1  0
 10  6  1  0
 26 16  1  0
 12  8  1  0
 24 19  1  0
  3 28  1  0
  4 29  1  6
  5 30  1  0
  5 31  1  0
  6 32  1  1
  7 33  1  0
  7 34  1  0
  8 35  1  1
  9 36  1  0
  9 37  1  0
 10 38  1  6
 11 39  1  6
 12 40  1  0
 12 41  1  0
 14 42  1  0
 15 43  1  0
 17 44  1  0
 20 45  1  0
 21 46  1  0
 22 47  1  0
 23 48  1  0
 24 49  1  0
 25 50  1  0
 27 51  1  0
M  END
>  <_SMILES>  (97) 
O=C(N[C@H]1C[C@H]2C[C@@H]3C[C@H]2[C@H]1C3)c1ccc2[nH]c(-c3ccccc3)cc2c1

$$$$

     RDKit          3D

 45 47  0  0  0  0  0  0  0  0999 V2000
    7.1856   -1.1210   -0.6185 C   0  0  0  0  0  0  0  0  0  0  0  0
    5.9119   -0.2917   -0.5794 C   0  0  0  0  0  0  0  0  0  0  0  0
    4.7572   -1.0685    0.0516 C   0  0  0  0  0  0  0  0  0  0  0  0
    3.4776   -0.2318    0.0907 C   0  0  0  0  0  0  0  0  0  0  0  0
    2.4079   -1.0080    0.6857 N   0  0  0  0  0  0  0  0  0  0  0  0
    1.1675   -0.5054    0.7427 C   0  0  0  0  0  0  0  0  0  0  0  0
    0.7892    0.5268   -0.0626 N   0  0  0  0  0  0  0  0  0  0  0  0
   -0.4665    0.7514    0.2709 C   0  0  0  0  0  0  0  0  0  0  0  0
   -1.3443    1.7587   -0.3074 C   0  0  0  0  0  0  0  0  0  0  0  0
   -1.7446    1.6459   -1.6437 C   0  0  0  0  0  0  0  0  0  0  0  0
   -2.6021    2.5935   -2.2055 C   0  0  0  0  0  0  0  0  0  0  0  0
   -3.0551    3.6657   -1.4381 C   0  0  0  0  0  0  0  0  0  0  0  0
   -2.6465    3.7961   -0.1114 C   0  0  0  0  0  0  0  0  0  0  0  0
   -1.7905    2.8476    0.4524 C   0  0  0  0  0  0  0  0  0  0  0  0
   -0.8218   -0.1614    1.2328 N   0  0  0  0  0  0  0  0  0  0  0  0
   -2.1137   -0.3567    1.8673 C   0  0  0  0  0  0  0  0  0  0  0  0
   -3.1017   -1.0279    0.9454 C   0  0  0  0  0  0  0  0  0  0  0  0
   -2.9113   -2.3601    0.5471 C   0  0  0  0  0  0  0  0  0  0  0  0
   -3.8207   -2.9806   -0.3102 C   0  0  0  0  0  0  0  0  0  0  0  0
   -4.9295   -2.2786   -0.7777 C   0  0  0  0  0  0  0  0  0  0  0  0
   -5.1305   -0.9557   -0.3888 C   0  0  0  0  0  0  0  0  0  0  0  0
   -4.2232   -0.3326    0.4696 C   0  0  0  0  0  0  0  0  0  0  0  0
    0.2256   -0.9404    1.5754 N   0  0  0  0  0  0  0  0  0  0  0  0
    7.9983   -0.5462   -1.0737 H   0  0  0  0  0  0  0  0  0  0  0  0
    7.4972   -1.4094    0.3904 H   0  0  0  0  0  0  0  0  0  0  0  0
    7.0425   -2.0322   -1.2080 H   0  0  0  0  0  0  0  0  0  0  0  0
    6.0980    0.6265   -0.0102 H   0  0  0  0  0  0  0  0  0  0  0  0
    5.6462    0.0072   -1.6000 H   0  0  0  0  0  0  0  0  0  0  0  0
    5.0302   -1.3737    1.0698 H   0  0  0  0  0  0  0  0  0  0  0  0
    4.5769   -1.9905   -0.5155 H   0  0  0  0  0  0  0  0  0  0  0  0
    3.2123    0.0671   -0.9310 H   0  0  0  0  0  0  0  0  0  0  0  0
    3.6490    0.6788    0.6778 H   0  0  0  0  0  0  0  0  0  0  0  0
    2.6644   -1.5795    1.4808 H   0  0  0  0  0  0  0  0  0  0  0  0
   -1.3912    0.8136   -2.2497 H   0  0  0  0  0  0  0  0  0  0  0  0
   -2.9110    2.4957   -3.2431 H   0  0  0  0  0  0  0  0  0  0  0  0
   -3.7175    4.4065   -1.8790 H   0  0  0  0  0  0  0  0  0  0  0  0
   -2.9862    4.6424    0.4803 H   0  0  0  0  0  0  0  0  0  0  0  0
   -1.4623    2.9734    1.4815 H   0  0  0  0  0  0  0  0  0  0  0  0
   -1.9673   -0.9696    2.7649 H   0  0  0  0  0  0  0  0  0  0  0  0
   -2.4707    0.6212    2.2068 H   0  0  0  0  0  0  0  0  0  0  0  0
   -2.0446   -2.9201    0.8969 H   0  0  0  0  0  0  0  0  0  0  0  0
   -3.6600   -4.0111   -0.6165 H   0  0  0  0  0  0  0  0  0  0  0  0
   -5.6353   -2.7620   -1.4480 H   0  0  0  0  0  0  0  0  0  0  0  0
   -5.9931   -0.4068   -0.7580 H   0  0  0  0  0  0  0  0  0  0  0  0
   -4.3963    0.7037    0.7528 H   0  0  0  0  0  0  0  0  0  0  0  0
  1  2  1  0
  2  3  1  0
  3  4  1  0
  4  5  1  0
  5  6  1  0
  6  7  1  0
  7  8  2  0
  8  9  1  0
  9 10  2  0
 10 11  1  0
 11 12  2  0
 12 13  1  0
 13 14  2  0
  8 15  1  0
 15 16  1  0
 16 17  1  0
 17 18  2  0
 18 19  1  0
 19 20  2  0
 20 21  1  0
 21 22  2  0
 15 23  1  0
 23  6  2  0
 14  9  1  0
 22 17  1  0
  1 24  1  0
  1 25  1  0
  1 26  1  0
  2 27  1  0
  2 28  1  0
  3 29  1  0
  3 30  1  0
  4 31  1  0
  4 32  1  0
  5 33  1  0
 10 34  1  0
 11 35  1  0
 12 36  1  0
 13 37  1  0
 14 38  1  0
 16 39  1  0
 16 40  1  0
 18 41  1  0
 19 42  1  0
 20 43  1  0
 21 44  1  0
 22 45  1  0
M  END
>  <_SMILES>  (98) 
CCCCNc1nc(-c2ccccc2)n(Cc2ccccc2)n1

$$$$

     RDKit          3D

 45 47  0  0  0  0  0  0  0  0999 V2000
   -5.2479   -2.6212   -1.0415 C   0  0  0  0  0  0  0  0  0  0  0  0
   -4.8179   -1.4099   -0.2289 C   0  0  0  0  0  0  0  0  0  0  0  0
   -3.9261   -0.4360   -1.0053 C   0  0  0  0  0  0  0  0  0  0  0  0
   -2.5912   -1.0181   -1.4726 C   0  0  0  0  0  0  0  0  0  0  0  0
   -1.8088   -1.5062   -0.3372 N   0  0  0  0  0  0  0  0  0  0  0  0
   -1.0268   -0.6758    0.2517 C   0  0  0  0  0  0  0  0  0  0  0  0
   -0.8477    0.6343   -0.1491 N   0  0  0  0  0  0  0  0  0  0  0  0
    0.1569    1.0591    0.5913 C   0  0  0  0  0  0  0  0  0  0  0  0
    0.6796    2.4347    0.4557 C   0  0  0  0  0  0  0  0  0  0  0  0
    0.6607    3.0506   -0.7999 C   0  0  0  0  0  0  0  0  0  0  0  0
    1.1524    4.3482   -0.9457 C   0  0  0  0  0  0  0  0  0  0  0  0
    1.6503    5.0337    0.1627 C   0  0  0  0  0  0  0  0  0  0  0  0
    1.6492    4.4283    1.4200 C   0  0  0  0  0  0  0  0  0  0  0  0
    1.1592    3.1298    1.5701 C   0  0  0  0  0  0  0  0  0  0  0  0
    0.6316    0.1002    1.4874 N   0  0  0  0  0  0  0  0  0  0  0  0
    2.0427   -0.1108    1.8070 C   0  0  0  0  0  0  0  0  0  0  0  0
    2.7438   -0.9986    0.8011 C   0  0  0  0  0  0  0  0  0  0  0  0
    3.0844   -0.5118   -0.4696 C   0  0  0  0  0  0  0  0  0  0  0  0
    3.7156   -1.3392   -1.3994 C   0  0  0  0  0  0  0  0  0  0  0  0
    4.0146   -2.6595   -1.0702 C   0  0  0  0  0  0  0  0  0  0  0  0
    3.6839   -3.1551    0.1891 C   0  0  0  0  0  0  0  0  0  0  0  0
    3.0517   -2.3305    1.1210 C   0  0  0  0  0  0  0  0  0  0  0  0
   -0.2017   -1.0002    1.3108 N   0  0  0  0  0  0  0  0  0  0  0  0
   -4.3970   -3.2648   -1.2828 H   0  0  0  0  0  0  0  0  0  0  0  0
   -5.9642   -3.2209   -0.4706 H   0  0  0  0  0  0  0  0  0  0  0  0
   -5.7298   -2.3172   -1.9759 H   0  0  0  0  0  0  0  0  0  0  0  0
   -4.3116   -1.7441    0.6837 H   0  0  0  0  0  0  0  0  0  0  0  0
   -5.7169   -0.8706    0.0933 H   0  0  0  0  0  0  0  0  0  0  0  0
   -4.4744   -0.0693   -1.8816 H   0  0  0  0  0  0  0  0  0  0  0  0
   -3.7380    0.4370   -0.3683 H   0  0  0  0  0  0  0  0  0  0  0  0
   -2.7636   -1.8579   -2.1546 H   0  0  0  0  0  0  0  0  0  0  0  0
   -2.0460   -0.2756   -2.0682 H   0  0  0  0  0  0  0  0  0  0  0  0
    0.2633    2.5221   -1.6638 H   0  0  0  0  0  0  0  0  0  0  0  0
    1.1394    4.8266   -1.9219 H   0  0  0  0  0  0  0  0  0  0  0  0
    2.0269    6.0475    0.0484 H   0  0  0  0  0  0  0  0  0  0  0  0
    2.0188    4.9741    2.2847 H   0  0  0  0  0  0  0  0  0  0  0  0
    1.1312    2.6811    2.5591 H   0  0  0  0  0  0  0  0  0  0  0  0
    2.1055   -0.5642    2.8043 H   0  0  0  0  0  0  0  0  0  0  0  0
    2.5899    0.8343    1.8843 H   0  0  0  0  0  0  0  0  0  0  0  0
    2.8558    0.5143   -0.7492 H   0  0  0  0  0  0  0  0  0  0  0  0
    3.9698   -0.9542   -2.3839 H   0  0  0  0  0  0  0  0  0  0  0  0
    4.5034   -3.3032   -1.7972 H   0  0  0  0  0  0  0  0  0  0  0  0
    3.9170   -4.1861    0.4436 H   0  0  0  0  0  0  0  0  0  0  0  0
    2.8007   -2.7379    2.0983 H   0  0  0  0  0  0  0  0  0  0  0  0
    0.2112   -1.9168    1.1643 H   0  0  0  0  0  0  0  0  0  0  0  0
  1  2  1  0
  2  3  1  0
  3  4  1  0
  4  5  1  0
  5  6  2  0
  6  7  1  0
  7  8  2  0
  8  9  1  0
  9 10  2  0
 10 11  1  0
 11 12  2  0
 12 13  1  0
 13 14  2  0
  8 15  1  0
 15 16  1  0
 16 17  1  0
 17 18  2  0
 18 19  1  0
 19 20  2  0
 20 21  1  0
 21 22  2  0
 15 23  1  0
 23  6  1  0
 14  9  1  0
 22 17  1  0
  1 24  1  0
  1 25  1  0
  1 26  1  0
  2 27  1  0
  2 28  1  0
  3 29  1  0
  3 30  1  0
  4 31  1  0
  4 32  1  0
 10 33  1  0
 11 34  1  0
 12 35  1  0
 13 36  1  0
 14 37  1  0
 16 38  1  0
 16 39  1  0
 18 40  1  0
 19 41  1  0
 20 42  1  0
 21 43  1  0
 22 44  1  0
 23 45  1  0
M  END
>  <_SMILES>  (99) 
CCCC/N=c1\nc(-c2ccccc2)n(Cc2ccccc2)[nH]1

$$$$

     RDKit          3D

 45 47  0  0  0  0  0  0  0  0999 V2000
    5.6458   -0.5798    0.2015 C   0  0  0  0  0  0  0  0  0  0  0  0
    4.9260   -1.1509    1.4133 C   0  0  0  0  0  0  0  0  0  0  0  0
    3.8428   -2.1742    1.0572 C   0  0  0  0  0  0  0  0  0  0  0  0
    2.6943   -1.6236    0.2106 C   0  0  0  0  0  0  0  0  0  0  0  0
    2.0027   -0.5806    0.9597 N   0  0  0  0  0  0  0  0  0  0  0  0
    1.1176    0.0905    0.3237 C   0  0  0  0  0  0  0  0  0  0  0  0
    0.4424    1.0801    1.0103 N   0  0  0  0  0  0  0  0  0  0  0  0
   -0.4798    1.4929    0.1663 C   0  0  0  0  0  0  0  0  0  0  0  0
   -1.4312    2.5625    0.5347 C   0  0  0  0  0  0  0  0  0  0  0  0
   -1.8471    2.6762    1.8651 C   0  0  0  0  0  0  0  0  0  0  0  0
   -2.7458    3.6793    2.2299 C   0  0  0  0  0  0  0  0  0  0  0  0
   -3.2184    4.5749    1.2702 C   0  0  0  0  0  0  0  0  0  0  0  0
   -2.7866    4.4766   -0.0532 C   0  0  0  0  0  0  0  0  0  0  0  0
   -1.8881    3.4739   -0.4225 C   0  0  0  0  0  0  0  0  0  0  0  0
   -0.4401    0.8356   -1.0635 N   0  0  0  0  0  0  0  0  0  0  0  0
   -1.6249    0.4396   -1.8262 C   0  0  0  0  0  0  0  0  0  0  0  0
   -2.1145   -0.9481   -1.4672 C   0  0  0  0  0  0  0  0  0  0  0  0
   -2.0030   -2.0013   -2.3887 C   0  0  0  0  0  0  0  0  0  0  0  0
   -2.4371   -3.2847   -2.0535 C   0  0  0  0  0  0  0  0  0  0  0  0
   -2.9861   -3.5297   -0.7967 C   0  0  0  0  0  0  0  0  0  0  0  0
   -3.1042   -2.4924    0.1258 C   0  0  0  0  0  0  0  0  0  0  0  0
   -2.6733   -1.2075   -0.2068 C   0  0  0  0  0  0  0  0  0  0  0  0
    0.6444   -0.0400   -0.9736 N   0  0  0  0  0  0  0  0  0  0  0  0
    6.4747    0.0586    0.5240 H   0  0  0  0  0  0  0  0  0  0  0  0
    4.9769    0.0322   -0.4106 H   0  0  0  0  0  0  0  0  0  0  0  0
    6.0569   -1.3780   -0.4244 H   0  0  0  0  0  0  0  0  0  0  0  0
    5.6652   -1.6425    2.0573 H   0  0  0  0  0  0  0  0  0  0  0  0
    4.4965   -0.3316    2.0008 H   0  0  0  0  0  0  0  0  0  0  0  0
    4.3039   -3.0137    0.5227 H   0  0  0  0  0  0  0  0  0  0  0  0
    3.4352   -2.5818    1.9909 H   0  0  0  0  0  0  0  0  0  0  0  0
    3.0766   -1.2490   -0.7456 H   0  0  0  0  0  0  0  0  0  0  0  0
    2.0003   -2.4455   -0.0040 H   0  0  0  0  0  0  0  0  0  0  0  0
   -1.4695    1.9872    2.6181 H   0  0  0  0  0  0  0  0  0  0  0  0
   -3.0693    3.7670    3.2642 H   0  0  0  0  0  0  0  0  0  0  0  0
   -3.9131    5.3603    1.5582 H   0  0  0  0  0  0  0  0  0  0  0  0
   -3.1407    5.1903   -0.7929 H   0  0  0  0  0  0  0  0  0  0  0  0
   -1.5318    3.4284   -1.4477 H   0  0  0  0  0  0  0  0  0  0  0  0
   -1.3687    0.4764   -2.8922 H   0  0  0  0  0  0  0  0  0  0  0  0
   -2.4530    1.1438   -1.6978 H   0  0  0  0  0  0  0  0  0  0  0  0
   -1.5765   -1.8320   -3.3755 H   0  0  0  0  0  0  0  0  0  0  0  0
   -2.3478   -4.0955   -2.7725 H   0  0  0  0  0  0  0  0  0  0  0  0
   -3.3221   -4.5299   -0.5345 H   0  0  0  0  0  0  0  0  0  0  0  0
   -3.5290   -2.6844    1.1082 H   0  0  0  0  0  0  0  0  0  0  0  0
   -2.7686   -0.4134    0.5312 H   0  0  0  0  0  0  0  0  0  0  0  0
    0.4679   -1.0162   -1.1942 H   0  0  0  0  0  0  0  0  0  0  0  0
  1  2  1  0
  2  3  1  0
  3  4  1  0
  4  5  1  0
  5  6  2  0
  6  7  1  0
  7  8  2  0
  8  9  1  0
  9 10  2  0
 10 11  1  0
 11 12  2  0
 12 13  1  0
 13 14  2  0
  8 15  1  0
 15 16  1  0
 16 17  1  0
 17 18  2  0
 18 19  1  0
 19 20  2  0
 20 21  1  0
 21 22  2  0
 15 23  1  0
 23  6  1  0
 14  9  1  0
 22 17  1  0
  1 24  1  0
  1 25  1  0
  1 26  1  0
  2 27  1  0
  2 28  1  0
  3 29  1  0
  3 30  1  0
  4 31  1  0
  4 32  1  0
 10 33  1  0
 11 34  1  0
 12 35  1  0
 13 36  1  0
 14 37  1  0
 16 38  1  0
 16 39  1  0
 18 40  1  0
 19 41  1  0
 20 42  1  0
 21 43  1  0
 22 44  1  0
 23 45  1  0
M  END
>  <_SMILES>  (100) 
CCCC/N=c1/nc(-c2ccccc2)n(Cc2ccccc2)[nH]1

$$$$

     RDKit          3D

 62 66  0  0  0  0  0  0  0  0999 V2000
   -1.0913    5.5427    1.4510 C   0  0  0  0  0  0  0  0  0  0  0  0
   -1.5505    4.5104    0.4329 C   0  0  0  0  0  0  0  0  0  0  0  0
   -0.4409    4.1831   -0.5690 C   0  0  0  0  0  0  0  0  0  0  0  0
   -0.8904    3.2130   -1.6630 C   0  0  0  0  0  0  0  0  0  0  0  0
   -1.1794    1.8825   -1.1773 N   0  0  0  0  0  0  0  0  0  0  0  0
   -2.4578    1.5099   -0.9592 N   0  0  0  0  0  0  0  0  0  0  0  0
   -2.2971    0.2409   -0.5690 C   0  0  0  0  0  0  0  0  0  0  0  0
   -3.4427   -0.6420   -0.1870 C   0  0  0  0  0  0  0  0  0  0  0  0
   -3.4815   -0.8491    1.3406 C   0  0  0  0  0  0  0  0  0  0  0  0
   -4.2133   -2.1306    1.7180 C   0  0  0  0  0  0  0  0  0  0  0  0
   -3.5192   -3.3678    1.1468 C   0  0  0  0  0  0  0  0  0  0  0  0
   -2.7820   -3.1039   -0.1673 C   0  0  0  0  0  0  0  0  0  0  0  0
   -3.4269   -1.9747   -0.9653 C   0  0  0  0  0  0  0  0  0  0  0  0
   -0.9981   -0.1888   -0.5324 N   0  0  0  0  0  0  0  0  0  0  0  0
   -0.3017    0.8533   -0.9177 C   0  0  0  0  0  0  0  0  0  0  0  0
    1.0412    0.9738   -1.0579 N   0  0  0  0  0  0  0  0  0  0  0  0
    1.9680   -0.0691   -0.6023 C   0  0  2  0  0  0  0  0  0  0  0  0
    1.8696   -0.2972    0.9245 C   0  0  0  0  0  0  0  0  0  0  0  0
    2.9030   -1.3445    1.3768 C   0  0  1  0  0  0  0  0  0  0  0  0
    2.6491   -2.6645    0.6278 C   0  0  0  0  0  0  0  0  0  0  0  0
    2.7884   -2.4506   -0.8897 C   0  0  2  0  0  0  0  0  0  0  0  0
    4.2024   -1.9381   -1.2028 C   0  0  0  0  0  0  0  0  0  0  0  0
    4.4539   -0.6136   -0.4664 C   0  0  2  0  0  0  0  0  0  0  0  0
    4.3165   -0.8388    1.0475 C   0  0  0  0  0  0  0  0  0  0  0  0
    3.4104    0.4204   -0.9187 C   0  0  0  0  0  0  0  0  0  0  0  0
    1.7545   -1.4072   -1.3507 C   0  0  0  0  0  0  0  0  0  0  0  0
   -0.2299    5.1769    2.0190 H   0  0  0  0  0  0  0  0  0  0  0  0
   -1.8970    5.7613    2.1588 H   0  0  0  0  0  0  0  0  0  0  0  0
   -0.8073    6.4790    0.9601 H   0  0  0  0  0  0  0  0  0  0  0  0
   -2.4299    4.8945   -0.0968 H   0  0  0  0  0  0  0  0  0  0  0  0
   -1.8600    3.6048    0.9662 H   0  0  0  0  0  0  0  0  0  0  0  0
    0.4248    3.7754   -0.0333 H   0  0  0  0  0  0  0  0  0  0  0  0
   -0.1089    5.1116   -1.0498 H   0  0  0  0  0  0  0  0  0  0  0  0
   -0.1071    3.1173   -2.4236 H   0  0  0  0  0  0  0  0  0  0  0  0
   -1.7851    3.5898   -2.1727 H   0  0  0  0  0  0  0  0  0  0  0  0
   -4.3684   -0.1248   -0.4779 H   0  0  0  0  0  0  0  0  0  0  0  0
   -3.9702    0.0125    1.8122 H   0  0  0  0  0  0  0  0  0  0  0  0
   -2.4661   -0.8876    1.7576 H   0  0  0  0  0  0  0  0  0  0  0  0
   -4.2858   -2.2204    2.8078 H   0  0  0  0  0  0  0  0  0  0  0  0
   -5.2424   -2.0824    1.3402 H   0  0  0  0  0  0  0  0  0  0  0  0
   -4.2691   -4.1547    1.0007 H   0  0  0  0  0  0  0  0  0  0  0  0
   -2.8026   -3.7623    1.8775 H   0  0  0  0  0  0  0  0  0  0  0  0
   -2.7589   -4.0228   -0.7642 H   0  0  0  0  0  0  0  0  0  0  0  0
   -1.7369   -2.8488    0.0472 H   0  0  0  0  0  0  0  0  0  0  0  0
   -2.9214   -1.8640   -1.9325 H   0  0  0  0  0  0  0  0  0  0  0  0
   -4.4618   -2.2637   -1.1924 H   0  0  0  0  0  0  0  0  0  0  0  0
    1.4487    1.9016   -1.0868 H   0  0  0  0  0  0  0  0  0  0  0  0
    2.0330    0.6465    1.4613 H   0  0  0  0  0  0  0  0  0  0  0  0
    0.8685   -0.6426    1.2086 H   0  0  0  0  0  0  0  0  0  0  0  0
    2.8123   -1.5089    2.4564 H   0  0  0  0  0  0  0  0  0  0  0  0
    3.3624   -3.4272    0.9638 H   0  0  0  0  0  0  0  0  0  0  0  0
    1.6460   -3.0416    0.8626 H   0  0  0  0  0  0  0  0  0  0  0  0
    2.6150   -3.3972   -1.4137 H   0  0  0  0  0  0  0  0  0  0  0  0
    4.3184   -1.7943   -2.2841 H   0  0  0  0  0  0  0  0  0  0  0  0
    4.9475   -2.6837   -0.8990 H   0  0  0  0  0  0  0  0  0  0  0  0
    5.4611   -0.2483   -0.6960 H   0  0  0  0  0  0  0  0  0  0  0  0
    4.5149    0.0963    1.5855 H   0  0  0  0  0  0  0  0  0  0  0  0
    5.0636   -1.5664    1.3876 H   0  0  0  0  0  0  0  0  0  0  0  0
    3.6040    1.3790   -0.4186 H   0  0  0  0  0  0  0  0  0  0  0  0
    3.5177    0.6097   -1.9952 H   0  0  0  0  0  0  0  0  0  0  0  0
    0.7520   -1.8109   -1.1720 H   0  0  0  0  0  0  0  0  0  0  0  0
    1.8349   -1.2531   -2.4348 H   0  0  0  0  0  0  0  0  0  0  0  0
  1  2  1  0
  2  3  1  0
  3  4  1  0
  4  5  1  0
  5  6  1  0
  6  7  2  0
  7  8  1  0
  8  9  1  0
  9 10  1  0
 10 11  1  0
 11 12  1  0
 12 13  1  0
  7 14  1  0
 14 15  2  0
 15 16  1  0
 17 16  1  6
 17 18  1  0
 18 19  1  0
 19 20  1  0
 20 21  1  0
 21 22  1  0
 22 23  1  0
 23 24  1  0
 23 25  1  0
 21 26  1  0
 15  5  1  0
 25 17  1  0
 13  8  1  0
 26 17  1  0
 24 19  1  0
  1 27  1  0
  1 28  1  0
  1 29  1  0
  2 30  1  0
  2 31  1  0
  3 32  1  0
  3 33  1  0
  4 34  1  0
  4 35  1  0
  8 36  1  0
  9 37  1  0
  9 38  1  0
 10 39  1  0
 10 40  1  0
 11 41  1  0
 11 42  1  0
 12 43  1  0
 12 44  1  0
 13 45  1  0
 13 46  1  0
 16 47  1  0
 18 48  1  0
 18 49  1  0
 19 50  1  1
 20 51  1  0
 20 52  1  0
 21 53  1  6
 22 54  1  0
 22 55  1  0
 23 56  1  1
 24 57  1  0
 24 58  1  0
 25 59  1  0
 25 60  1  0
 26 61  1  0
 26 62  1  0
M  END
>  <_SMILES>  (101) 
CCCCn1nc(C2CCCCC2)nc1N[C@]12C[C@H]3C[C@H](C[C@H](C3)C1)C2

$$$$

     RDKit          3D

 62 66  0  0  0  0  0  0  0  0999 V2000
   -0.9174    4.5118   -3.1333 C   0  0  0  0  0  0  0  0  0  0  0  0
   -1.4352    3.8993   -1.8410 C   0  0  0  0  0  0  0  0  0  0  0  0
   -0.4096    4.0283   -0.7127 C   0  0  0  0  0  0  0  0  0  0  0  0
   -0.9267    3.5112    0.6315 C   0  0  0  0  0  0  0  0  0  0  0  0
   -1.1483    2.0806    0.6111 N   0  0  0  0  0  0  0  0  0  0  0  0
   -2.4424    1.5832    0.3917 N   0  0  0  0  0  0  0  0  0  0  0  0
   -2.2340    0.2846    0.3166 C   0  0  0  0  0  0  0  0  0  0  0  0
   -3.3247   -0.7212    0.0759 C   0  0  0  0  0  0  0  0  0  0  0  0
   -3.3288   -1.7842    1.1754 C   0  0  0  0  0  0  0  0  0  0  0  0
   -4.4773   -2.7786    0.9980 C   0  0  0  0  0  0  0  0  0  0  0  0
   -4.8249   -3.0559   -0.4658 C   0  0  0  0  0  0  0  0  0  0  0  0
   -3.6450   -2.7979   -1.3934 C   0  0  0  0  0  0  0  0  0  0  0  0
   -3.1824   -1.3409   -1.3236 C   0  0  0  0  0  0  0  0  0  0  0  0
   -0.9065   -0.0227    0.4651 N   0  0  0  0  0  0  0  0  0  0  0  0
   -0.1457    1.1054    0.6430 C   0  0  0  0  0  0  0  0  0  0  0  0
    1.1041    1.3001    0.7913 N   0  0  0  0  0  0  0  0  0  0  0  0
    2.1109    0.2426    0.8065 C   0  0  2  0  0  0  0  0  0  0  0  0
    2.1798   -0.5147   -0.5364 C   0  0  0  0  0  0  0  0  0  0  0  0
    3.3154   -1.5536   -0.5013 C   0  0  1  0  0  0  0  0  0  0  0  0
    4.6550   -0.8327   -0.2818 C   0  0  0  0  0  0  0  0  0  0  0  0
    4.6252   -0.0658    1.0496 C   0  0  2  0  0  0  0  0  0  0  0  0
    4.3874   -1.0562    2.2003 C   0  0  0  0  0  0  0  0  0  0  0  0
    3.0457   -1.7789    2.0007 C   0  0  2  0  0  0  0  0  0  0  0  0
    3.0702   -2.5343    0.6596 C   0  0  0  0  0  0  0  0  0  0  0  0
    1.9086   -0.7412    1.9779 C   0  0  0  0  0  0  0  0  0  0  0  0
    3.4754    0.9541    1.0175 C   0  0  0  0  0  0  0  0  0  0  0  0
   -1.6631    4.4070   -3.9276 H   0  0  0  0  0  0  0  0  0  0  0  0
   -0.7054    5.5780   -3.0052 H   0  0  0  0  0  0  0  0  0  0  0  0
    0.0013    4.0152   -3.4618 H   0  0  0  0  0  0  0  0  0  0  0  0
   -1.6697    2.8447   -2.0225 H   0  0  0  0  0  0  0  0  0  0  0  0
   -2.3687    4.3978   -1.5556 H   0  0  0  0  0  0  0  0  0  0  0  0
   -0.1427    5.0857   -0.5923 H   0  0  0  0  0  0  0  0  0  0  0  0
    0.5100    3.5006   -0.9928 H   0  0  0  0  0  0  0  0  0  0  0  0
   -1.8524    4.0331    0.9027 H   0  0  0  0  0  0  0  0  0  0  0  0
   -0.1967    3.7519    1.4135 H   0  0  0  0  0  0  0  0  0  0  0  0
   -4.2808   -0.1816    0.1199 H   0  0  0  0  0  0  0  0  0  0  0  0
   -3.3953   -1.3183    2.1663 H   0  0  0  0  0  0  0  0  0  0  0  0
   -2.3781   -2.3338    1.1658 H   0  0  0  0  0  0  0  0  0  0  0  0
   -5.3738   -2.4058    1.5083 H   0  0  0  0  0  0  0  0  0  0  0  0
   -4.2095   -3.7166    1.4995 H   0  0  0  0  0  0  0  0  0  0  0  0
   -5.6629   -2.4140   -0.7661 H   0  0  0  0  0  0  0  0  0  0  0  0
   -5.1727   -4.0898   -0.5717 H   0  0  0  0  0  0  0  0  0  0  0  0
   -2.8144   -3.4592   -1.1165 H   0  0  0  0  0  0  0  0  0  0  0  0
   -3.9136   -3.0479   -2.4260 H   0  0  0  0  0  0  0  0  0  0  0  0
   -2.1516   -1.2821   -1.6940 H   0  0  0  0  0  0  0  0  0  0  0  0
   -3.7791   -0.7419   -2.0242 H   0  0  0  0  0  0  0  0  0  0  0  0
   -0.5294   -0.9490    0.4093 H   0  0  0  0  0  0  0  0  0  0  0  0
    2.3408    0.1904   -1.3624 H   0  0  0  0  0  0  0  0  0  0  0  0
    1.2392   -1.0294   -0.7559 H   0  0  0  0  0  0  0  0  0  0  0  0
    3.3428   -2.1020   -1.4495 H   0  0  0  0  0  0  0  0  0  0  0  0
    5.4762   -1.5599   -0.2778 H   0  0  0  0  0  0  0  0  0  0  0  0
    4.8476   -0.1394   -1.1097 H   0  0  0  0  0  0  0  0  0  0  0  0
    5.5782    0.4537    1.1991 H   0  0  0  0  0  0  0  0  0  0  0  0
    5.2046   -1.7868    2.2416 H   0  0  0  0  0  0  0  0  0  0  0  0
    4.3874   -0.5238    3.1594 H   0  0  0  0  0  0  0  0  0  0  0  0
    2.8824   -2.4867    2.8212 H   0  0  0  0  0  0  0  0  0  0  0  0
    2.1203   -3.0620    0.5097 H   0  0  0  0  0  0  0  0  0  0  0  0
    3.8588   -3.2966    0.6760 H   0  0  0  0  0  0  0  0  0  0  0  0
    0.9530   -1.2691    1.8988 H   0  0  0  0  0  0  0  0  0  0  0  0
    1.8777   -0.1966    2.9306 H   0  0  0  0  0  0  0  0  0  0  0  0
    3.6490    1.6842    0.2155 H   0  0  0  0  0  0  0  0  0  0  0  0
    3.4617    1.5277    1.9540 H   0  0  0  0  0  0  0  0  0  0  0  0
  1  2  1  0
  2  3  1  0
  3  4  1  0
  4  5  1  0
  5  6  1  0
  6  7  2  0
  7  8  1  0
  8  9  1  0
  9 10  1  0
 10 11  1  0
 11 12  1  0
 12 13  1  0
  7 14  1  0
 14 15  1  0
 15 16  2  0
 17 16  1  6
 17 18  1  0
 18 19  1  0
 19 20  1  0
 20 21  1  0
 21 22  1  0
 22 23  1  0
 23 24  1  0
 23 25  1  0
 21 26  1  0
 15  5  1  0
 25 17  1  0
 13  8  1  0
 26 17  1  0
 24 19  1  0
  1 27  1  0
  1 28  1  0
  1 29  1  0
  2 30  1  0
  2 31  1  0
  3 32  1  0
  3 33  1  0
  4 34  1  0
  4 35  1  0
  8 36  1  0
  9 37  1  0
  9 38  1  0
 10 39  1  0
 10 40  1  0
 11 41  1  0
 11 42  1  0
 12 43  1  0
 12 44  1  0
 13 45  1  0
 13 46  1  0
 14 47  1  0
 18 48  1  0
 18 49  1  0
 19 50  1  6
 20 51  1  0
 20 52  1  0
 21 53  1  1
 22 54  1  0
 22 55  1  0
 23 56  1  1
 24 57  1  0
 24 58  1  0
 25 59  1  0
 25 60  1  0
 26 61  1  0
 26 62  1  0
M  END
>  <_SMILES>  (102) 
CCCCn1nc(C2CCCCC2)[nH]/c1=N\[C@]12C[C@H]3C[C@H](C[C@H](C3)C1)C2

$$$$

     RDKit          3D

 62 66  0  0  0  0  0  0  0  0999 V2000
   -1.9131    4.1305   -0.5193 C   0  0  0  0  0  0  0  0  0  0  0  0
   -0.7565    4.0470    0.4650 C   0  0  0  0  0  0  0  0  0  0  0  0
   -0.3733    2.6118    0.8322 C   0  0  0  0  0  0  0  0  0  0  0  0
    0.2087    1.8248   -0.3400 C   0  0  0  0  0  0  0  0  0  0  0  0
    0.6958    0.5134    0.1085 N   0  0  0  0  0  0  0  0  0  0  0  0
    2.1087    0.5554    0.3608 N   0  0  0  0  0  0  0  0  0  0  0  0
    2.5625   -0.5259   -0.2358 C   0  0  0  0  0  0  0  0  0  0  0  0
    4.0013   -0.9592   -0.2519 C   0  0  0  0  0  0  0  0  0  0  0  0
    4.8260   -0.0270   -1.1537 C   0  0  0  0  0  0  0  0  0  0  0  0
    6.2705    0.1552   -0.6822 C   0  0  0  0  0  0  0  0  0  0  0  0
    6.8143   -1.1132   -0.0385 C   0  0  0  0  0  0  0  0  0  0  0  0
    6.0033   -1.5263    1.1913 C   0  0  0  0  0  0  0  0  0  0  0  0
    4.5604   -1.0193    1.1702 C   0  0  0  0  0  0  0  0  0  0  0  0
    1.5596   -1.2060   -0.8570 N   0  0  0  0  0  0  0  0  0  0  0  0
    0.3281   -0.6682   -0.5769 C   0  0  0  0  0  0  0  0  0  0  0  0
   -0.7272   -1.3221   -0.8522 N   0  0  0  0  0  0  0  0  0  0  0  0
   -2.0857   -1.0938   -0.3768 C   0  0  2  0  0  0  0  0  0  0  0  0
   -2.8008    0.0708   -1.0777 C   0  0  0  0  0  0  0  0  0  0  0  0
   -4.2642    0.1677   -0.6057 C   0  0  1  0  0  0  0  0  0  0  0  0
   -5.0035   -1.1308   -0.9591 C   0  0  0  0  0  0  0  0  0  0  0  0
   -4.3225   -2.3211   -0.2683 C   0  0  2  0  0  0  0  0  0  0  0  0
   -4.3562   -2.1153    1.2542 C   0  0  0  0  0  0  0  0  0  0  0  0
   -3.6104   -0.8230    1.6238 C   0  0  2  0  0  0  0  0  0  0  0  0
   -4.2867    0.3676    0.9210 C   0  0  0  0  0  0  0  0  0  0  0  0
   -2.1474   -0.9325    1.1556 C   0  0  0  0  0  0  0  0  0  0  0  0
   -2.8603   -2.3980   -0.7337 C   0  0  0  0  0  0  0  0  0  0  0  0
   -2.1971    5.1760   -0.6768 H   0  0  0  0  0  0  0  0  0  0  0  0
   -1.6436    3.7105   -1.4926 H   0  0  0  0  0  0  0  0  0  0  0  0
   -2.7900    3.5952   -0.1417 H   0  0  0  0  0  0  0  0  0  0  0  0
   -1.0423    4.5756    1.3823 H   0  0  0  0  0  0  0  0  0  0  0  0
    0.1127    4.5732    0.0540 H   0  0  0  0  0  0  0  0  0  0  0  0
    0.3651    2.6493    1.6432 H   0  0  0  0  0  0  0  0  0  0  0  0
   -1.2499    2.0984    1.2389 H   0  0  0  0  0  0  0  0  0  0  0  0
    1.0419    2.3944   -0.7745 H   0  0  0  0  0  0  0  0  0  0  0  0
   -0.5034    1.7148   -1.1582 H   0  0  0  0  0  0  0  0  0  0  0  0
    4.0357   -1.9721   -0.6758 H   0  0  0  0  0  0  0  0  0  0  0  0
    4.3611    0.9621   -1.2507 H   0  0  0  0  0  0  0  0  0  0  0  0
    4.8306   -0.4487   -2.1675 H   0  0  0  0  0  0  0  0  0  0  0  0
    6.8988    0.4485   -1.5308 H   0  0  0  0  0  0  0  0  0  0  0  0
    6.3177    0.9782    0.0420 H   0  0  0  0  0  0  0  0  0  0  0  0
    6.7928   -1.9260   -0.7755 H   0  0  0  0  0  0  0  0  0  0  0  0
    7.8647   -0.9767    0.2426 H   0  0  0  0  0  0  0  0  0  0  0  0
    6.4923   -1.1544    2.0999 H   0  0  0  0  0  0  0  0  0  0  0  0
    6.0117   -2.6205    1.2670 H   0  0  0  0  0  0  0  0  0  0  0  0
    3.9366   -1.6590    1.8065 H   0  0  0  0  0  0  0  0  0  0  0  0
    4.5267   -0.0200    1.6247 H   0  0  0  0  0  0  0  0  0  0  0  0
    1.6250   -2.1473   -1.2028 H   0  0  0  0  0  0  0  0  0  0  0  0
   -2.7584   -0.0482   -2.1675 H   0  0  0  0  0  0  0  0  0  0  0  0
   -2.3238    1.0208   -0.8468 H   0  0  0  0  0  0  0  0  0  0  0  0
   -4.7537    1.0167   -1.0961 H   0  0  0  0  0  0  0  0  0  0  0  0
   -5.0050   -1.2776   -2.0461 H   0  0  0  0  0  0  0  0  0  0  0  0
   -6.0524   -1.0636   -0.6450 H   0  0  0  0  0  0  0  0  0  0  0  0
   -4.8446   -3.2486   -0.5282 H   0  0  0  0  0  0  0  0  0  0  0  0
   -3.8938   -2.9725    1.7588 H   0  0  0  0  0  0  0  0  0  0  0  0
   -5.3947   -2.0625    1.6031 H   0  0  0  0  0  0  0  0  0  0  0  0
   -3.6400   -0.6778    2.7095 H   0  0  0  0  0  0  0  0  0  0  0  0
   -5.3225    0.4664    1.2684 H   0  0  0  0  0  0  0  0  0  0  0  0
   -3.7728    1.2998    1.1852 H   0  0  0  0  0  0  0  0  0  0  0  0
   -1.6608   -1.7845    1.6485 H   0  0  0  0  0  0  0  0  0  0  0  0
   -1.5998   -0.0447    1.4805 H   0  0  0  0  0  0  0  0  0  0  0  0
   -2.3711   -3.2660   -0.2709 H   0  0  0  0  0  0  0  0  0  0  0  0
   -2.8251   -2.5719   -1.8178 H   0  0  0  0  0  0  0  0  0  0  0  0
  1  2  1  0
  2  3  1  0
  3  4  1  0
  4  5  1  0
  5  6  1  0
  6  7  2  0
  7  8  1  0
  8  9  1  0
  9 10  1  0
 10 11  1  0
 11 12  1  0
 12 13  1  0
  7 14  1  0
 14 15  1  0
 15 16  2  0
 17 16  1  6
 17 18  1  0
 18 19  1  0
 19 20  1  0
 20 21  1  0
 21 22  1  0
 22 23  1  0
 23 24  1  0
 23 25  1  0
 21 26  1  0
 15  5  1  0
 25 17  1  0
 13  8  1  0
 26 17  1  0
 24 19  1  0
  1 27  1  0
  1 28  1  0
  1 29  1  0
  2 30  1  0
  2 31  1  0
  3 32  1  0
  3 33  1  0
  4 34  1  0
  4 35  1  0
  8 36  1  0
  9 37  1  0
  9 38  1  0
 10 39  1  0
 10 40  1  0
 11 41  1  0
 11 42  1  0
 12 43  1  0
 12 44  1  0
 13 45  1  0
 13 46  1  0
 14 47  1  0
 18 48  1  0
 18 49  1  0
 19 50  1  6
 20 51  1  0
 20 52  1  0
 21 53  1  1
 22 54  1  0
 22 55  1  0
 23 56  1  1
 24 57  1  0
 24 58  1  0
 25 59  1  0
 25 60  1  0
 26 61  1  0
 26 62  1  0
M  END
>  <_SMILES>  (103) 
CCCCn1nc(C2CCCCC2)[nH]/c1=N/[C@]12C[C@H]3C[C@H](C[C@H](C3)C1)C2

$$$$

     RDKit          3D

 62 66  0  0  0  0  0  0  0  0999 V2000
    0.7593    5.4554   -0.9553 C   0  0  0  0  0  0  0  0  0  0  0  0
    0.9798    4.7278    0.3613 C   0  0  0  0  0  0  0  0  0  0  0  0
    1.0136    3.2125    0.1645 C   0  0  0  0  0  0  0  0  0  0  0  0
    1.2350    2.4860    1.4936 C   0  0  0  0  0  0  0  0  0  0  0  0
    1.2686    1.0416    1.3211 N   0  0  0  0  0  0  0  0  0  0  0  0
    2.3217    0.4455    0.6549 N   0  0  0  0  0  0  0  0  0  0  0  0
    1.7748   -0.7054    0.1056 C   0  0  0  0  0  0  0  0  0  0  0  0
    2.5923   -1.7658   -0.5938 C   0  0  0  0  0  0  0  0  0  0  0  0
    3.1813   -1.1997   -1.8935 C   0  0  0  0  0  0  0  0  0  0  0  0
    4.3643   -2.0315   -2.3714 C   0  0  0  0  0  0  0  0  0  0  0  0
    5.5050   -2.0463   -1.3534 C   0  0  0  0  0  0  0  0  0  0  0  0
    5.0476   -1.8079    0.0859 C   0  0  0  0  0  0  0  0  0  0  0  0
    3.6512   -2.3644    0.3469 C   0  0  0  0  0  0  0  0  0  0  0  0
    0.4746   -0.8100    0.2541 N   0  0  0  0  0  0  0  0  0  0  0  0
    0.1297    0.3190    0.9765 C   0  0  0  0  0  0  0  0  0  0  0  0
   -1.0753    0.6469    1.2570 N   0  0  0  0  0  0  0  0  0  0  0  0
   -2.2464   -0.1346    0.8566 C   0  0  2  0  0  0  0  0  0  0  0  0
   -3.4733    0.6388    1.4176 C   0  0  0  0  0  0  0  0  0  0  0  0
   -4.7854   -0.0786    1.0637 C   0  0  1  0  0  0  0  0  0  0  0  0
   -4.9079   -0.1771   -0.4647 C   0  0  0  0  0  0  0  0  0  0  0  0
   -3.7104   -0.9520   -1.0367 C   0  0  2  0  0  0  0  0  0  0  0  0
   -3.6797   -2.3637   -0.4235 C   0  0  0  0  0  0  0  0  0  0  0  0
   -3.5643   -2.2779    1.1093 C   0  0  2  0  0  0  0  0  0  0  0  0
   -4.7629   -1.4926    1.6644 C   0  0  0  0  0  0  0  0  0  0  0  0
   -2.2607   -1.5468    1.4802 C   0  0  0  0  0  0  0  0  0  0  0  0
   -2.4077   -0.2138   -0.6770 C   0  0  0  0  0  0  0  0  0  0  0  0
   -0.1920    5.1624   -1.4108 H   0  0  0  0  0  0  0  0  0  0  0  0
    1.5629    5.2345   -1.6650 H   0  0  0  0  0  0  0  0  0  0  0  0
    0.7385    6.5374   -0.7915 H   0  0  0  0  0  0  0  0  0  0  0  0
    1.9226    5.0668    0.8060 H   0  0  0  0  0  0  0  0  0  0  0  0
    0.1770    4.9948    1.0584 H   0  0  0  0  0  0  0  0  0  0  0  0
    1.8130    2.9520   -0.5402 H   0  0  0  0  0  0  0  0  0  0  0  0
    0.0726    2.8825   -0.2922 H   0  0  0  0  0  0  0  0  0  0  0  0
    2.1815    2.8122    1.9416 H   0  0  0  0  0  0  0  0  0  0  0  0
    0.4456    2.7525    2.2067 H   0  0  0  0  0  0  0  0  0  0  0  0
    3.1819    0.3171    1.1813 H   0  0  0  0  0  0  0  0  0  0  0  0
    1.8963   -2.5749   -0.8555 H   0  0  0  0  0  0  0  0  0  0  0  0
    3.5020   -0.1582   -1.7639 H   0  0  0  0  0  0  0  0  0  0  0  0
    2.4031   -1.1818   -2.6665 H   0  0  0  0  0  0  0  0  0  0  0  0
    4.0282   -3.0603   -2.5527 H   0  0  0  0  0  0  0  0  0  0  0  0
    4.7324   -1.6523   -3.3315 H   0  0  0  0  0  0  0  0  0  0  0  0
    6.0251   -3.0095   -1.4228 H   0  0  0  0  0  0  0  0  0  0  0  0
    6.2461   -1.2818   -1.6163 H   0  0  0  0  0  0  0  0  0  0  0  0
    5.0552   -0.7309    0.2923 H   0  0  0  0  0  0  0  0  0  0  0  0
    5.7681   -2.2588    0.7780 H   0  0  0  0  0  0  0  0  0  0  0  0
    3.6818   -3.4516    0.1955 H   0  0  0  0  0  0  0  0  0  0  0  0
    3.3812   -2.2095    1.3982 H   0  0  0  0  0  0  0  0  0  0  0  0
   -3.4901    1.6614    1.0170 H   0  0  0  0  0  0  0  0  0  0  0  0
   -3.3889    0.7405    2.5080 H   0  0  0  0  0  0  0  0  0  0  0  0
   -5.6357    0.4818    1.4678 H   0  0  0  0  0  0  0  0  0  0  0  0
   -4.9484    0.8275   -0.9034 H   0  0  0  0  0  0  0  0  0  0  0  0
   -5.8443   -0.6805   -0.7346 H   0  0  0  0  0  0  0  0  0  0  0  0
   -3.8043   -1.0239   -2.1261 H   0  0  0  0  0  0  0  0  0  0  0  0
   -4.5909   -2.9090   -0.6984 H   0  0  0  0  0  0  0  0  0  0  0  0
   -2.8340   -2.9309   -0.8315 H   0  0  0  0  0  0  0  0  0  0  0  0
   -3.5550   -3.2869    1.5365 H   0  0  0  0  0  0  0  0  0  0  0  0
   -5.6971   -2.0162    1.4270 H   0  0  0  0  0  0  0  0  0  0  0  0
   -4.6992   -1.4348    2.7579 H   0  0  0  0  0  0  0  0  0  0  0  0
   -2.1631   -1.4816    2.5717 H   0  0  0  0  0  0  0  0  0  0  0  0
   -1.4140   -2.1482    1.1334 H   0  0  0  0  0  0  0  0  0  0  0  0
   -2.4138    0.7944   -1.1113 H   0  0  0  0  0  0  0  0  0  0  0  0
   -1.5690   -0.7416   -1.1428 H   0  0  0  0  0  0  0  0  0  0  0  0
  1  2  1  0
  2  3  1  0
  3  4  1  0
  4  5  1  0
  5  6  1  0
  6  7  1  0
  7  8  1  0
  8  9  1  0
  9 10  1  0
 10 11  1  0
 11 12  1  0
 12 13  1  0
  7 14  2  0
 14 15  1  0
 15 16  2  0
 17 16  1  6
 17 18  1  0
 18 19  1  0
 19 20  1  0
 20 21  1  0
 21 22  1  0
 22 23  1  0
 23 24  1  0
 23 25  1  0
 21 26  1  0
 15  5  1  0
 25 17  1  0
 13  8  1  0
 26 17  1  0
 24 19  1  0
  1 27  1  0
  1 28  1  0
  1 29  1  0
  2 30  1  0
  2 31  1  0
  3 32  1  0
  3 33  1  0
  4 34  1  0
  4 35  1  0
  6 36  1  0
  8 37  1  0
  9 38  1  0
  9 39  1  0
 10 40  1  0
 10 41  1  0
 11 42  1  0
 11 43  1  0
 12 44  1  0
 12 45  1  0
 13 46  1  0
 13 47  1  0
 18 48  1  0
 18 49  1  0
 19 50  1  1
 20 51  1  0
 20 52  1  0
 21 53  1  6
 22 54  1  0
 22 55  1  0
 23 56  1  1
 24 57  1  0
 24 58  1  0
 25 59  1  0
 25 60  1  0
 26 61  1  0
 26 62  1  0
M  END
>  <_SMILES>  (104) 
CCCCn1[nH]c(C2CCCCC2)n/c1=N\[C@]12C[C@H]3C[C@H](C[C@H](C3)C1)C2

$$$$

     RDKit          3D

 62 66  0  0  0  0  0  0  0  0999 V2000
    0.8192    4.3522   -0.9882 C   0  0  0  0  0  0  0  0  0  0  0  0
    1.1057    3.1573   -0.0914 C   0  0  0  0  0  0  0  0  0  0  0  0
   -0.1820    2.5923    0.5116 C   0  0  0  0  0  0  0  0  0  0  0  0
    0.0564    1.4760    1.5337 C   0  0  0  0  0  0  0  0  0  0  0  0
    0.5394    0.2108    0.9677 N   0  0  0  0  0  0  0  0  0  0  0  0
    1.9333    0.1044    0.9487 N   0  0  0  0  0  0  0  0  0  0  0  0
    2.2493   -0.4048   -0.2946 C   0  0  0  0  0  0  0  0  0  0  0  0
    3.6562   -0.7428   -0.7270 C   0  0  0  0  0  0  0  0  0  0  0  0
    4.6182    0.4294   -0.4705 C   0  0  0  0  0  0  0  0  0  0  0  0
    5.4255    0.2508    0.8114 C   0  0  0  0  0  0  0  0  0  0  0  0
    6.2517   -1.0359    0.7997 C   0  0  0  0  0  0  0  0  0  0  0  0
    5.6203   -2.1645   -0.0157 C   0  0  0  0  0  0  0  0  0  0  0  0
    4.1021   -2.0539   -0.0638 C   0  0  0  0  0  0  0  0  0  0  0  0
    1.2133   -0.5987   -1.0678 N   0  0  0  0  0  0  0  0  0  0  0  0
    0.1119   -0.2858   -0.2738 C   0  0  0  0  0  0  0  0  0  0  0  0
   -0.9825   -0.5889   -0.8245 N   0  0  0  0  0  0  0  0  0  0  0  0
   -2.3629   -0.6836   -0.4070 C   0  0  2  0  0  0  0  0  0  0  0  0
   -3.2280   -0.0349   -1.5147 C   0  0  0  0  0  0  0  0  0  0  0  0
   -4.7256   -0.2361   -1.2237 C   0  0  1  0  0  0  0  0  0  0  0  0
   -5.0317   -1.7422   -1.1656 C   0  0  0  0  0  0  0  0  0  0  0  0
   -4.2000   -2.4068   -0.0558 C   0  0  2  0  0  0  0  0  0  0  0  0
   -4.5414   -1.7589    1.2944 C   0  0  0  0  0  0  0  0  0  0  0  0
   -4.2314   -0.2551    1.2443 C   0  0  2  0  0  0  0  0  0  0  0  0
   -5.0686    0.4000    0.1328 C   0  0  0  0  0  0  0  0  0  0  0  0
   -2.7351   -0.0488    0.9344 C   0  0  0  0  0  0  0  0  0  0  0  0
   -2.7067   -2.1945   -0.3498 C   0  0  0  0  0  0  0  0  0  0  0  0
    0.1585    4.0721   -1.8149 H   0  0  0  0  0  0  0  0  0  0  0  0
    1.7508    4.7383   -1.4136 H   0  0  0  0  0  0  0  0  0  0  0  0
    0.3424    5.1608   -0.4251 H   0  0  0  0  0  0  0  0  0  0  0  0
    1.7906    3.4640    0.7074 H   0  0  0  0  0  0  0  0  0  0  0  0
    1.6165    2.3943   -0.6858 H   0  0  0  0  0  0  0  0  0  0  0  0
   -0.7097    3.4056    1.0261 H   0  0  0  0  0  0  0  0  0  0  0  0
   -0.8460    2.2545   -0.2915 H   0  0  0  0  0  0  0  0  0  0  0  0
   -0.8536    1.2928    2.1069 H   0  0  0  0  0  0  0  0  0  0  0  0
    0.7723    1.8320    2.2877 H   0  0  0  0  0  0  0  0  0  0  0  0
    2.3601   -0.3757    1.7375 H   0  0  0  0  0  0  0  0  0  0  0  0
    3.6194   -0.9000   -1.8139 H   0  0  0  0  0  0  0  0  0  0  0  0
    5.3204    0.4996   -1.3117 H   0  0  0  0  0  0  0  0  0  0  0  0
    4.0811    1.3847   -0.4402 H   0  0  0  0  0  0  0  0  0  0  0  0
    6.0893    1.1100    0.9615 H   0  0  0  0  0  0  0  0  0  0  0  0
    4.7448    0.2347    1.6711 H   0  0  0  0  0  0  0  0  0  0  0  0
    6.4011   -1.3654    1.8351 H   0  0  0  0  0  0  0  0  0  0  0  0
    7.2520   -0.8310    0.3991 H   0  0  0  0  0  0  0  0  0  0  0  0
    5.9180   -3.1324    0.4035 H   0  0  0  0  0  0  0  0  0  0  0  0
    6.0140   -2.1356   -1.0397 H   0  0  0  0  0  0  0  0  0  0  0  0
    3.7031   -2.1394    0.9549 H   0  0  0  0  0  0  0  0  0  0  0  0
    3.6861   -2.9016   -0.6221 H   0  0  0  0  0  0  0  0  0  0  0  0
   -2.9819   -0.4680   -2.4935 H   0  0  0  0  0  0  0  0  0  0  0  0
   -3.0016    1.0370   -1.5890 H   0  0  0  0  0  0  0  0  0  0  0  0
   -5.3222    0.2325   -2.0142 H   0  0  0  0  0  0  0  0  0  0  0  0
   -4.8064   -2.2079   -2.1328 H   0  0  0  0  0  0  0  0  0  0  0  0
   -6.1009   -1.9001   -0.9776 H   0  0  0  0  0  0  0  0  0  0  0  0
   -4.4218   -3.4791   -0.0190 H   0  0  0  0  0  0  0  0  0  0  0  0
   -5.6013   -1.9162    1.5291 H   0  0  0  0  0  0  0  0  0  0  0  0
   -3.9633   -2.2345    2.0962 H   0  0  0  0  0  0  0  0  0  0  0  0
   -4.4748    0.2050    2.2086 H   0  0  0  0  0  0  0  0  0  0  0  0
   -4.8724    1.4787    0.1012 H   0  0  0  0  0  0  0  0  0  0  0  0
   -6.1375    0.2768    0.3460 H   0  0  0  0  0  0  0  0  0  0  0  0
   -2.1389   -0.4830    1.7451 H   0  0  0  0  0  0  0  0  0  0  0  0
   -2.5483    1.0281    0.9045 H   0  0  0  0  0  0  0  0  0  0  0  0
   -2.4467   -2.6800   -1.3001 H   0  0  0  0  0  0  0  0  0  0  0  0
   -2.1001   -2.6883    0.4211 H   0  0  0  0  0  0  0  0  0  0  0  0
  1  2  1  0
  2  3  1  0
  3  4  1  0
  4  5  1  0
  5  6  1  0
  6  7  1  0
  7  8  1  0
  8  9  1  0
  9 10  1  0
 10 11  1  0
 11 12  1  0
 12 13  1  0
  7 14  2  0
 14 15  1  0
 15 16  2  0
 17 16  1  6
 17 18  1  0
 18 19  1  0
 19 20  1  0
 20 21  1  0
 21 22  1  0
 22 23  1  0
 23 24  1  0
 23 25  1  0
 21 26  1  0
 15  5  1  0
 25 17  1  0
 13  8  1  0
 26 17  1  0
 24 19  1  0
  1 27  1  0
  1 28  1  0
  1 29  1  0
  2 30  1  0
  2 31  1  0
  3 32  1  0
  3 33  1  0
  4 34  1  0
  4 35  1  0
  6 36  1  0
  8 37  1  0
  9 38  1  0
  9 39  1  0
 10 40  1  0
 10 41  1  0
 11 42  1  0
 11 43  1  0
 12 44  1  0
 12 45  1  0
 13 46  1  0
 13 47  1  0
 18 48  1  0
 18 49  1  0
 19 50  1  6
 20 51  1  0
 20 52  1  0
 21 53  1  1
 22 54  1  0
 22 55  1  0
 23 56  1  1
 24 57  1  0
 24 58  1  0
 25 59  1  0
 25 60  1  0
 26 61  1  0
 26 62  1  0
M  END
>  <_SMILES>  (105) 
CCCCn1[nH]c(C2CCCCC2)n/c1=N/[C@]12C[C@H]3C[C@H](C[C@H](C3)C1)C2

$$$$

     RDKit          3D

 57 61  0  0  0  0  0  0  0  0999 V2000
    5.8681    1.8157    2.3168 C   0  0  0  0  0  0  0  0  0  0  0  0
    5.1282    2.4293    1.3845 C   0  0  0  0  0  0  0  0  0  0  0  0
    3.6656    2.1541    1.1540 C   0  0  0  0  0  0  0  0  0  0  0  0
    3.3809    1.4638   -0.1930 C   0  0  2  0  0  0  0  0  0  0  0  0
    3.6617    2.3705   -1.3972 C   0  0  0  0  0  0  0  0  0  0  0  0
    2.0084    0.9662   -0.2215 N   0  0  0  0  0  0  0  0  0  0  0  0
    0.9820    1.8384   -0.2792 N   0  0  0  0  0  0  0  0  0  0  0  0
   -0.0635    1.0268   -0.4108 C   0  0  0  0  0  0  0  0  0  0  0  0
   -1.3227    1.4669   -0.5363 N   0  0  0  0  0  0  0  0  0  0  0  0
   -2.5191    0.6565   -0.3362 C   0  0  2  0  0  0  0  0  0  0  0  0
   -2.6591   -0.4497   -1.4094 C   0  0  0  0  0  0  0  0  0  0  0  0
   -3.9678   -1.2347   -1.2048 C   0  0  1  0  0  0  0  0  0  0  0  0
   -3.9692   -1.8584    0.2019 C   0  0  0  0  0  0  0  0  0  0  0  0
   -3.8739   -0.7571    1.2724 C   0  0  2  0  0  0  0  0  0  0  0  0
   -5.0681    0.1986    1.1235 C   0  0  0  0  0  0  0  0  0  0  0  0
   -5.0623    0.8311   -0.2770 C   0  0  2  0  0  0  0  0  0  0  0  0
   -5.1616   -0.2767   -1.3364 C   0  0  0  0  0  0  0  0  0  0  0  0
   -3.7475    1.6018   -0.4761 C   0  0  0  0  0  0  0  0  0  0  0  0
   -2.5649    0.0293    1.0769 C   0  0  0  0  0  0  0  0  0  0  0  0
    0.2455   -0.2963   -0.4017 N   0  0  0  0  0  0  0  0  0  0  0  0
    1.5546   -0.3308   -0.2434 C   0  0  0  0  0  0  0  0  0  0  0  0
    2.3625   -1.5434   -0.1585 C   0  0  0  0  0  0  0  0  0  0  0  0
    2.2036   -2.5426   -1.1277 C   0  0  0  0  0  0  0  0  0  0  0  0
    2.9599   -3.7150   -1.0706 C   0  0  0  0  0  0  0  0  0  0  0  0
    3.8735   -3.9043   -0.0355 C   0  0  0  0  0  0  0  0  0  0  0  0
    4.0241   -2.9278    0.9477 C   0  0  0  0  0  0  0  0  0  0  0  0
    3.2672   -1.7549    0.8908 C   0  0  0  0  0  0  0  0  0  0  0  0
    6.9171    2.0670    2.4460 H   0  0  0  0  0  0  0  0  0  0  0  0
    5.4526    1.0595    2.9756 H   0  0  0  0  0  0  0  0  0  0  0  0
    5.5947    3.1922    0.7638 H   0  0  0  0  0  0  0  0  0  0  0  0
    3.1216    3.1055    1.2161 H   0  0  0  0  0  0  0  0  0  0  0  0
    3.2764    1.5343    1.9730 H   0  0  0  0  0  0  0  0  0  0  0  0
    4.0373    0.5928   -0.2941 H   0  0  0  0  0  0  0  0  0  0  0  0
    3.0960    3.3069   -1.3381 H   0  0  0  0  0  0  0  0  0  0  0  0
    3.3824    1.8722   -2.3324 H   0  0  0  0  0  0  0  0  0  0  0  0
    4.7246    2.6232   -1.4627 H   0  0  0  0  0  0  0  0  0  0  0  0
   -1.4270    2.4539   -0.3348 H   0  0  0  0  0  0  0  0  0  0  0  0
   -1.8227   -1.1556   -1.3693 H   0  0  0  0  0  0  0  0  0  0  0  0
   -2.6402   -0.0085   -2.4146 H   0  0  0  0  0  0  0  0  0  0  0  0
   -4.0448   -2.0253   -1.9596 H   0  0  0  0  0  0  0  0  0  0  0  0
   -3.1273   -2.5542    0.3042 H   0  0  0  0  0  0  0  0  0  0  0  0
   -4.8853   -2.4436    0.3495 H   0  0  0  0  0  0  0  0  0  0  0  0
   -3.8860   -1.2097    2.2702 H   0  0  0  0  0  0  0  0  0  0  0  0
   -5.0188    0.9824    1.8893 H   0  0  0  0  0  0  0  0  0  0  0  0
   -6.0065   -0.3458    1.2851 H   0  0  0  0  0  0  0  0  0  0  0  0
   -5.9119    1.5157   -0.3771 H   0  0  0  0  0  0  0  0  0  0  0  0
   -6.1014   -0.8293   -1.2147 H   0  0  0  0  0  0  0  0  0  0  0  0
   -5.1794    0.1646   -2.3405 H   0  0  0  0  0  0  0  0  0  0  0  0
   -3.6852    2.4158    0.2589 H   0  0  0  0  0  0  0  0  0  0  0  0
   -3.7450    2.0813   -1.4643 H   0  0  0  0  0  0  0  0  0  0  0  0
   -1.7183   -0.6490    1.2356 H   0  0  0  0  0  0  0  0  0  0  0  0
   -2.4803    0.8110    1.8433 H   0  0  0  0  0  0  0  0  0  0  0  0
    1.4819   -2.4087   -1.9319 H   0  0  0  0  0  0  0  0  0  0  0  0
    2.8290   -4.4816   -1.8300 H   0  0  0  0  0  0  0  0  0  0  0  0
    4.4586   -4.8194    0.0118 H   0  0  0  0  0  0  0  0  0  0  0  0
    4.7232   -3.0848    1.7652 H   0  0  0  0  0  0  0  0  0  0  0  0
    3.3790   -1.0201    1.6839 H   0  0  0  0  0  0  0  0  0  0  0  0
  1  2  2  0
  2  3  1  0
  3  4  1  0
  4  5  1  0
  4  6  1  0
  6  7  1  0
  7  8  2  0
  8  9  1  0
 10  9  1  6
 10 11  1  0
 11 12  1  0
 12 13  1  0
 13 14  1  0
 14 15  1  0
 15 16  1  0
 16 17  1  0
 16 18  1  0
 14 19  1  0
  8 20  1  0
 20 21  2  0
 21 22  1  0
 22 23  2  0
 23 24  1  0
 24 25  2  0
 25 26  1  0
 26 27  2  0
 21  6  1  0
 27 22  1  0
 18 10  1  0
 19 10  1  0
 17 12  1  0
  1 28  1  0
  1 29  1  0
  2 30  1  0
  3 31  1  0
  3 32  1  0
  4 33  1  6
  5 34  1  0
  5 35  1  0
  5 36  1  0
  9 37  1  0
 11 38  1  0
 11 39  1  0
 12 40  1  6
 13 41  1  0
 13 42  1  0
 14 43  1  1
 15 44  1  0
 15 45  1  0
 16 46  1  1
 17 47  1  0
 17 48  1  0
 18 49  1  0
 18 50  1  0
 19 51  1  0
 19 52  1  0
 23 53  1  0
 24 54  1  0
 25 55  1  0
 26 56  1  0
 27 57  1  0
M  END
>  <_SMILES>  (106) 
C=CC[C@H](C)n1nc(N[C@]23C[C@H]4C[C@H](C[C@H](C4)C2)C3)nc1-c1ccccc1

$$$$

     RDKit          3D

 57 61  0  0  0  0  0  0  0  0999 V2000
    6.4042   -2.7832   -0.0508 C   0  0  0  0  0  0  0  0  0  0  0  0
    5.7933   -1.7035   -0.5548 C   0  0  0  0  0  0  0  0  0  0  0  0
    4.3228   -1.6379   -0.8736 C   0  0  0  0  0  0  0  0  0  0  0  0
    3.5648   -0.5577   -0.0700 C   0  0  2  0  0  0  0  0  0  0  0  0
    3.5070   -0.8818    1.4272 C   0  0  0  0  0  0  0  0  0  0  0  0
    2.2053   -0.3876   -0.6305 N   0  0  0  0  0  0  0  0  0  0  0  0
    1.3369   -1.4706   -0.5189 N   0  0  0  0  0  0  0  0  0  0  0  0
    0.0833   -0.9445   -0.2867 C   0  0  0  0  0  0  0  0  0  0  0  0
   -0.9969   -1.6280   -0.3307 N   0  0  0  0  0  0  0  0  0  0  0  0
   -2.3245   -1.0491   -0.1084 C   0  0  2  0  0  0  0  0  0  0  0  0
   -2.4804   -0.4462    1.3049 C   0  0  0  0  0  0  0  0  0  0  0  0
   -3.9230    0.0497    1.5150 C   0  0  1  0  0  0  0  0  0  0  0  0
   -4.2600    1.0997    0.4409 C   0  0  0  0  0  0  0  0  0  0  0  0
   -4.1472    0.4815   -0.9644 C   0  0  2  0  0  0  0  0  0  0  0  0
   -5.1142   -0.7078   -1.0739 C   0  0  0  0  0  0  0  0  0  0  0  0
   -4.7686   -1.7627   -0.0116 C   0  0  2  0  0  0  0  0  0  0  0  0
   -4.8917   -1.1363    1.3859 C   0  0  0  0  0  0  0  0  0  0  0  0
   -3.3221   -2.2360   -0.2249 C   0  0  0  0  0  0  0  0  0  0  0  0
   -2.7058   -0.0122   -1.1874 C   0  0  0  0  0  0  0  0  0  0  0  0
    0.1457    0.4147   -0.0783 N   0  0  0  0  0  0  0  0  0  0  0  0
    1.4064    0.7203   -0.3091 C   0  0  0  0  0  0  0  0  0  0  0  0
    1.8773    2.1196   -0.2319 C   0  0  0  0  0  0  0  0  0  0  0  0
    2.8711    2.5864   -1.0978 C   0  0  0  0  0  0  0  0  0  0  0  0
    3.2954    3.9138   -1.0159 C   0  0  0  0  0  0  0  0  0  0  0  0
    2.7209    4.7743   -0.0795 C   0  0  0  0  0  0  0  0  0  0  0  0
    1.7149    4.3141    0.7708 C   0  0  0  0  0  0  0  0  0  0  0  0
    1.2873    2.9883    0.6917 C   0  0  0  0  0  0  0  0  0  0  0  0
    5.8623   -3.6978    0.1716 H   0  0  0  0  0  0  0  0  0  0  0  0
    7.4714   -2.7751    0.1510 H   0  0  0  0  0  0  0  0  0  0  0  0
    6.3857   -0.8154   -0.7673 H   0  0  0  0  0  0  0  0  0  0  0  0
    3.8550   -2.6187   -0.7184 H   0  0  0  0  0  0  0  0  0  0  0  0
    4.2267   -1.4222   -1.9458 H   0  0  0  0  0  0  0  0  0  0  0  0
    4.1167    0.3815   -0.1833 H   0  0  0  0  0  0  0  0  0  0  0  0
    3.0358   -1.8533    1.6117 H   0  0  0  0  0  0  0  0  0  0  0  0
    4.5105   -0.9080    1.8637 H   0  0  0  0  0  0  0  0  0  0  0  0
    2.9318   -0.1255    1.9720 H   0  0  0  0  0  0  0  0  0  0  0  0
    1.3204   -2.1624   -1.2612 H   0  0  0  0  0  0  0  0  0  0  0  0
   -2.2243   -1.1933    2.0673 H   0  0  0  0  0  0  0  0  0  0  0  0
   -1.7975    0.3954    1.4607 H   0  0  0  0  0  0  0  0  0  0  0  0
   -4.0176    0.4962    2.5112 H   0  0  0  0  0  0  0  0  0  0  0  0
   -5.2762    1.4815    0.5993 H   0  0  0  0  0  0  0  0  0  0  0  0
   -3.5808    1.9566    0.5288 H   0  0  0  0  0  0  0  0  0  0  0  0
   -4.4002    1.2331   -1.7205 H   0  0  0  0  0  0  0  0  0  0  0  0
   -6.1475   -0.3649   -0.9403 H   0  0  0  0  0  0  0  0  0  0  0  0
   -5.0524   -1.1501   -2.0758 H   0  0  0  0  0  0  0  0  0  0  0  0
   -5.4541   -2.6131   -0.0977 H   0  0  0  0  0  0  0  0  0  0  0  0
   -5.9217   -0.7999    1.5572 H   0  0  0  0  0  0  0  0  0  0  0  0
   -4.6699   -1.8869    2.1545 H   0  0  0  0  0  0  0  0  0  0  0  0
   -3.0734   -3.0116    0.5121 H   0  0  0  0  0  0  0  0  0  0  0  0
   -3.2293   -2.7117   -1.2106 H   0  0  0  0  0  0  0  0  0  0  0  0
   -2.6092   -0.4523   -2.1885 H   0  0  0  0  0  0  0  0  0  0  0  0
   -2.0350    0.8530   -1.1684 H   0  0  0  0  0  0  0  0  0  0  0  0
    3.3021    1.9334   -1.8513 H   0  0  0  0  0  0  0  0  0  0  0  0
    4.0657    4.2818   -1.6892 H   0  0  0  0  0  0  0  0  0  0  0  0
    3.0488    5.8094   -0.0199 H   0  0  0  0  0  0  0  0  0  0  0  0
    1.2584    4.9888    1.4908 H   0  0  0  0  0  0  0  0  0  0  0  0
    0.4959    2.6344    1.3490 H   0  0  0  0  0  0  0  0  0  0  0  0
  1  2  2  0
  2  3  1  0
  3  4  1  0
  4  5  1  0
  4  6  1  0
  6  7  1  0
  7  8  1  0
  8  9  2  0
 10  9  1  6
 10 11  1  0
 11 12  1  0
 12 13  1  0
 13 14  1  0
 14 15  1  0
 15 16  1  0
 16 17  1  0
 16 18  1  0
 14 19  1  0
  8 20  1  0
 20 21  2  0
 21 22  1  0
 22 23  2  0
 23 24  1  0
 24 25  2  0
 25 26  1  0
 26 27  2  0
 21  6  1  0
 27 22  1  0
 18 10  1  0
 19 10  1  0
 17 12  1  0
  1 28  1  0
  1 29  1  0
  2 30  1  0
  3 31  1  0
  3 32  1  0
  4 33  1  1
  5 34  1  0
  5 35  1  0
  5 36  1  0
  7 37  1  0
 11 38  1  0
 11 39  1  0
 12 40  1  1
 13 41  1  0
 13 42  1  0
 14 43  1  6
 15 44  1  0
 15 45  1  0
 16 46  1  1
 17 47  1  0
 17 48  1  0
 18 49  1  0
 18 50  1  0
 19 51  1  0
 19 52  1  0
 23 53  1  0
 24 54  1  0
 25 55  1  0
 26 56  1  0
 27 57  1  0
M  END
>  <_SMILES>  (107) 
C=CC[C@H](C)n1[nH]/c(=N/[C@]23C[C@H]4C[C@H](C[C@H](C4)C2)C3)nc1-c1ccccc1

$$$$

     RDKit          3D

 57 61  0  0  0  0  0  0  0  0999 V2000
   -3.4085    3.8021    1.3558 C   0  0  0  0  0  0  0  0  0  0  0  0
   -2.5970    2.7848    1.0401 C   0  0  0  0  0  0  0  0  0  0  0  0
   -2.0812    2.5134   -0.3516 C   0  0  0  0  0  0  0  0  0  0  0  0
   -2.4494    1.1126   -0.9202 C   0  0  2  0  0  0  0  0  0  0  0  0
   -3.9673    1.0110   -1.0652 C   0  0  0  0  0  0  0  0  0  0  0  0
   -1.8397    0.0250   -0.0914 N   0  0  0  0  0  0  0  0  0  0  0  0
   -0.4427    0.1708    0.0358 N   0  0  0  0  0  0  0  0  0  0  0  0
    0.1308   -1.0459   -0.2698 C   0  0  0  0  0  0  0  0  0  0  0  0
    1.3380   -1.4478   -0.2580 N   0  0  0  0  0  0  0  0  0  0  0  0
    2.4903   -0.6127    0.0675 C   0  0  2  0  0  0  0  0  0  0  0  0
    2.5655    0.6731   -0.7833 C   0  0  0  0  0  0  0  0  0  0  0  0
    3.8502    1.4553   -0.4528 C   0  0  1  0  0  0  0  0  0  0  0  0
    3.8572    1.8052    1.0463 C   0  0  0  0  0  0  0  0  0  0  0  0
    3.8221    0.5206    1.8936 C   0  0  2  0  0  0  0  0  0  0  0  0
    5.0470   -0.3432    1.5533 C   0  0  0  0  0  0  0  0  0  0  0  0
    5.0347   -0.7045    0.0597 C   0  0  2  0  0  0  0  0  0  0  0  0
    5.0742    0.5843   -0.7759 C   0  0  0  0  0  0  0  0  0  0  0  0
    3.7424   -1.4717   -0.2614 C   0  0  0  0  0  0  0  0  0  0  0  0
    2.5389   -0.2670    1.5703 C   0  0  0  0  0  0  0  0  0  0  0  0
   -0.8338   -1.9688   -0.6034 N   0  0  0  0  0  0  0  0  0  0  0  0
   -1.9742   -1.3308   -0.4524 C   0  0  0  0  0  0  0  0  0  0  0  0
   -3.2462   -2.0665   -0.5896 C   0  0  0  0  0  0  0  0  0  0  0  0
   -3.3932   -2.9992   -1.6202 C   0  0  0  0  0  0  0  0  0  0  0  0
   -4.5842   -3.7160   -1.7402 C   0  0  0  0  0  0  0  0  0  0  0  0
   -5.6165   -3.5124   -0.8230 C   0  0  0  0  0  0  0  0  0  0  0  0
   -5.4579   -2.6007    0.2220 C   0  0  0  0  0  0  0  0  0  0  0  0
   -4.2684   -1.8814    0.3460 C   0  0  0  0  0  0  0  0  0  0  0  0
   -3.7564    4.5120    0.6116 H   0  0  0  0  0  0  0  0  0  0  0  0
   -3.7433    3.9482    2.3788 H   0  0  0  0  0  0  0  0  0  0  0  0
   -2.2748    2.1064    1.8276 H   0  0  0  0  0  0  0  0  0  0  0  0
   -2.4542    3.2797   -1.0441 H   0  0  0  0  0  0  0  0  0  0  0  0
   -0.9916    2.6389   -0.3358 H   0  0  0  0  0  0  0  0  0  0  0  0
   -2.0160    1.0483   -1.9281 H   0  0  0  0  0  0  0  0  0  0  0  0
   -4.4678    0.9192   -0.0968 H   0  0  0  0  0  0  0  0  0  0  0  0
   -4.3686    1.9008   -1.5639 H   0  0  0  0  0  0  0  0  0  0  0  0
   -4.2523    0.1604   -1.6898 H   0  0  0  0  0  0  0  0  0  0  0  0
   -0.1256    0.5340    0.9271 H   0  0  0  0  0  0  0  0  0  0  0  0
    1.7072    1.3270   -0.5976 H   0  0  0  0  0  0  0  0  0  0  0  0
    2.5394    0.4250   -1.8522 H   0  0  0  0  0  0  0  0  0  0  0  0
    3.8848    2.3752   -1.0473 H   0  0  0  0  0  0  0  0  0  0  0  0
    2.9932    2.4366    1.2876 H   0  0  0  0  0  0  0  0  0  0  0  0
    4.7546    2.3875    1.2890 H   0  0  0  0  0  0  0  0  0  0  0  0
    3.8374    0.7792    2.9583 H   0  0  0  0  0  0  0  0  0  0  0  0
    5.0417   -1.2569    2.1603 H   0  0  0  0  0  0  0  0  0  0  0  0
    5.9684    0.1981    1.8008 H   0  0  0  0  0  0  0  0  0  0  0  0
    5.9047   -1.3266   -0.1780 H   0  0  0  0  0  0  0  0  0  0  0  0
    5.0875    0.3383   -1.8448 H   0  0  0  0  0  0  0  0  0  0  0  0
    5.9962    1.1399   -0.5654 H   0  0  0  0  0  0  0  0  0  0  0  0
    3.7349   -1.7593   -1.3214 H   0  0  0  0  0  0  0  0  0  0  0  0
    3.7175   -2.4101    0.3090 H   0  0  0  0  0  0  0  0  0  0  0  0
    2.4992   -1.1835    2.1732 H   0  0  0  0  0  0  0  0  0  0  0  0
    1.6732    0.3320    1.8691 H   0  0  0  0  0  0  0  0  0  0  0  0
   -2.5810   -3.1708   -2.3230 H   0  0  0  0  0  0  0  0  0  0  0  0
   -4.7022   -4.4404   -2.5421 H   0  0  0  0  0  0  0  0  0  0  0  0
   -6.5413   -4.0770   -0.9150 H   0  0  0  0  0  0  0  0  0  0  0  0
   -6.2570   -2.4595    0.9453 H   0  0  0  0  0  0  0  0  0  0  0  0
   -4.1388   -1.1918    1.1756 H   0  0  0  0  0  0  0  0  0  0  0  0
  1  2  2  0
  2  3  1  0
  3  4  1  0
  4  5  1  0
  4  6  1  0
  6  7  1  0
  7  8  1  0
  8  9  2  0
 10  9  1  1
 10 11  1  0
 11 12  1  0
 12 13  1  0
 13 14  1  0
 14 15  1  0
 15 16  1  0
 16 17  1  0
 16 18  1  0
 14 19  1  0
  8 20  1  0
 20 21  2  0
 21 22  1  0
 22 23  2  0
 23 24  1  0
 24 25  2  0
 25 26  1  0
 26 27  2  0
 21  6  1  0
 27 22  1  0
 18 10  1  0
 19 10  1  0
 17 12  1  0
  1 28  1  0
  1 29  1  0
  2 30  1  0
  3 31  1  0
  3 32  1  0
  4 33  1  6
  5 34  1  0
  5 35  1  0
  5 36  1  0
  7 37  1  0
 11 38  1  0
 11 39  1  0
 12 40  1  6
 13 41  1  0
 13 42  1  0
 14 43  1  1
 15 44  1  0
 15 45  1  0
 16 46  1  6
 17 47  1  0
 17 48  1  0
 18 49  1  0
 18 50  1  0
 19 51  1  0
 19 52  1  0
 23 53  1  0
 24 54  1  0
 25 55  1  0
 26 56  1  0
 27 57  1  0
M  END
>  <_SMILES>  (108) 
C=CC[C@H](C)n1[nH]/c(=N\[C@]23C[C@H]4C[C@H](C[C@H](C4)C2)C3)nc1-c1ccccc1

$$$$

     RDKit          3D

 34 36  0  0  0  0  0  0  0  0999 V2000
   -5.0509   -0.4677   -1.4946 C   0  0  0  0  0  0  0  0  0  0  0  0
   -4.1164   -1.4706   -1.7460 C   0  0  0  0  0  0  0  0  0  0  0  0
   -3.1170   -1.7465   -0.8110 C   0  0  0  0  0  0  0  0  0  0  0  0
   -3.0421   -1.0205    0.3877 C   0  0  0  0  0  0  0  0  0  0  0  0
   -1.9639   -1.3207    1.4013 C   0  0  0  0  0  0  0  0  0  0  0  0
   -0.9585   -0.2361    1.2807 C   0  0  0  0  0  0  0  0  0  0  0  0
   -0.0286    0.0140    0.2929 C   0  0  0  0  0  0  0  0  0  0  0  0
    0.6256    1.1279    0.7290 N   0  0  0  0  0  0  0  0  0  0  0  0
    1.6713    1.8738    0.0541 C   0  0  0  0  0  0  0  0  0  0  0  0
    2.9735    1.1126    0.0236 C   0  0  0  0  0  0  0  0  0  0  0  0
    3.6874    0.8757    1.2086 C   0  0  0  0  0  0  0  0  0  0  0  0
    4.8918    0.1716    1.1813 C   0  0  0  0  0  0  0  0  0  0  0  0
    5.3968   -0.3007   -0.0283 C   0  0  0  0  0  0  0  0  0  0  0  0
    4.6984   -0.0702   -1.2120 C   0  0  0  0  0  0  0  0  0  0  0  0
    3.4927    0.6331   -1.1882 C   0  0  0  0  0  0  0  0  0  0  0  0
    0.1428    1.5469    1.9129 N   0  0  0  0  0  0  0  0  0  0  0  0
   -0.8253    0.7123    2.2656 N   0  0  0  0  0  0  0  0  0  0  0  0
   -3.9904   -0.0133    0.6281 C   0  0  0  0  0  0  0  0  0  0  0  0
   -4.9878    0.2612   -0.3087 C   0  0  0  0  0  0  0  0  0  0  0  0
   -5.8284   -0.2532   -2.2229 H   0  0  0  0  0  0  0  0  0  0  0  0
   -4.1667   -2.0390   -2.6710 H   0  0  0  0  0  0  0  0  0  0  0  0
   -2.3964   -2.5328   -1.0239 H   0  0  0  0  0  0  0  0  0  0  0  0
   -2.3948   -1.3571    2.4083 H   0  0  0  0  0  0  0  0  0  0  0  0
   -1.5024   -2.2963    1.2117 H   0  0  0  0  0  0  0  0  0  0  0  0
    0.2053   -0.4802   -0.6378 H   0  0  0  0  0  0  0  0  0  0  0  0
    1.8059    2.8335    0.5665 H   0  0  0  0  0  0  0  0  0  0  0  0
    1.3068    2.0892   -0.9570 H   0  0  0  0  0  0  0  0  0  0  0  0
    3.3044    1.2341    2.1634 H   0  0  0  0  0  0  0  0  0  0  0  0
    5.4349   -0.0095    2.1055 H   0  0  0  0  0  0  0  0  0  0  0  0
    6.3350   -0.8491   -0.0478 H   0  0  0  0  0  0  0  0  0  0  0  0
    5.0945   -0.4390   -2.1548 H   0  0  0  0  0  0  0  0  0  0  0  0
    2.9645    0.8021   -2.1241 H   0  0  0  0  0  0  0  0  0  0  0  0
   -3.9482    0.5686    1.5475 H   0  0  0  0  0  0  0  0  0  0  0  0
   -5.7138    1.0457   -0.1122 H   0  0  0  0  0  0  0  0  0  0  0  0
  1  2  2  0
  2  3  1  0
  3  4  2  0
  4  5  1  0
  5  6  1  0
  6  7  2  0
  7  8  1  0
  8  9  1  0
  9 10  1  0
 10 11  2  0
 11 12  1  0
 12 13  2  0
 13 14  1  0
 14 15  2  0
  8 16  1  0
 16 17  2  0
  4 18  1  0
 18 19  2  0
 19  1  1  0
 17  6  1  0
 15 10  1  0
  1 20  1  0
  2 21  1  0
  3 22  1  0
  5 23  1  0
  5 24  1  0
  7 25  1  0
  9 26  1  0
  9 27  1  0
 11 28  1  0
 12 29  1  0
 13 30  1  0
 14 31  1  0
 15 32  1  0
 18 33  1  0
 19 34  1  0
M  END
>  <_SMILES>  (109) 
c1ccc(Cc2cn(Cc3ccccc3)nn2)cc1

$$$$

     RDKit          3D

 40 43  0  0  0  0  0  0  0  0999 V2000
    7.2876   -2.2419   -0.0310 F   0  0  0  0  0  0  0  0  0  0  0  0
    6.1682   -1.5077   -0.0502 C   0  0  0  0  0  0  0  0  0  0  0  0
    4.9932   -2.0640   -0.5327 C   0  0  0  0  0  0  0  0  0  0  0  0
    3.8269   -1.2977   -0.5539 C   0  0  0  0  0  0  0  0  0  0  0  0
    2.7389   -1.8689   -1.0878 F   0  0  0  0  0  0  0  0  0  0  0  0
    3.8091    0.0288   -0.0997 C   0  0  0  0  0  0  0  0  0  0  0  0
    2.6698    0.8553   -0.0344 N   0  0  0  0  0  0  0  0  0  0  0  0
    1.3556    0.5865   -0.0369 C   0  0  0  0  0  0  0  0  0  0  0  0
    0.5240    1.6633   -0.0297 N   0  0  0  0  0  0  0  0  0  0  0  0
   -0.6894    1.1412    0.0374 C   0  0  0  0  0  0  0  0  0  0  0  0
   -1.8946    1.9250    0.3097 C   0  0  0  0  0  0  0  0  0  0  0  0
   -2.7997    1.5545    1.3155 C   0  0  0  0  0  0  0  0  0  0  0  0
   -3.9294    2.3348    1.5745 C   0  0  0  0  0  0  0  0  0  0  0  0
   -4.1570    3.4989    0.8427 C   0  0  0  0  0  0  0  0  0  0  0  0
   -3.2522    3.8901   -0.1422 C   0  0  0  0  0  0  0  0  0  0  0  0
   -2.1227    3.1111   -0.4019 C   0  0  0  0  0  0  0  0  0  0  0  0
   -0.5756   -0.2417   -0.0835 N   0  0  0  0  0  0  0  0  0  0  0  0
   -1.5409   -1.2593   -0.2927 C   0  0  0  0  0  0  0  0  0  0  0  0
   -1.2311   -2.5801    0.0775 C   0  0  0  0  0  0  0  0  0  0  0  0
   -2.1646   -3.6042   -0.1057 C   0  0  0  0  0  0  0  0  0  0  0  0
   -3.4042   -3.3257   -0.6773 C   0  0  0  0  0  0  0  0  0  0  0  0
   -3.7018   -2.0261   -1.0827 C   0  0  0  0  0  0  0  0  0  0  0  0
   -2.7698   -1.0043   -0.8996 C   0  0  0  0  0  0  0  0  0  0  0  0
   -3.0698    0.1966   -1.4080 F   0  0  0  0  0  0  0  0  0  0  0  0
    0.7315   -0.5823    0.0455 N   0  0  0  0  0  0  0  0  0  0  0  0
    5.0281    0.5477    0.3748 C   0  0  0  0  0  0  0  0  0  0  0  0
    5.0680    1.8143    0.8203 F   0  0  0  0  0  0  0  0  0  0  0  0
    6.2011   -0.2001    0.4041 C   0  0  0  0  0  0  0  0  0  0  0  0
    4.9785   -3.0840   -0.9004 H   0  0  0  0  0  0  0  0  0  0  0  0
    2.8979    1.8351    0.1000 H   0  0  0  0  0  0  0  0  0  0  0  0
   -2.6316    0.6634    1.9157 H   0  0  0  0  0  0  0  0  0  0  0  0
   -4.6280    2.0378    2.3526 H   0  0  0  0  0  0  0  0  0  0  0  0
   -5.0349    4.1067    1.0460 H   0  0  0  0  0  0  0  0  0  0  0  0
   -3.4216    4.8035   -0.7064 H   0  0  0  0  0  0  0  0  0  0  0  0
   -1.4171    3.4313   -1.1661 H   0  0  0  0  0  0  0  0  0  0  0  0
   -0.2675   -2.8250    0.5237 H   0  0  0  0  0  0  0  0  0  0  0  0
   -1.9185   -4.6204    0.1944 H   0  0  0  0  0  0  0  0  0  0  0  0
   -4.1282   -4.1231   -0.8260 H   0  0  0  0  0  0  0  0  0  0  0  0
   -4.6496   -1.8024   -1.5638 H   0  0  0  0  0  0  0  0  0  0  0  0
    7.1214    0.2329    0.7779 H   0  0  0  0  0  0  0  0  0  0  0  0
  1  2  1  0
  2  3  2  0
  3  4  1  0
  4  5  1  0
  4  6  2  0
  6  7  1  0
  7  8  1  0
  8  9  1  0
  9 10  2  0
 10 11  1  0
 11 12  2  0
 12 13  1  0
 13 14  2  0
 14 15  1  0
 15 16  2  0
 10 17  1  0
 17 18  1  0
 18 19  2  0
 19 20  1  0
 20 21  2  0
 21 22  1  0
 22 23  2  0
 23 24  1  0
 17 25  1  0
  6 26  1  0
 26 27  1  0
 26 28  2  0
 28  2  1  0
 25  8  2  0
 16 11  1  0
 23 18  1  0
  3 29  1  0
  7 30  1  0
 12 31  1  0
 13 32  1  0
 14 33  1  0
 15 34  1  0
 16 35  1  0
 19 36  1  0
 20 37  1  0
 21 38  1  0
 22 39  1  0
 28 40  1  0
M  END
>  <_SMILES>  (110) 
Fc1cc(F)c(Nc2nc(-c3ccccc3)n(-c3ccccc3F)n2)c(F)c1

$$$$

     RDKit          3D

 40 43  0  0  0  0  0  0  0  0999 V2000
    6.7756    0.7606    1.3024 F   0  0  0  0  0  0  0  0  0  0  0  0
    5.7207    0.1767    0.7197 C   0  0  0  0  0  0  0  0  0  0  0  0
    4.9342   -0.6998    1.4551 C   0  0  0  0  0  0  0  0  0  0  0  0
    3.8402   -1.3026    0.8407 C   0  0  0  0  0  0  0  0  0  0  0  0
    3.0903   -2.1518    1.5612 F   0  0  0  0  0  0  0  0  0  0  0  0
    3.5142   -1.0394   -0.4961 C   0  0  0  0  0  0  0  0  0  0  0  0
    2.4100   -1.6615   -1.1101 N   0  0  0  0  0  0  0  0  0  0  0  0
    1.2733   -1.0500   -1.0348 C   0  0  0  0  0  0  0  0  0  0  0  0
    1.0876    0.1397   -0.3517 N   0  0  0  0  0  0  0  0  0  0  0  0
   -0.2255    0.2949   -0.3468 C   0  0  0  0  0  0  0  0  0  0  0  0
   -0.8398    1.5084    0.2409 C   0  0  0  0  0  0  0  0  0  0  0  0
   -2.0106    2.0541   -0.2972 C   0  0  0  0  0  0  0  0  0  0  0  0
   -2.5612    3.2087    0.2629 C   0  0  0  0  0  0  0  0  0  0  0  0
   -1.9391    3.8238    1.3497 C   0  0  0  0  0  0  0  0  0  0  0  0
   -0.7617    3.2920    1.8755 C   0  0  0  0  0  0  0  0  0  0  0  0
   -0.2076    2.1384    1.3188 C   0  0  0  0  0  0  0  0  0  0  0  0
   -0.8974   -0.7358   -1.0087 N   0  0  0  0  0  0  0  0  0  0  0  0
   -2.1892   -1.2543   -0.7465 C   0  0  0  0  0  0  0  0  0  0  0  0
   -2.8749   -1.9276   -1.7746 C   0  0  0  0  0  0  0  0  0  0  0  0
   -4.1525   -2.4575   -1.5677 C   0  0  0  0  0  0  0  0  0  0  0  0
   -4.7655   -2.3350   -0.3231 C   0  0  0  0  0  0  0  0  0  0  0  0
   -4.0969   -1.6908    0.7145 C   0  0  0  0  0  0  0  0  0  0  0  0
   -2.8231   -1.1640    0.5009 C   0  0  0  0  0  0  0  0  0  0  0  0
   -2.1950   -0.6124    1.5489 F   0  0  0  0  0  0  0  0  0  0  0  0
    0.0894   -1.5383   -1.5484 N   0  0  0  0  0  0  0  0  0  0  0  0
    4.3376   -0.1579   -1.2081 C   0  0  0  0  0  0  0  0  0  0  0  0
    4.0778    0.1146   -2.4966 F   0  0  0  0  0  0  0  0  0  0  0  0
    5.4357    0.4545   -0.6104 C   0  0  0  0  0  0  0  0  0  0  0  0
    5.1667   -0.9133    2.4916 H   0  0  0  0  0  0  0  0  0  0  0  0
   -2.4937    1.6030   -1.1590 H   0  0  0  0  0  0  0  0  0  0  0  0
   -3.4715    3.6335   -0.1526 H   0  0  0  0  0  0  0  0  0  0  0  0
   -2.3682    4.7238    1.7833 H   0  0  0  0  0  0  0  0  0  0  0  0
   -0.2730    3.7763    2.7171 H   0  0  0  0  0  0  0  0  0  0  0  0
    0.7126    1.7298    1.7301 H   0  0  0  0  0  0  0  0  0  0  0  0
   -2.4178   -2.0229   -2.7583 H   0  0  0  0  0  0  0  0  0  0  0  0
   -4.6681   -2.9639   -2.3808 H   0  0  0  0  0  0  0  0  0  0  0  0
   -5.7579   -2.7482   -0.1593 H   0  0  0  0  0  0  0  0  0  0  0  0
   -4.5517   -1.6037    1.6968 H   0  0  0  0  0  0  0  0  0  0  0  0
    0.0191   -2.5393   -1.4016 H   0  0  0  0  0  0  0  0  0  0  0  0
    6.0571    1.1373   -1.1777 H   0  0  0  0  0  0  0  0  0  0  0  0
  1  2  1  0
  2  3  2  0
  3  4  1  0
  4  5  1  0
  4  6  2  0
  6  7  1  0
  7  8  2  0
  8  9  1  0
  9 10  2  0
 10 11  1  0
 11 12  2  0
 12 13  1  0
 13 14  2  0
 14 15  1  0
 15 16  2  0
 10 17  1  0
 17 18  1  0
 18 19  2  0
 19 20  1  0
 20 21  2  0
 21 22  1  0
 22 23  2  0
 23 24  1  0
 17 25  1  0
  6 26  1  0
 26 27  1  0
 26 28  2  0
 28  2  1  0
 25  8  1  0
 16 11  1  0
 23 18  1  0
  3 29  1  0
 12 30  1  0
 13 31  1  0
 14 32  1  0
 15 33  1  0
 16 34  1  0
 19 35  1  0
 20 36  1  0
 21 37  1  0
 22 38  1  0
 25 39  1  0
 28 40  1  0
M  END
>  <_SMILES>  (111) 
Fc1cc(F)c(/N=c2\nc(-c3ccccc3)n(-c3ccccc3F)[nH]2)c(F)c1

$$$$

     RDKit          3D

 40 43  0  0  0  0  0  0  0  0999 V2000
    6.7622    2.7722   -0.1712 F   0  0  0  0  0  0  0  0  0  0  0  0
    5.7758    1.8779   -0.3113 C   0  0  0  0  0  0  0  0  0  0  0  0
    4.8673    1.6975    0.7219 C   0  0  0  0  0  0  0  0  0  0  0  0
    3.8449    0.7654    0.5659 C   0  0  0  0  0  0  0  0  0  0  0  0
    2.9573    0.6231    1.5639 F   0  0  0  0  0  0  0  0  0  0  0  0
    3.7015    0.0121   -0.6085 C   0  0  0  0  0  0  0  0  0  0  0  0
    2.7089   -0.9718   -0.7731 N   0  0  0  0  0  0  0  0  0  0  0  0
    1.4630   -0.6577   -0.6931 C   0  0  0  0  0  0  0  0  0  0  0  0
    0.5389   -1.6662   -0.8955 N   0  0  0  0  0  0  0  0  0  0  0  0
   -0.6225   -1.0978   -0.6330 C   0  0  0  0  0  0  0  0  0  0  0  0
   -1.8868   -1.8462   -0.8243 C   0  0  0  0  0  0  0  0  0  0  0  0
   -3.0544   -1.1900   -1.2301 C   0  0  0  0  0  0  0  0  0  0  0  0
   -4.2333   -1.9161   -1.4091 C   0  0  0  0  0  0  0  0  0  0  0  0
   -4.2441   -3.2950   -1.1965 C   0  0  0  0  0  0  0  0  0  0  0  0
   -3.0758   -3.9538   -0.8134 C   0  0  0  0  0  0  0  0  0  0  0  0
   -1.8951   -3.2322   -0.6328 C   0  0  0  0  0  0  0  0  0  0  0  0
   -0.5033    0.2380   -0.2427 N   0  0  0  0  0  0  0  0  0  0  0  0
   -1.3019    0.9436    0.6982 C   0  0  0  0  0  0  0  0  0  0  0  0
   -2.1528    0.2979    1.6096 C   0  0  0  0  0  0  0  0  0  0  0  0
   -2.9213    1.0266    2.5263 C   0  0  0  0  0  0  0  0  0  0  0  0
   -2.8474    2.4169    2.5582 C   0  0  0  0  0  0  0  0  0  0  0  0
   -1.9977    3.0798    1.6791 C   0  0  0  0  0  0  0  0  0  0  0  0
   -1.2359    2.3473    0.7694 C   0  0  0  0  0  0  0  0  0  0  0  0
   -0.4234    3.0259   -0.0562 F   0  0  0  0  0  0  0  0  0  0  0  0
    0.8406    0.5416   -0.3922 N   0  0  0  0  0  0  0  0  0  0  0  0
    4.6457    0.2209   -1.6231 C   0  0  0  0  0  0  0  0  0  0  0  0
    4.5708   -0.4765   -2.7671 F   0  0  0  0  0  0  0  0  0  0  0  0
    5.6763    1.1482   -1.4869 C   0  0  0  0  0  0  0  0  0  0  0  0
    4.9531    2.2732    1.6363 H   0  0  0  0  0  0  0  0  0  0  0  0
   -3.0556   -0.1210   -1.4251 H   0  0  0  0  0  0  0  0  0  0  0  0
   -5.1415   -1.4086   -1.7251 H   0  0  0  0  0  0  0  0  0  0  0  0
   -5.1617   -3.8600   -1.3428 H   0  0  0  0  0  0  0  0  0  0  0  0
   -3.0810   -5.0306   -0.6635 H   0  0  0  0  0  0  0  0  0  0  0  0
   -0.9833   -3.7526   -0.3460 H   0  0  0  0  0  0  0  0  0  0  0  0
   -2.2176   -0.7867    1.6467 H   0  0  0  0  0  0  0  0  0  0  0  0
   -3.5731    0.5015    3.2218 H   0  0  0  0  0  0  0  0  0  0  0  0
   -3.4442    2.9800    3.2716 H   0  0  0  0  0  0  0  0  0  0  0  0
   -1.9199    4.1626    1.6929 H   0  0  0  0  0  0  0  0  0  0  0  0
    1.2763    1.0187    0.3901 H   0  0  0  0  0  0  0  0  0  0  0  0
    6.3909    1.2920   -2.2892 H   0  0  0  0  0  0  0  0  0  0  0  0
  1  2  1  0
  2  3  2  0
  3  4  1  0
  4  5  1  0
  4  6  2  0
  6  7  1  0
  7  8  2  0
  8  9  1  0
  9 10  2  0
 10 11  1  0
 11 12  2  0
 12 13  1  0
 13 14  2  0
 14 15  1  0
 15 16  2  0
 10 17  1  0
 17 18  1  0
 18 19  2  0
 19 20  1  0
 20 21  2  0
 21 22  1  0
 22 23  2  0
 23 24  1  0
 17 25  1  0
  6 26  1  0
 26 27  1  0
 26 28  2  0
 28  2  1  0
 25  8  1  0
 16 11  1  0
 23 18  1  0
  3 29  1  0
 12 30  1  0
 13 31  1  0
 14 32  1  0
 15 33  1  0
 16 34  1  0
 19 35  1  0
 20 36  1  0
 21 37  1  0
 22 38  1  0
 25 39  1  0
 28 40  1  0
M  END
>  <_SMILES>  (112) 
Fc1cc(F)c(/N=c2/nc(-c3ccccc3)n(-c3ccccc3F)[nH]2)c(F)c1

$$$$

     RDKit          3D

 60 65  0  0  0  0  0  0  0  0999 V2000
   -5.3237   -3.8695   -2.0252 F   0  0  0  0  0  0  0  0  0  0  0  0
   -5.4829   -4.1830   -0.7082 C   0  0  0  0  0  0  0  0  0  0  0  0
   -5.0820   -5.4757   -0.5779 F   0  0  0  0  0  0  0  0  0  0  0  0
   -6.8266   -4.1779   -0.4878 F   0  0  0  0  0  0  0  0  0  0  0  0
   -4.7248   -3.2458    0.1994 C   0  0  0  0  0  0  0  0  0  0  0  0
   -5.2712   -2.8275    1.4216 C   0  0  0  0  0  0  0  0  0  0  0  0
   -4.5496   -1.9858    2.2681 C   0  0  0  0  0  0  0  0  0  0  0  0
   -3.2761   -1.5511    1.9004 C   0  0  0  0  0  0  0  0  0  0  0  0
   -2.7162   -1.9451    0.6803 C   0  0  0  0  0  0  0  0  0  0  0  0
   -1.3898   -1.4695    0.3111 C   0  0  0  0  0  0  0  0  0  0  0  0
   -0.2724   -1.6969    0.9724 N   0  0  0  0  0  0  0  0  0  0  0  0
    0.6812   -1.0289    0.2635 C   0  0  0  0  0  0  0  0  0  0  0  0
    1.9325   -1.0995    0.7361 N   0  0  0  0  0  0  0  0  0  0  0  0
    2.9934   -0.1497    0.4168 C   0  0  2  0  0  0  0  0  0  0  0  0
    2.6065    1.2973    0.8048 C   0  0  0  0  0  0  0  0  0  0  0  0
    3.7744    2.2590    0.5205 C   0  0  1  0  0  0  0  0  0  0  0  0
    4.9944    1.8372    1.3546 C   0  0  0  0  0  0  0  0  0  0  0  0
    5.4153    0.4066    0.9831 C   0  0  2  0  0  0  0  0  0  0  0  0
    5.7749    0.3530   -0.5094 C   0  0  0  0  0  0  0  0  0  0  0  0
    4.5600    0.7635   -1.3553 C   0  0  2  0  0  0  0  0  0  0  0  0
    4.1345    2.1924   -0.9739 C   0  0  0  0  0  0  0  0  0  0  0  0
    3.3944   -0.2032   -1.0767 C   0  0  0  0  0  0  0  0  0  0  0  0
    4.2426   -0.5496    1.2530 C   0  0  0  0  0  0  0  0  0  0  0  0
    0.2218   -0.3754   -0.7997 N   0  0  0  0  0  0  0  0  0  0  0  0
   -1.0948   -0.6491   -0.7485 N   0  0  0  0  0  0  0  0  0  0  0  0
   -1.9971   -0.0306   -1.7037 C   0  0  0  0  0  0  0  0  0  0  0  0
   -2.7519    1.1254   -1.0893 C   0  0  0  0  0  0  0  0  0  0  0  0
   -4.1393    1.0573   -0.9037 C   0  0  0  0  0  0  0  0  0  0  0  0
   -4.8281    2.1243   -0.3208 C   0  0  0  0  0  0  0  0  0  0  0  0
   -4.1417    3.2738    0.0810 C   0  0  0  0  0  0  0  0  0  0  0  0
   -5.0610    4.5494    0.7963 Cl  0  0  0  0  0  0  0  0  0  0  0  0
   -2.7585    3.3562   -0.1035 C   0  0  0  0  0  0  0  0  0  0  0  0
   -1.8408    4.7419    0.3674 Cl  0  0  0  0  0  0  0  0  0  0  0  0
   -2.0701    2.2871   -0.6876 C   0  0  0  0  0  0  0  0  0  0  0  0
   -3.4378   -2.8056   -0.1572 C   0  0  0  0  0  0  0  0  0  0  0  0
   -6.2611   -3.1662    1.7263 H   0  0  0  0  0  0  0  0  0  0  0  0
   -4.9740   -1.6742    3.2200 H   0  0  0  0  0  0  0  0  0  0  0  0
   -2.7157   -0.9029    2.5728 H   0  0  0  0  0  0  0  0  0  0  0  0
    1.9839   -1.5055    1.6636 H   0  0  0  0  0  0  0  0  0  0  0  0
    2.3318    1.3462    1.8667 H   0  0  0  0  0  0  0  0  0  0  0  0
    1.7262    1.6335    0.2439 H   0  0  0  0  0  0  0  0  0  0  0  0
    3.4822    3.2814    0.7851 H   0  0  0  0  0  0  0  0  0  0  0  0
    5.8264    2.5302    1.1789 H   0  0  0  0  0  0  0  0  0  0  0  0
    4.7548    1.8921    2.4236 H   0  0  0  0  0  0  0  0  0  0  0  0
    6.2821    0.1085    1.5833 H   0  0  0  0  0  0  0  0  0  0  0  0
    6.0967   -0.6597   -0.7818 H   0  0  0  0  0  0  0  0  0  0  0  0
    6.6194    1.0218   -0.7162 H   0  0  0  0  0  0  0  0  0  0  0  0
    4.8221    0.7276   -2.4187 H   0  0  0  0  0  0  0  0  0  0  0  0
    4.9480    2.8949   -1.1933 H   0  0  0  0  0  0  0  0  0  0  0  0
    3.2745    2.5019   -1.5806 H   0  0  0  0  0  0  0  0  0  0  0  0
    2.5555    0.0703   -1.7257 H   0  0  0  0  0  0  0  0  0  0  0  0
    3.6800   -1.2255   -1.3574 H   0  0  0  0  0  0  0  0  0  0  0  0
    4.0011   -0.5395    2.3246 H   0  0  0  0  0  0  0  0  0  0  0  0
    4.5419   -1.5797    1.0167 H   0  0  0  0  0  0  0  0  0  0  0  0
   -2.6716   -0.8056   -2.0810 H   0  0  0  0  0  0  0  0  0  0  0  0
   -1.4067    0.3219   -2.5580 H   0  0  0  0  0  0  0  0  0  0  0  0
   -4.6991    0.1725   -1.2028 H   0  0  0  0  0  0  0  0  0  0  0  0
   -5.9045    2.0522   -0.1800 H   0  0  0  0  0  0  0  0  0  0  0  0
   -0.9901    2.3544   -0.8227 H   0  0  0  0  0  0  0  0  0  0  0  0
   -2.9934   -3.1554   -1.0890 H   0  0  0  0  0  0  0  0  0  0  0  0
  1  2  1  0
  2  3  1  0
  2  4  1  0
  2  5  1  0
  5  6  2  0
  6  7  1  0
  7  8  2  0
  8  9  1  0
  9 10  1  0
 10 11  2  0
 11 12  1  0
 12 13  1  0
 14 13  1  6
 14 15  1  0
 15 16  1  0
 16 17  1  0
 17 18  1  0
 18 19  1  0
 19 20  1  0
 20 21  1  0
 20 22  1  0
 18 23  1  0
 12 24  2  0
 24 25  1  0
 25 26  1  0
 26 27  1  0
 27 28  1  0
 28 29  2  0
 29 30  1  0
 30 31  1  0
 30 32  2  0
 32 33  1  0
 32 34  1  0
  9 35  2  0
 35  5  1  0
 25 10  1  0
 34 27  2  0
 22 14  1  0
 23 14  1  0
 21 16  1  0
  6 36  1  0
  7 37  1  0
  8 38  1  0
 13 39  1  0
 15 40  1  0
 15 41  1  0
 16 42  1  1
 17 43  1  0
 17 44  1  0
 18 45  1  1
 19 46  1  0
 19 47  1  0
 20 48  1  6
 21 49  1  0
 21 50  1  0
 22 51  1  0
 22 52  1  0
 23 53  1  0
 23 54  1  0
 26 55  1  0
 26 56  1  0
 28 57  1  0
 29 58  1  0
 34 59  1  0
 35 60  1  0
M  END
>  <_SMILES>  (113) 
FC(F)(F)c1cccc(-c2nc(N[C@]34C[C@H]5C[C@H](C[C@H](C5)C3)C4)nn2Cc2ccc(Cl)c(Cl)c2)c1

$$$$

     RDKit          3D

 60 65  0  0  0  0  0  0  0  0999 V2000
    5.7831   -2.7633    1.6532 F   0  0  0  0  0  0  0  0  0  0  0  0
    5.0484   -3.6374    0.9084 C   0  0  0  0  0  0  0  0  0  0  0  0
    5.9384   -4.2711    0.0965 F   0  0  0  0  0  0  0  0  0  0  0  0
    4.5902   -4.5775    1.7776 F   0  0  0  0  0  0  0  0  0  0  0  0
    3.9336   -2.9507    0.1587 C   0  0  0  0  0  0  0  0  0  0  0  0
    3.6167   -3.3162   -1.1592 C   0  0  0  0  0  0  0  0  0  0  0  0
    2.5651   -2.6950   -1.8356 C   0  0  0  0  0  0  0  0  0  0  0  0
    1.8209   -1.6992   -1.2044 C   0  0  0  0  0  0  0  0  0  0  0  0
    2.1340   -1.3170    0.1026 C   0  0  0  0  0  0  0  0  0  0  0  0
    1.3375   -0.2553    0.7519 C   0  0  0  0  0  0  0  0  0  0  0  0
    0.0507   -0.1230    0.5035 N   0  0  0  0  0  0  0  0  0  0  0  0
   -0.3409    0.9319    1.2978 C   0  0  0  0  0  0  0  0  0  0  0  0
   -1.5517    1.2989    1.4818 N   0  0  0  0  0  0  0  0  0  0  0  0
   -2.6934    0.6693    0.8128 C   0  0  2  0  0  0  0  0  0  0  0  0
   -3.9463    1.4489    1.3023 C   0  0  0  0  0  0  0  0  0  0  0  0
   -5.2280    0.8841    0.6700 C   0  0  1  0  0  0  0  0  0  0  0  0
   -5.1278    1.0003   -0.8588 C   0  0  0  0  0  0  0  0  0  0  0  0
   -3.9024    0.2224   -1.3636 C   0  0  2  0  0  0  0  0  0  0  0  0
   -4.0387   -1.2570   -0.9604 C   0  0  0  0  0  0  0  0  0  0  0  0
   -4.1473   -1.3858    0.5698 C   0  0  2  0  0  0  0  0  0  0  0  0
   -5.3709   -0.5953    1.0592 C   0  0  0  0  0  0  0  0  0  0  0  0
   -2.8757   -0.8091    1.2193 C   0  0  0  0  0  0  0  0  0  0  0  0
   -2.6295    0.8074   -0.7242 C   0  0  0  0  0  0  0  0  0  0  0  0
    0.7410    1.5058    1.9341 N   0  0  0  0  0  0  0  0  0  0  0  0
    1.8313    0.6871    1.6617 N   0  0  0  0  0  0  0  0  0  0  0  0
    3.1367    1.3403    1.5109 C   0  0  0  0  0  0  0  0  0  0  0  0
    3.3822    1.8866    0.1180 C   0  0  0  0  0  0  0  0  0  0  0  0
    4.3864    1.3393   -0.6942 C   0  0  0  0  0  0  0  0  0  0  0  0
    4.6032    1.8302   -1.9845 C   0  0  0  0  0  0  0  0  0  0  0  0
    3.8241    2.8783   -2.4807 C   0  0  0  0  0  0  0  0  0  0  0  0
    4.1497    3.4319   -4.0843 Cl  0  0  0  0  0  0  0  0  0  0  0  0
    2.8253    3.4388   -1.6797 C   0  0  0  0  0  0  0  0  0  0  0  0
    1.8261    4.7403   -2.2204 Cl  0  0  0  0  0  0  0  0  0  0  0  0
    2.6100    2.9456   -0.3876 C   0  0  0  0  0  0  0  0  0  0  0  0
    3.1734   -1.9511    0.7897 C   0  0  0  0  0  0  0  0  0  0  0  0
    4.1844   -4.0971   -1.6647 H   0  0  0  0  0  0  0  0  0  0  0  0
    2.3202   -2.9900   -2.8537 H   0  0  0  0  0  0  0  0  0  0  0  0
    0.9990   -1.2200   -1.7335 H   0  0  0  0  0  0  0  0  0  0  0  0
   -4.0191    1.3971    2.3971 H   0  0  0  0  0  0  0  0  0  0  0  0
   -3.8487    2.5144    1.0538 H   0  0  0  0  0  0  0  0  0  0  0  0
   -6.0976    1.4466    1.0277 H   0  0  0  0  0  0  0  0  0  0  0  0
   -6.0397    0.6081   -1.3257 H   0  0  0  0  0  0  0  0  0  0  0  0
   -5.0488    2.0547   -1.1506 H   0  0  0  0  0  0  0  0  0  0  0  0
   -3.8376    0.3041   -2.4544 H   0  0  0  0  0  0  0  0  0  0  0  0
   -4.9271   -1.6919   -1.4347 H   0  0  0  0  0  0  0  0  0  0  0  0
   -3.1736   -1.8253   -1.3236 H   0  0  0  0  0  0  0  0  0  0  0  0
   -4.2557   -2.4408    0.8453 H   0  0  0  0  0  0  0  0  0  0  0  0
   -6.2864   -1.0119    0.6217 H   0  0  0  0  0  0  0  0  0  0  0  0
   -5.4669   -0.6893    2.1479 H   0  0  0  0  0  0  0  0  0  0  0  0
   -2.0204   -1.4193    0.9109 H   0  0  0  0  0  0  0  0  0  0  0  0
   -2.9373   -0.8983    2.3116 H   0  0  0  0  0  0  0  0  0  0  0  0
   -2.5167    1.8621   -1.0069 H   0  0  0  0  0  0  0  0  0  0  0  0
   -1.7608    0.2856   -1.1392 H   0  0  0  0  0  0  0  0  0  0  0  0
    0.5270    1.7319    2.9006 H   0  0  0  0  0  0  0  0  0  0  0  0
    3.2270    2.1633    2.2321 H   0  0  0  0  0  0  0  0  0  0  0  0
    3.9277    0.6325    1.7826 H   0  0  0  0  0  0  0  0  0  0  0  0
    5.0059    0.5189   -0.3360 H   0  0  0  0  0  0  0  0  0  0  0  0
    5.3825    1.3876   -2.6011 H   0  0  0  0  0  0  0  0  0  0  0  0
    1.8234    3.3836    0.2251 H   0  0  0  0  0  0  0  0  0  0  0  0
    3.3838   -1.6900    1.8251 H   0  0  0  0  0  0  0  0  0  0  0  0
  1  2  1  0
  2  3  1  0
  2  4  1  0
  2  5  1  0
  5  6  2  0
  6  7  1  0
  7  8  2  0
  8  9  1  0
  9 10  1  0
 10 11  2  0
 11 12  1  0
 12 13  2  0
 14 13  1  1
 14 15  1  0
 15 16  1  0
 16 17  1  0
 17 18  1  0
 18 19  1  0
 19 20  1  0
 20 21  1  0
 20 22  1  0
 18 23  1  0
 12 24  1  0
 24 25  1  0
 25 26  1  0
 26 27  1  0
 27 28  1  0
 28 29  2  0
 29 30  1  0
 30 31  1  0
 30 32  2  0
 32 33  1  0
 32 34  1  0
  9 35  2  0
 35  5  1  0
 25 10  1  0
 34 27  2  0
 22 14  1  0
 23 14  1  0
 21 16  1  0
  6 36  1  0
  7 37  1  0
  8 38  1  0
 15 39  1  0
 15 40  1  0
 16 41  1  1
 17 42  1  0
 17 43  1  0
 18 44  1  6
 19 45  1  0
 19 46  1  0
 20 47  1  6
 21 48  1  0
 21 49  1  0
 22 50  1  0
 22 51  1  0
 23 52  1  0
 23 53  1  0
 24 54  1  0
 26 55  1  0
 26 56  1  0
 28 57  1  0
 29 58  1  0
 34 59  1  0
 35 60  1  0
M  END
>  <_SMILES>  (114) 
FC(F)(F)c1cccc(-c2n/c(=N\[C@]34C[C@H]5C[C@H](C[C@H](C5)C3)C4)[nH]n2Cc2ccc(Cl)c(Cl)c2)c1

$$$$

     RDKit          3D

 60 65  0  0  0  0  0  0  0  0999 V2000
   -4.8479   -3.7010   -2.1070 F   0  0  0  0  0  0  0  0  0  0  0  0
   -5.7174   -2.8895   -1.4467 C   0  0  0  0  0  0  0  0  0  0  0  0
   -6.1308   -1.9609   -2.3529 F   0  0  0  0  0  0  0  0  0  0  0  0
   -6.8105   -3.6565   -1.1752 F   0  0  0  0  0  0  0  0  0  0  0  0
   -5.1221   -2.2512   -0.2154 C   0  0  0  0  0  0  0  0  0  0  0  0
   -5.9079   -2.0169    0.9248 C   0  0  0  0  0  0  0  0  0  0  0  0
   -5.3581   -1.4128    2.0577 C   0  0  0  0  0  0  0  0  0  0  0  0
   -4.0203   -1.0186    2.0596 C   0  0  0  0  0  0  0  0  0  0  0  0
   -3.2352   -1.2214    0.9220 C   0  0  0  0  0  0  0  0  0  0  0  0
   -1.8201   -0.7971    0.8962 C   0  0  0  0  0  0  0  0  0  0  0  0
   -0.9165   -1.4850    0.2334 N   0  0  0  0  0  0  0  0  0  0  0  0
    0.2656   -0.8020    0.4435 C   0  0  0  0  0  0  0  0  0  0  0  0
    1.3206   -1.3087   -0.0542 N   0  0  0  0  0  0  0  0  0  0  0  0
    2.6523   -0.7178    0.0326 C   0  0  2  0  0  0  0  0  0  0  0  0
    3.2305   -0.8155    1.4592 C   0  0  0  0  0  0  0  0  0  0  0  0
    4.6743   -0.2800    1.4851 C   0  0  1  0  0  0  0  0  0  0  0  0
    5.5473   -1.1285    0.5467 C   0  0  0  0  0  0  0  0  0  0  0  0
    5.0021   -1.0517   -0.8881 C   0  0  2  0  0  0  0  0  0  0  0  0
    5.0196    0.4097   -1.3619 C   0  0  0  0  0  0  0  0  0  0  0  0
    4.1440    1.2701   -0.4378 C   0  0  2  0  0  0  0  0  0  0  0  0
    4.6838    1.1813    1.0012 C   0  0  0  0  0  0  0  0  0  0  0  0
    2.6978    0.7422   -0.4679 C   0  0  0  0  0  0  0  0  0  0  0  0
    3.5546   -1.5674   -0.9041 C   0  0  0  0  0  0  0  0  0  0  0  0
    0.0518    0.3307    1.2090 N   0  0  0  0  0  0  0  0  0  0  0  0
   -1.3035    0.3298    1.5432 N   0  0  0  0  0  0  0  0  0  0  0  0
   -1.9899    1.6286    1.5204 C   0  0  0  0  0  0  0  0  0  0  0  0
   -2.2339    2.1472    0.1170 C   0  0  0  0  0  0  0  0  0  0  0  0
   -3.5032    2.0558   -0.4716 C   0  0  0  0  0  0  0  0  0  0  0  0
   -3.7148    2.5103   -1.7763 C   0  0  0  0  0  0  0  0  0  0  0  0
   -2.6625    3.0641   -2.5108 C   0  0  0  0  0  0  0  0  0  0  0  0
   -3.0000    3.6091   -4.1146 Cl  0  0  0  0  0  0  0  0  0  0  0  0
   -1.3929    3.1630   -1.9353 C   0  0  0  0  0  0  0  0  0  0  0  0
   -0.0414    3.8368   -2.7748 Cl  0  0  0  0  0  0  0  0  0  0  0  0
   -1.1839    2.7083   -0.6286 C   0  0  0  0  0  0  0  0  0  0  0  0
   -3.7784   -1.8463   -0.2064 C   0  0  0  0  0  0  0  0  0  0  0  0
   -6.9549   -2.3197    0.9380 H   0  0  0  0  0  0  0  0  0  0  0  0
   -5.9725   -1.2603    2.9425 H   0  0  0  0  0  0  0  0  0  0  0  0
   -3.5952   -0.5791    2.9578 H   0  0  0  0  0  0  0  0  0  0  0  0
    3.2099   -1.8562    1.8078 H   0  0  0  0  0  0  0  0  0  0  0  0
    2.6294   -0.2433    2.1724 H   0  0  0  0  0  0  0  0  0  0  0  0
    5.0692   -0.3343    2.5057 H   0  0  0  0  0  0  0  0  0  0  0  0
    6.5841   -0.7715    0.5737 H   0  0  0  0  0  0  0  0  0  0  0  0
    5.5604   -2.1710    0.8877 H   0  0  0  0  0  0  0  0  0  0  0  0
    5.6217   -1.6639   -1.5528 H   0  0  0  0  0  0  0  0  0  0  0  0
    4.6521    0.4743   -2.3934 H   0  0  0  0  0  0  0  0  0  0  0  0
    6.0483    0.7907   -1.3657 H   0  0  0  0  0  0  0  0  0  0  0  0
    4.1629    2.3121   -0.7763 H   0  0  0  0  0  0  0  0  0  0  0  0
    4.0729    1.8008    1.6693 H   0  0  0  0  0  0  0  0  0  0  0  0
    5.7046    1.5808    1.0416 H   0  0  0  0  0  0  0  0  0  0  0  0
    2.2921    0.8098   -1.4856 H   0  0  0  0  0  0  0  0  0  0  0  0
    2.0802    1.3977    0.1543 H   0  0  0  0  0  0  0  0  0  0  0  0
    3.1628   -1.5425   -1.9299 H   0  0  0  0  0  0  0  0  0  0  0  0
    3.5335   -2.6213   -0.5954 H   0  0  0  0  0  0  0  0  0  0  0  0
    0.6995    0.3962    1.9857 H   0  0  0  0  0  0  0  0  0  0  0  0
   -2.9376    1.5656    2.0661 H   0  0  0  0  0  0  0  0  0  0  0  0
   -1.3918    2.3654    2.0728 H   0  0  0  0  0  0  0  0  0  0  0  0
   -4.3396    1.6222    0.0741 H   0  0  0  0  0  0  0  0  0  0  0  0
   -4.7053    2.4250   -2.2183 H   0  0  0  0  0  0  0  0  0  0  0  0
   -0.1890    2.7794   -0.1931 H   0  0  0  0  0  0  0  0  0  0  0  0
   -3.1513   -2.0148   -1.0828 H   0  0  0  0  0  0  0  0  0  0  0  0
  1  2  1  0
  2  3  1  0
  2  4  1  0
  2  5  1  0
  5  6  2  0
  6  7  1  0
  7  8  2  0
  8  9  1  0
  9 10  1  0
 10 11  2  0
 11 12  1  0
 12 13  2  0
 14 13  1  1
 14 15  1  0
 15 16  1  0
 16 17  1  0
 17 18  1  0
 18 19  1  0
 19 20  1  0
 20 21  1  0
 20 22  1  0
 18 23  1  0
 12 24  1  0
 24 25  1  0
 25 26  1  0
 26 27  1  0
 27 28  1  0
 28 29  2  0
 29 30  1  0
 30 31  1  0
 30 32  2  0
 32 33  1  0
 32 34  1  0
  9 35  2  0
 35  5  1  0
 25 10  1  0
 34 27  2  0
 22 14  1  0
 23 14  1  0
 21 16  1  0
  6 36  1  0
  7 37  1  0
  8 38  1  0
 15 39  1  0
 15 40  1  0
 16 41  1  1
 17 42  1  0
 17 43  1  0
 18 44  1  6
 19 45  1  0
 19 46  1  0
 20 47  1  6
 21 48  1  0
 21 49  1  0
 22 50  1  0
 22 51  1  0
 23 52  1  0
 23 53  1  0
 24 54  1  0
 26 55  1  0
 26 56  1  0
 28 57  1  0
 29 58  1  0
 34 59  1  0
 35 60  1  0
M  END
>  <_SMILES>  (115) 
FC(F)(F)c1cccc(-c2n/c(=N/[C@]34C[C@H]5C[C@H](C[C@H](C5)C3)C4)[nH]n2Cc2ccc(Cl)c(Cl)c2)c1

$$$$

     RDKit          3D

 61 66  0  0  0  0  0  0  0  0999 V2000
   -4.1000    5.3398    0.8464 C   0  0  0  0  0  0  0  0  0  0  0  0
   -3.3067    4.1787    1.0545 O   0  0  0  0  0  0  0  0  0  0  0  0
   -3.2361    3.2849    0.0209 C   0  0  0  0  0  0  0  0  0  0  0  0
   -3.8804    3.4035   -1.2110 C   0  0  0  0  0  0  0  0  0  0  0  0
   -3.7139    2.4176   -2.1872 C   0  0  0  0  0  0  0  0  0  0  0  0
   -2.9094    1.3058   -1.9340 C   0  0  0  0  0  0  0  0  0  0  0  0
   -2.2765    1.1620   -0.6955 C   0  0  0  0  0  0  0  0  0  0  0  0
   -1.3985    0.0261   -0.4135 C   0  0  0  0  0  0  0  0  0  0  0  0
   -0.1032    0.1653   -0.1792 N   0  0  0  0  0  0  0  0  0  0  0  0
    0.3815   -1.0745    0.0366 C   0  0  0  0  0  0  0  0  0  0  0  0
    1.6709   -1.3477    0.2837 N   0  0  0  0  0  0  0  0  0  0  0  0
    2.7558   -0.3646    0.2233 C   0  0  2  0  0  0  0  0  0  0  0  0
    2.9033    0.2439   -1.1910 C   0  0  0  0  0  0  0  0  0  0  0  0
    4.0938    1.2192   -1.2333 C   0  0  1  0  0  0  0  0  0  0  0  0
    3.8727    2.3353   -0.1973 C   0  0  0  0  0  0  0  0  0  0  0  0
    3.7691    1.7363    1.2164 C   0  0  2  0  0  0  0  0  0  0  0  0
    5.0629    0.9739    1.5407 C   0  0  0  0  0  0  0  0  0  0  0  0
    5.2794   -0.1491    0.5151 C   0  0  2  0  0  0  0  0  0  0  0  0
    5.3854    0.4597   -0.8918 C   0  0  0  0  0  0  0  0  0  0  0  0
    4.0803   -1.1095    0.5592 C   0  0  0  0  0  0  0  0  0  0  0  0
    2.5773    0.7630    1.2681 C   0  0  0  0  0  0  0  0  0  0  0  0
   -0.6100   -2.0093   -0.0348 C   0  0  0  0  0  0  0  0  0  0  0  0
   -1.7809   -1.3106   -0.2778 N   0  0  0  0  0  0  0  0  0  0  0  0
   -3.0701   -1.8749   -0.3691 C   0  0  0  0  0  0  0  0  0  0  0  0
   -3.9857   -1.1906   -0.8179 O   0  0  0  0  0  0  0  0  0  0  0  0
   -3.3979   -3.2668    0.0231 C   0  0  0  0  0  0  0  0  0  0  0  0
   -4.1780   -4.0435   -0.8410 C   0  0  0  0  0  0  0  0  0  0  0  0
   -4.5125   -5.3512   -0.4882 C   0  0  0  0  0  0  0  0  0  0  0  0
   -4.0819   -5.8765    0.7305 C   0  0  0  0  0  0  0  0  0  0  0  0
   -3.3254   -5.0943    1.6042 C   0  0  0  0  0  0  0  0  0  0  0  0
   -2.9875   -3.7853    1.2569 C   0  0  0  0  0  0  0  0  0  0  0  0
   -2.4323    2.1678    0.2680 C   0  0  0  0  0  0  0  0  0  0  0  0
   -5.1503    5.0764    0.6835 H   0  0  0  0  0  0  0  0  0  0  0  0
   -4.0469    5.9481    1.7544 H   0  0  0  0  0  0  0  0  0  0  0  0
   -3.7098    5.9422    0.0193 H   0  0  0  0  0  0  0  0  0  0  0  0
   -4.5152    4.2507   -1.4461 H   0  0  0  0  0  0  0  0  0  0  0  0
   -4.2131    2.5147   -3.1477 H   0  0  0  0  0  0  0  0  0  0  0  0
   -2.7870    0.5497   -2.7054 H   0  0  0  0  0  0  0  0  0  0  0  0
    1.9762   -2.3146    0.2731 H   0  0  0  0  0  0  0  0  0  0  0  0
    3.0445   -0.5515   -1.9345 H   0  0  0  0  0  0  0  0  0  0  0  0
    1.9958    0.7828   -1.4870 H   0  0  0  0  0  0  0  0  0  0  0  0
    4.1767    1.6558   -2.2349 H   0  0  0  0  0  0  0  0  0  0  0  0
    4.7021    3.0521   -0.2386 H   0  0  0  0  0  0  0  0  0  0  0  0
    2.9585    2.8924   -0.4361 H   0  0  0  0  0  0  0  0  0  0  0  0
    3.6211    2.5388    1.9478 H   0  0  0  0  0  0  0  0  0  0  0  0
    5.0067    0.5529    2.5521 H   0  0  0  0  0  0  0  0  0  0  0  0
    5.9169    1.6622    1.5294 H   0  0  0  0  0  0  0  0  0  0  0  0
    6.1997   -0.6942    0.7524 H   0  0  0  0  0  0  0  0  0  0  0  0
    6.2448    1.1395   -0.9424 H   0  0  0  0  0  0  0  0  0  0  0  0
    5.5615   -0.3317   -1.6307 H   0  0  0  0  0  0  0  0  0  0  0  0
    4.0123   -1.5718    1.5532 H   0  0  0  0  0  0  0  0  0  0  0  0
    4.2429   -1.9321   -0.1505 H   0  0  0  0  0  0  0  0  0  0  0  0
    2.4854    0.3363    2.2756 H   0  0  0  0  0  0  0  0  0  0  0  0
    1.6575    1.3309    1.0911 H   0  0  0  0  0  0  0  0  0  0  0  0
   -0.5846   -3.0836    0.0613 H   0  0  0  0  0  0  0  0  0  0  0  0
   -4.5293   -3.6316   -1.7849 H   0  0  0  0  0  0  0  0  0  0  0  0
   -5.1162   -5.9576   -1.1593 H   0  0  0  0  0  0  0  0  0  0  0  0
   -4.3487   -6.8944    1.0061 H   0  0  0  0  0  0  0  0  0  0  0  0
   -3.0092   -5.5027    2.5614 H   0  0  0  0  0  0  0  0  0  0  0  0
   -2.4225   -3.1796    1.9615 H   0  0  0  0  0  0  0  0  0  0  0  0
   -1.9152    2.0853    1.2219 H   0  0  0  0  0  0  0  0  0  0  0  0
  1  2  1  0
  2  3  1  0
  3  4  1  0
  4  5  2  0
  5  6  1  0
  6  7  2  0
  7  8  1  0
  8  9  2  0
  9 10  1  0
 10 11  1  0
 12 11  1  6
 12 13  1  0
 13 14  1  0
 14 15  1  0
 15 16  1  0
 16 17  1  0
 17 18  1  0
 18 19  1  0
 18 20  1  0
 16 21  1  0
 10 22  2  0
 22 23  1  0
 23 24  1  0
 24 25  2  0
 24 26  1  0
 26 27  2  0
 27 28  1  0
 28 29  2  0
 29 30  1  0
 30 31  2  0
  7 32  1  0
 32  3  2  0
 23  8  1  0
 31 26  1  0
 20 12  1  0
 21 12  1  0
 19 14  1  0
  1 33  1  0
  1 34  1  0
  1 35  1  0
  4 36  1  0
  5 37  1  0
  6 38  1  0
 11 39  1  0
 13 40  1  0
 13 41  1  0
 14 42  1  6
 15 43  1  0
 15 44  1  0
 16 45  1  1
 17 46  1  0
 17 47  1  0
 18 48  1  1
 19 49  1  0
 19 50  1  0
 20 51  1  0
 20 52  1  0
 21 53  1  0
 21 54  1  0
 22 55  1  0
 27 56  1  0
 28 57  1  0
 29 58  1  0
 30 59  1  0
 31 60  1  0
 32 61  1  0
M  END
>  <_SMILES>  (116) 
COc1cccc(-c2nc(N[C@]34C[C@H]5C[C@H](C[C@H](C5)C3)C4)cn2C(=O)c2ccccc2)c1

$$$$

     RDKit          3D

 62 67  0  0  0  0  0  0  0  0999 V2000
   -6.4429    3.2843   -1.7120 C   0  0  0  0  0  0  0  0  0  0  0  0
   -5.1085    2.7865   -1.7395 O   0  0  0  0  0  0  0  0  0  0  0  0
   -4.7160    2.0062   -0.6895 C   0  0  0  0  0  0  0  0  0  0  0  0
   -5.4981    1.6462    0.4091 C   0  0  0  0  0  0  0  0  0  0  0  0
   -4.9663    0.8397    1.4222 C   0  0  0  0  0  0  0  0  0  0  0  0
   -3.6529    0.3824    1.3407 C   0  0  0  0  0  0  0  0  0  0  0  0
   -2.8845    0.7310    0.2317 C   0  0  0  0  0  0  0  0  0  0  0  0
   -1.4092    0.2365    0.1155 C   0  0  0  0  0  0  0  0  0  0  0  0
   -0.3614    1.0571   -0.0510 N   0  0  0  0  0  0  0  0  0  0  0  0
    0.8374    0.4052    0.0771 C   0  0  0  0  0  0  0  0  0  0  0  0
    1.9761    1.1690   -0.0102 N   0  0  0  0  0  0  0  0  0  0  0  0
    3.3634    0.6899    0.1005 C   0  0  2  0  0  0  0  0  0  0  0  0
    3.6976   -0.3249   -1.0162 C   0  0  0  0  0  0  0  0  0  0  0  0
    5.1649   -0.7771   -0.9055 C   0  0  1  0  0  0  0  0  0  0  0  0
    6.0856    0.4444   -1.0566 C   0  0  0  0  0  0  0  0  0  0  0  0
    5.7844    1.4688    0.0488 C   0  0  2  0  0  0  0  0  0  0  0  0
    6.0181    0.8190    1.4218 C   0  0  0  0  0  0  0  0  0  0  0  0
    5.0970   -0.3999    1.5895 C   0  0  2  0  0  0  0  0  0  0  0  0
    5.3948   -1.4179    0.4745 C   0  0  0  0  0  0  0  0  0  0  0  0
    3.6295    0.0530    1.4833 C   0  0  0  0  0  0  0  0  0  0  0  0
    4.3148    1.9074   -0.0575 C   0  0  0  0  0  0  0  0  0  0  0  0
    0.4913   -0.9120    0.2729 C   0  0  0  0  0  0  0  0  0  0  0  0
   -0.8849   -0.9879    0.2069 N   0  0  0  0  0  0  0  0  0  0  0  0
   -1.6113   -2.2614    0.2804 C   0  0  0  0  0  0  0  0  0  0  0  0
   -0.9572   -3.1704    0.7718 O   0  0  0  0  0  0  0  0  0  0  0  0
   -2.9862   -2.5146   -0.1931 C   0  0  0  0  0  0  0  0  0  0  0  0
   -3.8416   -3.3065    0.5813 C   0  0  0  0  0  0  0  0  0  0  0  0
   -5.1435   -3.5460    0.1427 C   0  0  0  0  0  0  0  0  0  0  0  0
   -5.5811   -3.0104   -1.0691 C   0  0  0  0  0  0  0  0  0  0  0  0
   -4.7171   -2.2460   -1.8545 C   0  0  0  0  0  0  0  0  0  0  0  0
   -3.4126   -2.0030   -1.4240 C   0  0  0  0  0  0  0  0  0  0  0  0
   -3.3998    1.5504   -0.7728 C   0  0  0  0  0  0  0  0  0  0  0  0
   -6.5940    3.8844   -2.6144 H   0  0  0  0  0  0  0  0  0  0  0  0
   -7.1688    2.4648   -1.7300 H   0  0  0  0  0  0  0  0  0  0  0  0
   -6.6019    3.9359   -0.8466 H   0  0  0  0  0  0  0  0  0  0  0  0
   -6.5271    1.9800    0.5118 H   0  0  0  0  0  0  0  0  0  0  0  0
   -5.5859    0.5748    2.2777 H   0  0  0  0  0  0  0  0  0  0  0  0
   -3.2498   -0.2284    2.1445 H   0  0  0  0  0  0  0  0  0  0  0  0
   -0.4579    2.0583   -0.1617 H   0  0  0  0  0  0  0  0  0  0  0  0
    1.9344    2.1719   -0.1799 H   0  0  0  0  0  0  0  0  0  0  0  0
    3.0491   -1.2063   -0.9545 H   0  0  0  0  0  0  0  0  0  0  0  0
    3.5167    0.1216   -2.0028 H   0  0  0  0  0  0  0  0  0  0  0  0
    5.3865   -1.5059   -1.6931 H   0  0  0  0  0  0  0  0  0  0  0  0
    5.9411    0.9030   -2.0425 H   0  0  0  0  0  0  0  0  0  0  0  0
    7.1355    0.1315   -1.0017 H   0  0  0  0  0  0  0  0  0  0  0  0
    6.4400    2.3393   -0.0649 H   0  0  0  0  0  0  0  0  0  0  0  0
    7.0669    0.5124    1.5178 H   0  0  0  0  0  0  0  0  0  0  0  0
    5.8251    1.5472    2.2192 H   0  0  0  0  0  0  0  0  0  0  0  0
    5.2704   -0.8618    2.5678 H   0  0  0  0  0  0  0  0  0  0  0  0
    4.7516   -2.2990    0.5902 H   0  0  0  0  0  0  0  0  0  0  0  0
    6.4313   -1.7676    0.5556 H   0  0  0  0  0  0  0  0  0  0  0  0
    3.4000    0.7695    2.2829 H   0  0  0  0  0  0  0  0  0  0  0  0
    2.9785   -0.8126    1.6504 H   0  0  0  0  0  0  0  0  0  0  0  0
    4.1449    2.3984   -1.0251 H   0  0  0  0  0  0  0  0  0  0  0  0
    4.0973    2.6608    0.7115 H   0  0  0  0  0  0  0  0  0  0  0  0
    1.0643   -1.8122    0.4198 H   0  0  0  0  0  0  0  0  0  0  0  0
   -3.5054   -3.7408    1.5212 H   0  0  0  0  0  0  0  0  0  0  0  0
   -5.8180   -4.1583    0.7387 H   0  0  0  0  0  0  0  0  0  0  0  0
   -6.5965   -3.2042   -1.4111 H   0  0  0  0  0  0  0  0  0  0  0  0
   -5.0640   -1.8513   -2.8079 H   0  0  0  0  0  0  0  0  0  0  0  0
   -2.7455   -1.4334   -2.0655 H   0  0  0  0  0  0  0  0  0  0  0  0
   -2.7989    1.8291   -1.6352 H   0  0  0  0  0  0  0  0  0  0  0  0
  1  2  1  0
  2  3  1  0
  3  4  1  0
  4  5  2  0
  5  6  1  0
  6  7  2  0
  7  8  1  0
  8  9  2  0
  9 10  1  0
 10 11  1  0
 12 11  1  1
 12 13  1  0
 13 14  1  0
 14 15  1  0
 15 16  1  0
 16 17  1  0
 17 18  1  0
 18 19  1  0
 18 20  1  0
 16 21  1  0
 10 22  2  0
 22 23  1  0
 23 24  1  0
 24 25  2  0
 24 26  1  0
 26 27  2  0
 27 28  1  0
 28 29  2  0
 29 30  1  0
 30 31  2  0
  7 32  1  0
 32  3  2  0
 23  8  1  0
 31 26  1  0
 20 12  1  0
 21 12  1  0
 19 14  1  0
  1 33  1  0
  1 34  1  0
  1 35  1  0
  4 36  1  0
  5 37  1  0
  6 38  1  0
  9 39  1  0
 11 40  1  0
 13 41  1  0
 13 42  1  0
 14 43  1  6
 15 44  1  0
 15 45  1  0
 16 46  1  6
 17 47  1  0
 17 48  1  0
 18 49  1  1
 19 50  1  0
 19 51  1  0
 20 52  1  0
 20 53  1  0
 21 54  1  0
 21 55  1  0
 22 56  1  0
 27 57  1  0
 28 58  1  0
 29 59  1  0
 30 60  1  0
 31 61  1  0
 32 62  1  0
M  CHG  1   9   1
M  END
>  <_SMILES>  (117) 
COc1cccc(-c2[nH+]c(N[C@]34C[C@H]5C[C@H](C[C@H](C5)C3)C4)cn2C(=O)c2ccccc2)c1

$$$$

     RDKit          3D

 31 32  0  0  0  0  0  0  0  0999 V2000
    5.2929    1.8185    0.3954 C   0  0  0  0  0  0  0  0  0  0  0  0
    4.9397    0.8081    0.9408 C   0  0  0  0  0  0  0  0  0  0  0  0
    4.4929   -0.4272    1.6022 C   0  0  0  0  0  0  0  0  0  0  0  0
    3.0651   -0.5891    1.4514 N   0  0  0  0  0  0  0  0  0  0  0  0
    2.5434   -1.2740    0.4061 C   0  0  0  0  0  0  0  0  0  0  0  0
    3.1729   -2.2101   -0.3126 N   0  0  0  0  0  0  0  0  0  0  0  0
    2.2189   -2.5682   -1.1833 N   0  0  0  0  0  0  0  0  0  0  0  0
    1.0342   -1.9618   -1.1208 N   0  0  0  0  0  0  0  0  0  0  0  0
    1.2110   -1.1133   -0.0909 C   0  0  0  0  0  0  0  0  0  0  0  0
    0.1771   -0.1868    0.3897 C   0  0  0  0  0  0  0  0  0  0  0  0
    0.4273    0.6019    1.3015 O   0  0  0  0  0  0  0  0  0  0  0  0
   -1.0267   -0.3046   -0.2739 N   0  0  0  0  0  0  0  0  0  0  0  0
   -2.2322    0.4105   -0.0889 C   0  0  0  0  0  0  0  0  0  0  0  0
   -2.3560    1.4191    0.8792 C   0  0  0  0  0  0  0  0  0  0  0  0
   -3.5547    2.1177    1.0493 C   0  0  0  0  0  0  0  0  0  0  0  0
   -4.6511    1.8189    0.2530 C   0  0  0  0  0  0  0  0  0  0  0  0
   -4.5455    0.8202   -0.7127 C   0  0  0  0  0  0  0  0  0  0  0  0
   -3.3461    0.0992   -0.9048 C   0  0  0  0  0  0  0  0  0  0  0  0
   -3.3137   -0.9763   -1.9793 C   0  0  0  0  0  0  0  0  0  0  0  0
   -2.2241   -1.6189   -2.1278 O   0  0  0  0  0  0  0  0  0  0  0  0
   -4.3738   -1.1627   -2.6569 O   0  0  0  0  0  0  0  0  0  0  0  0
    5.5891    2.7136   -0.1001 H   0  0  0  0  0  0  0  0  0  0  0  0
    5.0545   -1.2920    1.2309 H   0  0  0  0  0  0  0  0  0  0  0  0
    4.7161   -0.3564    2.6730 H   0  0  0  0  0  0  0  0  0  0  0  0
    2.5169    0.1991    1.7998 H   0  0  0  0  0  0  0  0  0  0  0  0
    2.3895   -3.2869   -1.8815 H   0  0  0  0  0  0  0  0  0  0  0  0
   -1.0720   -1.0208   -1.0231 H   0  0  0  0  0  0  0  0  0  0  0  0
   -1.5276    1.6879    1.5244 H   0  0  0  0  0  0  0  0  0  0  0  0
   -3.6239    2.8933    1.8055 H   0  0  0  0  0  0  0  0  0  0  0  0
   -5.5867    2.3547    0.3760 H   0  0  0  0  0  0  0  0  0  0  0  0
   -5.4076    0.5863   -1.3373 H   0  0  0  0  0  0  0  0  0  0  0  0
  1  2  3  0
  2  3  1  0
  3  4  1  0
  4  5  1  0
  5  6  2  0
  6  7  1  0
  7  8  1  0
  8  9  2  0
  9 10  1  0
 10 11  2  0
 10 12  1  0
 12 13  1  0
 13 14  2  0
 14 15  1  0
 15 16  2  0
 16 17  1  0
 17 18  2  0
 18 19  1  0
 19 20  2  0
 19 21  1  0
  9  5  1  0
 18 13  1  0
  1 22  1  0
  3 23  1  0
  3 24  1  0
  4 25  1  0
  7 26  1  0
 12 27  1  0
 14 28  1  0
 15 29  1  0
 16 30  1  0
 17 31  1  0
M  CHG  1  21  -1
M  END
>  <_SMILES>  (118) 
C#CCNc1n[nH]nc1C(=O)Nc1ccccc1C(=O)[O-]

$$$$

     RDKit          3D

 31 32  0  0  0  0  0  0  0  0999 V2000
    5.2290   -0.3136    2.7928 C   0  0  0  0  0  0  0  0  0  0  0  0
    4.4741   -0.7625    1.9733 C   0  0  0  0  0  0  0  0  0  0  0  0
    3.5474   -1.3054    0.9714 C   0  0  0  0  0  0  0  0  0  0  0  0
    2.3402   -0.4898    0.9936 N   0  0  0  0  0  0  0  0  0  0  0  0
    2.3510    0.5799    0.2873 C   0  0  0  0  0  0  0  0  0  0  0  0
    3.3342    1.2052   -0.4509 N   0  0  0  0  0  0  0  0  0  0  0  0
    2.8086    2.4842   -0.7379 N   0  0  0  0  0  0  0  0  0  0  0  0
    1.4648    2.5689   -0.4203 N   0  0  0  0  0  0  0  0  0  0  0  0
    1.1509    1.4639    0.2038 C   0  0  0  0  0  0  0  0  0  0  0  0
   -0.2364    1.1784    0.6839 C   0  0  0  0  0  0  0  0  0  0  0  0
   -0.5717    1.6146    1.7768 O   0  0  0  0  0  0  0  0  0  0  0  0
   -0.9557    0.4451   -0.2235 N   0  0  0  0  0  0  0  0  0  0  0  0
   -2.2781   -0.0337   -0.1505 C   0  0  0  0  0  0  0  0  0  0  0  0
   -3.1053    0.2251    0.9492 C   0  0  0  0  0  0  0  0  0  0  0  0
   -4.4132   -0.2640    0.9875 C   0  0  0  0  0  0  0  0  0  0  0  0
   -4.9070   -1.0167   -0.0721 C   0  0  0  0  0  0  0  0  0  0  0  0
   -4.0912   -1.2816   -1.1718 C   0  0  0  0  0  0  0  0  0  0  0  0
   -2.7681   -0.8002   -1.2350 C   0  0  0  0  0  0  0  0  0  0  0  0
   -1.9187   -1.1235   -2.4563 C   0  0  0  0  0  0  0  0  0  0  0  0
   -2.4505   -1.8154   -3.3799 O   0  0  0  0  0  0  0  0  0  0  0  0
   -0.7221   -0.6732   -2.4657 O   0  0  0  0  0  0  0  0  0  0  0  0
    5.8844    0.0850    3.5318 H   0  0  0  0  0  0  0  0  0  0  0  0
    4.0092   -1.3406   -0.0222 H   0  0  0  0  0  0  0  0  0  0  0  0
    3.2788   -2.3357    1.2278 H   0  0  0  0  0  0  0  0  0  0  0  0
    4.2276    1.2409    0.0331 H   0  0  0  0  0  0  0  0  0  0  0  0
    2.9977    2.8099   -1.6911 H   0  0  0  0  0  0  0  0  0  0  0  0
   -0.4851    0.1721   -1.1040 H   0  0  0  0  0  0  0  0  0  0  0  0
   -2.7520    0.8096    1.7920 H   0  0  0  0  0  0  0  0  0  0  0  0
   -5.0415   -0.0539    1.8475 H   0  0  0  0  0  0  0  0  0  0  0  0
   -5.9222   -1.4001   -0.0492 H   0  0  0  0  0  0  0  0  0  0  0  0
   -4.4790   -1.8728   -2.0007 H   0  0  0  0  0  0  0  0  0  0  0  0
  1  2  3  0
  2  3  1  0
  3  4  1  0
  4  5  2  0
  5  6  1  0
  6  7  1  0
  7  8  1  0
  8  9  2  0
  9 10  1  0
 10 11  2  0
 10 12  1  0
 12 13  1  0
 13 14  2  0
 14 15  1  0
 15 16  2  0
 16 17  1  0
 17 18  2  0
 18 19  1  0
 19 20  2  0
 19 21  1  0
  9  5  1  0
 18 13  1  0
  1 22  1  0
  3 23  1  0
  3 24  1  0
  6 25  1  0
  7 26  1  0
 12 27  1  0
 14 28  1  0
 15 29  1  0
 16 30  1  0
 17 31  1  0
M  CHG  1  21  -1
M  END
>  <_SMILES>  (119) 
C#CC/N=c1\[nH][nH]nc1C(=O)Nc1ccccc1C(=O)[O-]

$$$$

     RDKit          3D

 31 32  0  0  0  0  0  0  0  0999 V2000
    3.6123    3.6247   -0.4276 C   0  0  0  0  0  0  0  0  0  0  0  0
    3.0210    2.6170   -0.1481 C   0  0  0  0  0  0  0  0  0  0  0  0
    2.2908    1.3873    0.1900 C   0  0  0  0  0  0  0  0  0  0  0  0
    3.2079    0.2997   -0.1050 N   0  0  0  0  0  0  0  0  0  0  0  0
    2.8505   -0.9154    0.1185 C   0  0  0  0  0  0  0  0  0  0  0  0
    3.6575   -2.0077   -0.0974 N   0  0  0  0  0  0  0  0  0  0  0  0
    3.0075   -3.0761    0.5130 N   0  0  0  0  0  0  0  0  0  0  0  0
    1.7965   -2.7218    1.0530 N   0  0  0  0  0  0  0  0  0  0  0  0
    1.6068   -1.4594    0.7612 C   0  0  0  0  0  0  0  0  0  0  0  0
    0.3415   -0.7687    1.1534 C   0  0  0  0  0  0  0  0  0  0  0  0
    0.2899   -0.2850    2.2769 O   0  0  0  0  0  0  0  0  0  0  0  0
   -0.5913   -0.7439    0.1528 N   0  0  0  0  0  0  0  0  0  0  0  0
   -1.8680   -0.1437    0.1374 C   0  0  0  0  0  0  0  0  0  0  0  0
   -2.4148    0.4786    1.2670 C   0  0  0  0  0  0  0  0  0  0  0  0
   -3.6836    1.0613    1.2172 C   0  0  0  0  0  0  0  0  0  0  0  0
   -4.4196    1.0285    0.0385 C   0  0  0  0  0  0  0  0  0  0  0  0
   -3.8854    0.4126   -1.0925 C   0  0  0  0  0  0  0  0  0  0  0  0
   -2.6074   -0.1814   -1.0683 C   0  0  0  0  0  0  0  0  0  0  0  0
   -2.0670   -0.8277   -2.3345 C   0  0  0  0  0  0  0  0  0  0  0  0
   -0.8898   -1.3200   -2.2694 O   0  0  0  0  0  0  0  0  0  0  0  0
   -2.8140   -0.8315   -3.3615 O   0  0  0  0  0  0  0  0  0  0  0  0
    4.1374    4.5137   -0.6861 H   0  0  0  0  0  0  0  0  0  0  0  0
    1.3843    1.3208   -0.4195 H   0  0  0  0  0  0  0  0  0  0  0  0
    2.0292    1.4122    1.2519 H   0  0  0  0  0  0  0  0  0  0  0  0
    4.6362   -1.8529    0.1168 H   0  0  0  0  0  0  0  0  0  0  0  0
    3.5564   -3.7592    1.0361 H   0  0  0  0  0  0  0  0  0  0  0  0
   -0.3485   -1.1840   -0.7540 H   0  0  0  0  0  0  0  0  0  0  0  0
   -1.8743    0.5171    2.2066 H   0  0  0  0  0  0  0  0  0  0  0  0
   -4.0933    1.5374    2.1028 H   0  0  0  0  0  0  0  0  0  0  0  0
   -5.4064    1.4783   -0.0079 H   0  0  0  0  0  0  0  0  0  0  0  0
   -4.4621    0.3890   -2.0167 H   0  0  0  0  0  0  0  0  0  0  0  0
  1  2  3  0
  2  3  1  0
  3  4  1  0
  4  5  2  0
  5  6  1  0
  6  7  1  0
  7  8  1  0
  8  9  2  0
  9 10  1  0
 10 11  2  0
 10 12  1  0
 12 13  1  0
 13 14  2  0
 14 15  1  0
 15 16  2  0
 16 17  1  0
 17 18  2  0
 18 19  1  0
 19 20  2  0
 19 21  1  0
  9  5  1  0
 18 13  1  0
  1 22  1  0
  3 23  1  0
  3 24  1  0
  6 25  1  0
  7 26  1  0
 12 27  1  0
 14 28  1  0
 15 29  1  0
 16 30  1  0
 17 31  1  0
M  CHG  1  21  -1
M  END
>  <_SMILES>  (120) 
C#CC/N=c1/[nH][nH]nc1C(=O)Nc1ccccc1C(=O)[O-]

$$$$

     RDKit          3D

 31 32  0  0  0  0  0  0  0  0999 V2000
    6.5011   -0.1184   -0.9921 C   0  0  0  0  0  0  0  0  0  0  0  0
    5.4130    0.2831   -1.3061 C   0  0  0  0  0  0  0  0  0  0  0  0
    4.0818    0.7760   -1.6896 C   0  0  0  0  0  0  0  0  0  0  0  0
    3.1612    0.7393   -0.5588 N   0  0  0  0  0  0  0  0  0  0  0  0
    2.5271   -0.4267   -0.2278 C   0  0  0  0  0  0  0  0  0  0  0  0
    3.1682   -1.6256   -0.0866 N   0  0  0  0  0  0  0  0  0  0  0  0
    2.3241   -2.6104    0.2452 N   0  0  0  0  0  0  0  0  0  0  0  0
    1.1156   -2.0716    0.3599 N   0  0  0  0  0  0  0  0  0  0  0  0
    1.2087   -0.7250    0.0861 C   0  0  0  0  0  0  0  0  0  0  0  0
    0.0878    0.2140    0.1001 C   0  0  0  0  0  0  0  0  0  0  0  0
    0.2778    1.3994   -0.1761 O   0  0  0  0  0  0  0  0  0  0  0  0
   -1.1253   -0.3543    0.4198 N   0  0  0  0  0  0  0  0  0  0  0  0
   -2.3988    0.2566    0.5286 C   0  0  0  0  0  0  0  0  0  0  0  0
   -2.5809    1.6380    0.3610 C   0  0  0  0  0  0  0  0  0  0  0  0
   -3.8459    2.2220    0.4754 C   0  0  0  0  0  0  0  0  0  0  0  0
   -4.9517    1.4335    0.7604 C   0  0  0  0  0  0  0  0  0  0  0  0
   -4.7889    0.0606    0.9314 C   0  0  0  0  0  0  0  0  0  0  0  0
   -3.5219   -0.5533    0.8210 C   0  0  0  0  0  0  0  0  0  0  0  0
   -3.4254   -2.0569    1.0175 C   0  0  0  0  0  0  0  0  0  0  0  0
   -2.2682   -2.5790    0.9135 O   0  0  0  0  0  0  0  0  0  0  0  0
   -4.5002   -2.6878    1.2694 O   0  0  0  0  0  0  0  0  0  0  0  0
    7.4662   -0.4673   -0.7051 H   0  0  0  0  0  0  0  0  0  0  0  0
    4.1733    1.8150   -2.0267 H   0  0  0  0  0  0  0  0  0  0  0  0
    3.6807    0.2047   -2.5353 H   0  0  0  0  0  0  0  0  0  0  0  0
    2.5155    1.5378   -0.5952 H   0  0  0  0  0  0  0  0  0  0  0  0
    4.1526   -1.8334   -0.1795 H   0  0  0  0  0  0  0  0  0  0  0  0
   -1.1447   -1.3774    0.5869 H   0  0  0  0  0  0  0  0  0  0  0  0
   -1.7480    2.2962    0.1432 H   0  0  0  0  0  0  0  0  0  0  0  0
   -3.9590    3.2933    0.3420 H   0  0  0  0  0  0  0  0  0  0  0  0
   -5.9383    1.8761    0.8519 H   0  0  0  0  0  0  0  0  0  0  0  0
   -5.6575   -0.5585    1.1555 H   0  0  0  0  0  0  0  0  0  0  0  0
  1  2  3  0
  2  3  1  0
  3  4  1  0
  4  5  1  0
  5  6  1  0
  6  7  1  0
  7  8  2  0
  8  9  1  0
  9 10  1  0
 10 11  2  0
 10 12  1  0
 12 13  1  0
 13 14  2  0
 14 15  1  0
 15 16  2  0
 16 17  1  0
 17 18  2  0
 18 19  1  0
 19 20  2  0
 19 21  1  0
  9  5  2  0
 18 13  1  0
  1 22  1  0
  3 23  1  0
  3 24  1  0
  4 25  1  0
  6 26  1  0
 12 27  1  0
 14 28  1  0
 15 29  1  0
 16 30  1  0
 17 31  1  0
M  CHG  1  21  -1
M  END
>  <_SMILES>  (121) 
C#CCNc1[nH]nnc1C(=O)Nc1ccccc1C(=O)[O-]

$$$$

     RDKit          3D

 31 32  0  0  0  0  0  0  0  0999 V2000
    6.1214   -1.8217   -0.2930 C   0  0  0  0  0  0  0  0  0  0  0  0
    5.4209   -1.1661    0.4302 C   0  0  0  0  0  0  0  0  0  0  0  0
    4.5561   -0.3648    1.3103 C   0  0  0  0  0  0  0  0  0  0  0  0
    3.3110   -0.0793    0.6354 N   0  0  0  0  0  0  0  0  0  0  0  0
    2.3737    0.6726    1.2470 C   0  0  0  0  0  0  0  0  0  0  0  0
    2.6435    1.5053    2.2949 N   0  0  0  0  0  0  0  0  0  0  0  0
    1.5092    2.0903    2.6539 N   0  0  0  0  0  0  0  0  0  0  0  0
    0.5432    1.6313    1.8340 N   0  0  0  0  0  0  0  0  0  0  0  0
    1.0353    0.7160    0.9295 C   0  0  0  0  0  0  0  0  0  0  0  0
    0.2875   -0.0078   -0.0731 C   0  0  0  0  0  0  0  0  0  0  0  0
    0.8073   -0.8640   -0.7851 O   0  0  0  0  0  0  0  0  0  0  0  0
   -1.0312    0.3518   -0.1172 N   0  0  0  0  0  0  0  0  0  0  0  0
   -2.1160   -0.1043   -0.8799 C   0  0  0  0  0  0  0  0  0  0  0  0
   -1.9935   -1.0789   -1.8721 C   0  0  0  0  0  0  0  0  0  0  0  0
   -3.1165   -1.4847   -2.5961 C   0  0  0  0  0  0  0  0  0  0  0  0
   -4.3626   -0.9206   -2.3314 C   0  0  0  0  0  0  0  0  0  0  0  0
   -4.4915    0.0524   -1.3389 C   0  0  0  0  0  0  0  0  0  0  0  0
   -3.3772    0.4788   -0.5947 C   0  0  0  0  0  0  0  0  0  0  0  0
   -3.5514    1.5383    0.4941 C   0  0  0  0  0  0  0  0  0  0  0  0
   -4.7134    2.0106    0.6812 O   0  0  0  0  0  0  0  0  0  0  0  0
   -2.4974    1.8767    1.1490 O   0  0  0  0  0  0  0  0  0  0  0  0
    6.7343   -2.4006   -0.9437 H   0  0  0  0  0  0  0  0  0  0  0  0
    5.0730    0.5652    1.5751 H   0  0  0  0  0  0  0  0  0  0  0  0
    4.3651   -0.9199    2.2363 H   0  0  0  0  0  0  0  0  0  0  0  0
    2.9837   -0.8058   -0.0013 H   0  0  0  0  0  0  0  0  0  0  0  0
   -0.4131    1.9710    1.9533 H   0  0  0  0  0  0  0  0  0  0  0  0
   -1.3480    1.0760    0.5337 H   0  0  0  0  0  0  0  0  0  0  0  0
   -1.0339   -1.5313   -2.0991 H   0  0  0  0  0  0  0  0  0  0  0  0
   -3.0150   -2.2419   -3.3677 H   0  0  0  0  0  0  0  0  0  0  0  0
   -5.2371   -1.2346   -2.8933 H   0  0  0  0  0  0  0  0  0  0  0  0
   -5.4673    0.4901   -1.1319 H   0  0  0  0  0  0  0  0  0  0  0  0
  1  2  3  0
  2  3  1  0
  3  4  1  0
  4  5  1  0
  5  6  1  0
  6  7  2  0
  7  8  1  0
  8  9  1  0
  9 10  1  0
 10 11  2  0
 10 12  1  0
 12 13  1  0
 13 14  2  0
 14 15  1  0
 15 16  2  0
 16 17  1  0
 17 18  2  0
 18 19  1  0
 19 20  2  0
 19 21  1  0
  9  5  2  0
 18 13  1  0
  1 22  1  0
  3 23  1  0
  3 24  1  0
  4 25  1  0
  8 26  1  0
 12 27  1  0
 14 28  1  0
 15 29  1  0
 16 30  1  0
 17 31  1  0
M  CHG  1  21  -1
M  END
>  <_SMILES>  (122) 
C#CCNc1nn[nH]c1C(=O)Nc1ccccc1C(=O)[O-]

$$$$

     RDKit          3D

 54 59  0  0  0  0  0  0  0  0999 V2000
    4.2166   -1.9974    2.8536 C   0  0  0  0  0  0  0  0  0  0  0  0
    4.2165   -0.6063    2.7649 C   0  0  0  0  0  0  0  0  0  0  0  0
    3.4066    0.0346    1.8245 C   0  0  0  0  0  0  0  0  0  0  0  0
    2.6022   -0.7144    0.9534 C   0  0  0  0  0  0  0  0  0  0  0  0
    1.7355   -0.0657   -0.0269 C   0  0  0  0  0  0  0  0  0  0  0  0
    0.4328   -0.2702   -0.0951 N   0  0  0  0  0  0  0  0  0  0  0  0
   -0.0031    0.6479   -0.9883 C   0  0  0  0  0  0  0  0  0  0  0  0
   -1.2999    0.7765   -1.3009 N   0  0  0  0  0  0  0  0  0  0  0  0
   -2.4107    0.2192   -0.5360 C   0  0  2  0  0  0  0  0  0  0  0  0
   -2.4175   -1.3281   -0.5623 C   0  0  0  0  0  0  0  0  0  0  0  0
   -3.6421   -1.8733    0.1954 C   0  0  1  0  0  0  0  0  0  0  0  0
   -3.6040   -1.3685    1.6486 C   0  0  0  0  0  0  0  0  0  0  0  0
   -3.6411    0.1695    1.6788 C   0  0  2  0  0  0  0  0  0  0  0  0
   -4.9243    0.6588    0.9891 C   0  0  0  0  0  0  0  0  0  0  0  0
   -4.9590    0.1651   -0.4656 C   0  0  2  0  0  0  0  0  0  0  0  0
   -4.9254   -1.3705   -0.4831 C   0  0  0  0  0  0  0  0  0  0  0  0
   -3.7270    0.7041   -1.2099 C   0  0  0  0  0  0  0  0  0  0  0  0
   -2.4166    0.7220    0.9268 C   0  0  0  0  0  0  0  0  0  0  0  0
    0.9458    1.4175   -1.5043 N   0  0  0  0  0  0  0  0  0  0  0  0
    2.0832    0.8852   -0.9840 N   0  0  0  0  0  0  0  0  0  0  0  0
    3.3521    1.3181   -1.4706 C   0  0  0  0  0  0  0  0  0  0  0  0
    3.4202    2.4984   -2.2311 C   0  0  0  0  0  0  0  0  0  0  0  0
    4.6436    2.9546   -2.7273 C   0  0  0  0  0  0  0  0  0  0  0  0
    5.8077    2.2319   -2.4823 C   0  0  0  0  0  0  0  0  0  0  0  0
    5.7479    1.0476   -1.7511 C   0  0  0  0  0  0  0  0  0  0  0  0
    4.5257    0.5859   -1.2513 C   0  0  0  0  0  0  0  0  0  0  0  0
    2.5909   -2.1107    1.0696 C   0  0  0  0  0  0  0  0  0  0  0  0
    3.4006   -2.7499    2.0105 C   0  0  0  0  0  0  0  0  0  0  0  0
    4.8428   -2.4954    3.5897 H   0  0  0  0  0  0  0  0  0  0  0  0
    4.8402   -0.0190    3.4344 H   0  0  0  0  0  0  0  0  0  0  0  0
    3.4052    1.1219    1.7838 H   0  0  0  0  0  0  0  0  0  0  0  0
   -1.5123    1.6173   -1.8249 H   0  0  0  0  0  0  0  0  0  0  0  0
   -1.5138   -1.7411   -0.1015 H   0  0  0  0  0  0  0  0  0  0  0  0
   -2.4264   -1.6905   -1.5986 H   0  0  0  0  0  0  0  0  0  0  0  0
   -3.6242   -2.9688    0.1843 H   0  0  0  0  0  0  0  0  0  0  0  0
   -2.6970   -1.7313    2.1477 H   0  0  0  0  0  0  0  0  0  0  0  0
   -4.4576   -1.7731    2.2063 H   0  0  0  0  0  0  0  0  0  0  0  0
   -3.6241    0.5193    2.7171 H   0  0  0  0  0  0  0  0  0  0  0  0
   -5.8046    0.2914    1.5308 H   0  0  0  0  0  0  0  0  0  0  0  0
   -4.9693    1.7545    1.0147 H   0  0  0  0  0  0  0  0  0  0  0  0
   -5.8726    0.5206   -0.9551 H   0  0  0  0  0  0  0  0  0  0  0  0
   -5.8055   -1.7711    0.0349 H   0  0  0  0  0  0  0  0  0  0  0  0
   -4.9709   -1.7353   -1.5166 H   0  0  0  0  0  0  0  0  0  0  0  0
   -3.7565    0.3798   -2.2589 H   0  0  0  0  0  0  0  0  0  0  0  0
   -3.7615    1.8019   -1.2282 H   0  0  0  0  0  0  0  0  0  0  0  0
   -2.4262    1.8196    0.9519 H   0  0  0  0  0  0  0  0  0  0  0  0
   -1.5078    0.4108    1.4552 H   0  0  0  0  0  0  0  0  0  0  0  0
    2.5255    3.0836   -2.4392 H   0  0  0  0  0  0  0  0  0  0  0  0
    4.6839    3.8730   -3.3076 H   0  0  0  0  0  0  0  0  0  0  0  0
    6.7594    2.5845   -2.8716 H   0  0  0  0  0  0  0  0  0  0  0  0
    6.6545    0.4721   -1.5787 H   0  0  0  0  0  0  0  0  0  0  0  0
    4.5315   -0.3673   -0.7330 H   0  0  0  0  0  0  0  0  0  0  0  0
    1.9436   -2.7052    0.4272 H   0  0  0  0  0  0  0  0  0  0  0  0
    3.3865   -3.8339    2.0905 H   0  0  0  0  0  0  0  0  0  0  0  0
  1  2  2  0
  2  3  1  0
  3  4  2  0
  4  5  1  0
  5  6  2  0
  6  7  1  0
  7  8  1  0
  9  8  1  6
  9 10  1  0
 10 11  1  0
 11 12  1  0
 12 13  1  0
 13 14  1  0
 14 15  1  0
 15 16  1  0
 15 17  1  0
 13 18  1  0
  7 19  2  0
 19 20  1  0
 20 21  1  0
 21 22  2  0
 22 23  1  0
 23 24  2  0
 24 25  1  0
 25 26  2  0
  4 27  1  0
 27 28  2  0
 28  1  1  0
 20  5  1  0
 26 21  1  0
 17  9  1  0
 18  9  1  0
 16 11  1  0
  1 29  1  0
  2 30  1  0
  3 31  1  0
  8 32  1  0
 10 33  1  0
 10 34  1  0
 11 35  1  1
 12 36  1  0
 12 37  1  0
 13 38  1  1
 14 39  1  0
 14 40  1  0
 15 41  1  6
 16 42  1  0
 16 43  1  0
 17 44  1  0
 17 45  1  0
 18 46  1  0
 18 47  1  0
 22 48  1  0
 23 49  1  0
 24 50  1  0
 25 51  1  0
 26 52  1  0
 27 53  1  0
 28 54  1  0
M  END
>  <_SMILES>  (123) 
c1ccc(-c2nc(N[C@]34C[C@H]5C[C@H](C[C@H](C5)C3)C4)nn2-c2ccccc2)cc1

$$$$

     RDKit          3D

 54 59  0  0  0  0  0  0  0  0999 V2000
    3.7625   -3.8276   -0.9260 C   0  0  0  0  0  0  0  0  0  0  0  0
    2.5385   -3.4656   -1.4883 C   0  0  0  0  0  0  0  0  0  0  0  0
    1.8565   -2.3448   -1.0124 C   0  0  0  0  0  0  0  0  0  0  0  0
    2.4060   -1.5776    0.0213 C   0  0  0  0  0  0  0  0  0  0  0  0
    1.6608   -0.3968    0.5167 C   0  0  0  0  0  0  0  0  0  0  0  0
    0.3410   -0.3665    0.4687 N   0  0  0  0  0  0  0  0  0  0  0  0
    0.0160    0.8384    1.0543 C   0  0  0  0  0  0  0  0  0  0  0  0
   -1.1548    1.3537    1.0522 N   0  0  0  0  0  0  0  0  0  0  0  0
   -2.3269    0.6929    0.4719 C   0  0  2  0  0  0  0  0  0  0  0  0
   -2.6567   -0.6478    1.1634 C   0  0  0  0  0  0  0  0  0  0  0  0
   -3.9536   -1.2407    0.5821 C   0  0  1  0  0  0  0  0  0  0  0  0
   -5.1154   -0.2674    0.8359 C   0  0  0  0  0  0  0  0  0  0  0  0
   -4.8256    1.0812    0.1590 C   0  0  2  0  0  0  0  0  0  0  0  0
   -4.6651    0.8666   -1.3539 C   0  0  0  0  0  0  0  0  0  0  0  0
   -3.4997   -0.0977   -1.6250 C   0  0  2  0  0  0  0  0  0  0  0  0
   -3.7835   -1.4439   -0.9343 C   0  0  0  0  0  0  0  0  0  0  0  0
   -2.2005    0.5011   -1.0552 C   0  0  0  0  0  0  0  0  0  0  0  0
   -3.5190    1.6581    0.7265 C   0  0  0  0  0  0  0  0  0  0  0  0
    1.1286    1.4673    1.5727 N   0  0  0  0  0  0  0  0  0  0  0  0
    2.2100    0.7360    1.1214 N   0  0  0  0  0  0  0  0  0  0  0  0
    3.4351    1.3828    0.8161 C   0  0  0  0  0  0  0  0  0  0  0  0
    3.9871    2.2803    1.7478 C   0  0  0  0  0  0  0  0  0  0  0  0
    5.1860    2.9488    1.4877 C   0  0  0  0  0  0  0  0  0  0  0  0
    5.8512    2.7377    0.2839 C   0  0  0  0  0  0  0  0  0  0  0  0
    5.3157    1.8637   -0.6584 C   0  0  0  0  0  0  0  0  0  0  0  0
    4.1158    1.1951   -0.3955 C   0  0  0  0  0  0  0  0  0  0  0  0
    3.6240   -1.9546    0.5974 C   0  0  0  0  0  0  0  0  0  0  0  0
    4.3031   -3.0762    0.1177 C   0  0  0  0  0  0  0  0  0  0  0  0
    4.2909   -4.7035   -1.2950 H   0  0  0  0  0  0  0  0  0  0  0  0
    2.1114   -4.0591   -2.2929 H   0  0  0  0  0  0  0  0  0  0  0  0
    0.8975   -2.0730   -1.4486 H   0  0  0  0  0  0  0  0  0  0  0  0
   -2.7620   -0.5014    2.2462 H   0  0  0  0  0  0  0  0  0  0  0  0
   -1.8512   -1.3775    1.0308 H   0  0  0  0  0  0  0  0  0  0  0  0
   -4.1667   -2.2022    1.0625 H   0  0  0  0  0  0  0  0  0  0  0  0
   -6.0503   -0.6893    0.4470 H   0  0  0  0  0  0  0  0  0  0  0  0
   -5.2553   -0.1236    1.9143 H   0  0  0  0  0  0  0  0  0  0  0  0
   -5.6514    1.7757    0.3488 H   0  0  0  0  0  0  0  0  0  0  0  0
   -4.4808    1.8266   -1.8515 H   0  0  0  0  0  0  0  0  0  0  0  0
   -5.5931    0.4620   -1.7762 H   0  0  0  0  0  0  0  0  0  0  0  0
   -3.3920   -0.2514   -2.7046 H   0  0  0  0  0  0  0  0  0  0  0  0
   -2.9622   -2.1448   -1.1285 H   0  0  0  0  0  0  0  0  0  0  0  0
   -4.6917   -1.8936   -1.3540 H   0  0  0  0  0  0  0  0  0  0  0  0
   -1.9830    1.4605   -1.5422 H   0  0  0  0  0  0  0  0  0  0  0  0
   -1.3698   -0.1654   -1.3094 H   0  0  0  0  0  0  0  0  0  0  0  0
   -3.6321    1.8423    1.8034 H   0  0  0  0  0  0  0  0  0  0  0  0
   -3.3168    2.6364    0.2699 H   0  0  0  0  0  0  0  0  0  0  0  0
    1.1104    2.4607    1.3718 H   0  0  0  0  0  0  0  0  0  0  0  0
    3.4881    2.4480    2.7005 H   0  0  0  0  0  0  0  0  0  0  0  0
    5.5994    3.6309    2.2264 H   0  0  0  0  0  0  0  0  0  0  0  0
    6.7838    3.2569    0.0776 H   0  0  0  0  0  0  0  0  0  0  0  0
    5.8272    1.7052   -1.6049 H   0  0  0  0  0  0  0  0  0  0  0  0
    3.7140    0.5459   -1.1691 H   0  0  0  0  0  0  0  0  0  0  0  0
    4.0480   -1.3937    1.4262 H   0  0  0  0  0  0  0  0  0  0  0  0
    5.2506   -3.3691    0.5636 H   0  0  0  0  0  0  0  0  0  0  0  0
  1  2  2  0
  2  3  1  0
  3  4  2  0
  4  5  1  0
  5  6  2  0
  6  7  1  0
  7  8  2  0
  9  8  1  1
  9 10  1  0
 10 11  1  0
 11 12  1  0
 12 13  1  0
 13 14  1  0
 14 15  1  0
 15 16  1  0
 15 17  1  0
 13 18  1  0
  7 19  1  0
 19 20  1  0
 20 21  1  0
 21 22  2  0
 22 23  1  0
 23 24  2  0
 24 25  1  0
 25 26  2  0
  4 27  1  0
 27 28  2  0
 28  1  1  0
 20  5  1  0
 26 21  1  0
 17  9  1  0
 18  9  1  0
 16 11  1  0
  1 29  1  0
  2 30  1  0
  3 31  1  0
 10 32  1  0
 10 33  1  0
 11 34  1  1
 12 35  1  0
 12 36  1  0
 13 37  1  6
 14 38  1  0
 14 39  1  0
 15 40  1  6
 16 41  1  0
 16 42  1  0
 17 43  1  0
 17 44  1  0
 18 45  1  0
 18 46  1  0
 19 47  1  0
 22 48  1  0
 23 49  1  0
 24 50  1  0
 25 51  1  0
 26 52  1  0
 27 53  1  0
 28 54  1  0
M  END
>  <_SMILES>  (124) 
c1ccc(-c2n/c(=N\[C@]34C[C@H]5C[C@H](C[C@H](C5)C3)C4)[nH]n2-c2ccccc2)cc1

$$$$

     RDKit          3D

 54 59  0  0  0  0  0  0  0  0999 V2000
   -5.9797    2.8661    1.0569 C   0  0  0  0  0  0  0  0  0  0  0  0
   -4.9877    3.5371    0.3421 C   0  0  0  0  0  0  0  0  0  0  0  0
   -3.7309    2.9531    0.1769 C   0  0  0  0  0  0  0  0  0  0  0  0
   -3.4690    1.6894    0.7184 C   0  0  0  0  0  0  0  0  0  0  0  0
   -2.1252    1.0913    0.5360 C   0  0  0  0  0  0  0  0  0  0  0  0
   -1.0572    1.8575    0.4214 N   0  0  0  0  0  0  0  0  0  0  0  0
   -0.0040    0.9658    0.3333 C   0  0  0  0  0  0  0  0  0  0  0  0
    1.1432    1.4599    0.0903 N   0  0  0  0  0  0  0  0  0  0  0  0
    2.3770    0.6921   -0.0451 C   0  0  2  0  0  0  0  0  0  0  0  0
    2.6508   -0.2338    1.1589 C   0  0  0  0  0  0  0  0  0  0  0  0
    4.0087   -0.9400    0.9888 C   0  0  1  0  0  0  0  0  0  0  0  0
    3.9952   -1.7527   -0.3186 C   0  0  0  0  0  0  0  0  0  0  0  0
    3.7616   -0.8223   -1.5223 C   0  0  2  0  0  0  0  0  0  0  0  0
    4.8810    0.2299   -1.5728 C   0  0  0  0  0  0  0  0  0  0  0  0
    4.8872    1.0510   -0.2737 C   0  0  2  0  0  0  0  0  0  0  0  0
    5.1254    0.1132    0.9197 C   0  0  0  0  0  0  0  0  0  0  0  0
    3.5232    1.7391   -0.1072 C   0  0  0  0  0  0  0  0  0  0  0  0
    2.4044   -0.1129   -1.3611 C   0  0  0  0  0  0  0  0  0  0  0  0
   -0.4378   -0.3369    0.4869 N   0  0  0  0  0  0  0  0  0  0  0  0
   -1.8202   -0.2703    0.5267 N   0  0  0  0  0  0  0  0  0  0  0  0
   -2.5960   -1.3329   -0.0049 C   0  0  0  0  0  0  0  0  0  0  0  0
   -2.3146   -2.6518    0.3951 C   0  0  0  0  0  0  0  0  0  0  0  0
   -3.0411   -3.7324   -0.1109 C   0  0  0  0  0  0  0  0  0  0  0  0
   -4.0580   -3.5129   -1.0351 C   0  0  0  0  0  0  0  0  0  0  0  0
   -4.3442   -2.2165   -1.4547 C   0  0  0  0  0  0  0  0  0  0  0  0
   -3.6163   -1.1360   -0.9463 C   0  0  0  0  0  0  0  0  0  0  0  0
   -4.4593    1.0275    1.4528 C   0  0  0  0  0  0  0  0  0  0  0  0
   -5.7155    1.6151    1.6150 C   0  0  0  0  0  0  0  0  0  0  0  0
   -6.9569    3.3244    1.1888 H   0  0  0  0  0  0  0  0  0  0  0  0
   -5.1889    4.5182   -0.0807 H   0  0  0  0  0  0  0  0  0  0  0  0
   -2.9571    3.4860   -0.3723 H   0  0  0  0  0  0  0  0  0  0  0  0
    1.8751   -0.9997    1.2599 H   0  0  0  0  0  0  0  0  0  0  0  0
    2.6397    0.3424    2.0931 H   0  0  0  0  0  0  0  0  0  0  0  0
    4.1849   -1.6093    1.8383 H   0  0  0  0  0  0  0  0  0  0  0  0
    3.2084   -2.5160   -0.2772 H   0  0  0  0  0  0  0  0  0  0  0  0
    4.9478   -2.2837   -0.4372 H   0  0  0  0  0  0  0  0  0  0  0  0
    3.7637   -1.4078   -2.4485 H   0  0  0  0  0  0  0  0  0  0  0  0
    5.8519   -0.2615   -1.7107 H   0  0  0  0  0  0  0  0  0  0  0  0
    4.7340    0.8924   -2.4346 H   0  0  0  0  0  0  0  0  0  0  0  0
    5.6808    1.8051   -0.3162 H   0  0  0  0  0  0  0  0  0  0  0  0
    6.1004   -0.3796    0.8210 H   0  0  0  0  0  0  0  0  0  0  0  0
    5.1536    0.6913    1.8515 H   0  0  0  0  0  0  0  0  0  0  0  0
    3.5248    2.3512    0.8048 H   0  0  0  0  0  0  0  0  0  0  0  0
    3.3552    2.4347   -0.9405 H   0  0  0  0  0  0  0  0  0  0  0  0
    2.2241    0.5508   -2.2169 H   0  0  0  0  0  0  0  0  0  0  0  0
    1.6084   -0.8635   -1.3857 H   0  0  0  0  0  0  0  0  0  0  0  0
   -0.0501   -0.9565   -0.2121 H   0  0  0  0  0  0  0  0  0  0  0  0
   -1.5324   -2.8409    1.1279 H   0  0  0  0  0  0  0  0  0  0  0  0
   -2.8145   -4.7428    0.2199 H   0  0  0  0  0  0  0  0  0  0  0  0
   -4.6255   -4.3514   -1.4313 H   0  0  0  0  0  0  0  0  0  0  0  0
   -5.1314   -2.0427   -2.1846 H   0  0  0  0  0  0  0  0  0  0  0  0
   -3.8482   -0.1425   -1.3216 H   0  0  0  0  0  0  0  0  0  0  0  0
   -4.2631    0.0634    1.9141 H   0  0  0  0  0  0  0  0  0  0  0  0
   -6.4860    1.1011    2.1845 H   0  0  0  0  0  0  0  0  0  0  0  0
  1  2  2  0
  2  3  1  0
  3  4  2  0
  4  5  1  0
  5  6  2  0
  6  7  1  0
  7  8  2  0
  9  8  1  1
  9 10  1  0
 10 11  1  0
 11 12  1  0
 12 13  1  0
 13 14  1  0
 14 15  1  0
 15 16  1  0
 15 17  1  0
 13 18  1  0
  7 19  1  0
 19 20  1  0
 20 21  1  0
 21 22  2  0
 22 23  1  0
 23 24  2  0
 24 25  1  0
 25 26  2  0
  4 27  1  0
 27 28  2  0
 28  1  1  0
 20  5  1  0
 26 21  1  0
 17  9  1  0
 18  9  1  0
 16 11  1  0
  1 29  1  0
  2 30  1  0
  3 31  1  0
 10 32  1  0
 10 33  1  0
 11 34  1  1
 12 35  1  0
 12 36  1  0
 13 37  1  6
 14 38  1  0
 14 39  1  0
 15 40  1  6
 16 41  1  0
 16 42  1  0
 17 43  1  0
 17 44  1  0
 18 45  1  0
 18 46  1  0
 19 47  1  0
 22 48  1  0
 23 49  1  0
 24 50  1  0
 25 51  1  0
 26 52  1  0
 27 53  1  0
 28 54  1  0
M  END
>  <_SMILES>  (125) 
c1ccc(-c2n/c(=N/[C@]34C[C@H]5C[C@H](C[C@H](C5)C3)C4)[nH]n2-c2ccccc2)cc1

$$$$

     RDKit          3D

 51 56  0  0  0  0  0  0  0  0999 V2000
    6.3799   -1.5628    1.9771 C   0  0  0  0  0  0  0  0  0  0  0  0
    6.1648   -1.5052    0.6016 C   0  0  0  0  0  0  0  0  0  0  0  0
    4.8828   -1.2594    0.1019 C   0  0  0  0  0  0  0  0  0  0  0  0
    3.8044   -1.0571    0.9739 C   0  0  0  0  0  0  0  0  0  0  0  0
    2.4491   -0.7993    0.4910 C   0  0  0  0  0  0  0  0  0  0  0  0
    1.3424   -1.3344    0.9784 N   0  0  0  0  0  0  0  0  0  0  0  0
    0.3472   -0.7997    0.2137 C   0  0  0  0  0  0  0  0  0  0  0  0
   -0.8975   -1.2073    0.4957 N   0  0  0  0  0  0  0  0  0  0  0  0
   -2.1164   -0.5254    0.0754 C   0  0  2  0  0  0  0  0  0  0  0  0
   -2.2882   -0.5330   -1.4624 C   0  0  0  0  0  0  0  0  0  0  0  0
   -3.6178    0.1352   -1.8580 C   0  0  1  0  0  0  0  0  0  0  0  0
   -4.7849   -0.6444   -1.2333 C   0  0  0  0  0  0  0  0  0  0  0  0
   -4.6526   -0.6468    0.2971 C   0  0  2  0  0  0  0  0  0  0  0  0
   -4.6717    0.8008    0.8125 C   0  0  0  0  0  0  0  0  0  0  0  0
   -3.5040    1.5911    0.2010 C   0  0  2  0  0  0  0  0  0  0  0  0
   -3.6333    1.5813   -1.3323 C   0  0  0  0  0  0  0  0  0  0  0  0
   -2.1743    0.9275    0.6028 C   0  0  0  0  0  0  0  0  0  0  0  0
   -3.3179   -1.3023    0.6860 C   0  0  0  0  0  0  0  0  0  0  0  0
    0.7559    0.0685   -0.7052 N   0  0  0  0  0  0  0  0  0  0  0  0
    2.0784    0.0752   -0.5027 N   0  0  0  0  0  0  0  0  0  0  0  0
    2.9652    0.9854   -1.2630 C   0  0  0  0  0  0  0  0  0  0  0  0
    3.7925    2.0625   -0.5997 C   0  0  0  0  0  0  0  0  0  0  0  0
    2.6249    2.4468   -1.4568 C   0  0  0  0  0  0  0  0  0  0  0  0
    4.0323   -1.1395    2.3552 C   0  0  0  0  0  0  0  0  0  0  0  0
    5.3132   -1.3848    2.8548 C   0  0  0  0  0  0  0  0  0  0  0  0
    7.3763   -1.7585    2.3651 H   0  0  0  0  0  0  0  0  0  0  0  0
    6.9941   -1.6620   -0.0837 H   0  0  0  0  0  0  0  0  0  0  0  0
    4.7395   -1.2502   -0.9754 H   0  0  0  0  0  0  0  0  0  0  0  0
   -0.9669   -1.7334    1.3591 H   0  0  0  0  0  0  0  0  0  0  0  0
   -1.4708    0.0018   -1.9581 H   0  0  0  0  0  0  0  0  0  0  0  0
   -2.2582   -1.5623   -1.8433 H   0  0  0  0  0  0  0  0  0  0  0  0
   -3.7183    0.1377   -2.9492 H   0  0  0  0  0  0  0  0  0  0  0  0
   -5.7393   -0.1902   -1.5267 H   0  0  0  0  0  0  0  0  0  0  0  0
   -4.7929   -1.6742   -1.6110 H   0  0  0  0  0  0  0  0  0  0  0  0
   -5.4836   -1.2077    0.7392 H   0  0  0  0  0  0  0  0  0  0  0  0
   -4.5984    0.8104    1.9069 H   0  0  0  0  0  0  0  0  0  0  0  0
   -5.6244    1.2786    0.5530 H   0  0  0  0  0  0  0  0  0  0  0  0
   -3.5256    2.6237    0.5671 H   0  0  0  0  0  0  0  0  0  0  0  0
   -4.5652    2.0769   -1.6312 H   0  0  0  0  0  0  0  0  0  0  0  0
   -2.8112    2.1522   -1.7812 H   0  0  0  0  0  0  0  0  0  0  0  0
   -2.0650    0.9406    1.6953 H   0  0  0  0  0  0  0  0  0  0  0  0
   -1.3454    1.5244    0.2038 H   0  0  0  0  0  0  0  0  0  0  0  0
   -3.2314   -1.3356    1.7805 H   0  0  0  0  0  0  0  0  0  0  0  0
   -3.3048   -2.3468    0.3463 H   0  0  0  0  0  0  0  0  0  0  0  0
    3.3917    0.4870   -2.1278 H   0  0  0  0  0  0  0  0  0  0  0  0
    3.6991    2.2071    0.4712 H   0  0  0  0  0  0  0  0  0  0  0  0
    4.7898    2.2434   -0.9841 H   0  0  0  0  0  0  0  0  0  0  0  0
    2.8216    2.8857   -2.4280 H   0  0  0  0  0  0  0  0  0  0  0  0
    1.7365    2.8339   -0.9691 H   0  0  0  0  0  0  0  0  0  0  0  0
    3.2042   -1.0126    3.0508 H   0  0  0  0  0  0  0  0  0  0  0  0
    5.4742   -1.4427    3.9283 H   0  0  0  0  0  0  0  0  0  0  0  0
  1  2  2  0
  2  3  1  0
  3  4  2  0
  4  5  1  0
  5  6  2  0
  6  7  1  0
  7  8  1  0
  9  8  1  6
  9 10  1  0
 10 11  1  0
 11 12  1  0
 12 13  1  0
 13 14  1  0
 14 15  1  0
 15 16  1  0
 15 17  1  0
 13 18  1  0
  7 19  2  0
 19 20  1  0
 20 21  1  0
 21 22  1  0
 22 23  1  0
  4 24  1  0
 24 25  2  0
 25  1  1  0
 20  5  1  0
 23 21  1  0
 17  9  1  0
 18  9  1  0
 16 11  1  0
  1 26  1  0
  2 27  1  0
  3 28  1  0
  8 29  1  0
 10 30  1  0
 10 31  1  0
 11 32  1  6
 12 33  1  0
 12 34  1  0
 13 35  1  1
 14 36  1  0
 14 37  1  0
 15 38  1  1
 16 39  1  0
 16 40  1  0
 17 41  1  0
 17 42  1  0
 18 43  1  0
 18 44  1  0
 21 45  1  0
 22 46  1  0
 22 47  1  0
 23 48  1  0
 23 49  1  0
 24 50  1  0
 25 51  1  0
M  END
>  <_SMILES>  (126) 
c1ccc(-c2nc(N[C@]34C[C@H]5C[C@H](C[C@H](C5)C3)C4)nn2C2CC2)cc1

$$$$

     RDKit          3D

 51 56  0  0  0  0  0  0  0  0999 V2000
    4.0662    3.8297   -0.6281 C   0  0  0  0  0  0  0  0  0  0  0  0
    4.5960    2.9060    0.2735 C   0  0  0  0  0  0  0  0  0  0  0  0
    3.9657    1.6747    0.4671 C   0  0  0  0  0  0  0  0  0  0  0  0
    2.8101    1.3647   -0.2533 C   0  0  0  0  0  0  0  0  0  0  0  0
    2.1026    0.0812   -0.0783 C   0  0  0  0  0  0  0  0  0  0  0  0
    0.7916    0.0541    0.0844 N   0  0  0  0  0  0  0  0  0  0  0  0
    0.5032   -1.2900    0.2145 C   0  0  0  0  0  0  0  0  0  0  0  0
   -0.6772   -1.7831    0.2271 N   0  0  0  0  0  0  0  0  0  0  0  0
   -1.8924   -0.9672    0.1595 C   0  0  2  0  0  0  0  0  0  0  0  0
   -3.0753   -1.9735    0.2350 C   0  0  0  0  0  0  0  0  0  0  0  0
   -4.4255   -1.2422    0.1716 C   0  0  1  0  0  0  0  0  0  0  0  0
   -4.5220   -0.2617    1.3505 C   0  0  0  0  0  0  0  0  0  0  0  0
   -3.3684    0.7514    1.2843 C   0  0  2  0  0  0  0  0  0  0  0  0
   -3.4470    1.5241   -0.0448 C   0  0  0  0  0  0  0  0  0  0  0  0
   -3.3587    0.5510   -1.2344 C   0  0  2  0  0  0  0  0  0  0  0  0
   -4.5124   -0.4606   -1.1483 C   0  0  0  0  0  0  0  0  0  0  0  0
   -2.0165   -0.2015   -1.1759 C   0  0  0  0  0  0  0  0  0  0  0  0
   -2.0262   -0.0001    1.3559 C   0  0  0  0  0  0  0  0  0  0  0  0
    1.6543   -2.0494    0.2515 N   0  0  0  0  0  0  0  0  0  0  0  0
    2.6632   -1.1933   -0.0986 N   0  0  0  0  0  0  0  0  0  0  0  0
    4.0648   -1.5068    0.1570 C   0  0  0  0  0  0  0  0  0  0  0  0
    4.5745   -1.8086    1.5411 C   0  0  0  0  0  0  0  0  0  0  0  0
    4.5378   -2.8951    0.5070 C   0  0  0  0  0  0  0  0  0  0  0  0
    2.2662    2.3024   -1.1388 C   0  0  0  0  0  0  0  0  0  0  0  0
    2.8989    3.5312   -1.3304 C   0  0  0  0  0  0  0  0  0  0  0  0
    4.5557    4.7898   -0.7731 H   0  0  0  0  0  0  0  0  0  0  0  0
    5.4933    3.1519    0.8361 H   0  0  0  0  0  0  0  0  0  0  0  0
    4.3674    0.9876    1.2037 H   0  0  0  0  0  0  0  0  0  0  0  0
   -3.0074   -2.6982   -0.5876 H   0  0  0  0  0  0  0  0  0  0  0  0
   -3.0140   -2.5590    1.1623 H   0  0  0  0  0  0  0  0  0  0  0  0
   -5.2441   -1.9685    0.2263 H   0  0  0  0  0  0  0  0  0  0  0  0
   -5.4847    0.2635    1.3242 H   0  0  0  0  0  0  0  0  0  0  0  0
   -4.4846   -0.8108    2.2994 H   0  0  0  0  0  0  0  0  0  0  0  0
   -3.4439    1.4514    2.1240 H   0  0  0  0  0  0  0  0  0  0  0  0
   -2.6335    2.2579   -0.1002 H   0  0  0  0  0  0  0  0  0  0  0  0
   -4.3873    2.0871   -0.0933 H   0  0  0  0  0  0  0  0  0  0  0  0
   -3.4273    1.1092   -2.1748 H   0  0  0  0  0  0  0  0  0  0  0  0
   -5.4749    0.0615   -1.2128 H   0  0  0  0  0  0  0  0  0  0  0  0
   -4.4680   -1.1529   -1.9980 H   0  0  0  0  0  0  0  0  0  0  0  0
   -1.2057    0.5237   -1.3006 H   0  0  0  0  0  0  0  0  0  0  0  0
   -1.9377   -0.8970   -2.0216 H   0  0  0  0  0  0  0  0  0  0  0  0
   -1.9543   -0.5529    2.3016 H   0  0  0  0  0  0  0  0  0  0  0  0
   -1.2160    0.7363    1.3703 H   0  0  0  0  0  0  0  0  0  0  0  0
    1.5554   -2.9122   -0.2690 H   0  0  0  0  0  0  0  0  0  0  0  0
    4.7248   -0.9571   -0.5104 H   0  0  0  0  0  0  0  0  0  0  0  0
    5.5410   -1.4106    1.8256 H   0  0  0  0  0  0  0  0  0  0  0  0
    3.8553   -1.8561    2.3513 H   0  0  0  0  0  0  0  0  0  0  0  0
    5.4797   -3.2283    0.0866 H   0  0  0  0  0  0  0  0  0  0  0  0
    3.8114   -3.6874    0.6397 H   0  0  0  0  0  0  0  0  0  0  0  0
    1.3491    2.0769   -1.6792 H   0  0  0  0  0  0  0  0  0  0  0  0
    2.4771    4.2570   -2.0210 H   0  0  0  0  0  0  0  0  0  0  0  0
  1  2  2  0
  2  3  1  0
  3  4  2  0
  4  5  1  0
  5  6  2  0
  6  7  1  0
  7  8  2  0
  9  8  1  6
  9 10  1  0
 10 11  1  0
 11 12  1  0
 12 13  1  0
 13 14  1  0
 14 15  1  0
 15 16  1  0
 15 17  1  0
 13 18  1  0
  7 19  1  0
 19 20  1  0
 20 21  1  0
 21 22  1  0
 22 23  1  0
  4 24  1  0
 24 25  2  0
 25  1  1  0
 20  5  1  0
 23 21  1  0
 17  9  1  0
 18  9  1  0
 16 11  1  0
  1 26  1  0
  2 27  1  0
  3 28  1  0
 10 29  1  0
 10 30  1  0
 11 31  1  1
 12 32  1  0
 12 33  1  0
 13 34  1  1
 14 35  1  0
 14 36  1  0
 15 37  1  6
 16 38  1  0
 16 39  1  0
 17 40  1  0
 17 41  1  0
 18 42  1  0
 18 43  1  0
 19 44  1  0
 21 45  1  0
 22 46  1  0
 22 47  1  0
 23 48  1  0
 23 49  1  0
 24 50  1  0
 25 51  1  0
M  END
>  <_SMILES>  (127) 
c1ccc(-c2n/c(=N\[C@]34C[C@H]5C[C@H](C[C@H](C5)C3)C4)[nH]n2C2CC2)cc1

$$$$

     RDKit          3D

 51 56  0  0  0  0  0  0  0  0999 V2000
    6.4844    0.6760   -2.1632 C   0  0  0  0  0  0  0  0  0  0  0  0
    5.9926    1.3465   -1.0433 C   0  0  0  0  0  0  0  0  0  0  0  0
    4.6661    1.1660   -0.6491 C   0  0  0  0  0  0  0  0  0  0  0  0
    3.8334    0.3036   -1.3702 C   0  0  0  0  0  0  0  0  0  0  0  0
    2.4289    0.1303   -0.9380 C   0  0  0  0  0  0  0  0  0  0  0  0
    1.7705    1.1059   -0.3451 N   0  0  0  0  0  0  0  0  0  0  0  0
    0.5158    0.5753   -0.1132 C   0  0  0  0  0  0  0  0  0  0  0  0
   -0.3626    1.3653    0.3597 N   0  0  0  0  0  0  0  0  0  0  0  0
   -1.7381    0.9939    0.6761 C   0  0  2  0  0  0  0  0  0  0  0  0
   -1.8344   -0.2251    1.6182 C   0  0  0  0  0  0  0  0  0  0  0  0
   -3.3052   -0.5019    1.9808 C   0  0  1  0  0  0  0  0  0  0  0  0
   -3.8901    0.7209    2.7046 C   0  0  0  0  0  0  0  0  0  0  0  0
   -3.8151    1.9546    1.7918 C   0  0  2  0  0  0  0  0  0  0  0  0
   -4.6202    1.6887    0.5101 C   0  0  0  0  0  0  0  0  0  0  0  0
   -4.0400    0.4732   -0.2306 C   0  0  2  0  0  0  0  0  0  0  0  0
   -4.1041   -0.7587    0.6902 C   0  0  0  0  0  0  0  0  0  0  0  0
   -2.5721    0.7566   -0.6000 C   0  0  0  0  0  0  0  0  0  0  0  0
   -2.3471    2.2150    1.4189 C   0  0  0  0  0  0  0  0  0  0  0  0
    0.4633   -0.7500   -0.4918 N   0  0  0  0  0  0  0  0  0  0  0  0
    1.6681   -1.0355   -1.1056 N   0  0  0  0  0  0  0  0  0  0  0  0
    2.3048   -2.3337   -0.7859 C   0  0  0  0  0  0  0  0  0  0  0  0
    1.5958   -3.4451   -0.0541 C   0  0  0  0  0  0  0  0  0  0  0  0
    2.7072   -2.6944    0.6202 C   0  0  0  0  0  0  0  0  0  0  0  0
    4.3223   -0.3526   -2.5042 C   0  0  0  0  0  0  0  0  0  0  0  0
    5.6500   -0.1688   -2.8960 C   0  0  0  0  0  0  0  0  0  0  0  0
    7.5168    0.8221   -2.4719 H   0  0  0  0  0  0  0  0  0  0  0  0
    6.6386    2.0152   -0.4799 H   0  0  0  0  0  0  0  0  0  0  0  0
    4.2835    1.6978    0.2198 H   0  0  0  0  0  0  0  0  0  0  0  0
   -1.4193   -1.1251    1.1532 H   0  0  0  0  0  0  0  0  0  0  0  0
   -1.2478   -0.0499    2.5293 H   0  0  0  0  0  0  0  0  0  0  0  0
   -3.3648   -1.3802    2.6334 H   0  0  0  0  0  0  0  0  0  0  0  0
   -3.3366    0.9070    3.6332 H   0  0  0  0  0  0  0  0  0  0  0  0
   -4.9317    0.5265    2.9880 H   0  0  0  0  0  0  0  0  0  0  0  0
   -4.2261    2.8263    2.3131 H   0  0  0  0  0  0  0  0  0  0  0  0
   -4.5928    2.5719   -0.1400 H   0  0  0  0  0  0  0  0  0  0  0  0
   -5.6733    1.5090    0.7589 H   0  0  0  0  0  0  0  0  0  0  0  0
   -4.6195    0.2851   -1.1413 H   0  0  0  0  0  0  0  0  0  0  0  0
   -5.1485   -0.9854    0.9373 H   0  0  0  0  0  0  0  0  0  0  0  0
   -3.7024   -1.6366    0.1694 H   0  0  0  0  0  0  0  0  0  0  0  0
   -2.5139    1.6315   -1.2606 H   0  0  0  0  0  0  0  0  0  0  0  0
   -2.1840   -0.0874   -1.1785 H   0  0  0  0  0  0  0  0  0  0  0  0
   -1.7667    2.4331    2.3255 H   0  0  0  0  0  0  0  0  0  0  0  0
   -2.2786    3.1129    0.7899 H   0  0  0  0  0  0  0  0  0  0  0  0
   -0.3677   -1.0035   -1.0065 H   0  0  0  0  0  0  0  0  0  0  0  0
    2.9698   -2.6582   -1.5812 H   0  0  0  0  0  0  0  0  0  0  0  0
    1.7913   -4.4633   -0.3701 H   0  0  0  0  0  0  0  0  0  0  0  0
    0.5899   -3.2851    0.3140 H   0  0  0  0  0  0  0  0  0  0  0  0
    3.6566   -3.1974    0.7596 H   0  0  0  0  0  0  0  0  0  0  0  0
    2.4452   -2.0108    1.4203 H   0  0  0  0  0  0  0  0  0  0  0  0
    3.6756   -0.9866   -3.1035 H   0  0  0  0  0  0  0  0  0  0  0  0
    6.0323   -0.6750   -3.7790 H   0  0  0  0  0  0  0  0  0  0  0  0
  1  2  2  0
  2  3  1  0
  3  4  2  0
  4  5  1  0
  5  6  2  0
  6  7  1  0
  7  8  2  0
  9  8  1  6
  9 10  1  0
 10 11  1  0
 11 12  1  0
 12 13  1  0
 13 14  1  0
 14 15  1  0
 15 16  1  0
 15 17  1  0
 13 18  1  0
  7 19  1  0
 19 20  1  0
 20 21  1  0
 21 22  1  0
 22 23  1  0
  4 24  1  0
 24 25  2  0
 25  1  1  0
 20  5  1  0
 23 21  1  0
 17  9  1  0
 18  9  1  0
 16 11  1  0
  1 26  1  0
  2 27  1  0
  3 28  1  0
 10 29  1  0
 10 30  1  0
 11 31  1  1
 12 32  1  0
 12 33  1  0
 13 34  1  1
 14 35  1  0
 14 36  1  0
 15 37  1  6
 16 38  1  0
 16 39  1  0
 17 40  1  0
 17 41  1  0
 18 42  1  0
 18 43  1  0
 19 44  1  0
 21 45  1  0
 22 46  1  0
 22 47  1  0
 23 48  1  0
 23 49  1  0
 24 50  1  0
 25 51  1  0
M  END
>  <_SMILES>  (128) 
c1ccc(-c2n/c(=N/[C@]34C[C@H]5C[C@H](C[C@H](C5)C3)C4)[nH]n2C2CC2)cc1

$$$$

     RDKit          3D

 57 61  0  0  0  0  0  0  0  0999 V2000
    5.0295   -1.5955    0.8608 C   0  0  0  0  0  0  0  0  0  0  0  0
    4.2011   -1.4876   -0.3939 C   0  0  0  0  0  0  0  0  0  0  0  0
    5.0100   -1.2989   -1.6477 C   0  0  0  0  0  0  0  0  0  0  0  0
    2.8561   -1.5530   -0.3315 C   0  0  0  0  0  0  0  0  0  0  0  0
    1.8585   -1.4558   -1.4544 C   0  0  0  0  0  0  0  0  0  0  0  0
    0.9547   -0.3309   -1.2728 N   0  0  0  0  0  0  0  0  0  0  0  0
   -0.2419   -0.5145   -0.6823 N   0  0  0  0  0  0  0  0  0  0  0  0
   -0.7208    0.7258   -0.6426 C   0  0  0  0  0  0  0  0  0  0  0  0
   -1.8876    1.1670   -0.1540 N   0  0  0  0  0  0  0  0  0  0  0  0
   -2.7358    0.4278    0.7735 C   0  0  2  0  0  0  0  0  0  0  0  0
   -3.9383    1.3460    1.1354 C   0  0  0  0  0  0  0  0  0  0  0  0
   -4.8890    0.6463    2.1197 C   0  0  1  0  0  0  0  0  0  0  0  0
   -5.4209   -0.6427    1.4753 C   0  0  0  0  0  0  0  0  0  0  0  0
   -4.2504   -1.5747    1.1267 C   0  0  2  0  0  0  0  0  0  0  0  0
   -3.4736   -1.9170    2.4102 C   0  0  0  0  0  0  0  0  0  0  0  0
   -2.9380   -0.6323    3.0661 C   0  0  2  0  0  0  0  0  0  0  0  0
   -4.1173    0.2945    3.4012 C   0  0  0  0  0  0  0  0  0  0  0  0
   -1.9915    0.0827    2.0847 C   0  0  0  0  0  0  0  0  0  0  0  0
   -3.3078   -0.8625    0.1392 C   0  0  0  0  0  0  0  0  0  0  0  0
    0.1105    1.6728   -1.1631 N   0  0  0  0  0  0  0  0  0  0  0  0
    1.1591    0.9904   -1.5798 C   0  0  0  0  0  0  0  0  0  0  0  0
    2.3511    1.5408   -2.2089 C   0  0  0  0  0  0  0  0  0  0  0  0
    2.6431    1.2761   -3.5530 C   0  0  0  0  0  0  0  0  0  0  0  0
    3.7953    1.8028   -4.1405 C   0  0  0  0  0  0  0  0  0  0  0  0
    4.6571    2.6029   -3.3913 C   0  0  0  0  0  0  0  0  0  0  0  0
    4.3645    2.8849   -2.0576 C   0  0  0  0  0  0  0  0  0  0  0  0
    3.2122    2.3599   -1.4697 C   0  0  0  0  0  0  0  0  0  0  0  0
    5.7061   -2.4538    0.7956 H   0  0  0  0  0  0  0  0  0  0  0  0
    5.6281   -0.6890    0.9981 H   0  0  0  0  0  0  0  0  0  0  0  0
    4.4135   -1.7253    1.7569 H   0  0  0  0  0  0  0  0  0  0  0  0
    5.5808   -0.3664   -1.5899 H   0  0  0  0  0  0  0  0  0  0  0  0
    5.7163   -2.1275   -1.7662 H   0  0  0  0  0  0  0  0  0  0  0  0
    4.4054   -1.2597   -2.5554 H   0  0  0  0  0  0  0  0  0  0  0  0
    2.3892   -1.6929    0.6451 H   0  0  0  0  0  0  0  0  0  0  0  0
    2.3101   -1.3626   -2.4432 H   0  0  0  0  0  0  0  0  0  0  0  0
    1.2469   -2.3658   -1.4728 H   0  0  0  0  0  0  0  0  0  0  0  0
   -1.9274    2.1762   -0.0706 H   0  0  0  0  0  0  0  0  0  0  0  0
   -3.5790    2.2849    1.5780 H   0  0  0  0  0  0  0  0  0  0  0  0
   -4.4868    1.6268    0.2261 H   0  0  0  0  0  0  0  0  0  0  0  0
   -5.7257    1.3108    2.3625 H   0  0  0  0  0  0  0  0  0  0  0  0
   -6.1114   -1.1480    2.1616 H   0  0  0  0  0  0  0  0  0  0  0  0
   -5.9913   -0.4020    0.5697 H   0  0  0  0  0  0  0  0  0  0  0  0
   -4.6346   -2.4942    0.6710 H   0  0  0  0  0  0  0  0  0  0  0  0
   -4.1281   -2.4490    3.1116 H   0  0  0  0  0  0  0  0  0  0  0  0
   -2.6420   -2.5928    2.1759 H   0  0  0  0  0  0  0  0  0  0  0  0
   -2.3949   -0.8846    3.9837 H   0  0  0  0  0  0  0  0  0  0  0  0
   -3.7501    1.2099    3.8813 H   0  0  0  0  0  0  0  0  0  0  0  0
   -4.7866   -0.1951    4.1193 H   0  0  0  0  0  0  0  0  0  0  0  0
   -1.5926    0.9949    2.5476 H   0  0  0  0  0  0  0  0  0  0  0  0
   -1.1287   -0.5651    1.8887 H   0  0  0  0  0  0  0  0  0  0  0  0
   -2.5092   -1.5582   -0.1400 H   0  0  0  0  0  0  0  0  0  0  0  0
   -3.8464   -0.6243   -0.7874 H   0  0  0  0  0  0  0  0  0  0  0  0
    1.9684    0.6714   -4.1546 H   0  0  0  0  0  0  0  0  0  0  0  0
    4.0152    1.5978   -5.1852 H   0  0  0  0  0  0  0  0  0  0  0  0
    5.5511    3.0175   -3.8502 H   0  0  0  0  0  0  0  0  0  0  0  0
    5.0287    3.5190   -1.4761 H   0  0  0  0  0  0  0  0  0  0  0  0
    2.9852    2.5916   -0.4309 H   0  0  0  0  0  0  0  0  0  0  0  0
  1  2  1  0
  2  3  1  0
  2  4  2  3
  4  5  1  0
  5  6  1  0
  6  7  1  0
  7  8  2  0
  8  9  1  0
 10  9  1  6
 10 11  1  0
 11 12  1  0
 12 13  1  0
 13 14  1  0
 14 15  1  0
 15 16  1  0
 16 17  1  0
 16 18  1  0
 14 19  1  0
  8 20  1  0
 20 21  2  0
 21 22  1  0
 22 23  2  0
 23 24  1  0
 24 25  2  0
 25 26  1  0
 26 27  2  0
 21  6  1  0
 27 22  1  0
 18 10  1  0
 19 10  1  0
 17 12  1  0
  1 28  1  0
  1 29  1  0
  1 30  1  0
  3 31  1  0
  3 32  1  0
  3 33  1  0
  4 34  1  0
  5 35  1  0
  5 36  1  0
  9 37  1  0
 11 38  1  0
 11 39  1  0
 12 40  1  1
 13 41  1  0
 13 42  1  0
 14 43  1  6
 15 44  1  0
 15 45  1  0
 16 46  1  1
 17 47  1  0
 17 48  1  0
 18 49  1  0
 18 50  1  0
 19 51  1  0
 19 52  1  0
 23 53  1  0
 24 54  1  0
 25 55  1  0
 26 56  1  0
 27 57  1  0
M  END
>  <_SMILES>  (129) 
CC(C)=CCn1nc(N[C@]23C[C@H]4C[C@H](C[C@H](C4)C2)C3)nc1-c1ccccc1

$$$$

     RDKit          3D

 57 61  0  0  0  0  0  0  0  0999 V2000
   -4.6518    2.1128   -1.6294 C   0  0  0  0  0  0  0  0  0  0  0  0
   -4.3622    0.6422   -1.4766 C   0  0  0  0  0  0  0  0  0  0  0  0
   -4.5378   -0.1561   -2.7385 C   0  0  0  0  0  0  0  0  0  0  0  0
   -3.9566    0.1423   -0.2917 C   0  0  0  0  0  0  0  0  0  0  0  0
   -3.6391   -1.2863    0.0604 C   0  0  0  0  0  0  0  0  0  0  0  0
   -2.1932   -1.4972    0.1618 N   0  0  0  0  0  0  0  0  0  0  0  0
   -1.4674   -1.4597   -1.0231 N   0  0  0  0  0  0  0  0  0  0  0  0
   -0.2374   -0.9235   -0.7075 C   0  0  0  0  0  0  0  0  0  0  0  0
    0.7688   -0.9292   -1.4976 N   0  0  0  0  0  0  0  0  0  0  0  0
    2.0772   -0.3773   -1.1368 C   0  0  2  0  0  0  0  0  0  0  0  0
    2.9714   -0.5680   -2.3945 C   0  0  0  0  0  0  0  0  0  0  0  0
    4.3888   -0.0266   -2.1499 C   0  0  1  0  0  0  0  0  0  0  0  0
    4.3042    1.4703   -1.8140 C   0  0  0  0  0  0  0  0  0  0  0  0
    3.4359    1.6777   -0.5632 C   0  0  2  0  0  0  0  0  0  0  0  0
    4.0573    0.9120    0.6189 C   0  0  0  0  0  0  0  0  0  0  0  0
    4.1541   -0.5891    0.2912 C   0  0  2  0  0  0  0  0  0  0  0  0
    5.0167   -0.7787   -0.9663 C   0  0  0  0  0  0  0  0  0  0  0  0
    2.7417   -1.1432    0.0278 C   0  0  0  0  0  0  0  0  0  0  0  0
    2.0198    1.1355   -0.8310 C   0  0  0  0  0  0  0  0  0  0  0  0
   -0.2166   -0.4554    0.5885 N   0  0  0  0  0  0  0  0  0  0  0  0
   -1.3828   -0.8219    1.0823 C   0  0  0  0  0  0  0  0  0  0  0  0
   -1.7448   -0.5230    2.4839 C   0  0  0  0  0  0  0  0  0  0  0  0
   -2.5135   -1.4198    3.2315 C   0  0  0  0  0  0  0  0  0  0  0  0
   -2.8408   -1.1177    4.5547 C   0  0  0  0  0  0  0  0  0  0  0  0
   -2.3927    0.0714    5.1315 C   0  0  0  0  0  0  0  0  0  0  0  0
   -1.6085    0.9570    4.3919 C   0  0  0  0  0  0  0  0  0  0  0  0
   -1.2784    0.6584    3.0695 C   0  0  0  0  0  0  0  0  0  0  0  0
   -3.9865    2.5549   -2.3783 H   0  0  0  0  0  0  0  0  0  0  0  0
   -5.6876    2.2628   -1.9513 H   0  0  0  0  0  0  0  0  0  0  0  0
   -4.5117    2.6642   -0.6937 H   0  0  0  0  0  0  0  0  0  0  0  0
   -4.2330   -1.2000   -2.6384 H   0  0  0  0  0  0  0  0  0  0  0  0
   -5.5878   -0.1428   -3.0485 H   0  0  0  0  0  0  0  0  0  0  0  0
   -3.9350    0.2769   -3.5439 H   0  0  0  0  0  0  0  0  0  0  0  0
   -3.8488    0.8319    0.5449 H   0  0  0  0  0  0  0  0  0  0  0  0
   -4.0537   -1.9898   -0.6685 H   0  0  0  0  0  0  0  0  0  0  0  0
   -4.1339   -1.5334    1.0049 H   0  0  0  0  0  0  0  0  0  0  0  0
   -1.3889   -2.3023   -1.5811 H   0  0  0  0  0  0  0  0  0  0  0  0
    3.0222   -1.6316   -2.6637 H   0  0  0  0  0  0  0  0  0  0  0  0
    2.5232   -0.0568   -3.2572 H   0  0  0  0  0  0  0  0  0  0  0  0
    5.0012   -0.1707   -3.0469 H   0  0  0  0  0  0  0  0  0  0  0  0
    3.8786    2.0215   -2.6615 H   0  0  0  0  0  0  0  0  0  0  0  0
    5.3098    1.8742   -1.6441 H   0  0  0  0  0  0  0  0  0  0  0  0
    3.3823    2.7459   -0.3248 H   0  0  0  0  0  0  0  0  0  0  0  0
    3.4511    1.0600    1.5211 H   0  0  0  0  0  0  0  0  0  0  0  0
    5.0557    1.3106    0.8373 H   0  0  0  0  0  0  0  0  0  0  0  0
    4.6080   -1.1230    1.1335 H   0  0  0  0  0  0  0  0  0  0  0  0
    6.0332   -0.4090   -0.7834 H   0  0  0  0  0  0  0  0  0  0  0  0
    5.1040   -1.8460   -1.2037 H   0  0  0  0  0  0  0  0  0  0  0  0
    2.1575   -1.0586    0.9500 H   0  0  0  0  0  0  0  0  0  0  0  0
    2.7949   -2.2150   -0.2034 H   0  0  0  0  0  0  0  0  0  0  0  0
    1.5621    1.6758   -1.6699 H   0  0  0  0  0  0  0  0  0  0  0  0
    1.3961    1.3456    0.0441 H   0  0  0  0  0  0  0  0  0  0  0  0
   -2.8381   -2.3642    2.8047 H   0  0  0  0  0  0  0  0  0  0  0  0
   -3.4350   -1.8141    5.1413 H   0  0  0  0  0  0  0  0  0  0  0  0
   -2.6442    0.3031    6.1638 H   0  0  0  0  0  0  0  0  0  0  0  0
   -1.2482    1.8767    4.8460 H   0  0  0  0  0  0  0  0  0  0  0  0
   -0.6595    1.3462    2.4970 H   0  0  0  0  0  0  0  0  0  0  0  0
  1  2  1  0
  2  3  1  0
  2  4  2  3
  4  5  1  0
  5  6  1  0
  6  7  1  0
  7  8  1  0
  8  9  2  0
 10  9  1  6
 10 11  1  0
 11 12  1  0
 12 13  1  0
 13 14  1  0
 14 15  1  0
 15 16  1  0
 16 17  1  0
 16 18  1  0
 14 19  1  0
  8 20  1  0
 20 21  2  0
 21 22  1  0
 22 23  2  0
 23 24  1  0
 24 25  2  0
 25 26  1  0
 26 27  2  0
 21  6  1  0
 27 22  1  0
 18 10  1  0
 19 10  1  0
 17 12  1  0
  1 28  1  0
  1 29  1  0
  1 30  1  0
  3 31  1  0
  3 32  1  0
  3 33  1  0
  4 34  1  0
  5 35  1  0
  5 36  1  0
  7 37  1  0
 11 38  1  0
 11 39  1  0
 12 40  1  6
 13 41  1  0
 13 42  1  0
 14 43  1  1
 15 44  1  0
 15 45  1  0
 16 46  1  1
 17 47  1  0
 17 48  1  0
 18 49  1  0
 18 50  1  0
 19 51  1  0
 19 52  1  0
 23 53  1  0
 24 54  1  0
 25 55  1  0
 26 56  1  0
 27 57  1  0
M  END
>  <_SMILES>  (130) 
CC(C)=CCn1[nH]/c(=N/[C@]23C[C@H]4C[C@H](C[C@H](C4)C2)C3)nc1-c1ccccc1

$$$$

     RDKit          3D

 57 61  0  0  0  0  0  0  0  0999 V2000
   -2.0966   -3.0444   -0.0857 C   0  0  0  0  0  0  0  0  0  0  0  0
   -2.5872   -2.3462   -1.3249 C   0  0  0  0  0  0  0  0  0  0  0  0
   -2.6148   -3.2150   -2.5554 C   0  0  0  0  0  0  0  0  0  0  0  0
   -2.9654   -1.0530   -1.3863 C   0  0  0  0  0  0  0  0  0  0  0  0
   -3.0271   -0.0461   -0.2672 C   0  0  0  0  0  0  0  0  0  0  0  0
   -1.8874    0.8665   -0.4016 N   0  0  0  0  0  0  0  0  0  0  0  0
   -0.6397    0.3009   -0.1380 N   0  0  0  0  0  0  0  0  0  0  0  0
    0.0813    1.2288    0.5821 C   0  0  0  0  0  0  0  0  0  0  0  0
    1.2961    1.2646    0.9599 N   0  0  0  0  0  0  0  0  0  0  0  0
    2.2709    0.2047    0.7190 C   0  0  2  0  0  0  0  0  0  0  0  0
    2.6795    0.1330   -0.7671 C   0  0  0  0  0  0  0  0  0  0  0  0
    3.7841   -0.9216   -0.9645 C   0  0  1  0  0  0  0  0  0  0  0  0
    5.0188   -0.5224   -0.1405 C   0  0  0  0  0  0  0  0  0  0  0  0
    4.6511   -0.4433    1.3495 C   0  0  2  0  0  0  0  0  0  0  0  0
    4.1478   -1.8158    1.8223 C   0  0  0  0  0  0  0  0  0  0  0  0
    2.9074   -2.2255    1.0134 C   0  0  2  0  0  0  0  0  0  0  0  0
    3.2729   -2.2905   -0.4806 C   0  0  0  0  0  0  0  0  0  0  0  0
    1.7972   -1.1781    1.2165 C   0  0  0  0  0  0  0  0  0  0  0  0
    3.5327    0.5942    1.5376 C   0  0  0  0  0  0  0  0  0  0  0  0
   -0.7089    2.3166    0.8994 N   0  0  0  0  0  0  0  0  0  0  0  0
   -1.8559    2.0800    0.2972 C   0  0  0  0  0  0  0  0  0  0  0  0
   -2.9734    3.0471    0.3690 C   0  0  0  0  0  0  0  0  0  0  0  0
   -3.8676    3.1851   -0.6977 C   0  0  0  0  0  0  0  0  0  0  0  0
   -4.9126    4.1073   -0.6139 C   0  0  0  0  0  0  0  0  0  0  0  0
   -5.0577    4.8966    0.5275 C   0  0  0  0  0  0  0  0  0  0  0  0
   -4.1543    4.7739    1.5836 C   0  0  0  0  0  0  0  0  0  0  0  0
   -3.1082    3.8538    1.5035 C   0  0  0  0  0  0  0  0  0  0  0  0
   -2.7809   -3.8551    0.1850 H   0  0  0  0  0  0  0  0  0  0  0  0
   -1.1054   -3.4748   -0.2654 H   0  0  0  0  0  0  0  0  0  0  0  0
   -2.0049   -2.3834    0.7788 H   0  0  0  0  0  0  0  0  0  0  0  0
   -3.2745   -4.0744   -2.3971 H   0  0  0  0  0  0  0  0  0  0  0  0
   -1.6092   -3.5841   -2.7816 H   0  0  0  0  0  0  0  0  0  0  0  0
   -2.9772   -2.6758   -3.4369 H   0  0  0  0  0  0  0  0  0  0  0  0
   -3.2874   -0.6520   -2.3465 H   0  0  0  0  0  0  0  0  0  0  0  0
   -3.0279   -0.5119    0.7235 H   0  0  0  0  0  0  0  0  0  0  0  0
   -3.9799    0.4852   -0.3545 H   0  0  0  0  0  0  0  0  0  0  0  0
   -0.1527   -0.1068   -0.9257 H   0  0  0  0  0  0  0  0  0  0  0  0
    1.8274   -0.1249   -1.4033 H   0  0  0  0  0  0  0  0  0  0  0  0
    3.0315    1.1138   -1.1125 H   0  0  0  0  0  0  0  0  0  0  0  0
    4.0520   -0.9805   -2.0254 H   0  0  0  0  0  0  0  0  0  0  0  0
    5.8224   -1.2537   -0.2905 H   0  0  0  0  0  0  0  0  0  0  0  0
    5.4016    0.4464   -0.4843 H   0  0  0  0  0  0  0  0  0  0  0  0
    5.5310   -0.1505    1.9330 H   0  0  0  0  0  0  0  0  0  0  0  0
    4.9384   -2.5669    1.7032 H   0  0  0  0  0  0  0  0  0  0  0  0
    3.9028   -1.7780    2.8909 H   0  0  0  0  0  0  0  0  0  0  0  0
    2.5544   -3.2066    1.3506 H   0  0  0  0  0  0  0  0  0  0  0  0
    4.0432   -3.0545   -0.6428 H   0  0  0  0  0  0  0  0  0  0  0  0
    2.3968   -2.5920   -1.0678 H   0  0  0  0  0  0  0  0  0  0  0  0
    0.9054   -1.5148    0.6785 H   0  0  0  0  0  0  0  0  0  0  0  0
    1.5168   -1.1262    2.2764 H   0  0  0  0  0  0  0  0  0  0  0  0
    3.8918    1.5856    1.2300 H   0  0  0  0  0  0  0  0  0  0  0  0
    3.2800    0.6788    2.6031 H   0  0  0  0  0  0  0  0  0  0  0  0
   -3.7457    2.5990   -1.6042 H   0  0  0  0  0  0  0  0  0  0  0  0
   -5.6072    4.2201   -1.4426 H   0  0  0  0  0  0  0  0  0  0  0  0
   -5.8684    5.6187    0.5897 H   0  0  0  0  0  0  0  0  0  0  0  0
   -4.2587    5.3994    2.4667 H   0  0  0  0  0  0  0  0  0  0  0  0
   -2.3984    3.7683    2.3240 H   0  0  0  0  0  0  0  0  0  0  0  0
  1  2  1  0
  2  3  1  0
  2  4  2  3
  4  5  1  0
  5  6  1  0
  6  7  1  0
  7  8  1  0
  8  9  2  0
 10  9  1  6
 10 11  1  0
 11 12  1  0
 12 13  1  0
 13 14  1  0
 14 15  1  0
 15 16  1  0
 16 17  1  0
 16 18  1  0
 14 19  1  0
  8 20  1  0
 20 21  2  0
 21 22  1  0
 22 23  2  0
 23 24  1  0
 24 25  2  0
 25 26  1  0
 26 27  2  0
 21  6  1  0
 27 22  1  0
 18 10  1  0
 19 10  1  0
 17 12  1  0
  1 28  1  0
  1 29  1  0
  1 30  1  0
  3 31  1  0
  3 32  1  0
  3 33  1  0
  4 34  1  0
  5 35  1  0
  5 36  1  0
  7 37  1  0
 11 38  1  0
 11 39  1  0
 12 40  1  6
 13 41  1  0
 13 42  1  0
 14 43  1  1
 15 44  1  0
 15 45  1  0
 16 46  1  1
 17 47  1  0
 17 48  1  0
 18 49  1  0
 18 50  1  0
 19 51  1  0
 19 52  1  0
 23 53  1  0
 24 54  1  0
 25 55  1  0
 26 56  1  0
 27 57  1  0
M  END
>  <_SMILES>  (131) 
CC(C)=CCn1[nH]/c(=N\[C@]23C[C@H]4C[C@H](C[C@H](C4)C2)C3)nc1-c1ccccc1

$$$$

     RDKit          3D

 47 51  0  0  0  0  0  0  0  0999 V2000
    2.2034   -0.2145    2.0609 C   0  0  0  0  0  0  0  0  0  0  0  0
    1.9470   -0.1794    0.6451 N   0  0  0  0  0  0  0  0  0  0  0  0
    0.7131   -0.1350    0.0372 C   0  0  0  0  0  0  0  0  0  0  0  0
   -0.4436   -0.2142    0.7394 N   0  0  0  0  0  0  0  0  0  0  0  0
   -1.7560   -0.0196    0.1116 C   0  0  2  0  0  0  0  0  0  0  0  0
   -1.9035    1.4013   -0.4808 C   0  0  0  0  0  0  0  0  0  0  0  0
   -3.3142    1.5932   -1.0668 C   0  0  1  0  0  0  0  0  0  0  0  0
   -3.5583    0.5372   -2.1592 C   0  0  0  0  0  0  0  0  0  0  0  0
   -3.4534   -0.8781   -1.5641 C   0  0  2  0  0  0  0  0  0  0  0  0
   -4.4949   -1.0367   -0.4458 C   0  0  0  0  0  0  0  0  0  0  0  0
   -4.2466    0.0084    0.6524 C   0  0  2  0  0  0  0  0  0  0  0  0
   -4.3564    1.4174    0.0489 C   0  0  0  0  0  0  0  0  0  0  0  0
   -2.8326   -0.1863    1.2224 C   0  0  0  0  0  0  0  0  0  0  0  0
   -2.0432   -1.0787   -0.9796 C   0  0  0  0  0  0  0  0  0  0  0  0
    0.8989   -0.0147   -1.2578 N   0  0  0  0  0  0  0  0  0  0  0  0
    2.2471    0.0049   -1.5090 N   0  0  0  0  0  0  0  0  0  0  0  0
    2.8847   -0.1432   -0.3640 C   0  0  0  0  0  0  0  0  0  0  0  0
    4.3353   -0.2144   -0.2093 C   0  0  0  0  0  0  0  0  0  0  0  0
    5.1431    0.7446   -0.8342 C   0  0  0  0  0  0  0  0  0  0  0  0
    6.5327    0.6977   -0.7033 C   0  0  0  0  0  0  0  0  0  0  0  0
    7.1281   -0.3165    0.0442 C   0  0  0  0  0  0  0  0  0  0  0  0
    6.3367   -1.2890    0.6531 C   0  0  0  0  0  0  0  0  0  0  0  0
    4.9464   -1.2419    0.5228 C   0  0  0  0  0  0  0  0  0  0  0  0
    3.1981    0.1824    2.2750 H   0  0  0  0  0  0  0  0  0  0  0  0
    1.4748    0.4124    2.5807 H   0  0  0  0  0  0  0  0  0  0  0  0
    2.1250   -1.2505    2.3991 H   0  0  0  0  0  0  0  0  0  0  0  0
   -0.4384   -0.0654    1.7409 H   0  0  0  0  0  0  0  0  0  0  0  0
   -1.7133    2.1575    0.2922 H   0  0  0  0  0  0  0  0  0  0  0  0
   -1.1645    1.5775   -1.2713 H   0  0  0  0  0  0  0  0  0  0  0  0
   -3.4006    2.5971   -1.4974 H   0  0  0  0  0  0  0  0  0  0  0  0
   -2.8271    0.6588   -2.9678 H   0  0  0  0  0  0  0  0  0  0  0  0
   -4.5508    0.6824   -2.6032 H   0  0  0  0  0  0  0  0  0  0  0  0
   -3.6369   -1.6226   -2.3469 H   0  0  0  0  0  0  0  0  0  0  0  0
   -5.5057   -0.9182   -0.8549 H   0  0  0  0  0  0  0  0  0  0  0  0
   -4.4393   -2.0469   -0.0220 H   0  0  0  0  0  0  0  0  0  0  0  0
   -4.9877   -0.1108    1.4506 H   0  0  0  0  0  0  0  0  0  0  0  0
   -5.3651    1.5760   -0.3519 H   0  0  0  0  0  0  0  0  0  0  0  0
   -4.2014    2.1728    0.8291 H   0  0  0  0  0  0  0  0  0  0  0  0
   -2.6601    0.5383    2.0298 H   0  0  0  0  0  0  0  0  0  0  0  0
   -2.7513   -1.1809    1.6814 H   0  0  0  0  0  0  0  0  0  0  0  0
   -1.9510   -2.0898   -0.5616 H   0  0  0  0  0  0  0  0  0  0  0  0
   -1.3164   -1.0172   -1.7970 H   0  0  0  0  0  0  0  0  0  0  0  0
    4.6877    1.5327   -1.4318 H   0  0  0  0  0  0  0  0  0  0  0  0
    7.1481    1.4482   -1.1929 H   0  0  0  0  0  0  0  0  0  0  0  0
    8.2103   -0.3567    0.1397 H   0  0  0  0  0  0  0  0  0  0  0  0
    6.8032   -2.0919    1.2183 H   0  0  0  0  0  0  0  0  0  0  0  0
    4.3486   -2.0273    0.9786 H   0  0  0  0  0  0  0  0  0  0  0  0
  1  2  1  0
  2  3  1  0
  3  4  1  0
  5  4  1  1
  5  6  1  0
  6  7  1  0
  7  8  1  0
  8  9  1  0
  9 10  1  0
 10 11  1  0
 11 12  1  0
 11 13  1  0
  9 14  1  0
  3 15  2  0
 15 16  1  0
 16 17  2  0
 17 18  1  0
 18 19  2  0
 19 20  1  0
 20 21  2  0
 21 22  1  0
 22 23  2  0
 17  2  1  0
 23 18  1  0
 13  5  1  0
 14  5  1  0
 12  7  1  0
  1 24  1  0
  1 25  1  0
  1 26  1  0
  4 27  1  0
  6 28  1  0
  6 29  1  0
  7 30  1  6
  8 31  1  0
  8 32  1  0
  9 33  1  6
 10 34  1  0
 10 35  1  0
 11 36  1  1
 12 37  1  0
 12 38  1  0
 13 39  1  0
 13 40  1  0
 14 41  1  0
 14 42  1  0
 19 43  1  0
 20 44  1  0
 21 45  1  0
 22 46  1  0
 23 47  1  0
M  END
>  <_SMILES>  (132) 
Cn1c(N[C@]23C[C@H]4C[C@H](C[C@H](C4)C2)C3)nnc1-c1ccccc1

$$$$

     RDKit          3D

 47 51  0  0  0  0  0  0  0  0999 V2000
    2.2811   -1.2587   -1.6531 C   0  0  0  0  0  0  0  0  0  0  0  0
    1.9720   -0.4735   -0.4868 N   0  0  0  0  0  0  0  0  0  0  0  0
    2.8522   -0.0622    0.5024 C   0  0  0  0  0  0  0  0  0  0  0  0
    4.3205   -0.1960    0.5023 C   0  0  0  0  0  0  0  0  0  0  0  0
    4.9677   -0.5250    1.6980 C   0  0  0  0  0  0  0  0  0  0  0  0
    6.3571   -0.6523    1.7261 C   0  0  0  0  0  0  0  0  0  0  0  0
    7.1001   -0.4388    0.5650 C   0  0  0  0  0  0  0  0  0  0  0  0
    6.4577   -0.0893   -0.6233 C   0  0  0  0  0  0  0  0  0  0  0  0
    5.0674    0.0378   -0.6560 C   0  0  0  0  0  0  0  0  0  0  0  0
    2.2055    0.4960    1.5135 N   0  0  0  0  0  0  0  0  0  0  0  0
    0.8828    0.4413    1.1041 N   0  0  0  0  0  0  0  0  0  0  0  0
    0.6698   -0.1454   -0.1339 C   0  0  0  0  0  0  0  0  0  0  0  0
   -0.3751   -0.3712   -0.8291 N   0  0  0  0  0  0  0  0  0  0  0  0
   -1.7297   -0.0106   -0.4157 C   0  0  2  0  0  0  0  0  0  0  0  0
   -1.9068    1.5140   -0.2568 C   0  0  0  0  0  0  0  0  0  0  0  0
   -3.3709    1.8448    0.0863 C   0  0  1  0  0  0  0  0  0  0  0  0
   -4.2796    1.3688   -1.0583 C   0  0  0  0  0  0  0  0  0  0  0  0
   -4.1316   -0.1490   -1.2477 C   0  0  2  0  0  0  0  0  0  0  0  0
   -4.5353   -0.8641    0.0512 C   0  0  0  0  0  0  0  0  0  0  0  0
   -3.6287   -0.4062    1.2047 C   0  0  2  0  0  0  0  0  0  0  0  0
   -3.7652    1.1166    1.3840 C   0  0  0  0  0  0  0  0  0  0  0  0
   -2.1659   -0.7486    0.8674 C   0  0  0  0  0  0  0  0  0  0  0  0
   -2.6638   -0.4757   -1.5669 C   0  0  0  0  0  0  0  0  0  0  0  0
    3.1190   -1.9386   -1.4685 H   0  0  0  0  0  0  0  0  0  0  0  0
    2.5350   -0.6066   -2.4944 H   0  0  0  0  0  0  0  0  0  0  0  0
    1.4352   -1.8849   -1.9570 H   0  0  0  0  0  0  0  0  0  0  0  0
    4.3918   -0.6853    2.6069 H   0  0  0  0  0  0  0  0  0  0  0  0
    6.8593   -0.9124    2.6546 H   0  0  0  0  0  0  0  0  0  0  0  0
    8.1832   -0.5332    0.5896 H   0  0  0  0  0  0  0  0  0  0  0  0
    7.0423    0.0959   -1.5211 H   0  0  0  0  0  0  0  0  0  0  0  0
    4.5854    0.3477   -1.5780 H   0  0  0  0  0  0  0  0  0  0  0  0
    0.1437    0.8180    1.6797 H   0  0  0  0  0  0  0  0  0  0  0  0
   -1.2623    1.9132    0.5325 H   0  0  0  0  0  0  0  0  0  0  0  0
   -1.6117    2.0291   -1.1803 H   0  0  0  0  0  0  0  0  0  0  0  0
   -3.4827    2.9266    0.2203 H   0  0  0  0  0  0  0  0  0  0  0  0
   -4.0168    1.8900   -1.9870 H   0  0  0  0  0  0  0  0  0  0  0  0
   -5.3243    1.6195   -0.8370 H   0  0  0  0  0  0  0  0  0  0  0  0
   -4.7738   -0.4839   -2.0698 H   0  0  0  0  0  0  0  0  0  0  0  0
   -4.4567   -1.9505   -0.0788 H   0  0  0  0  0  0  0  0  0  0  0  0
   -5.5839   -0.6469    0.2890 H   0  0  0  0  0  0  0  0  0  0  0  0
   -3.9227   -0.9155    2.1292 H   0  0  0  0  0  0  0  0  0  0  0  0
   -4.7983    1.3688    1.6532 H   0  0  0  0  0  0  0  0  0  0  0  0
   -3.1290    1.4548    2.2112 H   0  0  0  0  0  0  0  0  0  0  0  0
   -2.0540   -1.8331    0.7387 H   0  0  0  0  0  0  0  0  0  0  0  0
   -1.5363   -0.4776    1.7205 H   0  0  0  0  0  0  0  0  0  0  0  0
   -2.5515   -1.5558   -1.7318 H   0  0  0  0  0  0  0  0  0  0  0  0
   -2.3724    0.0081   -2.5089 H   0  0  0  0  0  0  0  0  0  0  0  0
  1  2  1  0
  2  3  1  0
  3  4  1  0
  4  5  2  0
  5  6  1  0
  6  7  2  0
  7  8  1  0
  8  9  2  0
  3 10  2  0
 10 11  1  0
 11 12  1  0
 12 13  2  0
 14 13  1  6
 14 15  1  0
 15 16  1  0
 16 17  1  0
 17 18  1  0
 18 19  1  0
 19 20  1  0
 20 21  1  0
 20 22  1  0
 18 23  1  0
 12  2  1  0
 22 14  1  0
  9  4  1  0
 23 14  1  0
 21 16  1  0
  1 24  1  0
  1 25  1  0
  1 26  1  0
  5 27  1  0
  6 28  1  0
  7 29  1  0
  8 30  1  0
  9 31  1  0
 11 32  1  0
 15 33  1  0
 15 34  1  0
 16 35  1  1
 17 36  1  0
 17 37  1  0
 18 38  1  6
 19 39  1  0
 19 40  1  0
 20 41  1  1
 21 42  1  0
 21 43  1  0
 22 44  1  0
 22 45  1  0
 23 46  1  0
 23 47  1  0
M  END
>  <_SMILES>  (133) 
Cn1c(-c2ccccc2)n[nH]/c1=N\[C@]12C[C@H]3C[C@H](C[C@H](C3)C1)C2

$$$$

     RDKit          3D

 47 51  0  0  0  0  0  0  0  0999 V2000
    1.2644    0.6042    1.2959 C   0  0  0  0  0  0  0  0  0  0  0  0
    1.6493   -0.1997    0.1472 N   0  0  0  0  0  0  0  0  0  0  0  0
    3.0115   -0.3530   -0.1505 C   0  0  0  0  0  0  0  0  0  0  0  0
    4.0222    0.7254   -0.1677 C   0  0  0  0  0  0  0  0  0  0  0  0
    5.3566    0.4215    0.1195 C   0  0  0  0  0  0  0  0  0  0  0  0
    6.3200    1.4310    0.0982 C   0  0  0  0  0  0  0  0  0  0  0  0
    5.9534    2.7390   -0.2204 C   0  0  0  0  0  0  0  0  0  0  0  0
    4.6256    3.0402   -0.5257 C   0  0  0  0  0  0  0  0  0  0  0  0
    3.6583    2.0338   -0.5047 C   0  0  0  0  0  0  0  0  0  0  0  0
    3.3198   -1.5979   -0.4604 N   0  0  0  0  0  0  0  0  0  0  0  0
    2.1101   -2.2445   -0.3449 N   0  0  0  0  0  0  0  0  0  0  0  0
    1.0180   -1.4274   -0.0845 C   0  0  0  0  0  0  0  0  0  0  0  0
   -0.1665   -1.8824   -0.1566 N   0  0  0  0  0  0  0  0  0  0  0  0
   -1.4366   -1.1788   -0.0941 C   0  0  2  0  0  0  0  0  0  0  0  0
   -1.8562   -0.8632    1.3525 C   0  0  0  0  0  0  0  0  0  0  0  0
   -3.2530   -0.2162    1.3737 C   0  0  1  0  0  0  0  0  0  0  0  0
   -3.2364    1.0593    0.5119 C   0  0  0  0  0  0  0  0  0  0  0  0
   -2.8756    0.7168   -0.9449 C   0  0  2  0  0  0  0  0  0  0  0  0
   -3.9019   -0.2825   -1.5014 C   0  0  0  0  0  0  0  0  0  0  0  0
   -3.8989   -1.5613   -0.6503 C   0  0  2  0  0  0  0  0  0  0  0  0
   -4.2761   -1.2067    0.7961 C   0  0  0  0  0  0  0  0  0  0  0  0
   -2.4891   -2.1754   -0.6672 C   0  0  0  0  0  0  0  0  0  0  0  0
   -1.4756    0.0780   -0.9860 C   0  0  0  0  0  0  0  0  0  0  0  0
    2.0388    1.3191    1.5896 H   0  0  0  0  0  0  0  0  0  0  0  0
    1.0855   -0.0326    2.1691 H   0  0  0  0  0  0  0  0  0  0  0  0
    0.3703    1.1931    1.0863 H   0  0  0  0  0  0  0  0  0  0  0  0
    5.6484   -0.5984    0.3606 H   0  0  0  0  0  0  0  0  0  0  0  0
    7.3571    1.1954    0.3241 H   0  0  0  0  0  0  0  0  0  0  0  0
    6.7069    3.5228   -0.2417 H   0  0  0  0  0  0  0  0  0  0  0  0
    4.3474    4.0573   -0.7906 H   0  0  0  0  0  0  0  0  0  0  0  0
    2.6328    2.2737   -0.7720 H   0  0  0  0  0  0  0  0  0  0  0  0
    1.9550   -3.1653   -0.7379 H   0  0  0  0  0  0  0  0  0  0  0  0
   -1.1523   -0.1874    1.8384 H   0  0  0  0  0  0  0  0  0  0  0  0
   -1.8582   -1.7795    1.9573 H   0  0  0  0  0  0  0  0  0  0  0  0
   -3.5264    0.0367    2.4042 H   0  0  0  0  0  0  0  0  0  0  0  0
   -4.2197    1.5445    0.5470 H   0  0  0  0  0  0  0  0  0  0  0  0
   -2.5126    1.7764    0.9182 H   0  0  0  0  0  0  0  0  0  0  0  0
   -2.8826    1.6286   -1.5525 H   0  0  0  0  0  0  0  0  0  0  0  0
   -4.9023    0.1672   -1.5013 H   0  0  0  0  0  0  0  0  0  0  0  0
   -3.6619   -0.5252   -2.5439 H   0  0  0  0  0  0  0  0  0  0  0  0
   -4.6213   -2.2781   -1.0563 H   0  0  0  0  0  0  0  0  0  0  0  0
   -4.3061   -2.1155    1.4096 H   0  0  0  0  0  0  0  0  0  0  0  0
   -5.2814   -0.7689    0.8262 H   0  0  0  0  0  0  0  0  0  0  0  0
   -2.4844   -3.1066   -0.0843 H   0  0  0  0  0  0  0  0  0  0  0  0
   -2.2208   -2.4587   -1.6940 H   0  0  0  0  0  0  0  0  0  0  0  0
   -1.2130   -0.1817   -2.0202 H   0  0  0  0  0  0  0  0  0  0  0  0
   -0.7424    0.8231   -0.6715 H   0  0  0  0  0  0  0  0  0  0  0  0
  1  2  1  0
  2  3  1  0
  3  4  1  0
  4  5  2  0
  5  6  1  0
  6  7  2  0
  7  8  1  0
  8  9  2  0
  3 10  2  0
 10 11  1  0
 11 12  1  0
 12 13  2  0
 14 13  1  1
 14 15  1  0
 15 16  1  0
 16 17  1  0
 17 18  1  0
 18 19  1  0
 19 20  1  0
 20 21  1  0
 20 22  1  0
 18 23  1  0
 12  2  1  0
 22 14  1  0
  9  4  1  0
 23 14  1  0
 21 16  1  0
  1 24  1  0
  1 25  1  0
  1 26  1  0
  5 27  1  0
  6 28  1  0
  7 29  1  0
  8 30  1  0
  9 31  1  0
 11 32  1  0
 15 33  1  0
 15 34  1  0
 16 35  1  1
 17 36  1  0
 17 37  1  0
 18 38  1  6
 19 39  1  0
 19 40  1  0
 20 41  1  6
 21 42  1  0
 21 43  1  0
 22 44  1  0
 22 45  1  0
 23 46  1  0
 23 47  1  0
M  END
>  <_SMILES>  (134) 
Cn1c(-c2ccccc2)n[nH]/c1=N/[C@]12C[C@H]3C[C@H](C[C@H](C3)C1)C2

$$$$

     RDKit          3D

 46 50  0  0  0  0  0  0  0  0999 V2000
    4.5087    1.9727    0.2071 C   0  0  0  0  0  0  0  0  0  0  0  0
    4.5767    1.0564   -0.8401 C   0  0  0  0  0  0  0  0  0  0  0  0
    4.1023   -0.2441   -0.6642 C   0  0  0  0  0  0  0  0  0  0  0  0
    3.5439   -0.6386    0.5615 C   0  0  0  0  0  0  0  0  0  0  0  0
    3.0231   -2.0419    0.7639 C   0  0  0  0  0  0  0  0  0  0  0  0
    2.0323   -2.4178   -0.2227 N   0  0  0  0  0  0  0  0  0  0  0  0
    2.2646   -3.4471   -1.0591 N   0  0  0  0  0  0  0  0  0  0  0  0
    1.1368   -3.6001   -1.7344 N   0  0  0  0  0  0  0  0  0  0  0  0
    0.1949   -2.6858   -1.3337 N   0  0  0  0  0  0  0  0  0  0  0  0
    0.7539   -1.9392   -0.4047 C   0  0  0  0  0  0  0  0  0  0  0  0
    0.2553   -0.8853    0.2971 N   0  0  0  0  0  0  0  0  0  0  0  0
   -1.0379   -0.2756   -0.0425 C   0  0  2  0  0  0  0  0  0  0  0  0
   -2.2124   -1.2716    0.1060 C   0  0  0  0  0  0  0  0  0  0  0  0
   -3.5505   -0.5702   -0.1917 C   0  0  1  0  0  0  0  0  0  0  0  0
   -3.7564    0.5782    0.8080 C   0  0  0  0  0  0  0  0  0  0  0  0
   -2.6109    1.5938    0.6814 C   0  0  2  0  0  0  0  0  0  0  0  0
   -2.5868    2.1592   -0.7475 C   0  0  0  0  0  0  0  0  0  0  0  0
   -2.3737    1.0217   -1.7589 C   0  0  2  0  0  0  0  0  0  0  0  0
   -3.5163    0.0001   -1.6207 C   0  0  0  0  0  0  0  0  0  0  0  0
   -1.0319    0.3258   -1.4671 C   0  0  0  0  0  0  0  0  0  0  0  0
   -1.2766    0.8858    0.9650 C   0  0  0  0  0  0  0  0  0  0  0  0
    3.4957    0.2896    1.6135 C   0  0  0  0  0  0  0  0  0  0  0  0
    3.9716    1.5892    1.4340 C   0  0  0  0  0  0  0  0  0  0  0  0
    4.8814    2.9845    0.0680 H   0  0  0  0  0  0  0  0  0  0  0  0
    5.0021    1.3538   -1.7958 H   0  0  0  0  0  0  0  0  0  0  0  0
    4.1694   -0.9452   -1.4957 H   0  0  0  0  0  0  0  0  0  0  0  0
    2.5476   -2.1568    1.7448 H   0  0  0  0  0  0  0  0  0  0  0  0
    3.8565   -2.7523    0.7143 H   0  0  0  0  0  0  0  0  0  0  0  0
    0.9303   -0.1947    0.6187 H   0  0  0  0  0  0  0  0  0  0  0  0
   -2.1057   -2.1202   -0.5785 H   0  0  0  0  0  0  0  0  0  0  0  0
   -2.2275   -1.6936    1.1194 H   0  0  0  0  0  0  0  0  0  0  0  0
   -4.3718   -1.2898   -0.1007 H   0  0  0  0  0  0  0  0  0  0  0  0
   -4.7178    1.0716    0.6198 H   0  0  0  0  0  0  0  0  0  0  0  0
   -3.7961    0.1827    1.8304 H   0  0  0  0  0  0  0  0  0  0  0  0
   -2.7580    2.4086    1.3991 H   0  0  0  0  0  0  0  0  0  0  0  0
   -3.5290    2.6789   -0.9608 H   0  0  0  0  0  0  0  0  0  0  0  0
   -1.7849    2.9015   -0.8438 H   0  0  0  0  0  0  0  0  0  0  0  0
   -2.3635    1.4295   -2.7759 H   0  0  0  0  0  0  0  0  0  0  0  0
   -4.4751    0.4792   -1.8539 H   0  0  0  0  0  0  0  0  0  0  0  0
   -3.3820   -0.8124   -2.3453 H   0  0  0  0  0  0  0  0  0  0  0  0
   -0.8634   -0.4516   -2.2218 H   0  0  0  0  0  0  0  0  0  0  0  0
   -0.2072    1.0426   -1.5742 H   0  0  0  0  0  0  0  0  0  0  0  0
   -0.4562    1.6140    0.9069 H   0  0  0  0  0  0  0  0  0  0  0  0
   -1.2713    0.5008    1.9936 H   0  0  0  0  0  0  0  0  0  0  0  0
    3.0869    0.0104    2.5831 H   0  0  0  0  0  0  0  0  0  0  0  0
    3.9288    2.3032    2.2530 H   0  0  0  0  0  0  0  0  0  0  0  0
  1  2  2  0
  2  3  1  0
  3  4  2  0
  4  5  1  0
  5  6  1  0
  6  7  1  0
  7  8  2  0
  8  9  1  0
  9 10  2  0
 10 11  1  0
 12 11  1  1
 12 13  1  0
 13 14  1  0
 14 15  1  0
 15 16  1  0
 16 17  1  0
 17 18  1  0
 18 19  1  0
 18 20  1  0
 16 21  1  0
  4 22  1  0
 22 23  2  0
 23  1  1  0
 10  6  1  0
 20 12  1  0
 21 12  1  0
 19 14  1  0
  1 24  1  0
  2 25  1  0
  3 26  1  0
  5 27  1  0
  5 28  1  0
 11 29  1  0
 13 30  1  0
 13 31  1  0
 14 32  1  6
 15 33  1  0
 15 34  1  0
 16 35  1  1
 17 36  1  0
 17 37  1  0
 18 38  1  6
 19 39  1  0
 19 40  1  0
 20 41  1  0
 20 42  1  0
 21 43  1  0
 21 44  1  0
 22 45  1  0
 23 46  1  0
M  END
>  <_SMILES>  (135) 
c1ccc(Cn2nnnc2N[C@]23C[C@H]4C[C@H](C[C@H](C4)C2)C3)cc1

$$$$

     RDKit          3D

 46 50  0  0  0  0  0  0  0  0999 V2000
    5.0456    0.0695   -2.0621 C   0  0  0  0  0  0  0  0  0  0  0  0
    3.9479   -0.7400   -1.7763 C   0  0  0  0  0  0  0  0  0  0  0  0
    3.3193   -0.6514   -0.5336 C   0  0  0  0  0  0  0  0  0  0  0  0
    3.7866    0.2451    0.4393 C   0  0  0  0  0  0  0  0  0  0  0  0
    3.0944    0.3499    1.7807 C   0  0  0  0  0  0  0  0  0  0  0  0
    2.0177    1.3100    1.7547 N   0  0  0  0  0  0  0  0  0  0  0  0
    2.3067    2.6488    1.8532 N   0  0  0  0  0  0  0  0  0  0  0  0
    1.2516    3.2813    1.5354 N   0  0  0  0  0  0  0  0  0  0  0  0
    0.3082    2.3503    1.2268 N   0  0  0  0  0  0  0  0  0  0  0  0
    0.7551    1.0670    1.2889 C   0  0  0  0  0  0  0  0  0  0  0  0
    0.2428   -0.0653    1.0106 N   0  0  0  0  0  0  0  0  0  0  0  0
   -1.1110   -0.2511    0.4945 C   0  0  2  0  0  0  0  0  0  0  0  0
   -2.1897    0.2601    1.4716 C   0  0  0  0  0  0  0  0  0  0  0  0
   -3.5935   -0.0436    0.9166 C   0  0  1  0  0  0  0  0  0  0  0  0
   -3.7510    0.6277   -0.4598 C   0  0  0  0  0  0  0  0  0  0  0  0
   -2.6988    0.0836   -1.4429 C   0  0  2  0  0  0  0  0  0  0  0  0
   -2.8721   -1.4375   -1.5798 C   0  0  0  0  0  0  0  0  0  0  0  0
   -2.7000   -2.1100   -0.2087 C   0  0  2  0  0  0  0  0  0  0  0  0
   -3.7595   -1.5637    0.7611 C   0  0  0  0  0  0  0  0  0  0  0  0
   -1.3011   -1.7848    0.3392 C   0  0  0  0  0  0  0  0  0  0  0  0
   -1.2909    0.3870   -0.8990 C   0  0  0  0  0  0  0  0  0  0  0  0
    4.8848    1.0631    0.1352 C   0  0  0  0  0  0  0  0  0  0  0  0
    5.5125    0.9723   -1.1083 C   0  0  0  0  0  0  0  0  0  0  0  0
    5.5329    0.0020   -3.0311 H   0  0  0  0  0  0  0  0  0  0  0  0
    3.5764   -1.4371   -2.5227 H   0  0  0  0  0  0  0  0  0  0  0  0
    2.4535   -1.2793   -0.3285 H   0  0  0  0  0  0  0  0  0  0  0  0
    2.7243   -0.6381    2.0829 H   0  0  0  0  0  0  0  0  0  0  0  0
    3.8272    0.6298    2.5486 H   0  0  0  0  0  0  0  0  0  0  0  0
   -0.5696    2.6221    0.8180 H   0  0  0  0  0  0  0  0  0  0  0  0
   -2.1032    1.3389    1.6357 H   0  0  0  0  0  0  0  0  0  0  0  0
   -2.0647   -0.2097    2.4559 H   0  0  0  0  0  0  0  0  0  0  0  0
   -4.3535    0.3418    1.6055 H   0  0  0  0  0  0  0  0  0  0  0  0
   -4.7585    0.4416   -0.8518 H   0  0  0  0  0  0  0  0  0  0  0  0
   -3.6438    1.7149   -0.3605 H   0  0  0  0  0  0  0  0  0  0  0  0
   -2.8262    0.5589   -2.4219 H   0  0  0  0  0  0  0  0  0  0  0  0
   -3.8638   -1.6670   -1.9886 H   0  0  0  0  0  0  0  0  0  0  0  0
   -2.1356   -1.8364   -2.2882 H   0  0  0  0  0  0  0  0  0  0  0  0
   -2.8158   -3.1947   -0.3111 H   0  0  0  0  0  0  0  0  0  0  0  0
   -4.7648   -1.7951    0.3879 H   0  0  0  0  0  0  0  0  0  0  0  0
   -3.6619   -2.0533    1.7378 H   0  0  0  0  0  0  0  0  0  0  0  0
   -1.1562   -2.2835    1.3071 H   0  0  0  0  0  0  0  0  0  0  0  0
   -0.5347   -2.1948   -0.3324 H   0  0  0  0  0  0  0  0  0  0  0  0
   -1.1528    1.4722   -0.8631 H   0  0  0  0  0  0  0  0  0  0  0  0
   -0.5298    0.0060   -1.5926 H   0  0  0  0  0  0  0  0  0  0  0  0
    5.2524    1.7819    0.8645 H   0  0  0  0  0  0  0  0  0  0  0  0
    6.3625    1.6105   -1.3351 H   0  0  0  0  0  0  0  0  0  0  0  0
  1  2  2  0
  2  3  1  0
  3  4  2  0
  4  5  1  0
  5  6  1  0
  6  7  1  0
  7  8  2  0
  8  9  1  0
  9 10  1  0
 10 11  2  0
 12 11  1  1
 12 13  1  0
 13 14  1  0
 14 15  1  0
 15 16  1  0
 16 17  1  0
 17 18  1  0
 18 19  1  0
 18 20  1  0
 16 21  1  0
  4 22  1  0
 22 23  2  0
 23  1  1  0
 10  6  1  0
 20 12  1  0
 21 12  1  0
 19 14  1  0
  1 24  1  0
  2 25  1  0
  3 26  1  0
  5 27  1  0
  5 28  1  0
  9 29  1  0
 13 30  1  0
 13 31  1  0
 14 32  1  1
 15 33  1  0
 15 34  1  0
 16 35  1  6
 17 36  1  0
 17 37  1  0
 18 38  1  6
 19 39  1  0
 19 40  1  0
 20 41  1  0
 20 42  1  0
 21 43  1  0
 21 44  1  0
 22 45  1  0
 23 46  1  0
M  END
>  <_SMILES>  (136) 
c1ccc(Cn2nn[nH]/c2=N\[C@]23C[C@H]4C[C@H](C[C@H](C4)C2)C3)cc1

$$$$

     RDKit          3D

 46 50  0  0  0  0  0  0  0  0999 V2000
    5.3538    0.4696    1.2524 C   0  0  0  0  0  0  0  0  0  0  0  0
    5.5588   -0.6916    0.5101 C   0  0  0  0  0  0  0  0  0  0  0  0
    4.4673   -1.4071    0.0151 C   0  0  0  0  0  0  0  0  0  0  0  0
    3.1568   -0.9704    0.2622 C   0  0  0  0  0  0  0  0  0  0  0  0
    1.9714   -1.7453   -0.2813 C   0  0  0  0  0  0  0  0  0  0  0  0
    1.4775   -1.2329   -1.5618 N   0  0  0  0  0  0  0  0  0  0  0  0
    2.3681   -1.5334   -2.5996 N   0  0  0  0  0  0  0  0  0  0  0  0
    2.5156   -0.4954   -3.3092 N   0  0  0  0  0  0  0  0  0  0  0  0
    1.8169    0.4920   -2.7038 N   0  0  0  0  0  0  0  0  0  0  0  0
    0.9925    0.0496   -1.7110 C   0  0  0  0  0  0  0  0  0  0  0  0
    0.0335    0.7763   -1.3119 N   0  0  0  0  0  0  0  0  0  0  0  0
   -1.1525    0.4932   -0.5234 C   0  0  2  0  0  0  0  0  0  0  0  0
   -1.5045    1.8020    0.2285 C   0  0  0  0  0  0  0  0  0  0  0  0
   -2.8329    1.6569    0.9884 C   0  0  1  0  0  0  0  0  0  0  0  0
   -3.9543    1.3334   -0.0131 C   0  0  0  0  0  0  0  0  0  0  0  0
   -3.6376    0.0236   -0.7542 C   0  0  2  0  0  0  0  0  0  0  0  0
   -3.5105   -1.1171    0.2679 C   0  0  0  0  0  0  0  0  0  0  0  0
   -2.3846   -0.8018    1.2665 C   0  0  2  0  0  0  0  0  0  0  0  0
   -2.7091    0.5083    2.0011 C   0  0  0  0  0  0  0  0  0  0  0  0
   -1.0573   -0.6416    0.4985 C   0  0  0  0  0  0  0  0  0  0  0  0
   -2.3056    0.1784   -1.5080 C   0  0  0  0  0  0  0  0  0  0  0  0
    2.9649    0.2055    1.0036 C   0  0  0  0  0  0  0  0  0  0  0  0
    4.0581    0.9194    1.4970 C   0  0  0  0  0  0  0  0  0  0  0  0
    6.2043    1.0287    1.6334 H   0  0  0  0  0  0  0  0  0  0  0  0
    6.5699   -1.0368    0.3103 H   0  0  0  0  0  0  0  0  0  0  0  0
    4.6464   -2.3041   -0.5740 H   0  0  0  0  0  0  0  0  0  0  0  0
    1.1978   -1.7775    0.4828 H   0  0  0  0  0  0  0  0  0  0  0  0
    2.2596   -2.7981   -0.4079 H   0  0  0  0  0  0  0  0  0  0  0  0
    1.5271    1.3047   -3.2276 H   0  0  0  0  0  0  0  0  0  0  0  0
   -1.5752    2.6397   -0.4784 H   0  0  0  0  0  0  0  0  0  0  0  0
   -0.6990    2.0606    0.9287 H   0  0  0  0  0  0  0  0  0  0  0  0
   -3.0635    2.5906    1.5134 H   0  0  0  0  0  0  0  0  0  0  0  0
   -4.0625    2.1543   -0.7325 H   0  0  0  0  0  0  0  0  0  0  0  0
   -4.9122    1.2434    0.5138 H   0  0  0  0  0  0  0  0  0  0  0  0
   -4.4405   -0.2030   -1.4645 H   0  0  0  0  0  0  0  0  0  0  0  0
   -4.4593   -1.2502    0.8020 H   0  0  0  0  0  0  0  0  0  0  0  0
   -3.3005   -2.0617   -0.2486 H   0  0  0  0  0  0  0  0  0  0  0  0
   -2.2946   -1.6189    1.9912 H   0  0  0  0  0  0  0  0  0  0  0  0
   -3.6444    0.4015    2.5641 H   0  0  0  0  0  0  0  0  0  0  0  0
   -1.9218    0.7343    2.7307 H   0  0  0  0  0  0  0  0  0  0  0  0
   -0.2571   -0.4387    1.2179 H   0  0  0  0  0  0  0  0  0  0  0  0
   -0.8412   -1.5898   -0.0052 H   0  0  0  0  0  0  0  0  0  0  0  0
   -2.0832   -0.7405   -2.0663 H   0  0  0  0  0  0  0  0  0  0  0  0
   -2.3961    0.9770   -2.2565 H   0  0  0  0  0  0  0  0  0  0  0  0
    1.9618    0.5818    1.1926 H   0  0  0  0  0  0  0  0  0  0  0  0
    3.8978    1.8314    2.0664 H   0  0  0  0  0  0  0  0  0  0  0  0
  1  2  2  0
  2  3  1  0
  3  4  2  0
  4  5  1  0
  5  6  1  0
  6  7  1  0
  7  8  2  0
  8  9  1  0
  9 10  1  0
 10 11  2  0
 12 11  1  6
 12 13  1  0
 13 14  1  0
 14 15  1  0
 15 16  1  0
 16 17  1  0
 17 18  1  0
 18 19  1  0
 18 20  1  0
 16 21  1  0
  4 22  1  0
 22 23  2  0
 23  1  1  0
 10  6  1  0
 20 12  1  0
 21 12  1  0
 19 14  1  0
  1 24  1  0
  2 25  1  0
  3 26  1  0
  5 27  1  0
  5 28  1  0
  9 29  1  0
 13 30  1  0
 13 31  1  0
 14 32  1  1
 15 33  1  0
 15 34  1  0
 16 35  1  6
 17 36  1  0
 17 37  1  0
 18 38  1  1
 19 39  1  0
 19 40  1  0
 20 41  1  0
 20 42  1  0
 21 43  1  0
 21 44  1  0
 22 45  1  0
 23 46  1  0
M  END
>  <_SMILES>  (137) 
c1ccc(Cn2nn[nH]/c2=N/[C@]23C[C@H]4C[C@H](C[C@H](C4)C2)C3)cc1

$$$$

     RDKit          3D

 46 50  0  0  0  0  0  0  0  0999 V2000
    6.8681   -0.7197   -0.7545 C   0  0  0  0  0  0  0  0  0  0  0  0
    6.4933   -0.8033    0.5853 C   0  0  0  0  0  0  0  0  0  0  0  0
    5.1764   -0.5342    0.9616 C   0  0  0  0  0  0  0  0  0  0  0  0
    4.2221   -0.1748   -0.0015 C   0  0  0  0  0  0  0  0  0  0  0  0
    2.7877    0.1017    0.3966 C   0  0  0  0  0  0  0  0  0  0  0  0
    1.9204   -0.9937   -0.0102 N   0  0  0  0  0  0  0  0  0  0  0  0
    2.1352   -2.2271    0.6087 N   0  0  0  0  0  0  0  0  0  0  0  0
    0.9331   -2.8598    0.8064 N   0  0  0  0  0  0  0  0  0  0  0  0
   -0.0042   -2.0440    0.5771 N   0  0  0  0  0  0  0  0  0  0  0  0
    0.5596   -0.8679    0.1297 C   0  0  0  0  0  0  0  0  0  0  0  0
   -0.1002    0.2114   -0.0975 N   0  0  0  0  0  0  0  0  0  0  0  0
   -1.5501    0.3332    0.0676 C   0  0  2  0  0  0  0  0  0  0  0  0
   -2.3346   -0.6041   -0.8753 C   0  0  0  0  0  0  0  0  0  0  0  0
   -3.8478   -0.3567   -0.7317 C   0  0  1  0  0  0  0  0  0  0  0  0
   -4.2640   -0.5926    0.7315 C   0  0  0  0  0  0  0  0  0  0  0  0
   -3.5113    0.3743    1.6634 C   0  0  2  0  0  0  0  0  0  0  0  0
   -3.8303    1.8214    1.2561 C   0  0  0  0  0  0  0  0  0  0  0  0
   -3.4021    2.0618   -0.1998 C   0  0  2  0  0  0  0  0  0  0  0  0
   -4.1642    1.0961   -1.1203 C   0  0  0  0  0  0  0  0  0  0  0  0
   -1.8941    1.7961   -0.3305 C   0  0  0  0  0  0  0  0  0  0  0  0
   -1.9965    0.1305    1.5314 C   0  0  0  0  0  0  0  0  0  0  0  0
    4.6099   -0.0998   -1.3481 C   0  0  0  0  0  0  0  0  0  0  0  0
    5.9272   -0.3693   -1.7211 C   0  0  0  0  0  0  0  0  0  0  0  0
    7.8942   -0.9289   -1.0461 H   0  0  0  0  0  0  0  0  0  0  0  0
    7.2279   -1.0789    1.3378 H   0  0  0  0  0  0  0  0  0  0  0  0
    4.8991   -0.6099    2.0110 H   0  0  0  0  0  0  0  0  0  0  0  0
    2.7146    0.2690    1.4791 H   0  0  0  0  0  0  0  0  0  0  0  0
    2.4763    1.0373   -0.0854 H   0  0  0  0  0  0  0  0  0  0  0  0
    2.8189   -2.8202    0.1372 H   0  0  0  0  0  0  0  0  0  0  0  0
   -2.0241   -0.4438   -1.9159 H   0  0  0  0  0  0  0  0  0  0  0  0
   -2.1312   -1.6572   -0.6545 H   0  0  0  0  0  0  0  0  0  0  0  0
   -4.3969   -1.0417   -1.3875 H   0  0  0  0  0  0  0  0  0  0  0  0
   -5.3460   -0.4470    0.8391 H   0  0  0  0  0  0  0  0  0  0  0  0
   -4.0525   -1.6300    1.0185 H   0  0  0  0  0  0  0  0  0  0  0  0
   -3.8226    0.2061    2.7004 H   0  0  0  0  0  0  0  0  0  0  0  0
   -3.3095    2.5214    1.9209 H   0  0  0  0  0  0  0  0  0  0  0  0
   -4.9042    2.0148    1.3683 H   0  0  0  0  0  0  0  0  0  0  0  0
   -3.6229    3.0965   -0.4846 H   0  0  0  0  0  0  0  0  0  0  0  0
   -5.2432    1.2783   -1.0447 H   0  0  0  0  0  0  0  0  0  0  0  0
   -3.8836    1.2741   -2.1657 H   0  0  0  0  0  0  0  0  0  0  0  0
   -1.3373    2.5004    0.3022 H   0  0  0  0  0  0  0  0  0  0  0  0
   -1.5710    1.9926   -1.3618 H   0  0  0  0  0  0  0  0  0  0  0  0
   -1.4465    0.8109    2.1945 H   0  0  0  0  0  0  0  0  0  0  0  0
   -1.7748   -0.8829    1.8818 H   0  0  0  0  0  0  0  0  0  0  0  0
    3.8825    0.1665   -2.1129 H   0  0  0  0  0  0  0  0  0  0  0  0
    6.2191   -0.3069   -2.7664 H   0  0  0  0  0  0  0  0  0  0  0  0
  1  2  2  0
  2  3  1  0
  3  4  2  0
  4  5  1  0
  5  6  1  0
  6  7  1  0
  7  8  1  0
  8  9  2  0
  9 10  1  0
 10 11  2  0
 12 11  1  1
 12 13  1  0
 13 14  1  0
 14 15  1  0
 15 16  1  0
 16 17  1  0
 17 18  1  0
 18 19  1  0
 18 20  1  0
 16 21  1  0
  4 22  1  0
 22 23  2  0
 23  1  1  0
 10  6  1  0
 20 12  1  0
 21 12  1  0
 19 14  1  0
  1 24  1  0
  2 25  1  0
  3 26  1  0
  5 27  1  0
  5 28  1  0
  7 29  1  0
 13 30  1  0
 13 31  1  0
 14 32  1  6
 15 33  1  0
 15 34  1  0
 16 35  1  1
 17 36  1  0
 17 37  1  0
 18 38  1  6
 19 39  1  0
 19 40  1  0
 20 41  1  0
 20 42  1  0
 21 43  1  0
 21 44  1  0
 22 45  1  0
 23 46  1  0
M  END
>  <_SMILES>  (138) 
c1ccc(Cn2[nH]nn/c2=N\[C@]23C[C@H]4C[C@H](C[C@H](C4)C2)C3)cc1

$$$$

     RDKit          3D

 46 50  0  0  0  0  0  0  0  0999 V2000
    5.3635    1.4694    0.9138 C   0  0  0  0  0  0  0  0  0  0  0  0
    4.0515    1.7985    1.2475 C   0  0  0  0  0  0  0  0  0  0  0  0
    2.9892    1.2710    0.5119 C   0  0  0  0  0  0  0  0  0  0  0  0
    3.2290    0.4072   -0.5682 C   0  0  0  0  0  0  0  0  0  0  0  0
    2.0746   -0.1685   -1.3664 C   0  0  0  0  0  0  0  0  0  0  0  0
    1.4768   -1.4023   -0.8133 N   0  0  0  0  0  0  0  0  0  0  0  0
    2.4223   -2.4553   -0.8272 N   0  0  0  0  0  0  0  0  0  0  0  0
    2.6598   -2.8993    0.4481 N   0  0  0  0  0  0  0  0  0  0  0  0
    1.9758   -2.2138    1.2553 N   0  0  0  0  0  0  0  0  0  0  0  0
    1.1036   -1.4330    0.5161 C   0  0  0  0  0  0  0  0  0  0  0  0
    0.0957   -1.0004    1.1631 N   0  0  0  0  0  0  0  0  0  0  0  0
   -1.1577   -0.4470    0.6755 C   0  0  2  0  0  0  0  0  0  0  0  0
   -2.0705   -1.6030    0.2040 C   0  0  0  0  0  0  0  0  0  0  0  0
   -3.4685   -1.0709   -0.1625 C   0  0  1  0  0  0  0  0  0  0  0  0
   -4.1002   -0.4105    1.0745 C   0  0  0  0  0  0  0  0  0  0  0  0
   -3.2217    0.7563    1.5551 C   0  0  2  0  0  0  0  0  0  0  0  0
   -3.0880    1.7949    0.4321 C   0  0  0  0  0  0  0  0  0  0  0  0
   -2.4525    1.1446   -0.8050 C   0  0  2  0  0  0  0  0  0  0  0  0
   -3.3393   -0.0210   -1.2789 C   0  0  0  0  0  0  0  0  0  0  0  0
   -1.0580    0.5943   -0.4447 C   0  0  0  0  0  0  0  0  0  0  0  0
   -1.8256    0.2223    1.9066 C   0  0  0  0  0  0  0  0  0  0  0  0
    4.5548    0.0795   -0.8899 C   0  0  0  0  0  0  0  0  0  0  0  0
    5.6154    0.6094   -0.1531 C   0  0  0  0  0  0  0  0  0  0  0  0
    6.1893    1.8758    1.4916 H   0  0  0  0  0  0  0  0  0  0  0  0
    3.8540    2.4595    2.0876 H   0  0  0  0  0  0  0  0  0  0  0  0
    1.9717    1.5299    0.7980 H   0  0  0  0  0  0  0  0  0  0  0  0
    2.4135   -0.3754   -2.3909 H   0  0  0  0  0  0  0  0  0  0  0  0
    1.3274    0.6172   -1.4864 H   0  0  0  0  0  0  0  0  0  0  0  0
    2.1798   -3.2233   -1.4526 H   0  0  0  0  0  0  0  0  0  0  0  0
   -2.1584   -2.3647    0.9901 H   0  0  0  0  0  0  0  0  0  0  0  0
   -1.6256   -2.1074   -0.6636 H   0  0  0  0  0  0  0  0  0  0  0  0
   -4.1007   -1.8983   -0.5033 H   0  0  0  0  0  0  0  0  0  0  0  0
   -4.2137   -1.1498    1.8769 H   0  0  0  0  0  0  0  0  0  0  0  0
   -5.1062   -0.0464    0.8323 H   0  0  0  0  0  0  0  0  0  0  0  0
   -3.6744    1.2213    2.4379 H   0  0  0  0  0  0  0  0  0  0  0  0
   -2.4727    2.6376    0.7703 H   0  0  0  0  0  0  0  0  0  0  0  0
   -4.0743    2.2018    0.1778 H   0  0  0  0  0  0  0  0  0  0  0  0
   -2.3601    1.8861   -1.6066 H   0  0  0  0  0  0  0  0  0  0  0  0
   -4.3317    0.3532   -1.5589 H   0  0  0  0  0  0  0  0  0  0  0  0
   -2.9078   -0.4804   -2.1766 H   0  0  0  0  0  0  0  0  0  0  0  0
   -0.6535    0.1368   -1.3516 H   0  0  0  0  0  0  0  0  0  0  0  0
   -0.3955    1.4169   -0.1521 H   0  0  0  0  0  0  0  0  0  0  0  0
   -1.1944    1.0417    2.2760 H   0  0  0  0  0  0  0  0  0  0  0  0
   -1.9052   -0.4974    2.7327 H   0  0  0  0  0  0  0  0  0  0  0  0
    4.7700   -0.6011   -1.7105 H   0  0  0  0  0  0  0  0  0  0  0  0
    6.6386    0.3442   -0.4060 H   0  0  0  0  0  0  0  0  0  0  0  0
  1  2  2  0
  2  3  1  0
  3  4  2  0
  4  5  1  0
  5  6  1  0
  6  7  1  0
  7  8  1  0
  8  9  2  0
  9 10  1  0
 10 11  2  0
 12 11  1  1
 12 13  1  0
 13 14  1  0
 14 15  1  0
 15 16  1  0
 16 17  1  0
 17 18  1  0
 18 19  1  0
 18 20  1  0
 16 21  1  0
  4 22  1  0
 22 23  2  0
 23  1  1  0
 10  6  1  0
 20 12  1  0
 21 12  1  0
 19 14  1  0
  1 24  1  0
  2 25  1  0
  3 26  1  0
  5 27  1  0
  5 28  1  0
  7 29  1  0
 13 30  1  0
 13 31  1  0
 14 32  1  6
 15 33  1  0
 15 34  1  0
 16 35  1  1
 17 36  1  0
 17 37  1  0
 18 38  1  6
 19 39  1  0
 19 40  1  0
 20 41  1  0
 20 42  1  0
 21 43  1  0
 21 44  1  0
 22 45  1  0
 23 46  1  0
M  END
>  <_SMILES>  (139) 
c1ccc(Cn2[nH]nn/c2=N/[C@]23C[C@H]4C[C@H](C[C@H](C4)C2)C3)cc1

$$$$

     RDKit          3D

 57 62  0  0  0  0  0  0  0  0999 V2000
    3.5990    2.3466   -1.1854 C   0  0  0  0  0  0  0  0  0  0  0  0
    3.5095    1.3275   -0.0379 C   0  0  2  0  0  0  0  0  0  0  0  0
    4.7801    0.4412    0.0255 C   0  0  2  0  0  0  0  0  0  0  0  0
    4.8436   -0.5068   -1.1848 C   0  0  0  0  0  0  0  0  0  0  0  0
    3.5977   -1.4033   -1.2152 C   0  0  1  0  0  0  0  0  0  0  0  0
    3.5472   -2.2367    0.0770 C   0  0  0  0  0  0  0  0  0  0  0  0
    3.4904   -1.3082    1.3014 C   0  0  1  0  0  0  0  0  0  0  0  0
    4.7321   -0.4041    1.3115 C   0  0  0  0  0  0  0  0  0  0  0  0
    2.2259   -0.4366    1.2169 C   0  0  0  0  0  0  0  0  0  0  0  0
    2.2308    0.4135   -0.0825 C   0  0  1  0  0  0  0  0  0  0  0  0
    1.0533    1.2773   -0.1343 N   0  0  0  0  0  0  0  0  0  0  0  0
   -0.2179    0.8531   -0.1413 C   0  0  0  0  0  0  0  0  0  0  0  0
   -1.1540    1.7729    0.1984 N   0  0  0  0  0  0  0  0  0  0  0  0
   -2.2940    1.1063    0.1541 C   0  0  0  0  0  0  0  0  0  0  0  0
   -3.5670    1.6528    0.6165 C   0  0  0  0  0  0  0  0  0  0  0  0
   -4.0256    2.8720    0.1006 C   0  0  0  0  0  0  0  0  0  0  0  0
   -5.2337    3.4172    0.5395 C   0  0  0  0  0  0  0  0  0  0  0  0
   -5.9856    2.7555    1.5090 C   0  0  0  0  0  0  0  0  0  0  0  0
   -5.5266    1.5547    2.0481 C   0  0  0  0  0  0  0  0  0  0  0  0
   -4.3180    1.0084    1.6103 C   0  0  0  0  0  0  0  0  0  0  0  0
   -2.0393   -0.1729   -0.3365 N   0  0  0  0  0  0  0  0  0  0  0  0
   -2.9129   -1.2162   -0.7636 C   0  0  0  0  0  0  0  0  0  0  0  0
   -4.2656   -0.9902   -1.0470 C   0  0  0  0  0  0  0  0  0  0  0  0
   -5.0830   -2.0450   -1.4669 C   0  0  0  0  0  0  0  0  0  0  0  0
   -4.5575   -3.3261   -1.6197 C   0  0  0  0  0  0  0  0  0  0  0  0
   -3.2088   -3.5568   -1.3643 C   0  0  0  0  0  0  0  0  0  0  0  0
   -2.3875   -2.5077   -0.9452 C   0  0  0  0  0  0  0  0  0  0  0  0
   -0.6958   -0.3542   -0.4042 N   0  0  0  0  0  0  0  0  0  0  0  0
    2.3290   -0.5348   -1.3043 C   0  0  0  0  0  0  0  0  0  0  0  0
    2.7705    3.0609   -1.1430 H   0  0  0  0  0  0  0  0  0  0  0  0
    4.5259    2.9254   -1.1074 H   0  0  0  0  0  0  0  0  0  0  0  0
    3.5826    1.8802   -2.1733 H   0  0  0  0  0  0  0  0  0  0  0  0
    3.4716    1.9245    0.8857 H   0  0  0  0  0  0  0  0  0  0  0  0
    5.6774    1.0710    0.0453 H   0  0  0  0  0  0  0  0  0  0  0  0
    5.7464   -1.1277   -1.1221 H   0  0  0  0  0  0  0  0  0  0  0  0
    4.9249    0.0590   -2.1192 H   0  0  0  0  0  0  0  0  0  0  0  0
    3.6465   -2.0726   -2.0815 H   0  0  0  0  0  0  0  0  0  0  0  0
    2.6706   -2.8961    0.0648 H   0  0  0  0  0  0  0  0  0  0  0  0
    4.4306   -2.8840    0.1394 H   0  0  0  0  0  0  0  0  0  0  0  0
    3.4637   -1.9079    2.2181 H   0  0  0  0  0  0  0  0  0  0  0  0
    5.6395   -1.0153    1.3919 H   0  0  0  0  0  0  0  0  0  0  0  0
    4.7128    0.2508    2.1912 H   0  0  0  0  0  0  0  0  0  0  0  0
    2.1629    0.2161    2.0976 H   0  0  0  0  0  0  0  0  0  0  0  0
    1.3442   -1.0878    1.2562 H   0  0  0  0  0  0  0  0  0  0  0  0
    1.1648    2.1782    0.3174 H   0  0  0  0  0  0  0  0  0  0  0  0
   -3.4369    3.4041   -0.6447 H   0  0  0  0  0  0  0  0  0  0  0  0
   -5.5822    4.3623    0.1308 H   0  0  0  0  0  0  0  0  0  0  0  0
   -6.9236    3.1832    1.8543 H   0  0  0  0  0  0  0  0  0  0  0  0
   -6.1051    1.0476    2.8163 H   0  0  0  0  0  0  0  0  0  0  0  0
   -3.9666    0.0801    2.0563 H   0  0  0  0  0  0  0  0  0  0  0  0
   -4.7175   -0.0054   -0.9942 H   0  0  0  0  0  0  0  0  0  0  0  0
   -6.1320   -1.8610   -1.6875 H   0  0  0  0  0  0  0  0  0  0  0  0
   -5.1962   -4.1414   -1.9497 H   0  0  0  0  0  0  0  0  0  0  0  0
   -2.7917   -4.5524   -1.4938 H   0  0  0  0  0  0  0  0  0  0  0  0
   -1.3357   -2.7169   -0.7542 H   0  0  0  0  0  0  0  0  0  0  0  0
    2.3220    0.0314   -2.2430 H   0  0  0  0  0  0  0  0  0  0  0  0
    1.4649   -1.2058   -1.3565 H   0  0  0  0  0  0  0  0  0  0  0  0
  1  2  1  0
  2  3  1  0
  3  4  1  0
  4  5  1  0
  5  6  1  0
  6  7  1  0
  7  8  1  0
  7  9  1  0
  9 10  1  0
 10 11  1  6
 11 12  1  0
 12 13  1  0
 13 14  2  0
 14 15  1  0
 15 16  2  0
 16 17  1  0
 17 18  2  0
 18 19  1  0
 19 20  2  0
 14 21  1  0
 21 22  1  0
 22 23  2  0
 23 24  1  0
 24 25  2  0
 25 26  1  0
 26 27  2  0
 21 28  1  0
 10 29  1  0
 10  2  1  0
 28 12  2  0
  8  3  1  0
 20 15  1  0
 27 22  1  0
 29  5  1  0
  1 30  1  0
  1 31  1  0
  1 32  1  0
  2 33  1  1
  3 34  1  1
  4 35  1  0
  4 36  1  0
  5 37  1  6
  6 38  1  0
  6 39  1  0
  7 40  1  1
  8 41  1  0
  8 42  1  0
  9 43  1  0
  9 44  1  0
 11 45  1  0
 16 46  1  0
 17 47  1  0
 18 48  1  0
 19 49  1  0
 20 50  1  0
 23 51  1  0
 24 52  1  0
 25 53  1  0
 26 54  1  0
 27 55  1  0
 29 56  1  0
 29 57  1  0
M  END
>  <_SMILES>  (140) 
C[C@@H]1[C@@H]2C[C@H]3C[C@@H](C2)C[C@]1(Nc1nc(-c2ccccc2)n(-c2ccccc2)n1)C3

$$$$

     RDKit          3D

 57 62  0  0  0  0  0  0  0  0999 V2000
   -1.3335    0.1606    2.0405 C   0  0  0  0  0  0  0  0  0  0  0  0
   -2.4736    0.7357    1.1931 C   0  0  2  0  0  0  0  0  0  0  0  0
   -3.8313    0.0847    1.5818 C   0  0  2  0  0  0  0  0  0  0  0  0
   -3.8940   -1.3823    1.1129 C   0  0  0  0  0  0  0  0  0  0  0  0
   -3.7363   -1.4607   -0.4155 C   0  0  1  0  0  0  0  0  0  0  0  0
   -4.8717   -0.6705   -1.0804 C   0  0  0  0  0  0  0  0  0  0  0  0
   -4.8180    0.7937   -0.6250 C   0  0  1  0  0  0  0  0  0  0  0  0
   -4.9726    0.8627    0.9011 C   0  0  0  0  0  0  0  0  0  0  0  0
   -3.4594    1.3874   -1.0200 C   0  0  0  0  0  0  0  0  0  0  0  0
   -2.2777    0.6150   -0.3490 C   0  0  1  0  0  0  0  0  0  0  0  0
   -1.0860    1.3366   -0.8015 N   0  0  0  0  0  0  0  0  0  0  0  0
    0.1014    0.8751   -0.8750 C   0  0  0  0  0  0  0  0  0  0  0  0
    0.4845   -0.3843   -0.4718 N   0  0  0  0  0  0  0  0  0  0  0  0
    1.8041   -0.3447   -0.5110 C   0  0  0  0  0  0  0  0  0  0  0  0
    2.6056   -1.5477   -0.1859 C   0  0  0  0  0  0  0  0  0  0  0  0
    2.0892   -2.4872    0.7139 C   0  0  0  0  0  0  0  0  0  0  0  0
    2.8249   -3.6307    1.0282 C   0  0  0  0  0  0  0  0  0  0  0  0
    4.0703   -3.8426    0.4371 C   0  0  0  0  0  0  0  0  0  0  0  0
    4.5790   -2.9175   -0.4748 C   0  0  0  0  0  0  0  0  0  0  0  0
    3.8461   -1.7725   -0.7928 C   0  0  0  0  0  0  0  0  0  0  0  0
    2.2991    0.8893   -0.9382 N   0  0  0  0  0  0  0  0  0  0  0  0
    3.4841    1.5458   -0.5167 C   0  0  0  0  0  0  0  0  0  0  0  0
    4.1575    1.2181    0.6690 C   0  0  0  0  0  0  0  0  0  0  0  0
    5.3164    1.9013    1.0510 C   0  0  0  0  0  0  0  0  0  0  0  0
    5.8172    2.9292    0.2564 C   0  0  0  0  0  0  0  0  0  0  0  0
    5.1580    3.2794   -0.9179 C   0  0  0  0  0  0  0  0  0  0  0  0
    3.9999    2.5961   -1.2971 C   0  0  0  0  0  0  0  0  0  0  0  0
    1.1835    1.6247   -1.2879 N   0  0  0  0  0  0  0  0  0  0  0  0
   -2.3794   -0.8534   -0.8204 C   0  0  0  0  0  0  0  0  0  0  0  0
   -1.5850    0.2138    3.1056 H   0  0  0  0  0  0  0  0  0  0  0  0
   -0.4158    0.7409    1.9050 H   0  0  0  0  0  0  0  0  0  0  0  0
   -1.1156   -0.8840    1.8052 H   0  0  0  0  0  0  0  0  0  0  0  0
   -2.5247    1.8035    1.4524 H   0  0  0  0  0  0  0  0  0  0  0  0
   -3.9708    0.1282    2.6685 H   0  0  0  0  0  0  0  0  0  0  0  0
   -4.8544   -1.8235    1.4083 H   0  0  0  0  0  0  0  0  0  0  0  0
   -3.1174   -1.9794    1.6035 H   0  0  0  0  0  0  0  0  0  0  0  0
   -3.7811   -2.5073   -0.7373 H   0  0  0  0  0  0  0  0  0  0  0  0
   -5.8413   -1.1108   -0.8173 H   0  0  0  0  0  0  0  0  0  0  0  0
   -4.7813   -0.7292   -2.1720 H   0  0  0  0  0  0  0  0  0  0  0  0
   -5.6244    1.3596   -1.1045 H   0  0  0  0  0  0  0  0  0  0  0  0
   -5.9418    0.4438    1.1990 H   0  0  0  0  0  0  0  0  0  0  0  0
   -4.9644    1.9082    1.2330 H   0  0  0  0  0  0  0  0  0  0  0  0
   -3.4257    2.4483   -0.7362 H   0  0  0  0  0  0  0  0  0  0  0  0
   -3.3491    1.3640   -2.1129 H   0  0  0  0  0  0  0  0  0  0  0  0
    1.1143   -2.3322    1.1712 H   0  0  0  0  0  0  0  0  0  0  0  0
    2.4233   -4.3583    1.7290 H   0  0  0  0  0  0  0  0  0  0  0  0
    4.6408   -4.7360    0.6798 H   0  0  0  0  0  0  0  0  0  0  0  0
    5.5438   -3.0924   -0.9447 H   0  0  0  0  0  0  0  0  0  0  0  0
    4.2468   -1.0735   -1.5221 H   0  0  0  0  0  0  0  0  0  0  0  0
    3.7803    0.4436    1.3317 H   0  0  0  0  0  0  0  0  0  0  0  0
    5.8230    1.6328    1.9750 H   0  0  0  0  0  0  0  0  0  0  0  0
    6.7181    3.4594    0.5552 H   0  0  0  0  0  0  0  0  0  0  0  0
    5.5443    4.0819   -1.5413 H   0  0  0  0  0  0  0  0  0  0  0  0
    3.5051    2.8751   -2.2256 H   0  0  0  0  0  0  0  0  0  0  0  0
    1.1161    2.5765   -0.9457 H   0  0  0  0  0  0  0  0  0  0  0  0
   -1.5986   -1.4814   -0.3835 H   0  0  0  0  0  0  0  0  0  0  0  0
   -2.2519   -0.9126   -1.9090 H   0  0  0  0  0  0  0  0  0  0  0  0
  1  2  1  0
  2  3  1  0
  3  4  1  0
  4  5  1  0
  5  6  1  0
  6  7  1  0
  7  8  1  0
  7  9  1  0
  9 10  1  0
 10 11  1  1
 11 12  2  0
 12 13  1  0
 13 14  2  0
 14 15  1  0
 15 16  2  0
 16 17  1  0
 17 18  2  0
 18 19  1  0
 19 20  2  0
 14 21  1  0
 21 22  1  0
 22 23  2  0
 23 24  1  0
 24 25  2  0
 25 26  1  0
 26 27  2  0
 21 28  1  0
 10 29  1  0
 10  2  1  0
 28 12  1  0
  8  3  1  0
 20 15  1  0
 27 22  1  0
 29  5  1  0
  1 30  1  0
  1 31  1  0
  1 32  1  0
  2 33  1  6
  3 34  1  1
  4 35  1  0
  4 36  1  0
  5 37  1  6
  6 38  1  0
  6 39  1  0
  7 40  1  6
  8 41  1  0
  8 42  1  0
  9 43  1  0
  9 44  1  0
 16 45  1  0
 17 46  1  0
 18 47  1  0
 19 48  1  0
 20 49  1  0
 23 50  1  0
 24 51  1  0
 25 52  1  0
 26 53  1  0
 27 54  1  0
 28 55  1  0
 29 56  1  0
 29 57  1  0
M  END
>  <_SMILES>  (141) 
C[C@@H]1[C@@H]2C[C@H]3C[C@@H](C2)C[C@]1(/N=c1\nc(-c2ccccc2)n(-c2ccccc2)[nH]1)C3

$$$$

     RDKit          3D

 57 62  0  0  0  0  0  0  0  0999 V2000
    3.3143    2.7388   -0.3420 C   0  0  0  0  0  0  0  0  0  0  0  0
    3.3502    1.5282    0.6037 C   0  0  2  0  0  0  0  0  0  0  0  0
    4.7148    0.7965    0.5311 C   0  0  2  0  0  0  0  0  0  0  0  0
    4.8795    0.0841   -0.8235 C   0  0  0  0  0  0  0  0  0  0  0  0
    3.7422   -0.9281   -1.0276 C   0  0  1  0  0  0  0  0  0  0  0  0
    3.7906   -1.9707    0.1032 C   0  0  0  0  0  0  0  0  0  0  0  0
    3.6360   -1.2779    1.4681 C   0  0  1  0  0  0  0  0  0  0  0  0
    4.7694   -0.2578    1.6514 C   0  0  0  0  0  0  0  0  0  0  0  0
    2.2802   -0.5511    1.5126 C   0  0  0  0  0  0  0  0  0  0  0  0
    2.1886    0.4968    0.3755 C   0  0  1  0  0  0  0  0  0  0  0  0
    0.9391    1.2514    0.4231 N   0  0  0  0  0  0  0  0  0  0  0  0
   -0.2310    0.7543    0.4540 C   0  0  0  0  0  0  0  0  0  0  0  0
   -1.2827    1.6515    0.4922 N   0  0  0  0  0  0  0  0  0  0  0  0
   -2.3598    0.8977    0.3803 C   0  0  0  0  0  0  0  0  0  0  0  0
   -3.7131    1.4989    0.4414 C   0  0  0  0  0  0  0  0  0  0  0  0
   -3.8929    2.8167    0.0056 C   0  0  0  0  0  0  0  0  0  0  0  0
   -5.1577    3.4041    0.0602 C   0  0  0  0  0  0  0  0  0  0  0  0
   -6.2411    2.6815    0.5596 C   0  0  0  0  0  0  0  0  0  0  0  0
   -6.0613    1.3746    1.0134 C   0  0  0  0  0  0  0  0  0  0  0  0
   -4.7974    0.7833    0.9615 C   0  0  0  0  0  0  0  0  0  0  0  0
   -2.0624   -0.4609    0.2692 N   0  0  0  0  0  0  0  0  0  0  0  0
   -2.7634   -1.4481   -0.4711 C   0  0  0  0  0  0  0  0  0  0  0  0
   -3.6451   -1.1357   -1.5156 C   0  0  0  0  0  0  0  0  0  0  0  0
   -4.3017   -2.1439   -2.2283 C   0  0  0  0  0  0  0  0  0  0  0  0
   -4.0812   -3.4819   -1.9126 C   0  0  0  0  0  0  0  0  0  0  0  0
   -3.2005   -3.8149   -0.8878 C   0  0  0  0  0  0  0  0  0  0  0  0
   -2.5449   -2.8063   -0.1777 C   0  0  0  0  0  0  0  0  0  0  0  0
   -0.6877   -0.5488    0.4092 N   0  0  0  0  0  0  0  0  0  0  0  0
    2.3853   -0.2013   -0.9886 C   0  0  0  0  0  0  0  0  0  0  0  0
    3.3542    2.4582   -1.3973 H   0  0  0  0  0  0  0  0  0  0  0  0
    4.1636    3.4016   -0.1428 H   0  0  0  0  0  0  0  0  0  0  0  0
    2.4040    3.3279   -0.1893 H   0  0  0  0  0  0  0  0  0  0  0  0
    3.2427    1.9438    1.6168 H   0  0  0  0  0  0  0  0  0  0  0  0
    5.5340    1.5113    0.6720 H   0  0  0  0  0  0  0  0  0  0  0  0
    4.8920    0.8086   -1.6451 H   0  0  0  0  0  0  0  0  0  0  0  0
    5.8469   -0.4331   -0.8549 H   0  0  0  0  0  0  0  0  0  0  0  0
    3.8637   -1.4291   -1.9946 H   0  0  0  0  0  0  0  0  0  0  0  0
    4.7411   -2.5173    0.0674 H   0  0  0  0  0  0  0  0  0  0  0  0
    2.9929   -2.7111   -0.0346 H   0  0  0  0  0  0  0  0  0  0  0  0
    3.6799   -2.0253    2.2683 H   0  0  0  0  0  0  0  0  0  0  0  0
    5.7398   -0.7692    1.6382 H   0  0  0  0  0  0  0  0  0  0  0  0
    4.6815    0.2291    2.6305 H   0  0  0  0  0  0  0  0  0  0  0  0
    1.4873   -1.3015    1.4304 H   0  0  0  0  0  0  0  0  0  0  0  0
    2.1440   -0.0668    2.4883 H   0  0  0  0  0  0  0  0  0  0  0  0
   -3.0490    3.3890   -0.3747 H   0  0  0  0  0  0  0  0  0  0  0  0
   -5.2949    4.4274   -0.2802 H   0  0  0  0  0  0  0  0  0  0  0  0
   -7.2250    3.1421    0.6058 H   0  0  0  0  0  0  0  0  0  0  0  0
   -6.9045    0.8189    1.4162 H   0  0  0  0  0  0  0  0  0  0  0  0
   -4.6703   -0.2269    1.3409 H   0  0  0  0  0  0  0  0  0  0  0  0
   -3.8193   -0.1045   -1.8122 H   0  0  0  0  0  0  0  0  0  0  0  0
   -4.9814   -1.8808   -3.0354 H   0  0  0  0  0  0  0  0  0  0  0  0
   -4.5931   -4.2641   -2.4677 H   0  0  0  0  0  0  0  0  0  0  0  0
   -3.0256   -4.8583   -0.6375 H   0  0  0  0  0  0  0  0  0  0  0  0
   -1.8706   -3.0849    0.6300 H   0  0  0  0  0  0  0  0  0  0  0  0
   -0.2121   -1.1000   -0.2926 H   0  0  0  0  0  0  0  0  0  0  0  0
    1.5944   -0.9346   -1.1742 H   0  0  0  0  0  0  0  0  0  0  0  0
    2.3172    0.5186   -1.8123 H   0  0  0  0  0  0  0  0  0  0  0  0
  1  2  1  0
  2  3  1  0
  3  4  1  0
  4  5  1  0
  5  6  1  0
  6  7  1  0
  7  8  1  0
  7  9  1  0
  9 10  1  0
 10 11  1  6
 11 12  2  0
 12 13  1  0
 13 14  2  0
 14 15  1  0
 15 16  2  0
 16 17  1  0
 17 18  2  0
 18 19  1  0
 19 20  2  0
 14 21  1  0
 21 22  1  0
 22 23  2  0
 23 24  1  0
 24 25  2  0
 25 26  1  0
 26 27  2  0
 21 28  1  0
 10 29  1  0
 10  2  1  0
 28 12  1  0
  8  3  1  0
 20 15  1  0
 27 22  1  0
 29  5  1  0
  1 30  1  0
  1 31  1  0
  1 32  1  0
  2 33  1  1
  3 34  1  1
  4 35  1  0
  4 36  1  0
  5 37  1  6
  6 38  1  0
  6 39  1  0
  7 40  1  1
  8 41  1  0
  8 42  1  0
  9 43  1  0
  9 44  1  0
 16 45  1  0
 17 46  1  0
 18 47  1  0
 19 48  1  0
 20 49  1  0
 23 50  1  0
 24 51  1  0
 25 52  1  0
 26 53  1  0
 27 54  1  0
 28 55  1  0
 29 56  1  0
 29 57  1  0
M  END
>  <_SMILES>  (142) 
C[C@@H]1[C@@H]2C[C@H]3C[C@@H](C2)C[C@]1(/N=c1/nc(-c2ccccc2)n(-c2ccccc2)[nH]1)C3

$$$$

     RDKit          3D

 63 68  0  0  0  0  0  0  0  0999 V2000
   -3.1006   -0.2256   -1.2909 O   0  0  0  0  0  0  0  0  0  0  0  0
   -2.7733    0.1558    0.0687 S   0  0  0  0  0  0  0  0  0  0  0  0
   -3.6902   -0.0753    1.1691 O   0  0  0  0  0  0  0  0  0  0  0  0
   -2.1252    1.8223    0.1215 C   0  0  0  0  0  0  0  0  0  0  0  0
   -3.2315    2.7897   -0.2076 C   0  0  0  0  0  0  0  0  0  0  0  0
   -4.0391    3.3206    0.8086 C   0  0  0  0  0  0  0  0  0  0  0  0
   -5.0691    4.2105    0.5009 C   0  0  0  0  0  0  0  0  0  0  0  0
   -5.3039    4.5768   -0.8226 C   0  0  0  0  0  0  0  0  0  0  0  0
   -4.5112    4.0517   -1.8409 C   0  0  0  0  0  0  0  0  0  0  0  0
   -3.4803    3.1616   -1.5368 C   0  0  0  0  0  0  0  0  0  0  0  0
   -1.3716   -0.8128    0.4732 C   0  0  0  0  0  0  0  0  0  0  0  0
   -0.1621   -0.3498    0.7325 N   0  0  0  0  0  0  0  0  0  0  0  0
    0.5475   -1.4633    1.0542 C   0  0  0  0  0  0  0  0  0  0  0  0
    1.8410   -1.4060    1.3937 N   0  0  0  0  0  0  0  0  0  0  0  0
    2.7393   -0.2916    1.1092 C   0  0  2  0  0  0  0  0  0  0  0  0
    2.8034    0.0283   -0.4029 C   0  0  0  0  0  0  0  0  0  0  0  0
    3.8109    1.1614   -0.6688 C   0  0  1  0  0  0  0  0  0  0  0  0
    3.3859    2.4136    0.1181 C   0  0  0  0  0  0  0  0  0  0  0  0
    3.3625    2.1112    1.6267 C   0  0  2  0  0  0  0  0  0  0  0  0
    4.7617    1.6640    2.0768 C   0  0  0  0  0  0  0  0  0  0  0  0
    5.1833    0.4065    1.3017 C   0  0  2  0  0  0  0  0  0  0  0  0
    5.2071    0.7197   -0.2026 C   0  0  0  0  0  0  0  0  0  0  0  0
    4.1650   -0.7138    1.5671 C   0  0  0  0  0  0  0  0  0  0  0  0
    2.3534    0.9812    1.9008 C   0  0  0  0  0  0  0  0  0  0  0  0
   -0.1478   -2.5967    1.0146 N   0  0  0  0  0  0  0  0  0  0  0  0
   -1.3644   -2.1688    0.6074 N   0  0  0  0  0  0  0  0  0  0  0  0
   -2.4568   -3.1138    0.4518 C   0  0  0  0  0  0  0  0  0  0  0  0
   -2.4156   -3.8095   -0.8868 C   0  0  0  0  0  0  0  0  0  0  0  0
   -3.3278   -3.4744   -1.8975 C   0  0  0  0  0  0  0  0  0  0  0  0
   -3.2852   -4.1206   -3.1344 C   0  0  0  0  0  0  0  0  0  0  0  0
   -2.3335   -5.1090   -3.3751 C   0  0  0  0  0  0  0  0  0  0  0  0
   -1.4214   -5.4522   -2.3799 C   0  0  0  0  0  0  0  0  0  0  0  0
   -1.4616   -4.8070   -1.1430 C   0  0  0  0  0  0  0  0  0  0  0  0
   -1.3094    1.9008   -0.6041 H   0  0  0  0  0  0  0  0  0  0  0  0
   -1.7283    2.0091    1.1244 H   0  0  0  0  0  0  0  0  0  0  0  0
   -3.8791    3.0398    1.8481 H   0  0  0  0  0  0  0  0  0  0  0  0
   -5.6925    4.6145    1.2946 H   0  0  0  0  0  0  0  0  0  0  0  0
   -6.1087    5.2672   -1.0612 H   0  0  0  0  0  0  0  0  0  0  0  0
   -4.6994    4.3315   -2.8744 H   0  0  0  0  0  0  0  0  0  0  0  0
   -2.8795    2.7546   -2.3484 H   0  0  0  0  0  0  0  0  0  0  0  0
    2.2855   -2.3162    1.4385 H   0  0  0  0  0  0  0  0  0  0  0  0
    1.8212    0.3322   -0.7841 H   0  0  0  0  0  0  0  0  0  0  0  0
    3.0897   -0.8674   -0.9696 H   0  0  0  0  0  0  0  0  0  0  0  0
    3.8348    1.3889   -1.7404 H   0  0  0  0  0  0  0  0  0  0  0  0
    4.0817    3.2367   -0.0865 H   0  0  0  0  0  0  0  0  0  0  0  0
    2.3941    2.7455   -0.2130 H   0  0  0  0  0  0  0  0  0  0  0  0
    3.0675    3.0104    2.1792 H   0  0  0  0  0  0  0  0  0  0  0  0
    4.7612    1.4583    3.1542 H   0  0  0  0  0  0  0  0  0  0  0  0
    5.4860    2.4701    1.9068 H   0  0  0  0  0  0  0  0  0  0  0  0
    6.1791    0.0872    1.6287 H   0  0  0  0  0  0  0  0  0  0  0  0
    5.9390    1.5101   -0.4094 H   0  0  0  0  0  0  0  0  0  0  0  0
    5.5275   -0.1659   -0.7651 H   0  0  0  0  0  0  0  0  0  0  0  0
    4.4780   -1.6256    1.0405 H   0  0  0  0  0  0  0  0  0  0  0  0
    4.1600   -0.9646    2.6365 H   0  0  0  0  0  0  0  0  0  0  0  0
    2.3176    0.7635    2.9763 H   0  0  0  0  0  0  0  0  0  0  0  0
    1.3541    1.3362    1.6271 H   0  0  0  0  0  0  0  0  0  0  0  0
   -3.4064   -2.5922    0.5976 H   0  0  0  0  0  0  0  0  0  0  0  0
   -2.3775   -3.8487    1.2623 H   0  0  0  0  0  0  0  0  0  0  0  0
   -4.0785   -2.7024   -1.7368 H   0  0  0  0  0  0  0  0  0  0  0  0
   -3.9945   -3.8477   -3.9118 H   0  0  0  0  0  0  0  0  0  0  0  0
   -2.3008   -5.6091   -4.3394 H   0  0  0  0  0  0  0  0  0  0  0  0
   -0.6752   -6.2199   -2.5671 H   0  0  0  0  0  0  0  0  0  0  0  0
   -0.7358   -5.0818   -0.3788 H   0  0  0  0  0  0  0  0  0  0  0  0
  1  2  2  0
  2  3  2  0
  2  4  1  0
  4  5  1  0
  5  6  2  0
  6  7  1  0
  7  8  2  0
  8  9  1  0
  9 10  2  0
  2 11  1  0
 11 12  2  0
 12 13  1  0
 13 14  1  0
 15 14  1  6
 15 16  1  0
 16 17  1  0
 17 18  1  0
 18 19  1  0
 19 20  1  0
 20 21  1  0
 21 22  1  0
 21 23  1  0
 19 24  1  0
 13 25  2  0
 25 26  1  0
 26 27  1  0
 27 28  1  0
 28 29  2  0
 29 30  1  0
 30 31  2  0
 31 32  1  0
 32 33  2  0
 10  5  1  0
 26 11  1  0
 33 28  1  0
 23 15  1  0
 24 15  1  0
 22 17  1  0
  4 34  1  0
  4 35  1  0
  6 36  1  0
  7 37  1  0
  8 38  1  0
  9 39  1  0
 10 40  1  0
 14 41  1  0
 16 42  1  0
 16 43  1  0
 17 44  1  6
 18 45  1  0
 18 46  1  0
 19 47  1  1
 20 48  1  0
 20 49  1  0
 21 50  1  1
 22 51  1  0
 22 52  1  0
 23 53  1  0
 23 54  1  0
 24 55  1  0
 24 56  1  0
 27 57  1  0
 27 58  1  0
 29 59  1  0
 30 60  1  0
 31 61  1  0
 32 62  1  0
 33 63  1  0
M  END
>  <_SMILES>  (143) 
O=S(=O)(Cc1ccccc1)c1nc(N[C@]23C[C@H]4C[C@H](C[C@H](C4)C2)C3)nn1Cc1ccccc1

$$$$

     RDKit          3D

 63 68  0  0  0  0  0  0  0  0999 V2000
    3.5460   -1.0218   -1.2723 O   0  0  0  0  0  0  0  0  0  0  0  0
    2.2486   -1.3409   -0.7028 S   0  0  0  0  0  0  0  0  0  0  0  0
    1.6967   -2.6792   -0.8350 O   0  0  0  0  0  0  0  0  0  0  0  0
    2.1797   -0.8285    1.0095 C   0  0  0  0  0  0  0  0  0  0  0  0
    3.1926   -1.6048    1.8082 C   0  0  0  0  0  0  0  0  0  0  0  0
    4.4546   -1.0580    2.0808 C   0  0  0  0  0  0  0  0  0  0  0  0
    5.3939   -1.7791    2.8193 C   0  0  0  0  0  0  0  0  0  0  0  0
    5.0831   -3.0527    3.2909 C   0  0  0  0  0  0  0  0  0  0  0  0
    3.8337   -3.6078    3.0231 C   0  0  0  0  0  0  0  0  0  0  0  0
    2.8923   -2.8887    2.2856 C   0  0  0  0  0  0  0  0  0  0  0  0
    1.0546   -0.2651   -1.4270 C   0  0  0  0  0  0  0  0  0  0  0  0
   -0.1958   -0.2100   -1.0200 N   0  0  0  0  0  0  0  0  0  0  0  0
   -0.7711    0.6791   -1.9027 C   0  0  0  0  0  0  0  0  0  0  0  0
   -2.0233    0.9199   -1.9745 N   0  0  0  0  0  0  0  0  0  0  0  0
   -3.0199    0.3076   -1.0916 C   0  0  2  0  0  0  0  0  0  0  0  0
   -4.3874    0.9068   -1.5246 C   0  0  0  0  0  0  0  0  0  0  0  0
   -5.5317    0.3413   -0.6686 C   0  0  1  0  0  0  0  0  0  0  0  0
   -5.5754   -1.1858   -0.8331 C   0  0  0  0  0  0  0  0  0  0  0  0
   -4.2356   -1.7980   -0.3952 C   0  0  2  0  0  0  0  0  0  0  0  0
   -3.9710   -1.4394    1.0783 C   0  0  0  0  0  0  0  0  0  0  0  0
   -3.9322    0.0891    1.2573 C   0  0  2  0  0  0  0  0  0  0  0  0
   -5.2743    0.6865    0.8063 C   0  0  0  0  0  0  0  0  0  0  0  0
   -2.7993    0.6725    0.3927 C   0  0  0  0  0  0  0  0  0  0  0  0
   -3.1043   -1.2241   -1.2682 C   0  0  0  0  0  0  0  0  0  0  0  0
    0.1697    1.2377   -2.7493 N   0  0  0  0  0  0  0  0  0  0  0  0
    1.3651    0.5610   -2.5070 N   0  0  0  0  0  0  0  0  0  0  0  0
    2.6117    1.3159   -2.6684 C   0  0  0  0  0  0  0  0  0  0  0  0
    3.0071    2.1190   -1.4431 C   0  0  0  0  0  0  0  0  0  0  0  0
    2.1300    3.0399   -0.8493 C   0  0  0  0  0  0  0  0  0  0  0  0
    2.5180    3.7736    0.2739 C   0  0  0  0  0  0  0  0  0  0  0  0
    3.7930    3.6109    0.8091 C   0  0  0  0  0  0  0  0  0  0  0  0
    4.6841    2.7195    0.2183 C   0  0  0  0  0  0  0  0  0  0  0  0
    4.2957    1.9822   -0.9019 C   0  0  0  0  0  0  0  0  0  0  0  0
    2.3821    0.2452    1.0548 H   0  0  0  0  0  0  0  0  0  0  0  0
    1.1680   -1.0094    1.3858 H   0  0  0  0  0  0  0  0  0  0  0  0
    4.7192   -0.0682    1.7158 H   0  0  0  0  0  0  0  0  0  0  0  0
    6.3711   -1.3491    3.0230 H   0  0  0  0  0  0  0  0  0  0  0  0
    5.8165   -3.6157    3.8622 H   0  0  0  0  0  0  0  0  0  0  0  0
    3.5932   -4.6048    3.3833 H   0  0  0  0  0  0  0  0  0  0  0  0
    1.9256   -3.3448    2.0769 H   0  0  0  0  0  0  0  0  0  0  0  0
   -4.3647    2.0014   -1.4367 H   0  0  0  0  0  0  0  0  0  0  0  0
   -4.5757    0.6903   -2.5848 H   0  0  0  0  0  0  0  0  0  0  0  0
   -6.4851    0.7756   -0.9895 H   0  0  0  0  0  0  0  0  0  0  0  0
   -5.7819   -1.4447   -1.8789 H   0  0  0  0  0  0  0  0  0  0  0  0
   -6.3931   -1.6047   -0.2339 H   0  0  0  0  0  0  0  0  0  0  0  0
   -4.2729   -2.8871   -0.5098 H   0  0  0  0  0  0  0  0  0  0  0  0
   -3.0210   -1.8791    1.4060 H   0  0  0  0  0  0  0  0  0  0  0  0
   -4.7562   -1.8687    1.7128 H   0  0  0  0  0  0  0  0  0  0  0  0
   -3.7550    0.3338    2.3106 H   0  0  0  0  0  0  0  0  0  0  0  0
   -6.0874    0.2963    1.4306 H   0  0  0  0  0  0  0  0  0  0  0  0
   -5.2640    1.7752    0.9406 H   0  0  0  0  0  0  0  0  0  0  0  0
   -2.7565    1.7627    0.5139 H   0  0  0  0  0  0  0  0  0  0  0  0
   -1.8443    0.2864    0.7641 H   0  0  0  0  0  0  0  0  0  0  0  0
   -3.2774   -1.4763   -2.3225 H   0  0  0  0  0  0  0  0  0  0  0  0
   -2.1658   -1.7134   -0.9874 H   0  0  0  0  0  0  0  0  0  0  0  0
   -0.1697    1.3102   -3.7053 H   0  0  0  0  0  0  0  0  0  0  0  0
    3.4136    0.6374   -2.9763 H   0  0  0  0  0  0  0  0  0  0  0  0
    2.5047    2.0174   -3.5068 H   0  0  0  0  0  0  0  0  0  0  0  0
    1.1335    3.2016   -1.2549 H   0  0  0  0  0  0  0  0  0  0  0  0
    1.8250    4.4793    0.7260 H   0  0  0  0  0  0  0  0  0  0  0  0
    4.0952    4.1869    1.6802 H   0  0  0  0  0  0  0  0  0  0  0  0
    5.6844    2.5990    0.6271 H   0  0  0  0  0  0  0  0  0  0  0  0
    5.0096    1.2886   -1.3456 H   0  0  0  0  0  0  0  0  0  0  0  0
  1  2  2  0
  2  3  2  0
  2  4  1  0
  4  5  1  0
  5  6  2  0
  6  7  1  0
  7  8  2  0
  8  9  1  0
  9 10  2  0
  2 11  1  0
 11 12  2  0
 12 13  1  0
 13 14  2  0
 15 14  1  6
 15 16  1  0
 16 17  1  0
 17 18  1  0
 18 19  1  0
 19 20  1  0
 20 21  1  0
 21 22  1  0
 21 23  1  0
 19 24  1  0
 13 25  1  0
 25 26  1  0
 26 27  1  0
 27 28  1  0
 28 29  2  0
 29 30  1  0
 30 31  2  0
 31 32  1  0
 32 33  2  0
 10  5  1  0
 26 11  1  0
 33 28  1  0
 23 15  1  0
 24 15  1  0
 22 17  1  0
  4 34  1  0
  4 35  1  0
  6 36  1  0
  7 37  1  0
  8 38  1  0
  9 39  1  0
 10 40  1  0
 16 41  1  0
 16 42  1  0
 17 43  1  6
 18 44  1  0
 18 45  1  0
 19 46  1  1
 20 47  1  0
 20 48  1  0
 21 49  1  1
 22 50  1  0
 22 51  1  0
 23 52  1  0
 23 53  1  0
 24 54  1  0
 24 55  1  0
 25 56  1  0
 27 57  1  0
 27 58  1  0
 29 59  1  0
 30 60  1  0
 31 61  1  0
 32 62  1  0
 33 63  1  0
M  END
>  <_SMILES>  (144) 
O=S(=O)(Cc1ccccc1)c1n/c(=N\[C@]23C[C@H]4C[C@H](C[C@H](C4)C2)C3)[nH]n1Cc1ccccc1

$$$$

     RDKit          3D

 63 68  0  0  0  0  0  0  0  0999 V2000
   -3.7485    1.1530    2.8088 O   0  0  0  0  0  0  0  0  0  0  0  0
   -3.5589   -0.0367    1.9935 S   0  0  0  0  0  0  0  0  0  0  0  0
   -3.9607   -1.3296    2.5236 O   0  0  0  0  0  0  0  0  0  0  0  0
   -4.3909    0.2120    0.4366 C   0  0  0  0  0  0  0  0  0  0  0  0
   -3.7434   -0.5591   -0.6835 C   0  0  0  0  0  0  0  0  0  0  0  0
   -3.6951   -1.9601   -0.6759 C   0  0  0  0  0  0  0  0  0  0  0  0
   -3.0698   -2.6536   -1.7132 C   0  0  0  0  0  0  0  0  0  0  0  0
   -2.5044   -1.9588   -2.7795 C   0  0  0  0  0  0  0  0  0  0  0  0
   -2.5693   -0.5685   -2.8141 C   0  0  0  0  0  0  0  0  0  0  0  0
   -3.1889    0.1272   -1.7751 C   0  0  0  0  0  0  0  0  0  0  0  0
   -1.8431   -0.1304    1.6015 C   0  0  0  0  0  0  0  0  0  0  0  0
   -1.1326   -1.2335    1.6695 N   0  0  0  0  0  0  0  0  0  0  0  0
    0.1039   -0.8510    1.1899 C   0  0  0  0  0  0  0  0  0  0  0  0
    0.9615   -1.7736    1.0217 N   0  0  0  0  0  0  0  0  0  0  0  0
    2.3130   -1.5867    0.5058 C   0  0  2  0  0  0  0  0  0  0  0  0
    3.1165   -0.5209    1.2800 C   0  0  0  0  0  0  0  0  0  0  0  0
    4.5556   -0.4424    0.7373 C   0  0  1  0  0  0  0  0  0  0  0  0
    5.2448   -1.8031    0.9231 C   0  0  0  0  0  0  0  0  0  0  0  0
    4.4722   -2.8897    0.1595 C   0  0  2  0  0  0  0  0  0  0  0  0
    4.4401   -2.5355   -1.3356 C   0  0  0  0  0  0  0  0  0  0  0  0
    3.7441   -1.1800   -1.5383 C   0  0  2  0  0  0  0  0  0  0  0  0
    4.5121   -0.0953   -0.7619 C   0  0  0  0  0  0  0  0  0  0  0  0
    2.3028   -1.2644   -1.0034 C   0  0  0  0  0  0  0  0  0  0  0  0
    3.0322   -2.9508    0.6930 C   0  0  0  0  0  0  0  0  0  0  0  0
    0.1415    0.5105    0.9328 N   0  0  0  0  0  0  0  0  0  0  0  0
   -1.1585    0.9889    1.1213 N   0  0  0  0  0  0  0  0  0  0  0  0
   -1.2790    2.3352    1.6855 C   0  0  0  0  0  0  0  0  0  0  0  0
   -2.0912    3.2259    0.7735 C   0  0  0  0  0  0  0  0  0  0  0  0
   -3.2340    3.8844    1.2494 C   0  0  0  0  0  0  0  0  0  0  0  0
   -3.9784    4.7139    0.4089 C   0  0  0  0  0  0  0  0  0  0  0  0
   -3.5824    4.9063   -0.9126 C   0  0  0  0  0  0  0  0  0  0  0  0
   -2.4387    4.2744   -1.3946 C   0  0  0  0  0  0  0  0  0  0  0  0
   -1.6948    3.4421   -0.5564 C   0  0  0  0  0  0  0  0  0  0  0  0
   -5.4348   -0.0937    0.5602 H   0  0  0  0  0  0  0  0  0  0  0  0
   -4.3802    1.2855    0.2297 H   0  0  0  0  0  0  0  0  0  0  0  0
   -4.1258   -2.5322    0.1457 H   0  0  0  0  0  0  0  0  0  0  0  0
   -3.0198   -3.7396   -1.6834 H   0  0  0  0  0  0  0  0  0  0  0  0
   -2.0181   -2.5039   -3.5842 H   0  0  0  0  0  0  0  0  0  0  0  0
   -2.1409   -0.0272   -3.6535 H   0  0  0  0  0  0  0  0  0  0  0  0
   -3.2379    1.2126   -1.8298 H   0  0  0  0  0  0  0  0  0  0  0  0
    3.1299   -0.7577    2.3517 H   0  0  0  0  0  0  0  0  0  0  0  0
    2.6599    0.4699    1.1892 H   0  0  0  0  0  0  0  0  0  0  0  0
    5.1123    0.3301    1.2796 H   0  0  0  0  0  0  0  0  0  0  0  0
    6.2788   -1.7527    0.5604 H   0  0  0  0  0  0  0  0  0  0  0  0
    5.2933   -2.0563    1.9893 H   0  0  0  0  0  0  0  0  0  0  0  0
    4.9616   -3.8599    0.2997 H   0  0  0  0  0  0  0  0  0  0  0  0
    5.4614   -2.4961   -1.7339 H   0  0  0  0  0  0  0  0  0  0  0  0
    3.9101   -3.3163   -1.8947 H   0  0  0  0  0  0  0  0  0  0  0  0
    3.7274   -0.9299   -2.6050 H   0  0  0  0  0  0  0  0  0  0  0  0
    4.0314    0.8800   -0.9069 H   0  0  0  0  0  0  0  0  0  0  0  0
    5.5329   -0.0084   -1.1540 H   0  0  0  0  0  0  0  0  0  0  0  0
    1.7943   -0.3165   -1.2051 H   0  0  0  0  0  0  0  0  0  0  0  0
    1.7431   -2.0327   -1.5527 H   0  0  0  0  0  0  0  0  0  0  0  0
    2.4784   -3.7447    0.1739 H   0  0  0  0  0  0  0  0  0  0  0  0
    3.0410   -3.2301    1.7552 H   0  0  0  0  0  0  0  0  0  0  0  0
    0.5908    0.7391    0.0534 H   0  0  0  0  0  0  0  0  0  0  0  0
   -1.6706    2.3136    2.7069 H   0  0  0  0  0  0  0  0  0  0  0  0
   -0.2847    2.7948    1.7768 H   0  0  0  0  0  0  0  0  0  0  0  0
   -3.5597    3.7539    2.2809 H   0  0  0  0  0  0  0  0  0  0  0  0
   -4.8659    5.2145    0.7891 H   0  0  0  0  0  0  0  0  0  0  0  0
   -4.1611    5.5568   -1.5638 H   0  0  0  0  0  0  0  0  0  0  0  0
   -2.1238    4.4344   -2.4229 H   0  0  0  0  0  0  0  0  0  0  0  0
   -0.8012    2.9625   -0.9495 H   0  0  0  0  0  0  0  0  0  0  0  0
  1  2  2  0
  2  3  2  0
  2  4  1  0
  4  5  1  0
  5  6  2  0
  6  7  1  0
  7  8  2  0
  8  9  1  0
  9 10  2  0
  2 11  1  0
 11 12  2  0
 12 13  1  0
 13 14  2  0
 15 14  1  1
 15 16  1  0
 16 17  1  0
 17 18  1  0
 18 19  1  0
 19 20  1  0
 20 21  1  0
 21 22  1  0
 21 23  1  0
 19 24  1  0
 13 25  1  0
 25 26  1  0
 26 27  1  0
 27 28  1  0
 28 29  2  0
 29 30  1  0
 30 31  2  0
 31 32  1  0
 32 33  2  0
 10  5  1  0
 26 11  1  0
 33 28  1  0
 23 15  1  0
 24 15  1  0
 22 17  1  0
  4 34  1  0
  4 35  1  0
  6 36  1  0
  7 37  1  0
  8 38  1  0
  9 39  1  0
 10 40  1  0
 16 41  1  0
 16 42  1  0
 17 43  1  1
 18 44  1  0
 18 45  1  0
 19 46  1  6
 20 47  1  0
 20 48  1  0
 21 49  1  6
 22 50  1  0
 22 51  1  0
 23 52  1  0
 23 53  1  0
 24 54  1  0
 24 55  1  0
 25 56  1  0
 27 57  1  0
 27 58  1  0
 29 59  1  0
 30 60  1  0
 31 61  1  0
 32 62  1  0
 33 63  1  0
M  END
>  <_SMILES>  (145) 
O=S(=O)(Cc1ccccc1)c1n/c(=N/[C@]23C[C@H]4C[C@H](C[C@H](C4)C2)C3)[nH]n1Cc1ccccc1

$$$$

     RDKit          3D

 44 48  0  0  0  0  0  0  0  0999 V2000
    7.2228   -0.4329   -0.3213 C   0  0  0  0  0  0  0  0  0  0  0  0
    6.3440   -1.1894   -1.0911 C   0  0  0  0  0  0  0  0  0  0  0  0
    4.9664   -1.0810   -0.8858 C   0  0  0  0  0  0  0  0  0  0  0  0
    4.4451   -0.2175    0.0903 C   0  0  0  0  0  0  0  0  0  0  0  0
    2.9940   -0.1390    0.2681 C   0  0  0  0  0  0  0  0  0  0  0  0
    2.0715   -0.7712   -0.4336 N   0  0  0  0  0  0  0  0  0  0  0  0
    0.8898   -0.3734    0.1202 C   0  0  0  0  0  0  0  0  0  0  0  0
   -0.2220   -0.8870   -0.4220 N   0  0  0  0  0  0  0  0  0  0  0  0
   -1.5646   -0.3457   -0.2477 C   0  0  2  0  0  0  0  0  0  0  0  0
   -2.5294   -1.2111   -1.1084 C   0  0  0  0  0  0  0  0  0  0  0  0
   -3.9763   -0.7067   -0.9898 C   0  0  1  0  0  0  0  0  0  0  0  0
   -4.4159   -0.7806    0.4802 C   0  0  0  0  0  0  0  0  0  0  0  0
   -3.4880    0.0834    1.3478 C   0  0  2  0  0  0  0  0  0  0  0  0
   -3.5480    1.5415    0.8596 C   0  0  0  0  0  0  0  0  0  0  0  0
   -3.1117    1.6274   -0.6135 C   0  0  2  0  0  0  0  0  0  0  0  0
   -4.0418    0.7521   -1.4685 C   0  0  0  0  0  0  0  0  0  0  0  0
   -1.6661    1.1148   -0.7460 C   0  0  0  0  0  0  0  0  0  0  0  0
   -2.0432   -0.4339    1.2211 C   0  0  0  0  0  0  0  0  0  0  0  0
    1.0174    0.4871    1.1263 N   0  0  0  0  0  0  0  0  0  0  0  0
    2.3475    0.6123    1.2101 N   0  0  0  0  0  0  0  0  0  0  0  0
    5.3447    0.5389    0.8570 C   0  0  0  0  0  0  0  0  0  0  0  0
    6.7245    0.4306    0.6515 C   0  0  0  0  0  0  0  0  0  0  0  0
    8.2950   -0.5162   -0.4800 H   0  0  0  0  0  0  0  0  0  0  0  0
    6.7261   -1.8650   -1.8520 H   0  0  0  0  0  0  0  0  0  0  0  0
    4.2918   -1.6802   -1.4962 H   0  0  0  0  0  0  0  0  0  0  0  0
   -0.0562   -1.3664   -1.2991 H   0  0  0  0  0  0  0  0  0  0  0  0
   -2.2196   -1.1905   -2.1621 H   0  0  0  0  0  0  0  0  0  0  0  0
   -2.4762   -2.2624   -0.7945 H   0  0  0  0  0  0  0  0  0  0  0  0
   -4.6369   -1.3277   -1.6050 H   0  0  0  0  0  0  0  0  0  0  0  0
   -4.3926   -1.8209    0.8272 H   0  0  0  0  0  0  0  0  0  0  0  0
   -5.4522   -0.4349    0.5798 H   0  0  0  0  0  0  0  0  0  0  0  0
   -3.8076    0.0309    2.3946 H   0  0  0  0  0  0  0  0  0  0  0  0
   -2.8987    2.1715    1.4799 H   0  0  0  0  0  0  0  0  0  0  0  0
   -4.5679    1.9302    0.9699 H   0  0  0  0  0  0  0  0  0  0  0  0
   -3.1666    2.6671   -0.9552 H   0  0  0  0  0  0  0  0  0  0  0  0
   -3.7493    0.8142   -2.5240 H   0  0  0  0  0  0  0  0  0  0  0  0
   -5.0720    1.1229   -1.4013 H   0  0  0  0  0  0  0  0  0  0  0  0
   -1.0024    1.7730   -0.1726 H   0  0  0  0  0  0  0  0  0  0  0  0
   -1.3394    1.1838   -1.7920 H   0  0  0  0  0  0  0  0  0  0  0  0
   -1.4041    0.1578    1.8854 H   0  0  0  0  0  0  0  0  0  0  0  0
   -1.9836   -1.4700    1.5792 H   0  0  0  0  0  0  0  0  0  0  0  0
    2.7387    1.2156    1.9212 H   0  0  0  0  0  0  0  0  0  0  0  0
    5.0013    1.2265    1.6238 H   0  0  0  0  0  0  0  0  0  0  0  0
    7.4117    1.0221    1.2516 H   0  0  0  0  0  0  0  0  0  0  0  0
  1  2  2  0
  2  3  1  0
  3  4  2  0
  4  5  1  0
  5  6  2  0
  6  7  1  0
  7  8  1  0
  9  8  1  1
  9 10  1  0
 10 11  1  0
 11 12  1  0
 12 13  1  0
 13 14  1  0
 14 15  1  0
 15 16  1  0
 15 17  1  0
 13 18  1  0
  7 19  2  0
 19 20  1  0
  4 21  1  0
 21 22  2  0
 22  1  1  0
 20  5  1  0
 17  9  1  0
 18  9  1  0
 16 11  1  0
  1 23  1  0
  2 24  1  0
  3 25  1  0
  8 26  1  0
 10 27  1  0
 10 28  1  0
 11 29  1  6
 12 30  1  0
 12 31  1  0
 13 32  1  1
 14 33  1  0
 14 34  1  0
 15 35  1  6
 16 36  1  0
 16 37  1  0
 17 38  1  0
 17 39  1  0
 18 40  1  0
 18 41  1  0
 20 42  1  0
 21 43  1  0
 22 44  1  0
M  END
>  <_SMILES>  (146) 
c1ccc(-c2nc(N[C@]34C[C@H]5C[C@H](C[C@H](C5)C3)C4)n[nH]2)cc1

$$$$

     RDKit          3D

 44 48  0  0  0  0  0  0  0  0999 V2000
    7.2862   -0.4185   -0.2562 C   0  0  0  0  0  0  0  0  0  0  0  0
    6.5925   -1.3581   -1.0131 C   0  0  0  0  0  0  0  0  0  0  0  0
    5.1968   -1.3198   -1.0644 C   0  0  0  0  0  0  0  0  0  0  0  0
    4.4723   -0.3443   -0.3616 C   0  0  0  0  0  0  0  0  0  0  0  0
    3.0105   -0.3443   -0.4450 C   0  0  0  0  0  0  0  0  0  0  0  0
    2.2573   -1.1746   -1.1434 N   0  0  0  0  0  0  0  0  0  0  0  0
    0.9381   -0.8297   -0.9571 N   0  0  0  0  0  0  0  0  0  0  0  0
    0.8932    0.1951   -0.1401 C   0  0  0  0  0  0  0  0  0  0  0  0
   -0.1461    0.9004    0.3587 N   0  0  0  0  0  0  0  0  0  0  0  0
   -1.5383    0.4821    0.1496 C   0  0  2  0  0  0  0  0  0  0  0  0
   -2.4498    1.5305    0.8491 C   0  0  0  0  0  0  0  0  0  0  0  0
   -3.9338    1.1652    0.6856 C   0  0  1  0  0  0  0  0  0  0  0  0
   -4.2794    1.1208   -0.8106 C   0  0  0  0  0  0  0  0  0  0  0  0
   -3.4029    0.0770   -1.5195 C   0  0  2  0  0  0  0  0  0  0  0  0
   -3.6471   -1.3049   -0.8879 C   0  0  0  0  0  0  0  0  0  0  0  0
   -3.3064   -1.2719    0.6123 C   0  0  2  0  0  0  0  0  0  0  0  0
   -4.1832   -0.2180    1.3073 C   0  0  0  0  0  0  0  0  0  0  0  0
   -1.8237   -0.8970    0.7886 C   0  0  0  0  0  0  0  0  0  0  0  0
   -1.9204    0.4564   -1.3500 C   0  0  0  0  0  0  0  0  0  0  0  0
    2.1732    0.5309    0.1986 N   0  0  0  0  0  0  0  0  0  0  0  0
    5.1874    0.5959    0.3961 C   0  0  0  0  0  0  0  0  0  0  0  0
    6.5853    0.5578    0.4476 C   0  0  0  0  0  0  0  0  0  0  0  0
    8.3721   -0.4472   -0.2161 H   0  0  0  0  0  0  0  0  0  0  0  0
    7.1329   -2.1225   -1.5656 H   0  0  0  0  0  0  0  0  0  0  0  0
    4.6701   -2.0629   -1.6624 H   0  0  0  0  0  0  0  0  0  0  0  0
   -0.0063    1.4616    1.1920 H   0  0  0  0  0  0  0  0  0  0  0  0
   -2.2654    2.5299    0.4324 H   0  0  0  0  0  0  0  0  0  0  0  0
   -2.2040    1.5944    1.9178 H   0  0  0  0  0  0  0  0  0  0  0  0
   -4.5572    1.9139    1.1871 H   0  0  0  0  0  0  0  0  0  0  0  0
   -5.3397    0.8730   -0.9435 H   0  0  0  0  0  0  0  0  0  0  0  0
   -4.1244    2.1089   -1.2611 H   0  0  0  0  0  0  0  0  0  0  0  0
   -3.6556    0.0460   -2.5852 H   0  0  0  0  0  0  0  0  0  0  0  0
   -3.0355   -2.0617   -1.3943 H   0  0  0  0  0  0  0  0  0  0  0  0
   -4.6951   -1.5982   -1.0261 H   0  0  0  0  0  0  0  0  0  0  0  0
   -3.4924   -2.2567    1.0554 H   0  0  0  0  0  0  0  0  0  0  0  0
   -5.2420   -0.4876    1.2093 H   0  0  0  0  0  0  0  0  0  0  0  0
   -3.9592   -0.1928    2.3808 H   0  0  0  0  0  0  0  0  0  0  0  0
   -1.2032   -1.6776    0.3326 H   0  0  0  0  0  0  0  0  0  0  0  0
   -1.5657   -0.8827    1.8557 H   0  0  0  0  0  0  0  0  0  0  0  0
   -1.3110   -0.2658   -1.9044 H   0  0  0  0  0  0  0  0  0  0  0  0
   -1.7294    1.4359   -1.8078 H   0  0  0  0  0  0  0  0  0  0  0  0
    2.4393    1.2940    0.7945 H   0  0  0  0  0  0  0  0  0  0  0  0
    4.6821    1.3746    0.9582 H   0  0  0  0  0  0  0  0  0  0  0  0
    7.1280    1.2923    1.0377 H   0  0  0  0  0  0  0  0  0  0  0  0
  1  2  2  0
  2  3  1  0
  3  4  2  0
  4  5  1  0
  5  6  2  0
  6  7  1  0
  7  8  2  0
  8  9  1  0
 10  9  1  6
 10 11  1  0
 11 12  1  0
 12 13  1  0
 13 14  1  0
 14 15  1  0
 15 16  1  0
 16 17  1  0
 16 18  1  0
 14 19  1  0
  8 20  1  0
  4 21  1  0
 21 22  2  0
 22  1  1  0
 20  5  1  0
 18 10  1  0
 19 10  1  0
 17 12  1  0
  1 23  1  0
  2 24  1  0
  3 25  1  0
  9 26  1  0
 11 27  1  0
 11 28  1  0
 12 29  1  1
 13 30  1  0
 13 31  1  0
 14 32  1  6
 15 33  1  0
 15 34  1  0
 16 35  1  1
 17 36  1  0
 17 37  1  0
 18 38  1  0
 18 39  1  0
 19 40  1  0
 19 41  1  0
 20 42  1  0
 21 43  1  0
 22 44  1  0
M  END
>  <_SMILES>  (147) 
c1ccc(-c2nnc(N[C@]34C[C@H]5C[C@H](C[C@H](C5)C3)C4)[nH]2)cc1

$$$$

     RDKit          3D

 44 48  0  0  0  0  0  0  0  0999 V2000
    7.2061    0.1112   -0.3382 C   0  0  0  0  0  0  0  0  0  0  0  0
    6.3526    0.6365   -1.3077 C   0  0  0  0  0  0  0  0  0  0  0  0
    4.9695    0.5422   -1.1450 C   0  0  0  0  0  0  0  0  0  0  0  0
    4.4375   -0.0828   -0.0117 C   0  0  0  0  0  0  0  0  0  0  0  0
    2.9700   -0.1815    0.1420 C   0  0  0  0  0  0  0  0  0  0  0  0
    2.1242    0.4457   -0.6449 N   0  0  0  0  0  0  0  0  0  0  0  0
    0.8771    0.0507   -0.1953 C   0  0  0  0  0  0  0  0  0  0  0  0
   -0.1315    0.6147   -0.7262 N   0  0  0  0  0  0  0  0  0  0  0  0
   -1.5237    0.3379   -0.3889 C   0  0  2  0  0  0  0  0  0  0  0  0
   -1.8850   -1.1592   -0.4879 C   0  0  0  0  0  0  0  0  0  0  0  0
   -3.3856   -1.3637   -0.2083 C   0  0  1  0  0  0  0  0  0  0  0  0
   -3.7161   -0.8253    1.1955 C   0  0  0  0  0  0  0  0  0  0  0  0
   -3.3923    0.6771    1.2801 C   0  0  2  0  0  0  0  0  0  0  0  0
   -4.2153    1.4319    0.2239 C   0  0  0  0  0  0  0  0  0  0  0  0
   -3.8766    0.9047   -1.1793 C   0  0  2  0  0  0  0  0  0  0  0  0
   -4.2079   -0.5937   -1.2534 C   0  0  0  0  0  0  0  0  0  0  0  0
   -2.3750    1.1006   -1.4413 C   0  0  0  0  0  0  0  0  0  0  0  0
   -1.8926    0.8909    1.0034 C   0  0  0  0  0  0  0  0  0  0  0  0
    1.0005   -0.8948    0.8090 N   0  0  0  0  0  0  0  0  0  0  0  0
    2.3485   -0.9624    1.1108 N   0  0  0  0  0  0  0  0  0  0  0  0
    5.2960   -0.6031    0.9638 C   0  0  0  0  0  0  0  0  0  0  0  0
    6.6797   -0.5056    0.7970 C   0  0  0  0  0  0  0  0  0  0  0  0
    8.2832    0.1885   -0.4654 H   0  0  0  0  0  0  0  0  0  0  0  0
    6.7616    1.1225   -2.1901 H   0  0  0  0  0  0  0  0  0  0  0  0
    4.3094    0.9568   -1.9047 H   0  0  0  0  0  0  0  0  0  0  0  0
   -1.3159   -1.7569    0.2313 H   0  0  0  0  0  0  0  0  0  0  0  0
   -1.6304   -1.5478   -1.4824 H   0  0  0  0  0  0  0  0  0  0  0  0
   -3.6282   -2.4310   -0.2615 H   0  0  0  0  0  0  0  0  0  0  0  0
   -4.7775   -0.9910    1.4178 H   0  0  0  0  0  0  0  0  0  0  0  0
   -3.1428   -1.3750    1.9521 H   0  0  0  0  0  0  0  0  0  0  0  0
   -3.6401    1.0535    2.2789 H   0  0  0  0  0  0  0  0  0  0  0  0
   -4.0041    2.5068    0.2819 H   0  0  0  0  0  0  0  0  0  0  0  0
   -5.2867    1.3068    0.4233 H   0  0  0  0  0  0  0  0  0  0  0  0
   -4.4588    1.4502   -1.9303 H   0  0  0  0  0  0  0  0  0  0  0  0
   -3.9905   -0.9769   -2.2579 H   0  0  0  0  0  0  0  0  0  0  0  0
   -5.2792   -0.7504   -1.0776 H   0  0  0  0  0  0  0  0  0  0  0  0
   -2.1258    0.7520   -2.4526 H   0  0  0  0  0  0  0  0  0  0  0  0
   -2.1321    2.1716   -1.4198 H   0  0  0  0  0  0  0  0  0  0  0  0
   -1.3139    0.4011    1.7926 H   0  0  0  0  0  0  0  0  0  0  0  0
   -1.6486    1.9595    1.0652 H   0  0  0  0  0  0  0  0  0  0  0  0
    0.3656   -0.7389    1.5833 H   0  0  0  0  0  0  0  0  0  0  0  0
    2.7366   -1.9004    1.2000 H   0  0  0  0  0  0  0  0  0  0  0  0
    4.9087   -1.0688    1.8647 H   0  0  0  0  0  0  0  0  0  0  0  0
    7.3492   -0.9043    1.5553 H   0  0  0  0  0  0  0  0  0  0  0  0
  1  2  2  0
  2  3  1  0
  3  4  2  0
  4  5  1  0
  5  6  2  0
  6  7  1  0
  7  8  2  0
  9  8  1  6
  9 10  1  0
 10 11  1  0
 11 12  1  0
 12 13  1  0
 13 14  1  0
 14 15  1  0
 15 16  1  0
 15 17  1  0
 13 18  1  0
  7 19  1  0
 19 20  1  0
  4 21  1  0
 21 22  2  0
 22  1  1  0
 20  5  1  0
 17  9  1  0
 18  9  1  0
 16 11  1  0
  1 23  1  0
  2 24  1  0
  3 25  1  0
 10 26  1  0
 10 27  1  0
 11 28  1  1
 12 29  1  0
 12 30  1  0
 13 31  1  1
 14 32  1  0
 14 33  1  0
 15 34  1  6
 16 35  1  0
 16 36  1  0
 17 37  1  0
 17 38  1  0
 18 39  1  0
 18 40  1  0
 19 41  1  0
 20 42  1  0
 21 43  1  0
 22 44  1  0
M  END
>  <_SMILES>  (148) 
c1ccc(-c2n/c(=N/[C@]34C[C@H]5C[C@H](C[C@H](C5)C3)C4)[nH][nH]2)cc1

$$$$

     RDKit          3D

 44 48  0  0  0  0  0  0  0  0999 V2000
    5.6636    2.0488    0.6770 C   0  0  0  0  0  0  0  0  0  0  0  0
    4.3437    2.2706    1.0685 C   0  0  0  0  0  0  0  0  0  0  0  0
    3.3679    1.3067    0.8099 C   0  0  0  0  0  0  0  0  0  0  0  0
    3.7132    0.1155    0.1616 C   0  0  0  0  0  0  0  0  0  0  0  0
    2.6690   -0.8982   -0.0992 C   0  0  0  0  0  0  0  0  0  0  0  0
    1.3863   -0.6660    0.0836 N   0  0  0  0  0  0  0  0  0  0  0  0
    0.7816   -1.8639   -0.2333 C   0  0  0  0  0  0  0  0  0  0  0  0
   -0.4795   -2.0390   -0.3511 N   0  0  0  0  0  0  0  0  0  0  0  0
   -1.4643   -0.9801   -0.1144 C   0  0  2  0  0  0  0  0  0  0  0  0
   -2.8524   -1.6418   -0.3444 C   0  0  0  0  0  0  0  0  0  0  0  0
   -3.9879   -0.6291   -0.1275 C   0  0  1  0  0  0  0  0  0  0  0  0
   -3.9167   -0.0943    1.3111 C   0  0  0  0  0  0  0  0  0  0  0  0
   -2.5560    0.5776    1.5529 C   0  0  2  0  0  0  0  0  0  0  0  0
   -2.3779    1.7369    0.5558 C   0  0  0  0  0  0  0  0  0  0  0  0
   -2.4547    1.2143   -0.8901 C   0  0  2  0  0  0  0  0  0  0  0  0
   -3.8162    0.5374   -1.1127 C   0  0  0  0  0  0  0  0  0  0  0  0
   -1.3316    0.1858   -1.1183 C   0  0  0  0  0  0  0  0  0  0  0  0
   -1.4334   -0.4541    1.3373 C   0  0  0  0  0  0  0  0  0  0  0  0
    1.7255   -2.8435   -0.4759 N   0  0  0  0  0  0  0  0  0  0  0  0
    2.9413   -2.1925   -0.5349 N   0  0  0  0  0  0  0  0  0  0  0  0
    5.0371   -0.1019   -0.2370 C   0  0  0  0  0  0  0  0  0  0  0  0
    6.0100    0.8661    0.0232 C   0  0  0  0  0  0  0  0  0  0  0  0
    6.4219    2.8021    0.8767 H   0  0  0  0  0  0  0  0  0  0  0  0
    4.0722    3.1944    1.5733 H   0  0  0  0  0  0  0  0  0  0  0  0
    2.3397    1.4881    1.1169 H   0  0  0  0  0  0  0  0  0  0  0  0
   -2.9813   -2.4945    0.3358 H   0  0  0  0  0  0  0  0  0  0  0  0
   -2.9110   -2.0521   -1.3616 H   0  0  0  0  0  0  0  0  0  0  0  0
   -4.9557   -1.1151   -0.2943 H   0  0  0  0  0  0  0  0  0  0  0  0
   -4.7266    0.6249    1.4848 H   0  0  0  0  0  0  0  0  0  0  0  0
   -4.0614   -0.9152    2.0241 H   0  0  0  0  0  0  0  0  0  0  0  0
   -2.5115    0.9615    2.5782 H   0  0  0  0  0  0  0  0  0  0  0  0
   -1.4133    2.2312    0.7247 H   0  0  0  0  0  0  0  0  0  0  0  0
   -3.1559    2.4926    0.7205 H   0  0  0  0  0  0  0  0  0  0  0  0
   -2.3386    2.0482   -1.5914 H   0  0  0  0  0  0  0  0  0  0  0  0
   -4.6245    1.2662   -0.9761 H   0  0  0  0  0  0  0  0  0  0  0  0
   -3.8886    0.1711   -2.1441 H   0  0  0  0  0  0  0  0  0  0  0  0
   -1.3713   -0.1927   -2.1480 H   0  0  0  0  0  0  0  0  0  0  0  0
   -0.3677    0.6954   -1.0173 H   0  0  0  0  0  0  0  0  0  0  0  0
   -1.5451   -1.2855    2.0453 H   0  0  0  0  0  0  0  0  0  0  0  0
   -0.4751    0.0207    1.5725 H   0  0  0  0  0  0  0  0  0  0  0  0
    1.4498   -3.4452   -1.2468 H   0  0  0  0  0  0  0  0  0  0  0  0
    3.7115   -2.6479   -0.0478 H   0  0  0  0  0  0  0  0  0  0  0  0
    5.3254   -1.0056   -0.7653 H   0  0  0  0  0  0  0  0  0  0  0  0
    7.0385    0.7022   -0.2893 H   0  0  0  0  0  0  0  0  0  0  0  0
  1  2  2  0
  2  3  1  0
  3  4  2  0
  4  5  1  0
  5  6  2  0
  6  7  1  0
  7  8  2  0
  9  8  1  1
  9 10  1  0
 10 11  1  0
 11 12  1  0
 12 13  1  0
 13 14  1  0
 14 15  1  0
 15 16  1  0
 15 17  1  0
 13 18  1  0
  7 19  1  0
 19 20  1  0
  4 21  1  0
 21 22  2  0
 22  1  1  0
 20  5  1  0
 17  9  1  0
 18  9  1  0
 16 11  1  0
  1 23  1  0
  2 24  1  0
  3 25  1  0
 10 26  1  0
 10 27  1  0
 11 28  1  6
 12 29  1  0
 12 30  1  0
 13 31  1  1
 14 32  1  0
 14 33  1  0
 15 34  1  6
 16 35  1  0
 16 36  1  0
 17 37  1  0
 17 38  1  0
 18 39  1  0
 18 40  1  0
 19 41  1  0
 20 42  1  0
 21 43  1  0
 22 44  1  0
M  END
>  <_SMILES>  (149) 
c1ccc(-c2n/c(=N\[C@]34C[C@H]5C[C@H](C[C@H](C5)C3)C4)[nH][nH]2)cc1

$$$$

     RDKit          3D

 44 48  0  0  0  0  0  0  0  0999 V2000
    7.2528    0.3118   -0.1405 C   0  0  0  0  0  0  0  0  0  0  0  0
    6.7224   -0.3924    0.9388 C   0  0  0  0  0  0  0  0  0  0  0  0
    5.3451   -0.6157    1.0195 C   0  0  0  0  0  0  0  0  0  0  0  0
    4.4832   -0.1370    0.0215 C   0  0  0  0  0  0  0  0  0  0  0  0
    3.0427   -0.3654    0.0980 C   0  0  0  0  0  0  0  0  0  0  0  0
    2.4374   -1.0352    1.0930 N   0  0  0  0  0  0  0  0  0  0  0  0
    1.1515   -0.9827    0.7114 N   0  0  0  0  0  0  0  0  0  0  0  0
    0.9915   -0.2864   -0.4515 C   0  0  0  0  0  0  0  0  0  0  0  0
   -0.1775   -0.0592   -1.0899 N   0  0  0  0  0  0  0  0  0  0  0  0
   -1.5136   -0.0052   -0.4978 C   0  0  2  0  0  0  0  0  0  0  0  0
   -2.4692    0.6118   -1.5614 C   0  0  0  0  0  0  0  0  0  0  0  0
   -3.9086    0.6951   -1.0290 C   0  0  1  0  0  0  0  0  0  0  0  0
   -4.3979   -0.7179   -0.6776 C   0  0  0  0  0  0  0  0  0  0  0  0
   -3.4794   -1.3398    0.3855 C   0  0  2  0  0  0  0  0  0  0  0  0
   -3.4909   -0.4570    1.6458 C   0  0  0  0  0  0  0  0  0  0  0  0
   -3.0074    0.9636    1.3050 C   0  0  2  0  0  0  0  0  0  0  0  0
   -3.9280    1.5695    0.2343 C   0  0  0  0  0  0  0  0  0  0  0  0
   -1.5692    0.8924    0.7599 C   0  0  0  0  0  0  0  0  0  0  0  0
   -2.0439   -1.4194   -0.1660 C   0  0  0  0  0  0  0  0  0  0  0  0
    2.1718    0.1017   -0.8649 N   0  0  0  0  0  0  0  0  0  0  0  0
    5.0315    0.5699   -1.0588 C   0  0  0  0  0  0  0  0  0  0  0  0
    6.4087    0.7931   -1.1395 C   0  0  0  0  0  0  0  0  0  0  0  0
    8.3239    0.4851   -0.2033 H   0  0  0  0  0  0  0  0  0  0  0  0
    7.3783   -0.7694    1.7191 H   0  0  0  0  0  0  0  0  0  0  0  0
    4.9458   -1.1676    1.8680 H   0  0  0  0  0  0  0  0  0  0  0  0
    0.4526   -1.4320    1.2840 H   0  0  0  0  0  0  0  0  0  0  0  0
   -0.0577    0.5553   -1.8942 H   0  0  0  0  0  0  0  0  0  0  0  0
   -2.4493    0.0120   -2.4814 H   0  0  0  0  0  0  0  0  0  0  0  0
   -2.1240    1.6158   -1.8433 H   0  0  0  0  0  0  0  0  0  0  0  0
   -4.5614    1.1334   -1.7921 H   0  0  0  0  0  0  0  0  0  0  0  0
   -5.4288   -0.6765   -0.3051 H   0  0  0  0  0  0  0  0  0  0  0  0
   -4.4094   -1.3457   -1.5770 H   0  0  0  0  0  0  0  0  0  0  0  0
   -3.8340   -2.3460    0.6357 H   0  0  0  0  0  0  0  0  0  0  0  0
   -4.5047   -0.4158    2.0628 H   0  0  0  0  0  0  0  0  0  0  0  0
   -2.8471   -0.8970    2.4173 H   0  0  0  0  0  0  0  0  0  0  0  0
   -3.0292    1.5873    2.2056 H   0  0  0  0  0  0  0  0  0  0  0  0
   -4.9517    1.6478    0.6206 H   0  0  0  0  0  0  0  0  0  0  0  0
   -3.6007    2.5878   -0.0090 H   0  0  0  0  0  0  0  0  0  0  0  0
   -0.9150    0.5090    1.5509 H   0  0  0  0  0  0  0  0  0  0  0  0
   -1.2081    1.9019    0.5236 H   0  0  0  0  0  0  0  0  0  0  0  0
   -2.0230   -2.0528   -1.0627 H   0  0  0  0  0  0  0  0  0  0  0  0
   -1.4135   -1.9212    0.5741 H   0  0  0  0  0  0  0  0  0  0  0  0
    4.3843    0.9508   -1.8465 H   0  0  0  0  0  0  0  0  0  0  0  0
    6.8194    1.3421   -1.9827 H   0  0  0  0  0  0  0  0  0  0  0  0
  1  2  2  0
  2  3  1  0
  3  4  2  0
  4  5  1  0
  5  6  2  0
  6  7  1  0
  7  8  1  0
  8  9  1  0
 10  9  1  6
 10 11  1  0
 11 12  1  0
 12 13  1  0
 13 14  1  0
 14 15  1  0
 15 16  1  0
 16 17  1  0
 16 18  1  0
 14 19  1  0
  8 20  2  0
  4 21  1  0
 21 22  2  0
 22  1  1  0
 20  5  1  0
 18 10  1  0
 19 10  1  0
 17 12  1  0
  1 23  1  0
  2 24  1  0
  3 25  1  0
  7 26  1  0
  9 27  1  0
 11 28  1  0
 11 29  1  0
 12 30  1  6
 13 31  1  0
 13 32  1  0
 14 33  1  1
 15 34  1  0
 15 35  1  0
 16 36  1  1
 17 37  1  0
 17 38  1  0
 18 39  1  0
 18 40  1  0
 19 41  1  0
 19 42  1  0
 21 43  1  0
 22 44  1  0
M  END
>  <_SMILES>  (150) 
c1ccc(-c2n[nH]c(N[C@]34C[C@H]5C[C@H](C[C@H](C5)C3)C4)n2)cc1

$$$$

     RDKit          3D

 44 48  0  0  0  0  0  0  0  0999 V2000
    7.3221   -0.4291   -0.0229 C   0  0  0  0  0  0  0  0  0  0  0  0
    6.7864    0.1744   -1.1595 C   0  0  0  0  0  0  0  0  0  0  0  0
    5.4039    0.3224   -1.2851 C   0  0  0  0  0  0  0  0  0  0  0  0
    4.5517   -0.1339   -0.2722 C   0  0  0  0  0  0  0  0  0  0  0  0
    3.0947    0.0337   -0.4279 C   0  0  0  0  0  0  0  0  0  0  0  0
    2.5228    0.5974   -1.4805 N   0  0  0  0  0  0  0  0  0  0  0  0
    1.1642    0.5256   -1.1715 N   0  0  0  0  0  0  0  0  0  0  0  0
    0.8716   -0.0674    0.0454 C   0  0  0  0  0  0  0  0  0  0  0  0
   -0.1663   -0.3415    0.7182 N   0  0  0  0  0  0  0  0  0  0  0  0
   -1.5647   -0.0908    0.3899 C   0  0  2  0  0  0  0  0  0  0  0  0
   -2.2901   -1.4581    0.4014 C   0  0  0  0  0  0  0  0  0  0  0  0
   -3.8039   -1.2724    0.2042 C   0  0  1  0  0  0  0  0  0  0  0  0
   -4.3577   -0.3968    1.3409 C   0  0  0  0  0  0  0  0  0  0  0  0
   -3.6659    0.9767    1.3335 C   0  0  2  0  0  0  0  0  0  0  0  0
   -3.9185    1.6637   -0.0179 C   0  0  0  0  0  0  0  0  0  0  0  0
   -3.3612    0.7971   -1.1588 C   0  0  2  0  0  0  0  0  0  0  0  0
   -4.0559   -0.5742   -1.1415 C   0  0  0  0  0  0  0  0  0  0  0  0
   -1.8462    0.6016   -0.9548 C   0  0  0  0  0  0  0  0  0  0  0  0
   -2.1527    0.7810    1.5257 C   0  0  0  0  0  0  0  0  0  0  0  0
    2.1407   -0.3605    0.4740 N   0  0  0  0  0  0  0  0  0  0  0  0
    5.0931   -0.7394    0.8675 C   0  0  0  0  0  0  0  0  0  0  0  0
    6.4777   -0.8854    0.9889 C   0  0  0  0  0  0  0  0  0  0  0  0
    8.3990   -0.5440    0.0740 H   0  0  0  0  0  0  0  0  0  0  0  0
    7.4436    0.5305   -1.9490 H   0  0  0  0  0  0  0  0  0  0  0  0
    4.9968    0.7950   -2.1766 H   0  0  0  0  0  0  0  0  0  0  0  0
    0.4746    0.8895   -1.8119 H   0  0  0  0  0  0  0  0  0  0  0  0
   -1.8860   -2.1045   -0.3888 H   0  0  0  0  0  0  0  0  0  0  0  0
   -2.1033   -1.9802    1.3494 H   0  0  0  0  0  0  0  0  0  0  0  0
   -4.3009   -2.2488    0.2136 H   0  0  0  0  0  0  0  0  0  0  0  0
   -4.1981   -0.8916    2.3068 H   0  0  0  0  0  0  0  0  0  0  0  0
   -5.4410   -0.2711    1.2229 H   0  0  0  0  0  0  0  0  0  0  0  0
   -4.0649    1.5964    2.1442 H   0  0  0  0  0  0  0  0  0  0  0  0
   -4.9939    1.8257   -0.1611 H   0  0  0  0  0  0  0  0  0  0  0  0
   -3.4430    2.6521   -0.0309 H   0  0  0  0  0  0  0  0  0  0  0  0
   -3.5430    1.2908   -2.1200 H   0  0  0  0  0  0  0  0  0  0  0  0
   -5.1337   -0.4506   -1.3040 H   0  0  0  0  0  0  0  0  0  0  0  0
   -3.6793   -1.1960   -1.9630 H   0  0  0  0  0  0  0  0  0  0  0  0
   -1.4549    0.0019   -1.7856 H   0  0  0  0  0  0  0  0  0  0  0  0
   -1.3578    1.5830   -0.9917 H   0  0  0  0  0  0  0  0  0  0  0  0
   -1.9624    0.3141    2.5014 H   0  0  0  0  0  0  0  0  0  0  0  0
   -1.6489    1.7564    1.5498 H   0  0  0  0  0  0  0  0  0  0  0  0
    2.2891   -0.8128    1.3565 H   0  0  0  0  0  0  0  0  0  0  0  0
    4.4623   -1.1041    1.6709 H   0  0  0  0  0  0  0  0  0  0  0  0
    6.8996   -1.3557    1.8741 H   0  0  0  0  0  0  0  0  0  0  0  0
  1  2  2  0
  2  3  1  0
  3  4  2  0
  4  5  1  0
  5  6  2  0
  6  7  1  0
  7  8  1  0
  8  9  2  0
 10  9  1  1
 10 11  1  0
 11 12  1  0
 12 13  1  0
 13 14  1  0
 14 15  1  0
 15 16  1  0
 16 17  1  0
 16 18  1  0
 14 19  1  0
  8 20  1  0
  4 21  1  0
 21 22  2  0
 22  1  1  0
 20  5  1  0
 18 10  1  0
 19 10  1  0
 17 12  1  0
  1 23  1  0
  2 24  1  0
  3 25  1  0
  7 26  1  0
 11 27  1  0
 11 28  1  0
 12 29  1  6
 13 30  1  0
 13 31  1  0
 14 32  1  1
 15 33  1  0
 15 34  1  0
 16 35  1  6
 17 36  1  0
 17 37  1  0
 18 38  1  0
 18 39  1  0
 19 40  1  0
 19 41  1  0
 20 42  1  0
 21 43  1  0
 22 44  1  0
M  END
>  <_SMILES>  (151) 
c1ccc(-c2n[nH]/c(=N\[C@]34C[C@H]5C[C@H](C[C@H](C5)C3)C4)[nH]2)cc1

$$$$

     RDKit          3D

 44 48  0  0  0  0  0  0  0  0999 V2000
    5.9741    0.7841    2.0921 C   0  0  0  0  0  0  0  0  0  0  0  0
    6.2937   -0.0638    1.0331 C   0  0  0  0  0  0  0  0  0  0  0  0
    5.2835   -0.5597    0.2071 C   0  0  0  0  0  0  0  0  0  0  0  0
    3.9478   -0.2085    0.4381 C   0  0  0  0  0  0  0  0  0  0  0  0
    2.8996   -0.7468   -0.4503 C   0  0  0  0  0  0  0  0  0  0  0  0
    3.1418   -1.5552   -1.4703 N   0  0  0  0  0  0  0  0  0  0  0  0
    1.8726   -1.7818   -1.9874 N   0  0  0  0  0  0  0  0  0  0  0  0
    0.8408   -1.1406   -1.3235 C   0  0  0  0  0  0  0  0  0  0  0  0
   -0.3909   -1.2127   -1.6311 N   0  0  0  0  0  0  0  0  0  0  0  0
   -1.4580   -0.5228   -0.9093 C   0  0  2  0  0  0  0  0  0  0  0  0
   -2.7796   -0.8995   -1.6327 C   0  0  0  0  0  0  0  0  0  0  0  0
   -3.9848   -0.2261   -0.9564 C   0  0  1  0  0  0  0  0  0  0  0  0
   -4.0611   -0.6847    0.5084 C   0  0  0  0  0  0  0  0  0  0  0  0
   -2.7649   -0.3081    1.2435 C   0  0  2  0  0  0  0  0  0  0  0  0
   -2.5728    1.2181    1.1847 C   0  0  0  0  0  0  0  0  0  0  0  0
   -2.5018    1.6912   -0.2785 C   0  0  2  0  0  0  0  0  0  0  0  0
   -3.8001    1.2989   -1.0017 C   0  0  0  0  0  0  0  0  0  0  0  0
   -1.3081    1.0119   -0.9741 C   0  0  0  0  0  0  0  0  0  0  0  0
   -1.5724   -0.9966    0.5550 C   0  0  0  0  0  0  0  0  0  0  0  0
    1.5519   -0.4915   -0.3479 N   0  0  0  0  0  0  0  0  0  0  0  0
    3.6308    0.6433    1.5026 C   0  0  0  0  0  0  0  0  0  0  0  0
    4.6457    1.1373    2.3270 C   0  0  0  0  0  0  0  0  0  0  0  0
    6.7619    1.1697    2.7349 H   0  0  0  0  0  0  0  0  0  0  0  0
    7.3289   -0.3403    0.8486 H   0  0  0  0  0  0  0  0  0  0  0  0
    5.5449   -1.2210   -0.6167 H   0  0  0  0  0  0  0  0  0  0  0  0
    1.7011   -2.3717   -2.7920 H   0  0  0  0  0  0  0  0  0  0  0  0
   -2.7314   -0.6003   -2.6884 H   0  0  0  0  0  0  0  0  0  0  0  0
   -2.9142   -1.9896   -1.6307 H   0  0  0  0  0  0  0  0  0  0  0  0
   -4.9067   -0.5031   -1.4796 H   0  0  0  0  0  0  0  0  0  0  0  0
   -4.2164   -1.7696    0.5541 H   0  0  0  0  0  0  0  0  0  0  0  0
   -4.9221   -0.2186    1.0032 H   0  0  0  0  0  0  0  0  0  0  0  0
   -2.8256   -0.6334    2.2881 H   0  0  0  0  0  0  0  0  0  0  0  0
   -1.6547    1.5006    1.7144 H   0  0  0  0  0  0  0  0  0  0  0  0
   -3.4033    1.7181    1.6980 H   0  0  0  0  0  0  0  0  0  0  0  0
   -2.3765    2.7793   -0.3099 H   0  0  0  0  0  0  0  0  0  0  0  0
   -4.6571    1.7949   -0.5297 H   0  0  0  0  0  0  0  0  0  0  0  0
   -3.7675    1.6420   -2.0431 H   0  0  0  0  0  0  0  0  0  0  0  0
   -1.2434    1.3437   -2.0186 H   0  0  0  0  0  0  0  0  0  0  0  0
   -0.3838    1.3451   -0.4915 H   0  0  0  0  0  0  0  0  0  0  0  0
   -0.6625   -0.7730    1.1209 H   0  0  0  0  0  0  0  0  0  0  0  0
   -1.6948   -2.0869    0.5931 H   0  0  0  0  0  0  0  0  0  0  0  0
    1.1257    0.0916    0.3443 H   0  0  0  0  0  0  0  0  0  0  0  0
    2.6084    0.9371    1.7122 H   0  0  0  0  0  0  0  0  0  0  0  0
    4.4012    1.7992    3.1545 H   0  0  0  0  0  0  0  0  0  0  0  0
  1  2  2  0
  2  3  1  0
  3  4  2  0
  4  5  1  0
  5  6  2  0
  6  7  1  0
  7  8  1  0
  8  9  2  0
 10  9  1  6
 10 11  1  0
 11 12  1  0
 12 13  1  0
 13 14  1  0
 14 15  1  0
 15 16  1  0
 16 17  1  0
 16 18  1  0
 14 19  1  0
  8 20  1  0
  4 21  1  0
 21 22  2  0
 22  1  1  0
 20  5  1  0
 18 10  1  0
 19 10  1  0
 17 12  1  0
  1 23  1  0
  2 24  1  0
  3 25  1  0
  7 26  1  0
 11 27  1  0
 11 28  1  0
 12 29  1  6
 13 30  1  0
 13 31  1  0
 14 32  1  1
 15 33  1  0
 15 34  1  0
 16 35  1  1
 17 36  1  0
 17 37  1  0
 18 38  1  0
 18 39  1  0
 19 40  1  0
 19 41  1  0
 20 42  1  0
 21 43  1  0
 22 44  1  0
M  END
>  <_SMILES>  (152) 
c1ccc(-c2n[nH]/c(=N/[C@]34C[C@H]5C[C@H](C[C@H](C5)C3)C4)[nH]2)cc1

$$$$

     RDKit          3D

 38 41  0  0  0  0  0  0  0  0999 V2000
    5.4996   -0.7335   -0.0301 C   0  0  0  0  0  0  0  0  0  0  0  0
    4.0908   -0.4739   -0.1757 N   0  0  0  0  0  0  0  0  0  0  0  0
    3.1822   -1.3552    0.2720 N   0  0  0  0  0  0  0  0  0  0  0  0
    2.0368   -0.7581   -0.0571 C   0  0  0  0  0  0  0  0  0  0  0  0
    0.8348   -1.2912    0.1913 N   0  0  0  0  0  0  0  0  0  0  0  0
   -0.4372   -0.5780    0.1498 C   0  0  2  0  0  0  0  0  0  0  0  0
   -0.7925   -0.1060   -1.2804 C   0  0  0  0  0  0  0  0  0  0  0  0
   -2.1711    0.5798   -1.2930 C   0  0  1  0  0  0  0  0  0  0  0  0
   -3.2415   -0.4210   -0.8316 C   0  0  0  0  0  0  0  0  0  0  0  0
   -2.9269   -0.9037    0.5923 C   0  0  2  0  0  0  0  0  0  0  0  0
   -2.9098    0.3008    1.5464 C   0  0  0  0  0  0  0  0  0  0  0  0
   -1.8374    1.3075    1.1011 C   0  0  2  0  0  0  0  0  0  0  0  0
   -2.1484    1.7798   -0.3299 C   0  0  0  0  0  0  0  0  0  0  0  0
   -0.4578    0.6246    1.1221 C   0  0  0  0  0  0  0  0  0  0  0  0
   -1.5438   -1.5740    0.6026 C   0  0  0  0  0  0  0  0  0  0  0  0
    2.1834    0.4511   -0.6682 N   0  0  0  0  0  0  0  0  0  0  0  0
    3.4884    0.6115   -0.7368 C   0  0  0  0  0  0  0  0  0  0  0  0
    4.1635    1.7283   -1.2986 C   0  0  0  0  0  0  0  0  0  0  0  0
    4.7715    2.6133   -1.7406 N   0  0  0  0  0  0  0  0  0  0  0  0
    5.9591   -0.7275   -1.0216 H   0  0  0  0  0  0  0  0  0  0  0  0
    5.9326    0.0467    0.6007 H   0  0  0  0  0  0  0  0  0  0  0  0
    5.6452   -1.7108    0.4376 H   0  0  0  0  0  0  0  0  0  0  0  0
    0.8601   -2.1025    0.7982 H   0  0  0  0  0  0  0  0  0  0  0  0
   -0.0500    0.6017   -1.6644 H   0  0  0  0  0  0  0  0  0  0  0  0
   -0.7916   -0.9578   -1.9730 H   0  0  0  0  0  0  0  0  0  0  0  0
   -2.4016    0.9245   -2.3073 H   0  0  0  0  0  0  0  0  0  0  0  0
   -4.2318    0.0500   -0.8580 H   0  0  0  0  0  0  0  0  0  0  0  0
   -3.2769   -1.2755   -1.5185 H   0  0  0  0  0  0  0  0  0  0  0  0
   -3.6889   -1.6213    0.9163 H   0  0  0  0  0  0  0  0  0  0  0  0
   -2.7067   -0.0348    2.5708 H   0  0  0  0  0  0  0  0  0  0  0  0
   -3.8948    0.7832    1.5589 H   0  0  0  0  0  0  0  0  0  0  0  0
   -1.8332    2.1668    1.7811 H   0  0  0  0  0  0  0  0  0  0  0  0
   -3.1177    2.2931   -0.3509 H   0  0  0  0  0  0  0  0  0  0  0  0
   -1.3956    2.5080   -0.6561 H   0  0  0  0  0  0  0  0  0  0  0  0
   -0.2198    0.2938    2.1417 H   0  0  0  0  0  0  0  0  0  0  0  0
    0.3064    1.3631    0.8527 H   0  0  0  0  0  0  0  0  0  0  0  0
   -1.3261   -1.9494    1.6118 H   0  0  0  0  0  0  0  0  0  0  0  0
   -1.5533   -2.4534   -0.0554 H   0  0  0  0  0  0  0  0  0  0  0  0
  1  2  1  0
  2  3  1  0
  3  4  2  0
  4  5  1  0
  6  5  1  6
  6  7  1  0
  7  8  1  0
  8  9  1  0
  9 10  1  0
 10 11  1  0
 11 12  1  0
 12 13  1  0
 12 14  1  0
 10 15  1  0
  4 16  1  0
 16 17  2  0
 17 18  1  0
 18 19  3  0
 17  2  1  0
 14  6  1  0
 15  6  1  0
 13  8  1  0
  1 20  1  0
  1 21  1  0
  1 22  1  0
  5 23  1  0
  7 24  1  0
  7 25  1  0
  8 26  1  6
  9 27  1  0
  9 28  1  0
 10 29  1  1
 11 30  1  0
 11 31  1  0
 12 32  1  1
 13 33  1  0
 13 34  1  0
 14 35  1  0
 14 36  1  0
 15 37  1  0
 15 38  1  0
M  END
>  <_SMILES>  (153) 
Cn1nc(N[C@]23C[C@H]4C[C@H](C[C@H](C4)C2)C3)nc1C#N

$$$$

     RDKit          3D

 38 41  0  0  0  0  0  0  0  0999 V2000
    5.3662    0.1894    1.1164 C   0  0  0  0  0  0  0  0  0  0  0  0
    4.0826    0.5412    0.5362 N   0  0  0  0  0  0  0  0  0  0  0  0
    3.0391    0.8507    1.3953 N   0  0  0  0  0  0  0  0  0  0  0  0
    1.8822    0.4251    0.7570 C   0  0  0  0  0  0  0  0  0  0  0  0
    0.7056    0.7633    1.1219 N   0  0  0  0  0  0  0  0  0  0  0  0
   -0.5152    0.3344    0.4343 C   0  0  2  0  0  0  0  0  0  0  0  0
   -0.6002    0.8747   -1.0096 C   0  0  0  0  0  0  0  0  0  0  0  0
   -1.9470    0.4828   -1.6452 C   0  0  1  0  0  0  0  0  0  0  0  0
   -2.0861   -1.0503   -1.6346 C   0  0  0  0  0  0  0  0  0  0  0  0
   -2.0451   -1.5803   -0.1899 C   0  0  2  0  0  0  0  0  0  0  0  0
   -3.1903   -0.9459    0.6150 C   0  0  0  0  0  0  0  0  0  0  0  0
   -3.0440    0.5836    0.6170 C   0  0  2  0  0  0  0  0  0  0  0  0
   -3.0929    1.1011   -0.8289 C   0  0  0  0  0  0  0  0  0  0  0  0
   -1.6897    0.9583    1.2395 C   0  0  0  0  0  0  0  0  0  0  0  0
   -0.6988   -1.1985    0.4529 C   0  0  0  0  0  0  0  0  0  0  0  0
    2.1717   -0.3465   -0.3540 N   0  0  0  0  0  0  0  0  0  0  0  0
    3.4742   -0.2487   -0.4270 C   0  0  0  0  0  0  0  0  0  0  0  0
    4.1481   -0.9776   -1.4698 C   0  0  0  0  0  0  0  0  0  0  0  0
    4.7456   -1.5535   -2.2842 N   0  0  0  0  0  0  0  0  0  0  0  0
    5.3105   -0.7736    1.6350 H   0  0  0  0  0  0  0  0  0  0  0  0
    5.6798    0.9534    1.8354 H   0  0  0  0  0  0  0  0  0  0  0  0
    6.1367    0.1277    0.3414 H   0  0  0  0  0  0  0  0  0  0  0  0
    2.9525    1.7985    1.7536 H   0  0  0  0  0  0  0  0  0  0  0  0
   -0.4851    1.9664   -1.0146 H   0  0  0  0  0  0  0  0  0  0  0  0
    0.2078    0.4796   -1.6341 H   0  0  0  0  0  0  0  0  0  0  0  0
   -1.9886    0.8509   -2.6764 H   0  0  0  0  0  0  0  0  0  0  0  0
   -3.0299   -1.3419   -2.1117 H   0  0  0  0  0  0  0  0  0  0  0  0
   -1.2788   -1.5036   -2.2229 H   0  0  0  0  0  0  0  0  0  0  0  0
   -2.1561   -2.6704   -0.1925 H   0  0  0  0  0  0  0  0  0  0  0  0
   -3.1800   -1.3252    1.6443 H   0  0  0  0  0  0  0  0  0  0  0  0
   -4.1566   -1.2300    0.1806 H   0  0  0  0  0  0  0  0  0  0  0  0
   -3.8569    1.0325    1.1985 H   0  0  0  0  0  0  0  0  0  0  0  0
   -3.0125    2.1950   -0.8389 H   0  0  0  0  0  0  0  0  0  0  0  0
   -4.0577    0.8485   -1.2855 H   0  0  0  0  0  0  0  0  0  0  0  0
   -1.5865    2.0513    1.2720 H   0  0  0  0  0  0  0  0  0  0  0  0
   -1.6546    0.6179    2.2832 H   0  0  0  0  0  0  0  0  0  0  0  0
   -0.6536   -1.5746    1.4832 H   0  0  0  0  0  0  0  0  0  0  0  0
    0.1038   -1.7055   -0.0929 H   0  0  0  0  0  0  0  0  0  0  0  0
  1  2  1  0
  2  3  1  0
  3  4  1  0
  4  5  2  0
  6  5  1  1
  6  7  1  0
  7  8  1  0
  8  9  1  0
  9 10  1  0
 10 11  1  0
 11 12  1  0
 12 13  1  0
 12 14  1  0
 10 15  1  0
  4 16  1  0
 16 17  2  0
 17 18  1  0
 18 19  3  0
 17  2  1  0
 14  6  1  0
 15  6  1  0
 13  8  1  0
  1 20  1  0
  1 21  1  0
  1 22  1  0
  3 23  1  0
  7 24  1  0
  7 25  1  0
  8 26  1  6
  9 27  1  0
  9 28  1  0
 10 29  1  6
 11 30  1  0
 11 31  1  0
 12 32  1  1
 13 33  1  0
 13 34  1  0
 14 35  1  0
 14 36  1  0
 15 37  1  0
 15 38  1  0
M  END
>  <_SMILES>  (154) 
Cn1[nH]/c(=N/[C@]23C[C@H]4C[C@H](C[C@H](C4)C2)C3)nc1C#N

$$$$

     RDKit          3D

 38 41  0  0  0  0  0  0  0  0999 V2000
    4.3669    1.7368    0.7190 C   0  0  0  0  0  0  0  0  0  0  0  0
    3.0988    2.2122    0.2070 N   0  0  0  0  0  0  0  0  0  0  0  0
    1.9558    1.4403    0.3346 N   0  0  0  0  0  0  0  0  0  0  0  0
    1.2389    1.6114   -0.8443 C   0  0  0  0  0  0  0  0  0  0  0  0
    0.1862    1.0584   -1.2926 N   0  0  0  0  0  0  0  0  0  0  0  0
   -0.6137    0.0663   -0.5815 C   0  0  2  0  0  0  0  0  0  0  0  0
   -1.0503    0.5345    0.8227 C   0  0  0  0  0  0  0  0  0  0  0  0
   -1.9619   -0.5212    1.4756 C   0  0  1  0  0  0  0  0  0  0  0  0
   -3.2188   -0.7122    0.6125 C   0  0  0  0  0  0  0  0  0  0  0  0
   -2.8208   -1.1843   -0.7944 C   0  0  2  0  0  0  0  0  0  0  0  0
   -2.0681   -2.5200   -0.6888 C   0  0  0  0  0  0  0  0  0  0  0  0
   -0.8019   -2.3421    0.1643 C   0  0  2  0  0  0  0  0  0  0  0  0
   -1.2020   -1.8567    1.5691 C   0  0  0  0  0  0  0  0  0  0  0  0
    0.1117   -1.2927   -0.4956 C   0  0  0  0  0  0  0  0  0  0  0  0
   -1.8969   -0.1354   -1.4335 C   0  0  0  0  0  0  0  0  0  0  0  0
    1.8639    2.5253   -1.6829 N   0  0  0  0  0  0  0  0  0  0  0  0
    2.9585    2.8116   -1.0301 C   0  0  0  0  0  0  0  0  0  0  0  0
    3.9137    3.6877   -1.6561 C   0  0  0  0  0  0  0  0  0  0  0  0
    4.7347    4.3723   -2.1138 N   0  0  0  0  0  0  0  0  0  0  0  0
    4.7528    0.9191    0.1015 H   0  0  0  0  0  0  0  0  0  0  0  0
    4.2506    1.3713    1.7445 H   0  0  0  0  0  0  0  0  0  0  0  0
    5.1066    2.5434    0.7361 H   0  0  0  0  0  0  0  0  0  0  0  0
    2.0332    0.4790    0.6449 H   0  0  0  0  0  0  0  0  0  0  0  0
   -1.5743    1.4968    0.7578 H   0  0  0  0  0  0  0  0  0  0  0  0
   -0.1876    0.6971    1.4769 H   0  0  0  0  0  0  0  0  0  0  0  0
   -2.2505   -0.1889    2.4791 H   0  0  0  0  0  0  0  0  0  0  0  0
   -3.7763    0.2303    0.5483 H   0  0  0  0  0  0  0  0  0  0  0  0
   -3.8868   -1.4462    1.0797 H   0  0  0  0  0  0  0  0  0  0  0  0
   -3.7183   -1.3127   -1.4096 H   0  0  0  0  0  0  0  0  0  0  0  0
   -2.7177   -3.2825   -0.2417 H   0  0  0  0  0  0  0  0  0  0  0  0
   -1.7984   -2.8787   -1.6897 H   0  0  0  0  0  0  0  0  0  0  0  0
   -0.2709   -3.2976    0.2401 H   0  0  0  0  0  0  0  0  0  0  0  0
   -1.8315   -2.6101    2.0586 H   0  0  0  0  0  0  0  0  0  0  0  0
   -0.3074   -1.7359    2.1923 H   0  0  0  0  0  0  0  0  0  0  0  0
    0.4073   -1.6301   -1.4976 H   0  0  0  0  0  0  0  0  0  0  0  0
    1.0369   -1.2144    0.0837 H   0  0  0  0  0  0  0  0  0  0  0  0
   -1.6294   -0.4489   -2.4517 H   0  0  0  0  0  0  0  0  0  0  0  0
   -2.4334    0.8171   -1.5391 H   0  0  0  0  0  0  0  0  0  0  0  0
  1  2  1  0
  2  3  1  0
  3  4  1  0
  4  5  2  0
  6  5  1  6
  6  7  1  0
  7  8  1  0
  8  9  1  0
  9 10  1  0
 10 11  1  0
 11 12  1  0
 12 13  1  0
 12 14  1  0
 10 15  1  0
  4 16  1  0
 16 17  2  0
 17 18  1  0
 18 19  3  0
 17  2  1  0
 14  6  1  0
 15  6  1  0
 13  8  1  0
  1 20  1  0
  1 21  1  0
  1 22  1  0
  3 23  1  0
  7 24  1  0
  7 25  1  0
  8 26  1  1
  9 27  1  0
  9 28  1  0
 10 29  1  6
 11 30  1  0
 11 31  1  0
 12 32  1  1
 13 33  1  0
 13 34  1  0
 14 35  1  0
 14 36  1  0
 15 37  1  0
 15 38  1  0
M  END
>  <_SMILES>  (155) 
Cn1[nH]/c(=N\[C@]23C[C@H]4C[C@H](C[C@H](C4)C2)C3)nc1C#N

$$$$

     RDKit          3D

 54 59  0  0  0  0  0  0  0  0999 V2000
   -4.8659    3.3661   -0.2212 C   0  0  0  0  0  0  0  0  0  0  0  0
   -4.0493    3.1074   -1.3212 C   0  0  0  0  0  0  0  0  0  0  0  0
   -3.1210    2.0656   -1.2729 C   0  0  0  0  0  0  0  0  0  0  0  0
   -3.0130    1.2688   -0.1263 C   0  0  0  0  0  0  0  0  0  0  0  0
   -2.0327    0.1908   -0.0730 C   0  0  0  0  0  0  0  0  0  0  0  0
   -0.6555    0.3256   -0.0471 C   0  0  0  0  0  0  0  0  0  0  0  0
   -0.1394   -0.9590    0.1582 C   0  0  0  0  0  0  0  0  0  0  0  0
    1.1470   -1.3331    0.2845 N   0  0  0  0  0  0  0  0  0  0  0  0
    2.3638   -0.5634    0.0616 C   0  0  2  0  0  0  0  0  0  0  0  0
    2.5373    0.5544    1.1153 C   0  0  0  0  0  0  0  0  0  0  0  0
    3.8648    1.3017    0.8925 C   0  0  1  0  0  0  0  0  0  0  0  0
    5.0334    0.3155    1.0430 C   0  0  0  0  0  0  0  0  0  0  0  0
    4.9036   -0.8106    0.0062 C   0  0  2  0  0  0  0  0  0  0  0  0
    4.9279   -0.2067   -1.4062 C   0  0  0  0  0  0  0  0  0  0  0  0
    3.7591    0.7762   -1.5750 C   0  0  2  0  0  0  0  0  0  0  0  0
    3.8811    1.8962   -0.5268 C   0  0  0  0  0  0  0  0  0  0  0  0
    2.4303    0.0275   -1.3653 C   0  0  0  0  0  0  0  0  0  0  0  0
    3.5675   -1.5401    0.2191 C   0  0  0  0  0  0  0  0  0  0  0  0
   -1.1115   -1.8566    0.2520 N   0  0  0  0  0  0  0  0  0  0  0  0
   -2.2718   -1.1781    0.0379 N   0  0  0  0  0  0  0  0  0  0  0  0
   -3.4876   -1.9257   -0.0545 C   0  0  0  0  0  0  0  0  0  0  0  0
   -3.4827   -3.2726    0.3337 C   0  0  0  0  0  0  0  0  0  0  0  0
   -4.6593   -3.9968    0.2432 C   0  0  0  0  0  0  0  0  0  0  0  0
   -5.8213   -3.4835   -0.2085 N   0  0  0  0  0  0  0  0  0  0  0  0
   -5.7997   -2.1921   -0.5968 C   0  0  0  0  0  0  0  0  0  0  0  0
   -4.6745   -1.3817   -0.5449 C   0  0  0  0  0  0  0  0  0  0  0  0
   -3.8249    1.5463    0.9812 C   0  0  0  0  0  0  0  0  0  0  0  0
   -4.7523    2.5886    0.9305 C   0  0  0  0  0  0  0  0  0  0  0  0
   -5.5864    4.1795   -0.2584 H   0  0  0  0  0  0  0  0  0  0  0  0
   -4.1324    3.7195   -2.2158 H   0  0  0  0  0  0  0  0  0  0  0  0
   -2.4873    1.8762   -2.1366 H   0  0  0  0  0  0  0  0  0  0  0  0
   -0.1259    1.2623   -0.1223 H   0  0  0  0  0  0  0  0  0  0  0  0
    1.2775   -2.3365    0.3774 H   0  0  0  0  0  0  0  0  0  0  0  0
    1.7177    1.2780    1.0717 H   0  0  0  0  0  0  0  0  0  0  0  0
    2.5134    0.1292    2.1274 H   0  0  0  0  0  0  0  0  0  0  0  0
    3.9635    2.1051    1.6311 H   0  0  0  0  0  0  0  0  0  0  0  0
    5.9872    0.8406    0.9097 H   0  0  0  0  0  0  0  0  0  0  0  0
    5.0406   -0.1058    2.0557 H   0  0  0  0  0  0  0  0  0  0  0  0
    5.7338   -1.5164    0.1210 H   0  0  0  0  0  0  0  0  0  0  0  0
    4.8590   -1.0039   -2.1565 H   0  0  0  0  0  0  0  0  0  0  0  0
    5.8803    0.3100   -1.5771 H   0  0  0  0  0  0  0  0  0  0  0  0
    3.7834    1.2080   -2.5818 H   0  0  0  0  0  0  0  0  0  0  0  0
    3.0564    2.6100   -0.6434 H   0  0  0  0  0  0  0  0  0  0  0  0
    4.8112    2.4556   -0.6858 H   0  0  0  0  0  0  0  0  0  0  0  0
    2.3285   -0.7705   -2.1126 H   0  0  0  0  0  0  0  0  0  0  0  0
    1.6056    0.7239   -1.5489 H   0  0  0  0  0  0  0  0  0  0  0  0
    3.5533   -2.0003    1.2165 H   0  0  0  0  0  0  0  0  0  0  0  0
    3.4810   -2.3661   -0.4999 H   0  0  0  0  0  0  0  0  0  0  0  0
   -2.5885   -3.7596    0.7115 H   0  0  0  0  0  0  0  0  0  0  0  0
   -4.6968   -5.0405    0.5417 H   0  0  0  0  0  0  0  0  0  0  0  0
   -6.7439   -1.8088   -0.9744 H   0  0  0  0  0  0  0  0  0  0  0  0
   -4.7640   -0.3724   -0.9201 H   0  0  0  0  0  0  0  0  0  0  0  0
   -3.7388    0.9551    1.8906 H   0  0  0  0  0  0  0  0  0  0  0  0
   -5.3818    2.7970    1.7920 H   0  0  0  0  0  0  0  0  0  0  0  0
  1  2  2  0
  2  3  1  0
  3  4  2  0
  4  5  1  0
  5  6  2  0
  6  7  1  0
  7  8  1  0
  9  8  1  1
  9 10  1  0
 10 11  1  0
 11 12  1  0
 12 13  1  0
 13 14  1  0
 14 15  1  0
 15 16  1  0
 15 17  1  0
 13 18  1  0
  7 19  2  0
 19 20  1  0
 20 21  1  0
 21 22  2  0
 22 23  1  0
 23 24  2  0
 24 25  1  0
 25 26  2  0
  4 27  1  0
 27 28  2  0
 28  1  1  0
 20  5  1  0
 26 21  1  0
 17  9  1  0
 18  9  1  0
 16 11  1  0
  1 29  1  0
  2 30  1  0
  3 31  1  0
  6 32  1  0
  8 33  1  0
 10 34  1  0
 10 35  1  0
 11 36  1  1
 12 37  1  0
 12 38  1  0
 13 39  1  6
 14 40  1  0
 14 41  1  0
 15 42  1  6
 16 43  1  0
 16 44  1  0
 17 45  1  0
 17 46  1  0
 18 47  1  0
 18 48  1  0
 22 49  1  0
 23 50  1  0
 25 51  1  0
 26 52  1  0
 27 53  1  0
 28 54  1  0
M  END
>  <_SMILES>  (156) 
c1ccc(-c2cc(N[C@]34C[C@H]5C[C@H](C[C@H](C5)C3)C4)nn2-c2ccncc2)cc1

$$$$

     RDKit          3D

 54 59  0  0  0  0  0  0  0  0999 V2000
    4.3333    3.1722   -2.2359 C   0  0  0  0  0  0  0  0  0  0  0  0
    4.5489    2.8240   -0.9036 C   0  0  0  0  0  0  0  0  0  0  0  0
    3.7474    1.8555   -0.2962 C   0  0  0  0  0  0  0  0  0  0  0  0
    2.7277    1.2212   -1.0191 C   0  0  0  0  0  0  0  0  0  0  0  0
    1.8819    0.2124   -0.3786 C   0  0  0  0  0  0  0  0  0  0  0  0
    0.5603    0.4092   -0.1955 C   0  0  0  0  0  0  0  0  0  0  0  0
    0.1439   -0.8003    0.5682 C   0  0  0  0  0  0  0  0  0  0  0  0
   -1.0237   -1.2173    0.8782 N   0  0  0  0  0  0  0  0  0  0  0  0
   -2.2966   -0.5671    0.5808 C   0  0  2  0  0  0  0  0  0  0  0  0
   -3.3920   -1.5044    1.1653 C   0  0  0  0  0  0  0  0  0  0  0  0
   -4.7965   -0.9291    0.9210 C   0  0  1  0  0  0  0  0  0  0  0  0
   -4.8999    0.4487    1.5933 C   0  0  0  0  0  0  0  0  0  0  0  0
   -3.8318    1.3925    1.0185 C   0  0  2  0  0  0  0  0  0  0  0  0
   -4.0444    1.5356   -0.4995 C   0  0  0  0  0  0  0  0  0  0  0  0
   -3.9535    0.1598   -1.1842 C   0  0  2  0  0  0  0  0  0  0  0  0
   -5.0203   -0.7738   -0.5910 C   0  0  0  0  0  0  0  0  0  0  0  0
   -2.5578   -0.4404   -0.9342 C   0  0  0  0  0  0  0  0  0  0  0  0
   -2.4357    0.7993    1.2828 C   0  0  0  0  0  0  0  0  0  0  0  0
    1.2722   -1.5358    0.9011 N   0  0  0  0  0  0  0  0  0  0  0  0
    2.3272   -0.9732    0.2175 N   0  0  0  0  0  0  0  0  0  0  0  0
    3.6162   -1.5670    0.2061 C   0  0  0  0  0  0  0  0  0  0  0  0
    4.0220   -2.3791    1.2743 C   0  0  0  0  0  0  0  0  0  0  0  0
    5.2791   -2.9620    1.2481 C   0  0  0  0  0  0  0  0  0  0  0  0
    6.1543   -2.8075    0.2359 N   0  0  0  0  0  0  0  0  0  0  0  0
    5.7499   -2.0369   -0.7933 C   0  0  0  0  0  0  0  0  0  0  0  0
    4.5132   -1.4118   -0.8538 C   0  0  0  0  0  0  0  0  0  0  0  0
    2.5137    1.5857   -2.3561 C   0  0  0  0  0  0  0  0  0  0  0  0
    3.3159    2.5552   -2.9619 C   0  0  0  0  0  0  0  0  0  0  0  0
    4.9573    3.9273   -2.7075 H   0  0  0  0  0  0  0  0  0  0  0  0
    5.3400    3.3068   -0.3354 H   0  0  0  0  0  0  0  0  0  0  0  0
    3.9240    1.5955    0.7458 H   0  0  0  0  0  0  0  0  0  0  0  0
   -0.0486    1.2331   -0.5076 H   0  0  0  0  0  0  0  0  0  0  0  0
   -3.2321   -1.6464    2.2427 H   0  0  0  0  0  0  0  0  0  0  0  0
   -3.3162   -2.5022    0.7124 H   0  0  0  0  0  0  0  0  0  0  0  0
   -5.5520   -1.6031    1.3398 H   0  0  0  0  0  0  0  0  0  0  0  0
   -4.7669    0.3480    2.6775 H   0  0  0  0  0  0  0  0  0  0  0  0
   -5.8995    0.8708    1.4329 H   0  0  0  0  0  0  0  0  0  0  0  0
   -3.9117    2.3747    1.4976 H   0  0  0  0  0  0  0  0  0  0  0  0
   -3.2921    2.2139   -0.9206 H   0  0  0  0  0  0  0  0  0  0  0  0
   -5.0251    1.9856   -0.6972 H   0  0  0  0  0  0  0  0  0  0  0  0
   -4.1192    0.2711   -2.2617 H   0  0  0  0  0  0  0  0  0  0  0  0
   -4.9739   -1.7546   -1.0799 H   0  0  0  0  0  0  0  0  0  0  0  0
   -6.0218   -0.3694   -0.7830 H   0  0  0  0  0  0  0  0  0  0  0  0
   -1.8134    0.1962   -1.4207 H   0  0  0  0  0  0  0  0  0  0  0  0
   -2.4792   -1.4232   -1.4172 H   0  0  0  0  0  0  0  0  0  0  0  0
   -1.6815    1.5104    0.9340 H   0  0  0  0  0  0  0  0  0  0  0  0
   -2.2727    0.6902    2.3630 H   0  0  0  0  0  0  0  0  0  0  0  0
    1.1239   -2.5358    0.8060 H   0  0  0  0  0  0  0  0  0  0  0  0
    3.3798   -2.5376    2.1342 H   0  0  0  0  0  0  0  0  0  0  0  0
    5.6234   -3.5846    2.0689 H   0  0  0  0  0  0  0  0  0  0  0  0
    6.4656   -1.9335   -1.6040 H   0  0  0  0  0  0  0  0  0  0  0  0
    4.2636   -0.8389   -1.7380 H   0  0  0  0  0  0  0  0  0  0  0  0
    1.7266    1.1106   -2.9378 H   0  0  0  0  0  0  0  0  0  0  0  0
    3.1466    2.8294   -4.0002 H   0  0  0  0  0  0  0  0  0  0  0  0
  1  2  2  0
  2  3  1  0
  3  4  2  0
  4  5  1  0
  5  6  2  0
  6  7  1  0
  7  8  2  0
  9  8  1  6
  9 10  1  0
 10 11  1  0
 11 12  1  0
 12 13  1  0
 13 14  1  0
 14 15  1  0
 15 16  1  0
 15 17  1  0
 13 18  1  0
  7 19  1  0
 19 20  1  0
 20 21  1  0
 21 22  2  0
 22 23  1  0
 23 24  2  0
 24 25  1  0
 25 26  2  0
  4 27  1  0
 27 28  2  0
 28  1  1  0
 20  5  1  0
 26 21  1  0
 17  9  1  0
 18  9  1  0
 16 11  1  0
  1 29  1  0
  2 30  1  0
  3 31  1  0
  6 32  1  0
 10 33  1  0
 10 34  1  0
 11 35  1  1
 12 36  1  0
 12 37  1  0
 13 38  1  1
 14 39  1  0
 14 40  1  0
 15 41  1  6
 16 42  1  0
 16 43  1  0
 17 44  1  0
 17 45  1  0
 18 46  1  0
 18 47  1  0
 19 48  1  0
 22 49  1  0
 23 50  1  0
 25 51  1  0
 26 52  1  0
 27 53  1  0
 28 54  1  0
M  END
>  <_SMILES>  (157) 
c1ccc(-c2c/c(=N\[C@]34C[C@H]5C[C@H](C[C@H](C5)C3)C4)[nH]n2-c2ccncc2)cc1

$$$$

     RDKit          3D

 54 59  0  0  0  0  0  0  0  0999 V2000
    6.3343    2.1447    0.7653 C   0  0  0  0  0  0  0  0  0  0  0  0
    5.8844    1.6559   -0.4599 C   0  0  0  0  0  0  0  0  0  0  0  0
    4.5575    1.2457   -0.6037 C   0  0  0  0  0  0  0  0  0  0  0  0
    3.6704    1.3137    0.4797 C   0  0  0  0  0  0  0  0  0  0  0  0
    2.2777    0.8888    0.3264 C   0  0  0  0  0  0  0  0  0  0  0  0
    1.2523    1.7510    0.4655 C   0  0  0  0  0  0  0  0  0  0  0  0
    0.0636    0.9263    0.1103 C   0  0  0  0  0  0  0  0  0  0  0  0
   -1.1019    1.4322    0.2516 N   0  0  0  0  0  0  0  0  0  0  0  0
   -2.3546    0.7454   -0.0598 C   0  0  2  0  0  0  0  0  0  0  0  0
   -2.6627   -0.3683    0.9623 C   0  0  0  0  0  0  0  0  0  0  0  0
   -4.0384   -0.9944    0.6676 C   0  0  1  0  0  0  0  0  0  0  0  0
   -5.1238    0.0875    0.7864 C   0  0  0  0  0  0  0  0  0  0  0  0
   -4.8517    1.2155   -0.2212 C   0  0  2  0  0  0  0  0  0  0  0  0
   -4.8635    0.6391   -1.6454 C   0  0  0  0  0  0  0  0  0  0  0  0
   -3.7770   -0.4387   -1.7828 C   0  0  2  0  0  0  0  0  0  0  0  0
   -4.0431   -1.5613   -0.7635 C   0  0  0  0  0  0  0  0  0  0  0  0
   -2.3988    0.1866   -1.4976 C   0  0  0  0  0  0  0  0  0  0  0  0
   -3.4685    1.8216    0.0637 C   0  0  0  0  0  0  0  0  0  0  0  0
    0.4803   -0.3292   -0.3053 N   0  0  0  0  0  0  0  0  0  0  0  0
    1.8463   -0.3759   -0.0930 N   0  0  0  0  0  0  0  0  0  0  0  0
    2.5869   -1.5731   -0.2757 C   0  0  0  0  0  0  0  0  0  0  0  0
    2.1480   -2.5305   -1.2010 C   0  0  0  0  0  0  0  0  0  0  0  0
    2.8709   -3.7016   -1.3639 C   0  0  0  0  0  0  0  0  0  0  0  0
    3.9858   -3.9949   -0.6676 N   0  0  0  0  0  0  0  0  0  0  0  0
    4.3930   -3.0739    0.2286 C   0  0  0  0  0  0  0  0  0  0  0  0
    3.7369   -1.8738    0.4580 C   0  0  0  0  0  0  0  0  0  0  0  0
    4.1315    1.8161    1.7048 C   0  0  0  0  0  0  0  0  0  0  0  0
    5.4589    2.2268    1.8469 C   0  0  0  0  0  0  0  0  0  0  0  0
    7.3670    2.4659    0.8757 H   0  0  0  0  0  0  0  0  0  0  0  0
    6.5648    1.5959   -1.3056 H   0  0  0  0  0  0  0  0  0  0  0  0
    4.2181    0.8711   -1.5675 H   0  0  0  0  0  0  0  0  0  0  0  0
    1.2323    2.7891    0.7363 H   0  0  0  0  0  0  0  0  0  0  0  0
   -1.9033   -1.1557    0.9351 H   0  0  0  0  0  0  0  0  0  0  0  0
   -2.6457    0.0364    1.9827 H   0  0  0  0  0  0  0  0  0  0  0  0
   -4.2388   -1.7982    1.3847 H   0  0  0  0  0  0  0  0  0  0  0  0
   -6.1122   -0.3507    0.6013 H   0  0  0  0  0  0  0  0  0  0  0  0
   -5.1404    0.4914    1.8061 H   0  0  0  0  0  0  0  0  0  0  0  0
   -5.6223    1.9888   -0.1283 H   0  0  0  0  0  0  0  0  0  0  0  0
   -5.8481    0.2101   -1.8685 H   0  0  0  0  0  0  0  0  0  0  0  0
   -4.6919    1.4395   -2.3756 H   0  0  0  0  0  0  0  0  0  0  0  0
   -3.7919   -0.8501   -2.7982 H   0  0  0  0  0  0  0  0  0  0  0  0
   -3.2793   -2.3428   -0.8591 H   0  0  0  0  0  0  0  0  0  0  0  0
   -5.0103   -2.0341   -0.9740 H   0  0  0  0  0  0  0  0  0  0  0  0
   -1.6343   -0.5813   -1.6534 H   0  0  0  0  0  0  0  0  0  0  0  0
   -2.1886    0.9833   -2.2228 H   0  0  0  0  0  0  0  0  0  0  0  0
   -3.2741    2.6476   -0.6336 H   0  0  0  0  0  0  0  0  0  0  0  0
   -3.4578    2.2631    1.0694 H   0  0  0  0  0  0  0  0  0  0  0  0
   -0.0482   -1.0920    0.1016 H   0  0  0  0  0  0  0  0  0  0  0  0
    1.2686   -2.3583   -1.8123 H   0  0  0  0  0  0  0  0  0  0  0  0
    2.5618   -4.4540   -2.0837 H   0  0  0  0  0  0  0  0  0  0  0  0
    5.2889   -3.3334    0.7856 H   0  0  0  0  0  0  0  0  0  0  0  0
    4.1204   -1.2100    1.2230 H   0  0  0  0  0  0  0  0  0  0  0  0
    3.4617    1.8848    2.5594 H   0  0  0  0  0  0  0  0  0  0  0  0
    5.8090    2.6124    2.8011 H   0  0  0  0  0  0  0  0  0  0  0  0
  1  2  2  0
  2  3  1  0
  3  4  2  0
  4  5  1  0
  5  6  2  0
  6  7  1  0
  7  8  2  0
  9  8  1  1
  9 10  1  0
 10 11  1  0
 11 12  1  0
 12 13  1  0
 13 14  1  0
 14 15  1  0
 15 16  1  0
 15 17  1  0
 13 18  1  0
  7 19  1  0
 19 20  1  0
 20 21  1  0
 21 22  2  0
 22 23  1  0
 23 24  2  0
 24 25  1  0
 25 26  2  0
  4 27  1  0
 27 28  2  0
 28  1  1  0
 20  5  1  0
 26 21  1  0
 17  9  1  0
 18  9  1  0
 16 11  1  0
  1 29  1  0
  2 30  1  0
  3 31  1  0
  6 32  1  0
 10 33  1  0
 10 34  1  0
 11 35  1  1
 12 36  1  0
 12 37  1  0
 13 38  1  6
 14 39  1  0
 14 40  1  0
 15 41  1  6
 16 42  1  0
 16 43  1  0
 17 44  1  0
 17 45  1  0
 18 46  1  0
 18 47  1  0
 19 48  1  0
 22 49  1  0
 23 50  1  0
 25 51  1  0
 26 52  1  0
 27 53  1  0
 28 54  1  0
M  END
>  <_SMILES>  (158) 
c1ccc(-c2c/c(=N/[C@]34C[C@H]5C[C@H](C[C@H](C5)C3)C4)[nH]n2-c2ccncc2)cc1

$$$$
