
     RDKit          3D

 23 25  0  0  0  0  0  0  0  0999 V2000
   13.6190   -4.6170  -57.0400 C   0  0  0  0  0  0  0  0  0  0  0  0
   12.7050   -3.7470  -57.9530 C   0  0  1  0  0  0  0  0  0  0  0  0
   11.7230   -4.6490  -58.7050 C   0  0  0  0  0  0  0  0  0  0  0  0
   10.9290   -5.2500  -57.5360 C   0  0  1  0  0  0  0  0  0  0  0  0
   11.7970   -6.3590  -56.9230 C   0  0  0  0  0  0  0  0  0  0  0  0
   12.7820   -5.5290  -56.0960 C   0  0  2  0  0  0  0  0  0  0  0  0
   11.7830   -4.6780  -55.3090 C   0  0  0  0  0  0  0  0  0  0  0  0
   10.9190   -4.1170  -56.4480 C   0  0  1  0  0  0  0  0  0  0  0  0
   11.7090   -2.9670  -57.0920 C   0  0  0  0  0  0  0  0  0  0  0  0
   14.2583   -5.2495  -57.6734 H   0  0  0  0  0  0  0  0  0  0  0  0
   14.2269   -3.9431  -56.4184 H   0  0  0  0  0  0  0  0  0  0  0  0
   13.3761   -3.1400  -58.5785 H   0  0  0  0  0  0  0  0  0  0  0  0
   11.0750   -4.0688  -59.3783 H   0  0  0  0  0  0  0  0  0  0  0  0
   12.1992   -5.3923  -59.3613 H   0  0  0  0  0  0  0  0  0  0  0  0
    9.9356   -5.6107  -57.8412 H   0  0  0  0  0  0  0  0  0  0  0  0
   11.2034   -7.0333  -56.2883 H   0  0  0  0  0  0  0  0  0  0  0  0
   12.2696   -7.0262  -57.6588 H   0  0  0  0  0  0  0  0  0  0  0  0
   13.5042   -6.0999  -55.4940 H   0  0  0  0  0  0  0  0  0  0  0  0
   11.1889   -5.2903  -54.6147 H   0  0  0  0  0  0  0  0  0  0  0  0
   12.2441   -3.9117  -54.6686 H   0  0  0  0  0  0  0  0  0  0  0  0
    9.9207   -3.8053  -56.1069 H   0  0  0  0  0  0  0  0  0  0  0  0
   11.0603   -2.3246  -57.7056 H   0  0  0  0  0  0  0  0  0  0  0  0
   12.1733   -2.2760  -56.3730 H   0  0  0  0  0  0  0  0  0  0  0  0
  1  2  1  0
  2  3  1  0
  3  4  1  0
  4  5  1  0
  5  6  1  0
  6  7  1  0
  7  8  1  0
  8  9  1  0
  6  1  1  0
  9  2  1  0
  8  4  1  0
  1 10  1  0
  1 11  1  0
  2 12  1  6
  3 13  1  0
  3 14  1  0
  4 15  1  6
  5 16  1  0
  5 17  1  0
  6 18  1  1
  7 19  1  0
  7 20  1  0
  8 21  1  1
  9 22  1  0
  9 23  1  0
M  END
>  <meeko>  (1) 
{"is_sidechain": false}

$$$$

     RDKit          3D

 26 28  0  0  0  0  0  0  0  0999 V2000
    7.8100    3.7600  -60.3190 C   0  0  0  0  0  0  0  0  0  0  0  0
    9.2860    3.3290  -60.4150 C   0  0  1  0  0  0  0  0  0  0  0  0
   10.1880    4.5700  -60.2940 C   0  0  0  0  0  0  0  0  0  0  0  0
    9.9170    5.2830  -58.9660 C   0  0  1  0  0  0  0  0  0  0  0  0
    8.4480    5.7020  -58.8600 C   0  0  0  0  0  0  0  0  0  0  0  0
    7.5420    4.4650  -58.9750 C   0  0  2  0  0  0  0  0  0  0  0  0
    7.8740    3.5040  -57.8220 C   0  0  0  0  0  0  0  0  0  0  0  0
    9.3370    3.0620  -57.9170 C   0  0  1  0  0  0  0  0  0  0  0  0
    9.6130    2.3720  -59.2560 C   0  0  0  0  0  0  0  0  0  0  0  0
   10.1960    4.3010  -57.8530 N   0  0  0  0  0  0  0  0  0  0  0  0
    7.5801    4.4514  -61.1431 H   0  0  0  0  0  0  0  0  0  0  0  0
    7.1724    2.8662  -60.3862 H   0  0  0  0  0  0  0  0  0  0  0  0
    9.4578    2.8287  -61.3794 H   0  0  0  0  0  0  0  0  0  0  0  0
   11.2426    4.2597  -60.3330 H   0  0  0  0  0  0  0  0  0  0  0  0
    9.9721    5.2575  -61.1251 H   0  0  0  0  0  0  0  0  0  0  0  0
   10.5525    6.1785  -58.9012 H   0  0  0  0  0  0  0  0  0  0  0  0
    8.2771    6.1905  -57.8893 H   0  0  0  0  0  0  0  0  0  0  0  0
    8.2110    6.4018  -59.6749 H   0  0  0  0  0  0  0  0  0  0  0  0
    6.4850    4.7652  -58.9240 H   0  0  0  0  0  0  0  0  0  0  0  0
    7.7090    4.0152  -56.8621 H   0  0  0  0  0  0  0  0  0  0  0  0
    7.2233    2.6196  -57.8889 H   0  0  0  0  0  0  0  0  0  0  0  0
    9.5560    2.3609  -57.0981 H   0  0  0  0  0  0  0  0  0  0  0  0
   10.6740    2.0862  -59.3072 H   0  0  0  0  0  0  0  0  0  0  0  0
    8.9820    1.4748  -59.3380 H   0  0  0  0  0  0  0  0  0  0  0  0
   11.1890    4.0310  -57.8760 H   0  0  0  0  0  0  0  0  0  0  0  0
   10.0600    4.7650  -56.9450 H   0  0  0  0  0  0  0  0  0  0  0  0
  1  2  1  0
  2  3  1  0
  3  4  1  0
  4  5  1  0
  5  6  1  0
  6  7  1  0
  7  8  1  0
  8  9  1  0
  8 10  1  0
  6  1  1  0
  9  2  1  0
 10  4  1  0
  1 11  1  0
  1 12  1  0
  2 13  1  6
  3 14  1  0
  3 15  1  0
  4 16  1  1
  5 17  1  0
  5 18  1  0
  6 19  1  6
  7 20  1  0
  7 21  1  0
  8 22  1  1
  9 23  1  0
  9 24  1  0
 10 25  1  0
 10 26  1  0
M  CHG  1  10   1
M  END
>  <meeko>  (2) 
{"is_sidechain": false}

$$$$

     RDKit          3D

 24 26  0  0  0  0  0  0  0  0999 V2000
   13.6770   -4.5420  -57.0510 C   0  0  0  0  0  0  0  0  0  0  0  0
   12.6910   -3.7170  -57.9010 C   0  0  1  0  0  0  0  0  0  0  0  0
   11.8100   -4.6660  -58.7250 C   0  0  0  0  0  0  0  0  0  0  0  0
   11.0470   -5.5900  -57.7700 C   0  0  1  0  0  0  0  0  0  0  0  0
   12.0300   -6.4350  -56.9520 C   0  0  0  0  0  0  0  0  0  0  0  0
   12.9120   -5.4990  -56.1140 C   0  0  2  0  0  0  0  0  0  0  0  0
   11.9860   -4.6840  -55.2010 C   0  0  0  0  0  0  0  0  0  0  0  0
   11.0050   -3.8900  -56.0700 C   0  0  1  0  0  0  0  0  0  0  0  0
   11.7670   -2.9150  -56.9740 C   0  0  0  0  0  0  0  0  0  0  0  0
   10.2370   -4.7990  -56.8810 O   0  0  0  0  0  0  0  0  0  0  0  0
   14.3259   -5.1294  -57.7173 H   0  0  0  0  0  0  0  0  0  0  0  0
   14.2825   -3.8552  -56.4413 H   0  0  0  0  0  0  0  0  0  0  0  0
   13.2616   -3.0454  -58.5593 H   0  0  0  0  0  0  0  0  0  0  0  0
   11.0953   -4.0809  -59.3224 H   0  0  0  0  0  0  0  0  0  0  0  0
   12.4382   -5.2651  -59.4006 H   0  0  0  0  0  0  0  0  0  0  0  0
   10.4039   -6.2606  -58.3589 H   0  0  0  0  0  0  0  0  0  0  0  0
   11.4719   -7.1103  -56.2868 H   0  0  0  0  0  0  0  0  0  0  0  0
   12.6585   -7.0340  -57.6274 H   0  0  0  0  0  0  0  0  0  0  0  0
   13.6371   -6.0750  -55.5202 H   0  0  0  0  0  0  0  0  0  0  0  0
   11.4275   -5.3634  -54.5403 H   0  0  0  0  0  0  0  0  0  0  0  0
   12.5822   -3.9936  -54.5863 H   0  0  0  0  0  0  0  0  0  0  0  0
   10.3308   -3.3173  -55.4161 H   0  0  0  0  0  0  0  0  0  0  0  0
   11.0527   -2.3345  -57.5764 H   0  0  0  0  0  0  0  0  0  0  0  0
   12.3631   -2.2244  -56.3594 H   0  0  0  0  0  0  0  0  0  0  0  0
  1  2  1  0
  2  3  1  0
  3  4  1  0
  4  5  1  0
  5  6  1  0
  6  7  1  0
  7  8  1  0
  8  9  1  0
  8 10  1  0
  6  1  1  0
  9  2  1  0
 10  4  1  0
  1 11  1  0
  1 12  1  0
  2 13  1  6
  3 14  1  0
  3 15  1  0
  4 16  1  6
  5 17  1  0
  5 18  1  0
  6 19  1  1
  7 20  1  0
  7 21  1  0
  8 22  1  1
  9 23  1  0
  9 24  1  0
M  END
>  <meeko>  (3) 
{"is_sidechain": false}

$$$$

     RDKit          3D

 26 28  0  0  0  0  0  0  0  0999 V2000
   13.0650    4.1700  -59.1040 C   0  0  0  0  0  0  0  0  0  0  0  0
   11.7260    3.5680  -59.5260 C   0  0  1  0  0  0  0  0  0  0  0  0
   10.7700    3.2350  -58.3660 C   0  0  2  0  0  0  0  0  0  0  0  0
    9.5090    2.5160  -58.9450 C   0  0  0  0  0  0  0  0  0  0  0  0
    8.8290    3.3630  -60.0650 C   0  0  1  0  0  0  0  0  0  0  0  0
    8.5300    4.7690  -59.5420 C   0  0  0  0  0  0  0  0  0  0  0  0
    9.9500    5.2700  -59.2360 C   0  0  1  0  0  0  0  0  0  0  0  0
   10.3620    4.6330  -57.9010 C   0  0  0  0  0  0  0  0  0  0  0  0
   10.8520    4.5640  -60.3190 C   0  0  2  0  0  0  0  0  0  0  0  0
    9.8580    3.7240  -61.1390 C   0  0  0  0  0  0  0  0  0  0  0  0
   13.1251    4.1970  -58.0060 H   0  0  0  0  0  0  0  0  0  0  0  0
   13.8854    3.5541  -59.5011 H   0  0  0  0  0  0  0  0  0  0  0  0
   13.1488    5.1924  -59.5011 H   0  0  0  0  0  0  0  0  0  0  0  0
   12.0608    2.6804  -60.0829 H   0  0  0  0  0  0  0  0  0  0  0  0
   11.2024    2.5945  -57.5832 H   0  0  0  0  0  0  0  0  0  0  0  0
    9.8127    1.5460  -59.3656 H   0  0  0  0  0  0  0  0  0  0  0  0
    8.7847    2.3804  -58.1283 H   0  0  0  0  0  0  0  0  0  0  0  0
    7.9604    2.7804  -60.4058 H   0  0  0  0  0  0  0  0  0  0  0  0
    8.0378    5.3889  -60.3058 H   0  0  0  0  0  0  0  0  0  0  0  0
    7.8416    4.7993  -58.6846 H   0  0  0  0  0  0  0  0  0  0  0  0
   10.0272    6.3672  -59.2205 H   0  0  0  0  0  0  0  0  0  0  0  0
   11.2049    5.1685  -57.4398 H   0  0  0  0  0  0  0  0  0  0  0  0
    9.5788    4.6461  -57.1287 H   0  0  0  0  0  0  0  0  0  0  0  0
   11.4535    5.2492  -60.9344 H   0  0  0  0  0  0  0  0  0  0  0  0
    9.4055    4.3118  -61.9512 H   0  0  0  0  0  0  0  0  0  0  0  0
   10.3065    2.8581  -61.6479 H   0  0  0  0  0  0  0  0  0  0  0  0
  1  2  1  0
  2  3  1  0
  3  4  1  0
  4  5  1  0
  5  6  1  0
  6  7  1  0
  7  8  1  0
  7  9  1  0
  9 10  1  0
  9  2  1  0
  8  3  1  0
 10  5  1  0
  1 11  1  0
  1 12  1  0
  1 13  1  0
  2 14  1  6
  3 15  1  1
  4 16  1  0
  4 17  1  0
  5 18  1  6
  6 19  1  0
  6 20  1  0
  7 21  1  1
  8 22  1  0
  8 23  1  0
  9 24  1  6
 10 25  1  0
 10 26  1  0
M  END
>  <meeko>  (4) 
{"is_sidechain": false}

$$$$

     RDKit          3D

 26 28  0  0  0  0  0  0  0  0999 V2000
   11.8240   -1.9500  -56.2860 C   0  0  0  0  0  0  0  0  0  0  0  0
   11.4170   -3.1310  -57.1540 C   0  0  1  0  0  0  0  0  0  0  0  0
   12.5530   -3.7560  -57.9830 C   0  0  1  0  0  0  0  0  0  0  0  0
   13.6080   -4.4560  -57.0690 C   0  0  0  0  0  0  0  0  0  0  0  0
   12.9450   -5.4830  -56.1020 C   0  0  2  0  0  0  0  0  0  0  0  0
   12.0990   -6.4740  -56.9040 C   0  0  0  0  0  0  0  0  0  0  0  0
   11.0570   -5.5280  -57.5180 C   0  0  2  0  0  0  0  0  0  0  0  0
   11.7380   -4.8340  -58.7080 C   0  0  0  0  0  0  0  0  0  0  0  0
   10.8770   -4.3880  -56.4390 C   0  0  1  0  0  0  0  0  0  0  0  0
   11.8260   -4.8080  -55.3070 C   0  0  0  0  0  0  0  0  0  0  0  0
   11.7293   -2.2248  -55.2251 H   0  0  0  0  0  0  0  0  0  0  0  0
   12.8677   -1.6782  -56.5026 H   0  0  0  0  0  0  0  0  0  0  0  0
   11.1694   -1.0929  -56.5026 H   0  0  0  0  0  0  0  0  0  0  0  0
   10.6446   -2.6081  -57.7371 H   0  0  0  0  0  0  0  0  0  0  0  0
   13.1191   -3.0459  -58.6037 H   0  0  0  0  0  0  0  0  0  0  0  0
   14.3355   -4.9830  -57.7039 H   0  0  0  0  0  0  0  0  0  0  0  0
   14.1008   -3.6828  -56.4613 H   0  0  0  0  0  0  0  0  0  0  0  0
   13.7634   -5.9141  -55.5067 H   0  0  0  0  0  0  0  0  0  0  0  0
   12.6935   -6.9799  -57.6790 H   0  0  0  0  0  0  0  0  0  0  0  0
   11.6745   -7.2968  -56.3101 H   0  0  0  0  0  0  0  0  0  0  0  0
   10.1271   -6.0420  -57.8026 H   0  0  0  0  0  0  0  0  0  0  0  0
   12.3869   -5.5269  -59.2637 H   0  0  0  0  0  0  0  0  0  0  0  0
   11.0435   -4.4463  -59.4678 H   0  0  0  0  0  0  0  0  0  0  0  0
    9.8604   -4.2182  -56.0546 H   0  0  0  0  0  0  0  0  0  0  0  0
   12.1969   -3.9373  -54.7464 H   0  0  0  0  0  0  0  0  0  0  0  0
   11.3638   -5.4477  -54.5407 H   0  0  0  0  0  0  0  0  0  0  0  0
  1  2  1  0
  2  3  1  0
  3  4  1  0
  4  5  1  0
  5  6  1  0
  6  7  1  0
  7  8  1  0
  7  9  1  0
  9 10  1  0
  9  2  1  0
  8  3  1  0
 10  5  1  0
  1 11  1  0
  1 12  1  0
  1 13  1  0
  2 14  1  6
  3 15  1  6
  4 16  1  0
  4 17  1  0
  5 18  1  1
  6 19  1  0
  6 20  1  0
  7 21  1  6
  8 22  1  0
  8 23  1  0
  9 24  1  1
 10 25  1  0
 10 26  1  0
M  END
>  <meeko>  (5) 
{"is_sidechain": false}

$$$$

     RDKit          3D

 26 28  0  0  0  0  0  0  0  0999 V2000
   11.4030   -7.4610  -56.8760 C   0  0  0  0  0  0  0  0  0  0  0  0
   12.1130   -6.2140  -57.4000 C   0  0  2  0  0  0  0  0  0  0  0  0
   12.9810   -5.4780  -56.3650 C   0  0  1  0  0  0  0  0  0  0  0  0
   13.7360   -4.3100  -57.0780 C   0  0  0  0  0  0  0  0  0  0  0  0
   12.7480   -3.3610  -57.8260 C   0  0  2  0  0  0  0  0  0  0  0  0
   11.6680   -2.8720  -56.8590 C   0  0  0  0  0  0  0  0  0  0  0  0
   10.9990   -4.2030  -56.4820 C   0  0  2  0  0  0  0  0  0  0  0  0
   11.9120   -4.8770  -55.4490 C   0  0  0  0  0  0  0  0  0  0  0  0
   11.1290   -5.0870  -57.7810 C   0  0  1  0  0  0  0  0  0  0  0  0
   11.8660   -4.1740  -58.7760 C   0  0  0  0  0  0  0  0  0  0  0  0
   11.4086   -7.4512  -55.7761 H   0  0  0  0  0  0  0  0  0  0  0  0
   10.3641   -7.4705  -57.2373 H   0  0  0  0  0  0  0  0  0  0  0  0
   11.9251   -8.3593  -57.2373 H   0  0  0  0  0  0  0  0  0  0  0  0
   12.6947   -6.6381  -58.2317 H   0  0  0  0  0  0  0  0  0  0  0  0
   13.7254   -6.1097  -55.8583 H   0  0  0  0  0  0  0  0  0  0  0  0
   14.2881   -3.7290  -56.3246 H   0  0  0  0  0  0  0  0  0  0  0  0
   14.4232   -4.7451  -57.8186 H   0  0  0  0  0  0  0  0  0  0  0  0
   13.3664   -2.5804  -58.2931 H   0  0  0  0  0  0  0  0  0  0  0  0
   12.1055   -2.3752  -55.9805 H   0  0  0  0  0  0  0  0  0  0  0  0
   10.9841   -2.1207  -57.2806 H   0  0  0  0  0  0  0  0  0  0  0  0
    9.9693   -4.0793  -56.1155 H   0  0  0  0  0  0  0  0  0  0  0  0
   12.3423   -4.1451  -54.7496 H   0  0  0  0  0  0  0  0  0  0  0  0
   11.4059   -5.6055  -54.7985 H   0  0  0  0  0  0  0  0  0  0  0  0
   10.1775   -5.4774  -58.1711 H   0  0  0  0  0  0  0  0  0  0  0  0
   12.4688   -4.7561  -59.4886 H   0  0  0  0  0  0  0  0  0  0  0  0
   11.2041   -3.5675  -59.4117 H   0  0  0  0  0  0  0  0  0  0  0  0
  1  2  1  0
  2  3  1  0
  3  4  1  0
  4  5  1  0
  5  6  1  0
  6  7  1  0
  7  8  1  0
  7  9  1  0
  9 10  1  0
  9  2  1  0
  8  3  1  0
 10  5  1  0
  1 11  1  0
  1 12  1  0
  1 13  1  0
  2 14  1  6
  3 15  1  1
  4 16  1  0
  4 17  1  0
  5 18  1  6
  6 19  1  0
  6 20  1  0
  7 21  1  1
  8 22  1  0
  8 23  1  0
  9 24  1  6
 10 25  1  0
 10 26  1  0
M  END
>  <meeko>  (6) 
{"is_sidechain": false}

$$$$

     RDKit          3D

 26 28  0  0  0  0  0  0  0  0999 V2000
   11.9240   -7.4250  -57.2370 C   0  0  0  0  0  0  0  0  0  0  0  0
   12.5110   -6.0820  -57.6490 C   0  0  2  0  0  0  0  0  0  0  0  0
   13.2660   -5.3300  -56.5380 C   0  0  2  0  0  0  0  0  0  0  0  0
   12.2990   -4.8580  -55.4090 C   0  0  0  0  0  0  0  0  0  0  0  0
   11.1050   -4.0320  -55.9780 C   0  0  1  0  0  0  0  0  0  0  0  0
   11.6370   -2.8780  -56.8300 C   0  0  0  0  0  0  0  0  0  0  0  0
   12.3620   -3.6520  -57.9400 C   0  0  1  0  0  0  0  0  0  0  0  0
   13.7080   -4.1070  -57.3520 C   0  0  0  0  0  0  0  0  0  0  0  0
   11.5250   -4.9830  -58.1010 C   0  0  2  0  0  0  0  0  0  0  0  0
   10.3940   -4.8260  -57.0750 C   0  0  0  0  0  0  0  0  0  0  0  0
   11.8950   -7.4913  -56.1394 H   0  0  0  0  0  0  0  0  0  0  0  0
   10.9035   -7.5173  -57.6370 H   0  0  0  0  0  0  0  0  0  0  0  0
   12.5494   -8.2367  -57.6370 H   0  0  0  0  0  0  0  0  0  0  0  0
   13.1384   -6.4560  -58.4715 H   0  0  0  0  0  0  0  0  0  0  0  0
   14.0506   -5.9133  -56.0338 H   0  0  0  0  0  0  0  0  0  0  0  0
   11.9039   -5.7414  -54.8861 H   0  0  0  0  0  0  0  0  0  0  0  0
   12.8650   -4.2123  -54.7214 H   0  0  0  0  0  0  0  0  0  0  0  0
   10.4873   -3.7515  -55.1121 H   0  0  0  0  0  0  0  0  0  0  0  0
   10.8197   -2.2620  -57.2332 H   0  0  0  0  0  0  0  0  0  0  0  0
   12.2703   -2.1628  -56.2845 H   0  0  0  0  0  0  0  0  0  0  0  0
   12.4786   -3.0679  -58.8648 H   0  0  0  0  0  0  0  0  0  0  0  0
   14.4225   -4.3827  -58.1416 H   0  0  0  0  0  0  0  0  0  0  0  0
   14.2343   -3.3371  -56.7687 H   0  0  0  0  0  0  0  0  0  0  0  0
   11.1196   -5.2017  -59.0999 H   0  0  0  0  0  0  0  0  0  0  0  0
    9.5441   -4.2664  -57.4928 H   0  0  0  0  0  0  0  0  0  0  0  0
    9.9540   -5.7753  -56.7356 H   0  0  0  0  0  0  0  0  0  0  0  0
  1  2  1  0
  2  3  1  0
  3  4  1  0
  4  5  1  0
  5  6  1  0
  6  7  1  0
  7  8  1  0
  7  9  1  0
  9 10  1  0
  9  2  1  0
  8  3  1  0
 10  5  1  0
  1 11  1  0
  1 12  1  0
  1 13  1  0
  2 14  1  6
  3 15  1  1
  4 16  1  0
  4 17  1  0
  5 18  1  1
  6 19  1  0
  6 20  1  0
  7 21  1  6
  8 22  1  0
  8 23  1  0
  9 24  1  6
 10 25  1  0
 10 26  1  0
M  END
>  <meeko>  (7) 
{"is_sidechain": false}

$$$$

     RDKit          3D

 29 31  0  0  0  0  0  0  0  0999 V2000
   12.6560    3.7870  -58.1590 C   0  0  0  0  0  0  0  0  0  0  0  0
   11.4540    3.3410  -58.9940 C   0  0  2  0  0  0  0  0  0  0  0  0
   11.0410    4.3910  -60.0560 C   0  0  1  0  0  0  0  0  0  0  0  0
    9.9610    3.7650  -60.9630 C   0  0  0  0  0  0  0  0  0  0  0  0
    8.7270    3.3750  -60.1290 C   0  0  2  0  0  0  0  0  0  0  0  0
    8.1570    4.6340  -59.4560 C   0  0  0  0  0  0  0  0  0  0  0  0
    9.2200    5.2690  -58.5420 C   0  0  2  0  0  0  0  0  0  0  0  0
   10.4470    5.6470  -59.3880 C   0  0  0  0  0  0  0  0  0  0  0  0
    9.6310    4.2490  -57.4670 C   0  0  0  0  0  0  0  0  0  0  0  0
   10.2200    2.9880  -58.1270 C   0  0  1  0  0  0  0  0  0  0  0  0
    9.1430    2.3680  -59.0410 C   0  0  0  0  0  0  0  0  0  0  0  0
   12.4134    3.6970  -57.0899 H   0  0  0  0  0  0  0  0  0  0  0  0
   13.5218    3.1503  -58.3934 H   0  0  0  0  0  0  0  0  0  0  0  0
   12.8969    4.8344  -58.3934 H   0  0  0  0  0  0  0  0  0  0  0  0
   11.7948    2.4311  -59.5097 H   0  0  0  0  0  0  0  0  0  0  0  0
   11.9308    4.6830  -60.6330 H   0  0  0  0  0  0  0  0  0  0  0  0
    9.6646    4.4942  -61.7314 H   0  0  0  0  0  0  0  0  0  0  0  0
   10.3716    2.8628  -61.4399 H   0  0  0  0  0  0  0  0  0  0  0  0
    7.9672    2.9215  -60.7824 H   0  0  0  0  0  0  0  0  0  0  0  0
    7.8616    5.3584  -60.2293 H   0  0  0  0  0  0  0  0  0  0  0  0
    7.2810    4.3554  -58.8518 H   0  0  0  0  0  0  0  0  0  0  0  0
    8.8135    6.1698  -58.0590 H   0  0  0  0  0  0  0  0  0  0  0  0
   10.1451    6.3638  -60.1658 H   0  0  0  0  0  0  0  0  0  0  0  0
   11.2075    6.0996  -58.7348 H   0  0  0  0  0  0  0  0  0  0  0  0
   10.3868    4.7007  -56.8077 H   0  0  0  0  0  0  0  0  0  0  0  0
    8.7431    3.9665  -56.8824 H   0  0  0  0  0  0  0  0  0  0  0  0
   10.5291    2.2859  -57.3387 H   0  0  0  0  0  0  0  0  0  0  0  0
    9.5480    1.4635  -59.5184 H   0  0  0  0  0  0  0  0  0  0  0  0
    8.2623    2.1095  -58.4347 H   0  0  0  0  0  0  0  0  0  0  0  0
  1  2  1  0
  2  3  1  0
  3  4  1  0
  4  5  1  0
  5  6  1  0
  6  7  1  0
  7  8  1  0
  7  9  1  0
  9 10  1  0
 10 11  1  0
 10  2  1  0
  8  3  1  0
 11  5  1  0
  1 12  1  0
  1 13  1  0
  1 14  1  0
  2 15  1  1
  3 16  1  1
  4 17  1  0
  4 18  1  0
  5 19  1  1
  6 20  1  0
  6 21  1  0
  7 22  1  6
  8 23  1  0
  8 24  1  0
  9 25  1  0
  9 26  1  0
 10 27  1  6
 11 28  1  0
 11 29  1  0
M  END
>  <meeko>  (8) 
{"is_sidechain": false}

$$$$

     RDKit          3D

 29 31  0  0  0  0  0  0  0  0999 V2000
   10.2320   -3.2860  -54.8700 C   0  0  0  0  0  0  0  0  0  0  0  0
   11.1050   -3.9900  -55.9120 C   0  0  2  0  0  0  0  0  0  0  0  0
   11.7460   -2.9530  -56.8650 C   0  0  0  0  0  0  0  0  0  0  0  0
   12.6240   -3.6580  -57.9130 C   0  0  1  0  0  0  0  0  0  0  0  0
   13.7340   -4.4460  -57.1980 C   0  0  0  0  0  0  0  0  0  0  0  0
   13.1130   -5.4960  -56.2600 C   0  0  2  0  0  0  0  0  0  0  0  0
   12.2430   -6.4600  -57.0840 C   0  0  0  0  0  0  0  0  0  0  0  0
   11.1270   -5.6820  -57.8000 C   0  0  2  0  0  0  0  0  0  0  0  0
   11.7570   -4.6310  -58.7290 C   0  0  0  0  0  0  0  0  0  0  0  0
   10.2530   -4.9710  -56.7510 C   0  0  0  0  0  0  0  0  0  0  0  0
   12.2340   -4.7870  -55.2160 C   0  0  0  0  0  0  0  0  0  0  0  0
   10.5724   -3.5605  -53.8607 H   0  0  0  0  0  0  0  0  0  0  0  0
   10.3119   -2.1967  -55.0003 H   0  0  0  0  0  0  0  0  0  0  0  0
    9.1844   -3.5950  -55.0003 H   0  0  0  0  0  0  0  0  0  0  0  0
   10.9508   -2.3914  -57.3771 H   0  0  0  0  0  0  0  0  0  0  0  0
   12.3739   -2.2680  -56.2763 H   0  0  0  0  0  0  0  0  0  0  0  0
   13.0733   -2.9102  -58.5831 H   0  0  0  0  0  0  0  0  0  0  0  0
   14.3617   -4.9519  -57.9464 H   0  0  0  0  0  0  0  0  0  0  0  0
   14.3469   -3.7503  -56.6061 H   0  0  0  0  0  0  0  0  0  0  0  0
   13.9110   -6.0578  -55.7526 H   0  0  0  0  0  0  0  0  0  0  0  0
   12.8702   -6.9677  -57.8316 H   0  0  0  0  0  0  0  0  0  0  0  0
   11.7899   -7.2021  -56.4102 H   0  0  0  0  0  0  0  0  0  0  0  0
   10.5103   -6.3762  -58.3897 H   0  0  0  0  0  0  0  0  0  0  0  0
   12.3839   -5.1365  -59.4783 H   0  0  0  0  0  0  0  0  0  0  0  0
   10.9567   -4.0670  -59.2304 H   0  0  0  0  0  0  0  0  0  0  0  0
    9.4558   -4.4119  -57.2628 H   0  0  0  0  0  0  0  0  0  0  0  0
    9.8161   -5.7260  -56.0808 H   0  0  0  0  0  0  0  0  0  0  0  0
   11.7881   -5.5382  -54.5475 H   0  0  0  0  0  0  0  0  0  0  0  0
   12.8587   -4.0898  -54.6384 H   0  0  0  0  0  0  0  0  0  0  0  0
  2  1  1  1
  2  3  1  0
  3  4  1  0
  4  5  1  0
  5  6  1  0
  6  7  1  0
  7  8  1  0
  8  9  1  0
  8 10  1  0
  6 11  1  0
 10  2  1  0
 11  2  1  0
  9  4  1  0
  1 12  1  0
  1 13  1  0
  1 14  1  0
  3 15  1  0
  3 16  1  0
  4 17  1  6
  5 18  1  0
  5 19  1  0
  6 20  1  1
  7 21  1  0
  7 22  1  0
  8 23  1  6
  9 24  1  0
  9 25  1  0
 10 26  1  0
 10 27  1  0
 11 28  1  0
 11 29  1  0
M  END
>  <meeko>  (9) 
{"is_sidechain": false}

$$$$

     RDKit          3D

 26 28  0  0  0  0  0  0  0  0999 V2000
    8.1020    3.3430  -58.0140 C   0  0  0  0  0  0  0  0  0  0  0  0
    7.7020    4.3530  -59.0950 C   0  0  2  0  0  0  0  0  0  0  0  0
    7.8730    3.7060  -60.4820 C   0  0  0  0  0  0  0  0  0  0  0  0
    9.3380    3.2780  -60.6820 C   0  0  2  0  0  0  0  0  0  0  0  0
    9.7250    2.2760  -59.5880 C   0  0  0  0  0  0  0  0  0  0  0  0
    9.5480    2.9530  -58.2430 N   0  0  0  0  0  0  0  0  0  0  0  0
   10.4660    4.1510  -58.1100 C   0  0  0  0  0  0  0  0  0  0  0  0
   10.0840    5.1680  -59.1930 C   0  0  2  0  0  0  0  0  0  0  0  0
    8.6160    5.5870  -59.0000 C   0  0  0  0  0  0  0  0  0  0  0  0
   10.2440    4.5170  -60.5780 C   0  0  0  0  0  0  0  0  0  0  0  0
    7.9924    3.7993  -57.0191 H   0  0  0  0  0  0  0  0  0  0  0  0
    7.4557    2.4544  -58.0662 H   0  0  0  0  0  0  0  0  0  0  0  0
    6.6538    4.6537  -58.9501 H   0  0  0  0  0  0  0  0  0  0  0  0
    7.2215    2.8228  -60.5555 H   0  0  0  0  0  0  0  0  0  0  0  0
    7.5989    4.4352  -61.2586 H   0  0  0  0  0  0  0  0  0  0  0  0
    9.4578    2.8114  -61.6709 H   0  0  0  0  0  0  0  0  0  0  0  0
    9.0756    1.3901  -59.6475 H   0  0  0  0  0  0  0  0  0  0  0  0
   10.7691    1.9553  -59.7180 H   0  0  0  0  0  0  0  0  0  0  0  0
    9.8100    2.2750  -57.5150 H   0  0  0  0  0  0  0  0  0  0  0  0
   10.3460    4.6037  -57.1147 H   0  0  0  0  0  0  0  0  0  0  0  0
   11.5148    3.8421  -58.2308 H   0  0  0  0  0  0  0  0  0  0  0  0
   10.7360    6.0508  -59.1185 H   0  0  0  0  0  0  0  0  0  0  0  0
    8.4970    6.0537  -58.0110 H   0  0  0  0  0  0  0  0  0  0  0  0
    8.3381    6.3047  -59.7859 H   0  0  0  0  0  0  0  0  0  0  0  0
    9.9620    5.2414  -61.3563 H   0  0  0  0  0  0  0  0  0  0  0  0
   11.2918    4.2120  -60.7160 H   0  0  0  0  0  0  0  0  0  0  0  0
  1  2  1  0
  2  3  1  0
  3  4  1  0
  4  5  1  0
  5  6  1  0
  6  7  1  0
  7  8  1  0
  8  9  1  0
  8 10  1  0
  6  1  1  0
  9  2  1  0
 10  4  1  0
  1 11  1  0
  1 12  1  0
  2 13  1  6
  3 14  1  0
  3 15  1  0
  4 16  1  1
  5 17  1  0
  5 18  1  0
  6 19  1  0
  7 20  1  0
  7 21  1  0
  8 22  1  1
  9 23  1  0
  9 24  1  0
 10 25  1  0
 10 26  1  0
M  CHG  1   6   1
M  END
>  <meeko>  (10) 
{"is_sidechain": false}

$$$$

     RDKit          3D

 27 29  0  0  0  0  0  0  0  0999 V2000
   10.6360    2.0350  -57.1720 O   0  0  0  0  0  0  0  0  0  0  0  0
   10.2220    2.9750  -58.1520 C   0  0  2  0  0  0  0  0  0  0  0  0
    9.1190    2.3640  -59.0360 C   0  0  0  0  0  0  0  0  0  0  0  0
    8.6800    3.3770  -60.1050 C   0  0  1  0  0  0  0  0  0  0  0  0
    8.1490    4.6440  -59.4120 C   0  0  0  0  0  0  0  0  0  0  0  0
    9.2460    5.2680  -58.5310 C   0  0  2  0  0  0  0  0  0  0  0  0
   10.4560    5.6280  -59.4120 C   0  0  0  0  0  0  0  0  0  0  0  0
   11.0030    4.3670  -60.1030 C   0  0  2  0  0  0  0  0  0  0  0  0
    9.8940    3.7490  -60.9750 C   0  0  0  0  0  0  0  0  0  0  0  0
   11.4270    3.3490  -59.0330 C   0  0  0  0  0  0  0  0  0  0  0  0
    9.6830    4.2450  -57.4690 C   0  0  0  0  0  0  0  0  0  0  0  0
   10.3360    1.1550  -57.4560 H   0  0  0  0  0  0  0  0  0  0  0  0
    9.5061    1.4597  -59.5284 H   0  0  0  0  0  0  0  0  0  0  0  0
    8.2543    2.1056  -58.4071 H   0  0  0  0  0  0  0  0  0  0  0  0
    7.8911    2.9378  -60.7333 H   0  0  0  0  0  0  0  0  0  0  0  0
    7.8381    5.3724  -60.1754 H   0  0  0  0  0  0  0  0  0  0  0  0
    7.2910    4.3738  -58.7789 H   0  0  0  0  0  0  0  0  0  0  0  0
    8.8594    6.1731  -58.0397 H   0  0  0  0  0  0  0  0  0  0  0  0
   10.1455    6.3556  -60.1763 H   0  0  0  0  0  0  0  0  0  0  0  0
   11.2445    6.0618  -58.7795 H   0  0  0  0  0  0  0  0  0  0  0  0
   11.8677    4.6310  -60.7295 H   0  0  0  0  0  0  0  0  0  0  0  0
    9.5842    4.4772  -61.7390 H   0  0  0  0  0  0  0  0  0  0  0  0
   10.2816    2.8401  -61.4583 H   0  0  0  0  0  0  0  0  0  0  0  0
   11.8131    2.4439  -59.5246 H   0  0  0  0  0  0  0  0  0  0  0  0
   12.2098    3.7950  -58.4019 H   0  0  0  0  0  0  0  0  0  0  0  0
   10.4730    4.6850  -56.8426 H   0  0  0  0  0  0  0  0  0  0  0  0
    8.8168    3.9796  -56.8451 H   0  0  0  0  0  0  0  0  0  0  0  0
  2  1  1  1
  2  3  1  0
  3  4  1  0
  4  5  1  0
  5  6  1  0
  6  7  1  0
  7  8  1  0
  8  9  1  0
  8 10  1  0
  6 11  1  0
 10  2  1  0
 11  2  1  0
  9  4  1  0
  1 12  1  0
  3 13  1  0
  3 14  1  0
  4 15  1  6
  5 16  1  0
  5 17  1  0
  6 18  1  1
  7 19  1  0
  7 20  1  0
  8 21  1  6
  9 22  1  0
  9 23  1  0
 10 24  1  0
 10 25  1  0
 11 26  1  0
 11 27  1  0
M  END
>  <meeko>  (11) 
{"is_sidechain": false}

$$$$

     RDKit          3D

 27 29  0  0  0  0  0  0  0  0999 V2000
    9.2600    5.2690  -56.4070 O   0  0  0  0  0  0  0  0  0  0  0  0
    9.8510    4.6690  -57.5550 C   0  0  2  0  0  0  0  0  0  0  0  0
    9.5940    5.5240  -58.8110 C   0  0  1  0  0  0  0  0  0  0  0  0
   10.2960    4.8640  -60.0110 C   0  0  0  0  0  0  0  0  0  0  0  0
    9.7420    3.4440  -60.2310 C   0  0  2  0  0  0  0  0  0  0  0  0
    8.2300    3.5310  -60.5060 C   0  0  0  0  0  0  0  0  0  0  0  0
    7.5130    4.1860  -59.3130 C   0  0  2  0  0  0  0  0  0  0  0  0
    8.0800    5.6000  -59.0960 C   0  0  0  0  0  0  0  0  0  0  0  0
    7.7590    3.3410  -58.0500 C   0  0  0  0  0  0  0  0  0  0  0  0
    9.2720    3.2560  -57.7600 C   0  0  1  0  0  0  0  0  0  0  0  0
    9.9750    2.6020  -58.9630 C   0  0  0  0  0  0  0  0  0  0  0  0
    9.4310    4.6830  -55.6510 H   0  0  0  0  0  0  0  0  0  0  0  0
   10.9371    4.6019  -57.3942 H   0  0  0  0  0  0  0  0  0  0  0  0
    9.9838    6.5397  -58.6486 H   0  0  0  0  0  0  0  0  0  0  0  0
   10.1191    5.4677  -60.9134 H   0  0  0  0  0  0  0  0  0  0  0  0
   11.3754    4.8026  -59.8082 H   0  0  0  0  0  0  0  0  0  0  0  0
   10.2530    2.9758  -61.0852 H   0  0  0  0  0  0  0  0  0  0  0  0
    8.0586    4.1345  -61.4096 H   0  0  0  0  0  0  0  0  0  0  0  0
    7.8316    2.5162  -60.6528 H   0  0  0  0  0  0  0  0  0  0  0  0
    6.4334    4.2466  -59.5149 H   0  0  0  0  0  0  0  0  0  0  0  0
    7.9094    6.2034  -59.9998 H   0  0  0  0  0  0  0  0  0  0  0  0
    7.5739    6.0637  -58.2364 H   0  0  0  0  0  0  0  0  0  0  0  0
    7.2495    3.8078  -57.1942 H   0  0  0  0  0  0  0  0  0  0  0  0
    7.3641    2.3270  -58.2107 H   0  0  0  0  0  0  0  0  0  0  0  0
    9.4332    2.6602  -56.8495 H   0  0  0  0  0  0  0  0  0  0  0  0
   11.0546    2.5365  -58.7625 H   0  0  0  0  0  0  0  0  0  0  0  0
    9.5624    1.5942  -59.1181 H   0  0  0  0  0  0  0  0  0  0  0  0
  1  2  1  0
  2  3  1  0
  3  4  1  0
  4  5  1  0
  5  6  1  0
  6  7  1  0
  7  8  1  0
  7  9  1  0
  9 10  1  0
 10 11  1  0
 10  2  1  0
  8  3  1  0
 11  5  1  0
  1 12  1  0
  2 13  1  6
  3 14  1  6
  4 15  1  0
  4 16  1  0
  5 17  1  1
  6 18  1  0
  6 19  1  0
  7 20  1  1
  8 21  1  0
  8 22  1  0
  9 23  1  0
  9 24  1  0
 10 25  1  6
 11 26  1  0
 11 27  1  0
M  END
>  <meeko>  (12) 
{"is_sidechain": false}

$$$$

     RDKit          3D

 29 31  0  0  0  0  0  0  0  0999 V2000
   10.7710    2.0140  -57.2130 N   0  0  0  0  0  0  0  0  0  0  0  0
   10.3160    2.9940  -58.2310 C   0  0  2  0  0  0  0  0  0  0  0  0
    9.7950    4.2560  -57.5210 C   0  0  0  0  0  0  0  0  0  0  0  0
    9.3220    5.2760  -58.5740 C   0  0  1  0  0  0  0  0  0  0  0  0
   10.5030    5.6380  -59.4930 C   0  0  0  0  0  0  0  0  0  0  0  0
   11.0320    4.3780  -60.2020 C   0  0  2  0  0  0  0  0  0  0  0  0
    9.8980    3.7550  -61.0370 C   0  0  0  0  0  0  0  0  0  0  0  0
    8.7140    3.3800  -60.1280 C   0  0  2  0  0  0  0  0  0  0  0  0
    8.1990    4.6460  -59.4190 C   0  0  0  0  0  0  0  0  0  0  0  0
    9.1890    2.3670  -59.0690 C   0  0  0  0  0  0  0  0  0  0  0  0
   11.4980    3.3620  -59.1430 C   0  0  0  0  0  0  0  0  0  0  0  0
   11.7470    2.1800  -56.9360 H   0  0  0  0  0  0  0  0  0  0  0  0
   10.2000    2.0610  -56.3580 H   0  0  0  0  0  0  0  0  0  0  0  0
   10.7130    1.0480  -57.5640 H   0  0  0  0  0  0  0  0  0  0  0  0
    8.9532    3.9876  -56.8658 H   0  0  0  0  0  0  0  0  0  0  0  0
   10.6015    4.6978  -56.9173 H   0  0  0  0  0  0  0  0  0  0  0  0
    8.9483    6.1815  -58.0736 H   0  0  0  0  0  0  0  0  0  0  0  0
   10.1668    6.3649  -60.2471 H   0  0  0  0  0  0  0  0  0  0  0  0
   11.3101    6.0728  -58.8851 H   0  0  0  0  0  0  0  0  0  0  0  0
   11.8737    4.6443  -60.8582 H   0  0  0  0  0  0  0  0  0  0  0  0
    9.5612    4.4810  -61.7916 H   0  0  0  0  0  0  0  0  0  0  0  0
   10.2731    2.8468  -61.5313 H   0  0  0  0  0  0  0  0  0  0  0  0
    7.9084    2.9373  -60.7321 H   0  0  0  0  0  0  0  0  0  0  0  0
    7.8602    5.3722  -60.1726 H   0  0  0  0  0  0  0  0  0  0  0  0
    7.3629    4.3727  -58.7585 H   0  0  0  0  0  0  0  0  0  0  0  0
    8.3477    2.1012  -58.4121 H   0  0  0  0  0  0  0  0  0  0  0  0
    9.5633    1.4614  -59.5689 H   0  0  0  0  0  0  0  0  0  0  0  0
   11.8712    2.4561  -59.6431 H   0  0  0  0  0  0  0  0  0  0  0  0
   12.3033    3.8053  -58.5388 H   0  0  0  0  0  0  0  0  0  0  0  0
  2  1  1  1
  2  3  1  0
  3  4  1  0
  4  5  1  0
  5  6  1  0
  6  7  1  0
  7  8  1  0
  8  9  1  0
  8 10  1  0
  6 11  1  0
 10  2  1  0
 11  2  1  0
  9  4  1  0
  1 12  1  0
  1 13  1  0
  1 14  1  0
  3 15  1  0
  3 16  1  0
  4 17  1  1
  5 18  1  0
  5 19  1  0
  6 20  1  6
  7 21  1  0
  7 22  1  0
  8 23  1  6
  9 24  1  0
  9 25  1  0
 10 26  1  0
 10 27  1  0
 11 28  1  0
 11 29  1  0
M  CHG  1   1   1
M  END
>  <meeko>  (13) 
{"is_sidechain": false}

$$$$

     RDKit          3D

 29 31  0  0  0  0  0  0  0  0999 V2000
    9.6720    3.7300  -56.9910 C   0  0  0  0  0  0  0  0  0  0  0  0
    9.2290    5.1630  -57.2690 C   0  0  0  0  0  0  0  0  0  0  0  0
    9.0810    5.6350  -58.7170 C   0  0  1  0  0  0  0  0  0  0  0  0
   10.4140    5.6450  -59.4750 C   0  0  0  0  0  0  0  0  0  0  0  0
   10.8020    4.2930  -60.0830 C   0  0  1  0  0  0  0  0  0  0  0  0
   11.1550    3.2550  -59.0120 C   0  0  0  0  0  0  0  0  0  0  0  0
    9.9620    2.7920  -58.1660 C   0  0  2  0  0  0  0  0  0  0  0  0
    8.7140    2.4990  -59.0110 C   0  0  0  0  0  0  0  0  0  0  0  0
    8.4180    3.5540  -60.0810 C   0  0  1  0  0  0  0  0  0  0  0  0
    7.9730    4.8890  -59.4730 C   0  0  0  0  0  0  0  0  0  0  0  0
    9.6560    3.7700  -60.9500 C   0  0  0  0  0  0  0  0  0  0  0  0
   10.5936    3.7896  -56.3935 H   0  0  0  0  0  0  0  0  0  0  0  0
    8.7946    3.2763  -56.5070 H   0  0  0  0  0  0  0  0  0  0  0  0
    8.2490    5.2948  -56.7871 H   0  0  0  0  0  0  0  0  0  0  0  0
   10.0591    5.7715  -56.8809 H   0  0  0  0  0  0  0  0  0  0  0  0
    8.7559    6.6845  -58.6630 H   0  0  0  0  0  0  0  0  0  0  0  0
   10.3422    6.3813  -60.2891 H   0  0  0  0  0  0  0  0  0  0  0  0
   11.1931    5.8960  -58.7402 H   0  0  0  0  0  0  0  0  0  0  0  0
   11.7002    4.4523  -60.6978 H   0  0  0  0  0  0  0  0  0  0  0  0
   11.5845    2.3750  -59.5131 H   0  0  0  0  0  0  0  0  0  0  0  0
   11.8613    3.7406  -58.3225 H   0  0  0  0  0  0  0  0  0  0  0  0
   10.2603    1.8309  -57.7218 H   0  0  0  0  0  0  0  0  0  0  0  0
    8.8564    1.5301  -59.5120 H   0  0  0  0  0  0  0  0  0  0  0  0
    7.8576    2.5003  -58.3207 H   0  0  0  0  0  0  0  0  0  0  0  0
    7.5866    3.1770  -60.6947 H   0  0  0  0  0  0  0  0  0  0  0  0
    7.6142    5.5364  -60.2867 H   0  0  0  0  0  0  0  0  0  0  0  0
    7.1891    4.6562  -58.7373 H   0  0  0  0  0  0  0  0  0  0  0  0
    9.9511    2.8161  -61.4115 H   0  0  0  0  0  0  0  0  0  0  0  0
    9.4279    4.5031  -61.7377 H   0  0  0  0  0  0  0  0  0  0  0  0
  1  2  1  0
  2  3  1  0
  3  4  1  0
  4  5  1  0
  5  6  1  0
  6  7  1  0
  7  8  1  0
  8  9  1  0
  9 10  1  0
  9 11  1  0
  7  1  1  0
 10  3  1  0
 11  5  1  0
  1 12  1  0
  1 13  1  0
  2 14  1  0
  2 15  1  0
  3 16  1  1
  4 17  1  0
  4 18  1  0
  5 19  1  6
  6 20  1  0
  6 21  1  0
  7 22  1  1
  8 23  1  0
  8 24  1  0
  9 25  1  6
 10 26  1  0
 10 27  1  0
 11 28  1  0
 11 29  1  0
M  END
>  <meeko>  (14) 
{"is_sidechain": false}

$$$$

     RDKit          3D

 32 34  0  0  0  0  0  0  0  0999 V2000
   11.0940   -2.9600  -53.5250 C   0  0  0  0  0  0  0  0  0  0  0  0
   10.3280   -3.3140  -54.7930 C   0  0  0  0  0  0  0  0  0  0  0  0
   11.1520   -3.9890  -55.9160 C   0  0  2  0  0  0  0  0  0  0  0  0
   11.8280   -2.9470  -56.8420 C   0  0  0  0  0  0  0  0  0  0  0  0
   12.6870   -3.6440  -57.9140 C   0  0  1  0  0  0  0  0  0  0  0  0
   13.7750   -4.4850  -57.2270 C   0  0  0  0  0  0  0  0  0  0  0  0
   13.1270   -5.5470  -56.3260 C   0  0  2  0  0  0  0  0  0  0  0  0
   12.2290   -6.4590  -57.1740 C   0  0  0  0  0  0  0  0  0  0  0  0
   11.1340   -5.6280  -57.8600 C   0  0  2  0  0  0  0  0  0  0  0  0
   11.7910   -4.5660  -58.7570 C   0  0  0  0  0  0  0  0  0  0  0  0
   10.2780   -4.9260  -56.7890 C   0  0  0  0  0  0  0  0  0  0  0  0
   12.2690   -4.8460  -55.2590 C   0  0  0  0  0  0  0  0  0  0  0  0
   10.4947   -3.2370  -52.6452 H   0  0  0  0  0  0  0  0  0  0  0  0
   12.0471   -3.5090  -53.5070 H   0  0  0  0  0  0  0  0  0  0  0  0
   11.2935   -1.8784  -53.5070 H   0  0  0  0  0  0  0  0  0  0  0  0
    9.5138   -3.9992  -54.5144 H   0  0  0  0  0  0  0  0  0  0  0  0
    9.9858   -2.3556  -55.2107 H   0  0  0  0  0  0  0  0  0  0  0  0
   11.0507   -2.3464  -57.3371 H   0  0  0  0  0  0  0  0  0  0  0  0
   12.4789   -2.3031  -56.2323 H   0  0  0  0  0  0  0  0  0  0  0  0
   13.1576   -2.8888  -58.5606 H   0  0  0  0  0  0  0  0  0  0  0  0
   14.3889   -4.9821  -57.9925 H   0  0  0  0  0  0  0  0  0  0  0  0
   14.4064   -3.8264  -56.6125 H   0  0  0  0  0  0  0  0  0  0  0  0
   13.9107   -6.1483  -55.8420 H   0  0  0  0  0  0  0  0  0  0  0  0
   12.8389   -6.9608  -57.9397 H   0  0  0  0  0  0  0  0  0  0  0  0
   11.7577   -7.2090  -56.5218 H   0  0  0  0  0  0  0  0  0  0  0  0
   10.4976   -6.2875  -58.4682 H   0  0  0  0  0  0  0  0  0  0  0  0
   12.4016   -5.0648  -59.5241 H   0  0  0  0  0  0  0  0  0  0  0  0
   11.0054   -3.9641  -59.2372 H   0  0  0  0  0  0  0  0  0  0  0  0
    9.4956   -4.3322  -57.2843 H   0  0  0  0  0  0  0  0  0  0  0  0
    9.8244   -5.6910  -56.1417 H   0  0  0  0  0  0  0  0  0  0  0  0
   11.8057   -5.6067  -54.6135 H   0  0  0  0  0  0  0  0  0  0  0  0
   12.9179   -4.1822  -54.6687 H   0  0  0  0  0  0  0  0  0  0  0  0
  1  2  1  0
  3  2  1  1
  3  4  1  0
  4  5  1  0
  5  6  1  0
  6  7  1  0
  7  8  1  0
  8  9  1  0
  9 10  1  0
  9 11  1  0
  7 12  1  0
 11  3  1  0
 12  3  1  0
 10  5  1  0
  1 13  1  0
  1 14  1  0
  1 15  1  0
  2 16  1  0
  2 17  1  0
  4 18  1  0
  4 19  1  0
  5 20  1  6
  6 21  1  0
  6 22  1  0
  7 23  1  1
  8 24  1  0
  8 25  1  0
  9 26  1  6
 10 27  1  0
 10 28  1  0
 11 29  1  0
 11 30  1  0
 12 31  1  0
 12 32  1  0
M  END
>  <meeko>  (15) 
{"is_sidechain": false}

$$$$

     RDKit          3D

 30 32  0  0  0  0  0  0  0  0999 V2000
   11.0820   -2.9580  -53.6480 O   0  0  0  0  0  0  0  0  0  0  0  0
   10.2990   -3.3240  -54.7750 C   0  0  0  0  0  0  0  0  0  0  0  0
   11.1390   -4.0010  -55.8720 C   0  0  2  0  0  0  0  0  0  0  0  0
   10.2680   -4.9580  -56.7270 C   0  0  0  0  0  0  0  0  0  0  0  0
   11.1230   -5.6580  -57.7970 C   0  0  1  0  0  0  0  0  0  0  0  0
   11.7530   -4.5980  -58.7160 C   0  0  0  0  0  0  0  0  0  0  0  0
   12.6400   -3.6490  -57.8930 C   0  0  2  0  0  0  0  0  0  0  0  0
   13.7500   -4.4610  -57.2070 C   0  0  0  0  0  0  0  0  0  0  0  0
   13.1330   -5.5220  -56.2840 C   0  0  2  0  0  0  0  0  0  0  0  0
   12.2410   -6.4610  -57.1120 C   0  0  0  0  0  0  0  0  0  0  0  0
   12.2750   -4.8250  -55.2150 C   0  0  0  0  0  0  0  0  0  0  0  0
   11.7790   -2.9550  -56.8220 C   0  0  0  0  0  0  0  0  0  0  0  0
   11.8650   -2.4820  -53.9730 H   0  0  0  0  0  0  0  0  0  0  0  0
    9.5137   -4.0218  -54.4490 H   0  0  0  0  0  0  0  0  0  0  0  0
    9.8678   -2.4052  -55.1990 H   0  0  0  0  0  0  0  0  0  0  0  0
    9.8157   -5.7173  -56.0721 H   0  0  0  0  0  0  0  0  0  0  0  0
    9.4838   -4.3714  -57.2278 H   0  0  0  0  0  0  0  0  0  0  0  0
   10.4902   -6.3356  -58.3891 H   0  0  0  0  0  0  0  0  0  0  0  0
   12.3655   -5.0970  -59.4814 H   0  0  0  0  0  0  0  0  0  0  0  0
   10.9532   -4.0171  -59.1987 H   0  0  0  0  0  0  0  0  0  0  0  0
   13.0903   -2.8932  -58.5533 H   0  0  0  0  0  0  0  0  0  0  0  0
   14.3640   -4.9575  -57.9728 H   0  0  0  0  0  0  0  0  0  0  0  0
   14.3754   -3.7824  -56.6084 H   0  0  0  0  0  0  0  0  0  0  0  0
   13.9334   -6.1016  -55.8009 H   0  0  0  0  0  0  0  0  0  0  0  0
   12.8515   -6.9614  -57.8780 H   0  0  0  0  0  0  0  0  0  0  0  0
   11.7899   -7.2106  -56.4452 H   0  0  0  0  0  0  0  0  0  0  0  0
   11.8331   -5.5859  -54.5549 H   0  0  0  0  0  0  0  0  0  0  0  0
   12.9166   -4.1430  -54.6377 H   0  0  0  0  0  0  0  0  0  0  0  0
   12.4124   -2.2737  -56.2350 H   0  0  0  0  0  0  0  0  0  0  0  0
   10.9764   -2.3932  -57.3223 H   0  0  0  0  0  0  0  0  0  0  0  0
  1  2  1  0
  3  2  1  1
  3  4  1  0
  4  5  1  0
  5  6  1  0
  6  7  1  0
  7  8  1  0
  8  9  1  0
  9 10  1  0
  9 11  1  0
  7 12  1  0
 11  3  1  0
 12  3  1  0
 10  5  1  0
  1 13  1  0
  2 14  1  0
  2 15  1  0
  4 16  1  0
  4 17  1  0
  5 18  1  6
  6 19  1  0
  6 20  1  0
  7 21  1  6
  8 22  1  0
  8 23  1  0
  9 24  1  1
 10 25  1  0
 10 26  1  0
 11 27  1  0
 11 28  1  0
 12 29  1  0
 12 30  1  0
M  END
>  <meeko>  (16) 
{"is_sidechain": false}

$$$$

     RDKit          3D

 30 32  0  0  0  0  0  0  0  0999 V2000
   13.0350    4.5200  -57.9780 C   0  0  0  0  0  0  0  0  0  0  0  0
   11.9280    5.2970  -58.4040 O   0  0  0  0  0  0  0  0  0  0  0  0
   10.7490    4.5900  -58.7980 C   0  0  2  0  0  0  0  0  0  0  0  0
    9.4700    5.1450  -58.1300 C   0  0  0  0  0  0  0  0  0  0  0  0
    8.2530    4.2780  -58.4980 C   0  0  1  0  0  0  0  0  0  0  0  0
    8.0810    4.2720  -60.0280 C   0  0  0  0  0  0  0  0  0  0  0  0
    9.3380    3.6920  -60.7000 C   0  0  2  0  0  0  0  0  0  0  0  0
    9.5650    2.2580  -60.1990 C   0  0  0  0  0  0  0  0  0  0  0  0
    9.7450    2.2580  -58.6720 C   0  0  2  0  0  0  0  0  0  0  0  0
    8.4870    2.8400  -58.0090 C   0  0  0  0  0  0  0  0  0  0  0  0
   10.9520    3.1340  -58.3110 C   0  0  0  0  0  0  0  0  0  0  0  0
   10.5540    4.5600  -60.3300 C   0  0  0  0  0  0  0  0  0  0  0  0
   13.0662    4.4981  -56.8787 H   0  0  0  0  0  0  0  0  0  0  0  0
   12.9328    3.4944  -58.3624 H   0  0  0  0  0  0  0  0  0  0  0  0
   13.9648    4.9647  -58.3624 H   0  0  0  0  0  0  0  0  0  0  0  0
    9.6007    5.1412  -57.0378 H   0  0  0  0  0  0  0  0  0  0  0  0
    9.2978    6.1713  -58.4866 H   0  0  0  0  0  0  0  0  0  0  0  0
    7.3489    4.6871  -58.0234 H   0  0  0  0  0  0  0  0  0  0  0  0
    7.2094    3.6557  -60.2936 H   0  0  0  0  0  0  0  0  0  0  0  0
    7.9303    5.3042  -60.3771 H   0  0  0  0  0  0  0  0  0  0  0  0
    9.2063    3.6842  -61.7921 H   0  0  0  0  0  0  0  0  0  0  0  0
    8.6960    1.6376  -60.4636 H   0  0  0  0  0  0  0  0  0  0  0  0
   10.4714    1.8497  -60.6699 H   0  0  0  0  0  0  0  0  0  0  0  0
    9.9067    1.2290  -58.3184 H   0  0  0  0  0  0  0  0  0  0  0  0
    7.6170    2.2199  -58.2711 H   0  0  0  0  0  0  0  0  0  0  0  0
    8.6244    2.8475  -56.9176 H   0  0  0  0  0  0  0  0  0  0  0  0
   11.0813    3.1352  -57.2186 H   0  0  0  0  0  0  0  0  0  0  0  0
   11.8439    2.7212  -58.8052 H   0  0  0  0  0  0  0  0  0  0  0  0
   11.4551    4.1412  -60.8018 H   0  0  0  0  0  0  0  0  0  0  0  0
   10.3817    5.5859  -60.6876 H   0  0  0  0  0  0  0  0  0  0  0  0
  1  2  1  0
  3  2  1  6
  3  4  1  0
  4  5  1  0
  5  6  1  0
  6  7  1  0
  7  8  1  0
  8  9  1  0
  9 10  1  0
  9 11  1  0
  7 12  1  0
 11  3  1  0
 12  3  1  0
 10  5  1  0
  1 13  1  0
  1 14  1  0
  1 15  1  0
  4 16  1  0
  4 17  1  0
  5 18  1  1
  6 19  1  0
  6 20  1  0
  7 21  1  6
  8 22  1  0
  8 23  1  0
  9 24  1  1
 10 25  1  0
 10 26  1  0
 11 27  1  0
 11 28  1  0
 12 29  1  0
 12 30  1  0
M  END
>  <meeko>  (17) 
{"is_sidechain": false}

$$$$

     RDKit          3D

 27 29  0  0  0  0  0  0  0  0999 V2000
    9.7020    3.3830  -61.2520 C   0  0  0  0  0  0  0  0  0  0  0  0
   10.0840    3.5140  -59.7770 C   0  0  2  0  0  0  0  0  0  0  0  0
    9.3670    2.4310  -58.9300 C   0  0  0  0  0  0  0  0  0  0  0  0
    9.7480    2.5580  -57.4420 C   0  0  2  0  0  0  0  0  0  0  0  0
    9.3620    3.9530  -56.9330 C   0  0  0  0  0  0  0  0  0  0  0  0
   10.1060    5.0050  -57.7610 C   0  0  2  0  0  0  0  0  0  0  0  0
    9.6990    4.9070  -59.2360 C   0  0  0  0  0  0  0  0  0  0  0  0
   11.5240    4.8000  -57.6380 O   0  0  0  0  0  0  0  0  0  0  0  0
   11.9550    3.5100  -58.1070 C   0  0  1  0  0  0  0  0  0  0  0  0
   11.2670    2.4120  -57.2890 C   0  0  0  0  0  0  0  0  0  0  0  0
   11.6090    3.3630  -59.5920 C   0  0  0  0  0  0  0  0  0  0  0  0
    8.6642    3.0271  -61.3318 H   0  0  0  0  0  0  0  0  0  0  0  0
    9.7922    4.3634  -61.7426 H   0  0  0  0  0  0  0  0  0  0  0  0
   10.3749    2.6643  -61.7426 H   0  0  0  0  0  0  0  0  0  0  0  0
    8.2789    2.5529  -59.0352 H   0  0  0  0  0  0  0  0  0  0  0  0
    9.6780    1.4392  -59.2899 H   0  0  0  0  0  0  0  0  0  0  0  0
    9.2232    1.7771  -56.8721 H   0  0  0  0  0  0  0  0  0  0  0  0
    8.2769    4.0982  -57.0400 H   0  0  0  0  0  0  0  0  0  0  0  0
    9.6346    4.0519  -55.8719 H   0  0  0  0  0  0  0  0  0  0  0  0
    9.8431    6.0048  -57.3851 H   0  0  0  0  0  0  0  0  0  0  0  0
    8.6122    5.0500  -59.3281 H   0  0  0  0  0  0  0  0  0  0  0  0
   10.2181    5.6849  -59.8151 H   0  0  0  0  0  0  0  0  0  0  0  0
   13.0441    3.4160  -57.9845 H   0  0  0  0  0  0  0  0  0  0  0  0
   11.5822    1.4246  -57.6573 H   0  0  0  0  0  0  0  0  0  0  0  0
   11.5460    2.5060  -56.2291 H   0  0  0  0  0  0  0  0  0  0  0  0
   12.1283    4.1422  -60.1693 H   0  0  0  0  0  0  0  0  0  0  0  0
   11.9275    2.3724  -59.9486 H   0  0  0  0  0  0  0  0  0  0  0  0
  2  1  1  6
  2  3  1  0
  3  4  1  0
  4  5  1  0
  5  6  1  0
  6  7  1  0
  6  8  1  0
  8  9  1  0
  9 10  1  0
  9 11  1  0
  7  2  1  0
 11  2  1  0
 10  4  1  0
  1 12  1  0
  1 13  1  0
  1 14  1  0
  3 15  1  0
  3 16  1  0
  4 17  1  1
  5 18  1  0
  5 19  1  0
  6 20  1  1
  7 21  1  0
  7 22  1  0
  9 23  1  6
 10 24  1  0
 10 25  1  0
 11 26  1  0
 11 27  1  0
M  END
>  <meeko>  (18) 
{"is_sidechain": false}

$$$$

     RDKit          3D

 33 35  0  0  0  0  0  0  0  0999 V2000
    6.6430    0.4780  -55.6320 C   0  0  0  0  0  0  0  0  0  0  0  0
    6.8200    1.7220  -56.4630 C   0  0  0  0  0  0  0  0  0  0  0  0
    5.9130    2.5360  -56.5990 O   0  0  0  0  0  0  0  0  0  0  0  0
    8.0770    1.8460  -57.0110 N   0  0  0  0  0  0  0  0  0  0  0  0
    8.5290    2.9820  -57.8220 C   0  0  2  0  0  0  0  0  0  0  0  0
    7.6360    3.1910  -59.0700 C   0  0  0  0  0  0  0  0  0  0  0  0
    8.1640    4.3560  -59.9260 C   0  0  1  0  0  0  0  0  0  0  0  0
    8.1780    5.6400  -59.0790 C   0  0  0  0  0  0  0  0  0  0  0  0
    9.0920    5.4570  -57.8550 C   0  0  2  0  0  0  0  0  0  0  0  0
   10.5170    5.1320  -58.3320 C   0  0  0  0  0  0  0  0  0  0  0  0
   10.5090    3.8460  -59.1710 C   0  0  2  0  0  0  0  0  0  0  0  0
    9.5940    4.0390  -60.3900 C   0  0  0  0  0  0  0  0  0  0  0  0
    9.9720    2.6880  -58.3160 C   0  0  0  0  0  0  0  0  0  0  0  0
    8.5650    4.2920  -56.9980 C   0  0  0  0  0  0  0  0  0  0  0  0
    6.6805    0.7416  -54.5647 H   0  0  0  0  0  0  0  0  0  0  0  0
    5.6704    0.0185  -55.8623 H   0  0  0  0  0  0  0  0  0  0  0  0
    7.4488   -0.2345  -55.8623 H   0  0  0  0  0  0  0  0  0  0  0  0
    8.7740    1.1650  -56.7360 H   0  0  0  0  0  0  0  0  0  0  0  0
    7.6361    2.2708  -59.6726 H   0  0  0  0  0  0  0  0  0  0  0  0
    6.6145    3.4293  -58.7388 H   0  0  0  0  0  0  0  0  0  0  0  0
    7.5142    4.4960  -60.8024 H   0  0  0  0  0  0  0  0  0  0  0  0
    8.5515    6.4748  -59.6902 H   0  0  0  0  0  0  0  0  0  0  0  0
    7.1555    5.8554  -58.7354 H   0  0  0  0  0  0  0  0  0  0  0  0
    9.1024    6.3807  -57.2578 H   0  0  0  0  0  0  0  0  0  0  0  0
   10.8950    5.9641  -58.9442 H   0  0  0  0  0  0  0  0  0  0  0  0
   11.1670    4.9880  -57.4564 H   0  0  0  0  0  0  0  0  0  0  0  0
   11.5312    3.6183  -59.5076 H   0  0  0  0  0  0  0  0  0  0  0  0
    9.9720    4.8716  -61.0015 H   0  0  0  0  0  0  0  0  0  0  0  0
    9.5847    3.1143  -60.9856 H   0  0  0  0  0  0  0  0  0  0  0  0
    9.9650    1.7685  -58.9197 H   0  0  0  0  0  0  0  0  0  0  0  0
   10.6248    2.5687  -57.4387 H   0  0  0  0  0  0  0  0  0  0  0  0
    9.2257    4.1546  -56.1293 H   0  0  0  0  0  0  0  0  0  0  0  0
    7.5438    4.5300  -56.6657 H   0  0  0  0  0  0  0  0  0  0  0  0
  1  2  1  0
  2  3  2  0
  2  4  1  0
  5  4  1  1
  5  6  1  0
  6  7  1  0
  7  8  1  0
  8  9  1  0
  9 10  1  0
 10 11  1  0
 11 12  1  0
 11 13  1  0
  9 14  1  0
 13  5  1  0
 14  5  1  0
 12  7  1  0
  1 15  1  0
  1 16  1  0
  1 17  1  0
  4 18  1  0
  6 19  1  0
  6 20  1  0
  7 21  1  6
  8 22  1  0
  8 23  1  0
  9 24  1  1
 10 25  1  0
 10 26  1  0
 11 27  1  6
 12 28  1  0
 12 29  1  0
 13 30  1  0
 13 31  1  0
 14 32  1  0
 14 33  1  0
M  END
>  <meeko>  (19) 
{"is_sidechain": false}

$$$$

     RDKit          3D

 36 38  0  0  0  0  0  0  0  0999 V2000
   12.9610    7.5350  -60.7070 C   0  0  0  0  0  0  0  0  0  0  0  0
   13.2980    6.6340  -59.5320 C   0  0  0  0  0  0  0  0  0  0  0  0
   12.4850    5.3520  -59.5320 C   0  0  0  0  0  0  0  0  0  0  0  0
   12.9860    4.2380  -59.4420 O   0  0  0  0  0  0  0  0  0  0  0  0
   11.1310    5.5910  -59.6440 N   0  0  0  0  0  0  0  0  0  0  0  0
   10.0940    4.5540  -59.6730 C   0  0  2  0  0  0  0  0  0  0  0  0
    8.7300    5.2150  -59.3340 C   0  0  0  0  0  0  0  0  0  0  0  0
    7.5960    4.1780  -59.3470 C   0  0  1  0  0  0  0  0  0  0  0  0
    7.5110    3.5400  -60.7420 C   0  0  0  0  0  0  0  0  0  0  0  0
    8.8430    2.8570  -61.0890 C   0  0  2  0  0  0  0  0  0  0  0  0
    9.1450    1.7730  -60.0400 C   0  0  0  0  0  0  0  0  0  0  0  0
    9.2320    2.4010  -58.6380 C   0  0  2  0  0  0  0  0  0  0  0  0
    7.8970    3.0870  -58.3060 C   0  0  0  0  0  0  0  0  0  0  0  0
   10.3600    3.4490  -58.6210 C   0  0  0  0  0  0  0  0  0  0  0  0
    9.9710    3.9040  -61.0740 C   0  0  0  0  0  0  0  0  0  0  0  0
   12.5985    8.5042  -60.3337 H   0  0  0  0  0  0  0  0  0  0  0  0
   13.8614    7.6914  -61.3192 H   0  0  0  0  0  0  0  0  0  0  0  0
   12.1790    7.0621  -61.3192 H   0  0  0  0  0  0  0  0  0  0  0  0
   14.3659    6.3747  -59.5809 H   0  0  0  0  0  0  0  0  0  0  0  0
   13.0575    7.1829  -58.6096 H   0  0  0  0  0  0  0  0  0  0  0  0
   10.8310    6.5550  -59.7120 H   0  0  0  0  0  0  0  0  0  0  0  0
    8.7896    5.6701  -58.3343 H   0  0  0  0  0  0  0  0  0  0  0  0
    8.5133    5.9801  -60.0940 H   0  0  0  0  0  0  0  0  0  0  0  0
    6.6410    4.6672  -59.1050 H   0  0  0  0  0  0  0  0  0  0  0  0
    6.7045    2.7920  -60.7521 H   0  0  0  0  0  0  0  0  0  0  0  0
    7.3022    4.3234  -61.4855 H   0  0  0  0  0  0  0  0  0  0  0  0
    8.7752    2.3999  -62.0872 H   0  0  0  0  0  0  0  0  0  0  0  0
    8.3419    1.0214  -60.0524 H   0  0  0  0  0  0  0  0  0  0  0  0
   10.1073    1.2979  -60.2812 H   0  0  0  0  0  0  0  0  0  0  0  0
    9.4414    1.6188  -57.8935 H   0  0  0  0  0  0  0  0  0  0  0  0
    7.0901    2.3395  -58.3174 H   0  0  0  0  0  0  0  0  0  0  0  0
    7.9642    3.5466  -57.3089 H   0  0  0  0  0  0  0  0  0  0  0  0
   10.4134    3.9064  -57.6220 H   0  0  0  0  0  0  0  0  0  0  0  0
   11.3104    2.9507  -58.8629 H   0  0  0  0  0  0  0  0  0  0  0  0
   10.9221    3.4142  -61.3299 H   0  0  0  0  0  0  0  0  0  0  0  0
    9.7365    4.6880  -61.8090 H   0  0  0  0  0  0  0  0  0  0  0  0
  1  2  1  0
  2  3  1  0
  3  4  2  0
  3  5  1  0
  6  5  1  6
  6  7  1  0
  7  8  1  0
  8  9  1  0
  9 10  1  0
 10 11  1  0
 11 12  1  0
 12 13  1  0
 12 14  1  0
 10 15  1  0
 14  6  1  0
 15  6  1  0
 13  8  1  0
  1 16  1  0
  1 17  1  0
  1 18  1  0
  2 19  1  0
  2 20  1  0
  5 21  1  0
  7 22  1  0
  7 23  1  0
  8 24  1  1
  9 25  1  0
  9 26  1  0
 10 27  1  6
 11 28  1  0
 11 29  1  0
 12 30  1  1
 13 31  1  0
 13 32  1  0
 14 33  1  0
 14 34  1  0
 15 35  1  0
 15 36  1  0
M  END
>  <meeko>  (20) 
{"is_sidechain": false}

$$$$

     RDKit          3D

 32 34  0  0  0  0  0  0  0  0999 V2000
    6.2830   -0.3730  -54.9670 C   0  0  0  0  0  0  0  0  0  0  0  0
    6.4730    0.6120  -55.6260 C   0  0  0  0  0  0  0  0  0  0  0  0
    6.7030    1.7990  -56.4210 C   0  0  0  0  0  0  0  0  0  0  0  0
    5.8000    2.6100  -56.5600 O   0  0  0  0  0  0  0  0  0  0  0  0
    7.9630    1.8920  -56.9560 N   0  0  0  0  0  0  0  0  0  0  0  0
    8.4410    2.9940  -57.7930 C   0  0  2  0  0  0  0  0  0  0  0  0
    7.5300    3.2110  -59.0270 C   0  0  0  0  0  0  0  0  0  0  0  0
    8.0820    4.3410  -59.9150 C   0  0  1  0  0  0  0  0  0  0  0  0
    8.1590    5.6390  -59.0940 C   0  0  0  0  0  0  0  0  0  0  0  0
    9.0900    5.4460  -57.8850 C   0  0  2  0  0  0  0  0  0  0  0  0
   10.4940    5.0630  -58.3820 C   0  0  0  0  0  0  0  0  0  0  0  0
   10.4230    3.7610  -59.1960 C   0  0  2  0  0  0  0  0  0  0  0  0
    9.4900    3.9630  -60.4000 C   0  0  0  0  0  0  0  0  0  0  0  0
    9.8630    2.6390  -58.3070 C   0  0  0  0  0  0  0  0  0  0  0  0
    8.5390    4.3180  -56.9960 C   0  0  0  0  0  0  0  0  0  0  0  0
    6.1089   -1.2757  -54.3630 H   0  0  0  0  0  0  0  0  0  0  0  0
    8.6010    1.1360  -56.7480 H   0  0  0  0  0  0  0  0  0  0  0  0
    7.4855    2.2804  -59.6118 H   0  0  0  0  0  0  0  0  0  0  0  0
    6.5241    3.4908  -58.6808 H   0  0  0  0  0  0  0  0  0  0  0  0
    7.4199    4.4891  -60.7809 H   0  0  0  0  0  0  0  0  0  0  0  0
    8.5499    6.4481  -59.7285 H   0  0  0  0  0  0  0  0  0  0  0  0
    7.1520    5.8978  -58.7349 H   0  0  0  0  0  0  0  0  0  0  0  0
    9.1450    6.3797  -57.3060 H   0  0  0  0  0  0  0  0  0  0  0  0
   10.8887    5.8695  -59.0174 H   0  0  0  0  0  0  0  0  0  0  0  0
   11.1566    4.9138  -57.5167 H   0  0  0  0  0  0  0  0  0  0  0  0
   11.4293    3.4907  -59.5487 H   0  0  0  0  0  0  0  0  0  0  0  0
    9.8850    4.7690  -61.0359 H   0  0  0  0  0  0  0  0  0  0  0  0
    9.4349    3.0272  -60.9756 H   0  0  0  0  0  0  0  0  0  0  0  0
    9.8125    1.7084  -58.8913 H   0  0  0  0  0  0  0  0  0  0  0  0
   10.5281    2.5137  -57.4399 H   0  0  0  0  0  0  0  0  0  0  0  0
    9.2108    4.1739  -56.1370 H   0  0  0  0  0  0  0  0  0  0  0  0
    7.5333    4.5987  -56.6499 H   0  0  0  0  0  0  0  0  0  0  0  0
  1  2  3  0
  2  3  1  0
  3  4  2  0
  3  5  1  0
  6  5  1  1
  6  7  1  0
  7  8  1  0
  8  9  1  0
  9 10  1  0
 10 11  1  0
 11 12  1  0
 12 13  1  0
 12 14  1  0
 10 15  1  0
 14  6  1  0
 15  6  1  0
 13  8  1  0
  1 16  1  0
  5 17  1  0
  7 18  1  0
  7 19  1  0
  8 20  1  6
  9 21  1  0
  9 22  1  0
 10 23  1  1
 11 24  1  0
 11 25  1  0
 12 26  1  6
 13 27  1  0
 13 28  1  0
 14 29  1  0
 14 30  1  0
 15 31  1  0
 15 32  1  0
M  END
>  <meeko>  (21) 
{"is_sidechain": false}

$$$$

     RDKit          3D

 27 29  0  0  0  0  0  0  0  0999 V2000
   12.3870    6.4170  -59.8430 N   0  0  0  0  0  0  0  0  0  0  0  0
   11.5150    5.6580  -59.7450 C   0  0  0  0  0  0  0  0  0  0  0  0
   10.4060    4.6930  -59.6180 C   0  0  2  0  0  0  0  0  0  0  0  0
    9.1590    5.3860  -59.0200 C   0  0  0  0  0  0  0  0  0  0  0  0
    8.0000    4.3820  -58.8870 C   0  0  1  0  0  0  0  0  0  0  0  0
    7.6560    3.8200  -60.2770 C   0  0  0  0  0  0  0  0  0  0  0  0
    8.8800    3.1110  -60.8780 C   0  0  2  0  0  0  0  0  0  0  0  0
    9.3090    1.9630  -59.9470 C   0  0  0  0  0  0  0  0  0  0  0  0
    9.6630    2.5160  -58.5560 C   0  0  2  0  0  0  0  0  0  0  0  0
    8.4330    3.2280  -57.9670 C   0  0  0  0  0  0  0  0  0  0  0  0
   10.8170    3.5260  -58.6910 C   0  0  0  0  0  0  0  0  0  0  0  0
   10.0370    4.1180  -61.0050 C   0  0  0  0  0  0  0  0  0  0  0  0
    9.4081    5.7859  -58.0260 H   0  0  0  0  0  0  0  0  0  0  0  0
    8.8491    6.2025  -59.6888 H   0  0  0  0  0  0  0  0  0  0  0  0
    7.1193    4.8852  -58.4614 H   0  0  0  0  0  0  0  0  0  0  0  0
    6.8285    3.1013  -60.1842 H   0  0  0  0  0  0  0  0  0  0  0  0
    7.3599    4.6486  -60.9371 H   0  0  0  0  0  0  0  0  0  0  0  0
    8.6258    2.7095  -61.8701 H   0  0  0  0  0  0  0  0  0  0  0  0
    8.4830    1.2426  -59.8529 H   0  0  0  0  0  0  0  0  0  0  0  0
   10.1927    1.4650  -60.3725 H   0  0  0  0  0  0  0  0  0  0  0  0
    9.9671    1.6914  -57.8945 H   0  0  0  0  0  0  0  0  0  0  0  0
    7.6065    2.5083  -57.8724 H   0  0  0  0  0  0  0  0  0  0  0  0
    8.6910    3.6335  -56.9775 H   0  0  0  0  0  0  0  0  0  0  0  0
   11.0685    3.9241  -57.6969 H   0  0  0  0  0  0  0  0  0  0  0  0
   11.6891    3.0154  -59.1253 H   0  0  0  0  0  0  0  0  0  0  0  0
   10.9144    3.6100  -61.4318 H   0  0  0  0  0  0  0  0  0  0  0  0
    9.7216    4.9429  -61.6608 H   0  0  0  0  0  0  0  0  0  0  0  0
  1  2  3  0
  3  2  1  6
  3  4  1  0
  4  5  1  0
  5  6  1  0
  6  7  1  0
  7  8  1  0
  8  9  1  0
  9 10  1  0
  9 11  1  0
  7 12  1  0
 11  3  1  0
 12  3  1  0
 10  5  1  0
  4 13  1  0
  4 14  1  0
  5 15  1  1
  6 16  1  0
  6 17  1  0
  7 18  1  6
  8 19  1  0
  8 20  1  0
  9 21  1  1
 10 22  1  0
 10 23  1  0
 11 24  1  0
 11 25  1  0
 12 26  1  0
 12 27  1  0
M  END
>  <meeko>  (22) 
{"is_sidechain": false}

$$$$

     RDKit          3D

 30 32  0  0  0  0  0  0  0  0999 V2000
   13.5400    4.2150  -59.4710 O   0  0  0  0  0  0  0  0  0  0  0  0
   13.0850    5.2660  -59.0470 C   0  0  0  0  0  0  0  0  0  0  0  0
   11.7640    5.5630  -58.8300 N   0  0  0  0  0  0  0  0  0  0  0  0
   10.6470    4.6470  -59.0780 C   0  0  2  0  0  0  0  0  0  0  0  0
   10.4120    4.4280  -60.5930 C   0  0  0  0  0  0  0  0  0  0  0  0
    9.2040    3.5020  -60.8260 C   0  0  1  0  0  0  0  0  0  0  0  0
    9.4660    2.1480  -60.1430 C   0  0  0  0  0  0  0  0  0  0  0  0
    9.6660    2.3480  -58.6310 C   0  0  2  0  0  0  0  0  0  0  0  0
    8.4060    2.9950  -58.0350 C   0  0  0  0  0  0  0  0  0  0  0  0
    8.1440    4.3520  -58.7070 C   0  0  2  0  0  0  0  0  0  0  0  0
    7.9470    4.1430  -60.2170 C   0  0  0  0  0  0  0  0  0  0  0  0
    9.3570    5.2690  -58.4800 C   0  0  0  0  0  0  0  0  0  0  0  0
   10.8730    3.2730  -58.3980 C   0  0  0  0  0  0  0  0  0  0  0  0
   13.8118    6.0583  -58.8146 H   0  0  0  0  0  0  0  0  0  0  0  0
   11.5550    6.4860  -58.4730 H   0  0  0  0  0  0  0  0  0  0  0  0
   10.2210    5.3990  -61.0732 H   0  0  0  0  0  0  0  0  0  0  0  0
   11.3074    3.9585  -61.0264 H   0  0  0  0  0  0  0  0  0  0  0  0
    9.0550    3.3510  -61.9054 H   0  0  0  0  0  0  0  0  0  0  0  0
    8.6059    1.4832  -60.3113 H   0  0  0  0  0  0  0  0  0  0  0  0
   10.3752    1.6996  -60.5700 H   0  0  0  0  0  0  0  0  0  0  0  0
    9.8461    1.3763  -58.1479 H   0  0  0  0  0  0  0  0  0  0  0  0
    7.5432    2.3334  -58.2016 H   0  0  0  0  0  0  0  0  0  0  0  0
    8.5551    3.1491  -56.9561 H   0  0  0  0  0  0  0  0  0  0  0  0
    7.2419    4.8105  -58.2757 H   0  0  0  0  0  0  0  0  0  0  0  0
    7.0835    3.4823  -60.3839 H   0  0  0  0  0  0  0  0  0  0  0  0
    7.7691    5.1168  -60.6967 H   0  0  0  0  0  0  0  0  0  0  0  0
    9.1690    6.2395  -58.9625 H   0  0  0  0  0  0  0  0  0  0  0  0
    9.5004    5.3971  -57.3969 H   0  0  0  0  0  0  0  0  0  0  0  0
   11.0101    3.4229  -57.3169 H   0  0  0  0  0  0  0  0  0  0  0  0
   11.7678    2.8047  -58.8339 H   0  0  0  0  0  0  0  0  0  0  0  0
  1  2  2  0
  2  3  1  0
  4  3  1  6
  4  5  1  0
  5  6  1  0
  6  7  1  0
  7  8  1  0
  8  9  1  0
  9 10  1  0
 10 11  1  0
 10 12  1  0
  8 13  1  0
 12  4  1  0
 13  4  1  0
 11  6  1  0
  2 14  1  0
  3 15  1  0
  5 16  1  0
  5 17  1  0
  6 18  1  6
  7 19  1  0
  7 20  1  0
  8 21  1  1
  9 22  1  0
  9 23  1  0
 10 24  1  1
 11 25  1  0
 11 26  1  0
 12 27  1  0
 12 28  1  0
 13 29  1  0
 13 30  1  0
M  END
>  <meeko>  (23) 
{"is_sidechain": false}

$$$$

     RDKit          3D

 36 38  0  0  0  0  0  0  0  0999 V2000
   12.9240    6.5180  -59.8480 C   0  0  0  0  0  0  0  0  0  0  0  0
   13.4790    5.3580  -59.4730 C   0  0  0  0  0  0  0  0  0  0  0  0
   13.0100    4.5260  -58.3260 C   0  0  0  0  0  0  0  0  0  0  0  0
   12.0480    3.4980  -58.8110 N   0  0  0  0  0  0  0  0  0  0  0  0
   10.5730    3.7520  -58.6830 C   0  0  2  0  0  0  0  0  0  0  0  0
    9.8380    2.4960  -58.1750 C   0  0  0  0  0  0  0  0  0  0  0  0
    8.3400    2.8100  -57.9940 C   0  0  1  0  0  0  0  0  0  0  0  0
    8.1770    3.9460  -56.9700 C   0  0  0  0  0  0  0  0  0  0  0  0
    8.9050    5.2080  -57.4620 C   0  0  2  0  0  0  0  0  0  0  0  0
    8.3110    5.6450  -58.8120 C   0  0  0  0  0  0  0  0  0  0  0  0
    8.4750    4.5200  -59.8480 C   0  0  2  0  0  0  0  0  0  0  0  0
    7.7500    3.2590  -59.3440 C   0  0  0  0  0  0  0  0  0  0  0  0
    9.9730    4.2050  -60.0290 C   0  0  0  0  0  0  0  0  0  0  0  0
   10.3970    4.8880  -57.6480 C   0  0  0  0  0  0  0  0  0  0  0  0
   13.3319    7.0705  -60.7073 H   0  0  0  0  0  0  0  0  0  0  0  0
   12.0603    6.9181  -59.2966 H   0  0  0  0  0  0  0  0  0  0  0  0
   14.3409    4.9930  -60.0509 H   0  0  0  0  0  0  0  0  0  0  0  0
   13.8725    4.0280  -57.8589 H   0  0  0  0  0  0  0  0  0  0  0  0
   12.5115    5.1716  -57.5879 H   0  0  0  0  0  0  0  0  0  0  0  0
   12.2750    2.6160  -58.3350 H   0  0  0  0  0  0  0  0  0  0  0  0
   12.2700    3.3290  -59.8010 H   0  0  0  0  0  0  0  0  0  0  0  0
    9.9556    1.6825  -58.9060 H   0  0  0  0  0  0  0  0  0  0  0  0
   10.2656    2.1886  -57.2093 H   0  0  0  0  0  0  0  0  0  0  0  0
    7.8150    1.9116  -57.6372 H   0  0  0  0  0  0  0  0  0  0  0  0
    7.1076    4.1695  -56.8414 H   0  0  0  0  0  0  0  0  0  0  0  0
    8.6111    3.6307  -56.0097 H   0  0  0  0  0  0  0  0  0  0  0  0
    8.7845    6.0162  -56.7256 H   0  0  0  0  0  0  0  0  0  0  0  0
    7.2417    5.8692  -58.6840 H   0  0  0  0  0  0  0  0  0  0  0  0
    8.8406    6.5418  -59.1660 H   0  0  0  0  0  0  0  0  0  0  0  0
    8.0459    4.8379  -60.8097 H   0  0  0  0  0  0  0  0  0  0  0  0
    6.6802    3.4812  -59.2171 H   0  0  0  0  0  0  0  0  0  0  0  0
    7.8812    2.4515  -60.0794 H   0  0  0  0  0  0  0  0  0  0  0  0
   10.0910    3.4017  -60.7712 H   0  0  0  0  0  0  0  0  0  0  0  0
   10.4965    5.1078  -60.3768 H   0  0  0  0  0  0  0  0  0  0  0  0
   10.9204    5.7879  -58.0033 H   0  0  0  0  0  0  0  0  0  0  0  0
   10.8184    4.5652  -56.6846 H   0  0  0  0  0  0  0  0  0  0  0  0
  1  2  2  0
  2  3  1  0
  3  4  1  0
  5  4  1  6
  5  6  1  0
  6  7  1  0
  7  8  1  0
  8  9  1  0
  9 10  1  0
 10 11  1  0
 11 12  1  0
 11 13  1  0
  9 14  1  0
 13  5  1  0
 14  5  1  0
 12  7  1  0
  1 15  1  0
  1 16  1  0
  2 17  1  0
  3 18  1  0
  3 19  1  0
  4 20  1  0
  4 21  1  0
  6 22  1  0
  6 23  1  0
  7 24  1  1
  8 25  1  0
  8 26  1  0
  9 27  1  1
 10 28  1  0
 10 29  1  0
 11 30  1  6
 12 31  1  0
 12 32  1  0
 13 33  1  0
 13 34  1  0
 14 35  1  0
 14 36  1  0
M  CHG  1   4   1
M  END
>  <meeko>  (24) 
{"is_sidechain": false}

$$$$

     RDKit          3D

 32 34  0  0  0  0  0  0  0  0999 V2000
   12.9080    7.2210  -60.2240 C   0  0  0  0  0  0  0  0  0  0  0  0
   12.7040    6.0030  -59.7190 C   0  0  0  0  0  0  0  0  0  0  0  0
   11.6960    5.6490  -58.8610 N   0  0  0  0  0  0  0  0  0  0  0  0
   10.6050    4.7110  -59.1170 C   0  0  2  0  0  0  0  0  0  0  0  0
    9.2900    5.1850  -58.4550 C   0  0  0  0  0  0  0  0  0  0  0  0
    8.1670    4.1630  -58.7100 C   0  0  1  0  0  0  0  0  0  0  0  0
    7.9600    4.0060  -60.2270 C   0  0  0  0  0  0  0  0  0  0  0  0
    9.2580    3.5100  -60.8900 C   0  0  2  0  0  0  0  0  0  0  0  0
    9.6540    2.1580  -60.2760 C   0  0  0  0  0  0  0  0  0  0  0  0
    9.8700    2.3080  -58.7630 C   0  0  2  0  0  0  0  0  0  0  0  0
    8.5700    2.8060  -58.1110 C   0  0  0  0  0  0  0  0  0  0  0  0
   10.9840    3.3370  -58.5120 C   0  0  0  0  0  0  0  0  0  0  0  0
   10.3800    4.5320  -60.6350 C   0  0  0  0  0  0  0  0  0  0  0  0
   13.7513    7.3988  -60.9076 H   0  0  0  0  0  0  0  0  0  0  0  0
   12.2329    8.0474  -59.9568 H   0  0  0  0  0  0  0  0  0  0  0  0
   13.4079    5.2124  -60.0182 H   0  0  0  0  0  0  0  0  0  0  0  0
   11.9120    5.8100  -57.8800 H   0  0  0  0  0  0  0  0  0  0  0  0
    9.4463    5.2901  -57.3712 H   0  0  0  0  0  0  0  0  0  0  0  0
    8.9990    6.1532  -58.8885 H   0  0  0  0  0  0  0  0  0  0  0  0
    7.2348    4.5122  -58.2419 H   0  0  0  0  0  0  0  0  0  0  0  0
    7.1563    3.2778  -60.4110 H   0  0  0  0  0  0  0  0  0  0  0  0
    7.6869    4.9815  -60.6558 H   0  0  0  0  0  0  0  0  0  0  0  0
    9.1018    3.3942  -61.9727 H   0  0  0  0  0  0  0  0  0  0  0  0
    8.8525    1.4270  -60.4583 H   0  0  0  0  0  0  0  0  0  0  0  0
   10.5892    1.8120  -60.7404 H   0  0  0  0  0  0  0  0  0  0  0  0
   10.1537    1.3367  -58.3316 H   0  0  0  0  0  0  0  0  0  0  0  0
    7.7682    2.0752  -58.2928 H   0  0  0  0  0  0  0  0  0  0  0  0
    8.7307    2.9226  -57.0291 H   0  0  0  0  0  0  0  0  0  0  0  0
   11.1350    3.4488  -57.4282 H   0  0  0  0  0  0  0  0  0  0  0  0
   11.9084    2.9820  -58.9911 H   0  0  0  0  0  0  0  0  0  0  0  0
   11.3102    4.1738  -61.1003 H   0  0  0  0  0  0  0  0  0  0  0  0
   10.0898    5.4993  -61.0710 H   0  0  0  0  0  0  0  0  0  0  0  0
  1  2  2  0
  2  3  1  0
  4  3  1  6
  4  5  1  0
  5  6  1  0
  6  7  1  0
  7  8  1  0
  8  9  1  0
  9 10  1  0
 10 11  1  0
 10 12  1  0
  8 13  1  0
 12  4  1  0
 13  4  1  0
 11  6  1  0
  1 14  1  0
  1 15  1  0
  2 16  1  0
  3 17  1  0
  5 18  1  0
  5 19  1  0
  6 20  1  1
  7 21  1  0
  7 22  1  0
  8 23  1  6
  9 24  1  0
  9 25  1  0
 10 26  1  1
 11 27  1  0
 11 28  1  0
 12 29  1  0
 12 30  1  0
 13 31  1  0
 13 32  1  0
M  END
>  <meeko>  (25) 
{"is_sidechain": false}

$$$$

     RDKit          3D

 32 34  0  0  0  0  0  0  0  0999 V2000
   13.2270    7.3730  -60.2240 C   0  0  0  0  0  0  0  0  0  0  0  0
   12.0940    6.3950  -60.1650 C   0  0  0  0  0  0  0  0  0  0  0  0
   11.9120    5.6760  -59.1180 N   0  0  0  0  0  0  0  0  0  0  0  0
   10.7890    4.7280  -59.1010 C   0  0  2  0  0  0  0  0  0  0  0  0
   11.2000    3.3630  -58.5080 C   0  0  0  0  0  0  0  0  0  0  0  0
   10.0180    2.3780  -58.5800 C   0  0  1  0  0  0  0  0  0  0  0  0
    8.8270    2.9580  -57.7980 C   0  0  0  0  0  0  0  0  0  0  0  0
    8.3950    4.3050  -58.4050 C   0  0  2  0  0  0  0  0  0  0  0  0
    8.0000    4.0940  -59.8760 C   0  0  0  0  0  0  0  0  0  0  0  0
    9.1910    3.5260  -60.6640 C   0  0  2  0  0  0  0  0  0  0  0  0
    9.6110    2.1800  -60.0500 C   0  0  0  0  0  0  0  0  0  0  0  0
   10.3690    4.5100  -60.5760 C   0  0  0  0  0  0  0  0  0  0  0  0
    9.5730    5.2940  -58.3330 C   0  0  0  0  0  0  0  0  0  0  0  0
   13.5353    7.6391  -59.2022 H   0  0  0  0  0  0  0  0  0  0  0  0
   14.0758    6.9192  -60.7566 H   0  0  0  0  0  0  0  0  0  0  0  0
   12.9020    8.2789  -60.7566 H   0  0  0  0  0  0  0  0  0  0  0  0
   11.4144    6.2926  -61.0239 H   0  0  0  0  0  0  0  0  0  0  0  0
   12.0471    2.9575  -59.0808 H   0  0  0  0  0  0  0  0  0  0  0  0
   11.4913    3.5001  -57.4562 H   0  0  0  0  0  0  0  0  0  0  0  0
   10.3133    1.4122  -58.1442 H   0  0  0  0  0  0  0  0  0  0  0  0
    7.9844    2.2523  -57.8439 H   0  0  0  0  0  0  0  0  0  0  0  0
    9.1287    3.1169  -56.7522 H   0  0  0  0  0  0  0  0  0  0  0  0
    7.5379    4.7070  -57.8448 H   0  0  0  0  0  0  0  0  0  0  0  0
    7.1580    3.3882  -59.9294 H   0  0  0  0  0  0  0  0  0  0  0  0
    7.7057    5.0597  -60.3128 H   0  0  0  0  0  0  0  0  0  0  0  0
    8.9041    3.3802  -61.7159 H   0  0  0  0  0  0  0  0  0  0  0  0
    8.7674    1.4761  -60.1030 H   0  0  0  0  0  0  0  0  0  0  0  0
   10.4673    1.7780  -60.6113 H   0  0  0  0  0  0  0  0  0  0  0  0
   11.2224    4.1033  -61.1384 H   0  0  0  0  0  0  0  0  0  0  0  0
   10.0572    5.4750  -61.0020 H   0  0  0  0  0  0  0  0  0  0  0  0
    9.2721    6.2517  -58.7829 H   0  0  0  0  0  0  0  0  0  0  0  0
    9.8514    5.4465  -57.2798 H   0  0  0  0  0  0  0  0  0  0  0  0
  1  2  1  0
  2  3  2  0
  4  3  1  6
  4  5  1  0
  5  6  1  0
  6  7  1  0
  7  8  1  0
  8  9  1  0
  9 10  1  0
 10 11  1  0
 10 12  1  0
  8 13  1  0
 12  4  1  0
 13  4  1  0
 11  6  1  0
  1 14  1  0
  1 15  1  0
  1 16  1  0
  2 17  1  0
  5 18  1  0
  5 19  1  0
  6 20  1  1
  7 21  1  0
  7 22  1  0
  8 23  1  1
  9 24  1  0
  9 25  1  0
 10 26  1  6
 11 27  1  0
 11 28  1  0
 12 29  1  0
 12 30  1  0
 13 31  1  0
 13 32  1  0
M  END
>  <meeko>  (26) 
{"is_sidechain": false}

$$$$

     RDKit          3D

 32 34  0  0  0  0  0  0  0  0999 V2000
   12.8750    6.3910  -59.8490 C   0  0  0  0  0  0  0  0  0  0  0  0
   13.1880    5.0240  -59.3310 C   0  0  0  0  0  0  0  0  0  0  0  0
   12.4010    4.0940  -58.9360 N   0  0  0  0  0  0  0  0  0  0  0  0
   10.9430    4.1080  -58.8800 C   0  0  2  0  0  0  0  0  0  0  0  0
   10.3000    4.1370  -60.2810 C   0  0  0  0  0  0  0  0  0  0  0  0
    8.7670    4.0510  -60.1630 C   0  0  1  0  0  0  0  0  0  0  0  0
    8.3850    2.7210  -59.4950 C   0  0  0  0  0  0  0  0  0  0  0  0
    9.0090    2.6430  -58.0930 C   0  0  2  0  0  0  0  0  0  0  0  0
    8.4810    3.8050  -57.2390 C   0  0  0  0  0  0  0  0  0  0  0  0
    8.8640    5.1460  -57.8860 C   0  0  2  0  0  0  0  0  0  0  0  0
    8.2570    5.2190  -59.2990 C   0  0  0  0  0  0  0  0  0  0  0  0
   10.3980    5.2400  -57.9850 C   0  0  0  0  0  0  0  0  0  0  0  0
   10.5380    2.7600  -58.2150 C   0  0  0  0  0  0  0  0  0  0  0  0
   12.7180    7.0766  -59.0032 H   0  0  0  0  0  0  0  0  0  0  0  0
   13.7138    6.7516  -60.4625 H   0  0  0  0  0  0  0  0  0  0  0  0
   11.9628    6.3507  -60.4625 H   0  0  0  0  0  0  0  0  0  0  0  0
   14.2593    4.7792  -59.2815 H   0  0  0  0  0  0  0  0  0  0  0  0
   10.5737    5.0744  -60.7873 H   0  0  0  0  0  0  0  0  0  0  0  0
   10.6647    3.2769  -60.8618 H   0  0  0  0  0  0  0  0  0  0  0  0
    8.3144    4.1067  -61.1640 H   0  0  0  0  0  0  0  0  0  0  0  0
    7.2901    2.6559  -59.4113 H   0  0  0  0  0  0  0  0  0  0  0  0
    8.7609    1.8872  -60.1061 H   0  0  0  0  0  0  0  0  0  0  0  0
    8.7445    1.6854  -57.6208 H   0  0  0  0  0  0  0  0  0  0  0  0
    7.3857    3.7352  -57.1653 H   0  0  0  0  0  0  0  0  0  0  0  0
    8.9256    3.7474  -56.2345 H   0  0  0  0  0  0  0  0  0  0  0  0
    8.4804    5.9768  -57.2756 H   0  0  0  0  0  0  0  0  0  0  0  0
    7.1608    5.1641  -59.2259 H   0  0  0  0  0  0  0  0  0  0  0  0
    8.5574    6.1676  -59.7679 H   0  0  0  0  0  0  0  0  0  0  0  0
   10.6755    6.2120  -58.4188 H   0  0  0  0  0  0  0  0  0  0  0  0
   10.8299    5.1418  -56.9781 H   0  0  0  0  0  0  0  0  0  0  0  0
   10.9842    2.7058  -57.2110 H   0  0  0  0  0  0  0  0  0  0  0  0
   10.9035    1.9351  -58.8442 H   0  0  0  0  0  0  0  0  0  0  0  0
  1  2  1  0
  2  3  2  0
  4  3  1  6
  4  5  1  0
  5  6  1  0
  6  7  1  0
  7  8  1  0
  8  9  1  0
  9 10  1  0
 10 11  1  0
 10 12  1  0
  8 13  1  0
 12  4  1  0
 13  4  1  0
 11  6  1  0
  1 14  1  0
  1 15  1  0
  1 16  1  0
  2 17  1  0
  5 18  1  0
  5 19  1  0
  6 20  1  6
  7 21  1  0
  7 22  1  0
  8 23  1  1
  9 24  1  0
  9 25  1  0
 10 26  1  1
 11 27  1  0
 11 28  1  0
 12 29  1  0
 12 30  1  0
 13 31  1  0
 13 32  1  0
M  END
>  <meeko>  (27) 
{"is_sidechain": false}

$$$$

     RDKit          3D

 34 36  0  0  0  0  0  0  0  0999 V2000
   12.7260    7.3960  -61.0430 O   0  0  0  0  0  0  0  0  0  0  0  0
   13.0950    7.0170  -59.9340 C   0  0  0  0  0  0  0  0  0  0  0  0
   12.8060    5.6070  -59.4690 C   0  0  0  0  0  0  0  0  0  0  0  0
   11.5010    5.5870  -58.7050 N   0  0  0  0  0  0  0  0  0  0  0  0
   10.4260    4.6190  -59.0850 C   0  0  2  0  0  0  0  0  0  0  0  0
    9.0590    5.0810  -58.5440 C   0  0  0  0  0  0  0  0  0  0  0  0
    7.9820    4.0380  -58.9010 C   0  0  1  0  0  0  0  0  0  0  0  0
    7.9190    3.8790  -60.4320 C   0  0  0  0  0  0  0  0  0  0  0  0
    9.2810    3.4090  -60.9740 C   0  0  2  0  0  0  0  0  0  0  0  0
    9.6420    2.0610  -60.3280 C   0  0  0  0  0  0  0  0  0  0  0  0
    9.7160    2.2100  -58.7990 C   0  0  2  0  0  0  0  0  0  0  0  0
    8.3520    2.6850  -58.2690 C   0  0  0  0  0  0  0  0  0  0  0  0
   10.7860    3.2570  -58.4460 C   0  0  0  0  0  0  0  0  0  0  0  0
   10.3570    4.4520  -60.6150 C   0  0  0  0  0  0  0  0  0  0  0  0
   13.6397    7.7084  -59.2743 H   0  0  0  0  0  0  0  0  0  0  0  0
   12.7307    4.9412  -60.3414 H   0  0  0  0  0  0  0  0  0  0  0  0
   13.6200    5.2621  -58.8145 H   0  0  0  0  0  0  0  0  0  0  0  0
   11.7440    5.4730  -57.7070 H   0  0  0  0  0  0  0  0  0  0  0  0
   11.1320    6.5520  -58.7260 H   0  0  0  0  0  0  0  0  0  0  0  0
    9.1156    5.1892  -57.4508 H   0  0  0  0  0  0  0  0  0  0  0  0
    8.7950    6.0481  -58.9968 H   0  0  0  0  0  0  0  0  0  0  0  0
    7.0055    4.3705  -58.5191 H   0  0  0  0  0  0  0  0  0  0  0  0
    7.1497    3.1359  -60.6888 H   0  0  0  0  0  0  0  0  0  0  0  0
    7.6686    4.8502  -60.8838 H   0  0  0  0  0  0  0  0  0  0  0  0
    9.2285    3.2942  -62.0667 H   0  0  0  0  0  0  0  0  0  0  0  0
    8.8730    1.3174  -60.5842 H   0  0  0  0  0  0  0  0  0  0  0  0
   10.6215    1.7321  -60.7053 H   0  0  0  0  0  0  0  0  0  0  0  0
    9.9750    1.2427  -58.3437 H   0  0  0  0  0  0  0  0  0  0  0  0
    7.5830    1.9413  -58.5250 H   0  0  0  0  0  0  0  0  0  0  0  0
    8.4106    2.8015  -57.1768 H   0  0  0  0  0  0  0  0  0  0  0  0
   10.8382    3.3700  -57.3531 H   0  0  0  0  0  0  0  0  0  0  0  0
   11.7595    2.9227  -58.8339 H   0  0  0  0  0  0  0  0  0  0  0  0
   11.3340    4.1140  -60.9906 H   0  0  0  0  0  0  0  0  0  0  0  0
   10.0984    5.4166  -61.0761 H   0  0  0  0  0  0  0  0  0  0  0  0
  1  2  2  0
  2  3  1  0
  3  4  1  0
  5  4  1  6
  5  6  1  0
  6  7  1  0
  7  8  1  0
  8  9  1  0
  9 10  1  0
 10 11  1  0
 11 12  1  0
 11 13  1  0
  9 14  1  0
 13  5  1  0
 14  5  1  0
 12  7  1  0
  2 15  1  0
  3 16  1  0
  3 17  1  0
  4 18  1  0
  4 19  1  0
  6 20  1  0
  6 21  1  0
  7 22  1  1
  8 23  1  0
  8 24  1  0
  9 25  1  6
 10 26  1  0
 10 27  1  0
 11 28  1  1
 12 29  1  0
 12 30  1  0
 13 31  1  0
 13 32  1  0
 14 33  1  0
 14 34  1  0
M  CHG  1   4   1
M  END
>  <meeko>  (28) 
{"is_sidechain": false}

$$$$

     RDKit          3D

 34 36  0  0  0  0  0  0  0  0999 V2000
   13.0070    7.4330  -60.5810 C   0  0  0  0  0  0  0  0  0  0  0  0
   13.3110    6.5980  -59.4620 O   0  0  0  0  0  0  0  0  0  0  0  0
   12.6720    5.4020  -59.4820 C   0  0  0  0  0  0  0  0  0  0  0  0
   13.2210    4.3130  -59.4690 O   0  0  0  0  0  0  0  0  0  0  0  0
   11.3320    5.6300  -59.5170 N   0  0  0  0  0  0  0  0  0  0  0  0
   10.2870    4.6090  -59.5470 C   0  0  2  0  0  0  0  0  0  0  0  0
    8.9480    5.2570  -59.1040 C   0  0  0  0  0  0  0  0  0  0  0  0
    7.8080    4.2270  -59.1150 C   0  0  1  0  0  0  0  0  0  0  0  0
    7.6490    3.6660  -60.5370 C   0  0  0  0  0  0  0  0  0  0  0  0
    8.9560    2.9960  -60.9860 C   0  0  2  0  0  0  0  0  0  0  0  0
    9.3010    1.8560  -60.0130 C   0  0  0  0  0  0  0  0  0  0  0  0
    9.4650    2.4070  -58.5880 C   0  0  2  0  0  0  0  0  0  0  0  0
    8.1540    3.0810  -58.1520 C   0  0  0  0  0  0  0  0  0  0  0  0
   10.6000    3.4460  -58.5730 C   0  0  0  0  0  0  0  0  0  0  0  0
   10.0910    4.0350  -60.9720 C   0  0  0  0  0  0  0  0  0  0  0  0
   12.6512    8.4104  -60.2232 H   0  0  0  0  0  0  0  0  0  0  0  0
   13.9119    7.5729  -61.1906 H   0  0  0  0  0  0  0  0  0  0  0  0
   12.2240    6.9584  -61.1906 H   0  0  0  0  0  0  0  0  0  0  0  0
   11.0760    6.6090  -59.5220 H   0  0  0  0  0  0  0  0  0  0  0  0
    9.0615    5.6571  -58.0857 H   0  0  0  0  0  0  0  0  0  0  0  0
    8.6986    6.0635  -59.8092 H   0  0  0  0  0  0  0  0  0  0  0  0
    6.8695    4.7057  -58.7985 H   0  0  0  0  0  0  0  0  0  0  0  0
    6.8370    2.9240  -60.5473 H   0  0  0  0  0  0  0  0  0  0  0  0
    7.4101    4.4897  -61.2258 H   0  0  0  0  0  0  0  0  0  0  0  0
    8.8353    2.5932  -62.0024 H   0  0  0  0  0  0  0  0  0  0  0  0
    8.4914    1.1114  -60.0239 H   0  0  0  0  0  0  0  0  0  0  0  0
   10.2453    1.3881  -60.3282 H   0  0  0  0  0  0  0  0  0  0  0  0
    9.7066    1.5852  -57.8979 H   0  0  0  0  0  0  0  0  0  0  0  0
    7.3420    2.3390  -58.1617 H   0  0  0  0  0  0  0  0  0  0  0  0
    8.2761    3.4864  -57.1367 H   0  0  0  0  0  0  0  0  0  0  0  0
   10.7097    3.8469  -57.5546 H   0  0  0  0  0  0  0  0  0  0  0  0
   11.5325    2.9574  -58.8920 H   0  0  0  0  0  0  0  0  0  0  0  0
   11.0248    3.5548  -61.2999 H   0  0  0  0  0  0  0  0  0  0  0  0
    9.8269    4.8579  -61.6526 H   0  0  0  0  0  0  0  0  0  0  0  0
  1  2  1  0
  2  3  1  0
  3  4  2  0
  3  5  1  0
  6  5  1  6
  6  7  1  0
  7  8  1  0
  8  9  1  0
  9 10  1  0
 10 11  1  0
 11 12  1  0
 12 13  1  0
 12 14  1  0
 10 15  1  0
 14  6  1  0
 15  6  1  0
 13  8  1  0
  1 16  1  0
  1 17  1  0
  1 18  1  0
  5 19  1  0
  7 20  1  0
  7 21  1  0
  8 22  1  1
  9 23  1  0
  9 24  1  0
 10 25  1  6
 11 26  1  0
 11 27  1  0
 12 28  1  1
 13 29  1  0
 13 30  1  0
 14 31  1  0
 14 32  1  0
 15 33  1  0
 15 34  1  0
M  END
>  <meeko>  (29) 
{"is_sidechain": false}

$$$$

     RDKit          3D

 31 33  0  0  0  0  0  0  0  0999 V2000
    8.2100   -3.2890  -52.9900 C   0  0  0  0  0  0  0  0  0  0  0  0
    9.3780   -2.6450  -52.8730 C   0  0  0  0  0  0  0  0  0  0  0  0
   10.4500   -2.8390  -53.8850 C   0  0  0  0  0  0  0  0  0  0  0  0
   11.5140   -2.2370  -53.8360 O   0  0  0  0  0  0  0  0  0  0  0  0
   10.1060   -3.7580  -54.8470 N   0  0  0  0  0  0  0  0  0  0  0  0
   11.0100   -4.1800  -55.9000 C   0  0  2  0  0  0  0  0  0  0  0  0
   11.4870   -3.0020  -56.8160 C   0  0  0  0  0  0  0  0  0  0  0  0
   12.4940   -3.4870  -57.8990 C   0  0  2  0  0  0  0  0  0  0  0  0
   11.8860   -4.6520  -58.6820 C   0  0  0  0  0  0  0  0  0  0  0  0
   11.7350   -5.7030  -57.5710 C   0  0  2  0  0  0  0  0  0  0  0  0
   10.4790   -5.3340  -56.7670 C   0  0  0  0  0  0  0  0  0  0  0  0
   12.9250   -5.4070  -56.5930 C   0  0  1  0  0  0  0  0  0  0  0  0
   13.6590   -4.2200  -57.2320 C   0  0  0  0  0  0  0  0  0  0  0  0
   12.2480   -4.8890  -55.3190 C   0  0  0  0  0  0  0  0  0  0  0  0
    7.4220   -3.1401  -52.2371 H   0  0  0  0  0  0  0  0  0  0  0  0
    8.0384   -3.9670  -53.8390 H   0  0  0  0  0  0  0  0  0  0  0  0
    9.5457   -1.9678  -52.0225 H   0  0  0  0  0  0  0  0  0  0  0  0
    9.2390   -4.2650  -54.7460 H   0  0  0  0  0  0  0  0  0  0  0  0
   10.6114   -2.5613  -57.3151 H   0  0  0  0  0  0  0  0  0  0  0  0
   11.9950   -2.2593  -56.1832 H   0  0  0  0  0  0  0  0  0  0  0  0
   12.7640   -2.6000  -58.4909 H   0  0  0  0  0  0  0  0  0  0  0  0
   10.9128   -4.3819  -59.1179 H   0  0  0  0  0  0  0  0  0  0  0  0
   12.4865   -4.9835  -59.5420 H   0  0  0  0  0  0  0  0  0  0  0  0
   11.6986   -6.7304  -57.9624 H   0  0  0  0  0  0  0  0  0  0  0  0
    9.6622   -5.0018  -57.4246 H   0  0  0  0  0  0  0  0  0  0  0  0
   10.0473   -6.1682  -56.1945 H   0  0  0  0  0  0  0  0  0  0  0  0
   13.5925   -6.2598  -56.4001 H   0  0  0  0  0  0  0  0  0  0  0  0
   14.1509   -3.5928  -56.4740 H   0  0  0  0  0  0  0  0  0  0  0  0
   14.4712   -4.5029  -57.9178 H   0  0  0  0  0  0  0  0  0  0  0  0
   11.9622   -5.7148  -54.6509 H   0  0  0  0  0  0  0  0  0  0  0  0
   12.8879   -4.2423  -54.7006 H   0  0  0  0  0  0  0  0  0  0  0  0
  1  2  2  0
  2  3  1  0
  3  4  2  0
  3  5  1  0
  6  5  1  1
  6  7  1  0
  7  8  1  0
  8  9  1  0
  9 10  1  0
 10 11  1  0
 10 12  1  0
 12 13  1  0
 12 14  1  0
 11  6  1  0
 14  6  1  0
 13  8  1  0
  1 15  1  0
  1 16  1  0
  2 17  1  0
  5 18  1  0
  7 19  1  0
  7 20  1  0
  8 21  1  6
  9 22  1  0
  9 23  1  0
 10 24  1  6
 11 25  1  0
 11 26  1  0
 12 27  1  1
 13 28  1  0
 13 29  1  0
 14 30  1  0
 14 31  1  0
M  END
>  <meeko>  (30) 
{"is_sidechain": false}

$$$$

     RDKit          3D

 37 39  0  0  0  0  0  0  0  0999 V2000
    3.7300    0.8750  -63.1740 C   0  0  0  0  0  0  0  0  0  0  0  0
    4.0960    1.7390  -61.9820 C   0  0  0  0  0  0  0  0  0  0  0  0
    5.4320    2.2410  -62.1260 O   0  0  0  0  0  0  0  0  0  0  0  0
    6.0940    2.4930  -60.9690 C   0  0  0  0  0  0  0  0  0  0  0  0
    5.6570    2.2870  -59.8490 O   0  0  0  0  0  0  0  0  0  0  0  0
    7.3130    3.0120  -61.2760 N   0  0  0  0  0  0  0  0  0  0  0  0
    8.3290    3.4390  -60.3170 C   0  0  2  0  0  0  0  0  0  0  0  0
    9.6440    3.7340  -61.0890 C   0  0  0  0  0  0  0  0  0  0  0  0
   10.7550    4.1890  -60.1300 C   0  0  1  0  0  0  0  0  0  0  0  0
   10.3020    5.4660  -59.4050 C   0  0  0  0  0  0  0  0  0  0  0  0
    9.0140    5.1900  -58.6120 C   0  0  2  0  0  0  0  0  0  0  0  0
    9.2800    4.0760  -57.5860 C   0  0  0  0  0  0  0  0  0  0  0  0
    9.7330    2.7920  -58.3020 C   0  0  2  0  0  0  0  0  0  0  0  0
   11.0160    3.0830  -59.0980 C   0  0  0  0  0  0  0  0  0  0  0  0
    8.6270    2.3360  -59.2710 C   0  0  0  0  0  0  0  0  0  0  0  0
    7.9090    4.7350  -59.5790 C   0  0  0  0  0  0  0  0  0  0  0  0
    3.3237   -0.0842  -62.8206 H   0  0  0  0  0  0  0  0  0  0  0  0
    2.9735    1.3917  -63.7829 H   0  0  0  0  0  0  0  0  0  0  0  0
    4.6275    0.6910  -63.7829 H   0  0  0  0  0  0  0  0  0  0  0  0
    3.3952    2.5844  -61.9171 H   0  0  0  0  0  0  0  0  0  0  0  0
    4.0374    1.1316  -61.0668 H   0  0  0  0  0  0  0  0  0  0  0  0
    7.4810    3.1210  -62.2660 H   0  0  0  0  0  0  0  0  0  0  0  0
    9.9689    2.8204  -61.6084 H   0  0  0  0  0  0  0  0  0  0  0  0
    9.4527    4.5408  -61.8118 H   0  0  0  0  0  0  0  0  0  0  0  0
   11.6768    4.3908  -60.6953 H   0  0  0  0  0  0  0  0  0  0  0  0
   11.0928    5.7927  -58.7137 H   0  0  0  0  0  0  0  0  0  0  0  0
   10.1077    6.2539  -60.1476 H   0  0  0  0  0  0  0  0  0  0  0  0
    8.6962    6.1057  -58.0920 H   0  0  0  0  0  0  0  0  0  0  0  0
   10.0682    4.4022  -56.8915 H   0  0  0  0  0  0  0  0  0  0  0  0
    8.3527    3.8698  -57.0313 H   0  0  0  0  0  0  0  0  0  0  0  0
    9.9268    2.0018  -57.5618 H   0  0  0  0  0  0  0  0  0  0  0  0
   11.8072    3.4092  -58.4069 H   0  0  0  0  0  0  0  0  0  0  0  0
   11.3311    2.1683  -59.6214 H   0  0  0  0  0  0  0  0  0  0  0  0
    8.9555    1.4241  -59.7910 H   0  0  0  0  0  0  0  0  0  0  0  0
    7.7112    2.1370  -58.6951 H   0  0  0  0  0  0  0  0  0  0  0  0
    6.9870    4.5444  -59.0102 H   0  0  0  0  0  0  0  0  0  0  0  0
    7.7406    5.5277  -60.3228 H   0  0  0  0  0  0  0  0  0  0  0  0
  1  2  1  0
  2  3  1  0
  3  4  1  0
  4  5  2  0
  4  6  1  0
  7  6  1  6
  7  8  1  0
  8  9  1  0
  9 10  1  0
 10 11  1  0
 11 12  1  0
 12 13  1  0
 13 14  1  0
 13 15  1  0
 11 16  1  0
 15  7  1  0
 16  7  1  0
 14  9  1  0
  1 17  1  0
  1 18  1  0
  1 19  1  0
  2 20  1  0
  2 21  1  0
  6 22  1  0
  8 23  1  0
  8 24  1  0
  9 25  1  6
 10 26  1  0
 10 27  1  0
 11 28  1  1
 12 29  1  0
 12 30  1  0
 13 31  1  1
 14 32  1  0
 14 33  1  0
 15 34  1  0
 15 35  1  0
 16 36  1  0
 16 37  1  0
M  END
>  <meeko>  (31) 
{"is_sidechain": false}

$$$$

     RDKit          3D

 34 36  0  0  0  0  0  0  0  0999 V2000
   12.7030    7.2360  -60.6060 C   0  0  0  0  0  0  0  0  0  0  0  0
   13.4080    6.3680  -59.8690 C   0  0  0  0  0  0  0  0  0  0  0  0
   12.7150    5.3840  -58.9980 C   0  0  0  0  0  0  0  0  0  0  0  0
   13.3130    4.5120  -58.3810 O   0  0  0  0  0  0  0  0  0  0  0  0
   11.3520    5.5590  -58.9770 N   0  0  0  0  0  0  0  0  0  0  0  0
   10.4780    4.6280  -58.2770 C   0  0  2  0  0  0  0  0  0  0  0  0
   10.0430    3.4450  -59.1770 C   0  0  1  0  0  0  0  0  0  0  0  0
    9.2680    2.4340  -58.3080 C   0  0  0  0  0  0  0  0  0  0  0  0
    8.0220    3.1030  -57.6990 C   0  0  2  0  0  0  0  0  0  0  0  0
    7.1120    3.5940  -58.8380 C   0  0  0  0  0  0  0  0  0  0  0  0
    7.8650    4.6120  -59.7120 C   0  0  2  0  0  0  0  0  0  0  0  0
    9.1160    3.9410  -60.3040 C   0  0  0  0  0  0  0  0  0  0  0  0
    8.2920    5.8030  -58.8390 C   0  0  0  0  0  0  0  0  0  0  0  0
    9.2220    5.3270  -57.7050 C   0  0  1  0  0  0  0  0  0  0  0  0
    8.4520    4.3070  -56.8410 C   0  0  0  0  0  0  0  0  0  0  0  0
   13.2232    7.9616  -61.2485 H   0  0  0  0  0  0  0  0  0  0  0  0
   11.6037    7.2233  -60.5688 H   0  0  0  0  0  0  0  0  0  0  0  0
   14.5072    6.3837  -59.9088 H   0  0  0  0  0  0  0  0  0  0  0  0
   10.9370    6.2250  -59.6130 H   0  0  0  0  0  0  0  0  0  0  0  0
   11.0732    4.2325  -57.4408 H   0  0  0  0  0  0  0  0  0  0  0  0
   10.9337    2.9797  -59.6243 H   0  0  0  0  0  0  0  0  0  0  0  0
    8.9557    1.5831  -58.9313 H   0  0  0  0  0  0  0  0  0  0  0  0
    9.9213    2.0838  -57.4952 H   0  0  0  0  0  0  0  0  0  0  0  0
    7.4824    2.3791  -57.0707 H   0  0  0  0  0  0  0  0  0  0  0  0
    6.8084    2.7368  -59.4569 H   0  0  0  0  0  0  0  0  0  0  0  0
    6.2226    4.0766  -58.4068 H   0  0  0  0  0  0  0  0  0  0  0  0
    7.2130    4.9621  -60.5258 H   0  0  0  0  0  0  0  0  0  0  0  0
    8.8096    3.0857  -60.9242 H   0  0  0  0  0  0  0  0  0  0  0  0
    9.6595    4.6758  -60.9161 H   0  0  0  0  0  0  0  0  0  0  0  0
    8.8246    6.5370  -59.4615 H   0  0  0  0  0  0  0  0  0  0  0  0
    7.3958    6.2637  -58.3980 H   0  0  0  0  0  0  0  0  0  0  0  0
    9.5370    6.1994  -57.1137 H   0  0  0  0  0  0  0  0  0  0  0  0
    9.1015    3.9583  -56.0246 H   0  0  0  0  0  0  0  0  0  0  0  0
    7.5557    4.7912  -56.4261 H   0  0  0  0  0  0  0  0  0  0  0  0
  1  2  2  0
  2  3  1  0
  3  4  2  0
  3  5  1  0
  5  6  1  0
  6  7  1  0
  7  8  1  0
  8  9  1  0
  9 10  1  0
 10 11  1  0
 11 12  1  0
 11 13  1  0
 13 14  1  0
 14 15  1  0
 14  6  1  0
 12  7  1  0
 15  9  1  0
  1 16  1  0
  1 17  1  0
  2 18  1  0
  5 19  1  0
  6 20  1  6
  7 21  1  1
  8 22  1  0
  8 23  1  0
  9 24  1  6
 10 25  1  0
 10 26  1  0
 11 27  1  1
 12 28  1  0
 12 29  1  0
 13 30  1  0
 13 31  1  0
 14 32  1  6
 15 33  1  0
 15 34  1  0
M  END
>  <meeko>  (32) 
{"is_sidechain": false}

$$$$

     RDKit          3D

 36 38  0  0  0  0  0  0  0  0999 V2000
   13.7390    4.4400  -59.5030 C   0  0  0  0  0  0  0  0  0  0  0  0
   12.9720    5.4890  -59.1700 C   0  0  0  0  0  0  0  0  0  0  0  0
   11.7990    5.2920  -58.4740 N   0  0  0  0  0  0  0  0  0  0  0  0
   10.6280    4.4970  -58.8410 C   0  0  2  0  0  0  0  0  0  0  0  0
   10.7220    3.0540  -58.2950 C   0  0  0  0  0  0  0  0  0  0  0  0
    9.4500    2.2630  -58.6500 C   0  0  1  0  0  0  0  0  0  0  0  0
    8.2300    2.9490  -58.0130 C   0  0  0  0  0  0  0  0  0  0  0  0
    8.1010    4.3850  -58.5410 C   0  0  2  0  0  0  0  0  0  0  0  0
    7.9290    4.3520  -60.0680 C   0  0  0  0  0  0  0  0  0  0  0  0
    9.1440    3.6760  -60.7200 C   0  0  2  0  0  0  0  0  0  0  0  0
    9.2770    2.2410  -60.1790 C   0  0  0  0  0  0  0  0  0  0  0  0
   10.4160    4.4690  -60.3710 C   0  0  0  0  0  0  0  0  0  0  0  0
    9.3810    5.1660  -58.1970 C   0  0  0  0  0  0  0  0  0  0  0  0
   13.2680    6.7950  -59.4780 O   0  0  0  0  0  0  0  0  0  0  0  0
   12.8330    7.3220  -60.7230 C   0  0  0  0  0  0  0  0  0  0  0  0
   14.6752    4.5976  -60.0585 H   0  0  0  0  0  0  0  0  0  0  0  0
   13.4317    3.4223  -59.2205 H   0  0  0  0  0  0  0  0  0  0  0  0
   11.6390    5.9760  -57.7400 H   0  0  0  0  0  0  0  0  0  0  0  0
   11.5955    2.5544  -58.7392 H   0  0  0  0  0  0  0  0  0  0  0  0
   10.8251    3.0922  -57.2005 H   0  0  0  0  0  0  0  0  0  0  0  0
    9.5365    1.2341  -58.2706 H   0  0  0  0  0  0  0  0  0  0  0  0
    7.3207    2.3844  -58.2667 H   0  0  0  0  0  0  0  0  0  0  0  0
    8.3596    2.9757  -56.9210 H   0  0  0  0  0  0  0  0  0  0  0  0
    7.2293    4.8718  -58.0792 H   0  0  0  0  0  0  0  0  0  0  0  0
    7.0194    3.7870  -60.3198 H   0  0  0  0  0  0  0  0  0  0  0  0
    7.8448    5.3824  -60.4438 H   0  0  0  0  0  0  0  0  0  0  0  0
    9.0115    3.6507  -61.8117 H   0  0  0  0  0  0  0  0  0  0  0  0
    8.3713    1.6712  -60.4340 H   0  0  0  0  0  0  0  0  0  0  0  0
   10.1595    1.7667  -60.6331 H   0  0  0  0  0  0  0  0  0  0  0  0
   11.2840    3.9912  -60.8488 H   0  0  0  0  0  0  0  0  0  0  0  0
   10.3055    5.5009  -60.7357 H   0  0  0  0  0  0  0  0  0  0  0  0
    9.2881    6.1946  -58.5755 H   0  0  0  0  0  0  0  0  0  0  0  0
    9.5083    5.1691  -57.1044 H   0  0  0  0  0  0  0  0  0  0  0  0
   12.1419    8.1592  -60.5454 H   0  0  0  0  0  0  0  0  0  0  0  0
   13.7027    7.6792  -61.2939 H   0  0  0  0  0  0  0  0  0  0  0  0
   12.3174    6.5357  -61.2939 H   0  0  0  0  0  0  0  0  0  0  0  0
  1  2  2  0
  2  3  1  0
  4  3  1  6
  4  5  1  0
  5  6  1  0
  6  7  1  0
  7  8  1  0
  8  9  1  0
  9 10  1  0
 10 11  1  0
 10 12  1  0
  8 13  1  0
  2 14  1  0
 14 15  1  0
 12  4  1  0
 13  4  1  0
 11  6  1  0
  1 16  1  0
  1 17  1  0
  3 18  1  0
  5 19  1  0
  5 20  1  0
  6 21  1  1
  7 22  1  0
  7 23  1  0
  8 24  1  1
  9 25  1  0
  9 26  1  0
 10 27  1  6
 11 28  1  0
 11 29  1  0
 12 30  1  0
 12 31  1  0
 13 32  1  0
 13 33  1  0
 15 34  1  0
 15 35  1  0
 15 36  1  0
M  END
>  <meeko>  (33) 
{"is_sidechain": false}

$$$$

     RDKit          3D

 36 38  0  0  0  0  0  0  0  0999 V2000
   13.0040    7.6880  -60.3390 C   0  0  0  0  0  0  0  0  0  0  0  0
   13.3650    6.6110  -59.4650 O   0  0  0  0  0  0  0  0  0  0  0  0
   12.5380    5.5260  -59.4660 C   0  0  0  0  0  0  0  0  0  0  0  0
   13.3610    4.2760  -59.4280 C   0  0  0  0  0  0  0  0  0  0  0  0
   11.2700    5.6660  -59.5320 N   0  0  0  0  0  0  0  0  0  0  0  0
   10.2520    4.6220  -59.5610 C   0  0  2  0  0  0  0  0  0  0  0  0
   10.5330    3.5240  -58.5160 C   0  0  0  0  0  0  0  0  0  0  0  0
    9.3770    2.5050  -58.4890 C   0  0  1  0  0  0  0  0  0  0  0  0
    8.0780    3.2250  -58.0910 C   0  0  0  0  0  0  0  0  0  0  0  0
    7.7590    4.3310  -59.1090 C   0  0  2  0  0  0  0  0  0  0  0  0
    7.5840    3.7060  -60.5010 C   0  0  0  0  0  0  0  0  0  0  0  0
    8.8790    2.9900  -60.9180 C   0  0  2  0  0  0  0  0  0  0  0  0
    9.2060    1.8920  -59.8900 C   0  0  0  0  0  0  0  0  0  0  0  0
   10.0350    4.0070  -60.9580 C   0  0  0  0  0  0  0  0  0  0  0  0
    8.9280    5.3290  -59.1510 C   0  0  0  0  0  0  0  0  0  0  0  0
   12.7106    8.5632  -59.7407 H   0  0  0  0  0  0  0  0  0  0  0  0
   13.8637    7.9492  -60.9736 H   0  0  0  0  0  0  0  0  0  0  0  0
   12.1606    7.3783  -60.9736 H   0  0  0  0  0  0  0  0  0  0  0  0
   13.5481    3.9918  -58.3819 H   0  0  0  0  0  0  0  0  0  0  0  0
   12.8197    3.4650  -59.9371 H   0  0  0  0  0  0  0  0  0  0  0  0
   14.3200    4.4528  -59.9371 H   0  0  0  0  0  0  0  0  0  0  0  0
   11.4678    3.0059  -58.7761 H   0  0  0  0  0  0  0  0  0  0  0  0
   10.6243    3.9889  -57.5233 H   0  0  0  0  0  0  0  0  0  0  0  0
    9.6008    1.7106  -57.7618 H   0  0  0  0  0  0  0  0  0  0  0  0
    7.2511    2.4998  -58.0694 H   0  0  0  0  0  0  0  0  0  0  0  0
    8.2044    3.6752  -57.0954 H   0  0  0  0  0  0  0  0  0  0  0  0
    6.8338    4.8485  -58.8152 H   0  0  0  0  0  0  0  0  0  0  0  0
    6.7580    2.9800  -60.4739 H   0  0  0  0  0  0  0  0  0  0  0  0
    7.3574    4.4990  -61.2289 H   0  0  0  0  0  0  0  0  0  0  0  0
    8.7475    2.5402  -61.9132 H   0  0  0  0  0  0  0  0  0  0  0  0
    8.3854    1.1598  -59.8679 H   0  0  0  0  0  0  0  0  0  0  0  0
   10.1447    1.3979  -60.1810 H   0  0  0  0  0  0  0  0  0  0  0  0
   10.9561    3.4977  -61.2778 H   0  0  0  0  0  0  0  0  0  0  0  0
    9.7832    4.8087  -61.6678 H   0  0  0  0  0  0  0  0  0  0  0  0
    8.7006    6.1185  -59.8825 H   0  0  0  0  0  0  0  0  0  0  0  0
    9.0573    5.7589  -58.1468 H   0  0  0  0  0  0  0  0  0  0  0  0
  1  2  1  0
  2  3  1  0
  3  4  1  0
  3  5  2  0
  6  5  1  6
  6  7  1  0
  7  8  1  0
  8  9  1  0
  9 10  1  0
 10 11  1  0
 11 12  1  0
 12 13  1  0
 12 14  1  0
 10 15  1  0
 14  6  1  0
 15  6  1  0
 13  8  1  0
  1 16  1  0
  1 17  1  0
  1 18  1  0
  4 19  1  0
  4 20  1  0
  4 21  1  0
  7 22  1  0
  7 23  1  0
  8 24  1  1
  9 25  1  0
  9 26  1  0
 10 27  1  1
 11 28  1  0
 11 29  1  0
 12 30  1  6
 13 31  1  0
 13 32  1  0
 14 33  1  0
 14 34  1  0
 15 35  1  0
 15 36  1  0
M  END
>  <meeko>  (34) 
{"is_sidechain": false}

$$$$

     RDKit          3D

 36 38  0  0  0  0  0  0  0  0999 V2000
    5.8940    2.6280  -62.5240 C   0  0  0  0  0  0  0  0  0  0  0  0
    6.6840    2.8130  -61.3430 O   0  0  0  0  0  0  0  0  0  0  0  0
    6.4680    2.0760  -60.2380 C   0  0  0  0  0  0  0  0  0  0  0  0
    5.2910    1.1460  -60.2210 C   0  0  0  0  0  0  0  0  0  0  0  0
    7.2270    2.1410  -59.2060 N   0  0  0  0  0  0  0  0  0  0  0  0
    8.3990    3.0140  -59.1190 C   0  0  2  0  0  0  0  0  0  0  0  0
    8.9270    2.8710  -57.6650 C   0  0  0  0  0  0  0  0  0  0  0  0
   10.1690    3.7470  -57.4420 C   0  0  1  0  0  0  0  0  0  0  0  0
   11.2710    3.3170  -58.4230 C   0  0  0  0  0  0  0  0  0  0  0  0
   10.7720    3.4660  -59.8690 C   0  0  2  0  0  0  0  0  0  0  0  0
   10.3910    4.9360  -60.1240 C   0  0  0  0  0  0  0  0  0  0  0  0
    9.2920    5.3810  -59.1420 C   0  0  2  0  0  0  0  0  0  0  0  0
    9.8030    5.2160  -57.7030 C   0  0  0  0  0  0  0  0  0  0  0  0
    8.0450    4.5010  -59.3450 C   0  0  0  0  0  0  0  0  0  0  0  0
    9.5310    2.5770  -60.0730 C   0  0  0  0  0  0  0  0  0  0  0  0
    4.8596    2.3858  -62.2389 H   0  0  0  0  0  0  0  0  0  0  0  0
    5.9032    3.5526  -63.1198 H   0  0  0  0  0  0  0  0  0  0  0  0
    6.3128    1.8036  -63.1198 H   0  0  0  0  0  0  0  0  0  0  0  0
    5.0125    0.9260  -59.1798 H   0  0  0  0  0  0  0  0  0  0  0  0
    4.4419    1.6198  -60.7354 H   0  0  0  0  0  0  0  0  0  0  0  0
    5.5555    0.2103  -60.7354 H   0  0  0  0  0  0  0  0  0  0  0  0
    8.1380    3.1802  -56.9637 H   0  0  0  0  0  0  0  0  0  0  0  0
    9.2039    1.8202  -57.4943 H   0  0  0  0  0  0  0  0  0  0  0  0
   10.5265    3.6319  -56.4081 H   0  0  0  0  0  0  0  0  0  0  0  0
   12.1577    3.9511  -58.2761 H   0  0  0  0  0  0  0  0  0  0  0  0
   11.5312    2.2646  -58.2365 H   0  0  0  0  0  0  0  0  0  0  0  0
   11.5645    3.1609  -60.5682 H   0  0  0  0  0  0  0  0  0  0  0  0
   11.2792    5.5702  -59.9864 H   0  0  0  0  0  0  0  0  0  0  0  0
   10.0133    5.0346  -61.1524 H   0  0  0  0  0  0  0  0  0  0  0  0
    9.0344    6.4348  -59.3240 H   0  0  0  0  0  0  0  0  0  0  0  0
   10.6938    5.8449  -57.5582 H   0  0  0  0  0  0  0  0  0  0  0  0
    9.0130    5.5220  -57.0014 H   0  0  0  0  0  0  0  0  0  0  0  0
    7.2670    4.8023  -58.6282 H   0  0  0  0  0  0  0  0  0  0  0  0
    7.6779    4.6303  -60.3739 H   0  0  0  0  0  0  0  0  0  0  0  0
    9.1852    2.6690  -61.1132 H   0  0  0  0  0  0  0  0  0  0  0  0
    9.7988    1.5322  -59.8571 H   0  0  0  0  0  0  0  0  0  0  0  0
  1  2  1  0
  2  3  1  0
  3  4  1  0
  3  5  2  0
  6  5  1  1
  6  7  1  0
  7  8  1  0
  8  9  1  0
  9 10  1  0
 10 11  1  0
 11 12  1  0
 12 13  1  0
 12 14  1  0
 10 15  1  0
 14  6  1  0
 15  6  1  0
 13  8  1  0
  1 16  1  0
  1 17  1  0
  1 18  1  0
  4 19  1  0
  4 20  1  0
  4 21  1  0
  7 22  1  0
  7 23  1  0
  8 24  1  1
  9 25  1  0
  9 26  1  0
 10 27  1  6
 11 28  1  0
 11 29  1  0
 12 30  1  6
 13 31  1  0
 13 32  1  0
 14 33  1  0
 14 34  1  0
 15 35  1  0
 15 36  1  0
M  END
>  <meeko>  (35) 
{"is_sidechain": false}

$$$$

     RDKit          3D

 39 41  0  0  0  0  0  0  0  0999 V2000
    8.1280   -2.6080  -50.6630 C   0  0  0  0  0  0  0  0  0  0  0  0
    9.3130   -2.9960  -51.5330 C   0  0  0  0  0  0  0  0  0  0  0  0
    9.0910   -2.6020  -52.9900 C   0  0  0  0  0  0  0  0  0  0  0  0
   10.3090   -2.8720  -53.8550 C   0  0  0  0  0  0  0  0  0  0  0  0
   11.4180   -2.4060  -53.6210 O   0  0  0  0  0  0  0  0  0  0  0  0
   10.0220   -3.6970  -54.9230 N   0  0  0  0  0  0  0  0  0  0  0  0
   10.9920   -4.1360  -55.9310 C   0  0  2  0  0  0  0  0  0  0  0  0
   12.1770   -4.9030  -55.2910 C   0  0  0  0  0  0  0  0  0  0  0  0
   13.1530   -5.3940  -56.3750 C   0  0  1  0  0  0  0  0  0  0  0  0
   12.4120   -6.3410  -57.3330 C   0  0  0  0  0  0  0  0  0  0  0  0
   11.2420   -5.6010  -58.0010 C   0  0  2  0  0  0  0  0  0  0  0  0
   11.7830   -4.3950  -58.7860 C   0  0  0  0  0  0  0  0  0  0  0  0
   12.5200   -3.4380  -57.8360 C   0  0  2  0  0  0  0  0  0  0  0  0
   13.6850   -4.1860  -57.1630 C   0  0  0  0  0  0  0  0  0  0  0  0
   11.5440   -2.9440  -56.7530 C   0  0  0  0  0  0  0  0  0  0  0  0
   10.2760   -5.1010  -56.9140 C   0  0  0  0  0  0  0  0  0  0  0  0
    8.4062   -2.6991  -49.6027 H   0  0  0  0  0  0  0  0  0  0  0  0
    7.8397   -1.5685  -50.8784 H   0  0  0  0  0  0  0  0  0  0  0  0
    7.2808   -3.2757  -50.8784 H   0  0  0  0  0  0  0  0  0  0  0  0
   10.2132   -2.4867  -51.1584 H   0  0  0  0  0  0  0  0  0  0  0  0
    9.4323   -4.0885  -51.4857 H   0  0  0  0  0  0  0  0  0  0  0  0
    8.2418   -3.1780  -53.3862 H   0  0  0  0  0  0  0  0  0  0  0  0
    8.8929   -1.5204  -53.0183 H   0  0  0  0  0  0  0  0  0  0  0  0
    9.0690   -4.0230  -55.0180 H   0  0  0  0  0  0  0  0  0  0  0  0
   12.7106   -4.2331  -54.6007 H   0  0  0  0  0  0  0  0  0  0  0  0
   11.7832   -5.7744  -54.7473 H   0  0  0  0  0  0  0  0  0  0  0  0
   13.9925   -5.9270  -55.9047 H   0  0  0  0  0  0  0  0  0  0  0  0
   13.1088   -6.6951  -58.1070 H   0  0  0  0  0  0  0  0  0  0  0  0
   12.0207   -7.1974  -56.7642 H   0  0  0  0  0  0  0  0  0  0  0  0
   10.7159   -6.2827  -58.6855 H   0  0  0  0  0  0  0  0  0  0  0  0
   12.4797   -4.7474  -59.5609 H   0  0  0  0  0  0  0  0  0  0  0  0
   10.9424   -3.8625  -59.2548 H   0  0  0  0  0  0  0  0  0  0  0  0
   12.9085   -2.5804  -58.4049 H   0  0  0  0  0  0  0  0  0  0  0  0
   14.3869   -4.5355  -57.9345 H   0  0  0  0  0  0  0  0  0  0  0  0
   14.1990   -3.5030  -56.4707 H   0  0  0  0  0  0  0  0  0  0  0  0
   12.0717   -2.2535  -56.0787 H   0  0  0  0  0  0  0  0  0  0  0  0
   10.7028   -2.4305  -57.2415 H   0  0  0  0  0  0  0  0  0  0  0  0
    9.4397   -4.5706  -57.3929 H   0  0  0  0  0  0  0  0  0  0  0  0
    9.9091   -5.9690  -56.3465 H   0  0  0  0  0  0  0  0  0  0  0  0
  1  2  1  0
  2  3  1  0
  3  4  1  0
  4  5  2  0
  4  6  1  0
  7  6  1  1
  7  8  1  0
  8  9  1  0
  9 10  1  0
 10 11  1  0
 11 12  1  0
 12 13  1  0
 13 14  1  0
 13 15  1  0
 11 16  1  0
 15  7  1  0
 16  7  1  0
 14  9  1  0
  1 17  1  0
  1 18  1  0
  1 19  1  0
  2 20  1  0
  2 21  1  0
  3 22  1  0
  3 23  1  0
  6 24  1  0
  8 25  1  0
  8 26  1  0
  9 27  1  1
 10 28  1  0
 10 29  1  0
 11 30  1  6
 12 31  1  0
 12 32  1  0
 13 33  1  6
 14 34  1  0
 14 35  1  0
 15 36  1  0
 15 37  1  0
 16 38  1  0
 16 39  1  0
M  END
>  <meeko>  (36) 
{"is_sidechain": false}

$$$$

     RDKit          3D

 42 44  0  0  0  0  0  0  0  0999 V2000
    7.4640   -4.2200  -50.5310 C   0  0  0  0  0  0  0  0  0  0  0  0
    8.1560   -2.8820  -50.7390 C   0  0  0  0  0  0  0  0  0  0  0  0
    9.4200   -2.9760  -51.5970 C   0  0  0  0  0  0  0  0  0  0  0  0
    9.2520   -2.3660  -52.9880 C   0  0  0  0  0  0  0  0  0  0  0  0
   10.4260   -2.6820  -53.9000 C   0  0  0  0  0  0  0  0  0  0  0  0
   11.5210   -2.1430  -53.7990 O   0  0  0  0  0  0  0  0  0  0  0  0
   10.1120   -3.6340  -54.8470 N   0  0  0  0  0  0  0  0  0  0  0  0
   11.0350   -4.1410  -55.8690 C   0  0  2  0  0  0  0  0  0  0  0  0
   12.2230   -4.9090  -55.2370 C   0  0  0  0  0  0  0  0  0  0  0  0
   13.1460   -5.4730  -56.3330 C   0  0  1  0  0  0  0  0  0  0  0  0
   12.3500   -6.4390  -57.2230 C   0  0  0  0  0  0  0  0  0  0  0  0
   11.1750   -5.6980  -57.8800 C   0  0  2  0  0  0  0  0  0  0  0  0
   11.7160   -4.5410  -58.7350 C   0  0  0  0  0  0  0  0  0  0  0  0
   12.5090   -3.5640  -57.8540 C   0  0  2  0  0  0  0  0  0  0  0  0
   13.6780   -4.3130  -57.1910 C   0  0  0  0  0  0  0  0  0  0  0  0
   11.5840   -3.0000  -56.7610 C   0  0  0  0  0  0  0  0  0  0  0  0
   10.2610   -5.1290  -56.7830 C   0  0  0  0  0  0  0  0  0  0  0  0
    7.3623   -4.4166  -49.4535 H   0  0  0  0  0  0  0  0  0  0  0  0
    6.4668   -4.1930  -50.9945 H   0  0  0  0  0  0  0  0  0  0  0  0
    8.0623   -5.0182  -50.9945 H   0  0  0  0  0  0  0  0  0  0  0  0
    7.4501   -2.1978  -51.2325 H   0  0  0  0  0  0  0  0  0  0  0  0
    8.4640   -2.5191  -49.7473 H   0  0  0  0  0  0  0  0  0  0  0  0
   10.2337   -2.4468  -51.0794 H   0  0  0  0  0  0  0  0  0  0  0  0
    9.6425   -4.0445  -51.7341 H   0  0  0  0  0  0  0  0  0  0  0  0
    8.3334   -2.7665  -53.4417 H   0  0  0  0  0  0  0  0  0  0  0  0
    9.1988   -1.2733  -52.8730 H   0  0  0  0  0  0  0  0  0  0  0  0
    9.1700   -4.0050  -54.8420 H   0  0  0  0  0  0  0  0  0  0  0  0
   12.7979   -4.2232  -54.5973 H   0  0  0  0  0  0  0  0  0  0  0  0
   11.8287   -5.7444  -54.6398 H   0  0  0  0  0  0  0  0  0  0  0  0
   13.9872   -6.0089  -55.8690 H   0  0  0  0  0  0  0  0  0  0  0  0
   13.0101   -6.8420  -58.0052 H   0  0  0  0  0  0  0  0  0  0  0  0
   11.9594   -7.2614  -56.6056 H   0  0  0  0  0  0  0  0  0  0  0  0
   10.6079   -6.3941  -58.5155 H   0  0  0  0  0  0  0  0  0  0  0  0
   12.3758   -4.9437  -59.5176 H   0  0  0  0  0  0  0  0  0  0  0  0
   10.8721   -4.0077  -59.1970 H   0  0  0  0  0  0  0  0  0  0  0  0
   12.8980   -2.7410  -58.4716 H   0  0  0  0  0  0  0  0  0  0  0  0
   14.3426   -4.7129  -57.9710 H   0  0  0  0  0  0  0  0  0  0  0  0
   14.2329   -3.6149  -56.5470 H   0  0  0  0  0  0  0  0  0  0  0  0
   12.1510   -2.2939  -56.1365 H   0  0  0  0  0  0  0  0  0  0  0  0
   10.7378   -2.4878  -57.2422 H   0  0  0  0  0  0  0  0  0  0  0  0
    9.4204   -4.5990  -57.2546 H   0  0  0  0  0  0  0  0  0  0  0  0
    9.8944   -5.9625  -56.1659 H   0  0  0  0  0  0  0  0  0  0  0  0
  1  2  1  0
  2  3  1  0
  3  4  1  0
  4  5  1  0
  5  6  2  0
  5  7  1  0
  8  7  1  1
  8  9  1  0
  9 10  1  0
 10 11  1  0
 11 12  1  0
 12 13  1  0
 13 14  1  0
 14 15  1  0
 14 16  1  0
 12 17  1  0
 16  8  1  0
 17  8  1  0
 15 10  1  0
  1 18  1  0
  1 19  1  0
  1 20  1  0
  2 21  1  0
  2 22  1  0
  3 23  1  0
  3 24  1  0
  4 25  1  0
  4 26  1  0
  7 27  1  0
  9 28  1  0
  9 29  1  0
 10 30  1  1
 11 31  1  0
 11 32  1  0
 12 33  1  6
 13 34  1  0
 13 35  1  0
 14 36  1  6
 15 37  1  0
 15 38  1  0
 16 39  1  0
 16 40  1  0
 17 41  1  0
 17 42  1  0
M  END
>  <meeko>  (37) 
{"is_sidechain": false}

$$$$

     RDKit          3D

 37 40  0  0  0  0  0  0  0  0999 V2000
    6.3180    2.6370  -61.7110 O   0  0  0  0  0  0  0  0  0  0  0  0
    6.0010    2.1120  -60.6550 C   0  0  0  0  0  0  0  0  0  0  0  0
    6.6980    2.1800  -59.4750 N   0  0  0  0  0  0  0  0  0  0  0  0
    7.9430    2.9250  -59.2780 C   0  0  2  0  0  0  0  0  0  0  0  0
    9.1150    2.3010  -60.0760 C   0  0  0  0  0  0  0  0  0  0  0  0
   10.4200    3.0730  -59.8130 C   0  0  1  0  0  0  0  0  0  0  0  0
   10.2330    4.5410  -60.2310 C   0  0  0  0  0  0  0  0  0  0  0  0
    9.0960    5.1830  -59.4190 C   0  0  2  0  0  0  0  0  0  0  0  0
    9.4370    5.1080  -57.9230 C   0  0  0  0  0  0  0  0  0  0  0  0
    9.6170    3.6430  -57.4970 C   0  0  2  0  0  0  0  0  0  0  0  0
   10.7540    3.0110  -58.3150 C   0  0  0  0  0  0  0  0  0  0  0  0
    8.3130    2.8750  -57.7710 C   0  0  0  0  0  0  0  0  0  0  0  0
    7.7890    4.4120  -59.6820 C   0  0  0  0  0  0  0  0  0  0  0  0
    4.7700    1.2840  -60.5740 C   0  0  0  0  0  0  0  0  0  0  0  0
    3.3950    1.9100  -60.6090 C   0  0  0  0  0  0  0  0  0  0  0  0
    3.8910    1.1370  -61.7930 C   0  0  0  0  0  0  0  0  0  0  0  0
    6.3150    1.6730  -58.6870 H   0  0  0  0  0  0  0  0  0  0  0  0
    9.2459    1.2535  -59.7667 H   0  0  0  0  0  0  0  0  0  0  0  0
    8.8814    2.3541  -61.1496 H   0  0  0  0  0  0  0  0  0  0  0  0
   11.2394    2.6235  -60.3931 H   0  0  0  0  0  0  0  0  0  0  0  0
   11.1668    5.0928  -60.0480 H   0  0  0  0  0  0  0  0  0  0  0  0
    9.9773    4.5802  -61.3002 H   0  0  0  0  0  0  0  0  0  0  0  0
    8.9734    6.2345  -59.7180 H   0  0  0  0  0  0  0  0  0  0  0  0
   10.3699    5.6594  -57.7341 H   0  0  0  0  0  0  0  0  0  0  0  0
    8.6156    5.5540  -57.3430 H   0  0  0  0  0  0  0  0  0  0  0  0
    9.8612    3.5964  -56.4255 H   0  0  0  0  0  0  0  0  0  0  0  0
   11.6877    3.5612  -58.1268 H   0  0  0  0  0  0  0  0  0  0  0  0
   10.8739    1.9596  -58.0148 H   0  0  0  0  0  0  0  0  0  0  0  0
    8.4431    1.8258  -57.4673 H   0  0  0  0  0  0  0  0  0  0  0  0
    7.5021    3.3455  -57.1956 H   0  0  0  0  0  0  0  0  0  0  0  0
    6.9775    4.8645  -59.0931 H   0  0  0  0  0  0  0  0  0  0  0  0
    7.5554    4.4656  -60.7556 H   0  0  0  0  0  0  0  0  0  0  0  0
    5.2877    0.6019  -59.8835 H   0  0  0  0  0  0  0  0  0  0  0  0
    2.5885    1.4996  -59.9837 H   0  0  0  0  0  0  0  0  0  0  0  0
    2.9997    2.9248  -60.4544 H   0  0  0  0  0  0  0  0  0  0  0  0
    3.4478    0.1600  -62.0358 H   0  0  0  0  0  0  0  0  0  0  0  0
    4.0093    1.3512  -62.8654 H   0  0  0  0  0  0  0  0  0  0  0  0
  1  2  2  0
  2  3  1  0
  4  3  1  1
  4  5  1  0
  5  6  1  0
  6  7  1  0
  7  8  1  0
  8  9  1  0
  9 10  1  0
 10 11  1  0
 10 12  1  0
  8 13  1  0
  2 14  1  0
 14 15  1  0
 15 16  1  0
 12  4  1  0
 16 14  1  0
 13  4  1  0
 11  6  1  0
  3 17  1  0
  5 18  1  0
  5 19  1  0
  6 20  1  6
  7 21  1  0
  7 22  1  0
  8 23  1  6
  9 24  1  0
  9 25  1  0
 10 26  1  1
 11 27  1  0
 11 28  1  0
 12 29  1  0
 12 30  1  0
 13 31  1  0
 13 32  1  0
 14 33  1  0
 15 34  1  0
 15 35  1  0
 16 36  1  0
 16 37  1  0
M  END
>  <meeko>  (38) 
{"is_sidechain": false}

$$$$

     RDKit          3D

 39 41  0  0  0  0  0  0  0  0999 V2000
    5.0350    2.2720  -62.5160 C   0  0  0  0  0  0  0  0  0  0  0  0
    4.7840    1.7310  -61.1100 C   0  0  0  0  0  0  0  0  0  0  0  0
    3.3450    2.0180  -60.6820 C   0  0  0  0  0  0  0  0  0  0  0  0
    5.7810    2.3290  -60.1180 C   0  0  0  0  0  0  0  0  0  0  0  0
    5.5370    2.4550  -58.9230 O   0  0  0  0  0  0  0  0  0  0  0  0
    6.9730    2.7060  -60.7040 N   0  0  0  0  0  0  0  0  0  0  0  0
    8.1180    3.2770  -59.9860 C   0  0  2  0  0  0  0  0  0  0  0  0
    9.2890    3.4490  -60.9920 C   0  0  0  0  0  0  0  0  0  0  0  0
   10.5270    4.0420  -60.3010 C   0  0  1  0  0  0  0  0  0  0  0  0
   10.1680    5.4150  -59.7130 C   0  0  0  0  0  0  0  0  0  0  0  0
    9.0270    5.2660  -58.6940 C   0  0  2  0  0  0  0  0  0  0  0  0
    9.4730    4.3180  -57.5680 C   0  0  0  0  0  0  0  0  0  0  0  0
    9.8350    2.9400  -58.1470 C   0  0  2  0  0  0  0  0  0  0  0  0
   10.9710    3.1020  -59.1690 C   0  0  0  0  0  0  0  0  0  0  0  0
    8.6010    2.3440  -58.8480 C   0  0  0  0  0  0  0  0  0  0  0  0
    7.7920    4.6730  -59.3960 C   0  0  0  0  0  0  0  0  0  0  0  0
    5.4971    3.2680  -62.4486 H   0  0  0  0  0  0  0  0  0  0  0  0
    5.7091    1.5908  -63.0560 H   0  0  0  0  0  0  0  0  0  0  0  0
    4.0796    2.3468  -63.0560 H   0  0  0  0  0  0  0  0  0  0  0  0
    4.9297    0.6407  -61.1199 H   0  0  0  0  0  0  0  0  0  0  0  0
    3.2846    2.0300  -59.5837 H   0  0  0  0  0  0  0  0  0  0  0  0
    3.0331    2.9960  -61.0771 H   0  0  0  0  0  0  0  0  0  0  0  0
    2.6817    1.2345  -61.0771 H   0  0  0  0  0  0  0  0  0  0  0  0
    7.1180    2.4390  -61.6690 H   0  0  0  0  0  0  0  0  0  0  0  0
    9.5484    2.4665  -61.4133 H   0  0  0  0  0  0  0  0  0  0  0  0
    8.9687    4.1376  -61.7878 H   0  0  0  0  0  0  0  0  0  0  0  0
   11.3434    4.1548  -61.0296 H   0  0  0  0  0  0  0  0  0  0  0  0
   11.0508    5.8395  -59.2125 H   0  0  0  0  0  0  0  0  0  0  0  0
    9.8435    6.0828  -60.5247 H   0  0  0  0  0  0  0  0  0  0  0  0
    8.7766    6.2508  -58.2728 H   0  0  0  0  0  0  0  0  0  0  0  0
   10.3530    4.7425  -57.0627 H   0  0  0  0  0  0  0  0  0  0  0  0
    8.6483    4.2004  -56.8497 H   0  0  0  0  0  0  0  0  0  0  0  0
   10.1594    2.2708  -57.3365 H   0  0  0  0  0  0  0  0  0  0  0  0
   11.8541    3.5258  -58.6684 H   0  0  0  0  0  0  0  0  0  0  0  0
   11.2198    2.1178  -59.5925 H   0  0  0  0  0  0  0  0  0  0  0  0
    8.8640    1.3634  -59.2713 H   0  0  0  0  0  0  0  0  0  0  0  0
    7.7919    2.2351  -58.1107 H   0  0  0  0  0  0  0  0  0  0  0  0
    6.9739    4.5754  -58.6672 H   0  0  0  0  0  0  0  0  0  0  0  0
    7.4935    5.3435  -60.2153 H   0  0  0  0  0  0  0  0  0  0  0  0
  1  2  1  0
  2  3  1  0
  2  4  1  0
  4  5  2  0
  4  6  1  0
  7  6  1  6
  7  8  1  0
  8  9  1  0
  9 10  1  0
 10 11  1  0
 11 12  1  0
 12 13  1  0
 13 14  1  0
 13 15  1  0
 11 16  1  0
 15  7  1  0
 16  7  1  0
 14  9  1  0
  1 17  1  0
  1 18  1  0
  1 19  1  0
  2 20  1  0
  3 21  1  0
  3 22  1  0
  3 23  1  0
  6 24  1  0
  8 25  1  0
  8 26  1  0
  9 27  1  6
 10 28  1  0
 10 29  1  0
 11 30  1  1
 12 31  1  0
 12 32  1  0
 13 33  1  1
 14 34  1  0
 14 35  1  0
 15 36  1  0
 15 37  1  0
 16 38  1  0
 16 39  1  0
M  END
>  <meeko>  (39) 
{"is_sidechain": false}

$$$$

     RDKit          3D

 45 47  0  0  0  0  0  0  0  0999 V2000
    5.7340   -4.1580  -50.4230 C   0  0  0  0  0  0  0  0  0  0  0  0
    7.2520   -4.2540  -50.4420 C   0  0  0  0  0  0  0  0  0  0  0  0
    7.9480   -2.9170  -50.7010 C   0  0  0  0  0  0  0  0  0  0  0  0
    9.2570   -2.9860  -51.4960 C   0  0  0  0  0  0  0  0  0  0  0  0
    9.1810   -2.4260  -52.9160 C   0  0  0  0  0  0  0  0  0  0  0  0
   10.3900   -2.7600  -53.7730 C   0  0  0  0  0  0  0  0  0  0  0  0
   11.5240   -2.3770  -53.5140 O   0  0  0  0  0  0  0  0  0  0  0  0
   10.0670   -3.5630  -54.8480 N   0  0  0  0  0  0  0  0  0  0  0  0
   11.0260   -4.0610  -55.8410 C   0  0  2  0  0  0  0  0  0  0  0  0
   11.6130   -2.9130  -56.6990 C   0  0  0  0  0  0  0  0  0  0  0  0
   12.5750   -3.4690  -57.7640 C   0  0  1  0  0  0  0  0  0  0  0  0
   13.7150   -4.2310  -57.0670 C   0  0  0  0  0  0  0  0  0  0  0  0
   13.1470   -5.3980  -56.2420 C   0  0  2  0  0  0  0  0  0  0  0  0
   12.3780   -6.3500  -57.1720 C   0  0  0  0  0  0  0  0  0  0  0  0
   11.2320   -5.5960  -57.8630 C   0  0  2  0  0  0  0  0  0  0  0  0
   11.8100   -4.4330  -58.6850 C   0  0  0  0  0  0  0  0  0  0  0  0
   10.2810   -5.0350  -56.7950 C   0  0  0  0  0  0  0  0  0  0  0  0
   12.1850   -4.8430  -55.1750 C   0  0  0  0  0  0  0  0  0  0  0  0
    5.3810   -4.1357  -49.3814 H   0  0  0  0  0  0  0  0  0  0  0  0
    5.4183   -3.2381  -50.9369 H   0  0  0  0  0  0  0  0  0  0  0  0
    5.3049   -5.0308  -50.9369 H   0  0  0  0  0  0  0  0  0  0  0  0
    7.5882   -4.6378  -49.4675 H   0  0  0  0  0  0  0  0  0  0  0  0
    7.5220   -4.9237  -51.2718 H   0  0  0  0  0  0  0  0  0  0  0  0
    7.2490   -2.2756  -51.2578 H   0  0  0  0  0  0  0  0  0  0  0  0
    8.2223   -2.5274  -49.7095 H   0  0  0  0  0  0  0  0  0  0  0  0
   10.0209   -2.4174  -50.9454 H   0  0  0  0  0  0  0  0  0  0  0  0
    9.4977   -4.0543  -51.5995 H   0  0  0  0  0  0  0  0  0  0  0  0
    8.2856   -2.8385  -53.4039 H   0  0  0  0  0  0  0  0  0  0  0  0
    9.1450   -1.3302  -52.8264 H   0  0  0  0  0  0  0  0  0  0  0  0
    9.1040   -3.8550  -54.9400 H   0  0  0  0  0  0  0  0  0  0  0  0
   10.7914   -2.3784  -57.1981 H   0  0  0  0  0  0  0  0  0  0  0  0
   12.1693   -2.2284  -56.0419 H   0  0  0  0  0  0  0  0  0  0  0  0
   12.9900   -2.6411  -58.3577 H   0  0  0  0  0  0  0  0  0  0  0  0
   14.4060   -4.6254  -57.8265 H   0  0  0  0  0  0  0  0  0  0  0  0
   14.2487   -3.5427  -56.3951 H   0  0  0  0  0  0  0  0  0  0  0  0
   13.9691   -5.9418  -55.7538 H   0  0  0  0  0  0  0  0  0  0  0  0
   13.0641   -6.7481  -57.9341 H   0  0  0  0  0  0  0  0  0  0  0  0
   11.9606   -7.1765  -56.5782 H   0  0  0  0  0  0  0  0  0  0  0  0
   10.6851   -6.2820  -58.5265 H   0  0  0  0  0  0  0  0  0  0  0  0
   12.4964   -4.8310  -59.4469 H   0  0  0  0  0  0  0  0  0  0  0  0
   10.9866   -3.8904  -59.1724 H   0  0  0  0  0  0  0  0  0  0  0  0
    9.4612   -4.4952  -57.2914 H   0  0  0  0  0  0  0  0  0  0  0  0
    9.8873   -5.8734  -56.2016 H   0  0  0  0  0  0  0  0  0  0  0  0
   11.7697   -5.6787  -54.5927 H   0  0  0  0  0  0  0  0  0  0  0  0
   12.7415   -4.1601  -54.5162 H   0  0  0  0  0  0  0  0  0  0  0  0
  1  2  1  0
  2  3  1  0
  3  4  1  0
  4  5  1  0
  5  6  1  0
  6  7  2  0
  6  8  1  0
  9  8  1  1
  9 10  1  0
 10 11  1  0
 11 12  1  0
 12 13  1  0
 13 14  1  0
 14 15  1  0
 15 16  1  0
 15 17  1  0
 13 18  1  0
 17  9  1  0
 18  9  1  0
 16 11  1  0
  1 19  1  0
  1 20  1  0
  1 21  1  0
  2 22  1  0
  2 23  1  0
  3 24  1  0
  3 25  1  0
  4 26  1  0
  4 27  1  0
  5 28  1  0
  5 29  1  0
  8 30  1  0
 10 31  1  0
 10 32  1  0
 11 33  1  6
 12 34  1  0
 12 35  1  0
 13 36  1  1
 14 37  1  0
 14 38  1  0
 15 39  1  6
 16 40  1  0
 16 41  1  0
 17 42  1  0
 17 43  1  0
 18 44  1  0
 18 45  1  0
M  END
>  <meeko>  (40) 
{"is_sidechain": false}

$$$$

     RDKit          3D

 36 39  0  0  0  0  0  0  0  0999 V2000
    5.9790    2.4130  -58.8890 O   0  0  0  0  0  0  0  0  0  0  0  0
    6.1900    2.3690  -60.0960 C   0  0  0  0  0  0  0  0  0  0  0  0
    7.3890    2.7730  -60.6680 N   0  0  0  0  0  0  0  0  0  0  0  0
    8.5060    3.3600  -59.9210 C   0  0  2  0  0  0  0  0  0  0  0  0
    9.6220    3.7360  -60.9330 C   0  0  0  0  0  0  0  0  0  0  0  0
   10.8280    4.3670  -60.2210 C   0  0  1  0  0  0  0  0  0  0  0  0
   10.3710    5.6340  -59.4810 C   0  0  0  0  0  0  0  0  0  0  0  0
    9.2870    5.2770  -58.4510 C   0  0  2  0  0  0  0  0  0  0  0  0
    9.8580    4.2630  -57.4450 C   0  0  0  0  0  0  0  0  0  0  0  0
   10.3180    2.9920  -58.1780 C   0  0  2  0  0  0  0  0  0  0  0  0
   11.3970    3.3620  -59.2080 C   0  0  0  0  0  0  0  0  0  0  0  0
    9.1150    2.3610  -58.9030 C   0  0  0  0  0  0  0  0  0  0  0  0
    8.0830    4.6510  -59.1760 C   0  0  0  0  0  0  0  0  0  0  0  0
    5.1770    1.8980  -61.0690 C   0  0  0  0  0  0  0  0  0  0  0  0
    4.0480    1.0420  -60.7830 C   0  0  0  0  0  0  0  0  0  0  0  0
    3.3020    0.8000  -61.9180 C   0  0  0  0  0  0  0  0  0  0  0  0
    4.0240    1.6280  -63.2230 S   0  0  0  0  0  0  0  0  0  0  0  0
    5.2640    2.2820  -62.3500 N   0  0  0  0  0  0  0  0  0  0  0  0
    7.3750    2.9410  -61.6640 H   0  0  0  0  0  0  0  0  0  0  0  0
    9.9507    2.8273  -61.4586 H   0  0  0  0  0  0  0  0  0  0  0  0
    9.2145    4.4695  -61.6442 H   0  0  0  0  0  0  0  0  0  0  0  0
   11.6021    4.6285  -60.9574 H   0  0  0  0  0  0  0  0  0  0  0  0
   11.2311    6.0844  -58.9639 H   0  0  0  0  0  0  0  0  0  0  0  0
    9.9579    6.3486  -60.2081 H   0  0  0  0  0  0  0  0  0  0  0  0
    8.9669    6.1856  -57.9201 H   0  0  0  0  0  0  0  0  0  0  0  0
   10.7156    4.7123  -56.9229 H   0  0  0  0  0  0  0  0  0  0  0  0
    9.0754    3.9965  -56.7194 H   0  0  0  0  0  0  0  0  0  0  0  0
   10.7307    2.2747  -57.4533 H   0  0  0  0  0  0  0  0  0  0  0  0
   12.2566    3.8126  -58.6903 H   0  0  0  0  0  0  0  0  0  0  0  0
   11.7181    2.4538  -59.7392 H   0  0  0  0  0  0  0  0  0  0  0  0
    9.4474    1.4584  -59.4368 H   0  0  0  0  0  0  0  0  0  0  0  0
    8.3481    2.1018  -58.1582 H   0  0  0  0  0  0  0  0  0  0  0  0
    7.3051    4.4043  -58.4384 H   0  0  0  0  0  0  0  0  0  0  0  0
    7.6962    5.3734  -59.9099 H   0  0  0  0  0  0  0  0  0  0  0  0
    3.8137    0.6356  -59.7880 H   0  0  0  0  0  0  0  0  0  0  0  0
    2.3958    0.1788  -61.9722 H   0  0  0  0  0  0  0  0  0  0  0  0
  1  2  2  0
  2  3  1  0
  4  3  1  6
  4  5  1  0
  5  6  1  0
  6  7  1  0
  7  8  1  0
  8  9  1  0
  9 10  1  0
 10 11  1  0
 10 12  1  0
  8 13  1  0
  2 14  1  0
 14 15  1  0
 15 16  2  0
 16 17  1  0
 17 18  1  0
 12  4  1  0
 18 14  2  0
 13  4  1  0
 11  6  1  0
  3 19  1  0
  5 20  1  0
  5 21  1  0
  6 22  1  6
  7 23  1  0
  7 24  1  0
  8 25  1  1
  9 26  1  0
  9 27  1  0
 10 28  1  1
 11 29  1  0
 11 30  1  0
 12 31  1  0
 12 32  1  0
 13 33  1  0
 13 34  1  0
 15 35  1  0
 16 36  1  0
M  END
>  <meeko>  (41) 
{"is_sidechain": false}

$$$$

     RDKit          3D

 37 40  0  0  0  0  0  0  0  0999 V2000
    5.6630    2.5260  -59.0530 O   0  0  0  0  0  0  0  0  0  0  0  0
    5.9630    2.3820  -60.2340 C   0  0  0  0  0  0  0  0  0  0  0  0
    7.1990    2.7140  -60.7510 N   0  0  0  0  0  0  0  0  0  0  0  0
    8.3210    3.2730  -59.9990 C   0  0  2  0  0  0  0  0  0  0  0  0
    9.5410    3.3910  -60.9520 C   0  0  0  0  0  0  0  0  0  0  0  0
   10.7590    3.9750  -60.2190 C   0  0  1  0  0  0  0  0  0  0  0  0
   10.4040    5.3710  -59.6840 C   0  0  0  0  0  0  0  0  0  0  0  0
    9.2140    5.2750  -58.7170 C   0  0  2  0  0  0  0  0  0  0  0  0
    9.5850    4.3470  -57.5460 C   0  0  0  0  0  0  0  0  0  0  0  0
    9.9420    2.9470  -58.0720 C   0  0  2  0  0  0  0  0  0  0  0  0
   11.1280    3.0570  -59.0440 C   0  0  0  0  0  0  0  0  0  0  0  0
    8.7280    2.3610  -58.8150 C   0  0  0  0  0  0  0  0  0  0  0  0
    8.0000    4.6900  -59.4600 C   0  0  0  0  0  0  0  0  0  0  0  0
    5.0490    1.8460  -61.2230 C   0  0  0  0  0  0  0  0  0  0  0  0
    4.0320    0.9160  -61.1110 C   0  0  0  0  0  0  0  0  0  0  0  0
    3.4650    0.7730  -62.3990 C   0  0  0  0  0  0  0  0  0  0  0  0
    4.1660    1.6210  -63.2220 C   0  0  0  0  0  0  0  0  0  0  0  0
    5.1290    2.2790  -62.5230 O   0  0  0  0  0  0  0  0  0  0  0  0
    7.3110    2.5440  -61.7450 H   0  0  0  0  0  0  0  0  0  0  0  0
    9.7965    2.3918  -61.3344 H   0  0  0  0  0  0  0  0  0  0  0  0
    9.2746    4.0644  -61.7800 H   0  0  0  0  0  0  0  0  0  0  0  0
   11.6109    4.0502  -60.9108 H   0  0  0  0  0  0  0  0  0  0  0  0
   11.2719    5.7895  -59.1534 H   0  0  0  0  0  0  0  0  0  0  0  0
   10.1329    6.0232  -60.5273 H   0  0  0  0  0  0  0  0  0  0  0  0
    8.9674    6.2764  -58.3345 H   0  0  0  0  0  0  0  0  0  0  0  0
   10.4498    4.7655  -57.0103 H   0  0  0  0  0  0  0  0  0  0  0  0
    8.7250    4.2665  -56.8648 H   0  0  0  0  0  0  0  0  0  0  0  0
   10.2135    2.2924  -57.2307 H   0  0  0  0  0  0  0  0  0  0  0  0
   11.9964    3.4749  -58.5137 H   0  0  0  0  0  0  0  0  0  0  0  0
   11.3734    2.0566  -59.4299 H   0  0  0  0  0  0  0  0  0  0  0  0
    8.9865    1.3633  -59.1994 H   0  0  0  0  0  0  0  0  0  0  0  0
    7.8830    2.2916  -58.1142 H   0  0  0  0  0  0  0  0  0  0  0  0
    7.1475    4.6288  -58.7675 H   0  0  0  0  0  0  0  0  0  0  0  0
    7.7545    5.3450  -60.3089 H   0  0  0  0  0  0  0  0  0  0  0  0
    3.7232    0.3888  -60.1963 H   0  0  0  0  0  0  0  0  0  0  0  0
    2.6307    0.1153  -62.6843 H   0  0  0  0  0  0  0  0  0  0  0  0
    3.9747    1.7498  -64.2975 H   0  0  0  0  0  0  0  0  0  0  0  0
  1  2  2  0
  2  3  1  0
  4  3  1  6
  4  5  1  0
  5  6  1  0
  6  7  1  0
  7  8  1  0
  8  9  1  0
  9 10  1  0
 10 11  1  0
 10 12  1  0
  8 13  1  0
  2 14  1  0
 14 15  2  0
 15 16  1  0
 16 17  2  0
 17 18  1  0
 12  4  1  0
 18 14  1  0
 13  4  1  0
 11  6  1  0
  3 19  1  0
  5 20  1  0
  5 21  1  0
  6 22  1  6
  7 23  1  0
  7 24  1  0
  8 25  1  1
  9 26  1  0
  9 27  1  0
 10 28  1  1
 11 29  1  0
 11 30  1  0
 12 31  1  0
 12 32  1  0
 13 33  1  0
 13 34  1  0
 15 35  1  0
 16 36  1  0
 17 37  1  0
M  END
>  <meeko>  (42) 
{"is_sidechain": false}

$$$$

     RDKit          3D

 36 39  0  0  0  0  0  0  0  0999 V2000
    5.9570    2.3100  -58.9480 O   0  0  0  0  0  0  0  0  0  0  0  0
    6.1640    2.3610  -60.1570 C   0  0  0  0  0  0  0  0  0  0  0  0
    7.3310    2.8770  -60.6960 N   0  0  0  0  0  0  0  0  0  0  0  0
    8.4610    3.4220  -59.9470 C   0  0  2  0  0  0  0  0  0  0  0  0
    8.0760    4.7210  -59.1950 C   0  0  0  0  0  0  0  0  0  0  0  0
    9.2950    5.3010  -58.4560 C   0  0  1  0  0  0  0  0  0  0  0  0
    9.8220    4.2590  -57.4540 C   0  0  0  0  0  0  0  0  0  0  0  0
   10.2410    2.9770  -58.1930 C   0  0  2  0  0  0  0  0  0  0  0  0
   11.3390    3.3170  -59.2120 C   0  0  0  0  0  0  0  0  0  0  0  0
   10.8170    4.3510  -60.2230 C   0  0  2  0  0  0  0  0  0  0  0  0
   10.3980    5.6260  -59.4750 C   0  0  0  0  0  0  0  0  0  0  0  0
    9.5930    3.7700  -60.9500 C   0  0  0  0  0  0  0  0  0  0  0  0
    9.0240    2.3960  -58.9320 C   0  0  0  0  0  0  0  0  0  0  0  0
    5.2310    1.8950  -61.1820 C   0  0  0  0  0  0  0  0  0  0  0  0
    4.1610    1.1670  -60.8980 N   0  0  0  0  0  0  0  0  0  0  0  0
    3.4820    0.8850  -62.0690 C   0  0  0  0  0  0  0  0  0  0  0  0
    4.0370    1.3990  -63.2210 C   0  0  0  0  0  0  0  0  0  0  0  0
    5.4640    2.2700  -62.8380 S   0  0  0  0  0  0  0  0  0  0  0  0
    7.3710    2.8580  -61.7130 H   0  0  0  0  0  0  0  0  0  0  0  0
    7.7062    5.4618  -59.9192 H   0  0  0  0  0  0  0  0  0  0  0  0
    7.2938    4.4855  -58.4583 H   0  0  0  0  0  0  0  0  0  0  0  0
    9.0033    6.2168  -57.9210 H   0  0  0  0  0  0  0  0  0  0  0  0
   10.6917    4.6730  -56.9227 H   0  0  0  0  0  0  0  0  0  0  0  0
    9.0248    4.0156  -56.7362 H   0  0  0  0  0  0  0  0  0  0  0  0
   10.6211    2.2397  -57.4706 H   0  0  0  0  0  0  0  0  0  0  0  0
   12.2102    3.7318  -58.6838 H   0  0  0  0  0  0  0  0  0  0  0  0
   11.6289    2.4018  -59.7490 H   0  0  0  0  0  0  0  0  0  0  0  0
   11.6068    4.5899  -60.9504 H   0  0  0  0  0  0  0  0  0  0  0  0
   11.2694    6.0418  -58.9479 H   0  0  0  0  0  0  0  0  0  0  0  0
   10.0144    6.3593  -60.1996 H   0  0  0  0  0  0  0  0  0  0  0  0
    9.2185    4.5110  -61.6716 H   0  0  0  0  0  0  0  0  0  0  0  0
    9.8983    2.8479  -61.4662 H   0  0  0  0  0  0  0  0  0  0  0  0
    9.3282    1.4856  -59.4693 H   0  0  0  0  0  0  0  0  0  0  0  0
    8.2417    2.1600  -58.1956 H   0  0  0  0  0  0  0  0  0  0  0  0
    2.5579    0.2885  -62.0804 H   0  0  0  0  0  0  0  0  0  0  0  0
    3.6267    1.2701  -64.2334 H   0  0  0  0  0  0  0  0  0  0  0  0
  1  2  2  0
  2  3  1  0
  4  3  1  6
  4  5  1  0
  5  6  1  0
  6  7  1  0
  7  8  1  0
  8  9  1  0
  9 10  1  0
 10 11  1  0
 10 12  1  0
  8 13  1  0
  2 14  1  0
 14 15  2  0
 15 16  1  0
 16 17  2  0
 17 18  1  0
 12  4  1  0
 18 14  1  0
 13  4  1  0
 11  6  1  0
  3 19  1  0
  5 20  1  0
  5 21  1  0
  6 22  1  1
  7 23  1  0
  7 24  1  0
  8 25  1  1
  9 26  1  0
  9 27  1  0
 10 28  1  6
 11 29  1  0
 11 30  1  0
 12 31  1  0
 12 32  1  0
 13 33  1  0
 13 34  1  0
 16 35  1  0
 17 36  1  0
M  END
>  <meeko>  (43) 
{"is_sidechain": false}

$$$$

     RDKit          3D

 37 40  0  0  0  0  0  0  0  0999 V2000
    5.6260    2.5140  -59.0910 O   0  0  0  0  0  0  0  0  0  0  0  0
    5.9630    2.4240  -60.2660 C   0  0  0  0  0  0  0  0  0  0  0  0
    7.1940    2.7950  -60.7610 N   0  0  0  0  0  0  0  0  0  0  0  0
    8.3000    3.3550  -59.9920 C   0  0  2  0  0  0  0  0  0  0  0  0
    8.7080    2.4270  -58.8210 C   0  0  0  0  0  0  0  0  0  0  0  0
    9.9050    3.0160  -58.0550 C   0  0  1  0  0  0  0  0  0  0  0  0
   11.0990    3.1600  -59.0130 C   0  0  0  0  0  0  0  0  0  0  0  0
   10.7290    4.0940  -60.1760 C   0  0  2  0  0  0  0  0  0  0  0  0
   10.3490    5.4750  -59.6190 C   0  0  0  0  0  0  0  0  0  0  0  0
    9.1520    5.3440  -58.6650 C   0  0  2  0  0  0  0  0  0  0  0  0
    9.5250    4.4020  -57.5080 C   0  0  0  0  0  0  0  0  0  0  0  0
    7.9530    4.7560  -59.4300 C   0  0  0  0  0  0  0  0  0  0  0  0
    9.5260    3.5060  -60.9310 C   0  0  0  0  0  0  0  0  0  0  0  0
    5.0680    1.8930  -61.3080 C   0  0  0  0  0  0  0  0  0  0  0  0
    4.0240    0.9470  -61.1390 C   0  0  0  0  0  0  0  0  0  0  0  0
    3.4820    0.7720  -62.3870 C   0  0  0  0  0  0  0  0  0  0  0  0
    4.1930    1.5830  -63.2200 N   0  0  0  0  0  0  0  0  0  0  0  0
    5.1630    2.2790  -62.6010 N   0  0  0  0  0  0  0  0  0  0  0  0
    7.2940    2.6470  -61.7640 H   0  0  0  0  0  0  0  0  0  0  0  0
    7.8568    2.3178  -58.1329 H   0  0  0  0  0  0  0  0  0  0  0  0
    8.9957    1.4468  -59.2290 H   0  0  0  0  0  0  0  0  0  0  0  0
   10.1756    2.3500  -57.2224 H   0  0  0  0  0  0  0  0  0  0  0  0
   11.9561    3.5804  -58.4665 H   0  0  0  0  0  0  0  0  0  0  0  0
   11.3620    2.1701  -59.4141 H   0  0  0  0  0  0  0  0  0  0  0  0
   11.5861    4.1936  -60.8582 H   0  0  0  0  0  0  0  0  0  0  0  0
   11.2060    5.8962  -59.0729 H   0  0  0  0  0  0  0  0  0  0  0  0
   10.0761    6.1386  -60.4527 H   0  0  0  0  0  0  0  0  0  0  0  0
    8.8877    6.3346  -58.2666 H   0  0  0  0  0  0  0  0  0  0  0  0
   10.3796    4.8226  -56.9578 H   0  0  0  0  0  0  0  0  0  0  0  0
    8.6606    4.2985  -56.8357 H   0  0  0  0  0  0  0  0  0  0  0  0
    7.0953    4.6693  -58.7467 H   0  0  0  0  0  0  0  0  0  0  0  0
    7.7050    5.4234  -60.2685 H   0  0  0  0  0  0  0  0  0  0  0  0
    9.2615    4.1751  -61.7631 H   0  0  0  0  0  0  0  0  0  0  0  0
    9.8022    2.5108  -61.3096 H   0  0  0  0  0  0  0  0  0  0  0  0
    3.7144    0.4571  -60.2040 H   0  0  0  0  0  0  0  0  0  0  0  0
    2.6450    0.1123  -62.6595 H   0  0  0  0  0  0  0  0  0  0  0  0
    4.0710    1.7130  -64.2200 H   0  0  0  0  0  0  0  0  0  0  0  0
  1  2  2  0
  2  3  1  0
  4  3  1  6
  4  5  1  0
  5  6  1  0
  6  7  1  0
  7  8  1  0
  8  9  1  0
  9 10  1  0
 10 11  1  0
 10 12  1  0
  8 13  1  0
  2 14  1  0
 14 15  1  0
 15 16  2  0
 16 17  1  0
 17 18  1  0
 12  4  1  0
 18 14  2  0
 13  4  1  0
 11  6  1  0
  3 19  1  0
  5 20  1  0
  5 21  1  0
  6 22  1  1
  7 23  1  0
  7 24  1  0
  8 25  1  6
  9 26  1  0
  9 27  1  0
 10 28  1  1
 11 29  1  0
 11 30  1  0
 12 31  1  0
 12 32  1  0
 13 33  1  0
 13 34  1  0
 15 35  1  0
 16 36  1  0
 17 37  1  0
M  END
>  <meeko>  (44) 
{"is_sidechain": false}

$$$$

     RDKit          3D

 37 40  0  0  0  0  0  0  0  0999 V2000
    6.0100    2.3710  -59.0010 O   0  0  0  0  0  0  0  0  0  0  0  0
    6.2350    2.3580  -60.2050 C   0  0  0  0  0  0  0  0  0  0  0  0
    7.4240    2.7930  -60.7600 N   0  0  0  0  0  0  0  0  0  0  0  0
    8.5360    3.3610  -59.9820 C   0  0  2  0  0  0  0  0  0  0  0  0
    9.1180    2.3450  -58.9670 C   0  0  0  0  0  0  0  0  0  0  0  0
   10.3130    2.9550  -58.2140 C   0  0  1  0  0  0  0  0  0  0  0  0
   11.4130    3.3260  -59.2200 C   0  0  0  0  0  0  0  0  0  0  0  0
   10.8730    4.3480  -60.2320 C   0  0  2  0  0  0  0  0  0  0  0  0
   10.4150    5.6110  -59.4860 C   0  0  0  0  0  0  0  0  0  0  0  0
    9.3090    5.2540  -58.4790 C   0  0  2  0  0  0  0  0  0  0  0  0
    9.8520    4.2230  -57.4750 C   0  0  0  0  0  0  0  0  0  0  0  0
    8.1120    4.6470  -59.2320 C   0  0  0  0  0  0  0  0  0  0  0  0
    9.6730    3.7370  -60.9740 C   0  0  0  0  0  0  0  0  0  0  0  0
    5.2600    1.9120  -61.1660 C   0  0  0  0  0  0  0  0  0  0  0  0
    4.2500    0.9800  -61.0150 C   0  0  0  0  0  0  0  0  0  0  0  0
    3.6050    0.9240  -62.2620 C   0  0  0  0  0  0  0  0  0  0  0  0
    4.1660    1.7410  -63.1560 N   0  0  0  0  0  0  0  0  0  0  0  0
    5.1860    2.2940  -62.4800 N   0  0  0  0  0  0  0  0  0  0  0  0
    7.3780    3.0850  -61.7250 H   0  0  0  0  0  0  0  0  0  0  0  0
    8.3370    2.0697  -58.2430 H   0  0  0  0  0  0  0  0  0  0  0  0
    9.4610    1.4545  -59.5141 H   0  0  0  0  0  0  0  0  0  0  0  0
   10.7057    2.2255  -57.4904 H   0  0  0  0  0  0  0  0  0  0  0  0
   12.2675    3.7621  -58.6818 H   0  0  0  0  0  0  0  0  0  0  0  0
   11.7340    2.4206  -59.7559 H   0  0  0  0  0  0  0  0  0  0  0  0
   11.6632    4.6097  -60.9511 H   0  0  0  0  0  0  0  0  0  0  0  0
   11.2701    6.0471  -58.9488 H   0  0  0  0  0  0  0  0  0  0  0  0
   10.0216    6.3372  -60.2125 H   0  0  0  0  0  0  0  0  0  0  0  0
    8.9885    6.1602  -57.9441 H   0  0  0  0  0  0  0  0  0  0  0  0
   10.7045    4.6578  -56.9326 H   0  0  0  0  0  0  0  0  0  0  0  0
    9.0537    3.9560  -56.7669 H   0  0  0  0  0  0  0  0  0  0  0  0
    7.3187    4.4002  -58.5110 H   0  0  0  0  0  0  0  0  0  0  0  0
    7.7450    5.3805  -59.9650 H   0  0  0  0  0  0  0  0  0  0  0  0
    9.2891    4.4684  -61.7005 H   0  0  0  0  0  0  0  0  0  0  0  0
   10.0069    2.8228  -61.4866 H   0  0  0  0  0  0  0  0  0  0  0  0
    4.0037    0.4045  -60.1105 H   0  0  0  0  0  0  0  0  0  0  0  0
    2.7383    0.2815  -62.4766 H   0  0  0  0  0  0  0  0  0  0  0  0
    5.8100    2.9160  -62.9810 H   0  0  0  0  0  0  0  0  0  0  0  0
  1  2  2  0
  2  3  1  0
  4  3  1  6
  4  5  1  0
  5  6  1  0
  6  7  1  0
  7  8  1  0
  8  9  1  0
  9 10  1  0
 10 11  1  0
 10 12  1  0
  8 13  1  0
  2 14  1  0
 14 15  2  0
 15 16  1  0
 16 17  2  0
 17 18  1  0
 12  4  1  0
 18 14  1  0
 13  4  1  0
 11  6  1  0
  3 19  1  0
  5 20  1  0
  5 21  1  0
  6 22  1  1
  7 23  1  0
  7 24  1  0
  8 25  1  6
  9 26  1  0
  9 27  1  0
 10 28  1  1
 11 29  1  0
 11 30  1  0
 12 31  1  0
 12 32  1  0
 13 33  1  0
 13 34  1  0
 15 35  1  0
 16 36  1  0
 18 37  1  0
M  END
>  <meeko>  (45) 
{"is_sidechain": false}

$$$$

     RDKit          3D

 36 39  0  0  0  0  0  0  0  0999 V2000
    5.9010    2.3760  -58.9730 O   0  0  0  0  0  0  0  0  0  0  0  0
    6.1400    2.3830  -60.1770 C   0  0  0  0  0  0  0  0  0  0  0  0
    7.3280    2.8450  -60.7080 N   0  0  0  0  0  0  0  0  0  0  0  0
    8.4550    3.3800  -59.9410 C   0  0  2  0  0  0  0  0  0  0  0  0
    8.9960    2.3480  -58.9200 C   0  0  0  0  0  0  0  0  0  0  0  0
   10.2100    2.9190  -58.1650 C   0  0  1  0  0  0  0  0  0  0  0  0
   11.3230    3.2510  -59.1700 C   0  0  0  0  0  0  0  0  0  0  0  0
   10.8210    4.2900  -60.1840 C   0  0  2  0  0  0  0  0  0  0  0  0
   10.4050    5.5690  -59.4410 C   0  0  0  0  0  0  0  0  0  0  0  0
    9.2850    5.2500  -58.4370 C   0  0  2  0  0  0  0  0  0  0  0  0
    9.7900    4.2040  -57.4290 C   0  0  0  0  0  0  0  0  0  0  0  0
    8.0710    4.6810  -59.1930 C   0  0  0  0  0  0  0  0  0  0  0  0
    9.6040    3.7200  -60.9290 C   0  0  0  0  0  0  0  0  0  0  0  0
    5.1950    1.9060  -61.1580 C   0  0  0  0  0  0  0  0  0  0  0  0
    4.1040    1.0750  -61.0510 C   0  0  0  0  0  0  0  0  0  0  0  0
    3.5970    0.9970  -62.3580 C   0  0  0  0  0  0  0  0  0  0  0  0
    4.3150    1.7230  -63.2190 N   0  0  0  0  0  0  0  0  0  0  0  0
    5.3230    2.2960  -62.4610 O   0  0  0  0  0  0  0  0  0  0  0  0
    7.4170    2.8020  -61.7180 H   0  0  0  0  0  0  0  0  0  0  0  0
    8.2030    2.1040  -58.1977 H   0  0  0  0  0  0  0  0  0  0  0  0
    9.3085    1.4431  -59.4617 H   0  0  0  0  0  0  0  0  0  0  0  0
   10.5768    2.1784  -57.4391 H   0  0  0  0  0  0  0  0  0  0  0  0
   12.1913    3.6577  -58.6310 H   0  0  0  0  0  0  0  0  0  0  0  0
   11.6124    2.3344  -59.7048 H   0  0  0  0  0  0  0  0  0  0  0  0
   11.6219    4.5239  -60.9009 H   0  0  0  0  0  0  0  0  0  0  0  0
   11.2730    5.9763  -58.9019 H   0  0  0  0  0  0  0  0  0  0  0  0
   10.0392    6.3081  -60.1690 H   0  0  0  0  0  0  0  0  0  0  0  0
    8.9931    6.1673  -57.9048 H   0  0  0  0  0  0  0  0  0  0  0  0
   10.6552    4.6110  -56.8852 H   0  0  0  0  0  0  0  0  0  0  0  0
    8.9815    3.9659  -56.7221 H   0  0  0  0  0  0  0  0  0  0  0  0
    7.2681    4.4610  -58.4740 H   0  0  0  0  0  0  0  0  0  0  0  0
    7.7304    5.4252  -59.9280 H   0  0  0  0  0  0  0  0  0  0  0  0
    9.2455    4.4647  -61.6549 H   0  0  0  0  0  0  0  0  0  0  0  0
    9.9089    2.7964  -61.4427 H   0  0  0  0  0  0  0  0  0  0  0  0
    3.7166    0.5831  -60.1466 H   0  0  0  0  0  0  0  0  0  0  0  0
    2.7123    0.4072  -62.6398 H   0  0  0  0  0  0  0  0  0  0  0  0
  1  2  2  0
  2  3  1  0
  4  3  1  6
  4  5  1  0
  5  6  1  0
  6  7  1  0
  7  8  1  0
  8  9  1  0
  9 10  1  0
 10 11  1  0
 10 12  1  0
  8 13  1  0
  2 14  1  0
 14 15  2  0
 15 16  1  0
 16 17  2  0
 17 18  1  0
 12  4  1  0
 18 14  1  0
 13  4  1  0
 11  6  1  0
  3 19  1  0
  5 20  1  0
  5 21  1  0
  6 22  1  1
  7 23  1  0
  7 24  1  0
  8 25  1  6
  9 26  1  0
  9 27  1  0
 10 28  1  1
 11 29  1  0
 11 30  1  0
 12 31  1  0
 12 32  1  0
 13 33  1  0
 13 34  1  0
 15 35  1  0
 16 36  1  0
M  END
>  <meeko>  (46) 
{"is_sidechain": false}

$$$$

     RDKit          3D

 37 40  0  0  0  0  0  0  0  0999 V2000
    6.0350    2.3670  -59.0020 O   0  0  0  0  0  0  0  0  0  0  0  0
    6.2540    2.4230  -60.2070 C   0  0  0  0  0  0  0  0  0  0  0  0
    7.4360    2.8850  -60.7460 N   0  0  0  0  0  0  0  0  0  0  0  0
    8.5600    3.4140  -59.9650 C   0  0  2  0  0  0  0  0  0  0  0  0
    8.1710    4.7070  -59.2070 C   0  0  0  0  0  0  0  0  0  0  0  0
    9.3820    5.2720  -58.4430 C   0  0  1  0  0  0  0  0  0  0  0  0
    9.8880    4.2180  -57.4440 C   0  0  0  0  0  0  0  0  0  0  0  0
   10.3140    2.9420  -58.1900 C   0  0  2  0  0  0  0  0  0  0  0  0
   11.4290    3.2870  -59.1880 C   0  0  0  0  0  0  0  0  0  0  0  0
   10.9260    4.3320  -60.1950 C   0  0  2  0  0  0  0  0  0  0  0  0
   10.5030    5.6030  -59.4410 C   0  0  0  0  0  0  0  0  0  0  0  0
    9.7120    3.7650  -60.9470 C   0  0  0  0  0  0  0  0  0  0  0  0
    9.1040    2.3730  -58.9540 C   0  0  0  0  0  0  0  0  0  0  0  0
    5.2450    2.0150  -61.1910 C   0  0  0  0  0  0  0  0  0  0  0  0
    5.1890    2.3110  -62.5990 C   0  0  0  0  0  0  0  0  0  0  0  0
    4.0890    1.7600  -63.2220 C   0  0  0  0  0  0  0  0  0  0  0  0
    3.1170    0.8750  -62.1350 S   0  0  0  0  0  0  0  0  0  0  0  0
    4.1670    1.2210  -60.8330 C   0  0  0  0  0  0  0  0  0  0  0  0
    7.4450    3.0720  -61.7370 H   0  0  0  0  0  0  0  0  0  0  0  0
    7.8173    5.4572  -59.9296 H   0  0  0  0  0  0  0  0  0  0  0  0
    7.3756    4.4694  -58.4852 H   0  0  0  0  0  0  0  0  0  0  0  0
    9.0862    6.1834  -57.9029 H   0  0  0  0  0  0  0  0  0  0  0  0
   10.7505    4.6228  -56.8942 H   0  0  0  0  0  0  0  0  0  0  0  0
    9.0783    3.9704  -56.7418 H   0  0  0  0  0  0  0  0  0  0  0  0
   10.6808    2.1959  -57.4697 H   0  0  0  0  0  0  0  0  0  0  0  0
   12.2936    3.6931  -58.6425 H   0  0  0  0  0  0  0  0  0  0  0  0
   11.7244    2.3761  -59.7293 H   0  0  0  0  0  0  0  0  0  0  0  0
   11.7276    4.5738  -60.9085 H   0  0  0  0  0  0  0  0  0  0  0  0
   11.3682    6.0085  -58.8960 H   0  0  0  0  0  0  0  0  0  0  0  0
   10.1360    6.3468  -60.1635 H   0  0  0  0  0  0  0  0  0  0  0  0
    9.3537    4.5146  -61.6679 H   0  0  0  0  0  0  0  0  0  0  0  0
   10.0207    2.8458  -61.4664 H   0  0  0  0  0  0  0  0  0  0  0  0
    9.4125    1.4678  -59.4976 H   0  0  0  0  0  0  0  0  0  0  0  0
    8.3102    2.1307  -58.2321 H   0  0  0  0  0  0  0  0  0  0  0  0
    5.9451    2.9140  -63.1232 H   0  0  0  0  0  0  0  0  0  0  0  0
    3.8650    1.8773  -64.2926 H   0  0  0  0  0  0  0  0  0  0  0  0
    4.0036    0.8499  -59.8104 H   0  0  0  0  0  0  0  0  0  0  0  0
  1  2  2  0
  2  3  1  0
  4  3  1  6
  4  5  1  0
  5  6  1  0
  6  7  1  0
  7  8  1  0
  8  9  1  0
  9 10  1  0
 10 11  1  0
 10 12  1  0
  8 13  1  0
  2 14  1  0
 14 15  1  0
 15 16  2  0
 16 17  1  0
 17 18  1  0
 12  4  1  0
 18 14  2  0
 13  4  1  0
 11  6  1  0
  3 19  1  0
  5 20  1  0
  5 21  1  0
  6 22  1  1
  7 23  1  0
  7 24  1  0
  8 25  1  1
  9 26  1  0
  9 27  1  0
 10 28  1  6
 11 29  1  0
 11 30  1  0
 12 31  1  0
 12 32  1  0
 13 33  1  0
 13 34  1  0
 15 35  1  0
 16 36  1  0
 18 37  1  0
M  END
>  <meeko>  (47) 
{"is_sidechain": false}

$$$$

     RDKit          3D

 37 40  0  0  0  0  0  0  0  0999 V2000
    5.9550    2.4150  -59.0050 O   0  0  0  0  0  0  0  0  0  0  0  0
    6.1820    2.4270  -60.2120 C   0  0  0  0  0  0  0  0  0  0  0  0
    7.3710    2.8920  -60.7350 N   0  0  0  0  0  0  0  0  0  0  0  0
    8.4970    3.4210  -59.9640 C   0  0  2  0  0  0  0  0  0  0  0  0
    9.6480    3.7600  -60.9510 C   0  0  0  0  0  0  0  0  0  0  0  0
   10.8680    4.3230  -60.2040 C   0  0  1  0  0  0  0  0  0  0  0  0
   10.4560    5.5990  -59.4550 C   0  0  0  0  0  0  0  0  0  0  0  0
    9.3350    5.2810  -58.4540 C   0  0  2  0  0  0  0  0  0  0  0  0
    9.8340    4.2290  -57.4490 C   0  0  0  0  0  0  0  0  0  0  0  0
   10.2500    2.9460  -58.1890 C   0  0  2  0  0  0  0  0  0  0  0  0
   11.3650    3.2780  -59.1930 C   0  0  0  0  0  0  0  0  0  0  0  0
    9.0340    2.3830  -58.9480 C   0  0  0  0  0  0  0  0  0  0  0  0
    8.1180    4.7200  -59.2130 C   0  0  0  0  0  0  0  0  0  0  0  0
    5.2090    1.9480  -61.1900 C   0  0  0  0  0  0  0  0  0  0  0  0
    4.1270    1.1220  -60.9390 C   0  0  0  0  0  0  0  0  0  0  0  0
    3.3660    0.8380  -62.1100 C   0  0  0  0  0  0  0  0  0  0  0  0
    3.8900    1.4550  -63.2220 C   0  0  0  0  0  0  0  0  0  0  0  0
    5.2870    2.3690  -62.8520 S   0  0  0  0  0  0  0  0  0  0  0  0
    7.4560    2.8580  -61.7440 H   0  0  0  0  0  0  0  0  0  0  0  0
    9.9443    2.8454  -61.4855 H   0  0  0  0  0  0  0  0  0  0  0  0
    9.2890    4.5216  -61.6589 H   0  0  0  0  0  0  0  0  0  0  0  0
   11.6695    4.5569  -60.9201 H   0  0  0  0  0  0  0  0  0  0  0  0
   11.3252    6.0003  -58.9133 H   0  0  0  0  0  0  0  0  0  0  0  0
   10.0929    6.3423  -60.1800 H   0  0  0  0  0  0  0  0  0  0  0  0
    9.0473    6.1979  -57.9188 H   0  0  0  0  0  0  0  0  0  0  0  0
   10.6998    4.6304  -56.9020 H   0  0  0  0  0  0  0  0  0  0  0  0
    9.0234    3.9913  -56.7445 H   0  0  0  0  0  0  0  0  0  0  0  0
   10.6137    2.2015  -57.4655 H   0  0  0  0  0  0  0  0  0  0  0  0
   12.2346    3.6794  -58.6520 H   0  0  0  0  0  0  0  0  0  0  0  0
   11.6505    2.3622  -59.7313 H   0  0  0  0  0  0  0  0  0  0  0  0
    9.3341    1.4720  -59.4865 H   0  0  0  0  0  0  0  0  0  0  0  0
    8.2393    2.1524  -58.2232 H   0  0  0  0  0  0  0  0  0  0  0  0
    7.3136    4.5013  -58.4953 H   0  0  0  0  0  0  0  0  0  0  0  0
    7.7808    5.4681  -59.9456 H   0  0  0  0  0  0  0  0  0  0  0  0
    3.8809    0.7270  -59.9423 H   0  0  0  0  0  0  0  0  0  0  0  0
    2.4683    0.2024  -62.1230 H   0  0  0  0  0  0  0  0  0  0  0  0
    3.4606    1.3704  -64.2312 H   0  0  0  0  0  0  0  0  0  0  0  0
  1  2  2  0
  2  3  1  0
  4  3  1  6
  4  5  1  0
  5  6  1  0
  6  7  1  0
  7  8  1  0
  8  9  1  0
  9 10  1  0
 10 11  1  0
 10 12  1  0
  8 13  1  0
  2 14  1  0
 14 15  2  0
 15 16  1  0
 16 17  2  0
 17 18  1  0
 12  4  1  0
 18 14  1  0
 13  4  1  0
 11  6  1  0
  3 19  1  0
  5 20  1  0
  5 21  1  0
  6 22  1  6
  7 23  1  0
  7 24  1  0
  8 25  1  1
  9 26  1  0
  9 27  1  0
 10 28  1  1
 11 29  1  0
 11 30  1  0
 12 31  1  0
 12 32  1  0
 13 33  1  0
 13 34  1  0
 15 35  1  0
 16 36  1  0
 17 37  1  0
M  END
>  <meeko>  (48) 
{"is_sidechain": false}

$$$$

     RDKit          3D

 37 40  0  0  0  0  0  0  0  0999 V2000
    5.8890    2.3540  -59.0480 O   0  0  0  0  0  0  0  0  0  0  0  0
    6.1270    2.3640  -60.2500 C   0  0  0  0  0  0  0  0  0  0  0  0
    7.3050    2.8320  -60.7910 N   0  0  0  0  0  0  0  0  0  0  0  0
    8.4250    3.3800  -60.0190 C   0  0  2  0  0  0  0  0  0  0  0  0
    9.5780    3.7190  -61.0030 C   0  0  0  0  0  0  0  0  0  0  0  0
   10.7890    4.3000  -60.2550 C   0  0  1  0  0  0  0  0  0  0  0  0
   10.3620    5.5810  -59.5230 C   0  0  0  0  0  0  0  0  0  0  0  0
    9.2380    5.2640  -58.5240 C   0  0  2  0  0  0  0  0  0  0  0  0
    9.7430    4.2260  -57.5060 C   0  0  0  0  0  0  0  0  0  0  0  0
   10.1730    2.9390  -58.2300 C   0  0  2  0  0  0  0  0  0  0  0  0
   11.2910    3.2700  -59.2310 C   0  0  0  0  0  0  0  0  0  0  0  0
    8.9660    2.3570  -58.9880 C   0  0  0  0  0  0  0  0  0  0  0  0
    8.0310    4.6850  -59.2820 C   0  0  0  0  0  0  0  0  0  0  0  0
    5.1640    1.8670  -61.2230 C   0  0  0  0  0  0  0  0  0  0  0  0
    4.1180    0.9000  -61.1190 C   0  0  0  0  0  0  0  0  0  0  0  0
    3.5240    0.8280  -62.3580 C   0  0  0  0  0  0  0  0  0  0  0  0
    4.1260    1.6800  -63.2230 O   0  0  0  0  0  0  0  0  0  0  0  0
    5.1130    2.3030  -62.5340 C   0  0  0  0  0  0  0  0  0  0  0  0
    7.4100    2.7990  -61.7930 H   0  0  0  0  0  0  0  0  0  0  0  0
    9.8851    2.8017  -61.5267 H   0  0  0  0  0  0  0  0  0  0  0  0
    9.2163    4.4703  -61.7205 H   0  0  0  0  0  0  0  0  0  0  0  0
   11.5928    4.5329  -60.9689 H   0  0  0  0  0  0  0  0  0  0  0  0
   11.2247    5.9961  -58.9814 H   0  0  0  0  0  0  0  0  0  0  0  0
    9.9966    6.3130  -60.2583 H   0  0  0  0  0  0  0  0  0  0  0  0
    8.9387    6.1836  -57.9999 H   0  0  0  0  0  0  0  0  0  0  0  0
   10.6033    4.6408  -56.9602 H   0  0  0  0  0  0  0  0  0  0  0  0
    8.9315    3.9885  -56.8024 H   0  0  0  0  0  0  0  0  0  0  0  0
   10.5390    2.2049  -57.4971 H   0  0  0  0  0  0  0  0  0  0  0  0
   12.1541    3.6848  -58.6897 H   0  0  0  0  0  0  0  0  0  0  0  0
   11.5887    2.3514  -59.7578 H   0  0  0  0  0  0  0  0  0  0  0  0
    9.2765    1.4426  -59.5147 H   0  0  0  0  0  0  0  0  0  0  0  0
    8.1698    2.1275  -58.2646 H   0  0  0  0  0  0  0  0  0  0  0  0
    7.2252    4.4666  -58.5658 H   0  0  0  0  0  0  0  0  0  0  0  0
    7.6910    5.4226  -60.0239 H   0  0  0  0  0  0  0  0  0  0  0  0
    3.8413    0.3249  -60.2230 H   0  0  0  0  0  0  0  0  0  0  0  0
    2.6789    0.1709  -62.6110 H   0  0  0  0  0  0  0  0  0  0  0  0
    5.7872    3.0589  -62.9630 H   0  0  0  0  0  0  0  0  0  0  0  0
  1  2  2  0
  2  3  1  0
  4  3  1  6
  4  5  1  0
  5  6  1  0
  6  7  1  0
  7  8  1  0
  8  9  1  0
  9 10  1  0
 10 11  1  0
 10 12  1  0
  8 13  1  0
  2 14  1  0
 14 15  1  0
 15 16  2  0
 16 17  1  0
 17 18  1  0
 12  4  1  0
 18 14  2  0
 13  4  1  0
 11  6  1  0
  3 19  1  0
  5 20  1  0
  5 21  1  0
  6 22  1  6
  7 23  1  0
  7 24  1  0
  8 25  1  1
  9 26  1  0
  9 27  1  0
 10 28  1  1
 11 29  1  0
 11 30  1  0
 12 31  1  0
 12 32  1  0
 13 33  1  0
 13 34  1  0
 15 35  1  0
 16 36  1  0
 18 37  1  0
M  END
>  <meeko>  (49) 
{"is_sidechain": false}

$$$$

     RDKit          3D

 32 34  0  0  0  0  0  0  0  0999 V2000
   13.0440    7.2960  -60.2340 C   0  0  0  0  0  0  0  0  0  0  0  0
   11.9300    6.4030  -60.2330 O   0  0  0  0  0  0  0  0  0  0  0  0
   12.0050    5.4170  -59.2920 C   0  0  0  0  0  0  0  0  0  0  0  0
   12.9540    5.2570  -58.5350 O   0  0  0  0  0  0  0  0  0  0  0  0
   10.7520    4.5460  -59.3130 C   0  0  2  0  0  0  0  0  0  0  0  0
   10.2960    4.3010  -60.7730 C   0  0  0  0  0  0  0  0  0  0  0  0
    9.0340    3.4230  -60.8070 C   0  0  1  0  0  0  0  0  0  0  0  0
    9.3400    2.0730  -60.1380 C   0  0  0  0  0  0  0  0  0  0  0  0
    9.7750    2.2950  -58.6800 C   0  0  2  0  0  0  0  0  0  0  0  0
    8.6460    3.0100  -57.9170 C   0  0  0  0  0  0  0  0  0  0  0  0
    8.3340    4.3640  -58.5780 C   0  0  2  0  0  0  0  0  0  0  0  0
    7.9070    4.1290  -60.0360 C   0  0  0  0  0  0  0  0  0  0  0  0
    9.5980    5.2410  -58.5540 C   0  0  0  0  0  0  0  0  0  0  0  0
   11.0370    3.1750  -58.6560 C   0  0  0  0  0  0  0  0  0  0  0  0
   13.3307    7.5258  -59.1972 H   0  0  0  0  0  0  0  0  0  0  0  0
   13.8916    6.8243  -60.7528 H   0  0  0  0  0  0  0  0  0  0  0  0
   12.7681    8.2259  -60.7528 H   0  0  0  0  0  0  0  0  0  0  0  0
   10.0766    5.2676  -61.2500 H   0  0  0  0  0  0  0  0  0  0  0  0
   11.1021    3.7835  -61.3137 H   0  0  0  0  0  0  0  0  0  0  0  0
    8.7226    3.2577  -61.8490 H   0  0  0  0  0  0  0  0  0  0  0  0
    8.4377    1.4442  -60.1572 H   0  0  0  0  0  0  0  0  0  0  0  0
   10.1537    1.5749  -60.6856 H   0  0  0  0  0  0  0  0  0  0  0  0
    9.9884    1.3258  -58.2055 H   0  0  0  0  0  0  0  0  0  0  0  0
    7.7431    2.3819  -57.9312 H   0  0  0  0  0  0  0  0  0  0  0  0
    8.9667    3.1822  -56.8790 H   0  0  0  0  0  0  0  0  0  0  0  0
    7.5228    4.8669  -58.0312 H   0  0  0  0  0  0  0  0  0  0  0  0
    7.0042    3.5009  -60.0544 H   0  0  0  0  0  0  0  0  0  0  0  0
    7.6969    5.0985  -60.5113 H   0  0  0  0  0  0  0  0  0  0  0  0
    9.3784    6.2062  -59.0337 H   0  0  0  0  0  0  0  0  0  0  0  0
    9.9027    5.3985  -57.5088 H   0  0  0  0  0  0  0  0  0  0  0  0
   11.3500    3.3311  -57.6131 H   0  0  0  0  0  0  0  0  0  0  0  0
   11.8351    2.6690  -59.2190 H   0  0  0  0  0  0  0  0  0  0  0  0
  1  2  1  0
  2  3  1  0
  3  4  2  0
  5  3  1  6
  5  6  1  0
  6  7  1  0
  7  8  1  0
  8  9  1  0
  9 10  1  0
 10 11  1  0
 11 12  1  0
 11 13  1  0
  9 14  1  0
 13  5  1  0
 14  5  1  0
 12  7  1  0
  1 15  1  0
  1 16  1  0
  1 17  1  0
  6 18  1  0
  6 19  1  0
  7 20  1  6
  8 21  1  0
  8 22  1  0
  9 23  1  1
 10 24  1  0
 10 25  1  0
 11 26  1  1
 12 27  1  0
 12 28  1  0
 13 29  1  0
 13 30  1  0
 14 31  1  0
 14 32  1  0
M  END
>  <meeko>  (50) 
{"is_sidechain": false}

$$$$

     RDKit          3D

 36 39  0  0  0  0  0  0  0  0999 V2000
    5.8910    2.3570  -59.0580 O   0  0  0  0  0  0  0  0  0  0  0  0
    6.1280    2.3920  -60.2630 C   0  0  0  0  0  0  0  0  0  0  0  0
    7.3190    2.8720  -60.7840 N   0  0  0  0  0  0  0  0  0  0  0  0
    8.4430    3.3980  -60.0120 C   0  0  2  0  0  0  0  0  0  0  0  0
    8.9810    2.3560  -58.9990 C   0  0  0  0  0  0  0  0  0  0  0  0
   10.1950    2.9160  -58.2380 C   0  0  1  0  0  0  0  0  0  0  0  0
   11.3110    3.2550  -59.2390 C   0  0  0  0  0  0  0  0  0  0  0  0
   10.8130    4.3040  -60.2450 C   0  0  2  0  0  0  0  0  0  0  0  0
   10.3990    5.5760  -59.4900 C   0  0  0  0  0  0  0  0  0  0  0  0
    9.2770    5.2520  -58.4910 C   0  0  2  0  0  0  0  0  0  0  0  0
    9.7780    4.1950  -57.4920 C   0  0  0  0  0  0  0  0  0  0  0  0
    8.0620    4.6930  -59.2530 C   0  0  0  0  0  0  0  0  0  0  0  0
    9.5940    3.7430  -60.9960 C   0  0  0  0  0  0  0  0  0  0  0  0
    5.2030    1.9360  -61.2940 C   0  0  0  0  0  0  0  0  0  0  0  0
    5.1960    2.3400  -62.5570 N   0  0  0  0  0  0  0  0  0  0  0  0
    4.1580    1.6360  -63.1150 C   0  0  0  0  0  0  0  0  0  0  0  0
    3.5750    0.8320  -62.1700 C   0  0  0  0  0  0  0  0  0  0  0  0
    4.2350    1.0130  -60.9930 O   0  0  0  0  0  0  0  0  0  0  0  0
    7.3850    2.8440  -61.7980 H   0  0  0  0  0  0  0  0  0  0  0  0
    8.1867    2.1078  -58.2797 H   0  0  0  0  0  0  0  0  0  0  0  0
    9.2921    1.4554  -59.5487 H   0  0  0  0  0  0  0  0  0  0  0  0
   10.5586    2.1674  -57.5187 H   0  0  0  0  0  0  0  0  0  0  0  0
   12.1792    3.6553  -58.6950 H   0  0  0  0  0  0  0  0  0  0  0  0
   11.5992    2.3425  -59.7814 H   0  0  0  0  0  0  0  0  0  0  0  0
   11.6146    4.5424  -60.9596 H   0  0  0  0  0  0  0  0  0  0  0  0
   11.2674    5.9755  -58.9457 H   0  0  0  0  0  0  0  0  0  0  0  0
   10.0357    6.3224  -60.2117 H   0  0  0  0  0  0  0  0  0  0  0  0
    8.9870    6.1657  -57.9515 H   0  0  0  0  0  0  0  0  0  0  0  0
   10.6438    4.5946  -56.9436 H   0  0  0  0  0  0  0  0  0  0  0  0
    8.9677    3.9528  -56.7886 H   0  0  0  0  0  0  0  0  0  0  0  0
    7.2579    4.4688  -58.5366 H   0  0  0  0  0  0  0  0  0  0  0  0
    7.7240    5.4446  -59.9816 H   0  0  0  0  0  0  0  0  0  0  0  0
    9.2382    4.4946  -61.7161 H   0  0  0  0  0  0  0  0  0  0  0  0
    9.8969    2.8226  -61.5167 H   0  0  0  0  0  0  0  0  0  0  0  0
    3.8407    1.7066  -64.1659 H   0  0  0  0  0  0  0  0  0  0  0  0
    2.7218    0.1575  -62.3342 H   0  0  0  0  0  0  0  0  0  0  0  0
  1  2  2  0
  2  3  1  0
  4  3  1  6
  4  5  1  0
  5  6  1  0
  6  7  1  0
  7  8  1  0
  8  9  1  0
  9 10  1  0
 10 11  1  0
 10 12  1  0
  8 13  1  0
  2 14  1  0
 14 15  2  0
 15 16  1  0
 16 17  2  0
 17 18  1  0
 12  4  1  0
 18 14  1  0
 13  4  1  0
 11  6  1  0
  3 19  1  0
  5 20  1  0
  5 21  1  0
  6 22  1  1
  7 23  1  0
  7 24  1  0
  8 25  1  6
  9 26  1  0
  9 27  1  0
 10 28  1  1
 11 29  1  0
 11 30  1  0
 12 31  1  0
 12 32  1  0
 13 33  1  0
 13 34  1  0
 16 35  1  0
 17 36  1  0
M  END
>  <meeko>  (51) 
{"is_sidechain": false}

$$$$

     RDKit          3D

 36 39  0  0  0  0  0  0  0  0999 V2000
    5.9210    2.3880  -59.0680 O   0  0  0  0  0  0  0  0  0  0  0  0
    6.1630    2.3890  -60.2710 C   0  0  0  0  0  0  0  0  0  0  0  0
    7.3740    2.8260  -60.7910 N   0  0  0  0  0  0  0  0  0  0  0  0
    8.4700    3.3830  -59.9900 C   0  0  2  0  0  0  0  0  0  0  0  0
    8.9870    2.3760  -58.9310 C   0  0  0  0  0  0  0  0  0  0  0  0
   10.1710    2.9730  -58.1480 C   0  0  1  0  0  0  0  0  0  0  0  0
   11.3160    3.2930  -59.1210 C   0  0  0  0  0  0  0  0  0  0  0  0
   10.8390    4.3050  -60.1740 C   0  0  2  0  0  0  0  0  0  0  0  0
   10.3880    5.5950  -59.4730 C   0  0  0  0  0  0  0  0  0  0  0  0
    9.2380    5.2900  -58.5010 C   0  0  2  0  0  0  0  0  0  0  0  0
    9.7170    4.2690  -57.4550 C   0  0  0  0  0  0  0  0  0  0  0  0
    8.0540    4.6970  -59.2840 C   0  0  0  0  0  0  0  0  0  0  0  0
    9.6520    3.7080  -60.9450 C   0  0  0  0  0  0  0  0  0  0  0  0
    5.1870    1.9400  -61.2780 C   0  0  0  0  0  0  0  0  0  0  0  0
    4.0870    1.0470  -61.1320 C   0  0  0  0  0  0  0  0  0  0  0  0
    3.5150    0.9910  -62.3740 C   0  0  0  0  0  0  0  0  0  0  0  0
    4.2070    1.7860  -63.2230 O   0  0  0  0  0  0  0  0  0  0  0  0
    5.2480    2.3860  -62.5450 N   0  0  0  0  0  0  0  0  0  0  0  0
    7.4200    2.9780  -61.7870 H   0  0  0  0  0  0  0  0  0  0  0  0
    8.1730    2.1386  -58.2302 H   0  0  0  0  0  0  0  0  0  0  0  0
    9.3252    1.4638  -59.4444 H   0  0  0  0  0  0  0  0  0  0  0  0
   10.5183    2.2504  -57.3948 H   0  0  0  0  0  0  0  0  0  0  0  0
   12.1616    3.7197  -58.5616 H   0  0  0  0  0  0  0  0  0  0  0  0
   11.6328    2.3679  -59.6248 H   0  0  0  0  0  0  0  0  0  0  0  0
   11.6607    4.5305  -60.8696 H   0  0  0  0  0  0  0  0  0  0  0  0
   11.2343    6.0209  -58.9140 H   0  0  0  0  0  0  0  0  0  0  0  0
   10.0406    6.3145  -60.2291 H   0  0  0  0  0  0  0  0  0  0  0  0
    8.9220    6.2161  -57.9985 H   0  0  0  0  0  0  0  0  0  0  0  0
   10.5604    4.6945  -56.8914 H   0  0  0  0  0  0  0  0  0  0  0  0
    8.8867    4.0389  -56.7711 H   0  0  0  0  0  0  0  0  0  0  0  0
    7.2288    4.4874  -58.5875 H   0  0  0  0  0  0  0  0  0  0  0  0
    7.7341    5.4228  -60.0461 H   0  0  0  0  0  0  0  0  0  0  0  0
    9.3142    4.4321  -61.7010 H   0  0  0  0  0  0  0  0  0  0  0  0
    9.9810    2.7738  -61.4236 H   0  0  0  0  0  0  0  0  0  0  0  0
    3.7676    0.5187  -60.2215 H   0  0  0  0  0  0  0  0  0  0  0  0
    2.6309    0.3932  -62.6406 H   0  0  0  0  0  0  0  0  0  0  0  0
  1  2  2  0
  2  3  1  0
  4  3  1  6
  4  5  1  0
  5  6  1  0
  6  7  1  0
  7  8  1  0
  8  9  1  0
  9 10  1  0
 10 11  1  0
 10 12  1  0
  8 13  1  0
  2 14  1  0
 14 15  1  0
 15 16  2  0
 16 17  1  0
 17 18  1  0
 12  4  1  0
 18 14  2  0
 13  4  1  0
 11  6  1  0
  3 19  1  0
  5 20  1  0
  5 21  1  0
  6 22  1  1
  7 23  1  0
  7 24  1  0
  8 25  1  6
  9 26  1  0
  9 27  1  0
 10 28  1  1
 11 29  1  0
 11 30  1  0
 12 31  1  0
 12 32  1  0
 13 33  1  0
 13 34  1  0
 15 35  1  0
 16 36  1  0
M  END
>  <meeko>  (52) 
{"is_sidechain": false}

$$$$

     RDKit          3D

 36 39  0  0  0  0  0  0  0  0999 V2000
    5.9450    2.1780  -58.9560 O   0  0  0  0  0  0  0  0  0  0  0  0
    6.1450    2.3430  -60.1540 C   0  0  0  0  0  0  0  0  0  0  0  0
    7.2680    2.9230  -60.6960 N   0  0  0  0  0  0  0  0  0  0  0  0
    8.4110    3.4430  -59.9490 C   0  0  2  0  0  0  0  0  0  0  0  0
    8.0520    4.7400  -59.1840 C   0  0  0  0  0  0  0  0  0  0  0  0
    9.2850    5.2920  -58.4450 C   0  0  1  0  0  0  0  0  0  0  0  0
    9.7970    4.2330  -57.4540 C   0  0  0  0  0  0  0  0  0  0  0  0
   10.1910    2.9500  -58.2060 C   0  0  2  0  0  0  0  0  0  0  0  0
   11.2900    3.2790  -59.2270 C   0  0  0  0  0  0  0  0  0  0  0  0
   10.7810    4.3300  -60.2260 C   0  0  2  0  0  0  0  0  0  0  0  0
   10.3890    5.6070  -59.4650 C   0  0  0  0  0  0  0  0  0  0  0  0
    9.5450    3.7780  -60.9540 C   0  0  0  0  0  0  0  0  0  0  0  0
    8.9590    2.3980  -58.9450 C   0  0  0  0  0  0  0  0  0  0  0  0
    5.1830    1.9290  -61.1820 C   0  0  0  0  0  0  0  0  0  0  0  0
    4.1050    1.0950  -60.9440 C   0  0  0  0  0  0  0  0  0  0  0  0
    3.2160    0.8440  -62.3880 S   0  0  0  0  0  0  0  0  0  0  0  0
    4.3210    1.8550  -63.2230 C   0  0  0  0  0  0  0  0  0  0  0  0
    5.3000    2.3650  -62.5090 N   0  0  0  0  0  0  0  0  0  0  0  0
    7.2670    2.9790  -61.7110 H   0  0  0  0  0  0  0  0  0  0  0  0
    7.6918    5.4939  -59.8995 H   0  0  0  0  0  0  0  0  0  0  0  0
    7.2690    4.5113  -58.4460 H   0  0  0  0  0  0  0  0  0  0  0  0
    9.0118    6.2082  -57.9011 H   0  0  0  0  0  0  0  0  0  0  0  0
   10.6756    4.6272  -56.9224 H   0  0  0  0  0  0  0  0  0  0  0  0
    8.9984    3.9975  -56.7352 H   0  0  0  0  0  0  0  0  0  0  0  0
   10.5620    2.1998  -57.4921 H   0  0  0  0  0  0  0  0  0  0  0  0
   12.1708    3.6741  -58.6997 H   0  0  0  0  0  0  0  0  0  0  0  0
   11.5618    2.3635  -59.7729 H   0  0  0  0  0  0  0  0  0  0  0  0
   11.5716    4.5607  -60.9552 H   0  0  0  0  0  0  0  0  0  0  0  0
   11.2700    6.0020  -58.9380 H   0  0  0  0  0  0  0  0  0  0  0  0
   10.0167    6.3544  -60.1811 H   0  0  0  0  0  0  0  0  0  0  0  0
    9.1817    4.5317  -61.6681 H   0  0  0  0  0  0  0  0  0  0  0  0
    9.8311    2.8552  -61.4799 H   0  0  0  0  0  0  0  0  0  0  0  0
    9.2436    1.4866  -59.4913 H   0  0  0  0  0  0  0  0  0  0  0  0
    8.1755    2.1708  -58.2071 H   0  0  0  0  0  0  0  0  0  0  0  0
    3.8541    0.6556  -59.9673 H   0  0  0  0  0  0  0  0  0  0  0  0
    4.2164    2.0654  -64.2976 H   0  0  0  0  0  0  0  0  0  0  0  0
  1  2  2  0
  2  3  1  0
  4  3  1  6
  4  5  1  0
  5  6  1  0
  6  7  1  0
  7  8  1  0
  8  9  1  0
  9 10  1  0
 10 11  1  0
 10 12  1  0
  8 13  1  0
  2 14  1  0
 14 15  2  0
 15 16  1  0
 16 17  1  0
 17 18  2  0
 12  4  1  0
 18 14  1  0
 13  4  1  0
 11  6  1  0
  3 19  1  0
  5 20  1  0
  5 21  1  0
  6 22  1  1
  7 23  1  0
  7 24  1  0
  8 25  1  1
  9 26  1  0
  9 27  1  0
 10 28  1  6
 11 29  1  0
 11 30  1  0
 12 31  1  0
 12 32  1  0
 13 33  1  0
 13 34  1  0
 15 35  1  0
 17 36  1  0
M  END
>  <meeko>  (53) 
{"is_sidechain": false}

$$$$

     RDKit          3D

 28 30  0  0  0  0  0  0  0  0999 V2000
   12.3000    6.4150  -59.8630 O   0  0  0  0  0  0  0  0  0  0  0  0
   12.2320    5.4310  -59.0730 C   0  0  0  0  0  0  0  0  0  0  0  0
   13.1100    5.0060  -58.2670 O   0  0  0  0  0  0  0  0  0  0  0  0
   10.9010    4.6380  -59.0890 C   0  0  2  0  0  0  0  0  0  0  0  0
   11.1690    3.2160  -58.5450 C   0  0  0  0  0  0  0  0  0  0  0  0
    9.8860    2.3680  -58.6080 C   0  0  1  0  0  0  0  0  0  0  0  0
    8.7900    3.0410  -57.7630 C   0  0  0  0  0  0  0  0  0  0  0  0
    8.4990    4.4500  -58.3040 C   0  0  2  0  0  0  0  0  0  0  0  0
    8.0330    4.3480  -59.7650 C   0  0  0  0  0  0  0  0  0  0  0  0
    9.1250    3.6840  -60.6200 C   0  0  2  0  0  0  0  0  0  0  0  0
    9.4130    2.2760  -60.0690 C   0  0  0  0  0  0  0  0  0  0  0  0
   10.4110    4.5270  -60.5500 C   0  0  0  0  0  0  0  0  0  0  0  0
    9.7860    5.2890  -58.2410 C   0  0  0  0  0  0  0  0  0  0  0  0
   11.9507    2.7367  -59.1526 H   0  0  0  0  0  0  0  0  0  0  0  0
   11.4972    3.2901  -57.4977 H   0  0  0  0  0  0  0  0  0  0  0  0
   10.0881    1.3597  -58.2174 H   0  0  0  0  0  0  0  0  0  0  0  0
    7.8721    2.4365  -57.8089 H   0  0  0  0  0  0  0  0  0  0  0  0
    9.1343    3.1185  -56.7211 H   0  0  0  0  0  0  0  0  0  0  0  0
    7.7134    4.9252  -57.6981 H   0  0  0  0  0  0  0  0  0  0  0  0
    7.1150    3.7440  -59.8132 H   0  0  0  0  0  0  0  0  0  0  0  0
    7.8355    5.3584  -60.1524 H   0  0  0  0  0  0  0  0  0  0  0  0
    8.7851    3.6136  -61.6638 H   0  0  0  0  0  0  0  0  0  0  0  0
    8.4953    1.6715  -60.1172 H   0  0  0  0  0  0  0  0  0  0  0  0
   10.2021    1.8063  -60.6746 H   0  0  0  0  0  0  0  0  0  0  0  0
   11.1920    4.0486  -61.1592 H   0  0  0  0  0  0  0  0  0  0  0  0
   10.1986    5.5358  -60.9336 H   0  0  0  0  0  0  0  0  0  0  0  0
    9.5794    6.2976  -58.6283 H   0  0  0  0  0  0  0  0  0  0  0  0
   10.1224    5.3447  -57.1952 H   0  0  0  0  0  0  0  0  0  0  0  0
  1  2  2  0
  2  3  1  0
  4  2  1  6
  4  5  1  0
  5  6  1  0
  6  7  1  0
  7  8  1  0
  8  9  1  0
  9 10  1  0
 10 11  1  0
 10 12  1  0
  8 13  1  0
 12  4  1  0
 13  4  1  0
 11  6  1  0
  5 14  1  0
  5 15  1  0
  6 16  1  1
  7 17  1  0
  7 18  1  0
  8 19  1  1
  9 20  1  0
  9 21  1  0
 10 22  1  6
 11 23  1  0
 11 24  1  0
 12 25  1  0
 12 26  1  0
 13 27  1  0
 13 28  1  0
M  CHG  1   3  -1
M  END
>  <meeko>  (54) 
{"is_sidechain": false}

$$$$
