
     RDKit          3D

 56 60  0  0  0  0  0  0  0  0999 V2000
   10.3570   -4.1130  -55.2570 C   0  0  0  0  0  0  0  0  0  0  0  0
   11.4380   -3.2100  -54.6850 C   0  0  0  0  0  0  0  0  0  0  0  0
   10.8900   -2.3310  -53.5640 C   0  0  0  0  0  0  0  0  0  0  0  0
    9.7840   -1.4950  -54.0120 N   0  0  0  0  0  0  0  0  0  0  0  0
    9.9130   -0.5080  -54.9600 C   0  0  0  0  0  0  0  0  0  0  0  0
    8.6820    0.1050  -55.1550 C   0  0  0  0  0  0  0  0  0  0  0  0
    8.4000    1.2160  -56.0670 C   0  0  0  0  0  0  0  0  0  0  0  0
    7.2690    1.6400  -56.2750 O   0  0  0  0  0  0  0  0  0  0  0  0
    9.5070    1.7500  -56.6830 N   0  0  0  0  0  0  0  0  0  0  0  0
    9.4760    2.8470  -57.6430 C   0  0  1  0  0  0  0  0  0  0  0  0
    8.8430    4.1310  -57.0700 C   0  0  0  0  0  0  0  0  0  0  0  0
    8.9540    5.2840  -58.0880 C   0  0  2  0  0  0  0  0  0  0  0  0
    8.2590    4.8770  -59.3990 C   0  0  0  0  0  0  0  0  0  0  0  0
    8.9250    3.6220  -59.9890 C   0  0  1  0  0  0  0  0  0  0  0  0
   10.4130    3.9110  -60.2620 C   0  0  0  0  0  0  0  0  0  0  0  0
   11.1150    4.3310  -58.9650 C   0  0  1  0  0  0  0  0  0  0  0  0
   10.4420    5.5690  -58.3630 C   0  0  0  0  0  0  0  0  0  0  0  0
   10.9460    3.1920  -57.9700 C   0  0  0  0  0  0  0  0  0  0  0  0
   11.9030    2.5950  -57.4780 O   0  0  0  0  0  0  0  0  0  0  0  0
    8.8140    2.4600  -58.9800 C   0  0  0  0  0  0  0  0  0  0  0  0
    7.7950   -0.5680  -54.2680 C   0  0  0  0  0  0  0  0  0  0  0  0
    5.9540   -0.1970  -54.0820 Br  0  0  0  0  0  0  0  0  0  0  0  0
    8.4770   -1.5550  -53.5770 C   0  0  0  0  0  0  0  0  0  0  0  0
    7.9920   -2.4970  -52.5720 C   0  0  0  0  0  0  0  0  0  0  0  0
    7.4210   -3.7130  -52.9670 C   0  0  0  0  0  0  0  0  0  0  0  0
    6.9560   -4.6130  -52.0060 C   0  0  0  0  0  0  0  0  0  0  0  0
    7.0700   -4.2950  -50.6570 C   0  0  0  0  0  0  0  0  0  0  0  0
    6.6240   -5.1580  -49.7360 F   0  0  0  0  0  0  0  0  0  0  0  0
    7.6430   -3.0950  -50.2500 C   0  0  0  0  0  0  0  0  0  0  0  0
    8.1070   -2.1940  -51.2090 C   0  0  0  0  0  0  0  0  0  0  0  0
    9.7968   -4.5810  -54.4341 H   0  0  0  0  0  0  0  0  0  0  0  0
    9.6702   -3.5164  -55.8754 H   0  0  0  0  0  0  0  0  0  0  0  0
   10.8218   -4.8950  -55.8754 H   0  0  0  0  0  0  0  0  0  0  0  0
   12.2518   -3.8335  -54.2863 H   0  0  0  0  0  0  0  0  0  0  0  0
   11.8068   -2.5570  -55.4897 H   0  0  0  0  0  0  0  0  0  0  0  0
   10.5372   -2.9775  -52.7469 H   0  0  0  0  0  0  0  0  0  0  0  0
   11.7005   -1.6677  -53.2276 H   0  0  0  0  0  0  0  0  0  0  0  0
   10.8448   -0.2450  -55.4822 H   0  0  0  0  0  0  0  0  0  0  0  0
   10.4120    1.3160  -56.5390 H   0  0  0  0  0  0  0  0  0  0  0  0
    7.7820    3.9443  -56.8477 H   0  0  0  0  0  0  0  0  0  0  0  0
    9.3771    4.4132  -56.1507 H   0  0  0  0  0  0  0  0  0  0  0  0
    8.4712    6.1860  -57.6839 H   0  0  0  0  0  0  0  0  0  0  0  0
    7.1989    4.6642  -59.1968 H   0  0  0  0  0  0  0  0  0  0  0  0
    8.3466    5.7018  -60.1215 H   0  0  0  0  0  0  0  0  0  0  0  0
    8.4215    3.3488  -60.9280 H   0  0  0  0  0  0  0  0  0  0  0  0
   10.8930    3.0040  -60.6582 H   0  0  0  0  0  0  0  0  0  0  0  0
   10.4926    4.7273  -60.9950 H   0  0  0  0  0  0  0  0  0  0  0  0
   12.1711    4.5556  -59.1754 H   0  0  0  0  0  0  0  0  0  0  0  0
   10.9422    5.8318  -57.4192 H   0  0  0  0  0  0  0  0  0  0  0  0
   10.5222    6.4034  -59.0753 H   0  0  0  0  0  0  0  0  0  0  0  0
    7.7523    2.2306  -58.8062 H   0  0  0  0  0  0  0  0  0  0  0  0
    9.3277    1.5786  -59.3915 H   0  0  0  0  0  0  0  0  0  0  0  0
    7.3386   -3.9596  -54.0358 H   0  0  0  0  0  0  0  0  0  0  0  0
    6.5027   -5.5668  -52.3138 H   0  0  0  0  0  0  0  0  0  0  0  0
    7.7298   -2.8578  -49.1794 H   0  0  0  0  0  0  0  0  0  0  0  0
    8.5639   -1.2441  -50.8943 H   0  0  0  0  0  0  0  0  0  0  0  0
  1  2  1  0
  2  3  1  0
  3  4  1  0
  4  5  1  0
  5  6  2  0
  6  7  1  0
  7  8  2  0
  7  9  1  0
 10  9  1  1
 10 11  1  0
 11 12  1  0
 12 13  1  0
 13 14  1  0
 14 15  1  0
 15 16  1  0
 16 17  1  0
 16 18  1  0
 18 19  2  0
 14 20  1  0
  6 21  1  0
 21 22  1  0
 21 23  2  0
 23 24  1  0
 24 25  1  0
 25 26  2  0
 26 27  1  0
 27 28  1  0
 27 29  2  0
 29 30  1  0
 23  4  1  0
 30 24  2  0
 18 10  1  0
 20 10  1  0
 17 12  1  0
  1 31  1  0
  1 32  1  0
  1 33  1  0
  2 34  1  0
  2 35  1  0
  3 36  1  0
  3 37  1  0
  5 38  1  0
  9 39  1  0
 11 40  1  0
 11 41  1  0
 12 42  1  1
 13 43  1  0
 13 44  1  0
 14 45  1  6
 15 46  1  0
 15 47  1  0
 16 48  1  6
 17 49  1  0
 17 50  1  0
 20 51  1  0
 20 52  1  0
 25 53  1  0
 26 54  1  0
 29 55  1  0
 30 56  1  0
M  END
>  <meeko>  (1) 
{"is_sidechain": false}

$$$$

     RDKit          3D

 79 84  0  0  0  0  0  0  0  0999 V2000
    9.3140    1.1620  -54.4460 C   0  0  0  0  0  0  0  0  0  0  0  0
    8.1070    1.1710  -55.3230 C   0  0  0  0  0  0  0  0  0  0  0  0
    6.9280    0.3530  -55.1870 C   0  0  0  0  0  0  0  0  0  0  0  0
    6.5570   -0.6420  -54.1760 C   0  0  0  0  0  0  0  0  0  0  0  0
    5.4010   -0.7770  -53.7950 O   0  0  0  0  0  0  0  0  0  0  0  0
    7.6240   -1.3600  -53.6770 N   0  0  0  0  0  0  0  0  0  0  0  0
    7.5350   -2.2360  -52.5070 C   0  0  1  0  0  0  0  0  0  0  0  0
    6.3280   -3.1930  -52.6990 C   0  0  0  0  0  0  0  0  0  0  0  0
    6.2250   -4.1990  -51.5350 C   0  0  2  0  0  0  0  0  0  0  0  0
    6.0610   -3.4310  -50.2160 C   0  0  0  0  0  0  0  0  0  0  0  0
    7.2650   -2.5060  -49.9950 C   0  0  1  0  0  0  0  0  0  0  0  0
    8.5620   -3.3360  -49.9530 C   0  0  0  0  0  0  0  0  0  0  0  0
    8.7270   -4.1370  -51.2480 C   0  0  1  0  0  0  0  0  0  0  0  0
    7.5120   -5.0450  -51.4760 C   0  0  0  0  0  0  0  0  0  0  0  0
    8.7650   -3.1690  -52.4250 C   0  0  0  0  0  0  0  0  0  0  0  0
    9.6360   -3.2330  -53.2900 O   0  0  0  0  0  0  0  0  0  0  0  0
    7.3670   -1.5010  -51.1580 C   0  0  0  0  0  0  0  0  0  0  0  0
    6.1230    0.6560  -56.2710 C   0  0  0  0  0  0  0  0  0  0  0  0
    6.7200    1.6370  -57.0120 N   0  0  0  0  0  0  0  0  0  0  0  0
    6.1340    2.2100  -58.2190 C   0  0  0  0  0  0  0  0  0  0  0  0
    6.5180    1.4210  -59.4720 C   0  0  0  0  0  0  0  0  0  0  0  0
    7.1510    2.2950  -60.5700 C   0  0  0  0  0  0  0  0  0  0  0  0
    7.2490    3.7440  -60.0880 C   0  0  0  0  0  0  0  0  0  0  0  0
    8.5370    1.7940  -60.9790 C   0  0  0  0  0  0  0  0  0  0  0  0
    7.9350    1.9700  -56.4520 C   0  0  0  0  0  0  0  0  0  0  0  0
    8.8290    2.9820  -57.0080 C   0  0  0  0  0  0  0  0  0  0  0  0
    8.6030    4.3380  -56.7530 C   0  0  0  0  0  0  0  0  0  0  0  0
    9.4660    5.3000  -57.2800 C   0  0  0  0  0  0  0  0  0  0  0  0
   10.5520    4.9160  -58.0670 C   0  0  0  0  0  0  0  0  0  0  0  0
   10.7970    3.5630  -58.3180 C   0  0  0  0  0  0  0  0  0  0  0  0
    9.9180    2.6010  -57.7980 C   0  0  0  0  0  0  0  0  0  0  0  0
   11.9630    3.1340  -59.1570 C   0  0  0  0  0  0  0  0  0  0  0  0
   12.9900    4.2520  -59.2440 C   0  0  0  0  0  0  0  0  0  0  0  0
   12.3170    5.6020  -59.5320 C   0  0  0  0  0  0  0  0  0  0  0  0
   11.6560    5.6540  -60.9180 C   0  0  0  0  0  0  0  0  0  0  0  0
   13.3790    6.7080  -59.4600 C   0  0  0  0  0  0  0  0  0  0  0  0
   11.3360    5.9360  -58.5340 O   0  0  0  0  0  0  0  0  0  0  0  0
    9.0010    1.1643  -53.3915 H   0  0  0  0  0  0  0  0  0  0  0  0
    9.9087    0.2594  -54.6500 H   0  0  0  0  0  0  0  0  0  0  0  0
    9.9221    2.0556  -54.6500 H   0  0  0  0  0  0  0  0  0  0  0  0
    8.4950   -0.8540  -53.7650 H   0  0  0  0  0  0  0  0  0  0  0  0
    5.4029   -2.5996  -52.7436 H   0  0  0  0  0  0  0  0  0  0  0  0
    6.4733   -3.7546  -53.6336 H   0  0  0  0  0  0  0  0  0  0  0  0
    5.3578   -4.8577  -51.6906 H   0  0  0  0  0  0  0  0  0  0  0  0
    5.1414   -2.8287  -50.2569 H   0  0  0  0  0  0  0  0  0  0  0  0
    5.9996   -4.1491  -49.3850 H   0  0  0  0  0  0  0  0  0  0  0  0
    7.1302   -1.9717  -49.0430 H   0  0  0  0  0  0  0  0  0  0  0  0
    9.4212   -2.6596  -49.8335 H   0  0  0  0  0  0  0  0  0  0  0  0
    8.5101   -4.0355  -49.1056 H   0  0  0  0  0  0  0  0  0  0  0  0
    9.6482   -4.7329  -51.1688 H   0  0  0  0  0  0  0  0  0  0  0  0
    7.6354   -5.5870  -52.4252 H   0  0  0  0  0  0  0  0  0  0  0  0
    7.4354   -5.7611  -50.6445 H   0  0  0  0  0  0  0  0  0  0  0  0
    6.4508   -0.8931  -51.1904 H   0  0  0  0  0  0  0  0  0  0  0  0
    8.2464   -0.8608  -50.9940 H   0  0  0  0  0  0  0  0  0  0  0  0
    5.1567    0.1828  -56.4998 H   0  0  0  0  0  0  0  0  0  0  0  0
    5.0386    2.2060  -58.1185 H   0  0  0  0  0  0  0  0  0  0  0  0
    6.5193    3.2342  -58.3308 H   0  0  0  0  0  0  0  0  0  0  0  0
    7.2397    0.6415  -59.1865 H   0  0  0  0  0  0  0  0  0  0  0  0
    5.5921    0.9958  -59.8865 H   0  0  0  0  0  0  0  0  0  0  0  0
    6.5006    2.2349  -61.4551 H   0  0  0  0  0  0  0  0  0  0  0  0
    7.2504    3.7653  -58.9882 H   0  0  0  0  0  0  0  0  0  0  0  0
    8.1796    4.1936  -60.4647 H   0  0  0  0  0  0  0  0  0  0  0  0
    6.3874    4.3148  -60.4647 H   0  0  0  0  0  0  0  0  0  0  0  0
    9.1301    1.5796  -60.0777 H   0  0  0  0  0  0  0  0  0  0  0  0
    8.4335    0.8764  -61.5767 H   0  0  0  0  0  0  0  0  0  0  0  0
    9.0442    2.5657  -61.5767 H   0  0  0  0  0  0  0  0  0  0  0  0
    7.7453    4.6465  -56.1372 H   0  0  0  0  0  0  0  0  0  0  0  0
    9.2890    6.3659  -57.0738 H   0  0  0  0  0  0  0  0  0  0  0  0
   10.0873    1.5358  -58.0141 H   0  0  0  0  0  0  0  0  0  0  0  0
   12.4296    2.2471  -58.7035 H   0  0  0  0  0  0  0  0  0  0  0  0
   11.6066    2.8958  -60.1700 H   0  0  0  0  0  0  0  0  0  0  0  0
   13.5313    4.3173  -58.2886 H   0  0  0  0  0  0  0  0  0  0  0  0
   13.6833    4.0253  -60.0674 H   0  0  0  0  0  0  0  0  0  0  0  0
   10.5656    5.7398  -60.8012 H   0  0  0  0  0  0  0  0  0  0  0  0
   12.0350    6.5251  -61.4725 H   0  0  0  0  0  0  0  0  0  0  0  0
   11.8941    4.7343  -61.4725 H   0  0  0  0  0  0  0  0  0  0  0  0
   13.5990    6.9371  -58.4069 H   0  0  0  0  0  0  0  0  0  0  0  0
   14.2974    6.3677  -59.9608 H   0  0  0  0  0  0  0  0  0  0  0  0
   13.0017    7.6118  -59.9608 H   0  0  0  0  0  0  0  0  0  0  0  0
  1  2  1  0
  2  3  1  0
  3  4  1  0
  4  5  2  0
  4  6  1  0
  7  6  1  6
  7  8  1  0
  8  9  1  0
  9 10  1  0
 10 11  1  0
 11 12  1  0
 12 13  1  0
 13 14  1  0
 13 15  1  0
 15 16  2  0
 11 17  1  0
  3 18  2  0
 18 19  1  0
 19 20  1  0
 20 21  1  0
 21 22  1  0
 22 23  1  0
 22 24  1  0
 19 25  1  0
 25 26  1  0
 26 27  1  0
 27 28  2  0
 28 29  1  0
 29 30  2  0
 30 31  1  0
 30 32  1  0
 32 33  1  0
 33 34  1  0
 34 35  1  0
 34 36  1  0
 34 37  1  0
 25  2  2  0
 31 26  2  0
 15  7  1  0
 37 29  1  0
 17  7  1  0
 14  9  1  0
  1 38  1  0
  1 39  1  0
  1 40  1  0
  6 41  1  0
  8 42  1  0
  8 43  1  0
  9 44  1  6
 10 45  1  0
 10 46  1  0
 11 47  1  1
 12 48  1  0
 12 49  1  0
 13 50  1  1
 14 51  1  0
 14 52  1  0
 17 53  1  0
 17 54  1  0
 18 55  1  0
 20 56  1  0
 20 57  1  0
 21 58  1  0
 21 59  1  0
 22 60  1  0
 23 61  1  0
 23 62  1  0
 23 63  1  0
 24 64  1  0
 24 65  1  0
 24 66  1  0
 27 67  1  0
 28 68  1  0
 31 69  1  0
 32 70  1  0
 32 71  1  0
 33 72  1  0
 33 73  1  0
 35 74  1  0
 35 75  1  0
 35 76  1  0
 36 77  1  0
 36 78  1  0
 36 79  1  0
M  END
>  <meeko>  (2) 
{"is_sidechain": false}

$$$$

     RDKit          3D

 18 18  0  0  0  0  0  0  0  0999 V2000
    4.7720    1.8920  -62.4260 N   0  0  0  0  0  0  0  0  0  0  0  0
    5.9360    2.6380  -62.1360 N   0  0  0  0  0  0  0  0  0  0  0  0
    6.4310    2.6300  -60.8370 C   0  0  0  0  0  0  0  0  0  0  0  0
    5.8690    2.0500  -59.9110 O   0  0  0  0  0  0  0  0  0  0  0  0
    7.7220    3.3380  -60.6120 C   0  0  0  0  0  0  0  0  0  0  0  0
    8.8820    3.0250  -61.3360 C   0  0  0  0  0  0  0  0  0  0  0  0
   10.0690    3.7250  -61.0890 C   0  0  0  0  0  0  0  0  0  0  0  0
   10.0940    4.7380  -60.1320 C   0  0  0  0  0  0  0  0  0  0  0  0
   11.5570    5.5940  -59.8350 Cl  0  0  0  0  0  0  0  0  0  0  0  0
    8.9430    5.0660  -59.4200 C   0  0  0  0  0  0  0  0  0  0  0  0
    7.7560    4.3690  -59.6630 C   0  0  0  0  0  0  0  0  0  0  0  0
    4.3020    2.3700  -63.2070 H   0  0  0  0  0  0  0  0  0  0  0  0
    5.0770    1.0110  -62.8530 H   0  0  0  0  0  0  0  0  0  0  0  0
    6.5280    2.9200  -62.9150 H   0  0  0  0  0  0  0  0  0  0  0  0
    8.8590    2.2307  -62.0967 H   0  0  0  0  0  0  0  0  0  0  0  0
   10.9817    3.4756  -61.6501 H   0  0  0  0  0  0  0  0  0  0  0  0
    8.9678    5.8700  -58.6697 H   0  0  0  0  0  0  0  0  0  0  0  0
    6.8439    4.6309  -59.1067 H   0  0  0  0  0  0  0  0  0  0  0  0
  1  2  1  0
  2  3  1  0
  3  4  2  0
  3  5  1  0
  5  6  1  0
  6  7  2  0
  7  8  1  0
  8  9  1  0
  8 10  2  0
 10 11  1  0
 11  5  2  0
  1 12  1  0
  1 13  1  0
  2 14  1  0
  6 15  1  0
  7 16  1  0
 10 17  1  0
 11 18  1  0
M  END
>  <meeko>  (3) 
{"is_sidechain": false}

$$$$

     RDKit          3D

 66 70  0  0  0  0  0  0  0  0999 V2000
    5.6420    0.6970  -54.1670 C   0  0  0  0  0  0  0  0  0  0  0  0
    6.0580    0.7220  -55.6310 C   0  0  0  0  0  0  0  0  0  0  0  0
    7.5120    1.0140  -55.7910 C   0  0  0  0  0  0  0  0  0  0  0  0
    8.6630    0.3930  -55.3080 C   0  0  0  0  0  0  0  0  0  0  0  0
    8.8180   -0.8110  -54.4870 C   0  0  0  0  0  0  0  0  0  0  0  0
    9.4440   -1.7880  -54.8790 O   0  0  0  0  0  0  0  0  0  0  0  0
    8.1890   -0.7550  -53.2540 N   0  0  0  0  0  0  0  0  0  0  0  0
    8.0450   -1.9130  -52.3630 C   0  0  1  0  0  0  0  0  0  0  0  0
    7.4490   -1.4220  -51.0160 C   0  0  0  0  0  0  0  0  0  0  0  0
    7.1840   -2.6060  -50.0620 C   0  0  2  0  0  0  0  0  0  0  0  0
    8.5030   -3.3450  -49.7960 C   0  0  0  0  0  0  0  0  0  0  0  0
    9.0870   -3.8640  -51.1170 C   0  0  1  0  0  0  0  0  0  0  0  0
    8.0850   -4.8190  -51.7940 C   0  0  0  0  0  0  0  0  0  0  0  0
    6.7500   -4.1090  -52.0370 C   0  0  1  0  0  0  0  0  0  0  0  0
    6.1800   -3.5750  -50.7160 C   0  0  0  0  0  0  0  0  0  0  0  0
    6.9900   -2.8920  -52.9200 C   0  0  0  0  0  0  0  0  0  0  0  0
    6.2930   -2.6520  -53.9050 O   0  0  0  0  0  0  0  0  0  0  0  0
    9.3510   -2.6820  -52.0690 C   0  0  0  0  0  0  0  0  0  0  0  0
    9.7580    1.1370  -55.6840 N   0  0  0  0  0  0  0  0  0  0  0  0
    9.3450    2.1650  -56.4030 N   0  0  0  0  0  0  0  0  0  0  0  0
    8.0040    2.1150  -56.4560 N   0  0  0  0  0  0  0  0  0  0  0  0
    7.2920    3.1700  -57.1630 C   0  0  0  0  0  0  0  0  0  0  0  0
    6.9090    2.7620  -58.5670 C   0  0  0  0  0  0  0  0  0  0  0  0
    7.8210    2.9190  -59.6190 C   0  0  0  0  0  0  0  0  0  0  0  0
    7.4870    2.5380  -60.9220 C   0  0  0  0  0  0  0  0  0  0  0  0
    8.4830    2.7380  -61.8440 O   0  0  0  0  0  0  0  0  0  0  0  0
    9.6390    3.4000  -61.3370 C   0  0  0  0  0  0  0  0  0  0  0  0
    6.2000    2.0550  -61.1900 C   0  0  0  0  0  0  0  0  0  0  0  0
    5.8390    1.7240  -62.4760 O   0  0  0  0  0  0  0  0  0  0  0  0
    5.5120    2.9070  -63.2060 C   0  0  0  0  0  0  0  0  0  0  0  0
    5.2740    1.8720  -60.1470 C   0  0  0  0  0  0  0  0  0  0  0  0
    4.0540    1.3540  -60.4990 O   0  0  0  0  0  0  0  0  0  0  0  0
    2.9570    2.2570  -60.5580 C   0  0  0  0  0  0  0  0  0  0  0  0
    5.6320    2.2430  -58.8460 C   0  0  0  0  0  0  0  0  0  0  0  0
    6.5375    0.7508  -53.5304 H   0  0  0  0  0  0  0  0  0  0  0  0
    4.9901    1.5576  -53.9563 H   0  0  0  0  0  0  0  0  0  0  0  0
    5.0978   -0.2355  -53.9563 H   0  0  0  0  0  0  0  0  0  0  0  0
    5.8408   -0.2588  -56.0793 H   0  0  0  0  0  0  0  0  0  0  0  0
    5.4925    1.5212  -56.1326 H   0  0  0  0  0  0  0  0  0  0  0  0
    7.3810   -0.1480  -53.2710 H   0  0  0  0  0  0  0  0  0  0  0  0
    8.1586   -0.7291  -50.5403 H   0  0  0  0  0  0  0  0  0  0  0  0
    6.4935   -0.9166  -51.2199 H   0  0  0  0  0  0  0  0  0  0  0  0
    6.7702   -2.2318  -49.1140 H   0  0  0  0  0  0  0  0  0  0  0  0
    9.2195   -2.6548  -49.3268 H   0  0  0  0  0  0  0  0  0  0  0  0
    8.3124   -4.1959  -49.1254 H   0  0  0  0  0  0  0  0  0  0  0  0
   10.0262   -4.3948  -50.9021 H   0  0  0  0  0  0  0  0  0  0  0  0
    8.4978   -5.1539  -52.7570 H   0  0  0  0  0  0  0  0  0  0  0  0
    7.9145   -5.6827  -51.1345 H   0  0  0  0  0  0  0  0  0  0  0  0
    6.0579   -4.8282  -52.4994 H   0  0  0  0  0  0  0  0  0  0  0  0
    5.2374   -3.0438  -50.9143 H   0  0  0  0  0  0  0  0  0  0  0  0
    5.9965   -4.4189  -50.0347 H   0  0  0  0  0  0  0  0  0  0  0  0
   10.0752   -1.9979  -51.6025 H   0  0  0  0  0  0  0  0  0  0  0  0
    9.7502   -3.0742  -53.0160 H   0  0  0  0  0  0  0  0  0  0  0  0
    6.3770    3.4154  -56.6039 H   0  0  0  0  0  0  0  0  0  0  0  0
    7.9631    4.0385  -57.2361 H   0  0  0  0  0  0  0  0  0  0  0  0
    8.8135    3.3480  -59.4169 H   0  0  0  0  0  0  0  0  0  0  0  0
    9.6163    3.3870  -60.2373 H   0  0  0  0  0  0  0  0  0  0  0  0
   10.5428    2.8826  -61.6912 H   0  0  0  0  0  0  0  0  0  0  0  0
    9.6501    4.4414  -61.6912 H   0  0  0  0  0  0  0  0  0  0  0  0
    5.2868    3.7217  -62.5021 H   0  0  0  0  0  0  0  0  0  0  0  0
    6.3643    3.1945  -63.8391 H   0  0  0  0  0  0  0  0  0  0  0  0
    4.6330    2.7160  -63.8391 H   0  0  0  0  0  0  0  0  0  0  0  0
    2.6409    2.5172  -59.5370 H   0  0  0  0  0  0  0  0  0  0  0  0
    3.2616    3.1696  -61.0913 H   0  0  0  0  0  0  0  0  0  0  0  0
    2.1200    1.7827  -61.0913 H   0  0  0  0  0  0  0  0  0  0  0  0
    4.9039    2.1270  -58.0296 H   0  0  0  0  0  0  0  0  0  0  0  0
  1  2  1  0
  2  3  1  0
  3  4  2  0
  4  5  1  0
  5  6  2  0
  5  7  1  0
  8  7  1  6
  8  9  1  0
  9 10  1  0
 10 11  1  0
 11 12  1  0
 12 13  1  0
 13 14  1  0
 14 15  1  0
 14 16  1  0
 16 17  2  0
 12 18  1  0
  4 19  1  0
 19 20  2  0
 20 21  1  0
 21 22  1  0
 22 23  1  0
 23 24  1  0
 24 25  2  0
 25 26  1  0
 26 27  1  0
 25 28  1  0
 28 29  1  0
 29 30  1  0
 28 31  2  0
 31 32  1  0
 32 33  1  0
 31 34  1  0
 21  3  1  0
 34 23  2  0
 16  8  1  0
 18  8  1  0
 15 10  1  0
  1 35  1  0
  1 36  1  0
  1 37  1  0
  2 38  1  0
  2 39  1  0
  7 40  1  0
  9 41  1  0
  9 42  1  0
 10 43  1  1
 11 44  1  0
 11 45  1  0
 12 46  1  1
 13 47  1  0
 13 48  1  0
 14 49  1  6
 15 50  1  0
 15 51  1  0
 18 52  1  0
 18 53  1  0
 22 54  1  0
 22 55  1  0
 24 56  1  0
 27 57  1  0
 27 58  1  0
 27 59  1  0
 30 60  1  0
 30 61  1  0
 30 62  1  0
 33 63  1  0
 33 64  1  0
 33 65  1  0
 34 66  1  0
M  END
>  <meeko>  (4) 
{"is_sidechain": false}

$$$$

     RDKit          3D

 29 31  0  0  0  0  0  0  0  0999 V2000
   13.1390    4.7620  -57.8880 C   0  0  0  0  0  0  0  0  0  0  0  0
   12.6720    3.7430  -58.9120 C   0  0  0  0  0  0  0  0  0  0  0  0
   11.3980    3.1470  -58.5520 N   0  0  0  0  0  0  0  0  0  0  0  0
   11.1320    2.5630  -57.3280 C   0  0  0  0  0  0  0  0  0  0  0  0
    9.8200    2.1500  -57.3270 C   0  0  0  0  0  0  0  0  0  0  0  0
    9.1930    1.5520  -56.3040 N   0  0  0  0  0  0  0  0  0  0  0  0
    9.2870    2.4720  -58.5780 C   0  0  0  0  0  0  0  0  0  0  0  0
   10.2700    3.0970  -59.3310 C   0  0  0  0  0  0  0  0  0  0  0  0
   10.0720    3.6600  -60.7160 C   0  0  0  0  0  0  0  0  0  0  0  0
    8.8360    3.0440  -61.4530 C   0  0  0  0  0  0  0  0  0  0  0  0
    7.7930    2.5590  -60.4980 C   0  0  0  0  0  0  0  0  0  0  0  0
    6.4850    2.2520  -60.7340 N   0  0  0  0  0  0  0  0  0  0  0  0
    5.9660    1.7800  -59.5510 C   0  0  0  0  0  0  0  0  0  0  0  0
    6.8600    1.7670  -58.5820 N   0  0  0  0  0  0  0  0  0  0  0  0
    7.9850    2.2610  -59.1680 C   0  0  0  0  0  0  0  0  0  0  0  0
   12.9604    4.3722  -56.8750 H   0  0  0  0  0  0  0  0  0  0  0  0
   14.2140    4.9519  -58.0235 H   0  0  0  0  0  0  0  0  0  0  0  0
   12.5810    5.7002  -58.0235 H   0  0  0  0  0  0  0  0  0  0  0  0
   12.5665    4.2428  -59.8862 H   0  0  0  0  0  0  0  0  0  0  0  0
   13.4211    2.9386  -58.9534 H   0  0  0  0  0  0  0  0  0  0  0  0
   11.8455    2.4484  -56.4987 H   0  0  0  0  0  0  0  0  0  0  0  0
    9.4460    1.8350  -55.3570 H   0  0  0  0  0  0  0  0  0  0  0  0
    8.2530    1.1890  -56.3950 H   0  0  0  0  0  0  0  0  0  0  0  0
    9.9265    4.7474  -60.6354 H   0  0  0  0  0  0  0  0  0  0  0  0
   10.9664    3.4092  -61.3052 H   0  0  0  0  0  0  0  0  0  0  0  0
    8.3917    3.8125  -62.1025 H   0  0  0  0  0  0  0  0  0  0  0  0
    9.1870    2.1804  -62.0369 H   0  0  0  0  0  0  0  0  0  0  0  0
    5.9860    2.3340  -61.6100 H   0  0  0  0  0  0  0  0  0  0  0  0
    4.9237    1.4508  -59.4274 H   0  0  0  0  0  0  0  0  0  0  0  0
  1  2  1  0
  2  3  1  0
  3  4  1  0
  4  5  2  0
  5  6  1  0
  5  7  1  0
  7  8  2  0
  8  9  1  0
  9 10  1  0
 10 11  1  0
 11 12  1  0
 12 13  1  0
 13 14  2  0
 14 15  1  0
  8  3  1  0
 15 11  2  0
 15  7  1  0
  1 16  1  0
  1 17  1  0
  1 18  1  0
  2 19  1  0
  2 20  1  0
  4 21  1  0
  6 22  1  0
  6 23  1  0
  9 24  1  0
  9 25  1  0
 10 26  1  0
 10 27  1  0
 12 28  1  0
 13 29  1  0
M  END
>  <meeko>  (5) 
{"is_sidechain": false}

$$$$

     RDKit          3D

 29 31  0  0  0  0  0  0  0  0999 V2000
    3.9970    2.6160  -58.3740 C   0  0  0  0  0  0  0  0  0  0  0  0
    5.3880    2.2930  -57.8600 C   0  0  0  0  0  0  0  0  0  0  0  0
    6.4220    2.6590  -58.8120 N   0  0  0  0  0  0  0  0  0  0  0  0
    6.4390    2.2600  -60.1330 C   0  0  0  0  0  0  0  0  0  0  0  0
    7.5800    2.7560  -60.7180 C   0  0  0  0  0  0  0  0  0  0  0  0
    7.9370    2.5370  -61.9950 N   0  0  0  0  0  0  0  0  0  0  0  0
    8.2510    3.4970  -59.7400 C   0  0  0  0  0  0  0  0  0  0  0  0
    7.5430    3.4080  -58.5540 C   0  0  0  0  0  0  0  0  0  0  0  0
    7.9770    3.9650  -57.2210 C   0  0  0  0  0  0  0  0  0  0  0  0
    9.0050    5.1240  -57.3460 C   0  0  0  0  0  0  0  0  0  0  0  0
    9.8680    5.0210  -58.5610 C   0  0  0  0  0  0  0  0  0  0  0  0
   11.0510    5.6900  -58.7440 N   0  0  0  0  0  0  0  0  0  0  0  0
   11.4090    5.4040  -59.9810 C   0  0  0  0  0  0  0  0  0  0  0  0
   10.5020    4.5870  -60.6060 N   0  0  0  0  0  0  0  0  0  0  0  0
    9.5340    4.3220  -59.6970 C   0  0  0  0  0  0  0  0  0  0  0  0
    3.3188    2.7735  -57.5224 H   0  0  0  0  0  0  0  0  0  0  0  0
    4.0352    3.5292  -58.9861 H   0  0  0  0  0  0  0  0  0  0  0  0
    3.6289    1.7794  -58.9861 H   0  0  0  0  0  0  0  0  0  0  0  0
    5.5569    2.8449  -56.9236 H   0  0  0  0  0  0  0  0  0  0  0  0
    5.4454    1.2063  -57.6994 H   0  0  0  0  0  0  0  0  0  0  0  0
    5.6716    1.6500  -60.6320 H   0  0  0  0  0  0  0  0  0  0  0  0
    8.7340    1.9380  -62.1870 H   0  0  0  0  0  0  0  0  0  0  0  0
    7.8510    3.2840  -62.6730 H   0  0  0  0  0  0  0  0  0  0  0  0
    7.0882    4.3416  -56.6936 H   0  0  0  0  0  0  0  0  0  0  0  0
    8.4697    3.1495  -56.6712 H   0  0  0  0  0  0  0  0  0  0  0  0
    8.4547    6.0755  -57.3885 H   0  0  0  0  0  0  0  0  0  0  0  0
    9.6680    5.0668  -56.4701 H   0  0  0  0  0  0  0  0  0  0  0  0
   12.3282    5.7774  -60.4560 H   0  0  0  0  0  0  0  0  0  0  0  0
   10.5450    4.2570  -61.5580 H   0  0  0  0  0  0  0  0  0  0  0  0
  1  2  1  0
  2  3  1  0
  3  4  1  0
  4  5  2  0
  5  6  1  0
  5  7  1  0
  7  8  2  0
  8  9  1  0
  9 10  1  0
 10 11  1  0
 11 12  1  0
 12 13  2  0
 13 14  1  0
 14 15  1  0
  8  3  1  0
 15 11  2  0
 15  7  1  0
  1 16  1  0
  1 17  1  0
  1 18  1  0
  2 19  1  0
  2 20  1  0
  4 21  1  0
  6 22  1  0
  6 23  1  0
  9 24  1  0
  9 25  1  0
 10 26  1  0
 10 27  1  0
 13 28  1  0
 14 29  1  0
M  END
>  <meeko>  (6) 
{"is_sidechain": false}

$$$$

     RDKit          3D

 30 32  0  0  0  0  0  0  0  0999 V2000
   13.1880    4.7860  -57.9490 C   0  0  0  0  0  0  0  0  0  0  0  0
   12.6670    3.7700  -58.9500 C   0  0  0  0  0  0  0  0  0  0  0  0
   11.4040    3.1860  -58.5290 N   0  0  0  0  0  0  0  0  0  0  0  0
   11.1700    2.6650  -57.2720 C   0  0  0  0  0  0  0  0  0  0  0  0
    9.8700    2.2230  -57.2150 C   0  0  0  0  0  0  0  0  0  0  0  0
    9.3110    1.6320  -56.1440 N   0  0  0  0  0  0  0  0  0  0  0  0
    9.3010    2.5090  -58.4530 C   0  0  0  0  0  0  0  0  0  0  0  0
   10.2490    3.0970  -59.2700 C   0  0  0  0  0  0  0  0  0  0  0  0
   10.0170    3.6360  -60.6600 C   0  0  0  0  0  0  0  0  0  0  0  0
    8.7560    3.0290  -61.3450 C   0  0  0  0  0  0  0  0  0  0  0  0
    7.7020    2.6430  -60.3650 C   0  0  0  0  0  0  0  0  0  0  0  0
    6.3560    2.4280  -60.6040 N   0  0  0  0  0  0  0  0  0  0  0  0
    5.7480    2.0370  -59.4750 C   0  0  0  0  0  0  0  0  0  0  0  0
    6.6820    1.9790  -58.5240 N   0  0  0  0  0  0  0  0  0  0  0  0
    7.9010    2.3520  -59.0280 C   0  0  0  0  0  0  0  0  0  0  0  0
   13.0018    4.4230  -56.9275 H   0  0  0  0  0  0  0  0  0  0  0  0
   14.2690    4.9257  -58.0972 H   0  0  0  0  0  0  0  0  0  0  0  0
   12.6706    5.7453  -58.0972 H   0  0  0  0  0  0  0  0  0  0  0  0
   12.5213    4.2694  -59.9192 H   0  0  0  0  0  0  0  0  0  0  0  0
   13.4066    2.9593  -59.0261 H   0  0  0  0  0  0  0  0  0  0  0  0
   11.9021    2.6125  -56.4527 H   0  0  0  0  0  0  0  0  0  0  0  0
    8.4420    1.9950  -55.7670 H   0  0  0  0  0  0  0  0  0  0  0  0
    9.2920    0.6120  -56.1260 H   0  0  0  0  0  0  0  0  0  0  0  0
    9.8907    4.7269  -60.5965 H   0  0  0  0  0  0  0  0  0  0  0  0
   10.8890    3.3588  -61.2705 H   0  0  0  0  0  0  0  0  0  0  0  0
    8.3376    3.7746  -62.0371 H   0  0  0  0  0  0  0  0  0  0  0  0
    9.0702    2.1168  -61.8733 H   0  0  0  0  0  0  0  0  0  0  0  0
    5.8890    2.5460  -61.5000 H   0  0  0  0  0  0  0  0  0  0  0  0
    4.6790    1.8070  -59.3551 H   0  0  0  0  0  0  0  0  0  0  0  0
    6.5250    1.7490  -57.5480 H   0  0  0  0  0  0  0  0  0  0  0  0
  1  2  1  0
  2  3  1  0
  3  4  1  0
  4  5  2  0
  5  6  1  0
  5  7  1  0
  7  8  2  0
  8  9  1  0
  9 10  1  0
 10 11  1  0
 11 12  1  0
 12 13  1  0
 13 14  2  0
 14 15  1  0
  8  3  1  0
 15 11  2  0
 15  7  1  0
  1 16  1  0
  1 17  1  0
  1 18  1  0
  2 19  1  0
  2 20  1  0
  4 21  1  0
  6 22  1  0
  6 23  1  0
  9 24  1  0
  9 25  1  0
 10 26  1  0
 10 27  1  0
 12 28  1  0
 13 29  1  0
 14 30  1  0
M  CHG  1  14   1
M  END
>  <meeko>  (7) 
{"is_sidechain": false}

$$$$

     RDKit          3D

 57 61  0  0  0  0  0  0  0  0999 V2000
   11.2780    0.4950  -56.4870 O   0  0  0  0  0  0  0  0  0  0  0  0
   10.1170    0.8120  -56.2540 C   0  0  0  0  0  0  0  0  0  0  0  0
    9.2830    0.0750  -55.4530 N   0  0  0  0  0  0  0  0  0  0  0  0
    9.6610   -1.1570  -54.7700 C   0  0  1  0  0  0  0  0  0  0  0  0
   10.4230   -0.9070  -53.4540 C   0  0  0  0  0  0  0  0  0  0  0  0
   10.6880   -2.2410  -52.7260 C   0  0  2  0  0  0  0  0  0  0  0  0
   11.4900   -3.1750  -53.6480 C   0  0  0  0  0  0  0  0  0  0  0  0
   10.7040   -3.4560  -54.9400 C   0  0  1  0  0  0  0  0  0  0  0  0
    9.3560   -4.1110  -54.5880 C   0  0  0  0  0  0  0  0  0  0  0  0
    8.5500   -3.1970  -53.6570 C   0  0  1  0  0  0  0  0  0  0  0  0
    9.3400   -2.8990  -52.3780 C   0  0  0  0  0  0  0  0  0  0  0  0
    8.3500   -1.8750  -54.3820 C   0  0  0  0  0  0  0  0  0  0  0  0
    7.2340   -1.4170  -54.6320 O   0  0  0  0  0  0  0  0  0  0  0  0
   10.4400   -2.1280  -55.6780 C   0  0  0  0  0  0  0  0  0  0  0  0
    9.5190    2.0290  -56.8000 C   0  0  0  0  0  0  0  0  0  0  0  0
    8.1860    2.3950  -56.6150 C   0  0  0  0  0  0  0  0  0  0  0  0
    7.1470    1.6900  -55.9340 C   0  0  0  0  0  0  0  0  0  0  0  0
    5.9800    1.3160  -56.4850 C   0  0  0  0  0  0  0  0  0  0  0  0
    5.5360    1.5480  -57.8620 C   0  0  0  0  0  0  0  0  0  0  0  0
    6.1800    0.9050  -58.9210 C   0  0  0  0  0  0  0  0  0  0  0  0
    5.7660    1.1310  -60.2350 C   0  0  0  0  0  0  0  0  0  0  0  0
    4.7010    1.9950  -60.5120 C   0  0  0  0  0  0  0  0  0  0  0  0
    4.4070    2.1210  -61.8390 O   0  0  0  0  0  0  0  0  0  0  0  0
    3.3950    1.2870  -62.3730 C   0  0  0  0  0  0  0  0  0  0  0  0
    2.6970    0.6760  -61.3930 F   0  0  0  0  0  0  0  0  0  0  0  0
    2.5360    2.0510  -63.0850 F   0  0  0  0  0  0  0  0  0  0  0  0
    3.9150    0.3580  -63.2040 F   0  0  0  0  0  0  0  0  0  0  0  0
    4.0490    2.6260  -59.4530 C   0  0  0  0  0  0  0  0  0  0  0  0
    4.4640    2.4030  -58.1340 C   0  0  0  0  0  0  0  0  0  0  0  0
    7.8190    3.8370  -57.4800 S   0  0  0  0  0  0  0  0  0  0  0  0
    9.4170    4.0230  -58.0410 C   0  0  0  0  0  0  0  0  0  0  0  0
    9.7980    5.1880  -58.8860 C   0  0  0  0  0  0  0  0  0  0  0  0
   10.8980    5.8210  -58.4030 F   0  0  0  0  0  0  0  0  0  0  0  0
   10.0820    4.8560  -60.1720 F   0  0  0  0  0  0  0  0  0  0  0  0
    8.8040    6.1130  -58.9420 F   0  0  0  0  0  0  0  0  0  0  0  0
   10.2180    2.9840  -57.6190 C   0  0  0  0  0  0  0  0  0  0  0  0
   11.8890    2.8500  -57.9960 Cl  0  0  0  0  0  0  0  0  0  0  0  0
    8.3460    0.4220  -55.2660 H   0  0  0  0  0  0  0  0  0  0  0  0
   11.3831   -0.4190  -53.6779 H   0  0  0  0  0  0  0  0  0  0  0  0
    9.8135   -0.2607  -52.8053 H   0  0  0  0  0  0  0  0  0  0  0  0
   11.2607   -2.0560  -51.8052 H   0  0  0  0  0  0  0  0  0  0  0  0
   12.4479   -2.6981  -53.9028 H   0  0  0  0  0  0  0  0  0  0  0  0
   11.6691   -4.1259  -53.1248 H   0  0  0  0  0  0  0  0  0  0  0  0
   11.2883   -4.1303  -55.5834 H   0  0  0  0  0  0  0  0  0  0  0  0
    8.7841   -4.2842  -55.5115 H   0  0  0  0  0  0  0  0  0  0  0  0
    9.5440   -5.0671  -54.0777 H   0  0  0  0  0  0  0  0  0  0  0  0
    7.5995   -3.6857  -53.3966 H   0  0  0  0  0  0  0  0  0  0  0  0
    8.7568   -2.2175  -51.7413 H   0  0  0  0  0  0  0  0  0  0  0  0
    9.5285   -3.8425  -51.8448 H   0  0  0  0  0  0  0  0  0  0  0  0
   11.4007   -1.6712  -55.9579 H   0  0  0  0  0  0  0  0  0  0  0  0
    9.8429   -2.3321  -56.5790 H   0  0  0  0  0  0  0  0  0  0  0  0
    7.3151    1.4336  -54.8776 H   0  0  0  0  0  0  0  0  0  0  0  0
    5.2806    0.7759  -55.8299 H   0  0  0  0  0  0  0  0  0  0  0  0
    7.0156    0.2186  -58.7194 H   0  0  0  0  0  0  0  0  0  0  0  0
    6.2834    0.6236  -61.0626 H   0  0  0  0  0  0  0  0  0  0  0  0
    3.2049    3.3020  -59.6545 H   0  0  0  0  0  0  0  0  0  0  0  0
    3.9423    2.9046  -57.3056 H   0  0  0  0  0  0  0  0  0  0  0  0
  1  2  2  0
  2  3  1  0
  4  3  1  6
  4  5  1  0
  5  6  1  0
  6  7  1  0
  7  8  1  0
  8  9  1  0
  9 10  1  0
 10 11  1  0
 10 12  1  0
 12 13  2  0
  8 14  1  0
  2 15  1  0
 15 16  2  0
 16 17  1  0
 17 18  2  0
 18 19  1  0
 19 20  1  0
 20 21  2  0
 21 22  1  0
 22 23  1  0
 23 24  1  0
 24 25  1  0
 24 26  1  0
 24 27  1  0
 22 28  2  0
 28 29  1  0
 16 30  1  0
 30 31  1  0
 31 32  1  0
 32 33  1  0
 32 34  1  0
 32 35  1  0
 31 36  2  0
 36 37  1  0
 12  4  1  0
 36 15  1  0
 14  4  1  0
 29 19  2  0
 11  6  1  0
  3 38  1  0
  5 39  1  0
  5 40  1  0
  6 41  1  1
  7 42  1  0
  7 43  1  0
  8 44  1  6
  9 45  1  0
  9 46  1  0
 10 47  1  1
 11 48  1  0
 11 49  1  0
 14 50  1  0
 14 51  1  0
 17 52  1  0
 18 53  1  0
 20 54  1  0
 21 55  1  0
 28 56  1  0
 29 57  1  0
M  END
>  <meeko>  (8) 
{"is_sidechain": false}

$$$$

     RDKit          3D

 38 39  0  0  0  0  0  0  0  0999 V2000
   10.7740    2.0130  -56.8750 C   0  0  0  0  0  0  0  0  0  0  0  0
   10.4020    3.3470  -56.3600 N   0  0  0  0  0  0  0  0  0  0  0  0
    8.9970    3.7820  -56.6180 C   0  0  0  0  0  0  0  0  0  0  0  0
    8.9250    5.2800  -56.9440 C   0  0  0  0  0  0  0  0  0  0  0  0
    8.3730    5.5710  -58.6620 S   0  0  0  0  0  0  0  0  0  0  0  0
    9.2710    4.3560  -59.5450 C   0  0  0  0  0  0  0  0  0  0  0  0
   10.6390    4.2340  -59.7570 C   0  0  0  0  0  0  0  0  0  0  0  0
   11.7140    5.1530  -59.3670 C   0  0  0  0  0  0  0  0  0  0  0  0
   12.3880    5.0090  -58.3440 O   0  0  0  0  0  0  0  0  0  0  0  0
   11.8990    6.1720  -60.2910 N   0  0  0  0  0  0  0  0  0  0  0  0
   12.9740    7.0740  -60.1700 N   0  0  0  0  0  0  0  0  0  0  0  0
   10.9210    3.0340  -60.3790 N   0  0  0  0  0  0  0  0  0  0  0  0
    9.7560    2.4600  -60.5690 C   0  0  0  0  0  0  0  0  0  0  0  0
    8.6910    3.2300  -60.1350 N   0  0  0  0  0  0  0  0  0  0  0  0
    7.3210    2.8640  -60.3040 C   0  0  0  0  0  0  0  0  0  0  0  0
    6.8200    2.6270  -61.5940 C   0  0  0  0  0  0  0  0  0  0  0  0
    5.4790    2.2690  -61.7780 C   0  0  0  0  0  0  0  0  0  0  0  0
    4.6190    2.1570  -60.6840 C   0  0  0  0  0  0  0  0  0  0  0  0
    2.9820    1.7030  -60.9860 Cl  0  0  0  0  0  0  0  0  0  0  0  0
    5.1040    2.4140  -59.3990 C   0  0  0  0  0  0  0  0  0  0  0  0
    4.1030    2.3190  -57.9950 Cl  0  0  0  0  0  0  0  0  0  0  0  0
    6.4480    2.7730  -59.2130 C   0  0  0  0  0  0  0  0  0  0  0  0
   10.9634    1.3338  -56.0307 H   0  0  0  0  0  0  0  0  0  0  0  0
    9.9526    1.6148  -57.4888 H   0  0  0  0  0  0  0  0  0  0  0  0
   11.6829    2.0973  -57.4888 H   0  0  0  0  0  0  0  0  0  0  0  0
   11.0680    4.0610  -56.7360 H   0  0  0  0  0  0  0  0  0  0  0  0
   10.5870    3.4020  -55.3490 H   0  0  0  0  0  0  0  0  0  0  0  0
    8.5961    3.2111  -57.4685 H   0  0  0  0  0  0  0  0  0  0  0  0
    8.4051    3.5968  -55.7095 H   0  0  0  0  0  0  0  0  0  0  0  0
    8.2153    5.7612  -56.2550 H   0  0  0  0  0  0  0  0  0  0  0  0
    9.9333    5.7049  -56.8307 H   0  0  0  0  0  0  0  0  0  0  0  0
   11.3190    6.1390  -61.1360 H   0  0  0  0  0  0  0  0  0  0  0  0
   13.1810    7.4750  -61.0890 H   0  0  0  0  0  0  0  0  0  0  0  0
   12.6700    7.8640  -59.5910 H   0  0  0  0  0  0  0  0  0  0  0  0
    9.6380    1.4669  -61.0271 H   0  0  0  0  0  0  0  0  0  0  0  0
    7.4848    2.7231  -62.4651 H   0  0  0  0  0  0  0  0  0  0  0  0
    5.1002    2.0745  -62.7922 H   0  0  0  0  0  0  0  0  0  0  0  0
    6.8194    2.9851  -58.1996 H   0  0  0  0  0  0  0  0  0  0  0  0
  1  2  1  0
  2  3  1  0
  3  4  1  0
  4  5  1  0
  5  6  1  0
  6  7  2  0
  7  8  1  0
  8  9  2  0
  8 10  1  0
 10 11  1  0
  7 12  1  0
 12 13  2  0
 13 14  1  0
 14 15  1  0
 15 16  1  0
 16 17  2  0
 17 18  1  0
 18 19  1  0
 18 20  2  0
 20 21  1  0
 20 22  1  0
 14  6  1  0
 22 15  2  0
  1 23  1  0
  1 24  1  0
  1 25  1  0
  2 26  1  0
  2 27  1  0
  3 28  1  0
  3 29  1  0
  4 30  1  0
  4 31  1  0
 10 32  1  0
 11 33  1  0
 11 34  1  0
 13 35  1  0
 16 36  1  0
 17 37  1  0
 22 38  1  0
M  CHG  1   2   1
M  END
>  <meeko>  (9) 
{"is_sidechain": false}

$$$$

     RDKit          3D

 39 40  0  0  0  0  0  0  0  0999 V2000
   10.7730    1.9920  -57.0600 C   0  0  0  0  0  0  0  0  0  0  0  0
   10.3770    3.3080  -56.4730 N   0  0  0  0  0  0  0  0  0  0  0  0
    8.9750    3.7630  -56.7650 C   0  0  0  0  0  0  0  0  0  0  0  0
    8.8940    5.2780  -57.0150 C   0  0  0  0  0  0  0  0  0  0  0  0
    8.2420    5.5940  -58.6940 S   0  0  0  0  0  0  0  0  0  0  0  0
    9.1330    4.4040  -59.7160 C   0  0  0  0  0  0  0  0  0  0  0  0
   10.5010    4.3530  -59.9350 C   0  0  0  0  0  0  0  0  0  0  0  0
   11.5640    5.1800  -59.4220 C   0  0  0  0  0  0  0  0  0  0  0  0
   12.1840    4.9940  -58.3760 O   0  0  0  0  0  0  0  0  0  0  0  0
   11.8730    6.2540  -60.2610 N   0  0  0  0  0  0  0  0  0  0  0  0
   13.0730    6.9750  -60.0480 N   0  0  0  0  0  0  0  0  0  0  0  0
   10.6710    3.4040  -60.9360 N   0  0  0  0  0  0  0  0  0  0  0  0
    9.5160    2.8240  -61.2530 C   0  0  0  0  0  0  0  0  0  0  0  0
    8.5520    3.3910  -60.4980 N   0  0  0  0  0  0  0  0  0  0  0  0
    7.1590    2.9400  -60.5570 C   0  0  0  0  0  0  0  0  0  0  0  0
    6.5740    2.6530  -61.7860 C   0  0  0  0  0  0  0  0  0  0  0  0
    5.2400    2.2360  -61.8240 C   0  0  0  0  0  0  0  0  0  0  0  0
    4.5010    2.1120  -60.6420 C   0  0  0  0  0  0  0  0  0  0  0  0
    2.8660    1.5830  -60.7680 Cl  0  0  0  0  0  0  0  0  0  0  0  0
    5.1030    2.4170  -59.4160 C   0  0  0  0  0  0  0  0  0  0  0  0
    4.2640    2.2850  -57.9130 Cl  0  0  0  0  0  0  0  0  0  0  0  0
    6.4370    2.8410  -59.3710 C   0  0  0  0  0  0  0  0  0  0  0  0
   10.9875    1.2790  -56.2503 H   0  0  0  0  0  0  0  0  0  0  0  0
    9.9514    1.6054  -57.6809 H   0  0  0  0  0  0  0  0  0  0  0  0
   11.6715    2.1229  -57.6809 H   0  0  0  0  0  0  0  0  0  0  0  0
   10.4690    3.2130  -55.4490 H   0  0  0  0  0  0  0  0  0  0  0  0
   11.0710    4.0260  -56.7260 H   0  0  0  0  0  0  0  0  0  0  0  0
    8.6113    3.2367  -57.6599 H   0  0  0  0  0  0  0  0  0  0  0  0
    8.3562    3.5333  -55.8850 H   0  0  0  0  0  0  0  0  0  0  0  0
    8.2251    5.7357  -56.2713 H   0  0  0  0  0  0  0  0  0  0  0  0
    9.8996    5.7151  -56.9274 H   0  0  0  0  0  0  0  0  0  0  0  0
   11.3000    6.5060  -61.0680 H   0  0  0  0  0  0  0  0  0  0  0  0
   13.7740    6.3390  -59.6410 H   0  0  0  0  0  0  0  0  0  0  0  0
   13.4830    7.1890  -60.9750 H   0  0  0  0  0  0  0  0  0  0  0  0
   11.5740    3.1820  -61.3620 H   0  0  0  0  0  0  0  0  0  0  0  0
    9.3729    2.0261  -61.9966 H   0  0  0  0  0  0  0  0  0  0  0  0
    7.1533    2.7528  -62.7158 H   0  0  0  0  0  0  0  0  0  0  0  0
    4.7679    2.0037  -62.7900 H   0  0  0  0  0  0  0  0  0  0  0  0
    6.9087    3.0928  -58.4097 H   0  0  0  0  0  0  0  0  0  0  0  0
  1  2  1  0
  2  3  1  0
  3  4  1  0
  4  5  1  0
  5  6  1  0
  6  7  2  0
  7  8  1  0
  8  9  2  0
  8 10  1  0
 10 11  1  0
  7 12  1  0
 12 13  2  0
 13 14  1  0
 14 15  1  0
 15 16  1  0
 16 17  2  0
 17 18  1  0
 18 19  1  0
 18 20  2  0
 20 21  1  0
 20 22  1  0
 14  6  1  0
 22 15  2  0
  1 23  1  0
  1 24  1  0
  1 25  1  0
  2 26  1  0
  2 27  1  0
  3 28  1  0
  3 29  1  0
  4 30  1  0
  4 31  1  0
 10 32  1  0
 11 33  1  0
 11 34  1  0
 12 35  1  0
 13 36  1  0
 16 37  1  0
 17 38  1  0
 22 39  1  0
M  CHG  2   2   1  12   1
M  END
>  <meeko>  (10) 
{"is_sidechain": false}

$$$$

     RDKit          3D

 55 61  0  0  0  0  0  0  0  0999 V2000
    7.9490    1.9350  -59.2420 O   0  0  0  0  0  0  0  0  0  0  0  0
    8.8290    2.5390  -58.6280 C   0  0  0  0  0  0  0  0  0  0  0  0
    9.6750    3.5870  -59.3410 C   0  0  2  0  0  0  0  0  0  0  0  0
   11.1480    3.2050  -59.1810 C   0  0  0  0  0  0  0  0  0  0  0  0
   11.5240    3.1490  -57.6900 C   0  0  1  0  0  0  0  0  0  0  0  0
   11.2370    4.5090  -57.0360 C   0  0  0  0  0  0  0  0  0  0  0  0
    9.7480    4.8600  -57.1830 C   0  0  1  0  0  0  0  0  0  0  0  0
    9.3820    4.9310  -58.6730 C   0  0  0  0  0  0  0  0  0  0  0  0
    8.8990    3.7680  -56.4990 C   0  0  0  0  0  0  0  0  0  0  0  0
    9.1680    2.3670  -57.1140 C   0  0  1  0  0  0  0  0  0  0  0  0
    8.3730    1.2740  -56.4470 N   0  0  0  0  0  0  0  0  0  0  0  0
    6.9740    1.5960  -56.0690 C   0  0  0  0  0  0  0  0  0  0  0  0
    6.2160    0.3660  -55.5500 C   0  0  0  0  0  0  0  0  0  0  0  0
    6.9470   -0.3210  -54.3950 C   0  0  0  0  0  0  0  0  0  0  0  0
    8.3810   -0.4380  -54.7350 C   0  0  0  0  0  0  0  0  0  0  0  0
    9.0060    0.2860  -55.6990 C   0  0  0  0  0  0  0  0  0  0  0  0
   10.3310   -0.1810  -55.7930 N   0  0  0  0  0  0  0  0  0  0  0  0
   10.4650   -1.2310  -54.9450 C   0  0  0  0  0  0  0  0  0  0  0  0
   11.2700   -2.2550  -54.5540 C   0  0  0  0  0  0  0  0  0  0  0  0
   10.6150   -2.9950  -53.5810 N   0  0  0  0  0  0  0  0  0  0  0  0
    9.4270   -2.4190  -53.3890 C   0  0  0  0  0  0  0  0  0  0  0  0
    8.4210   -2.8690  -52.4310 C   0  0  0  0  0  0  0  0  0  0  0  0
    8.5360   -2.5860  -51.0620 C   0  0  0  0  0  0  0  0  0  0  0  0
    7.5650   -3.0360  -50.1640 C   0  0  0  0  0  0  0  0  0  0  0  0
    6.4870   -3.7790  -50.6340 C   0  0  0  0  0  0  0  0  0  0  0  0
    5.5580   -4.2090  -49.7710 F   0  0  0  0  0  0  0  0  0  0  0  0
    6.3660   -4.0880  -51.9830 C   0  0  0  0  0  0  0  0  0  0  0  0
    7.3370   -3.6380  -52.8790 C   0  0  0  0  0  0  0  0  0  0  0  0
    9.2900   -1.3650  -54.2580 N   0  0  0  0  0  0  0  0  0  0  0  0
   10.6830    2.0570  -57.0060 C   0  0  0  0  0  0  0  0  0  0  0  0
    9.4452    3.6492  -60.4149 H   0  0  0  0  0  0  0  0  0  0  0  0
   11.3189    2.2182  -59.6360 H   0  0  0  0  0  0  0  0  0  0  0  0
   11.7711    3.9619  -59.6799 H   0  0  0  0  0  0  0  0  0  0  0  0
   12.5938    2.9170  -57.5820 H   0  0  0  0  0  0  0  0  0  0  0  0
   11.4962    4.4614  -55.9680 H   0  0  0  0  0  0  0  0  0  0  0  0
   11.8408    5.2828  -57.5327 H   0  0  0  0  0  0  0  0  0  0  0  0
    9.5506    5.8338  -56.7111 H   0  0  0  0  0  0  0  0  0  0  0  0
    8.3121    5.1647  -58.7758 H   0  0  0  0  0  0  0  0  0  0  0  0
    9.9803    5.7165  -59.1578 H   0  0  0  0  0  0  0  0  0  0  0  0
    9.1472    3.7414  -55.4277 H   0  0  0  0  0  0  0  0  0  0  0  0
    7.8371    4.0123  -56.6498 H   0  0  0  0  0  0  0  0  0  0  0  0
    6.9876    2.3626  -55.2803 H   0  0  0  0  0  0  0  0  0  0  0  0
    6.4555    1.9573  -56.9693 H   0  0  0  0  0  0  0  0  0  0  0  0
    5.2225    0.6839  -55.2008 H   0  0  0  0  0  0  0  0  0  0  0  0
    6.1390   -0.3557  -56.3766 H   0  0  0  0  0  0  0  0  0  0  0  0
    6.8328    0.2767  -53.4786 H   0  0  0  0  0  0  0  0  0  0  0  0
    6.5216   -1.3217  -54.2286 H   0  0  0  0  0  0  0  0  0  0  0  0
   10.6880   -0.2030  -56.7540 H   0  0  0  0  0  0  0  0  0  0  0  0
   12.2767   -2.4625  -54.9457 H   0  0  0  0  0  0  0  0  0  0  0  0
    9.3954   -2.0066  -50.6935 H   0  0  0  0  0  0  0  0  0  0  0  0
    7.6523   -2.8043  -49.0922 H   0  0  0  0  0  0  0  0  0  0  0  0
    5.5125   -4.6820  -52.3418 H   0  0  0  0  0  0  0  0  0  0  0  0
    7.2513   -3.8888  -53.9466 H   0  0  0  0  0  0  0  0  0  0  0  0
   10.9630    2.0010  -55.9437 H   0  0  0  0  0  0  0  0  0  0  0  0
   10.8795    1.0990  -57.5097 H   0  0  0  0  0  0  0  0  0  0  0  0
  1  2  2  0
  2  3  1  0
  3  4  1  0
  4  5  1  0
  5  6  1  0
  6  7  1  0
  7  8  1  0
  7  9  1  0
  9 10  1  0
 10 11  1  1
 11 12  1  0
 12 13  1  0
 13 14  1  0
 14 15  1  0
 15 16  2  0
 16 17  1  0
 17 18  1  0
 18 19  2  0
 19 20  1  0
 20 21  2  0
 21 22  1  0
 22 23  1  0
 23 24  2  0
 24 25  1  0
 25 26  1  0
 25 27  2  0
 27 28  1  0
 21 29  1  0
 10 30  1  0
 10  2  1  0
 16 11  1  0
 29 18  1  0
  8  3  1  0
 29 15  1  0
 30  5  1  0
 28 22  2  0
  3 31  1  6
  4 32  1  0
  4 33  1  0
  5 34  1  6
  6 35  1  0
  6 36  1  0
  7 37  1  1
  8 38  1  0
  8 39  1  0
  9 40  1  0
  9 41  1  0
 12 42  1  0
 12 43  1  0
 13 44  1  0
 13 45  1  0
 14 46  1  0
 14 47  1  0
 17 48  1  0
 19 49  1  0
 23 50  1  0
 24 51  1  0
 27 52  1  0
 28 53  1  0
 30 54  1  0
 30 55  1  0
M  END
>  <meeko>  (11) 
{"is_sidechain": false}

$$$$

     RDKit          3D

 56 62  0  0  0  0  0  0  0  0999 V2000
   10.3560    3.7470  -56.3260 O   0  0  0  0  0  0  0  0  0  0  0  0
    9.7450    3.6530  -57.3920 C   0  0  0  0  0  0  0  0  0  0  0  0
   10.2170    4.4410  -58.6090 C   0  0  2  0  0  0  0  0  0  0  0  0
    9.1190    5.4520  -58.9390 C   0  0  0  0  0  0  0  0  0  0  0  0
    7.8080    4.7070  -59.2330 C   0  0  1  0  0  0  0  0  0  0  0  0
    8.0170    3.7460  -60.4140 C   0  0  0  0  0  0  0  0  0  0  0  0
    9.1170    2.7250  -60.0820 C   0  0  1  0  0  0  0  0  0  0  0  0
   10.4280    3.4630  -59.7670 C   0  0  0  0  0  0  0  0  0  0  0  0
    8.7050    1.9020  -58.8500 C   0  0  0  0  0  0  0  0  0  0  0  0
    8.4470    2.8130  -57.6270 C   0  0  1  0  0  0  0  0  0  0  0  0
    8.0100    1.9430  -56.4700 N   0  0  0  0  0  0  0  0  0  0  0  0
    6.5870    2.0810  -56.0450 C   0  0  0  0  0  0  0  0  0  0  0  0
    5.9710    0.7470  -55.5990 C   0  0  0  0  0  0  0  0  0  0  0  0
    6.8170    0.0300  -54.5500 C   0  0  0  0  0  0  0  0  0  0  0  0
    8.2290    0.0320  -54.9900 C   0  0  0  0  0  0  0  0  0  0  0  0
    8.7480    0.8990  -55.9090 C   0  0  0  0  0  0  0  0  0  0  0  0
   10.0840    0.5440  -56.1210 N   0  0  0  0  0  0  0  0  0  0  0  0
   10.3990   -0.4920  -55.2820 C   0  0  0  0  0  0  0  0  0  0  0  0
   11.3700   -1.3210  -54.8070 C   0  0  0  0  0  0  0  0  0  0  0  0
   10.7450   -2.1510  -53.8910 N   0  0  0  0  0  0  0  0  0  0  0  0
    9.4470   -1.8180  -53.7440 C   0  0  0  0  0  0  0  0  0  0  0  0
    8.4540   -2.4920  -52.7480 C   0  0  0  0  0  0  0  0  0  0  0  0
    7.4810   -3.3650  -53.2430 C   0  0  0  0  0  0  0  0  0  0  0  0
    6.6020   -3.9800  -52.3510 C   0  0  0  0  0  0  0  0  0  0  0  0
    6.7130   -3.7230  -50.9870 C   0  0  0  0  0  0  0  0  0  0  0  0
    5.8670   -4.3150  -50.1360 F   0  0  0  0  0  0  0  0  0  0  0  0
    7.6900   -2.8620  -50.4940 C   0  0  0  0  0  0  0  0  0  0  0  0
    8.5730   -2.2420  -51.3780 C   0  0  0  0  0  0  0  0  0  0  0  0
    9.2430   -0.8130  -54.5950 N   0  0  0  0  0  0  0  0  0  0  0  0
    7.3890    3.9000  -57.9860 C   0  0  0  0  0  0  0  0  0  0  0  0
   11.1647    4.9676  -58.4233 H   0  0  0  0  0  0  0  0  0  0  0  0
    8.9730    6.1271  -58.0829 H   0  0  0  0  0  0  0  0  0  0  0  0
    9.4136    6.0379  -59.8221 H   0  0  0  0  0  0  0  0  0  0  0  0
    7.0217    5.4335  -59.4859 H   0  0  0  0  0  0  0  0  0  0  0  0
    7.0769    3.2129  -60.6190 H   0  0  0  0  0  0  0  0  0  0  0  0
    8.3215    4.3258  -61.2978 H   0  0  0  0  0  0  0  0  0  0  0  0
    9.2598    2.0590  -60.9457 H   0  0  0  0  0  0  0  0  0  0  0  0
   11.1998    2.7304  -59.4882 H   0  0  0  0  0  0  0  0  0  0  0  0
   10.7479    4.0238  -60.6576 H   0  0  0  0  0  0  0  0  0  0  0  0
    7.7854    1.3449  -59.0823 H   0  0  0  0  0  0  0  0  0  0  0  0
    9.5255    1.2124  -58.6026 H   0  0  0  0  0  0  0  0  0  0  0  0
    6.5374    2.7899  -55.2054 H   0  0  0  0  0  0  0  0  0  0  0  0
    6.0136    2.4386  -56.9130 H   0  0  0  0  0  0  0  0  0  0  0  0
    4.9755    0.9434  -55.1742 H   0  0  0  0  0  0  0  0  0  0  0  0
    5.9141    0.0948  -56.4830 H   0  0  0  0  0  0  0  0  0  0  0  0
    6.7300    0.5521  -53.5857 H   0  0  0  0  0  0  0  0  0  0  0  0
    6.4651   -1.0054  -54.4317 H   0  0  0  0  0  0  0  0  0  0  0  0
   10.7000    1.3160  -56.3850 H   0  0  0  0  0  0  0  0  0  0  0  0
   12.4323   -1.3295  -55.0923 H   0  0  0  0  0  0  0  0  0  0  0  0
   11.1940   -2.8860  -53.3520 H   0  0  0  0  0  0  0  0  0  0  0  0
    7.4092   -3.5646  -54.3224 H   0  0  0  0  0  0  0  0  0  0  0  0
    5.8254   -4.6643  -52.7233 H   0  0  0  0  0  0  0  0  0  0  0  0
    7.7650   -2.6718  -49.4132 H   0  0  0  0  0  0  0  0  0  0  0  0
    9.3536   -1.5645  -51.0015 H   0  0  0  0  0  0  0  0  0  0  0  0
    6.4252    3.4087  -58.1854 H   0  0  0  0  0  0  0  0  0  0  0  0
    7.3061    4.5947  -57.1371 H   0  0  0  0  0  0  0  0  0  0  0  0
  1  2  2  0
  2  3  1  0
  3  4  1  0
  4  5  1  0
  5  6  1  0
  6  7  1  0
  7  8  1  0
  7  9  1  0
  9 10  1  0
 10 11  1  1
 11 12  1  0
 12 13  1  0
 13 14  1  0
 14 15  1  0
 15 16  2  0
 16 17  1  0
 17 18  1  0
 18 19  2  0
 19 20  1  0
 20 21  2  0
 21 22  1  0
 22 23  1  0
 23 24  2  0
 24 25  1  0
 25 26  1  0
 25 27  2  0
 27 28  1  0
 21 29  1  0
 10 30  1  0
 10  2  1  0
 16 11  1  0
 29 18  1  0
  8  3  1  0
 29 15  1  0
 30  5  1  0
 28 22  2  0
  3 31  1  1
  4 32  1  0
  4 33  1  0
  5 34  1  6
  6 35  1  0
  6 36  1  0
  7 37  1  6
  8 38  1  0
  8 39  1  0
  9 40  1  0
  9 41  1  0
 12 42  1  0
 12 43  1  0
 13 44  1  0
 13 45  1  0
 14 46  1  0
 14 47  1  0
 17 48  1  0
 19 49  1  0
 20 50  1  0
 23 51  1  0
 24 52  1  0
 27 53  1  0
 28 54  1  0
 30 55  1  0
 30 56  1  0
M  CHG  1  20   1
M  END
>  <meeko>  (12) 
{"is_sidechain": false}

$$$$

     RDKit          3D

 43 46  0  0  0  0  0  0  0  0999 V2000
    7.3670    1.6190  -56.3920 O   0  0  0  0  0  0  0  0  0  0  0  0
    8.5450    1.4370  -56.1110 C   0  0  0  0  0  0  0  0  0  0  0  0
    8.9070    0.4780  -55.0390 C   0  0  0  0  0  0  0  0  0  0  0  0
    8.0140   -0.1210  -54.2330 C   0  0  0  0  0  0  0  0  0  0  0  0
    8.3830   -1.0890  -53.1910 C   0  0  0  0  0  0  0  0  0  0  0  0
    7.5010   -1.3000  -52.1230 C   0  0  0  0  0  0  0  0  0  0  0  0
    7.8020   -2.2300  -51.1260 C   0  0  0  0  0  0  0  0  0  0  0  0
    8.9820   -2.9670  -51.1910 C   0  0  0  0  0  0  0  0  0  0  0  0
    9.8600   -2.7780  -52.2560 C   0  0  0  0  0  0  0  0  0  0  0  0
    9.5610   -1.8460  -53.2550 C   0  0  0  0  0  0  0  0  0  0  0  0
    9.5960    2.0190  -56.7610 N   0  0  0  0  0  0  0  0  0  0  0  0
    9.4650    2.9590  -57.8690 C   0  0  1  0  0  0  0  0  0  0  0  0
    8.7380    4.2580  -57.4690 C   0  0  0  0  0  0  0  0  0  0  0  0
    8.7380    5.2570  -58.6430 C   0  0  2  0  0  0  0  0  0  0  0  0
    8.0600    4.6120  -59.8630 C   0  0  0  0  0  0  0  0  0  0  0  0
    8.8170    3.3400  -60.2850 C   0  0  1  0  0  0  0  0  0  0  0  0
   10.2720    3.7040  -60.6360 C   0  0  0  0  0  0  0  0  0  0  0  0
   10.9570    4.3610  -59.4320 C   0  0  1  0  0  0  0  0  0  0  0  0
   10.1950    5.6160  -58.9950 C   0  0  0  0  0  0  0  0  0  0  0  0
   10.8970    3.3680  -58.2820 C   0  0  0  0  0  0  0  0  0  0  0  0
   11.9080    2.9210  -57.7360 O   0  0  0  0  0  0  0  0  0  0  0  0
    8.8170    2.3330  -59.1190 C   0  0  0  0  0  0  0  0  0  0  0  0
    9.9718    0.2426  -54.8949 H   0  0  0  0  0  0  0  0  0  0  0  0
    6.9498    0.1266  -54.3601 H   0  0  0  0  0  0  0  0  0  0  0  0
    6.5630   -0.7279  -52.0695 H   0  0  0  0  0  0  0  0  0  0  0  0
    7.1059   -2.3809  -50.2877 H   0  0  0  0  0  0  0  0  0  0  0  0
    9.2202   -3.6967  -50.4031 H   0  0  0  0  0  0  0  0  0  0  0  0
   10.7900   -3.3628  -52.3113 H   0  0  0  0  0  0  0  0  0  0  0  0
   10.2551   -1.7061  -54.0968 H   0  0  0  0  0  0  0  0  0  0  0  0
   10.5440    1.7260  -56.5460 H   0  0  0  0  0  0  0  0  0  0  0  0
    7.6994    4.0221  -57.1938 H   0  0  0  0  0  0  0  0  0  0  0  0
    9.2617    4.7115  -56.6145 H   0  0  0  0  0  0  0  0  0  0  0  0
    8.1883    6.1666  -58.3594 H   0  0  0  0  0  0  0  0  0  0  0  0
    7.0236    4.3486  -59.6050 H   0  0  0  0  0  0  0  0  0  0  0  0
    8.0704    5.3280  -60.6980 H   0  0  0  0  0  0  0  0  0  0  0  0
    8.3232    2.8939  -61.1609 H   0  0  0  0  0  0  0  0  0  0  0  0
   10.8190    2.7903  -60.9117 H   0  0  0  0  0  0  0  0  0  0  0  0
   10.2725    4.4101  -61.4795 H   0  0  0  0  0  0  0  0  0  0  0  0
   11.9877    4.6359  -59.7005 H   0  0  0  0  0  0  0  0  0  0  0  0
   10.6860    6.0503  -58.1117 H   0  0  0  0  0  0  0  0  0  0  0  0
   10.1967    6.3432  -59.8204 H   0  0  0  0  0  0  0  0  0  0  0  0
    7.7804    2.0483  -58.8859 H   0  0  0  0  0  0  0  0  0  0  0  0
    9.3954    1.4451  -59.4142 H   0  0  0  0  0  0  0  0  0  0  0  0
  1  2  2  0
  2  3  1  0
  3  4  2  0
  4  5  1  0
  5  6  2  0
  6  7  1  0
  7  8  2  0
  8  9  1  0
  9 10  2  0
  2 11  1  0
 12 11  1  1
 12 13  1  0
 13 14  1  0
 14 15  1  0
 15 16  1  0
 16 17  1  0
 17 18  1  0
 18 19  1  0
 18 20  1  0
 20 21  2  0
 16 22  1  0
 10  5  1  0
 20 12  1  0
 22 12  1  0
 19 14  1  0
  3 23  1  0
  4 24  1  0
  6 25  1  0
  7 26  1  0
  8 27  1  0
  9 28  1  0
 10 29  1  0
 11 30  1  0
 13 31  1  0
 13 32  1  0
 14 33  1  1
 15 34  1  0
 15 35  1  0
 16 36  1  6
 17 37  1  0
 17 38  1  0
 18 39  1  6
 19 40  1  0
 19 41  1  0
 22 42  1  0
 22 43  1  0
M  END
>  <meeko>  (13) 
{"is_sidechain": false}

$$$$

     RDKit          3D

 49 53  0  0  0  0  0  0  0  0999 V2000
    6.4780    2.1050  -56.8250 O   0  0  0  0  0  0  0  0  0  0  0  0
    7.5450    1.6730  -56.4100 C   0  0  0  0  0  0  0  0  0  0  0  0
    8.7880    2.0640  -56.8710 N   0  0  0  0  0  0  0  0  0  0  0  0
    8.9810    2.8960  -58.0650 C   0  0  1  0  0  0  0  0  0  0  0  0
    8.4860    4.3330  -57.7500 C   0  0  0  0  0  0  0  0  0  0  0  0
    8.7390    5.2820  -58.9380 C   0  0  2  0  0  0  0  0  0  0  0  0
    8.0020    4.7490  -60.1750 C   0  0  0  0  0  0  0  0  0  0  0  0
    8.5070    3.3410  -60.5200 C   0  0  1  0  0  0  0  0  0  0  0  0
   10.0210    3.3830  -60.7980 C   0  0  0  0  0  0  0  0  0  0  0  0
   10.7720    3.9430  -59.5850 C   0  0  1  0  0  0  0  0  0  0  0  0
   10.2510    5.3420  -59.2320 C   0  0  0  0  0  0  0  0  0  0  0  0
   10.4870    3.0610  -58.3770 C   0  0  0  0  0  0  0  0  0  0  0  0
   11.3880    2.6430  -57.6500 O   0  0  0  0  0  0  0  0  0  0  0  0
    8.2550    2.3940  -59.3330 C   0  0  0  0  0  0  0  0  0  0  0  0
    7.5510    0.6230  -55.3520 C   0  0  0  0  0  0  0  0  0  0  0  0
    8.7170    0.2820  -54.6560 C   0  0  0  0  0  0  0  0  0  0  0  0
    8.6770   -0.7070  -53.6680 C   0  0  0  0  0  0  0  0  0  0  0  0
    7.4800   -1.3710  -53.3510 C   0  0  0  0  0  0  0  0  0  0  0  0
    7.4430   -2.4140  -52.3130 C   0  0  0  0  0  0  0  0  0  0  0  0
    8.1630   -2.2700  -51.1150 C   0  0  0  0  0  0  0  0  0  0  0  0
    8.1280   -3.2600  -50.1290 C   0  0  0  0  0  0  0  0  0  0  0  0
    7.3750   -4.4140  -50.3260 C   0  0  0  0  0  0  0  0  0  0  0  0
    6.6540   -4.5770  -51.5060 C   0  0  0  0  0  0  0  0  0  0  0  0
    6.6880   -3.5850  -52.4900 C   0  0  0  0  0  0  0  0  0  0  0  0
    6.3170   -1.0070  -54.0500 C   0  0  0  0  0  0  0  0  0  0  0  0
    6.3500   -0.0170  -55.0370 C   0  0  0  0  0  0  0  0  0  0  0  0
    9.5040    1.3590  -56.7400 H   0  0  0  0  0  0  0  0  0  0  0  0
    7.4070    4.3026  -57.5384 H   0  0  0  0  0  0  0  0  0  0  0  0
    9.0414    4.7098  -56.8785 H   0  0  0  0  0  0  0  0  0  0  0  0
    8.3719    6.2893  -58.6920 H   0  0  0  0  0  0  0  0  0  0  0  0
    6.9227    4.7081  -59.9666 H   0  0  0  0  0  0  0  0  0  0  0  0
    8.1922    5.4197  -61.0259 H   0  0  0  0  0  0  0  0  0  0  0  0
    7.9711    2.9813  -61.4108 H   0  0  0  0  0  0  0  0  0  0  0  0
   10.3794    2.3643  -61.0075 H   0  0  0  0  0  0  0  0  0  0  0  0
   10.2066    4.0348  -61.6644 H   0  0  0  0  0  0  0  0  0  0  0  0
   11.8439    3.9774  -59.8296 H   0  0  0  0  0  0  0  0  0  0  0  0
   10.7806    5.7144  -58.3428 H   0  0  0  0  0  0  0  0  0  0  0  0
   10.4274    6.0183  -60.0814 H   0  0  0  0  0  0  0  0  0  0  0  0
    7.1742    2.3453  -59.1340 H   0  0  0  0  0  0  0  0  0  0  0  0
    8.6432    1.3972  -59.5894 H   0  0  0  0  0  0  0  0  0  0  0  0
    9.6642    0.7918  -54.8862 H   0  0  0  0  0  0  0  0  0  0  0  0
    9.5994   -0.9698  -53.1293 H   0  0  0  0  0  0  0  0  0  0  0  0
    8.7639   -1.3635  -50.9505 H   0  0  0  0  0  0  0  0  0  0  0  0
    8.6960   -3.1271  -49.1965 H   0  0  0  0  0  0  0  0  0  0  0  0
    7.3496   -5.1949  -49.5517 H   0  0  0  0  0  0  0  0  0  0  0  0
    6.0571   -5.4874  -51.6639 H   0  0  0  0  0  0  0  0  0  0  0  0
    6.1141   -3.7237  -53.4181 H   0  0  0  0  0  0  0  0  0  0  0  0
    5.3660   -1.5084  -53.8173 H   0  0  0  0  0  0  0  0  0  0  0  0
    5.4266    0.2589  -55.5674 H   0  0  0  0  0  0  0  0  0  0  0  0
  1  2  2  0
  2  3  1  0
  4  3  1  1
  4  5  1  0
  5  6  1  0
  6  7  1  0
  7  8  1  0
  8  9  1  0
  9 10  1  0
 10 11  1  0
 10 12  1  0
 12 13  2  0
  8 14  1  0
  2 15  1  0
 15 16  1  0
 16 17  2  0
 17 18  1  0
 18 19  1  0
 19 20  2  0
 20 21  1  0
 21 22  2  0
 22 23  1  0
 23 24  2  0
 18 25  2  0
 25 26  1  0
 12  4  1  0
 26 15  2  0
 14  4  1  0
 24 19  1  0
 11  6  1  0
  3 27  1  0
  5 28  1  0
  5 29  1  0
  6 30  1  1
  7 31  1  0
  7 32  1  0
  8 33  1  6
  9 34  1  0
  9 35  1  0
 10 36  1  6
 11 37  1  0
 11 38  1  0
 14 39  1  0
 14 40  1  0
 16 41  1  0
 17 42  1  0
 20 43  1  0
 21 44  1  0
 22 45  1  0
 23 46  1  0
 24 47  1  0
 25 48  1  0
 26 49  1  0
M  END
>  <meeko>  (14) 
{"is_sidechain": false}

$$$$

     RDKit          3D

 47 50  0  0  0  0  0  0  0  0999 V2000
    6.5760    1.9690  -56.8090 O   0  0  0  0  0  0  0  0  0  0  0  0
    7.6790    1.6110  -56.4250 C   0  0  0  0  0  0  0  0  0  0  0  0
    7.8800    0.7870  -55.3440 N   0  0  0  0  0  0  0  0  0  0  0  0
    6.7550    0.2510  -54.6010 C   0  0  0  0  0  0  0  0  0  0  0  0
    6.6890   -1.2770  -54.6630 C   0  0  0  0  0  0  0  0  0  0  0  0
    7.4160   -1.9180  -53.5050 C   0  0  0  0  0  0  0  0  0  0  0  0
    6.6990   -2.3900  -52.3980 C   0  0  0  0  0  0  0  0  0  0  0  0
    7.3670   -2.9690  -51.3180 C   0  0  0  0  0  0  0  0  0  0  0  0
    8.7600   -3.0810  -51.3290 C   0  0  0  0  0  0  0  0  0  0  0  0
    9.5210   -3.8100  -49.9590 Cl  0  0  0  0  0  0  0  0  0  0  0  0
    9.4850   -2.6100  -52.4280 C   0  0  0  0  0  0  0  0  0  0  0  0
   11.2080   -2.7080  -52.5130 Cl  0  0  0  0  0  0  0  0  0  0  0  0
    8.8130   -2.0290  -53.5100 C   0  0  0  0  0  0  0  0  0  0  0  0
    8.8790    1.9480  -57.0000 N   0  0  0  0  0  0  0  0  0  0  0  0
    8.9870    2.9080  -58.1060 C   0  0  1  0  0  0  0  0  0  0  0  0
    7.9500    2.7140  -59.2340 C   0  0  0  0  0  0  0  0  0  0  0  0
    8.1540    3.7550  -60.3500 C   0  0  2  0  0  0  0  0  0  0  0  0
    9.5650    3.6140  -60.9370 C   0  0  0  0  0  0  0  0  0  0  0  0
   10.6140    3.8380  -59.8380 C   0  0  1  0  0  0  0  0  0  0  0  0
   10.4450    5.2560  -59.2550 C   0  0  0  0  0  0  0  0  0  0  0  0
    9.0370    5.4180  -58.6680 C   0  0  1  0  0  0  0  0  0  0  0  0
    7.9760    5.1600  -59.7430 C   0  0  0  0  0  0  0  0  0  0  0  0
    8.9060    4.3600  -57.5800 C   0  0  0  0  0  0  0  0  0  0  0  0
    8.8910    4.6530  -56.3860 O   0  0  0  0  0  0  0  0  0  0  0  0
   10.4090    2.7960  -58.7190 C   0  0  0  0  0  0  0  0  0  0  0  0
    8.7370    0.2530  -55.3530 H   0  0  0  0  0  0  0  0  0  0  0  0
    6.8481    0.5581  -53.5488 H   0  0  0  0  0  0  0  0  0  0  0  0
    5.8344    0.6450  -55.0562 H   0  0  0  0  0  0  0  0  0  0  0  0
    5.6345   -1.5890  -54.6378 H   0  0  0  0  0  0  0  0  0  0  0  0
    7.1759   -1.6024  -55.5942 H   0  0  0  0  0  0  0  0  0  0  0  0
    5.6025   -2.3037  -52.3798 H   0  0  0  0  0  0  0  0  0  0  0  0
    6.7946   -3.3388  -50.4545 H   0  0  0  0  0  0  0  0  0  0  0  0
    9.3865   -1.6564  -54.3716 H   0  0  0  0  0  0  0  0  0  0  0  0
    9.5660    2.1060  -56.2740 H   0  0  0  0  0  0  0  0  0  0  0  0
    8.0623    1.7049  -59.6573 H   0  0  0  0  0  0  0  0  0  0  0  0
    6.9423    2.8426  -58.8121 H   0  0  0  0  0  0  0  0  0  0  0  0
    7.4204    3.5978  -61.1545 H   0  0  0  0  0  0  0  0  0  0  0  0
    9.6862    2.6043  -61.3563 H   0  0  0  0  0  0  0  0  0  0  0  0
    9.7043    4.3650  -61.7286 H   0  0  0  0  0  0  0  0  0  0  0  0
   11.6238    3.7311  -60.2610 H   0  0  0  0  0  0  0  0  0  0  0  0
   11.1907    5.4150  -58.4621 H   0  0  0  0  0  0  0  0  0  0  0  0
   10.5891    5.9953  -60.0566 H   0  0  0  0  0  0  0  0  0  0  0  0
    8.8904    6.4364  -58.2790 H   0  0  0  0  0  0  0  0  0  0  0  0
    6.9763    5.2349  -59.2903 H   0  0  0  0  0  0  0  0  0  0  0  0
    8.0879    5.9092  -60.5406 H   0  0  0  0  0  0  0  0  0  0  0  0
   10.5413    1.7876  -59.1382 H   0  0  0  0  0  0  0  0  0  0  0  0
   11.1476    2.9845  -57.9260 H   0  0  0  0  0  0  0  0  0  0  0  0
  1  2  2  0
  2  3  1  0
  3  4  1  0
  4  5  1  0
  5  6  1  0
  6  7  1  0
  7  8  2  0
  8  9  1  0
  9 10  1  0
  9 11  2  0
 11 12  1  0
 11 13  1  0
  2 14  1  0
 15 14  1  1
 15 16  1  0
 16 17  1  0
 17 18  1  0
 18 19  1  0
 19 20  1  0
 20 21  1  0
 21 22  1  0
 21 23  1  0
 23 24  2  0
 19 25  1  0
 13  6  2  0
 23 15  1  0
 25 15  1  0
 22 17  1  0
  3 26  1  0
  4 27  1  0
  4 28  1  0
  5 29  1  0
  5 30  1  0
  7 31  1  0
  8 32  1  0
 13 33  1  0
 14 34  1  0
 16 35  1  0
 16 36  1  0
 17 37  1  6
 18 38  1  0
 18 39  1  0
 19 40  1  6
 20 41  1  0
 20 42  1  0
 21 43  1  1
 22 44  1  0
 22 45  1  0
 25 46  1  0
 25 47  1  0
M  END
>  <meeko>  (15) 
{"is_sidechain": false}

$$$$

     RDKit          3D

 50 54  0  0  0  0  0  0  0  0999 V2000
    6.6620    0.3120  -55.5810 C   0  0  0  0  0  0  0  0  0  0  0  0
    6.8870    0.4830  -54.1870 O   0  0  0  0  0  0  0  0  0  0  0  0
    7.5640   -0.5180  -53.5430 C   0  0  0  0  0  0  0  0  0  0  0  0
    7.0510   -0.8510  -52.2840 C   0  0  0  0  0  0  0  0  0  0  0  0
    7.6760   -1.8380  -51.5370 C   0  0  0  0  0  0  0  0  0  0  0  0
    8.7940   -2.5190  -52.0300 C   0  0  0  0  0  0  0  0  0  0  0  0
    9.2880   -2.2230  -53.2920 C   0  0  0  0  0  0  0  0  0  0  0  0
   10.4460   -2.9540  -53.8500 C   0  0  0  0  0  0  0  0  0  0  0  0
   11.5460   -2.8340  -53.3290 O   0  0  0  0  0  0  0  0  0  0  0  0
   10.1520   -3.7400  -54.9440 N   0  0  0  0  0  0  0  0  0  0  0  0
   11.1340   -4.2020  -55.9320 C   0  0  1  0  0  0  0  0  0  0  0  0
   10.3940   -5.0210  -57.0200 C   0  0  0  0  0  0  0  0  0  0  0  0
   11.3540   -5.4320  -58.1540 C   0  0  2  0  0  0  0  0  0  0  0  0
   12.4980   -6.2710  -57.5670 C   0  0  0  0  0  0  0  0  0  0  0  0
   13.2640   -5.4540  -56.5180 C   0  0  1  0  0  0  0  0  0  0  0  0
   13.8370   -4.1790  -57.1650 C   0  0  0  0  0  0  0  0  0  0  0  0
   12.7100   -3.3400  -57.7770 C   0  0  1  0  0  0  0  0  0  0  0  0
   11.9340   -4.1640  -58.8130 C   0  0  0  0  0  0  0  0  0  0  0  0
   11.7190   -2.9780  -56.6770 C   0  0  0  0  0  0  0  0  0  0  0  0
   11.3470   -1.8200  -56.4890 O   0  0  0  0  0  0  0  0  0  0  0  0
   12.3090   -5.0370  -55.3830 C   0  0  0  0  0  0  0  0  0  0  0  0
    8.6800   -1.2030  -54.0460 C   0  0  0  0  0  0  0  0  0  0  0  0
    9.2460   -3.5630  -51.0570 C   0  0  0  0  0  0  0  0  0  0  0  0
    8.5530   -3.0950  -49.7680 C   0  0  0  0  0  0  0  0  0  0  0  0
    7.2740   -2.3640  -50.1950 C   0  0  0  0  0  0  0  0  0  0  0  0
    5.7948   -0.3471  -55.7343 H   0  0  0  0  0  0  0  0  0  0  0  0
    6.4652    1.2905  -56.0434 H   0  0  0  0  0  0  0  0  0  0  0  0
    7.5521   -0.1396  -56.0434 H   0  0  0  0  0  0  0  0  0  0  0  0
    6.1620   -0.3355  -51.8916 H   0  0  0  0  0  0  0  0  0  0  0  0
    9.2160   -3.6200  -55.3120 H   0  0  0  0  0  0  0  0  0  0  0  0
    9.9705   -5.9269  -56.5618 H   0  0  0  0  0  0  0  0  0  0  0  0
    9.5967   -4.3948  -57.4469 H   0  0  0  0  0  0  0  0  0  0  0  0
   10.8110   -6.0228  -58.9064 H   0  0  0  0  0  0  0  0  0  0  0  0
   12.0825   -7.1729  -57.0938 H   0  0  0  0  0  0  0  0  0  0  0  0
   13.1871   -6.5571  -58.3752 H   0  0  0  0  0  0  0  0  0  0  0  0
   14.0804   -6.0725  -56.1169 H   0  0  0  0  0  0  0  0  0  0  0  0
   14.3562   -3.5851  -56.3984 H   0  0  0  0  0  0  0  0  0  0  0  0
   14.5408   -4.4666  -57.9599 H   0  0  0  0  0  0  0  0  0  0  0  0
   13.1525   -2.4488  -58.2461 H   0  0  0  0  0  0  0  0  0  0  0  0
   11.1119   -3.5565  -59.2194 H   0  0  0  0  0  0  0  0  0  0  0  0
   12.6168   -4.4592  -59.6233 H   0  0  0  0  0  0  0  0  0  0  0  0
   11.9126   -5.9400  -54.8958 H   0  0  0  0  0  0  0  0  0  0  0  0
   12.8681   -4.4247  -54.6601 H   0  0  0  0  0  0  0  0  0  0  0  0
    9.0820   -0.9410  -55.0358 H   0  0  0  0  0  0  0  0  0  0  0  0
    8.9060   -4.5656  -51.3556 H   0  0  0  0  0  0  0  0  0  0  0  0
   10.3388   -3.6561  -50.9721 H   0  0  0  0  0  0  0  0  0  0  0  0
    8.3022   -3.9603  -49.1369 H   0  0  0  0  0  0  0  0  0  0  0  0
    9.2098   -2.4340  -49.1835 H   0  0  0  0  0  0  0  0  0  0  0  0
    6.4211   -3.0545  -50.2713 H   0  0  0  0  0  0  0  0  0  0  0  0
    6.9379   -1.5907  -49.4885 H   0  0  0  0  0  0  0  0  0  0  0  0
  1  2  1  0
  2  3  1  0
  3  4  1  0
  4  5  2  0
  5  6  1  0
  6  7  2  0
  7  8  1  0
  8  9  2  0
  8 10  1  0
 11 10  1  1
 11 12  1  0
 12 13  1  0
 13 14  1  0
 14 15  1  0
 15 16  1  0
 16 17  1  0
 17 18  1  0
 17 19  1  0
 19 20  2  0
 15 21  1  0
  7 22  1  0
  6 23  1  0
 23 24  1  0
 24 25  1  0
 22  3  2  0
 25  5  1  0
 19 11  1  0
 21 11  1  0
 18 13  1  0
  1 26  1  0
  1 27  1  0
  1 28  1  0
  4 29  1  0
 10 30  1  0
 12 31  1  0
 12 32  1  0
 13 33  1  6
 14 34  1  0
 14 35  1  0
 15 36  1  1
 16 37  1  0
 16 38  1  0
 17 39  1  6
 18 40  1  0
 18 41  1  0
 21 42  1  0
 21 43  1  0
 22 44  1  0
 23 45  1  0
 23 46  1  0
 24 47  1  0
 24 48  1  0
 25 49  1  0
 25 50  1  0
M  END
>  <meeko>  (16) 
{"is_sidechain": false}

$$$$

     RDKit          3D

 53 57  0  0  0  0  0  0  0  0999 V2000
   11.4810   -1.1320  -55.4920 C   0  0  0  0  0  0  0  0  0  0  0  0
   10.0900   -0.8980  -54.9600 C   0  0  0  0  0  0  0  0  0  0  0  0
    9.6550   -1.8780  -53.9690 C   0  0  0  0  0  0  0  0  0  0  0  0
    8.4580   -1.7750  -53.3730 C   0  0  0  0  0  0  0  0  0  0  0  0
    7.9970   -2.7410  -52.3660 C   0  0  0  0  0  0  0  0  0  0  0  0
    8.6800   -2.8690  -51.1470 C   0  0  0  0  0  0  0  0  0  0  0  0
    8.2420   -3.7790  -50.1830 C   0  0  0  0  0  0  0  0  0  0  0  0
    7.1170   -4.5650  -50.4250 C   0  0  0  0  0  0  0  0  0  0  0  0
    6.4290   -4.4450  -51.6310 C   0  0  0  0  0  0  0  0  0  0  0  0
    6.8670   -3.5370  -52.5980 C   0  0  0  0  0  0  0  0  0  0  0  0
    7.6380   -0.7290  -53.6960 N   0  0  0  0  0  0  0  0  0  0  0  0
    7.9470    0.2370  -54.6180 C   0  0  0  0  0  0  0  0  0  0  0  0
    7.1590    1.1540  -54.8430 O   0  0  0  0  0  0  0  0  0  0  0  0
    9.2750    0.1280  -55.3170 C   0  0  0  0  0  0  0  0  0  0  0  0
    9.6710    1.1120  -56.3880 C   0  0  0  0  0  0  0  0  0  0  0  0
   10.8180    1.1710  -56.8210 O   0  0  0  0  0  0  0  0  0  0  0  0
    8.6570    1.9150  -56.8550 N   0  0  0  0  0  0  0  0  0  0  0  0
    8.7720    2.8760  -57.9550 C   0  0  2  0  0  0  0  0  0  0  0  0
    9.5950    4.1250  -57.5510 C   0  0  0  0  0  0  0  0  0  0  0  0
    9.6530    5.1350  -58.7110 C   0  0  1  0  0  0  0  0  0  0  0  0
   10.2960    4.4630  -59.9350 C   0  0  0  0  0  0  0  0  0  0  0  0
    9.4660    3.2440  -60.3690 C   0  0  2  0  0  0  0  0  0  0  0  0
    8.0400    3.7000  -60.7160 C   0  0  0  0  0  0  0  0  0  0  0  0
    7.3890    4.3650  -59.4920 C   0  0  2  0  0  0  0  0  0  0  0  0
    8.2260    5.5810  -59.0670 C   0  0  0  0  0  0  0  0  0  0  0  0
    7.3430    3.3550  -58.3340 C   0  0  0  0  0  0  0  0  0  0  0  0
    9.4080    2.2310  -59.2110 C   0  0  0  0  0  0  0  0  0  0  0  0
   12.1802   -1.2496  -54.6510 H   0  0  0  0  0  0  0  0  0  0  0  0
   11.4899   -2.0443  -56.1066 H   0  0  0  0  0  0  0  0  0  0  0  0
   11.7879   -0.2729  -56.1066 H   0  0  0  0  0  0  0  0  0  0  0  0
   10.3198   -2.7143  -53.7070 H   0  0  0  0  0  0  0  0  0  0  0  0
    9.5664   -2.2483  -50.9496 H   0  0  0  0  0  0  0  0  0  0  0  0
    8.7855   -3.8756  -49.2315 H   0  0  0  0  0  0  0  0  0  0  0  0
    6.7719   -5.2803  -49.6639 H   0  0  0  0  0  0  0  0  0  0  0  0
    5.5409   -5.0654  -51.8215 H   0  0  0  0  0  0  0  0  0  0  0  0
    6.3210   -3.4461  -53.5486 H   0  0  0  0  0  0  0  0  0  0  0  0
    6.7300   -0.6490  -53.2540 H   0  0  0  0  0  0  0  0  0  0  0  0
    7.7120    1.6690  -56.5590 H   0  0  0  0  0  0  0  0  0  0  0  0
    9.1231    4.6023  -56.6795 H   0  0  0  0  0  0  0  0  0  0  0  0
   10.6195    3.8096  -57.3043 H   0  0  0  0  0  0  0  0  0  0  0  0
   10.2496    6.0096  -58.4124 H   0  0  0  0  0  0  0  0  0  0  0  0
   10.3417    5.1850  -60.7636 H   0  0  0  0  0  0  0  0  0  0  0  0
   11.3105    4.1304  -59.6700 H   0  0  0  0  0  0  0  0  0  0  0  0
    9.9293    2.7741  -61.2491 H   0  0  0  0  0  0  0  0  0  0  0  0
    8.0798    4.4220  -61.5449 H   0  0  0  0  0  0  0  0  0  0  0  0
    7.4428    2.8251  -61.0123 H   0  0  0  0  0  0  0  0  0  0  0  0
    6.3690    4.6889  -59.7463 H   0  0  0  0  0  0  0  0  0  0  0  0
    8.2657    6.3039  -59.8951 H   0  0  0  0  0  0  0  0  0  0  0  0
    7.7627    6.0497  -58.1863 H   0  0  0  0  0  0  0  0  0  0  0  0
    6.8798    3.8329  -57.4582 H   0  0  0  0  0  0  0  0  0  0  0  0
    6.7544    2.4824  -58.6535 H   0  0  0  0  0  0  0  0  0  0  0  0
    8.8035    1.3648  -59.5182 H   0  0  0  0  0  0  0  0  0  0  0  0
   10.4321    1.9124  -58.9665 H   0  0  0  0  0  0  0  0  0  0  0  0
  1  2  1  0
  2  3  1  0
  3  4  2  0
  4  5  1  0
  5  6  2  0
  6  7  1  0
  7  8  2  0
  8  9  1  0
  9 10  2  0
  4 11  1  0
 11 12  1  0
 12 13  2  0
 12 14  1  0
 14 15  1  0
 15 16  2  0
 15 17  1  0
 18 17  1  1
 18 19  1  0
 19 20  1  0
 20 21  1  0
 21 22  1  0
 22 23  1  0
 23 24  1  0
 24 25  1  0
 24 26  1  0
 22 27  1  0
 14  2  2  0
 26 18  1  0
 10  5  1  0
 27 18  1  0
 25 20  1  0
  1 28  1  0
  1 29  1  0
  1 30  1  0
  3 31  1  0
  6 32  1  0
  7 33  1  0
  8 34  1  0
  9 35  1  0
 10 36  1  0
 11 37  1  0
 17 38  1  0
 19 39  1  0
 19 40  1  0
 20 41  1  1
 21 42  1  0
 21 43  1  0
 22 44  1  6
 23 45  1  0
 23 46  1  0
 24 47  1  6
 25 48  1  0
 25 49  1  0
 26 50  1  0
 26 51  1  0
 27 52  1  0
 27 53  1  0
M  END
>  <meeko>  (17) 
{"is_sidechain": false}

$$$$

     RDKit          3D

 53 57  0  0  0  0  0  0  0  0999 V2000
   11.4450   -1.2480  -55.8040 C   0  0  0  0  0  0  0  0  0  0  0  0
   10.1380   -0.9650  -55.1160 C   0  0  0  0  0  0  0  0  0  0  0  0
    9.6940   -1.8750  -54.1360 C   0  0  0  0  0  0  0  0  0  0  0  0
    8.4820   -1.6690  -53.4760 C   0  0  0  0  0  0  0  0  0  0  0  0
    7.9650   -2.5860  -52.4410 C   0  0  0  0  0  0  0  0  0  0  0  0
    8.4530   -2.5710  -51.1210 C   0  0  0  0  0  0  0  0  0  0  0  0
    7.9550   -3.4490  -50.1520 C   0  0  0  0  0  0  0  0  0  0  0  0
    6.9570   -4.3620  -50.4830 C   0  0  0  0  0  0  0  0  0  0  0  0
    6.4520   -4.3930  -51.7790 C   0  0  0  0  0  0  0  0  0  0  0  0
    6.9500   -3.5130  -52.7440 C   0  0  0  0  0  0  0  0  0  0  0  0
    7.6980   -0.6040  -53.7650 N   0  0  0  0  0  0  0  0  0  0  0  0
    8.1480    0.2600  -54.6960 C   0  0  0  0  0  0  0  0  0  0  0  0
    7.2670    1.2830  -54.8660 O   0  0  0  0  0  0  0  0  0  0  0  0
    9.3420    0.1610  -55.4030 C   0  0  0  0  0  0  0  0  0  0  0  0
    9.7670    1.1940  -56.4030 C   0  0  0  0  0  0  0  0  0  0  0  0
   10.9410    1.5420  -56.4730 O   0  0  0  0  0  0  0  0  0  0  0  0
    8.7850    1.7190  -57.2190 N   0  0  0  0  0  0  0  0  0  0  0  0
    8.9800    2.7940  -58.1960 C   0  0  2  0  0  0  0  0  0  0  0  0
    9.0070    4.1850  -57.5150 C   0  0  0  0  0  0  0  0  0  0  0  0
    9.1540    5.2980  -58.5660 C   0  0  1  0  0  0  0  0  0  0  0  0
   10.4580    5.0830  -59.3540 C   0  0  0  0  0  0  0  0  0  0  0  0
   10.4260    3.7200  -60.0680 C   0  0  2  0  0  0  0  0  0  0  0  0
    9.2270    3.6770  -61.0260 C   0  0  0  0  0  0  0  0  0  0  0  0
    7.9210    3.8820  -60.2430 C   0  0  2  0  0  0  0  0  0  0  0  0
    7.9620    5.2460  -59.5340 C   0  0  0  0  0  0  0  0  0  0  0  0
    7.7850    2.7710  -59.1890 C   0  0  0  0  0  0  0  0  0  0  0  0
   10.2800    2.6040  -59.0180 C   0  0  0  0  0  0  0  0  0  0  0  0
   12.2274   -1.4174  -55.0495 H   0  0  0  0  0  0  0  0  0  0  0  0
   11.3417   -2.1446  -56.4328 H   0  0  0  0  0  0  0  0  0  0  0  0
   11.7219   -0.3890  -56.4328 H   0  0  0  0  0  0  0  0  0  0  0  0
   10.3074   -2.7542  -53.8895 H   0  0  0  0  0  0  0  0  0  0  0  0
    9.2414   -1.8550  -50.8457 H   0  0  0  0  0  0  0  0  0  0  0  0
    8.3526   -3.4180  -49.1268 H   0  0  0  0  0  0  0  0  0  0  0  0
    6.5694   -5.0560  -49.7227 H   0  0  0  0  0  0  0  0  0  0  0  0
    5.6610   -5.1099  -52.0442 H   0  0  0  0  0  0  0  0  0  0  0  0
    6.5392   -3.5456  -53.7639 H   0  0  0  0  0  0  0  0  0  0  0  0
    7.3040    1.6730  -53.9720 H   0  0  0  0  0  0  0  0  0  0  0  0
    7.8260    1.4960  -56.9650 H   0  0  0  0  0  0  0  0  0  0  0  0
    8.0695    4.3339  -56.9591 H   0  0  0  0  0  0  0  0  0  0  0  0
    9.8661    4.2282  -56.8294 H   0  0  0  0  0  0  0  0  0  0  0  0
    9.1801    6.2772  -58.0654 H   0  0  0  0  0  0  0  0  0  0  0  0
   10.5675    5.8827  -60.1013 H   0  0  0  0  0  0  0  0  0  0  0  0
   11.3080    5.1039  -58.6561 H   0  0  0  0  0  0  0  0  0  0  0  0
   11.3567    3.5757  -60.6363 H   0  0  0  0  0  0  0  0  0  0  0  0
    9.3312    4.4750  -61.7759 H   0  0  0  0  0  0  0  0  0  0  0  0
    9.1987    2.6972  -61.5252 H   0  0  0  0  0  0  0  0  0  0  0  0
    7.0659    3.8484  -60.9341 H   0  0  0  0  0  0  0  0  0  0  0  0
    8.0665    6.0437  -60.2841 H   0  0  0  0  0  0  0  0  0  0  0  0
    7.0297    5.3873  -58.9675 H   0  0  0  0  0  0  0  0  0  0  0  0
    6.8497    2.9191  -58.6293 H   0  0  0  0  0  0  0  0  0  0  0  0
    7.7770    1.7991  -59.7042 H   0  0  0  0  0  0  0  0  0  0  0  0
   10.2459    1.6301  -59.5282 H   0  0  0  0  0  0  0  0  0  0  0  0
   11.1407    2.6459  -58.3344 H   0  0  0  0  0  0  0  0  0  0  0  0
  1  2  1  0
  2  3  1  0
  3  4  2  0
  4  5  1  0
  5  6  2  0
  6  7  1  0
  7  8  2  0
  8  9  1  0
  9 10  2  0
  4 11  1  0
 11 12  2  0
 12 13  1  0
 12 14  1  0
 14 15  1  0
 15 16  2  0
 15 17  1  0
 18 17  1  1
 18 19  1  0
 19 20  1  0
 20 21  1  0
 21 22  1  0
 22 23  1  0
 23 24  1  0
 24 25  1  0
 24 26  1  0
 22 27  1  0
 14  2  2  0
 26 18  1  0
 10  5  1  0
 27 18  1  0
 25 20  1  0
  1 28  1  0
  1 29  1  0
  1 30  1  0
  3 31  1  0
  6 32  1  0
  7 33  1  0
  8 34  1  0
  9 35  1  0
 10 36  1  0
 13 37  1  0
 17 38  1  0
 19 39  1  0
 19 40  1  0
 20 41  1  1
 21 42  1  0
 21 43  1  0
 22 44  1  6
 23 45  1  0
 23 46  1  0
 24 47  1  6
 25 48  1  0
 25 49  1  0
 26 50  1  0
 26 51  1  0
 27 52  1  0
 27 53  1  0
M  END
>  <meeko>  (18) 
{"is_sidechain": false}

$$$$

     RDKit          3D

 59 64  0  0  0  0  0  0  0  0999 V2000
    6.5310    0.0580  -54.0510 C   0  0  0  0  0  0  0  0  0  0  0  0
    7.9430   -0.3460  -54.3270 C   0  0  0  0  0  0  0  0  0  0  0  0
    8.8220    0.2960  -55.2660 C   0  0  0  0  0  0  0  0  0  0  0  0
    8.5750    1.4060  -56.1670 C   0  0  0  0  0  0  0  0  0  0  0  0
    9.4130    1.6630  -57.1020 N   0  0  0  0  0  0  0  0  0  0  0  0
    9.1550    2.7920  -58.0020 C   0  0  1  0  0  0  0  0  0  0  0  0
    7.7260    3.3420  -57.8390 C   0  0  0  0  0  0  0  0  0  0  0  0
    7.5180    4.5680  -58.7510 C   0  0  2  0  0  0  0  0  0  0  0  0
    7.7910    4.1710  -60.2120 C   0  0  0  0  0  0  0  0  0  0  0  0
    9.2360    3.6700  -60.3720 C   0  0  1  0  0  0  0  0  0  0  0  0
   10.2140    4.7820  -59.9450 C   0  0  0  0  0  0  0  0  0  0  0  0
    9.9450    5.1920  -58.4940 C   0  0  1  0  0  0  0  0  0  0  0  0
    8.5000    5.6760  -58.3280 C   0  0  0  0  0  0  0  0  0  0  0  0
   10.1160    3.9500  -57.6260 C   0  0  0  0  0  0  0  0  0  0  0  0
   10.9520    3.9170  -56.7250 O   0  0  0  0  0  0  0  0  0  0  0  0
    9.4550    2.4380  -59.4710 C   0  0  0  0  0  0  0  0  0  0  0  0
   10.0390   -0.3500  -55.1740 C   0  0  0  0  0  0  0  0  0  0  0  0
    9.9310   -1.3690  -54.2580 N   0  0  0  0  0  0  0  0  0  0  0  0
   11.0290   -2.2810  -53.9430 C   0  0  0  0  0  0  0  0  0  0  0  0
   11.3890   -3.1670  -55.1130 C   0  0  0  0  0  0  0  0  0  0  0  0
   11.6010   -4.5420  -54.9270 C   0  0  0  0  0  0  0  0  0  0  0  0
   11.9310   -5.3680  -56.0050 C   0  0  0  0  0  0  0  0  0  0  0  0
   12.0570   -4.8260  -57.2830 C   0  0  0  0  0  0  0  0  0  0  0  0
   12.4670   -5.8510  -58.6030 Cl  0  0  0  0  0  0  0  0  0  0  0  0
   11.8550   -3.4630  -57.4760 C   0  0  0  0  0  0  0  0  0  0  0  0
   11.9760   -2.9170  -58.6950 F   0  0  0  0  0  0  0  0  0  0  0  0
   11.5250   -2.6350  -56.4050 C   0  0  0  0  0  0  0  0  0  0  0  0
    8.6570   -1.3840  -53.7290 C   0  0  0  0  0  0  0  0  0  0  0  0
    8.2150   -2.3360  -52.7500 C   0  0  0  0  0  0  0  0  0  0  0  0
    8.1680   -2.2010  -51.3710 C   0  0  0  0  0  0  0  0  0  0  0  0
    7.6710   -3.4150  -50.8430 C   0  0  0  0  0  0  0  0  0  0  0  0
    7.4390   -4.2280  -51.9230 C   0  0  0  0  0  0  0  0  0  0  0  0
    7.7490   -3.5850  -53.0760 O   0  0  0  0  0  0  0  0  0  0  0  0
    6.3687    0.1044  -52.9640 H   0  0  0  0  0  0  0  0  0  0  0  0
    6.3395    1.0470  -54.4929 H   0  0  0  0  0  0  0  0  0  0  0  0
    5.8454   -0.6800  -54.4929 H   0  0  0  0  0  0  0  0  0  0  0  0
    7.6728    2.0240  -56.0482 H   0  0  0  0  0  0  0  0  0  0  0  0
    7.0026    2.5596  -58.1119 H   0  0  0  0  0  0  0  0  0  0  0  0
    7.5760    3.6448  -56.7922 H   0  0  0  0  0  0  0  0  0  0  0  0
    6.4836    4.9311  -58.6600 H   0  0  0  0  0  0  0  0  0  0  0  0
    7.0957    3.3709  -60.5059 H   0  0  0  0  0  0  0  0  0  0  0  0
    7.6467    5.0528  -60.8536 H   0  0  0  0  0  0  0  0  0  0  0  0
    9.4136    3.3996  -61.4233 H   0  0  0  0  0  0  0  0  0  0  0  0
   11.2462    4.4120  -60.0330 H   0  0  0  0  0  0  0  0  0  0  0  0
   10.0723    5.6559  -60.5979 H   0  0  0  0  0  0  0  0  0  0  0  0
   10.6353    5.9999  -58.2096 H   0  0  0  0  0  0  0  0  0  0  0  0
    8.3225    5.9364  -57.2741 H   0  0  0  0  0  0  0  0  0  0  0  0
    8.3413    6.5593  -58.9641 H   0  0  0  0  0  0  0  0  0  0  0  0
    8.7842    1.6282  -59.7937 H   0  0  0  0  0  0  0  0  0  0  0  0
   10.5029    2.1141  -59.5550 H   0  0  0  0  0  0  0  0  0  0  0  0
   10.9457   -0.0916  -55.7406 H   0  0  0  0  0  0  0  0  0  0  0  0
   11.9123   -1.6884  -53.6625 H   0  0  0  0  0  0  0  0  0  0  0  0
   10.7027   -2.9293  -53.1164 H   0  0  0  0  0  0  0  0  0  0  0  0
   11.5062   -4.9749  -53.9202 H   0  0  0  0  0  0  0  0  0  0  0  0
   12.0911   -6.4445  -55.8451 H   0  0  0  0  0  0  0  0  0  0  0  0
   11.3702   -1.5589  -56.5727 H   0  0  0  0  0  0  0  0  0  0  0  0
    8.4632   -1.3125  -50.7935 H   0  0  0  0  0  0  0  0  0  0  0  0
    7.5045   -3.6577  -49.7831 H   0  0  0  0  0  0  0  0  0  0  0  0
    7.0553   -5.2571  -51.8624 H   0  0  0  0  0  0  0  0  0  0  0  0
  1  2  1  0
  2  3  1  0
  3  4  1  0
  4  5  2  0
  6  5  1  1
  6  7  1  0
  7  8  1  0
  8  9  1  0
  9 10  1  0
 10 11  1  0
 11 12  1  0
 12 13  1  0
 12 14  1  0
 14 15  2  0
 10 16  1  0
  3 17  2  0
 17 18  1  0
 18 19  1  0
 19 20  1  0
 20 21  1  0
 21 22  2  0
 22 23  1  0
 23 24  1  0
 23 25  2  0
 25 26  1  0
 25 27  1  0
 18 28  1  0
 28 29  1  0
 29 30  2  0
 30 31  1  0
 31 32  2  0
 32 33  1  0
 28  2  2  0
 33 29  1  0
 14  6  1  0
 27 20  2  0
 16  6  1  0
 13  8  1  0
  1 34  1  0
  1 35  1  0
  1 36  1  0
  4 37  1  0
  7 38  1  0
  7 39  1  0
  8 40  1  6
  9 41  1  0
  9 42  1  0
 10 43  1  6
 11 44  1  0
 11 45  1  0
 12 46  1  1
 13 47  1  0
 13 48  1  0
 16 49  1  0
 16 50  1  0
 17 51  1  0
 19 52  1  0
 19 53  1  0
 21 54  1  0
 22 55  1  0
 27 56  1  0
 30 57  1  0
 31 58  1  0
 32 59  1  0
M  END
>  <meeko>  (19) 
{"is_sidechain": false}

$$$$

     RDKit          3D

 51 55  0  0  0  0  0  0  0  0999 V2000
    6.2950    1.5150  -57.3080 C   0  0  0  0  0  0  0  0  0  0  0  0
    6.7990    0.9970  -56.0060 C   0  0  0  0  0  0  0  0  0  0  0  0
    6.0310    0.4220  -55.0070 C   0  0  0  0  0  0  0  0  0  0  0  0
    6.8620    0.0770  -53.9760 N   0  0  0  0  0  0  0  0  0  0  0  0
    6.4540   -0.5300  -52.7180 C   0  0  0  0  0  0  0  0  0  0  0  0
    7.0820   -1.8580  -52.5510 C   0  0  0  0  0  0  0  0  0  0  0  0
    7.7090   -2.3840  -51.4030 C   0  0  0  0  0  0  0  0  0  0  0  0
    7.8480   -1.7560  -50.2320 F   0  0  0  0  0  0  0  0  0  0  0  0
    8.1500   -3.6460  -51.6910 C   0  0  0  0  0  0  0  0  0  0  0  0
    7.8370   -3.9480  -52.9810 O   0  0  0  0  0  0  0  0  0  0  0  0
    7.1910   -2.8630  -53.4910 C   0  0  0  0  0  0  0  0  0  0  0  0
    6.7280   -2.7820  -54.7480 F   0  0  0  0  0  0  0  0  0  0  0  0
    8.1400    0.4300  -54.2940 C   0  0  0  0  0  0  0  0  0  0  0  0
    9.2030    0.2460  -53.4940 F   0  0  0  0  0  0  0  0  0  0  0  0
    8.1680    1.0020  -55.5500 C   0  0  0  0  0  0  0  0  0  0  0  0
    9.3420    1.5130  -56.2640 C   0  0  0  0  0  0  0  0  0  0  0  0
   10.3380    0.8210  -56.4390 O   0  0  0  0  0  0  0  0  0  0  0  0
    9.2370    2.8160  -56.7080 N   0  0  0  0  0  0  0  0  0  0  0  0
   10.1560    3.4370  -57.6630 C   0  0  2  0  0  0  0  0  0  0  0  0
   11.6480    3.3870  -57.2570 C   0  0  0  0  0  0  0  0  0  0  0  0
   12.5240    4.0890  -58.3120 C   0  0  1  0  0  0  0  0  0  0  0  0
   12.3500    3.3490  -59.6560 C   0  0  0  0  0  0  0  0  0  0  0  0
   10.8950    3.4340  -60.1270 C   0  0  2  0  0  0  0  0  0  0  0  0
   10.4540    4.8980  -60.2560 C   0  0  0  0  0  0  0  0  0  0  0  0
   10.6220    5.6210  -58.9000 C   0  0  1  0  0  0  0  0  0  0  0  0
    9.7400    4.9220  -57.8460 C   0  0  0  0  0  0  0  0  0  0  0  0
   12.0890    5.5580  -58.4420 C   0  0  2  0  0  0  0  0  0  0  0  0
   12.9270    6.2180  -59.3800 O   0  0  0  0  0  0  0  0  0  0  0  0
   10.0000    2.8050  -59.0670 C   0  0  0  0  0  0  0  0  0  0  0  0
    9.1580    1.9530  -59.3460 O   0  0  0  0  0  0  0  0  0  0  0  0
    5.5386    2.2924  -57.1252 H   0  0  0  0  0  0  0  0  0  0  0  0
    7.1308    1.9439  -57.8803 H   0  0  0  0  0  0  0  0  0  0  0  0
    5.8433    0.6913  -57.8803 H   0  0  0  0  0  0  0  0  0  0  0  0
    4.9421    0.2692  -55.0372 H   0  0  0  0  0  0  0  0  0  0  0  0
    6.7605    0.1216  -51.8864 H   0  0  0  0  0  0  0  0  0  0  0  0
    5.3610   -0.6536  -52.7229 H   0  0  0  0  0  0  0  0  0  0  0  0
    8.6750   -4.3122  -50.9906 H   0  0  0  0  0  0  0  0  0  0  0  0
    8.2870    3.1670  -56.7240 H   0  0  0  0  0  0  0  0  0  0  0  0
   11.7755    3.8919  -56.2881 H   0  0  0  0  0  0  0  0  0  0  0  0
   11.9590    2.3345  -57.1832 H   0  0  0  0  0  0  0  0  0  0  0  0
   13.5830    4.0665  -58.0153 H   0  0  0  0  0  0  0  0  0  0  0  0
   13.0031    3.8105  -60.4112 H   0  0  0  0  0  0  0  0  0  0  0  0
   12.6198    2.2914  -59.5189 H   0  0  0  0  0  0  0  0  0  0  0  0
   10.8159    2.9215  -61.0971 H   0  0  0  0  0  0  0  0  0  0  0  0
   11.0721    5.3993  -61.0154 H   0  0  0  0  0  0  0  0  0  0  0  0
    9.3960    4.9319  -60.5552 H   0  0  0  0  0  0  0  0  0  0  0  0
   10.3233    6.6735  -59.0140 H   0  0  0  0  0  0  0  0  0  0  0  0
    9.8463    5.4457  -56.8845 H   0  0  0  0  0  0  0  0  0  0  0  0
    8.6956    4.9519  -58.1899 H   0  0  0  0  0  0  0  0  0  0  0  0
   12.1793    6.0599  -57.4673 H   0  0  0  0  0  0  0  0  0  0  0  0
   12.5660    7.1110  -59.5260 H   0  0  0  0  0  0  0  0  0  0  0  0
  1  2  1  0
  2  3  2  0
  3  4  1  0
  4  5  1  0
  5  6  1  0
  6  7  1  0
  7  8  1  0
  7  9  2  0
  9 10  1  0
 10 11  1  0
 11 12  1  0
  4 13  1  0
 13 14  1  0
 13 15  2  0
 15 16  1  0
 16 17  2  0
 16 18  1  0
 19 18  1  1
 19 20  1  0
 20 21  1  0
 21 22  1  0
 22 23  1  0
 23 24  1  0
 24 25  1  0
 25 26  1  0
 25 27  1  0
 27 28  1  0
 23 29  1  0
 29 30  2  0
 15  2  1  0
 26 19  1  0
 11  6  2  0
 29 19  1  0
 27 21  1  0
  1 31  1  0
  1 32  1  0
  1 33  1  0
  3 34  1  0
  5 35  1  0
  5 36  1  0
  9 37  1  0
 18 38  1  0
 20 39  1  0
 20 40  1  0
 21 41  1  1
 22 42  1  0
 22 43  1  0
 23 44  1  6
 24 45  1  0
 24 46  1  0
 25 47  1  6
 26 48  1  0
 26 49  1  0
 27 50  1  1
 28 51  1  0
M  END
>  <meeko>  (20) 
{"is_sidechain": false}

$$$$

     RDKit          3D

 51 55  0  0  0  0  0  0  0  0999 V2000
    5.5920    0.7730  -55.2480 C   0  0  0  0  0  0  0  0  0  0  0  0
    6.7480   -0.1140  -54.9410 C   0  0  0  0  0  0  0  0  0  0  0  0
    6.6530   -1.3710  -54.3630 C   0  0  0  0  0  0  0  0  0  0  0  0
    7.9110   -1.9030  -54.2770 N   0  0  0  0  0  0  0  0  0  0  0  0
    8.2510   -3.2200  -53.7610 C   0  0  0  0  0  0  0  0  0  0  0  0
    8.2360   -3.2230  -52.2820 C   0  0  0  0  0  0  0  0  0  0  0  0
    7.1400   -3.4480  -51.4250 C   0  0  0  0  0  0  0  0  0  0  0  0
    5.8850   -3.7000  -51.8060 F   0  0  0  0  0  0  0  0  0  0  0  0
    7.5780   -3.3580  -50.1310 C   0  0  0  0  0  0  0  0  0  0  0  0
    8.9090   -3.0790  -50.1260 O   0  0  0  0  0  0  0  0  0  0  0  0
    9.2970   -3.0000  -51.4280 C   0  0  0  0  0  0  0  0  0  0  0  0
   10.5500   -2.7340  -51.8280 F   0  0  0  0  0  0  0  0  0  0  0  0
    8.8080   -1.0180  -54.7980 C   0  0  0  0  0  0  0  0  0  0  0  0
   10.1290   -1.2290  -54.8710 F   0  0  0  0  0  0  0  0  0  0  0  0
    8.1490    0.1240  -55.2060 C   0  0  0  0  0  0  0  0  0  0  0  0
    8.8240    1.2740  -55.8010 C   0  0  0  0  0  0  0  0  0  0  0  0
    9.7440    1.8600  -55.2440 O   0  0  0  0  0  0  0  0  0  0  0  0
    8.3280    1.6500  -57.0230 N   0  0  0  0  0  0  0  0  0  0  0  0
    8.7950    2.7900  -57.8000 C   0  0  2  0  0  0  0  0  0  0  0  0
   10.1250    2.5210  -58.5320 C   0  0  0  0  0  0  0  0  0  0  0  0
   10.4900    3.7170  -59.4400 C   0  0  1  0  0  0  0  0  0  0  0  0
    9.3880    3.8870  -60.5050 C   0  0  0  0  0  0  0  0  0  0  0  0
    8.0450    4.1900  -59.8290 C   0  0  2  0  0  0  0  0  0  0  0  0
    8.1440    5.4530  -58.9640 C   0  0  0  0  0  0  0  0  0  0  0  0
    9.2450    5.2810  -57.9010 C   0  0  1  0  0  0  0  0  0  0  0  0
    8.8730    4.0940  -56.9830 C   0  0  0  0  0  0  0  0  0  0  0  0
   10.5880    5.0110  -58.6090 C   0  0  1  0  0  0  0  0  0  0  0  0
   11.6140    4.9060  -57.6350 O   0  0  0  0  0  0  0  0  0  0  0  0
    7.7320    3.0300  -58.8970 C   0  0  0  0  0  0  0  0  0  0  0  0
    6.7120    2.3500  -59.0090 O   0  0  0  0  0  0  0  0  0  0  0  0
    5.1377    1.1216  -54.3088 H   0  0  0  0  0  0  0  0  0  0  0  0
    5.9389    1.6389  -55.8310 H   0  0  0  0  0  0  0  0  0  0  0  0
    4.8454    0.2138  -55.8310 H   0  0  0  0  0  0  0  0  0  0  0  0
    5.7244   -1.8577  -54.0302 H   0  0  0  0  0  0  0  0  0  0  0  0
    7.5186   -3.9526  -54.1308 H   0  0  0  0  0  0  0  0  0  0  0  0
    9.2622   -3.4837  -54.1045 H   0  0  0  0  0  0  0  0  0  0  0  0
    6.9519   -3.4905  -49.2363 H   0  0  0  0  0  0  0  0  0  0  0  0
    7.4760    1.2080  -57.3530 H   0  0  0  0  0  0  0  0  0  0  0  0
   10.9235    2.3718  -57.7903 H   0  0  0  0  0  0  0  0  0  0  0  0
   10.0148    1.6205  -59.1541 H   0  0  0  0  0  0  0  0  0  0  0  0
   11.4619    3.5242  -59.9177 H   0  0  0  0  0  0  0  0  0  0  0  0
    9.6541    4.7181  -61.1746 H   0  0  0  0  0  0  0  0  0  0  0  0
    9.2985    2.9553  -61.0828 H   0  0  0  0  0  0  0  0  0  0  0  0
    7.2748    4.3338  -60.6011 H   0  0  0  0  0  0  0  0  0  0  0  0
    8.3872    6.3141  -59.6038 H   0  0  0  0  0  0  0  0  0  0  0  0
    7.1805    5.6213  -58.4607 H   0  0  0  0  0  0  0  0  0  0  0  0
    9.3377    6.1923  -57.2919 H   0  0  0  0  0  0  0  0  0  0  0  0
    9.6386    3.9867  -56.2005 H   0  0  0  0  0  0  0  0  0  0  0  0
    7.8917    4.2891  -56.5259 H   0  0  0  0  0  0  0  0  0  0  0  0
   10.8254    5.8411  -59.2906 H   0  0  0  0  0  0  0  0  0  0  0  0
   12.1590    4.1280  -57.8420 H   0  0  0  0  0  0  0  0  0  0  0  0
  1  2  1  0
  2  3  2  0
  3  4  1  0
  4  5  1  0
  5  6  1  0
  6  7  1  0
  7  8  1  0
  7  9  2  0
  9 10  1  0
 10 11  1  0
 11 12  1  0
  4 13  1  0
 13 14  1  0
 13 15  2  0
 15 16  1  0
 16 17  2  0
 16 18  1  0
 19 18  1  1
 19 20  1  0
 20 21  1  0
 21 22  1  0
 22 23  1  0
 23 24  1  0
 24 25  1  0
 25 26  1  0
 25 27  1  0
 27 28  1  0
 23 29  1  0
 29 30  2  0
 15  2  1  0
 26 19  1  0
 11  6  2  0
 29 19  1  0
 27 21  1  0
  1 31  1  0
  1 32  1  0
  1 33  1  0
  3 34  1  0
  5 35  1  0
  5 36  1  0
  9 37  1  0
 18 38  1  0
 20 39  1  0
 20 40  1  0
 21 41  1  6
 22 42  1  0
 22 43  1  0
 23 44  1  6
 24 45  1  0
 24 46  1  0
 25 47  1  1
 26 48  1  0
 26 49  1  0
 27 50  1  6
 28 51  1  0
M  END
>  <meeko>  (21) 
{"is_sidechain": false}

$$$$

     RDKit          3D

 60 65  0  0  0  0  0  0  0  0999 V2000
    9.5070    2.0550  -55.6590 C   0  0  0  0  0  0  0  0  0  0  0  0
    8.3150    1.7810  -56.5190 C   0  0  0  0  0  0  0  0  0  0  0  0
    7.1740    1.0110  -56.1230 C   0  0  0  0  0  0  0  0  0  0  0  0
    6.9780    0.3070  -54.8490 C   0  0  0  0  0  0  0  0  0  0  0  0
    6.2700    0.7550  -53.9530 O   0  0  0  0  0  0  0  0  0  0  0  0
    7.6360   -0.8940  -54.7400 N   0  0  0  0  0  0  0  0  0  0  0  0
    7.5800   -1.7710  -53.5780 C   0  0  1  0  0  0  0  0  0  0  0  0
    6.3170   -2.6530  -53.5450 C   0  0  0  0  0  0  0  0  0  0  0  0
    6.3840   -3.6410  -52.3610 C   0  0  2  0  0  0  0  0  0  0  0  0
    6.5310   -2.8550  -51.0470 C   0  0  0  0  0  0  0  0  0  0  0  0
    7.8180   -2.0120  -51.0690 C   0  0  1  0  0  0  0  0  0  0  0  0
    9.0350   -2.9370  -51.2580 C   0  0  0  0  0  0  0  0  0  0  0  0
    8.8950   -3.7370  -52.5570 C   0  0  1  0  0  0  0  0  0  0  0  0
    7.6040   -4.5640  -52.5460 C   0  0  0  0  0  0  0  0  0  0  0  0
    8.7800   -2.7380  -53.6970 C   0  0  0  0  0  0  0  0  0  0  0  0
    9.5740   -2.7100  -54.6380 O   0  0  0  0  0  0  0  0  0  0  0  0
    7.7570   -1.0160  -52.2450 C   0  0  0  0  0  0  0  0  0  0  0  0
    6.3010    1.0550  -57.1930 C   0  0  0  0  0  0  0  0  0  0  0  0
    6.8510    1.7730  -58.2410 N   0  0  0  0  0  0  0  0  0  0  0  0
    6.2070    1.9350  -59.5130 C   0  0  0  0  0  0  0  0  0  0  0  0
    6.9620    2.3400  -60.6300 C   0  0  0  0  0  0  0  0  0  0  0  0
    6.3510    2.5050  -61.8760 C   0  0  0  0  0  0  0  0  0  0  0  0
    4.9870    2.2740  -62.0130 C   0  0  0  0  0  0  0  0  0  0  0  0
    4.4250    2.4370  -63.2200 F   0  0  0  0  0  0  0  0  0  0  0  0
    4.2250    1.8880  -60.9160 C   0  0  0  0  0  0  0  0  0  0  0  0
    2.5310    1.6210  -61.0770 Cl  0  0  0  0  0  0  0  0  0  0  0  0
    4.8300    1.7210  -59.6660 C   0  0  0  0  0  0  0  0  0  0  0  0
    8.0940    2.2490  -57.8170 C   0  0  0  0  0  0  0  0  0  0  0  0
    8.9500    3.1770  -58.5670 C   0  0  0  0  0  0  0  0  0  0  0  0
    9.9970    2.6930  -59.3600 C   0  0  0  0  0  0  0  0  0  0  0  0
   10.8090    3.5790  -60.0710 C   0  0  0  0  0  0  0  0  0  0  0  0
   10.5750    4.9520  -59.9980 C   0  0  0  0  0  0  0  0  0  0  0  0
    9.5250    5.4410  -59.2220 C   0  0  0  0  0  0  0  0  0  0  0  0
    8.7110    4.5560  -58.5110 C   0  0  0  0  0  0  0  0  0  0  0  0
    9.2180    1.9886  -54.5997 H   0  0  0  0  0  0  0  0  0  0  0  0
   10.2912    1.3137  -55.8723 H   0  0  0  0  0  0  0  0  0  0  0  0
    9.8888    3.0643  -55.8723 H   0  0  0  0  0  0  0  0  0  0  0  0
    8.1510   -1.2530  -55.5350 H   0  0  0  0  0  0  0  0  0  0  0  0
    5.4299   -2.0123  -53.4332 H   0  0  0  0  0  0  0  0  0  0  0  0
    6.2543   -3.2232  -54.4836 H   0  0  0  0  0  0  0  0  0  0  0  0
    5.4640   -4.2429  -52.3252 H   0  0  0  0  0  0  0  0  0  0  0  0
    5.6637   -2.1897  -50.9233 H   0  0  0  0  0  0  0  0  0  0  0  0
    6.5837   -3.5659  -50.2093 H   0  0  0  0  0  0  0  0  0  0  0  0
    7.9116   -1.4641  -50.1197 H   0  0  0  0  0  0  0  0  0  0  0  0
    9.9503   -2.3286  -51.3029 H   0  0  0  0  0  0  0  0  0  0  0  0
    9.0897   -3.6358  -50.4103 H   0  0  0  0  0  0  0  0  0  0  0  0
    9.7603   -4.4072  -52.6671 H   0  0  0  0  0  0  0  0  0  0  0  0
    7.5100   -5.1041  -53.4997 H   0  0  0  0  0  0  0  0  0  0  0  0
    7.6428   -5.2801  -51.7119 H   0  0  0  0  0  0  0  0  0  0  0  0
    6.9066   -0.3337  -52.0988 H   0  0  0  0  0  0  0  0  0  0  0  0
    8.6968   -0.4453  -52.2793 H   0  0  0  0  0  0  0  0  0  0  0  0
    5.3068    0.5847  -57.2098 H   0  0  0  0  0  0  0  0  0  0  0  0
    8.0404    2.5279  -60.5213 H   0  0  0  0  0  0  0  0  0  0  0  0
    6.9477    2.8168  -62.7459 H   0  0  0  0  0  0  0  0  0  0  0  0
    4.2228    1.4205  -58.7994 H   0  0  0  0  0  0  0  0  0  0  0  0
   10.1809    1.6103  -59.4233 H   0  0  0  0  0  0  0  0  0  0  0  0
   11.6336    3.1939  -60.6889 H   0  0  0  0  0  0  0  0  0  0  0  0
   11.2194    5.6496  -60.5531 H   0  0  0  0  0  0  0  0  0  0  0  0
    9.3376    6.5236  -59.1696 H   0  0  0  0  0  0  0  0  0  0  0  0
    7.8790    4.9436  -57.9047 H   0  0  0  0  0  0  0  0  0  0  0  0
  1  2  1  0
  2  3  1  0
  3  4  1  0
  4  5  2  0
  4  6  1  0
  7  6  1  6
  7  8  1  0
  8  9  1  0
  9 10  1  0
 10 11  1  0
 11 12  1  0
 12 13  1  0
 13 14  1  0
 13 15  1  0
 15 16  2  0
 11 17  1  0
  3 18  2  0
 18 19  1  0
 19 20  1  0
 20 21  1  0
 21 22  2  0
 22 23  1  0
 23 24  1  0
 23 25  2  0
 25 26  1  0
 25 27  1  0
 19 28  1  0
 28 29  1  0
 29 30  2  0
 30 31  1  0
 31 32  2  0
 32 33  1  0
 33 34  2  0
 28  2  2  0
 34 29  1  0
 15  7  1  0
 27 20  2  0
 17  7  1  0
 14  9  1  0
  1 35  1  0
  1 36  1  0
  1 37  1  0
  6 38  1  0
  8 39  1  0
  8 40  1  0
  9 41  1  1
 10 42  1  0
 10 43  1  0
 11 44  1  1
 12 45  1  0
 12 46  1  0
 13 47  1  6
 14 48  1  0
 14 49  1  0
 17 50  1  0
 17 51  1  0
 18 52  1  0
 21 53  1  0
 22 54  1  0
 27 55  1  0
 30 56  1  0
 31 57  1  0
 32 58  1  0
 33 59  1  0
 34 60  1  0
M  END
>  <meeko>  (22) 
{"is_sidechain": false}

$$$$

     RDKit          3D

 56 61  0  0  0  0  0  0  0  0999 V2000
    7.4400    1.6040  -56.1000 O   0  0  0  0  0  0  0  0  0  0  0  0
    8.5940    1.1920  -56.0560 C   0  0  0  0  0  0  0  0  0  0  0  0
    9.6140    1.7590  -56.7780 N   0  0  0  0  0  0  0  0  0  0  0  0
    9.4630    2.8910  -57.6820 C   0  0  1  0  0  0  0  0  0  0  0  0
    8.8100    4.1160  -57.0130 C   0  0  0  0  0  0  0  0  0  0  0  0
    8.7890    5.3120  -57.9850 C   0  0  2  0  0  0  0  0  0  0  0  0
    8.0230    4.9200  -59.2600 C   0  0  0  0  0  0  0  0  0  0  0  0
    8.7050    3.7270  -59.9490 C   0  0  1  0  0  0  0  0  0  0  0  0
   10.1530    4.1020  -60.3130 C   0  0  0  0  0  0  0  0  0  0  0  0
   10.9250    4.5080  -59.0540 C   0  0  1  0  0  0  0  0  0  0  0  0
   10.2380    5.6860  -58.3540 C   0  0  0  0  0  0  0  0  0  0  0  0
   10.8860    3.3290  -58.0950 C   0  0  0  0  0  0  0  0  0  0  0  0
   11.9080    2.7810  -57.6760 O   0  0  0  0  0  0  0  0  0  0  0  0
    8.7250    2.5230  -58.9860 C   0  0  0  0  0  0  0  0  0  0  0  0
    8.9960    0.0930  -55.1820 C   0  0  0  0  0  0  0  0  0  0  0  0
   10.1200   -0.6790  -55.4190 C   0  0  0  0  0  0  0  0  0  0  0  0
   10.2240   -1.6320  -54.4410 N   0  0  0  0  0  0  0  0  0  0  0  0
   11.2700   -2.6490  -54.4070 C   0  0  0  0  0  0  0  0  0  0  0  0
   11.3550   -3.4140  -55.7050 C   0  0  0  0  0  0  0  0  0  0  0  0
   10.9340   -4.7500  -55.7800 C   0  0  0  0  0  0  0  0  0  0  0  0
   11.0170   -5.4540  -56.9830 C   0  0  0  0  0  0  0  0  0  0  0  0
   11.5230   -4.8320  -58.1220 C   0  0  0  0  0  0  0  0  0  0  0  0
   11.9500   -3.5070  -58.0610 C   0  0  0  0  0  0  0  0  0  0  0  0
   11.8680   -2.8020  -56.8590 C   0  0  0  0  0  0  0  0  0  0  0  0
    9.1810   -1.5040  -53.5460 C   0  0  0  0  0  0  0  0  0  0  0  0
    8.8570   -2.2450  -52.3960 C   0  0  0  0  0  0  0  0  0  0  0  0
    7.7440   -1.8590  -51.6460 C   0  0  0  0  0  0  0  0  0  0  0  0
    6.9800   -0.7640  -52.0230 C   0  0  0  0  0  0  0  0  0  0  0  0
    7.3040   -0.0330  -53.1700 C   0  0  0  0  0  0  0  0  0  0  0  0
    8.4110   -0.4100  -53.9680 C   0  0  0  0  0  0  0  0  0  0  0  0
   10.5670    1.4890  -56.5560 H   0  0  0  0  0  0  0  0  0  0  0  0
    7.7785    3.8648  -56.7252 H   0  0  0  0  0  0  0  0  0  0  0  0
    9.3949    4.3902  -56.1227 H   0  0  0  0  0  0  0  0  0  0  0  0
    8.2927    6.1702  -57.5084 H   0  0  0  0  0  0  0  0  0  0  0  0
    6.9922    4.6437  -58.9931 H   0  0  0  0  0  0  0  0  0  0  0  0
    8.0179    5.7760  -59.9508 H   0  0  0  0  0  0  0  0  0  0  0  0
    8.1486    3.4665  -60.8615 H   0  0  0  0  0  0  0  0  0  0  0  0
   10.6466    3.2364  -60.7789 H   0  0  0  0  0  0  0  0  0  0  0  0
   10.1395    4.9486  -61.0152 H   0  0  0  0  0  0  0  0  0  0  0  0
   11.9503    4.7933  -59.3323 H   0  0  0  0  0  0  0  0  0  0  0  0
   10.7928    5.9387  -57.4384 H   0  0  0  0  0  0  0  0  0  0  0  0
   10.2243    6.5503  -59.0343 H   0  0  0  0  0  0  0  0  0  0  0  0
    7.6913    2.2318  -58.7479 H   0  0  0  0  0  0  0  0  0  0  0  0
    9.2506    1.6868  -59.4703 H   0  0  0  0  0  0  0  0  0  0  0  0
   10.8183   -0.5480  -56.2588 H   0  0  0  0  0  0  0  0  0  0  0  0
   12.2366   -2.1586  -54.2196 H   0  0  0  0  0  0  0  0  0  0  0  0
   11.0250   -3.3627  -53.6066 H   0  0  0  0  0  0  0  0  0  0  0  0
   10.5351   -5.2472  -54.8835 H   0  0  0  0  0  0  0  0  0  0  0  0
   10.6825   -6.5008  -57.0313 H   0  0  0  0  0  0  0  0  0  0  0  0
   11.5855   -5.3868  -59.0698 H   0  0  0  0  0  0  0  0  0  0  0  0
   12.3517   -3.0166  -58.9600 H   0  0  0  0  0  0  0  0  0  0  0  0
   12.2087   -1.7570  -56.8159 H   0  0  0  0  0  0  0  0  0  0  0  0
    9.4665   -3.1094  -52.0938 H   0  0  0  0  0  0  0  0  0  0  0  0
    7.4700   -2.4295  -50.7463 H   0  0  0  0  0  0  0  0  0  0  0  0
    6.1124   -0.4686  -51.4147 H   0  0  0  0  0  0  0  0  0  0  0  0
    6.6961    0.8388  -53.4536 H   0  0  0  0  0  0  0  0  0  0  0  0
  1  2  2  0
  2  3  1  0
  4  3  1  1
  4  5  1  0
  5  6  1  0
  6  7  1  0
  7  8  1  0
  8  9  1  0
  9 10  1  0
 10 11  1  0
 10 12  1  0
 12 13  2  0
  8 14  1  0
  2 15  1  0
 15 16  2  0
 16 17  1  0
 17 18  1  0
 18 19  1  0
 19 20  2  0
 20 21  1  0
 21 22  2  0
 22 23  1  0
 23 24  2  0
 17 25  1  0
 25 26  2  0
 26 27  1  0
 27 28  2  0
 28 29  1  0
 29 30  2  0
 12  4  1  0
 30 15  1  0
 14  4  1  0
 24 19  1  0
 30 25  1  0
 11  6  1  0
  3 31  1  0
  5 32  1  0
  5 33  1  0
  6 34  1  1
  7 35  1  0
  7 36  1  0
  8 37  1  6
  9 38  1  0
  9 39  1  0
 10 40  1  6
 11 41  1  0
 11 42  1  0
 14 43  1  0
 14 44  1  0
 16 45  1  0
 18 46  1  0
 18 47  1  0
 20 48  1  0
 21 49  1  0
 22 50  1  0
 23 51  1  0
 24 52  1  0
 26 53  1  0
 27 54  1  0
 28 55  1  0
 29 56  1  0
M  END
>  <meeko>  (23) 
{"is_sidechain": false}

$$$$

     RDKit          3D

 66 71  0  0  0  0  0  0  0  0999 V2000
    6.1710    0.1980  -53.6260 C   0  0  0  0  0  0  0  0  0  0  0  0
    7.4890   -0.3690  -54.0400 C   0  0  0  0  0  0  0  0  0  0  0  0
    8.3220    0.1430  -55.0940 C   0  0  0  0  0  0  0  0  0  0  0  0
    8.0580    1.3140  -55.9420 C   0  0  0  0  0  0  0  0  0  0  0  0
    6.9250    1.7330  -56.1370 O   0  0  0  0  0  0  0  0  0  0  0  0
    9.1900    1.8810  -56.4980 N   0  0  0  0  0  0  0  0  0  0  0  0
    9.1530    2.9030  -57.5480 C   0  0  1  0  0  0  0  0  0  0  0  0
    8.7480    4.2560  -56.9040 C   0  0  0  0  0  0  0  0  0  0  0  0
    8.7720    5.3960  -57.9420 C   0  0  2  0  0  0  0  0  0  0  0  0
    7.7980    5.0630  -59.0810 C   0  0  0  0  0  0  0  0  0  0  0  0
    8.2060    3.7430  -59.7490 C   0  0  1  0  0  0  0  0  0  0  0  0
    9.6350    3.8610  -60.3110 C   0  0  0  0  0  0  0  0  0  0  0  0
   10.6200    4.2270  -59.1950 C   0  0  1  0  0  0  0  0  0  0  0  0
   10.1970    5.5360  -58.5150 C   0  0  0  0  0  0  0  0  0  0  0  0
   10.5680    3.1500  -58.1200 C   0  0  0  0  0  0  0  0  0  0  0  0
   11.5890    2.6340  -57.6670 O   0  0  0  0  0  0  0  0  0  0  0  0
    8.1820    2.6070  -58.7120 C   0  0  0  0  0  0  0  0  0  0  0  0
    9.4360   -0.6780  -55.1330 C   0  0  0  0  0  0  0  0  0  0  0  0
    9.3180   -1.6560  -54.1720 N   0  0  0  0  0  0  0  0  0  0  0  0
   10.3140   -2.7040  -53.8880 C   0  0  2  0  0  0  0  0  0  0  0  0
   11.4930   -2.2350  -53.0250 C   0  0  0  0  0  0  0  0  0  0  0  0
   10.8010   -3.3720  -55.1670 C   0  0  0  0  0  0  0  0  0  0  0  0
   10.6170   -4.7550  -55.3420 C   0  0  0  0  0  0  0  0  0  0  0  0
   11.0580   -5.3940  -56.5030 C   0  0  0  0  0  0  0  0  0  0  0  0
   11.6930   -4.6580  -57.4990 C   0  0  0  0  0  0  0  0  0  0  0  0
   12.2350   -5.4450  -58.9300 Cl  0  0  0  0  0  0  0  0  0  0  0  0
   11.8910   -3.2880  -57.3440 C   0  0  0  0  0  0  0  0  0  0  0  0
   11.4490   -2.6490  -56.1830 C   0  0  0  0  0  0  0  0  0  0  0  0
    8.1250   -1.4780  -53.4930 C   0  0  0  0  0  0  0  0  0  0  0  0
    7.6700   -2.3460  -52.4080 C   0  0  0  0  0  0  0  0  0  0  0  0
    8.0950   -2.1180  -51.0950 C   0  0  0  0  0  0  0  0  0  0  0  0
    7.6640   -2.9520  -50.0630 C   0  0  0  0  0  0  0  0  0  0  0  0
    6.8020   -4.0140  -50.3370 C   0  0  0  0  0  0  0  0  0  0  0  0
    6.3660   -4.2400  -51.6420 C   0  0  0  0  0  0  0  0  0  0  0  0
    6.7950   -3.4060  -52.6760 C   0  0  0  0  0  0  0  0  0  0  0  0
    6.1115    0.2236  -52.5279 H   0  0  0  0  0  0  0  0  0  0  0  0
    6.0703    1.2191  -54.0226 H   0  0  0  0  0  0  0  0  0  0  0  0
    5.3604   -0.4310  -54.0226 H   0  0  0  0  0  0  0  0  0  0  0  0
    9.9540    1.2240  -56.5730 H   0  0  0  0  0  0  0  0  0  0  0  0
    7.7321    4.1674  -56.4916 H   0  0  0  0  0  0  0  0  0  0  0  0
    9.4697    4.4934  -56.1086 H   0  0  0  0  0  0  0  0  0  0  0  0
    8.4733    6.3396  -57.4620 H   0  0  0  0  0  0  0  0  0  0  0  0
    6.7806    4.9665  -58.6742 H   0  0  0  0  0  0  0  0  0  0  0  0
    7.8252    5.8701  -59.8279 H   0  0  0  0  0  0  0  0  0  0  0  0
    7.4990    3.5261  -60.5633 H   0  0  0  0  0  0  0  0  0  0  0  0
    9.9307    2.8986  -60.7541 H   0  0  0  0  0  0  0  0  0  0  0  0
    9.6532    4.6511  -61.0761 H   0  0  0  0  0  0  0  0  0  0  0  0
   11.6220    4.3249  -59.6381 H   0  0  0  0  0  0  0  0  0  0  0  0
   10.8972    5.7650  -57.6982 H   0  0  0  0  0  0  0  0  0  0  0  0
   10.2100    6.3486  -59.2563 H   0  0  0  0  0  0  0  0  0  0  0  0
    7.1620    2.5050  -58.3131 H   0  0  0  0  0  0  0  0  0  0  0  0
    8.4970    1.6750  -59.2042 H   0  0  0  0  0  0  0  0  0  0  0  0
   10.2839   -0.5660  -55.8248 H   0  0  0  0  0  0  0  0  0  0  0  0
    9.7817   -3.4509  -53.2807 H   0  0  0  0  0  0  0  0  0  0  0  0
   11.2328   -2.3385  -51.9613 H   0  0  0  0  0  0  0  0  0  0  0  0
   12.3777   -2.8497  -53.2476 H   0  0  0  0  0  0  0  0  0  0  0  0
   11.7137   -1.1806  -53.2476 H   0  0  0  0  0  0  0  0  0  0  0  0
   10.1197   -5.3408  -54.5549 H   0  0  0  0  0  0  0  0  0  0  0  0
   10.9039   -6.4757  -56.6298 H   0  0  0  0  0  0  0  0  0  0  0  0
   12.3941   -2.7107  -58.1337 H   0  0  0  0  0  0  0  0  0  0  0  0
   11.6100   -1.5675  -56.0627 H   0  0  0  0  0  0  0  0  0  0  0  0
    8.7711   -1.2786  -50.8755 H   0  0  0  0  0  0  0  0  0  0  0  0
    8.0041   -2.7720  -49.0325 H   0  0  0  0  0  0  0  0  0  0  0  0
    6.4661   -4.6734  -49.5232 H   0  0  0  0  0  0  0  0  0  0  0  0
    5.6838   -5.0757  -51.8568 H   0  0  0  0  0  0  0  0  0  0  0  0
    6.4449   -3.5819  -53.7038 H   0  0  0  0  0  0  0  0  0  0  0  0
  1  2  1  0
  2  3  1  0
  3  4  1  0
  4  5  2  0
  4  6  1  0
  7  6  1  1
  7  8  1  0
  8  9  1  0
  9 10  1  0
 10 11  1  0
 11 12  1  0
 12 13  1  0
 13 14  1  0
 13 15  1  0
 15 16  2  0
 11 17  1  0
  3 18  2  0
 18 19  1  0
 19 20  1  0
 20 21  1  0
 20 22  1  0
 22 23  1  0
 23 24  2  0
 24 25  1  0
 25 26  1  0
 25 27  2  0
 27 28  1  0
 19 29  1  0
 29 30  1  0
 30 31  2  0
 31 32  1  0
 32 33  2  0
 33 34  1  0
 34 35  2  0
 29  2  2  0
 35 30  1  0
 15  7  1  0
 28 22  2  0
 17  7  1  0
 14  9  1  0
  1 36  1  0
  1 37  1  0
  1 38  1  0
  6 39  1  0
  8 40  1  0
  8 41  1  0
  9 42  1  1
 10 43  1  0
 10 44  1  0
 11 45  1  6
 12 46  1  0
 12 47  1  0
 13 48  1  6
 14 49  1  0
 14 50  1  0
 17 51  1  0
 17 52  1  0
 18 53  1  0
 20 54  1  1
 21 55  1  0
 21 56  1  0
 21 57  1  0
 23 58  1  0
 24 59  1  0
 27 60  1  0
 28 61  1  0
 31 62  1  0
 32 63  1  0
 33 64  1  0
 34 65  1  0
 35 66  1  0
M  END
>  <meeko>  (24) 
{"is_sidechain": false}

$$$$

     RDKit          3D

 66 71  0  0  0  0  0  0  0  0999 V2000
    6.1010   -0.1980  -54.0400 C   0  0  0  0  0  0  0  0  0  0  0  0
    7.5650   -0.3600  -54.2780 C   0  0  0  0  0  0  0  0  0  0  0  0
    8.3740    0.3620  -55.2210 C   0  0  0  0  0  0  0  0  0  0  0  0
    8.0400    1.4550  -56.1360 C   0  0  0  0  0  0  0  0  0  0  0  0
    6.9660    2.0410  -56.0750 O   0  0  0  0  0  0  0  0  0  0  0  0
    9.0030    1.7050  -57.0900 N   0  0  0  0  0  0  0  0  0  0  0  0
    9.0210    2.8780  -57.9650 C   0  0  1  0  0  0  0  0  0  0  0  0
    7.6640    3.2130  -58.6260 C   0  0  0  0  0  0  0  0  0  0  0  0
    7.7890    4.4440  -59.5420 C   0  0  2  0  0  0  0  0  0  0  0  0
    8.8300    4.1720  -60.6380 C   0  0  0  0  0  0  0  0  0  0  0  0
   10.1940    3.8760  -60.0010 C   0  0  1  0  0  0  0  0  0  0  0  0
   10.6420    5.0890  -59.1630 C   0  0  0  0  0  0  0  0  0  0  0  0
    9.6090    5.3810  -58.0670 C   0  0  1  0  0  0  0  0  0  0  0  0
    8.2320    5.6460  -58.6880 C   0  0  0  0  0  0  0  0  0  0  0  0
    9.5250    4.1270  -57.2060 C   0  0  0  0  0  0  0  0  0  0  0  0
    9.9390    4.1090  -56.0480 O   0  0  0  0  0  0  0  0  0  0  0  0
   10.0700    2.6420  -59.0840 C   0  0  0  0  0  0  0  0  0  0  0  0
    9.6350   -0.2020  -55.1590 C   0  0  0  0  0  0  0  0  0  0  0  0
    9.6520   -1.1760  -54.1930 N   0  0  0  0  0  0  0  0  0  0  0  0
   10.8350   -1.9830  -53.8450 C   0  0  1  0  0  0  0  0  0  0  0  0
   10.6690   -2.6430  -52.4700 C   0  0  0  0  0  0  0  0  0  0  0  0
   11.1930   -2.9310  -54.9860 C   0  0  0  0  0  0  0  0  0  0  0  0
   11.5390   -2.3890  -56.2380 C   0  0  0  0  0  0  0  0  0  0  0  0
   11.8640   -3.2180  -57.3150 C   0  0  0  0  0  0  0  0  0  0  0  0
   11.8410   -4.6000  -57.1540 C   0  0  0  0  0  0  0  0  0  0  0  0
   12.2390   -5.6220  -58.4790 Cl  0  0  0  0  0  0  0  0  0  0  0  0
   11.4960   -5.1580  -55.9260 C   0  0  0  0  0  0  0  0  0  0  0  0
   11.1720   -4.3290  -54.8490 C   0  0  0  0  0  0  0  0  0  0  0  0
    8.3900   -1.2870  -53.6410 C   0  0  0  0  0  0  0  0  0  0  0  0
    8.0390   -2.2450  -52.5940 C   0  0  0  0  0  0  0  0  0  0  0  0
    8.0130   -1.8440  -51.2550 C   0  0  0  0  0  0  0  0  0  0  0  0
    7.6840   -2.7590  -50.2540 C   0  0  0  0  0  0  0  0  0  0  0  0
    7.3730   -4.0770  -50.5880 C   0  0  0  0  0  0  0  0  0  0  0  0
    7.3870   -4.4800  -51.9240 C   0  0  0  0  0  0  0  0  0  0  0  0
    7.7170   -3.5660  -52.9260 C   0  0  0  0  0  0  0  0  0  0  0  0
    5.9057   -0.1764  -52.9577 H   0  0  0  0  0  0  0  0  0  0  0  0
    5.7578    0.7436  -54.4934 H   0  0  0  0  0  0  0  0  0  0  0  0
    5.5602   -1.0418  -54.4934 H   0  0  0  0  0  0  0  0  0  0  0  0
    9.8820    1.2320  -56.9460 H   0  0  0  0  0  0  0  0  0  0  0  0
    7.3320    2.3514  -59.2238 H   0  0  0  0  0  0  0  0  0  0  0  0
    6.9329    3.4360  -57.8349 H   0  0  0  0  0  0  0  0  0  0  0  0
    6.8214    4.6585  -60.0192 H   0  0  0  0  0  0  0  0  0  0  0  0
    8.5114    3.3059  -61.2367 H   0  0  0  0  0  0  0  0  0  0  0  0
    8.9165    5.0586  -61.2833 H   0  0  0  0  0  0  0  0  0  0  0  0
   10.9346    3.6795  -60.7902 H   0  0  0  0  0  0  0  0  0  0  0  0
   11.6147    4.8709  -58.6978 H   0  0  0  0  0  0  0  0  0  0  0  0
   10.7302    5.9677  -59.8188 H   0  0  0  0  0  0  0  0  0  0  0  0
    9.9034    6.2659  -57.4837 H   0  0  0  0  0  0  0  0  0  0  0  0
    7.4980    5.8108  -57.8855 H   0  0  0  0  0  0  0  0  0  0  0  0
    8.2954    6.5366  -59.3305 H   0  0  0  0  0  0  0  0  0  0  0  0
    9.7619    1.7757  -59.6878 H   0  0  0  0  0  0  0  0  0  0  0  0
   11.0469    2.4584  -58.6128 H   0  0  0  0  0  0  0  0  0  0  0  0
   10.4914    0.0856  -55.7866 H   0  0  0  0  0  0  0  0  0  0  0  0
   11.7124   -1.3294  -53.7314 H   0  0  0  0  0  0  0  0  0  0  0  0
   10.8560   -1.8993  -51.6813 H   0  0  0  0  0  0  0  0  0  0  0  0
    9.6450   -3.0324  -52.3714 H   0  0  0  0  0  0  0  0  0  0  0  0
   11.3870   -3.4705  -52.3714 H   0  0  0  0  0  0  0  0  0  0  0  0
   11.5538   -1.2971  -56.3706 H   0  0  0  0  0  0  0  0  0  0  0  0
   12.1370   -2.7798  -58.2863 H   0  0  0  0  0  0  0  0  0  0  0  0
   11.4785   -6.2510  -55.8037 H   0  0  0  0  0  0  0  0  0  0  0  0
   10.8972   -4.7763  -53.8823 H   0  0  0  0  0  0  0  0  0  0  0  0
    8.2527   -0.8038  -50.9896 H   0  0  0  0  0  0  0  0  0  0  0  0
    7.6699   -2.4407  -49.2012 H   0  0  0  0  0  0  0  0  0  0  0  0
    7.1167   -4.7987  -49.7984 H   0  0  0  0  0  0  0  0  0  0  0  0
    7.1378   -5.5185  -52.1876 H   0  0  0  0  0  0  0  0  0  0  0  0
    7.7240   -3.8846  -53.9788 H   0  0  0  0  0  0  0  0  0  0  0  0
  1  2  1  0
  2  3  1  0
  3  4  1  0
  4  5  2  0
  4  6  1  0
  7  6  1  1
  7  8  1  0
  8  9  1  0
  9 10  1  0
 10 11  1  0
 11 12  1  0
 12 13  1  0
 13 14  1  0
 13 15  1  0
 15 16  2  0
 11 17  1  0
  3 18  2  0
 18 19  1  0
 19 20  1  0
 20 21  1  0
 20 22  1  0
 22 23  1  0
 23 24  2  0
 24 25  1  0
 25 26  1  0
 25 27  2  0
 27 28  1  0
 19 29  1  0
 29 30  1  0
 30 31  2  0
 31 32  1  0
 32 33  2  0
 33 34  1  0
 34 35  2  0
 29  2  2  0
 35 30  1  0
 15  7  1  0
 28 22  2  0
 17  7  1  0
 14  9  1  0
  1 36  1  0
  1 37  1  0
  1 38  1  0
  6 39  1  0
  8 40  1  0
  8 41  1  0
  9 42  1  6
 10 43  1  0
 10 44  1  0
 11 45  1  6
 12 46  1  0
 12 47  1  0
 13 48  1  1
 14 49  1  0
 14 50  1  0
 17 51  1  0
 17 52  1  0
 18 53  1  0
 20 54  1  1
 21 55  1  0
 21 56  1  0
 21 57  1  0
 23 58  1  0
 24 59  1  0
 27 60  1  0
 28 61  1  0
 31 62  1  0
 32 63  1  0
 33 64  1  0
 34 65  1  0
 35 66  1  0
M  END
>  <meeko>  (25) 
{"is_sidechain": false}

$$$$

     RDKit          3D

 45 49  0  0  0  0  0  0  0  0999 V2000
   10.0570    1.2250  -56.0620 O   0  0  0  0  0  0  0  0  0  0  0  0
    8.8370    1.2450  -55.9250 C   0  0  0  0  0  0  0  0  0  0  0  0
    8.0350    2.1570  -56.5950 N   0  0  0  0  0  0  0  0  0  0  0  0
    8.5290    3.0280  -57.6700 C   0  0  1  0  0  0  0  0  0  0  0  0
    9.6040    2.3950  -58.5810 C   0  0  0  0  0  0  0  0  0  0  0  0
   10.0590    3.3940  -59.6630 C   0  0  2  0  0  0  0  0  0  0  0  0
   10.6440    4.6460  -58.9970 C   0  0  0  0  0  0  0  0  0  0  0  0
    9.5830    5.3120  -58.1100 C   0  0  1  0  0  0  0  0  0  0  0  0
    8.3740    5.7160  -58.9780 C   0  0  0  0  0  0  0  0  0  0  0  0
    7.7790    4.4750  -59.6580 C   0  0  1  0  0  0  0  0  0  0  0  0
    8.8380    3.7770  -60.5190 C   0  0  0  0  0  0  0  0  0  0  0  0
    7.3570    3.5350  -58.5390 C   0  0  0  0  0  0  0  0  0  0  0  0
    6.1750    3.3150  -58.2800 O   0  0  0  0  0  0  0  0  0  0  0  0
    9.1250    4.3120  -57.0290 C   0  0  0  0  0  0  0  0  0  0  0  0
    8.1160    0.3260  -55.0640 C   0  0  0  0  0  0  0  0  0  0  0  0
    6.7680    0.0520  -54.9620 C   0  0  0  0  0  0  0  0  0  0  0  0
    6.4110   -0.8970  -54.0260 N   0  0  0  0  0  0  0  0  0  0  0  0
    7.4820   -1.3480  -53.3950 C   0  0  0  0  0  0  0  0  0  0  0  0
    7.4360   -2.3720  -52.3280 C   0  0  0  0  0  0  0  0  0  0  0  0
    6.6650   -3.5300  -52.5360 C   0  0  0  0  0  0  0  0  0  0  0  0
    6.5840   -4.5330  -51.5650 C   0  0  0  0  0  0  0  0  0  0  0  0
    7.2740   -4.3980  -50.3650 C   0  0  0  0  0  0  0  0  0  0  0  0
    8.0450   -3.2610  -50.1370 C   0  0  0  0  0  0  0  0  0  0  0  0
    8.1260   -2.2570  -51.1090 C   0  0  0  0  0  0  0  0  0  0  0  0
    8.9590   -0.6260  -53.9140 S   0  0  0  0  0  0  0  0  0  0  0  0
    7.0850    1.8370  -56.7300 H   0  0  0  0  0  0  0  0  0  0  0  0
   10.4711    2.1059  -57.9690 H   0  0  0  0  0  0  0  0  0  0  0  0
    9.1732    1.5113  -59.0746 H   0  0  0  0  0  0  0  0  0  0  0  0
   10.8328    2.9378  -60.2980 H   0  0  0  0  0  0  0  0  0  0  0  0
   11.5082    4.3602  -58.3794 H   0  0  0  0  0  0  0  0  0  0  0  0
   10.9609    5.3551  -59.7759 H   0  0  0  0  0  0  0  0  0  0  0  0
   10.0078    6.2063  -57.6306 H   0  0  0  0  0  0  0  0  0  0  0  0
    7.6090    6.1849  -58.3417 H   0  0  0  0  0  0  0  0  0  0  0  0
    8.7043    6.4274  -59.7493 H   0  0  0  0  0  0  0  0  0  0  0  0
    6.9360    4.7538  -60.3073 H   0  0  0  0  0  0  0  0  0  0  0  0
    8.4046    2.8671  -60.9596 H   0  0  0  0  0  0  0  0  0  0  0  0
    9.1615    4.4651  -61.3140 H   0  0  0  0  0  0  0  0  0  0  0  0
    9.9889    4.0350  -56.4069 H   0  0  0  0  0  0  0  0  0  0  0  0
    8.3458    4.7911  -56.4180 H   0  0  0  0  0  0  0  0  0  0  0  0
    6.0214    0.5602  -55.5900 H   0  0  0  0  0  0  0  0  0  0  0  0
    6.1149   -3.6489  -53.4811 H   0  0  0  0  0  0  0  0  0  0  0  0
    5.9741   -5.4295  -51.7504 H   0  0  0  0  0  0  0  0  0  0  0  0
    7.2110   -5.1856  -49.5997 H   0  0  0  0  0  0  0  0  0  0  0  0
    8.5926   -3.1514  -49.1893 H   0  0  0  0  0  0  0  0  0  0  0  0
    8.7391   -1.3644  -50.9158 H   0  0  0  0  0  0  0  0  0  0  0  0
  1  2  2  0
  2  3  1  0
  4  3  1  1
  4  5  1  0
  5  6  1  0
  6  7  1  0
  7  8  1  0
  8  9  1  0
  9 10  1  0
 10 11  1  0
 10 12  1  0
 12 13  2  0
  8 14  1  0
  2 15  1  0
 15 16  2  0
 16 17  1  0
 17 18  2  0
 18 19  1  0
 19 20  2  0
 20 21  1  0
 21 22  2  0
 22 23  1  0
 23 24  2  0
 18 25  1  0
 12  4  1  0
 25 15  1  0
 14  4  1  0
 24 19  1  0
 11  6  1  0
  3 26  1  0
  5 27  1  0
  5 28  1  0
  6 29  1  6
  7 30  1  0
  7 31  1  0
  8 32  1  1
  9 33  1  0
  9 34  1  0
 10 35  1  6
 11 36  1  0
 11 37  1  0
 14 38  1  0
 14 39  1  0
 16 40  1  0
 20 41  1  0
 21 42  1  0
 22 43  1  0
 23 44  1  0
 24 45  1  0
M  END
>  <meeko>  (26) 
{"is_sidechain": false}

$$$$

     RDKit          3D

 63 68  0  0  0  0  0  0  0  0999 V2000
    6.1230    0.0380  -53.7780 C   0  0  0  0  0  0  0  0  0  0  0  0
    7.5050   -0.3550  -54.1610 C   0  0  0  0  0  0  0  0  0  0  0  0
    8.3130    0.2480  -55.1710 C   0  0  0  0  0  0  0  0  0  0  0  0
    7.9670    1.3810  -56.0530 C   0  0  0  0  0  0  0  0  0  0  0  0
    6.8420    1.8630  -56.1150 O   0  0  0  0  0  0  0  0  0  0  0  0
    9.0470    1.8280  -56.7840 N   0  0  0  0  0  0  0  0  0  0  0  0
    9.0470    2.9290  -57.7410 C   0  0  2  0  0  0  0  0  0  0  0  0
   10.3940    2.9130  -58.5110 C   0  0  0  0  0  0  0  0  0  0  0  0
   10.4560    4.0550  -59.5380 C   0  0  1  0  0  0  0  0  0  0  0  0
    9.3030    3.8930  -60.5410 C   0  0  0  0  0  0  0  0  0  0  0  0
    7.9550    3.9320  -59.8020 C   0  0  2  0  0  0  0  0  0  0  0  0
    7.8190    5.2750  -59.0670 C   0  0  0  0  0  0  0  0  0  0  0  0
    8.9690    5.4460  -58.0580 C   0  0  2  0  0  0  0  0  0  0  0  0
   10.3100    5.3980  -58.8070 C   0  0  0  0  0  0  0  0  0  0  0  0
    8.9180    4.3010  -57.0320 C   0  0  0  0  0  0  0  0  0  0  0  0
    7.9040    2.7850  -58.7760 C   0  0  0  0  0  0  0  0  0  0  0  0
    9.5200   -0.3520  -55.2540 N   0  0  0  0  0  0  0  0  0  0  0  0
    9.4660   -1.3390  -54.3300 N   0  0  0  0  0  0  0  0  0  0  0  0
   10.6380   -2.1910  -54.1380 C   0  0  0  0  0  0  0  0  0  0  0  0
   10.9650   -3.0050  -55.3660 C   0  0  0  0  0  0  0  0  0  0  0  0
   11.6140   -2.4210  -56.4650 C   0  0  0  0  0  0  0  0  0  0  0  0
   11.9200   -3.1800  -57.5940 C   0  0  0  0  0  0  0  0  0  0  0  0
   11.5880   -4.5330  -57.6380 C   0  0  0  0  0  0  0  0  0  0  0  0
   10.9490   -5.1270  -56.5520 C   0  0  0  0  0  0  0  0  0  0  0  0
   10.6410   -4.3690  -55.4200 C   0  0  0  0  0  0  0  0  0  0  0  0
    8.2840   -1.3690  -53.6270 C   0  0  0  0  0  0  0  0  0  0  0  0
    7.9880   -2.3190  -52.5640 C   0  0  0  0  0  0  0  0  0  0  0  0
    7.5760   -3.6190  -52.8750 C   0  0  0  0  0  0  0  0  0  0  0  0
    7.2980   -4.5310  -51.8560 C   0  0  0  0  0  0  0  0  0  0  0  0
    7.4260   -4.1470  -50.5220 C   0  0  0  0  0  0  0  0  0  0  0  0
    7.8270   -2.8490  -50.2050 C   0  0  0  0  0  0  0  0  0  0  0  0
    8.1060   -1.9350  -51.2240 C   0  0  0  0  0  0  0  0  0  0  0  0
    6.0392    0.0618  -52.6815 H   0  0  0  0  0  0  0  0  0  0  0  0
    5.8994    1.0353  -54.1846 H   0  0  0  0  0  0  0  0  0  0  0  0
    5.4081   -0.6925  -54.1846 H   0  0  0  0  0  0  0  0  0  0  0  0
    9.9050    1.3140  -56.5980 H   0  0  0  0  0  0  0  0  0  0  0  0
   11.2197    3.0294  -57.7936 H   0  0  0  0  0  0  0  0  0  0  0  0
   10.4800    1.9558  -59.0462 H   0  0  0  0  0  0  0  0  0  0  0  0
   11.4176    4.0268  -60.0715 H   0  0  0  0  0  0  0  0  0  0  0  0
    9.3403    4.7119  -61.2745 H   0  0  0  0  0  0  0  0  0  0  0  0
    9.4051    2.9264  -61.0561 H   0  0  0  0  0  0  0  0  0  0  0  0
    7.1333    3.8194  -60.5246 H   0  0  0  0  0  0  0  0  0  0  0  0
    7.8527    6.0952  -59.7992 H   0  0  0  0  0  0  0  0  0  0  0  0
    6.8610    5.2938  -58.5268 H   0  0  0  0  0  0  0  0  0  0  0  0
    8.8684    6.4112  -57.5400 H   0  0  0  0  0  0  0  0  0  0  0  0
   10.3474    6.2175  -59.5398 H   0  0  0  0  0  0  0  0  0  0  0  0
   11.1316    5.5064  -58.0836 H   0  0  0  0  0  0  0  0  0  0  0  0
    9.7461    4.4183  -56.3176 H   0  0  0  0  0  0  0  0  0  0  0  0
    7.9533    4.3391  -56.5049 H   0  0  0  0  0  0  0  0  0  0  0  0
    6.9368    2.8108  -58.2526 H   0  0  0  0  0  0  0  0  0  0  0  0
    8.0240    1.8288  -59.3064 H   0  0  0  0  0  0  0  0  0  0  0  0
   11.5017   -1.5543  -53.8959 H   0  0  0  0  0  0  0  0  0  0  0  0
   10.4126   -2.8923  -53.3210 H   0  0  0  0  0  0  0  0  0  0  0  0
   11.8837   -1.3550  -56.4354 H   0  0  0  0  0  0  0  0  0  0  0  0
   12.4242   -2.7102  -58.4513 H   0  0  0  0  0  0  0  0  0  0  0  0
   11.8302   -5.1309  -58.5290 H   0  0  0  0  0  0  0  0  0  0  0  0
   10.6866   -6.1947  -56.5860 H   0  0  0  0  0  0  0  0  0  0  0  0
   10.1404   -4.8452  -54.5640 H   0  0  0  0  0  0  0  0  0  0  0  0
    7.4707   -3.9236  -53.9267 H   0  0  0  0  0  0  0  0  0  0  0  0
    6.9777   -5.5533  -52.1055 H   0  0  0  0  0  0  0  0  0  0  0  0
    7.2108   -4.8676  -49.7192 H   0  0  0  0  0  0  0  0  0  0  0  0
    7.9235   -2.5451  -49.1522 H   0  0  0  0  0  0  0  0  0  0  0  0
    8.4192   -0.9110  -50.9721 H   0  0  0  0  0  0  0  0  0  0  0  0
  1  2  1  0
  2  3  1  0
  3  4  1  0
  4  5  2  0
  4  6  1  0
  7  6  1  1
  7  8  1  0
  8  9  1  0
  9 10  1  0
 10 11  1  0
 11 12  1  0
 12 13  1  0
 13 14  1  0
 13 15  1  0
 11 16  1  0
  3 17  2  0
 17 18  1  0
 18 19  1  0
 19 20  1  0
 20 21  2  0
 21 22  1  0
 22 23  2  0
 23 24  1  0
 24 25  2  0
 18 26  1  0
 26 27  1  0
 27 28  2  0
 28 29  1  0
 29 30  2  0
 30 31  1  0
 31 32  2  0
 26  2  2  0
 32 27  1  0
 15  7  1  0
 25 20  1  0
 16  7  1  0
 14  9  1  0
  1 33  1  0
  1 34  1  0
  1 35  1  0
  6 36  1  0
  8 37  1  0
  8 38  1  0
  9 39  1  6
 10 40  1  0
 10 41  1  0
 11 42  1  6
 12 43  1  0
 12 44  1  0
 13 45  1  1
 14 46  1  0
 14 47  1  0
 15 48  1  0
 15 49  1  0
 16 50  1  0
 16 51  1  0
 19 52  1  0
 19 53  1  0
 21 54  1  0
 22 55  1  0
 23 56  1  0
 24 57  1  0
 25 58  1  0
 28 59  1  0
 29 60  1  0
 30 61  1  0
 31 62  1  0
 32 63  1  0
M  END
>  <meeko>  (27) 
{"is_sidechain": false}

$$$$

     RDKit          3D

 27 29  0  0  0  0  0  0  0  0999 V2000
   10.6080    2.0540  -57.1860 O   0  0  0  0  0  0  0  0  0  0  0  0
   10.2050    3.0020  -58.1650 C   0  0  2  0  0  0  0  0  0  0  0  0
    9.1120    2.3970  -59.0650 C   0  0  0  0  0  0  0  0  0  0  0  0
    8.6860    3.4190  -60.1320 C   0  0  1  0  0  0  0  0  0  0  0  0
    8.1480    4.6820  -59.4360 C   0  0  0  0  0  0  0  0  0  0  0  0
    9.2370    5.2980  -58.5390 C   0  0  2  0  0  0  0  0  0  0  0  0
   10.4570    5.6630  -59.4030 C   0  0  0  0  0  0  0  0  0  0  0  0
   11.0100    4.4050  -60.0980 C   0  0  2  0  0  0  0  0  0  0  0  0
    9.9110    3.7950  -60.9860 C   0  0  0  0  0  0  0  0  0  0  0  0
   11.4210    3.3790  -59.0300 C   0  0  0  0  0  0  0  0  0  0  0  0
    9.6600    4.2670  -57.4790 C   0  0  0  0  0  0  0  0  0  0  0  0
   11.5800    2.0490  -57.1580 H   0  0  0  0  0  0  0  0  0  0  0  0
    9.5042    1.4960  -59.5593 H   0  0  0  0  0  0  0  0  0  0  0  0
    8.2402    2.1337  -58.4480 H   0  0  0  0  0  0  0  0  0  0  0  0
    7.9034    2.9859  -60.7723 H   0  0  0  0  0  0  0  0  0  0  0  0
    7.8461    5.4161  -60.1975 H   0  0  0  0  0  0  0  0  0  0  0  0
    7.2825    4.4089  -58.8145 H   0  0  0  0  0  0  0  0  0  0  0  0
    8.8466    6.2006  -58.0462 H   0  0  0  0  0  0  0  0  0  0  0  0
   10.1563    6.3970  -60.1651 H   0  0  0  0  0  0  0  0  0  0  0  0
   11.2390    6.0909  -58.7585 H   0  0  0  0  0  0  0  0  0  0  0  0
   11.8816    4.6722  -60.7136 H   0  0  0  0  0  0  0  0  0  0  0  0
    9.6110    4.5287  -61.7487 H   0  0  0  0  0  0  0  0  0  0  0  0
   10.3028    2.8887  -61.4708 H   0  0  0  0  0  0  0  0  0  0  0  0
   11.8108    2.4764  -59.5232 H   0  0  0  0  0  0  0  0  0  0  0  0
   12.1981    3.8188  -58.3876 H   0  0  0  0  0  0  0  0  0  0  0  0
   10.4431    4.7013  -56.8402 H   0  0  0  0  0  0  0  0  0  0  0  0
    8.7864    3.9985  -56.8669 H   0  0  0  0  0  0  0  0  0  0  0  0
  2  1  1  1
  2  3  1  0
  3  4  1  0
  4  5  1  0
  5  6  1  0
  6  7  1  0
  7  8  1  0
  8  9  1  0
  8 10  1  0
  6 11  1  0
 10  2  1  0
 11  2  1  0
  9  4  1  0
  1 12  1  0
  3 13  1  0
  3 14  1  0
  4 15  1  6
  5 16  1  0
  5 17  1  0
  6 18  1  1
  7 19  1  0
  7 20  1  0
  8 21  1  6
  9 22  1  0
  9 23  1  0
 10 24  1  0
 10 25  1  0
 11 26  1  0
 11 27  1  0
M  END
>  <meeko>  (28) 
{"is_sidechain": false}

$$$$

     RDKit          3D

 66 71  0  0  0  0  0  0  0  0999 V2000
    6.3760    0.4410  -52.9190 C   0  0  0  0  0  0  0  0  0  0  0  0
    7.3220   -0.4630  -53.6210 C   0  0  0  0  0  0  0  0  0  0  0  0
    8.0150   -0.1930  -54.8370 C   0  0  0  0  0  0  0  0  0  0  0  0
    7.9220    1.0020  -55.7000 C   0  0  0  0  0  0  0  0  0  0  0  0
    6.8560    1.4990  -56.0450 O   0  0  0  0  0  0  0  0  0  0  0  0
    9.1630    1.4550  -56.0950 N   0  0  0  0  0  0  0  0  0  0  0  0
    9.4290    2.4930  -57.0840 C   0  0  2  0  0  0  0  0  0  0  0  0
    9.1010    3.9070  -56.5440 C   0  0  0  0  0  0  0  0  0  0  0  0
    9.4370    4.9780  -57.5950 C   0  0  1  0  0  0  0  0  0  0  0  0
   10.9350    4.9100  -57.9310 C   0  0  0  0  0  0  0  0  0  0  0  0
   11.2840    3.5230  -58.4900 C   0  0  2  0  0  0  0  0  0  0  0  0
   10.4600    3.2620  -59.7610 C   0  0  0  0  0  0  0  0  0  0  0  0
    8.9590    3.3210  -59.4360 C   0  0  2  0  0  0  0  0  0  0  0  0
    8.6180    4.7110  -58.8700 C   0  0  0  0  0  0  0  0  0  0  0  0
    8.6240    2.2500  -58.3840 C   0  0  0  0  0  0  0  0  0  0  0  0
   10.9390    2.4550  -57.4390 C   0  0  0  0  0  0  0  0  0  0  0  0
    8.8110   -1.2230  -55.1820 N   0  0  0  0  0  0  0  0  0  0  0  0
    8.5740   -2.1600  -54.2460 N   0  0  0  0  0  0  0  0  0  0  0  0
    9.1930   -3.4670  -54.4030 C   0  0  0  0  0  0  0  0  0  0  0  0
   10.7190   -3.3950  -54.5150 C   0  0  0  0  0  0  0  0  0  0  0  0
   11.2540   -3.7970  -55.8750 C   0  0  0  0  0  0  0  0  0  0  0  0
   11.2330   -5.1600  -56.2250 C   0  0  0  0  0  0  0  0  0  0  0  0
   11.6730   -5.5900  -57.4780 C   0  0  0  0  0  0  0  0  0  0  0  0
   12.1480   -4.6660  -58.4030 C   0  0  0  0  0  0  0  0  0  0  0  0
   12.1790   -3.3110  -58.0750 C   0  0  0  0  0  0  0  0  0  0  0  0
   11.7340   -2.8770  -56.8220 C   0  0  0  0  0  0  0  0  0  0  0  0
   11.8140   -1.0090  -56.4770 Br  0  0  0  0  0  0  0  0  0  0  0  0
    7.7120   -1.7450  -53.2580 C   0  0  0  0  0  0  0  0  0  0  0  0
    7.3040   -2.5670  -52.1270 C   0  0  0  0  0  0  0  0  0  0  0  0
    7.8800   -2.3710  -50.8660 C   0  0  0  0  0  0  0  0  0  0  0  0
    7.4910   -3.1630  -49.7860 C   0  0  0  0  0  0  0  0  0  0  0  0
    6.5230   -4.1520  -49.9570 C   0  0  0  0  0  0  0  0  0  0  0  0
    5.9380   -4.3450  -51.2080 C   0  0  0  0  0  0  0  0  0  0  0  0
    6.3250   -3.5530  -52.2910 C   0  0  0  0  0  0  0  0  0  0  0  0
    6.4969    0.3255  -51.8318 H   0  0  0  0  0  0  0  0  0  0  0  0
    6.5857    1.4829  -53.2026 H   0  0  0  0  0  0  0  0  0  0  0  0
    5.3447    0.1843  -53.2026 H   0  0  0  0  0  0  0  0  0  0  0  0
    9.9230    0.8530  -55.7800 H   0  0  0  0  0  0  0  0  0  0  0  0
    8.0295    3.9619  -56.3014 H   0  0  0  0  0  0  0  0  0  0  0  0
    9.7046    4.0919  -55.6432 H   0  0  0  0  0  0  0  0  0  0  0  0
    9.1928    5.9746  -57.1985 H   0  0  0  0  0  0  0  0  0  0  0  0
   11.1753    5.6768  -58.6822 H   0  0  0  0  0  0  0  0  0  0  0  0
   11.5193    5.0888  -57.0163 H   0  0  0  0  0  0  0  0  0  0  0  0
   12.3567    3.4808  -58.7296 H   0  0  0  0  0  0  0  0  0  0  0  0
   10.6999    4.0270  -60.5141 H   0  0  0  0  0  0  0  0  0  0  0  0
   10.7057    2.2636  -60.1518 H   0  0  0  0  0  0  0  0  0  0  0  0
    8.3747    3.1378  -60.3498 H   0  0  0  0  0  0  0  0  0  0  0  0
    8.8548    5.4782  -59.6219 H   0  0  0  0  0  0  0  0  0  0  0  0
    7.5465    4.7466  -58.6238 H   0  0  0  0  0  0  0  0  0  0  0  0
    7.5486    2.2907  -58.1563 H   0  0  0  0  0  0  0  0  0  0  0  0
    8.8903    1.2616  -58.7867 H   0  0  0  0  0  0  0  0  0  0  0  0
   11.1896    1.4617  -57.8396 H   0  0  0  0  0  0  0  0  0  0  0  0
   11.5191    2.6598  -56.5271 H   0  0  0  0  0  0  0  0  0  0  0  0
    8.9340   -4.0850  -53.5306 H   0  0  0  0  0  0  0  0  0  0  0  0
    8.8137   -3.9012  -55.3398 H   0  0  0  0  0  0  0  0  0  0  0  0
   11.0329   -2.3607  -54.3111 H   0  0  0  0  0  0  0  0  0  0  0  0
   11.1270   -4.1112  -53.7866 H   0  0  0  0  0  0  0  0  0  0  0  0
   10.8636   -5.8990  -55.4988 H   0  0  0  0  0  0  0  0  0  0  0  0
   11.6441   -6.6594  -57.7339 H   0  0  0  0  0  0  0  0  0  0  0  0
   12.4980   -5.0031  -59.3899 H   0  0  0  0  0  0  0  0  0  0  0  0
   12.5554   -2.5797  -58.8054 H   0  0  0  0  0  0  0  0  0  0  0  0
    8.6418   -1.5898  -50.7267 H   0  0  0  0  0  0  0  0  0  0  0  0
    7.9485   -3.0073  -48.7978 H   0  0  0  0  0  0  0  0  0  0  0  0
    6.2210   -4.7796  -49.1055 H   0  0  0  0  0  0  0  0  0  0  0  0
    5.1709   -5.1219  -51.3419 H   0  0  0  0  0  0  0  0  0  0  0  0
    5.8589   -3.7047  -53.2757 H   0  0  0  0  0  0  0  0  0  0  0  0
  1  2  1  0
  2  3  1  0
  3  4  1  0
  4  5  2  0
  4  6  1  0
  7  6  1  1
  7  8  1  0
  8  9  1  0
  9 10  1  0
 10 11  1  0
 11 12  1  0
 12 13  1  0
 13 14  1  0
 13 15  1  0
 11 16  1  0
  3 17  2  0
 17 18  1  0
 18 19  1  0
 19 20  1  0
 20 21  1  0
 21 22  2  0
 22 23  1  0
 23 24  2  0
 24 25  1  0
 25 26  2  0
 26 27  1  0
 18 28  1  0
 28 29  1  0
 29 30  2  0
 30 31  1  0
 31 32  2  0
 32 33  1  0
 33 34  2  0
 28  2  2  0
 34 29  1  0
 15  7  1  0
 26 21  1  0
 16  7  1  0
 14  9  1  0
  1 35  1  0
  1 36  1  0
  1 37  1  0
  6 38  1  0
  8 39  1  0
  8 40  1  0
  9 41  1  1
 10 42  1  0
 10 43  1  0
 11 44  1  6
 12 45  1  0
 12 46  1  0
 13 47  1  6
 14 48  1  0
 14 49  1  0
 15 50  1  0
 15 51  1  0
 16 52  1  0
 16 53  1  0
 19 54  1  0
 19 55  1  0
 20 56  1  0
 20 57  1  0
 22 58  1  0
 23 59  1  0
 24 60  1  0
 25 61  1  0
 30 62  1  0
 31 63  1  0
 32 64  1  0
 33 65  1  0
 34 66  1  0
M  END
>  <meeko>  (29) 
{"is_sidechain": false}

$$$$

     RDKit          3D

 45 49  0  0  0  0  0  0  0  0999 V2000
    6.8390    2.0210  -57.6990 O   0  0  0  0  0  0  0  0  0  0  0  0
    7.5900    1.6460  -56.8020 C   0  0  0  0  0  0  0  0  0  0  0  0
    8.9260    2.0100  -56.7390 N   0  0  0  0  0  0  0  0  0  0  0  0
    9.6260    2.8670  -57.6980 C   0  0  2  0  0  0  0  0  0  0  0  0
    8.9480    4.2550  -57.8260 C   0  0  0  0  0  0  0  0  0  0  0  0
    9.7320    5.1520  -58.8000 C   0  0  1  0  0  0  0  0  0  0  0  0
   11.1620    5.3470  -58.2720 C   0  0  0  0  0  0  0  0  0  0  0  0
   11.8670    3.9880  -58.1530 C   0  0  2  0  0  0  0  0  0  0  0  0
   11.9180    3.3180  -59.5360 C   0  0  0  0  0  0  0  0  0  0  0  0
   10.4930    3.1100  -60.0720 C   0  0  2  0  0  0  0  0  0  0  0  0
    9.7890    4.4740  -60.1790 C   0  0  0  0  0  0  0  0  0  0  0  0
    9.7090    2.2120  -59.0990 C   0  0  0  0  0  0  0  0  0  0  0  0
   11.0750    3.0910  -57.1880 C   0  0  0  0  0  0  0  0  0  0  0  0
    7.1690    0.7860  -55.7130 C   0  0  0  0  0  0  0  0  0  0  0  0
    5.9240    0.5380  -55.3500 N   0  0  0  0  0  0  0  0  0  0  0  0
    6.0030   -0.3270  -54.2770 N   0  0  0  0  0  0  0  0  0  0  0  0
    7.2860   -0.5450  -54.0610 C   0  0  0  0  0  0  0  0  0  0  0  0
    7.9390   -1.3750  -53.0570 C   0  0  0  0  0  0  0  0  0  0  0  0
    9.1970   -1.9650  -53.2840 C   0  0  0  0  0  0  0  0  0  0  0  0
    9.8040   -2.7570  -52.3040 C   0  0  0  0  0  0  0  0  0  0  0  0
    9.1570   -2.9640  -51.0910 C   0  0  0  0  0  0  0  0  0  0  0  0
    9.7410   -3.7230  -50.1550 F   0  0  0  0  0  0  0  0  0  0  0  0
    7.9160   -2.3880  -50.8540 C   0  0  0  0  0  0  0  0  0  0  0  0
    7.2940   -2.5880  -49.6850 F   0  0  0  0  0  0  0  0  0  0  0  0
    7.3050   -1.5980  -51.8240 C   0  0  0  0  0  0  0  0  0  0  0  0
    8.0910    0.1330  -54.9390 O   0  0  0  0  0  0  0  0  0  0  0  0
    9.4500    1.6400  -55.9510 H   0  0  0  0  0  0  0  0  0  0  0  0
    7.9224    4.1233  -58.2014 H   0  0  0  0  0  0  0  0  0  0  0  0
    8.9318    4.7348  -56.8363 H   0  0  0  0  0  0  0  0  0  0  0  0
    9.2332    6.1286  -58.8868 H   0  0  0  0  0  0  0  0  0  0  0  0
   11.7228    5.9888  -58.9674 H   0  0  0  0  0  0  0  0  0  0  0  0
   11.1195    5.8202  -57.2799 H   0  0  0  0  0  0  0  0  0  0  0  0
   12.8892    4.1338  -57.7737 H   0  0  0  0  0  0  0  0  0  0  0  0
   12.4787    3.9600  -60.2313 H   0  0  0  0  0  0  0  0  0  0  0  0
   12.4161    2.3414  -59.4460 H   0  0  0  0  0  0  0  0  0  0  0  0
   10.5361    2.6338  -61.0626 H   0  0  0  0  0  0  0  0  0  0  0  0
   10.3458    5.1165  -60.8770 H   0  0  0  0  0  0  0  0  0  0  0  0
    8.7635    4.3207  -60.5462 H   0  0  0  0  0  0  0  0  0  0  0  0
    8.6913    2.0601  -59.4878 H   0  0  0  0  0  0  0  0  0  0  0  0
   10.2302    1.2475  -59.0089 H   0  0  0  0  0  0  0  0  0  0  0  0
   11.5812    2.1180  -57.1042 H   0  0  0  0  0  0  0  0  0  0  0  0
   11.0283    3.5872  -56.2074 H   0  0  0  0  0  0  0  0  0  0  0  0
    9.7087   -1.8011  -54.2438 H   0  0  0  0  0  0  0  0  0  0  0  0
   10.7871   -3.2133  -52.4918 H   0  0  0  0  0  0  0  0  0  0  0  0
    6.3220   -1.1468  -51.6238 H   0  0  0  0  0  0  0  0  0  0  0  0
  1  2  2  0
  2  3  1  0
  4  3  1  1
  4  5  1  0
  5  6  1  0
  6  7  1  0
  7  8  1  0
  8  9  1  0
  9 10  1  0
 10 11  1  0
 10 12  1  0
  8 13  1  0
  2 14  1  0
 14 15  2  0
 15 16  1  0
 16 17  2  0
 17 18  1  0
 18 19  1  0
 19 20  2  0
 20 21  1  0
 21 22  1  0
 21 23  2  0
 23 24  1  0
 23 25  1  0
 17 26  1  0
 12  4  1  0
 26 14  1  0
 13  4  1  0
 25 18  2  0
 11  6  1  0
  3 27  1  0
  5 28  1  0
  5 29  1  0
  6 30  1  6
  7 31  1  0
  7 32  1  0
  8 33  1  1
  9 34  1  0
  9 35  1  0
 10 36  1  6
 11 37  1  0
 11 38  1  0
 12 39  1  0
 12 40  1  0
 13 41  1  0
 13 42  1  0
 19 43  1  0
 20 44  1  0
 25 45  1  0
M  END
>  <meeko>  (30) 
{"is_sidechain": false}

$$$$

     RDKit          3D

 54 58  0  0  0  0  0  0  0  0999 V2000
    5.8650    3.3380  -58.2430 O   0  0  0  0  0  0  0  0  0  0  0  0
    6.5200    2.3340  -57.9940 C   0  0  0  0  0  0  0  0  0  0  0  0
    6.1750    1.5060  -56.8150 C   0  0  0  0  0  0  0  0  0  0  0  0
    7.0900    0.9940  -55.9770 C   0  0  0  0  0  0  0  0  0  0  0  0
    6.8290    0.1680  -54.8400 C   0  0  0  0  0  0  0  0  0  0  0  0
    7.6000   -0.9270  -54.3780 C   0  0  0  0  0  0  0  0  0  0  0  0
    6.9490   -1.4130  -53.2590 C   0  0  0  0  0  0  0  0  0  0  0  0
    7.2660   -2.5140  -52.3530 C   0  0  0  0  0  0  0  0  0  0  0  0
    8.1200   -2.3280  -51.2530 C   0  0  0  0  0  0  0  0  0  0  0  0
    8.4130   -3.3900  -50.3940 C   0  0  0  0  0  0  0  0  0  0  0  0
    7.8560   -4.6390  -50.6300 C   0  0  0  0  0  0  0  0  0  0  0  0
    8.1390   -5.6560  -49.8070 F   0  0  0  0  0  0  0  0  0  0  0  0
    7.0060   -4.8470  -51.7080 C   0  0  0  0  0  0  0  0  0  0  0  0
    6.7090   -3.7850  -52.5670 C   0  0  0  0  0  0  0  0  0  0  0  0
    5.8670   -0.5850  -53.1110 N   0  0  0  0  0  0  0  0  0  0  0  0
    5.7630    0.3630  -54.0560 N   0  0  0  0  0  0  0  0  0  0  0  0
    7.6290    1.9300  -58.6930 N   0  0  0  0  0  0  0  0  0  0  0  0
    8.1640    2.7440  -59.7680 C   0  0  0  0  0  0  0  0  0  0  0  0
    9.4500    3.5080  -59.3900 C   0  0  2  0  0  0  0  0  0  0  0  0
    9.1360    4.7330  -58.4920 C   0  0  0  0  0  0  0  0  0  0  0  0
   10.4340    5.4550  -58.0860 C   0  0  1  0  0  0  0  0  0  0  0  0
   11.3350    4.4810  -57.3100 C   0  0  0  0  0  0  0  0  0  0  0  0
   11.6820    3.2700  -58.1900 C   0  0  2  0  0  0  0  0  0  0  0  0
   12.4130    3.7520  -59.4530 C   0  0  0  0  0  0  0  0  0  0  0  0
   11.5160    4.7200  -60.2400 C   0  0  2  0  0  0  0  0  0  0  0  0
   11.1680    5.9260  -59.3520 C   0  0  0  0  0  0  0  0  0  0  0  0
   10.2170    3.9990  -60.6450 C   0  0  0  0  0  0  0  0  0  0  0  0
   10.3840    2.5540  -58.5980 C   0  0  0  0  0  0  0  0  0  0  0  0
    5.1130    1.2999  -56.6158 H   0  0  0  0  0  0  0  0  0  0  0  0
    8.1432    1.2333  -56.1855 H   0  0  0  0  0  0  0  0  0  0  0  0
    8.5300   -1.3132  -54.8206 H   0  0  0  0  0  0  0  0  0  0  0  0
    8.5616   -1.3379  -51.0666 H   0  0  0  0  0  0  0  0  0  0  0  0
    9.0822   -3.2369  -49.5345 H   0  0  0  0  0  0  0  0  0  0  0  0
    6.5692   -5.8409  -51.8849 H   0  0  0  0  0  0  0  0  0  0  0  0
    6.0323   -3.9466  -53.4190 H   0  0  0  0  0  0  0  0  0  0  0  0
    5.1670   -0.6050  -52.3780 H   0  0  0  0  0  0  0  0  0  0  0  0
    8.2440    1.2610  -58.2520 H   0  0  0  0  0  0  0  0  0  0  0  0
    8.3889    2.0873  -60.6213 H   0  0  0  0  0  0  0  0  0  0  0  0
    7.4013    3.4996  -60.0077 H   0  0  0  0  0  0  0  0  0  0  0  0
    8.4920    5.4317  -59.0461 H   0  0  0  0  0  0  0  0  0  0  0  0
    8.6252    4.3840  -57.5824 H   0  0  0  0  0  0  0  0  0  0  0  0
   10.1939    6.3214  -57.4523 H   0  0  0  0  0  0  0  0  0  0  0  0
   12.2619    4.9964  -57.0180 H   0  0  0  0  0  0  0  0  0  0  0  0
   10.8021    4.1338  -56.4125 H   0  0  0  0  0  0  0  0  0  0  0  0
   12.3286    2.5781  -57.6303 H   0  0  0  0  0  0  0  0  0  0  0  0
   13.3401    4.2681  -59.1631 H   0  0  0  0  0  0  0  0  0  0  0  0
   12.6521    2.8847  -60.0859 H   0  0  0  0  0  0  0  0  0  0  0  0
   12.0459    5.0621  -61.1412 H   0  0  0  0  0  0  0  0  0  0  0  0
   12.0941    6.4450  -59.0639 H   0  0  0  0  0  0  0  0  0  0  0  0
   10.5149    6.6102  -59.9135 H   0  0  0  0  0  0  0  0  0  0  0  0
    9.5786    4.6946  -61.2095 H   0  0  0  0  0  0  0  0  0  0  0  0
   10.4741    3.1283  -61.2661 H   0  0  0  0  0  0  0  0  0  0  0  0
   10.6334    1.6883  -59.2292 H   0  0  0  0  0  0  0  0  0  0  0  0
    9.8616    2.2275  -57.6867 H   0  0  0  0  0  0  0  0  0  0  0  0
  1  2  2  0
  2  3  1  0
  3  4  2  0
  4  5  1  0
  5  6  1  0
  6  7  2  0
  7  8  1  0
  8  9  1  0
  9 10  2  0
 10 11  1  0
 11 12  1  0
 11 13  2  0
 13 14  1  0
  7 15  1  0
 15 16  1  0
  2 17  1  0
 17 18  1  0
 19 18  1  6
 19 20  1  0
 20 21  1  0
 21 22  1  0
 22 23  1  0
 23 24  1  0
 24 25  1  0
 25 26  1  0
 25 27  1  0
 23 28  1  0
 16  5  2  0
 27 19  1  0
 14  8  2  0
 28 19  1  0
 26 21  1  0
  3 29  1  0
  4 30  1  0
  6 31  1  0
  9 32  1  0
 10 33  1  0
 13 34  1  0
 14 35  1  0
 15 36  1  0
 17 37  1  0
 18 38  1  0
 18 39  1  0
 20 40  1  0
 20 41  1  0
 21 42  1  1
 22 43  1  0
 22 44  1  0
 23 45  1  1
 24 46  1  0
 24 47  1  0
 25 48  1  6
 26 49  1  0
 26 50  1  0
 27 51  1  0
 27 52  1  0
 28 53  1  0
 28 54  1  0
M  END
>  <meeko>  (31) 
{"is_sidechain": false}

$$$$

     RDKit          3D

 54 58  0  0  0  0  0  0  0  0999 V2000
    4.9170    2.3650  -58.2600 O   0  0  0  0  0  0  0  0  0  0  0  0
    5.8280    2.2840  -57.4460 C   0  0  0  0  0  0  0  0  0  0  0  0
    5.7560    1.4040  -56.2520 C   0  0  0  0  0  0  0  0  0  0  0  0
    6.8850    0.8650  -55.7680 C   0  0  0  0  0  0  0  0  0  0  0  0
    6.8720    0.0220  -54.6330 C   0  0  0  0  0  0  0  0  0  0  0  0
    7.3620   -1.2240  -54.3060 C   0  0  0  0  0  0  0  0  0  0  0  0
    6.9730   -1.4670  -52.9570 C   0  0  0  0  0  0  0  0  0  0  0  0
    7.2410   -2.6490  -52.1260 C   0  0  0  0  0  0  0  0  0  0  0  0
    8.0580   -2.5720  -50.9850 C   0  0  0  0  0  0  0  0  0  0  0  0
    8.3020   -3.7060  -50.2050 C   0  0  0  0  0  0  0  0  0  0  0  0
    7.7310   -4.9220  -50.5590 C   0  0  0  0  0  0  0  0  0  0  0  0
    7.9680   -6.0050  -49.8090 F   0  0  0  0  0  0  0  0  0  0  0  0
    6.9200   -5.0270  -51.6790 C   0  0  0  0  0  0  0  0  0  0  0  0
    6.6760   -3.8940  -52.4600 C   0  0  0  0  0  0  0  0  0  0  0  0
    6.2790   -0.4190  -52.4840 N   0  0  0  0  0  0  0  0  0  0  0  0
    6.2340    0.4530  -53.5030 N   0  0  0  0  0  0  0  0  0  0  0  0
    7.0100    2.9760  -57.5280 N   0  0  0  0  0  0  0  0  0  0  0  0
    7.3050    3.8770  -58.6270 C   0  0  0  0  0  0  0  0  0  0  0  0
    8.8150    4.1030  -58.8610 C   0  0  2  0  0  0  0  0  0  0  0  0
    9.3180    5.4020  -58.1800 C   0  0  0  0  0  0  0  0  0  0  0  0
   10.8320    5.5760  -58.3940 C   0  0  1  0  0  0  0  0  0  0  0  0
   11.5730    4.3730  -57.7890 C   0  0  0  0  0  0  0  0  0  0  0  0
   11.1100    3.0760  -58.4690 C   0  0  2  0  0  0  0  0  0  0  0  0
   11.4020    3.1570  -59.9750 C   0  0  0  0  0  0  0  0  0  0  0  0
   10.6610    4.3540  -60.5910 C   0  0  2  0  0  0  0  0  0  0  0  0
   11.1260    5.6470  -59.9010 C   0  0  0  0  0  0  0  0  0  0  0  0
    9.1470    4.1810  -60.3740 C   0  0  0  0  0  0  0  0  0  0  0  0
    9.5970    2.9060  -58.2560 C   0  0  0  0  0  0  0  0  0  0  0  0
    4.7890    1.1967  -55.7705 H   0  0  0  0  0  0  0  0  0  0  0  0
    7.8417    1.0836  -56.2649 H   0  0  0  0  0  0  0  0  0  0  0  0
    7.9389   -1.8972  -54.9572 H   0  0  0  0  0  0  0  0  0  0  0  0
    8.5100   -1.6096  -50.7029 H   0  0  0  0  0  0  0  0  0  0  0  0
    8.9437   -3.6358  -49.3143 H   0  0  0  0  0  0  0  0  0  0  0  0
    6.4723   -5.9944  -51.9505 H   0  0  0  0  0  0  0  0  0  0  0  0
    6.0330   -3.9765  -53.3487 H   0  0  0  0  0  0  0  0  0  0  0  0
    5.7470    1.3300  -53.3550 H   0  0  0  0  0  0  0  0  0  0  0  0
    7.7220    2.8460  -56.8240 H   0  0  0  0  0  0  0  0  0  0  0  0
    6.8709    3.4564  -59.5461 H   0  0  0  0  0  0  0  0  0  0  0  0
    6.8721    4.8537  -58.3650 H   0  0  0  0  0  0  0  0  0  0  0  0
    8.7904    6.2646  -58.6131 H   0  0  0  0  0  0  0  0  0  0  0  0
    9.1183    5.3359  -57.1003 H   0  0  0  0  0  0  0  0  0  0  0  0
   11.1703    6.5019  -57.9060 H   0  0  0  0  0  0  0  0  0  0  0  0
   12.6553    4.4977  -57.9407 H   0  0  0  0  0  0  0  0  0  0  0  0
   11.3517    4.3160  -56.7130 H   0  0  0  0  0  0  0  0  0  0  0  0
   11.6464    2.2195  -58.0345 H   0  0  0  0  0  0  0  0  0  0  0  0
   12.4841    3.2796  -60.1301 H   0  0  0  0  0  0  0  0  0  0  0  0
   11.0579    2.2314  -60.4596 H   0  0  0  0  0  0  0  0  0  0  0  0
   10.8774    4.4088  -61.6681 H   0  0  0  0  0  0  0  0  0  0  0  0
   12.2078    5.7730  -60.0552 H   0  0  0  0  0  0  0  0  0  0  0  0
   10.5845    6.5011  -60.3338 H   0  0  0  0  0  0  0  0  0  0  0  0
    8.6186    5.0387  -60.8158 H   0  0  0  0  0  0  0  0  0  0  0  0
    8.8256    3.2455  -60.8551 H   0  0  0  0  0  0  0  0  0  0  0  0
    9.2668    1.9767  -58.7433 H   0  0  0  0  0  0  0  0  0  0  0  0
    9.3964    2.8651  -57.1752 H   0  0  0  0  0  0  0  0  0  0  0  0
  1  2  2  0
  2  3  1  0
  3  4  2  0
  4  5  1  0
  5  6  2  0
  6  7  1  0
  7  8  1  0
  8  9  1  0
  9 10  2  0
 10 11  1  0
 11 12  1  0
 11 13  2  0
 13 14  1  0
  7 15  2  0
 15 16  1  0
  2 17  1  0
 17 18  1  0
 19 18  1  6
 19 20  1  0
 20 21  1  0
 21 22  1  0
 22 23  1  0
 23 24  1  0
 24 25  1  0
 25 26  1  0
 25 27  1  0
 23 28  1  0
 16  5  1  0
 27 19  1  0
 14  8  2  0
 28 19  1  0
 26 21  1  0
  3 29  1  0
  4 30  1  0
  6 31  1  0
  9 32  1  0
 10 33  1  0
 13 34  1  0
 14 35  1  0
 16 36  1  0
 17 37  1  0
 18 38  1  0
 18 39  1  0
 20 40  1  0
 20 41  1  0
 21 42  1  1
 22 43  1  0
 22 44  1  0
 23 45  1  1
 24 46  1  0
 24 47  1  0
 25 48  1  6
 26 49  1  0
 26 50  1  0
 27 51  1  0
 27 52  1  0
 28 53  1  0
 28 54  1  0
M  END
>  <meeko>  (32) 
{"is_sidechain": false}

$$$$

     RDKit          3D

 54 58  0  0  0  0  0  0  0  0999 V2000
    8.9950   -1.6770  -52.8330 O   0  0  0  0  0  0  0  0  0  0  0  0
    8.9430   -1.4360  -54.0380 C   0  0  0  0  0  0  0  0  0  0  0  0
    8.0680   -0.3260  -54.4970 C   0  0  0  0  0  0  0  0  0  0  0  0
    8.2310    0.7550  -55.2760 C   0  0  0  0  0  0  0  0  0  0  0  0
    9.3610    1.2430  -56.0030 C   0  0  0  0  0  0  0  0  0  0  0  0
    9.3840    2.5030  -56.6570 C   0  0  0  0  0  0  0  0  0  0  0  0
   10.6220    2.6060  -57.2630 C   0  0  0  0  0  0  0  0  0  0  0  0
   11.2290    3.6690  -58.0600 C   0  0  0  0  0  0  0  0  0  0  0  0
   10.4480    4.4860  -58.8940 C   0  0  0  0  0  0  0  0  0  0  0  0
   11.0420    5.4990  -59.6530 C   0  0  0  0  0  0  0  0  0  0  0  0
   12.4140    5.6970  -59.5800 C   0  0  0  0  0  0  0  0  0  0  0  0
   12.9810    6.6680  -60.3080 F   0  0  0  0  0  0  0  0  0  0  0  0
   13.2050    4.9040  -58.7600 C   0  0  0  0  0  0  0  0  0  0  0  0
   12.6130    3.8930  -58.0000 C   0  0  0  0  0  0  0  0  0  0  0  0
   11.2550    1.4370  -56.9320 N   0  0  0  0  0  0  0  0  0  0  0  0
   10.5160    0.5970  -56.1890 N   0  0  0  0  0  0  0  0  0  0  0  0
    9.6430   -2.1360  -54.9710 N   0  0  0  0  0  0  0  0  0  0  0  0
   10.4500   -3.2780  -54.6020 C   0  0  0  0  0  0  0  0  0  0  0  0
   11.2150   -3.9380  -55.7680 C   0  0  2  0  0  0  0  0  0  0  0  0
   10.2860   -4.8430  -56.6160 C   0  0  0  0  0  0  0  0  0  0  0  0
   11.0760   -5.5240  -57.7470 C   0  0  1  0  0  0  0  0  0  0  0  0
   11.7100   -4.4490  -58.6440 C   0  0  0  0  0  0  0  0  0  0  0  0
   12.6650   -3.5690  -57.8200 C   0  0  2  0  0  0  0  0  0  0  0  0
   13.7650   -4.4490  -57.2070 C   0  0  0  0  0  0  0  0  0  0  0  0
   13.1380   -5.5210  -56.3030 C   0  0  2  0  0  0  0  0  0  0  0  0
   12.1860   -6.3940  -57.1370 C   0  0  0  0  0  0  0  0  0  0  0  0
   12.3410   -4.8340  -55.1810 C   0  0  0  0  0  0  0  0  0  0  0  0
   11.8750   -2.8840  -56.6910 C   0  0  0  0  0  0  0  0  0  0  0  0
    7.0435   -0.4102  -54.1054 H   0  0  0  0  0  0  0  0  0  0  0  0
    7.3305    1.3794  -55.3726 H   0  0  0  0  0  0  0  0  0  0  0  0
    8.5764    3.2495  -56.6774 H   0  0  0  0  0  0  0  0  0  0  0  0
    9.3609    4.3277  -58.9504 H   0  0  0  0  0  0  0  0  0  0  0  0
   10.4254    6.1356  -60.3045 H   0  0  0  0  0  0  0  0  0  0  0  0
   14.2911    5.0709  -58.7092 H   0  0  0  0  0  0  0  0  0  0  0  0
   13.2381    3.2657  -57.3475 H   0  0  0  0  0  0  0  0  0  0  0  0
   12.1990    1.1570  -57.1750 H   0  0  0  0  0  0  0  0  0  0  0  0
    9.4480   -1.9400  -55.9540 H   0  0  0  0  0  0  0  0  0  0  0  0
   11.1859   -2.9487  -53.8537 H   0  0  0  0  0  0  0  0  0  0  0  0
    9.7521   -4.0385  -54.2218 H   0  0  0  0  0  0  0  0  0  0  0  0
    9.8442   -5.6147  -55.9685 H   0  0  0  0  0  0  0  0  0  0  0  0
    9.4957   -4.2207  -57.0612 H   0  0  0  0  0  0  0  0  0  0  0  0
   10.3987   -6.1517  -58.3448 H   0  0  0  0  0  0  0  0  0  0  0  0
   12.2722   -4.9364  -59.4541 H   0  0  0  0  0  0  0  0  0  0  0  0
   10.9144   -3.8183  -59.0674 H   0  0  0  0  0  0  0  0  0  0  0  0
   13.1204   -2.8072  -58.4698 H   0  0  0  0  0  0  0  0  0  0  0  0
   14.3315   -4.9382  -58.0131 H   0  0  0  0  0  0  0  0  0  0  0  0
   14.4382   -3.8194  -56.6067 H   0  0  0  0  0  0  0  0  0  0  0  0
   13.9300   -6.1475  -55.8668 H   0  0  0  0  0  0  0  0  0  0  0  0
   12.7519   -6.8818  -57.9443 H   0  0  0  0  0  0  0  0  0  0  0  0
   11.7319   -7.1565  -56.4871 H   0  0  0  0  0  0  0  0  0  0  0  0
   11.8900   -5.6032  -54.5369 H   0  0  0  0  0  0  0  0  0  0  0  0
   13.0273   -4.2001  -54.6003 H   0  0  0  0  0  0  0  0  0  0  0  0
   12.5603   -2.2619  -56.0966 H   0  0  0  0  0  0  0  0  0  0  0  0
   11.0860   -2.2617  -57.1384 H   0  0  0  0  0  0  0  0  0  0  0  0
  1  2  2  0
  2  3  1  0
  3  4  2  0
  4  5  1  0
  5  6  1  0
  6  7  2  0
  7  8  1  0
  8  9  1  0
  9 10  2  0
 10 11  1  0
 11 12  1  0
 11 13  2  0
 13 14  1  0
  7 15  1  0
 15 16  1  0
  2 17  1  0
 17 18  1  0
 19 18  1  1
 19 20  1  0
 20 21  1  0
 21 22  1  0
 22 23  1  0
 23 24  1  0
 24 25  1  0
 25 26  1  0
 25 27  1  0
 23 28  1  0
 16  5  2  0
 27 19  1  0
 14  8  2  0
 28 19  1  0
 26 21  1  0
  3 29  1  0
  4 30  1  0
  6 31  1  0
  9 32  1  0
 10 33  1  0
 13 34  1  0
 14 35  1  0
 15 36  1  0
 17 37  1  0
 18 38  1  0
 18 39  1  0
 20 40  1  0
 20 41  1  0
 21 42  1  6
 22 43  1  0
 22 44  1  0
 23 45  1  6
 24 46  1  0
 24 47  1  0
 25 48  1  1
 26 49  1  0
 26 50  1  0
 27 51  1  0
 27 52  1  0
 28 53  1  0
 28 54  1  0
M  END
>  <meeko>  (33) 
{"is_sidechain": false}

$$$$

     RDKit          3D

 54 56  0  0  0  0  0  0  0  0999 V2000
    7.2960    3.3820  -56.8120 C   0  0  0  0  0  0  0  0  0  0  0  0
    8.7520    2.8840  -56.9720 C   0  0  0  0  0  0  0  0  0  0  0  0
    8.9920    1.7810  -56.0180 N   0  0  0  0  0  0  0  0  0  0  0  0
    8.0600    0.7970  -55.7230 C   0  0  0  0  0  0  0  0  0  0  0  0
    6.9220    0.7840  -56.1780 O   0  0  0  0  0  0  0  0  0  0  0  0
    8.5590   -0.2610  -54.8220 C   0  0  0  0  0  0  0  0  0  0  0  0
    9.7890   -0.7800  -54.9740 N   0  0  0  0  0  0  0  0  0  0  0  0
    9.9040   -1.7250  -54.0230 N   0  0  0  0  0  0  0  0  0  0  0  0
   11.1220   -2.5360  -54.0050 C   0  0  0  0  0  0  0  0  0  0  0  0
   11.3800   -3.1920  -55.3390 C   0  0  0  0  0  0  0  0  0  0  0  0
   11.6670   -2.4150  -56.4730 C   0  0  0  0  0  0  0  0  0  0  0  0
   11.9090   -3.0190  -57.7080 C   0  0  0  0  0  0  0  0  0  0  0  0
   11.8720   -4.4070  -57.8260 C   0  0  0  0  0  0  0  0  0  0  0  0
   11.5980   -5.1870  -56.7040 C   0  0  0  0  0  0  0  0  0  0  0  0
   11.5570   -6.9010  -56.8450 Cl  0  0  0  0  0  0  0  0  0  0  0  0
   11.3550   -4.5900  -55.4660 C   0  0  0  0  0  0  0  0  0  0  0  0
    8.8120   -1.7810  -53.1990 C   0  0  0  0  0  0  0  0  0  0  0  0
    8.7020   -2.6820  -52.0320 C   0  0  0  0  0  0  0  0  0  0  0  0
    9.9220   -3.1380  -51.6560 F   0  0  0  0  0  0  0  0  0  0  0  0
    7.9500   -3.7780  -52.2840 F   0  0  0  0  0  0  0  0  0  0  0  0
    8.1590   -2.0530  -50.9670 F   0  0  0  0  0  0  0  0  0  0  0  0
    7.8890   -0.8860  -53.7320 C   0  0  0  0  0  0  0  0  0  0  0  0
    6.5000   -0.6160  -53.2930 C   0  0  0  0  0  0  0  0  0  0  0  0
    5.6130   -0.6890  -54.3140 F   0  0  0  0  0  0  0  0  0  0  0  0
    6.0780   -1.4880  -52.3470 F   0  0  0  0  0  0  0  0  0  0  0  0
    6.4010    0.6290  -52.7640 F   0  0  0  0  0  0  0  0  0  0  0  0
    8.8650    2.3140  -58.4130 C   0  0  0  0  0  0  0  0  0  0  0  0
    8.7510    3.3160  -59.5630 C   0  0  0  0  0  0  0  0  0  0  0  0
   10.0190    4.0720  -59.9420 C   0  0  0  0  0  0  0  0  0  0  0  0
   10.4340    5.1620  -58.9470 C   0  0  0  0  0  0  0  0  0  0  0  0
    9.5990    5.2540  -57.6620 C   0  0  0  0  0  0  0  0  0  0  0  0
    9.7270    4.0680  -56.7060 C   0  0  0  0  0  0  0  0  0  0  0  0
    7.0524    3.4653  -55.7426 H   0  0  0  0  0  0  0  0  0  0  0  0
    7.1908    4.3672  -57.2898 H   0  0  0  0  0  0  0  0  0  0  0  0
    6.6095    2.6676  -57.2898 H   0  0  0  0  0  0  0  0  0  0  0  0
    9.9610    1.5720  -55.8140 H   0  0  0  0  0  0  0  0  0  0  0  0
   11.9762   -1.8895  -53.7553 H   0  0  0  0  0  0  0  0  0  0  0  0
   10.9927   -3.3293  -53.2540 H   0  0  0  0  0  0  0  0  0  0  0  0
   11.7015   -1.3189  -56.3872 H   0  0  0  0  0  0  0  0  0  0  0  0
   12.1292   -2.3985  -58.5892 H   0  0  0  0  0  0  0  0  0  0  0  0
   12.0580   -4.8844  -58.7994 H   0  0  0  0  0  0  0  0  0  0  0  0
   11.1433   -5.2167  -54.5871 H   0  0  0  0  0  0  0  0  0  0  0  0
    9.8435    1.8189  -58.4990 H   0  0  0  0  0  0  0  0  0  0  0  0
    7.9983    1.6463  -58.5267 H   0  0  0  0  0  0  0  0  0  0  0  0
    8.4134    2.7646  -60.4529 H   0  0  0  0  0  0  0  0  0  0  0  0
    8.0515    4.0864  -59.2062 H   0  0  0  0  0  0  0  0  0  0  0  0
   10.8416    3.3457  -60.0180 H   0  0  0  0  0  0  0  0  0  0  0  0
    9.8050    4.5828  -60.8924 H   0  0  0  0  0  0  0  0  0  0  0  0
   11.4781    4.9730  -58.6570 H   0  0  0  0  0  0  0  0  0  0  0  0
   10.2779    6.1165  -59.4709 H   0  0  0  0  0  0  0  0  0  0  0  0
    9.9090    6.1601  -57.1209 H   0  0  0  0  0  0  0  0  0  0  0  0
    8.5479    5.2679  -57.9860 H   0  0  0  0  0  0  0  0  0  0  0  0
   10.7550    3.6834  -56.7790 H   0  0  0  0  0  0  0  0  0  0  0  0
    9.4677    4.4544  -55.7093 H   0  0  0  0  0  0  0  0  0  0  0  0
  1  2  1  0
  2  3  1  0
  3  4  1  0
  4  5  2  0
  4  6  1  0
  6  7  2  0
  7  8  1  0
  8  9  1  0
  9 10  1  0
 10 11  2  0
 11 12  1  0
 12 13  2  0
 13 14  1  0
 14 15  1  0
 14 16  2  0
  8 17  1  0
 17 18  1  0
 18 19  1  0
 18 20  1  0
 18 21  1  0
 17 22  2  0
 22 23  1  0
 23 24  1  0
 23 25  1  0
 23 26  1  0
  2 27  1  0
 27 28  1  0
 28 29  1  0
 29 30  1  0
 30 31  1  0
 31 32  1  0
 32  2  1  0
 22  6  1  0
 16 10  1  0
  1 33  1  0
  1 34  1  0
  1 35  1  0
  3 36  1  0
  9 37  1  0
  9 38  1  0
 11 39  1  0
 12 40  1  0
 13 41  1  0
 16 42  1  0
 27 43  1  0
 27 44  1  0
 28 45  1  0
 28 46  1  0
 29 47  1  0
 29 48  1  0
 30 49  1  0
 30 50  1  0
 31 51  1  0
 31 52  1  0
 32 53  1  0
 32 54  1  0
M  END
>  <meeko>  (34) 
{"is_sidechain": false}

$$$$

     RDKit          3D

 41 44  0  0  0  0  0  0  0  0999 V2000
    3.0580    0.7820  -62.7800 C   0  0  0  0  0  0  0  0  0  0  0  0
    2.7540    1.5250  -61.1630 S   0  0  0  0  0  0  0  0  0  0  0  0
    4.3730    1.8900  -60.6350 C   0  0  0  0  0  0  0  0  0  0  0  0
    5.4510    2.1470  -61.4960 C   0  0  0  0  0  0  0  0  0  0  0  0
    6.5400    2.3920  -60.6720 C   0  0  0  0  0  0  0  0  0  0  0  0
    7.9060    2.7080  -61.0860 C   0  0  0  0  0  0  0  0  0  0  0  0
    8.2270    2.5430  -62.2660 O   0  0  0  0  0  0  0  0  0  0  0  0
    8.9550    3.2280  -60.0470 C   0  0  1  0  0  0  0  0  0  0  0  0
    8.6260    4.7080  -59.7230 C   0  0  0  0  0  0  0  0  0  0  0  0
    9.8330    5.4630  -59.1790 C   0  0  0  0  0  0  0  0  0  0  0  0
   11.0230    5.2630  -59.7890 C   0  0  0  0  0  0  0  0  0  0  0  0
   12.1540    6.2530  -59.6950 C   0  0  0  0  0  0  0  0  0  0  0  0
   11.4290    3.7980  -59.7760 C   0  0  1  0  0  0  0  0  0  0  0  0
   11.5280    3.3390  -58.2940 C   0  0  0  0  0  0  0  0  0  0  0  0
   10.3300    3.7880  -57.4130 C   0  0  2  0  0  0  0  0  0  0  0  0
    9.1010    2.8740  -57.5890 C   0  0  0  0  0  0  0  0  0  0  0  0
    8.8480    2.3710  -58.8910 O   0  0  0  0  0  0  0  0  0  0  0  0
    9.9500    5.2680  -57.6760 C   0  0  0  0  0  0  0  0  0  0  0  0
   10.3910    2.9960  -60.5680 C   0  0  0  0  0  0  0  0  0  0  0  0
    6.0390    2.2530  -59.4040 N   0  0  0  0  0  0  0  0  0  0  0  0
    4.7310    1.9570  -59.3540 N   0  0  0  0  0  0  0  0  0  0  0  0
    3.4715   -0.2286  -62.6472 H   0  0  0  0  0  0  0  0  0  0  0  0
    2.1126    0.7208  -63.3390 H   0  0  0  0  0  0  0  0  0  0  0  0
    3.7751    1.4011  -63.3390 H   0  0  0  0  0  0  0  0  0  0  0  0
    5.4357    2.1530  -62.5959 H   0  0  0  0  0  0  0  0  0  0  0  0
    8.2838    5.2040  -60.6433 H   0  0  0  0  0  0  0  0  0  0  0  0
    7.8457    4.7174  -58.9477 H   0  0  0  0  0  0  0  0  0  0  0  0
   12.3807    6.4514  -58.6370 H   0  0  0  0  0  0  0  0  0  0  0  0
   13.0453    5.8395  -60.1896 H   0  0  0  0  0  0  0  0  0  0  0  0
   11.8622    7.1912  -60.1896 H   0  0  0  0  0  0  0  0  0  0  0  0
   12.4078    3.6369  -60.2515 H   0  0  0  0  0  0  0  0  0  0  0  0
   11.5791    2.2404  -58.2747 H   0  0  0  0  0  0  0  0  0  0  0  0
   12.4277    3.8120  -57.8734 H   0  0  0  0  0  0  0  0  0  0  0  0
   10.6627    3.6988  -56.3683 H   0  0  0  0  0  0  0  0  0  0  0  0
    9.2325    2.0104  -56.9204 H   0  0  0  0  0  0  0  0  0  0  0  0
    8.2365    3.5143  -57.3596 H   0  0  0  0  0  0  0  0  0  0  0  0
    8.9884    5.4979  -57.1938 H   0  0  0  0  0  0  0  0  0  0  0  0
   10.7173    5.9389  -57.2622 H   0  0  0  0  0  0  0  0  0  0  0  0
   10.4385    3.3001  -61.6241 H   0  0  0  0  0  0  0  0  0  0  0  0
   10.6258    1.9280  -60.4488 H   0  0  0  0  0  0  0  0  0  0  0  0
    6.5240    2.3400  -58.5160 H   0  0  0  0  0  0  0  0  0  0  0  0
  1  2  1  0
  2  3  1  0
  3  4  1  0
  4  5  2  0
  5  6  1  0
  6  7  2  0
  8  6  1  6
  8  9  1  0
  9 10  1  0
 10 11  2  0
 11 12  1  0
 11 13  1  0
 13 14  1  0
 14 15  1  0
 15 16  1  0
 16 17  1  0
 15 18  1  0
 13 19  1  0
  5 20  1  0
 20 21  1  0
 21  3  2  0
 17  8  1  0
 19  8  1  0
 18 10  1  0
  1 22  1  0
  1 23  1  0
  1 24  1  0
  4 25  1  0
  9 26  1  0
  9 27  1  0
 12 28  1  0
 12 29  1  0
 12 30  1  0
 13 31  1  6
 14 32  1  0
 14 33  1  0
 15 34  1  1
 16 35  1  0
 16 36  1  0
 18 37  1  0
 18 38  1  0
 19 39  1  0
 19 40  1  0
 20 41  1  0
M  END
>  <meeko>  (35) 
{"is_sidechain": false}

$$$$

     RDKit          3D

 41 44  0  0  0  0  0  0  0  0999 V2000
    3.0900    0.8070  -62.3540 C   0  0  0  0  0  0  0  0  0  0  0  0
    2.9070    1.9210  -60.9460 S   0  0  0  0  0  0  0  0  0  0  0  0
    4.5310    1.9560  -60.3150 C   0  0  0  0  0  0  0  0  0  0  0  0
    5.6900    2.0000  -61.1090 C   0  0  0  0  0  0  0  0  0  0  0  0
    6.7450    2.0290  -60.2140 C   0  0  0  0  0  0  0  0  0  0  0  0
    8.1730    2.0850  -60.4780 C   0  0  0  0  0  0  0  0  0  0  0  0
    8.6720    1.3670  -61.3470 O   0  0  0  0  0  0  0  0  0  0  0  0
    9.0440    3.1210  -59.6870 C   0  0  2  0  0  0  0  0  0  0  0  0
    9.9490    2.3470  -58.6860 C   0  0  0  0  0  0  0  0  0  0  0  0
   11.1940    3.1350  -58.2810 C   0  0  0  0  0  0  0  0  0  0  0  0
   11.8960    3.7320  -59.2700 C   0  0  0  0  0  0  0  0  0  0  0  0
   13.3400    4.1260  -59.1230 C   0  0  0  0  0  0  0  0  0  0  0  0
   11.0290    4.6830  -60.0750 C   0  0  2  0  0  0  0  0  0  0  0  0
   10.5040    5.7750  -59.0970 C   0  0  0  0  0  0  0  0  0  0  0  0
    9.9740    5.2200  -57.7420 C   0  0  1  0  0  0  0  0  0  0  0  0
    8.5290    4.6960  -57.8470 C   0  0  0  0  0  0  0  0  0  0  0  0
    8.1630    4.0790  -59.0730 O   0  0  0  0  0  0  0  0  0  0  0  0
   10.8940    4.1140  -57.1630 C   0  0  0  0  0  0  0  0  0  0  0  0
    9.8910    3.8850  -60.7270 C   0  0  0  0  0  0  0  0  0  0  0  0
    6.1530    1.9760  -58.9810 N   0  0  0  0  0  0  0  0  0  0  0  0
    4.8110    1.9500  -59.0120 N   0  0  0  0  0  0  0  0  0  0  0  0
    3.2583   -0.2178  -61.9913 H   0  0  0  0  0  0  0  0  0  0  0  0
    2.1753    0.8343  -62.9644 H   0  0  0  0  0  0  0  0  0  0  0  0
    3.9479    1.1255  -62.9644 H   0  0  0  0  0  0  0  0  0  0  0  0
    5.7464    2.0094  -62.2075 H   0  0  0  0  0  0  0  0  0  0  0  0
    9.3634    2.1260  -57.7814 H   0  0  0  0  0  0  0  0  0  0  0  0
   10.2875    1.4286  -59.1879 H   0  0  0  0  0  0  0  0  0  0  0  0
   13.5942    4.1954  -58.0550 H   0  0  0  0  0  0  0  0  0  0  0  0
   13.9774    3.3689  -59.6032 H   0  0  0  0  0  0  0  0  0  0  0  0
   13.5045    5.1019  -59.6032 H   0  0  0  0  0  0  0  0  0  0  0  0
   11.5887    5.1741  -60.8847 H   0  0  0  0  0  0  0  0  0  0  0  0
   11.3277    6.4725  -58.8851 H   0  0  0  0  0  0  0  0  0  0  0  0
    9.6509    6.2596  -59.5943 H   0  0  0  0  0  0  0  0  0  0  0  0
    9.9793    6.0745  -57.0493 H   0  0  0  0  0  0  0  0  0  0  0  0
    8.3829    3.9573  -57.0451 H   0  0  0  0  0  0  0  0  0  0  0  0
    7.8908    5.5887  -57.7701 H   0  0  0  0  0  0  0  0  0  0  0  0
   11.8294    4.5596  -56.7937 H   0  0  0  0  0  0  0  0  0  0  0  0
   10.4011    3.6021  -56.3234 H   0  0  0  0  0  0  0  0  0  0  0  0
    9.2377    4.5814  -61.2732 H   0  0  0  0  0  0  0  0  0  0  0  0
   10.3425    3.1449  -61.4041 H   0  0  0  0  0  0  0  0  0  0  0  0
    6.6290    1.9380  -58.0810 H   0  0  0  0  0  0  0  0  0  0  0  0
  1  2  1  0
  2  3  1  0
  3  4  1  0
  4  5  2  0
  5  6  1  0
  6  7  2  0
  8  6  1  6
  8  9  1  0
  9 10  1  0
 10 11  2  0
 11 12  1  0
 11 13  1  0
 13 14  1  0
 14 15  1  0
 15 16  1  0
 16 17  1  0
 15 18  1  0
 13 19  1  0
  5 20  1  0
 20 21  1  0
 21  3  2  0
 17  8  1  0
 19  8  1  0
 18 10  1  0
  1 22  1  0
  1 23  1  0
  1 24  1  0
  4 25  1  0
  9 26  1  0
  9 27  1  0
 12 28  1  0
 12 29  1  0
 12 30  1  0
 13 31  1  6
 14 32  1  0
 14 33  1  0
 15 34  1  1
 16 35  1  0
 16 36  1  0
 18 37  1  0
 18 38  1  0
 19 39  1  0
 19 40  1  0
 20 41  1  0
M  END
>  <meeko>  (36) 
{"is_sidechain": false}

$$$$

     RDKit          3D

 41 44  0  0  0  0  0  0  0  0999 V2000
    2.5320    2.3860  -62.9360 C   0  0  0  0  0  0  0  0  0  0  0  0
    3.5830    0.9720  -62.5440 S   0  0  0  0  0  0  0  0  0  0  0  0
    4.2790    1.4360  -61.0340 C   0  0  0  0  0  0  0  0  0  0  0  0
    5.4620    1.1790  -60.3940 C   0  0  0  0  0  0  0  0  0  0  0  0
    5.3880    1.8900  -59.1590 C   0  0  0  0  0  0  0  0  0  0  0  0
    6.4390    1.9070  -58.1190 C   0  0  0  0  0  0  0  0  0  0  0  0
    6.3100    1.1480  -57.1510 O   0  0  0  0  0  0  0  0  0  0  0  0
    7.6610    2.8720  -58.2300 C   0  0  1  0  0  0  0  0  0  0  0  0
    8.6590    2.3050  -59.2710 C   0  0  0  0  0  0  0  0  0  0  0  0
   10.0600    2.8980  -59.1290 C   0  0  0  0  0  0  0  0  0  0  0  0
   10.5660    3.0040  -57.8790 C   0  0  0  0  0  0  0  0  0  0  0  0
   12.0400    3.1040  -57.6030 C   0  0  0  0  0  0  0  0  0  0  0  0
    9.6650    3.8290  -56.9740 C   0  0  1  0  0  0  0  0  0  0  0  0
    9.5540    5.2500  -57.5940 C   0  0  0  0  0  0  0  0  0  0  0  0
    9.2930    5.2560  -59.1280 C   0  0  2  0  0  0  0  0  0  0  0  0
    7.8070    5.0280  -59.4670 C   0  0  0  0  0  0  0  0  0  0  0  0
    7.0940    4.1500  -58.6140 O   0  0  0  0  0  0  0  0  0  0  0  0
   10.1730    4.2170  -59.8710 C   0  0  0  0  0  0  0  0  0  0  0  0
    8.3040    3.1280  -56.8510 C   0  0  0  0  0  0  0  0  0  0  0  0
    4.2140    2.5390  -59.0570 N   0  0  0  0  0  0  0  0  0  0  0  0
    3.5710    2.2470  -60.2030 N   0  0  0  0  0  0  0  0  0  0  0  0
    2.1841    2.8540  -62.0033 H   0  0  0  0  0  0  0  0  0  0  0  0
    3.1065    3.1187  -63.5218 H   0  0  0  0  0  0  0  0  0  0  0  0
    1.6648    2.0471  -63.5218 H   0  0  0  0  0  0  0  0  0  0  0  0
    6.2935    0.5562  -60.7555 H   0  0  0  0  0  0  0  0  0  0  0  0
    8.7234    1.2148  -59.1393 H   0  0  0  0  0  0  0  0  0  0  0  0
    8.2847    2.5728  -60.2701 H   0  0  0  0  0  0  0  0  0  0  0  0
   12.2096    3.1155  -56.5162 H   0  0  0  0  0  0  0  0  0  0  0  0
   12.5554    2.2388  -58.0454 H   0  0  0  0  0  0  0  0  0  0  0  0
   12.4338    4.0309  -58.0454 H   0  0  0  0  0  0  0  0  0  0  0  0
   10.0714    3.9235  -55.9562 H   0  0  0  0  0  0  0  0  0  0  0  0
    8.7248    5.7782  -57.1006 H   0  0  0  0  0  0  0  0  0  0  0  0
   10.5253    5.7415  -57.4359 H   0  0  0  0  0  0  0  0  0  0  0  0
    9.5731    6.2603  -59.4786 H   0  0  0  0  0  0  0  0  0  0  0  0
    7.3033    6.0054  -59.4378 H   0  0  0  0  0  0  0  0  0  0  0  0
    7.8035    4.5431  -60.4544 H   0  0  0  0  0  0  0  0  0  0  0  0
    9.8172    4.0964  -60.9049 H   0  0  0  0  0  0  0  0  0  0  0  0
   11.2202    4.5522  -59.9014 H   0  0  0  0  0  0  0  0  0  0  0  0
    8.4455    2.1641  -56.3403 H   0  0  0  0  0  0  0  0  0  0  0  0
    7.6328    3.7855  -56.2791 H   0  0  0  0  0  0  0  0  0  0  0  0
    2.6460    2.6330  -60.3600 H   0  0  0  0  0  0  0  0  0  0  0  0
  1  2  1  0
  2  3  1  0
  3  4  2  0
  4  5  1  0
  5  6  1  0
  6  7  2  0
  8  6  1  1
  8  9  1  0
  9 10  1  0
 10 11  2  0
 11 12  1  0
 11 13  1  0
 13 14  1  0
 14 15  1  0
 15 16  1  0
 16 17  1  0
 15 18  1  0
 13 19  1  0
  5 20  2  0
 20 21  1  0
 21  3  1  0
 17  8  1  0
 19  8  1  0
 18 10  1  0
  1 22  1  0
  1 23  1  0
  1 24  1  0
  4 25  1  0
  9 26  1  0
  9 27  1  0
 12 28  1  0
 12 29  1  0
 12 30  1  0
 13 31  1  1
 14 32  1  0
 14 33  1  0
 15 34  1  6
 16 35  1  0
 16 36  1  0
 18 37  1  0
 18 38  1  0
 19 39  1  0
 19 40  1  0
 21 41  1  0
M  END
>  <meeko>  (37) 
{"is_sidechain": false}

$$$$

     RDKit          3D

 41 44  0  0  0  0  0  0  0  0999 V2000
    2.5600    2.3750  -62.9880 C   0  0  0  0  0  0  0  0  0  0  0  0
    3.3050    0.8620  -62.3400 S   0  0  0  0  0  0  0  0  0  0  0  0
    4.0700    1.4130  -60.8960 C   0  0  0  0  0  0  0  0  0  0  0  0
    5.2790    1.1810  -60.2920 C   0  0  0  0  0  0  0  0  0  0  0  0
    5.2700    1.9630  -59.1000 C   0  0  0  0  0  0  0  0  0  0  0  0
    6.3160    2.1050  -58.0560 C   0  0  0  0  0  0  0  0  0  0  0  0
    6.1860    1.5470  -56.9620 O   0  0  0  0  0  0  0  0  0  0  0  0
    7.5560    3.0090  -58.3420 C   0  0  2  0  0  0  0  0  0  0  0  0
    8.1640    3.4060  -56.9720 C   0  0  0  0  0  0  0  0  0  0  0  0
    9.6310    3.8150  -57.0670 C   0  0  0  0  0  0  0  0  0  0  0  0
   10.4520    3.0110  -57.7800 C   0  0  0  0  0  0  0  0  0  0  0  0
   11.9420    2.9870  -57.5840 C   0  0  0  0  0  0  0  0  0  0  0  0
    9.9670    2.8420  -59.2100 C   0  0  2  0  0  0  0  0  0  0  0  0
    9.9600    4.2440  -59.8740 C   0  0  0  0  0  0  0  0  0  0  0  0
    9.3240    5.3540  -58.9950 C   0  0  1  0  0  0  0  0  0  0  0  0
    7.7870    5.3600  -59.0840 C   0  0  0  0  0  0  0  0  0  0  0  0
    7.1230    4.1070  -59.1570 O   0  0  0  0  0  0  0  0  0  0  0  0
    9.7740    5.2590  -57.5110 C   0  0  0  0  0  0  0  0  0  0  0  0
    8.5750    2.2010  -59.1850 C   0  0  0  0  0  0  0  0  0  0  0  0
    4.1080    2.6420  -59.0010 N   0  0  0  0  0  0  0  0  0  0  0  0
    3.4100    2.2850  -60.0890 N   0  0  0  0  0  0  0  0  0  0  0  0
    2.2445    3.0158  -62.1514 H   0  0  0  0  0  0  0  0  0  0  0  0
    3.2967    2.9120  -63.6036 H   0  0  0  0  0  0  0  0  0  0  0  0
    1.6852    2.1185  -63.6036 H   0  0  0  0  0  0  0  0  0  0  0  0
    6.0874    0.5277  -60.6522 H   0  0  0  0  0  0  0  0  0  0  0  0
    7.5899    4.2517  -56.5655 H   0  0  0  0  0  0  0  0  0  0  0  0
    8.1104    2.5220  -56.3195 H   0  0  0  0  0  0  0  0  0  0  0  0
   12.1703    2.9833  -56.5080 H   0  0  0  0  0  0  0  0  0  0  0  0
   12.3586    2.0820  -58.0503 H   0  0  0  0  0  0  0  0  0  0  0  0
   12.3876    3.8781  -58.0503 H   0  0  0  0  0  0  0  0  0  0  0  0
   10.6236    2.1818  -59.7957 H   0  0  0  0  0  0  0  0  0  0  0  0
   10.9998    4.5287  -60.0925 H   0  0  0  0  0  0  0  0  0  0  0  0
    9.3439    4.1639  -60.7817 H   0  0  0  0  0  0  0  0  0  0  0  0
    9.6927    6.3066  -59.4033 H   0  0  0  0  0  0  0  0  0  0  0  0
    7.4088    5.8802  -58.1916 H   0  0  0  0  0  0  0  0  0  0  0  0
    7.5672    5.8463  -60.0459 H   0  0  0  0  0  0  0  0  0  0  0  0
   10.8234    5.5754  -57.4185 H   0  0  0  0  0  0  0  0  0  0  0  0
    9.1540    5.9145  -56.8819 H   0  0  0  0  0  0  0  0  0  0  0  0
    8.2011    2.1326  -60.2173 H   0  0  0  0  0  0  0  0  0  0  0  0
    8.6758    1.2090  -58.7206 H   0  0  0  0  0  0  0  0  0  0  0  0
    2.4820    2.6720  -60.2230 H   0  0  0  0  0  0  0  0  0  0  0  0
  1  2  1  0
  2  3  1  0
  3  4  2  0
  4  5  1  0
  5  6  1  0
  6  7  2  0
  8  6  1  1
  8  9  1  0
  9 10  1  0
 10 11  2  0
 11 12  1  0
 11 13  1  0
 13 14  1  0
 14 15  1  0
 15 16  1  0
 16 17  1  0
 15 18  1  0
 13 19  1  0
  5 20  2  0
 20 21  1  0
 21  3  1  0
 17  8  1  0
 19  8  1  0
 18 10  1  0
  1 22  1  0
  1 23  1  0
  1 24  1  0
  4 25  1  0
  9 26  1  0
  9 27  1  0
 12 28  1  0
 12 29  1  0
 12 30  1  0
 13 31  1  6
 14 32  1  0
 14 33  1  0
 15 34  1  6
 16 35  1  0
 16 36  1  0
 18 37  1  0
 18 38  1  0
 19 39  1  0
 19 40  1  0
 21 41  1  0
M  END
>  <meeko>  (38) 
{"is_sidechain": false}

$$$$

     RDKit          3D

 63 68  0  0  0  0  0  0  0  0999 V2000
    5.9550   -0.0050  -53.8520 C   0  0  0  0  0  0  0  0  0  0  0  0
    7.3700   -0.3440  -54.1570 C   0  0  0  0  0  0  0  0  0  0  0  0
    8.2060    0.2830  -55.1290 C   0  0  0  0  0  0  0  0  0  0  0  0
    7.8610    1.3940  -56.0400 C   0  0  0  0  0  0  0  0  0  0  0  0
    6.7330    1.8670  -56.1210 O   0  0  0  0  0  0  0  0  0  0  0  0
    8.9420    1.8270  -56.7760 N   0  0  0  0  0  0  0  0  0  0  0  0
    8.9410    2.8990  -57.7660 C   0  0  2  0  0  0  0  0  0  0  0  0
    8.8880    4.2940  -57.0970 C   0  0  0  0  0  0  0  0  0  0  0  0
    8.9360    5.4060  -58.1600 C   0  0  1  0  0  0  0  0  0  0  0  0
   10.2430    5.2890  -58.9590 C   0  0  0  0  0  0  0  0  0  0  0  0
   10.3130    3.9190  -59.6520 C   0  0  2  0  0  0  0  0  0  0  0  0
    9.1140    3.7680  -60.6030 C   0  0  0  0  0  0  0  0  0  0  0  0
    7.8010    3.8760  -59.8130 C   0  0  2  0  0  0  0  0  0  0  0  0
    7.7410    5.2460  -59.1150 C   0  0  0  0  0  0  0  0  0  0  0  0
    7.7530    2.7640  -58.7500 C   0  0  0  0  0  0  0  0  0  0  0  0
   10.2550    2.8110  -58.5880 C   0  0  0  0  0  0  0  0  0  0  0  0
    9.4350   -0.2750  -55.1490 N   0  0  0  0  0  0  0  0  0  0  0  0
    9.3850   -1.2250  -54.1880 N   0  0  0  0  0  0  0  0  0  0  0  0
   10.5730   -2.0390  -53.9390 C   0  0  0  0  0  0  0  0  0  0  0  0
   10.9530   -2.8780  -55.1360 C   0  0  0  0  0  0  0  0  0  0  0  0
   10.7210   -4.2630  -55.1350 C   0  0  0  0  0  0  0  0  0  0  0  0
   11.0720   -5.0420  -56.2400 C   0  0  0  0  0  0  0  0  0  0  0  0
   11.6520   -4.4410  -57.3540 C   0  0  0  0  0  0  0  0  0  0  0  0
   12.0860   -5.4030  -58.7130 Cl  0  0  0  0  0  0  0  0  0  0  0  0
   11.8840   -3.0680  -57.3750 C   0  0  0  0  0  0  0  0  0  0  0  0
   11.5330   -2.2890  -56.2700 C   0  0  0  0  0  0  0  0  0  0  0  0
    8.1590   -1.3230  -53.5740 C   0  0  0  0  0  0  0  0  0  0  0  0
    7.8470   -2.2730  -52.5150 C   0  0  0  0  0  0  0  0  0  0  0  0
    7.9840   -1.8990  -51.1740 C   0  0  0  0  0  0  0  0  0  0  0  0
    7.6980   -2.8120  -50.1570 C   0  0  0  0  0  0  0  0  0  0  0  0
    7.2670   -4.0990  -50.4770 C   0  0  0  0  0  0  0  0  0  0  0  0
    7.1180   -4.4730  -51.8120 C   0  0  0  0  0  0  0  0  0  0  0  0
    7.4050   -3.5630  -52.8300 C   0  0  0  0  0  0  0  0  0  0  0  0
    5.8129    0.0290  -52.7617 H   0  0  0  0  0  0  0  0  0  0  0  0
    5.7118    0.9768  -54.2843 H   0  0  0  0  0  0  0  0  0  0  0  0
    5.2933   -0.7700  -54.2843 H   0  0  0  0  0  0  0  0  0  0  0  0
    9.7990    1.3110  -56.5840 H   0  0  0  0  0  0  0  0  0  0  0  0
    7.9549    4.3839  -56.5215 H   0  0  0  0  0  0  0  0  0  0  0  0
    9.7571    4.4016  -56.4313 H   0  0  0  0  0  0  0  0  0  0  0  0
    8.8896    6.3894  -57.6694 H   0  0  0  0  0  0  0  0  0  0  0  0
   10.2783    6.0839  -59.7185 H   0  0  0  0  0  0  0  0  0  0  0  0
   11.0967    5.3913  -58.2729 H   0  0  0  0  0  0  0  0  0  0  0  0
   11.2505    3.8403  -60.2220 H   0  0  0  0  0  0  0  0  0  0  0  0
    9.1488    4.5630  -61.3624 H   0  0  0  0  0  0  0  0  0  0  0  0
    9.1619    2.7836  -61.0915 H   0  0  0  0  0  0  0  0  0  0  0  0
    6.9473    3.7699  -60.4985 H   0  0  0  0  0  0  0  0  0  0  0  0
    7.7723    6.0422  -59.8733 H   0  0  0  0  0  0  0  0  0  0  0  0
    6.8072    5.3151  -58.5376 H   0  0  0  0  0  0  0  0  0  0  0  0
    6.8093    2.8398  -58.1899 H   0  0  0  0  0  0  0  0  0  0  0  0
    7.8191    1.7885  -59.2540 H   0  0  0  0  0  0  0  0  0  0  0  0
   10.3033    1.8312  -59.0857 H   0  0  0  0  0  0  0  0  0  0  0  0
   11.1065    2.9371  -57.9032 H   0  0  0  0  0  0  0  0  0  0  0  0
   11.4131   -1.3730  -53.6926 H   0  0  0  0  0  0  0  0  0  0  0  0
   10.3452   -2.7221  -53.1074 H   0  0  0  0  0  0  0  0  0  0  0  0
   10.2592   -4.7382  -54.2570 H   0  0  0  0  0  0  0  0  0  0  0  0
   10.8908   -6.1269  -56.2301 H   0  0  0  0  0  0  0  0  0  0  0  0
   12.3419   -2.5988  -58.2583 H   0  0  0  0  0  0  0  0  0  0  0  0
   11.7129   -1.2040  -56.2889 H   0  0  0  0  0  0  0  0  0  0  0  0
    8.3182   -0.8823  -50.9199 H   0  0  0  0  0  0  0  0  0  0  0  0
    7.8126   -2.5161  -49.1038 H   0  0  0  0  0  0  0  0  0  0  0  0
    7.0445   -4.8194  -49.6760 H   0  0  0  0  0  0  0  0  0  0  0  0
    6.7736   -5.4871  -52.0630 H   0  0  0  0  0  0  0  0  0  0  0  0
    7.2836   -3.8601  -53.8822 H   0  0  0  0  0  0  0  0  0  0  0  0
  1  2  1  0
  2  3  1  0
  3  4  1  0
  4  5  2  0
  4  6  1  0
  7  6  1  1
  7  8  1  0
  8  9  1  0
  9 10  1  0
 10 11  1  0
 11 12  1  0
 12 13  1  0
 13 14  1  0
 13 15  1  0
 11 16  1  0
  3 17  2  0
 17 18  1  0
 18 19  1  0
 19 20  1  0
 20 21  1  0
 21 22  2  0
 22 23  1  0
 23 24  1  0
 23 25  2  0
 25 26  1  0
 18 27  1  0
 27 28  1  0
 28 29  2  0
 29 30  1  0
 30 31  2  0
 31 32  1  0
 32 33  2  0
 27  2  2  0
 33 28  1  0
 15  7  1  0
 26 20  2  0
 16  7  1  0
 14  9  1  0
  1 34  1  0
  1 35  1  0
  1 36  1  0
  6 37  1  0
  8 38  1  0
  8 39  1  0
  9 40  1  1
 10 41  1  0
 10 42  1  0
 11 43  1  6
 12 44  1  0
 12 45  1  0
 13 46  1  6
 14 47  1  0
 14 48  1  0
 15 49  1  0
 15 50  1  0
 16 51  1  0
 16 52  1  0
 19 53  1  0
 19 54  1  0
 21 55  1  0
 22 56  1  0
 25 57  1  0
 26 58  1  0
 29 59  1  0
 30 60  1  0
 31 61  1  0
 32 62  1  0
 33 63  1  0
M  END
>  <meeko>  (39) 
{"is_sidechain": false}

$$$$

     RDKit          3D

 63 68  0  0  0  0  0  0  0  0999 V2000
    6.0490    0.0260  -53.7200 C   0  0  0  0  0  0  0  0  0  0  0  0
    7.4340   -0.3600  -54.0960 C   0  0  0  0  0  0  0  0  0  0  0  0
    8.2430    0.2480  -55.1020 C   0  0  0  0  0  0  0  0  0  0  0  0
    7.8930    1.3700  -55.9950 C   0  0  0  0  0  0  0  0  0  0  0  0
    6.7530    1.8070  -56.1070 O   0  0  0  0  0  0  0  0  0  0  0  0
    8.9850    1.8510  -56.6870 N   0  0  0  0  0  0  0  0  0  0  0  0
    8.9740    2.9030  -57.6970 C   0  0  2  0  0  0  0  0  0  0  0  0
    7.8060    2.7170  -58.6980 C   0  0  0  0  0  0  0  0  0  0  0  0
    7.8450    3.8090  -59.7820 C   0  0  1  0  0  0  0  0  0  0  0  0
    7.7370    5.1900  -59.1140 C   0  0  0  0  0  0  0  0  0  0  0  0
    8.9110    5.4020  -58.1420 C   0  0  2  0  0  0  0  0  0  0  0  0
   10.2340    5.3030  -58.9170 C   0  0  0  0  0  0  0  0  0  0  0  0
   10.3520    3.9210  -59.5800 C   0  0  2  0  0  0  0  0  0  0  0  0
    9.1760    3.7190  -60.5470 C   0  0  0  0  0  0  0  0  0  0  0  0
   10.3040    2.8350  -58.4930 C   0  0  0  0  0  0  0  0  0  0  0  0
    8.8730    4.3100  -57.0580 C   0  0  0  0  0  0  0  0  0  0  0  0
    9.4550   -0.3370  -55.1700 N   0  0  0  0  0  0  0  0  0  0  0  0
    9.4020   -1.3340  -54.2610 N   0  0  0  0  0  0  0  0  0  0  0  0
   10.5750   -2.1890  -54.0900 C   0  0  0  0  0  0  0  0  0  0  0  0
   10.9050   -2.9630  -55.3380 C   0  0  0  0  0  0  0  0  0  0  0  0
   10.5080   -4.3000  -55.4890 C   0  0  0  0  0  0  0  0  0  0  0  0
   10.8080   -5.0010  -56.6600 C   0  0  0  0  0  0  0  0  0  0  0  0
   11.5120   -4.3770  -57.6910 C   0  0  0  0  0  0  0  0  0  0  0  0
   11.9190   -3.0530  -57.5470 C   0  0  0  0  0  0  0  0  0  0  0  0
   11.6160   -2.3600  -56.3790 C   0  0  0  0  0  0  0  0  0  0  0  0
   12.0380   -1.0940  -56.2570 F   0  0  0  0  0  0  0  0  0  0  0  0
    8.2200   -1.3690  -53.5570 C   0  0  0  0  0  0  0  0  0  0  0  0
    7.9130   -2.3240  -52.5000 C   0  0  0  0  0  0  0  0  0  0  0  0
    8.1580   -2.0030  -51.1600 C   0  0  0  0  0  0  0  0  0  0  0  0
    7.8660   -2.9230  -50.1520 C   0  0  0  0  0  0  0  0  0  0  0  0
    7.3220   -4.1650  -50.4770 C   0  0  0  0  0  0  0  0  0  0  0  0
    7.0650   -4.4870  -51.8090 C   0  0  0  0  0  0  0  0  0  0  0  0
    7.3560   -3.5680  -52.8180 C   0  0  0  0  0  0  0  0  0  0  0  0
    5.9600    0.0508  -52.6239 H   0  0  0  0  0  0  0  0  0  0  0  0
    5.8220    1.0216  -54.1289 H   0  0  0  0  0  0  0  0  0  0  0  0
    5.3398   -0.7087  -54.1289 H   0  0  0  0  0  0  0  0  0  0  0  0
    9.8390    1.3280  -56.5050 H   0  0  0  0  0  0  0  0  0  0  0  0
    7.8924    1.7298  -59.1755 H   0  0  0  0  0  0  0  0  0  0  0  0
    6.8542    2.7923  -58.1517 H   0  0  0  0  0  0  0  0  0  0  0  0
    7.0067    3.6675  -60.4801 H   0  0  0  0  0  0  0  0  0  0  0  0
    7.7603    5.9712  -59.8881 H   0  0  0  0  0  0  0  0  0  0  0  0
    6.7920    5.2454  -58.5538 H   0  0  0  0  0  0  0  0  0  0  0  0
    8.8311    6.3935  -57.6724 H   0  0  0  0  0  0  0  0  0  0  0  0
   10.2613    6.0827  -59.6924 H   0  0  0  0  0  0  0  0  0  0  0  0
   11.0729    5.4418  -58.2191 H   0  0  0  0  0  0  0  0  0  0  0  0
   11.3009    3.8548  -60.1325 H   0  0  0  0  0  0  0  0  0  0  0  0
    9.2039    4.4986  -61.3225 H   0  0  0  0  0  0  0  0  0  0  0  0
    9.2582    2.7261  -61.0133 H   0  0  0  0  0  0  0  0  0  0  0  0
   10.3886    1.8465  -58.9682 H   0  0  0  0  0  0  0  0  0  0  0  0
   11.1385    3.0002  -57.7956 H   0  0  0  0  0  0  0  0  0  0  0  0
    9.7179    4.4554  -56.3688 H   0  0  0  0  0  0  0  0  0  0  0  0
    7.9202    4.3843  -56.5134 H   0  0  0  0  0  0  0  0  0  0  0  0
   11.4369   -1.5584  -53.8267 H   0  0  0  0  0  0  0  0  0  0  0  0
   10.3495   -2.9142  -53.2942 H   0  0  0  0  0  0  0  0  0  0  0  0
    9.9564   -4.8003  -54.6795 H   0  0  0  0  0  0  0  0  0  0  0  0
   10.4883   -6.0478  -56.7696 H   0  0  0  0  0  0  0  0  0  0  0  0
   11.7445   -4.9289  -58.6137 H   0  0  0  0  0  0  0  0  0  0  0  0
   12.4781   -2.5567  -58.3539 H   0  0  0  0  0  0  0  0  0  0  0  0
    8.5823   -1.0219  -50.9003 H   0  0  0  0  0  0  0  0  0  0  0  0
    8.0651   -2.6682  -49.1006 H   0  0  0  0  0  0  0  0  0  0  0  0
    7.0955   -4.8910  -49.6823 H   0  0  0  0  0  0  0  0  0  0  0  0
    6.6328   -5.4657  -52.0646 H   0  0  0  0  0  0  0  0  0  0  0  0
    7.1468   -3.8223  -53.8675 H   0  0  0  0  0  0  0  0  0  0  0  0
  1  2  1  0
  2  3  1  0
  3  4  1  0
  4  5  2  0
  4  6  1  0
  7  6  1  1
  7  8  1  0
  8  9  1  0
  9 10  1  0
 10 11  1  0
 11 12  1  0
 12 13  1  0
 13 14  1  0
 13 15  1  0
 11 16  1  0
  3 17  2  0
 17 18  1  0
 18 19  1  0
 19 20  1  0
 20 21  2  0
 21 22  1  0
 22 23  2  0
 23 24  1  0
 24 25  2  0
 25 26  1  0
 18 27  1  0
 27 28  1  0
 28 29  2  0
 29 30  1  0
 30 31  2  0
 31 32  1  0
 32 33  2  0
 27  2  2  0
 33 28  1  0
 15  7  1  0
 25 20  1  0
 16  7  1  0
 14  9  1  0
  1 34  1  0
  1 35  1  0
  1 36  1  0
  6 37  1  0
  8 38  1  0
  8 39  1  0
  9 40  1  6
 10 41  1  0
 10 42  1  0
 11 43  1  1
 12 44  1  0
 12 45  1  0
 13 46  1  6
 14 47  1  0
 14 48  1  0
 15 49  1  0
 15 50  1  0
 16 51  1  0
 16 52  1  0
 19 53  1  0
 19 54  1  0
 21 55  1  0
 22 56  1  0
 23 57  1  0
 24 58  1  0
 29 59  1  0
 30 60  1  0
 31 61  1  0
 32 62  1  0
 33 63  1  0
M  END
>  <meeko>  (40) 
{"is_sidechain": false}

$$$$

     RDKit          3D

 56 60  0  0  0  0  0  0  0  0999 V2000
   10.9260   -3.4920  -54.6140 C   0  0  0  0  0  0  0  0  0  0  0  0
   10.7950   -2.2780  -53.7110 C   0  0  0  0  0  0  0  0  0  0  0  0
    9.6140   -1.4900  -54.0190 N   0  0  0  0  0  0  0  0  0  0  0  0
    9.7120   -0.5280  -54.9520 N   0  0  0  0  0  0  0  0  0  0  0  0
    8.4890    0.0270  -55.0050 C   0  0  0  0  0  0  0  0  0  0  0  0
    8.2000    1.1360  -55.9370 C   0  0  0  0  0  0  0  0  0  0  0  0
    7.0770    1.6030  -56.0930 O   0  0  0  0  0  0  0  0  0  0  0  0
    9.3230    1.6140  -56.5940 N   0  0  0  0  0  0  0  0  0  0  0  0
    9.3360    2.7760  -57.4850 C   0  0  2  0  0  0  0  0  0  0  0  0
    9.0940    4.0940  -56.7110 C   0  0  0  0  0  0  0  0  0  0  0  0
    9.1720    5.3020  -57.6610 C   0  0  1  0  0  0  0  0  0  0  0  0
   10.5670    5.3540  -58.3040 C   0  0  0  0  0  0  0  0  0  0  0  0
   10.8270    4.0660  -59.1000 C   0  0  2  0  0  0  0  0  0  0  0  0
    9.7610    3.9220  -60.1990 C   0  0  0  0  0  0  0  0  0  0  0  0
    8.3620    3.8600  -59.5660 C   0  0  2  0  0  0  0  0  0  0  0  0
    8.1100    5.1490  -58.7640 C   0  0  0  0  0  0  0  0  0  0  0  0
    8.2850    2.6510  -58.6180 C   0  0  0  0  0  0  0  0  0  0  0  0
   10.7370    2.8600  -58.1520 C   0  0  0  0  0  0  0  0  0  0  0  0
    7.6000   -0.6120  -54.0800 C   0  0  0  0  0  0  0  0  0  0  0  0
    6.1790   -0.2740  -53.8030 C   0  0  0  0  0  0  0  0  0  0  0  0
    8.3590   -1.6020  -53.4730 C   0  0  0  0  0  0  0  0  0  0  0  0
    7.9910   -2.5690  -52.4480 C   0  0  0  0  0  0  0  0  0  0  0  0
    8.1720   -2.2640  -51.0940 C   0  0  0  0  0  0  0  0  0  0  0  0
    7.8200   -3.1910  -50.1120 C   0  0  0  0  0  0  0  0  0  0  0  0
    7.2830   -4.4250  -50.4780 C   0  0  0  0  0  0  0  0  0  0  0  0
    7.0940   -4.7320  -51.8250 C   0  0  0  0  0  0  0  0  0  0  0  0
    7.4460   -3.8050  -52.8090 C   0  0  0  0  0  0  0  0  0  0  0  0
   11.0238   -4.3982  -53.9982 H   0  0  0  0  0  0  0  0  0  0  0  0
   10.0316   -3.5749  -55.2489 H   0  0  0  0  0  0  0  0  0  0  0  0
   11.8175   -3.3822  -55.2489 H   0  0  0  0  0  0  0  0  0  0  0  0
   10.7314   -2.6183  -52.6669 H   0  0  0  0  0  0  0  0  0  0  0  0
   11.6773   -1.6410  -53.8714 H   0  0  0  0  0  0  0  0  0  0  0  0
   10.2080    1.3320  -56.1930 H   0  0  0  0  0  0  0  0  0  0  0  0
    8.0972    4.0629  -56.2468 H   0  0  0  0  0  0  0  0  0  0  0  0
    9.8702    4.1994  -55.9387 H   0  0  0  0  0  0  0  0  0  0  0  0
    8.9903    6.2287  -57.0969 H   0  0  0  0  0  0  0  0  0  0  0  0
   10.6238    6.2187  -58.9816 H   0  0  0  0  0  0  0  0  0  0  0  0
   11.3257    5.4492  -57.5133 H   0  0  0  0  0  0  0  0  0  0  0  0
   11.8269    4.1095  -59.5564 H   0  0  0  0  0  0  0  0  0  0  0  0
    9.8167    4.7867  -60.8766 H   0  0  0  0  0  0  0  0  0  0  0  0
    9.9448    2.9954  -60.7626 H   0  0  0  0  0  0  0  0  0  0  0  0
    7.6034    3.7598  -60.3562 H   0  0  0  0  0  0  0  0  0  0  0  0
    8.1613    6.0145  -59.4409 H   0  0  0  0  0  0  0  0  0  0  0  0
    7.1142    5.0952  -58.2998 H   0  0  0  0  0  0  0  0  0  0  0  0
    7.2796    2.6033  -58.1744 H   0  0  0  0  0  0  0  0  0  0  0  0
    8.4918    1.7365  -59.1932 H   0  0  0  0  0  0  0  0  0  0  0  0
   10.9180    1.9385  -58.7248 H   0  0  0  0  0  0  0  0  0  0  0  0
   11.4933    2.9792  -57.3622 H   0  0  0  0  0  0  0  0  0  0  0  0
    6.0165   -0.2354  -52.7158 H   0  0  0  0  0  0  0  0  0  0  0  0
    5.9424    0.7055  -54.2441 H   0  0  0  0  0  0  0  0  0  0  0  0
    5.5267   -1.0420  -54.2441 H   0  0  0  0  0  0  0  0  0  0  0  0
    8.5931   -1.2904  -50.8030 H   0  0  0  0  0  0  0  0  0  0  0  0
    7.9661   -2.9484  -49.0491 H   0  0  0  0  0  0  0  0  0  0  0  0
    7.0084   -5.1565  -49.7037 H   0  0  0  0  0  0  0  0  0  0  0  0
    6.6677   -5.7043  -52.1128 H   0  0  0  0  0  0  0  0  0  0  0  0
    7.2940   -4.0481  -53.8710 H   0  0  0  0  0  0  0  0  0  0  0  0
  1  2  1  0
  2  3  1  0
  3  4  1  0
  4  5  2  0
  5  6  1  0
  6  7  2  0
  6  8  1  0
  9  8  1  1
  9 10  1  0
 10 11  1  0
 11 12  1  0
 12 13  1  0
 13 14  1  0
 14 15  1  0
 15 16  1  0
 15 17  1  0
 13 18  1  0
  5 19  1  0
 19 20  1  0
 19 21  2  0
 21 22  1  0
 22 23  2  0
 23 24  1  0
 24 25  2  0
 25 26  1  0
 26 27  2  0
 21  3  1  0
 27 22  1  0
 17  9  1  0
 18  9  1  0
 16 11  1  0
  1 28  1  0
  1 29  1  0
  1 30  1  0
  2 31  1  0
  2 32  1  0
  8 33  1  0
 10 34  1  0
 10 35  1  0
 11 36  1  1
 12 37  1  0
 12 38  1  0
 13 39  1  6
 14 40  1  0
 14 41  1  0
 15 42  1  6
 16 43  1  0
 16 44  1  0
 17 45  1  0
 17 46  1  0
 18 47  1  0
 18 48  1  0
 20 49  1  0
 20 50  1  0
 20 51  1  0
 23 52  1  0
 24 53  1  0
 25 54  1  0
 26 55  1  0
 27 56  1  0
M  END
>  <meeko>  (41) 
{"is_sidechain": false}

$$$$

     RDKit          3D

 62 67  0  0  0  0  0  0  0  0999 V2000
    6.2710    0.3710  -53.4040 C   0  0  0  0  0  0  0  0  0  0  0  0
    7.4370   -0.2860  -54.0560 C   0  0  0  0  0  0  0  0  0  0  0  0
    8.1540    0.2050  -55.1790 C   0  0  0  0  0  0  0  0  0  0  0  0
    7.8750    1.4230  -55.9700 C   0  0  0  0  0  0  0  0  0  0  0  0
    6.7780    1.9670  -55.9890 O   0  0  0  0  0  0  0  0  0  0  0  0
    8.9720    1.8560  -56.6840 N   0  0  0  0  0  0  0  0  0  0  0  0
    9.0060    2.9870  -57.6070 C   0  0  2  0  0  0  0  0  0  0  0  0
   10.3680    2.9720  -58.3510 C   0  0  0  0  0  0  0  0  0  0  0  0
   10.4660    4.1410  -59.3450 C   0  0  1  0  0  0  0  0  0  0  0  0
    9.3280    4.0260  -60.3720 C   0  0  0  0  0  0  0  0  0  0  0  0
    7.9680    4.0660  -59.6560 C   0  0  2  0  0  0  0  0  0  0  0  0
    7.8400    5.3900  -58.8840 C   0  0  0  0  0  0  0  0  0  0  0  0
    8.9740    5.5140  -57.8530 C   0  0  2  0  0  0  0  0  0  0  0  0
   10.3280    5.4650  -58.5780 C   0  0  0  0  0  0  0  0  0  0  0  0
    8.8860    4.3400  -56.8620 C   0  0  0  0  0  0  0  0  0  0  0  0
    7.8810    2.8910  -58.6660 C   0  0  0  0  0  0  0  0  0  0  0  0
    9.2030   -0.5840  -55.4730 N   0  0  0  0  0  0  0  0  0  0  0  0
    9.1160   -1.6430  -54.6130 N   0  0  0  0  0  0  0  0  0  0  0  0
   10.0030   -2.7540  -54.7880 C   0  0  0  0  0  0  0  0  0  0  0  0
    9.7040   -3.7440  -55.7430 C   0  0  0  0  0  0  0  0  0  0  0  0
   10.5580   -4.8300  -55.9370 C   0  0  0  0  0  0  0  0  0  0  0  0
   11.7160   -4.9460  -55.1780 C   0  0  0  0  0  0  0  0  0  0  0  0
   12.0300   -3.9650  -54.2380 C   0  0  0  0  0  0  0  0  0  0  0  0
   11.2110   -2.8390  -54.0600 C   0  0  0  0  0  0  0  0  0  0  0  0
   11.5100   -1.9840  -52.9770 N   0  0  0  0  0  0  0  0  0  0  0  0
    8.0840   -1.4620  -53.6890 C   0  0  0  0  0  0  0  0  0  0  0  0
    7.8350   -2.2960  -52.5110 C   0  0  0  0  0  0  0  0  0  0  0  0
    8.7360   -2.2940  -51.4370 C   0  0  0  0  0  0  0  0  0  0  0  0
    8.4960   -3.0830  -50.3100 C   0  0  0  0  0  0  0  0  0  0  0  0
    7.3500   -3.8750  -50.2460 C   0  0  0  0  0  0  0  0  0  0  0  0
    6.4470   -3.8710  -51.3070 C   0  0  0  0  0  0  0  0  0  0  0  0
    5.0320   -4.8480  -51.2260 Cl  0  0  0  0  0  0  0  0  0  0  0  0
    6.6800   -3.0860  -52.4350 C   0  0  0  0  0  0  0  0  0  0  0  0
    6.3795    0.3098  -52.3111 H   0  0  0  0  0  0  0  0  0  0  0  0
    6.2269    1.4268  -53.7096 H   0  0  0  0  0  0  0  0  0  0  0  0
    5.3451   -0.1382  -53.7096 H   0  0  0  0  0  0  0  0  0  0  0  0
    9.7800    1.2450  -56.6080 H   0  0  0  0  0  0  0  0  0  0  0  0
   11.1809    3.0567  -57.6148 H   0  0  0  0  0  0  0  0  0  0  0  0
   10.4513    2.0285  -58.9104 H   0  0  0  0  0  0  0  0  0  0  0  0
   11.4359    4.1120  -59.8632 H   0  0  0  0  0  0  0  0  0  0  0  0
    9.3912    4.8645  -61.0812 H   0  0  0  0  0  0  0  0  0  0  0  0
    9.4239    3.0726  -60.9122 H   0  0  0  0  0  0  0  0  0  0  0  0
    7.1574    3.9884  -60.3956 H   0  0  0  0  0  0  0  0  0  0  0  0
    7.8983    6.2304  -59.5914 H   0  0  0  0  0  0  0  0  0  0  0  0
    6.8735    5.4080  -58.3591 H   0  0  0  0  0  0  0  0  0  0  0  0
    8.8800    6.4665  -57.3108 H   0  0  0  0  0  0  0  0  0  0  0  0
   10.3927    6.3045  -59.2859 H   0  0  0  0  0  0  0  0  0  0  0  0
   11.1373    5.5388  -57.8367 H   0  0  0  0  0  0  0  0  0  0  0  0
    9.7026    4.4231  -56.1298 H   0  0  0  0  0  0  0  0  0  0  0  0
    7.9121    4.3788  -56.3521 H   0  0  0  0  0  0  0  0  0  0  0  0
    6.9047    2.9162  -58.1598 H   0  0  0  0  0  0  0  0  0  0  0  0
    7.9967    1.9491  -59.2222 H   0  0  0  0  0  0  0  0  0  0  0  0
    8.7861   -3.6604  -56.3434 H   0  0  0  0  0  0  0  0  0  0  0  0
   10.3148   -5.5938  -56.6903 H   0  0  0  0  0  0  0  0  0  0  0  0
   12.3832   -5.8092  -55.3182 H   0  0  0  0  0  0  0  0  0  0  0  0
   12.9364   -4.0756  -53.6246 H   0  0  0  0  0  0  0  0  0  0  0  0
   11.7460   -2.5320  -52.1440 H   0  0  0  0  0  0  0  0  0  0  0  0
   10.7880   -1.2960  -52.7900 H   0  0  0  0  0  0  0  0  0  0  0  0
    9.6384   -1.6665  -51.4823 H   0  0  0  0  0  0  0  0  0  0  0  0
    9.2103   -3.0797  -49.4735 H   0  0  0  0  0  0  0  0  0  0  0  0
    7.1597   -4.5004  -49.3613 H   0  0  0  0  0  0  0  0  0  0  0  0
    5.9579   -3.0866  -53.2648 H   0  0  0  0  0  0  0  0  0  0  0  0
  1  2  1  0
  2  3  1  0
  3  4  1  0
  4  5  2  0
  4  6  1  0
  7  6  1  1
  7  8  1  0
  8  9  1  0
  9 10  1  0
 10 11  1  0
 11 12  1  0
 12 13  1  0
 13 14  1  0
 13 15  1  0
 11 16  1  0
  3 17  2  0
 17 18  1  0
 18 19  1  0
 19 20  2  0
 20 21  1  0
 21 22  2  0
 22 23  1  0
 23 24  2  0
 24 25  1  0
 18 26  1  0
 26 27  1  0
 27 28  2  0
 28 29  1  0
 29 30  2  0
 30 31  1  0
 31 32  1  0
 31 33  2  0
 26  2  2  0
 33 27  1  0
 15  7  1  0
 24 19  1  0
 16  7  1  0
 14  9  1  0
  1 34  1  0
  1 35  1  0
  1 36  1  0
  6 37  1  0
  8 38  1  0
  8 39  1  0
  9 40  1  6
 10 41  1  0
 10 42  1  0
 11 43  1  6
 12 44  1  0
 12 45  1  0
 13 46  1  1
 14 47  1  0
 14 48  1  0
 15 49  1  0
 15 50  1  0
 16 51  1  0
 16 52  1  0
 20 53  1  0
 21 54  1  0
 22 55  1  0
 23 56  1  0
 25 57  1  0
 25 58  1  0
 28 59  1  0
 29 60  1  0
 30 61  1  0
 33 62  1  0
M  END
>  <meeko>  (42) 
{"is_sidechain": false}

$$$$

     RDKit          3D

 69 75  0  0  0  0  0  0  0  0999 V2000
    5.7880   -0.0360  -53.4320 C   0  0  0  0  0  0  0  0  0  0  0  0
    7.2200    0.2790  -53.0250 C   0  0  0  0  0  0  0  0  0  0  0  0
    8.2200   -0.5450  -53.7710 C   0  0  0  0  0  0  0  0  0  0  0  0
    8.8740   -0.2190  -54.9990 C   0  0  0  0  0  0  0  0  0  0  0  0
    8.7230    1.0010  -55.8220 C   0  0  0  0  0  0  0  0  0  0  0  0
    7.6670    1.6170  -55.9250 O   0  0  0  0  0  0  0  0  0  0  0  0
    9.8970    1.3600  -56.4500 N   0  0  0  0  0  0  0  0  0  0  0  0
   10.0910    2.5110  -57.3250 C   0  0  2  0  0  0  0  0  0  0  0  0
   11.5860    2.7120  -57.6780 C   0  0  0  0  0  0  0  0  0  0  0  0
   11.7590    3.9010  -58.6410 C   0  0  1  0  0  0  0  0  0  0  0  0
   10.9750    3.6260  -59.9340 C   0  0  0  0  0  0  0  0  0  0  0  0
    9.4830    3.4420  -59.6140 C   0  0  2  0  0  0  0  0  0  0  0  0
    8.9450    4.7190  -58.9490 C   0  0  0  0  0  0  0  0  0  0  0  0
    9.7160    5.0000  -57.6510 C   0  0  2  0  0  0  0  0  0  0  0  0
   11.2090    5.1740  -57.9760 C   0  0  0  0  0  0  0  0  0  0  0  0
    9.5420    3.8120  -56.6890 C   0  0  0  0  0  0  0  0  0  0  0  0
    9.3160    2.2610  -58.6460 C   0  0  0  0  0  0  0  0  0  0  0  0
    9.7160   -1.2020  -55.3790 N   0  0  0  0  0  0  0  0  0  0  0  0
    9.6170   -2.1270  -54.3990 N   0  0  0  0  0  0  0  0  0  0  0  0
   10.4170   -3.3470  -54.4960 C   0  0  0  0  0  0  0  0  0  0  0  0
   11.1130   -3.4650  -55.8220 C   0  0  0  0  0  0  0  0  0  0  0  0
   11.5480   -2.3320  -56.5340 C   0  0  0  0  0  0  0  0  0  0  0  0
   12.2070   -2.4620  -57.7700 C   0  0  0  0  0  0  0  0  0  0  0  0
   12.4380   -3.7220  -58.3220 C   0  0  0  0  0  0  0  0  0  0  0  0
   11.9970   -4.8200  -57.6170 C   0  0  0  0  0  0  0  0  0  0  0  0
   11.3480   -4.6980  -56.4090 C   0  0  0  0  0  0  0  0  0  0  0  0
   10.9990   -5.9090  -55.8930 O   0  0  0  0  0  0  0  0  0  0  0  0
   11.5300   -6.8010  -56.8950 C   0  0  0  0  0  0  0  0  0  0  0  0
   12.1390   -6.1160  -58.0060 O   0  0  0  0  0  0  0  0  0  0  0  0
    8.7180   -1.7890  -53.4150 C   0  0  0  0  0  0  0  0  0  0  0  0
    8.4260   -2.6150  -52.2500 C   0  0  0  0  0  0  0  0  0  0  0  0
    9.4280   -2.8890  -51.3120 C   0  0  0  0  0  0  0  0  0  0  0  0
    9.1470   -3.6730  -50.1910 C   0  0  0  0  0  0  0  0  0  0  0  0
    7.8640   -4.1870  -50.0050 C   0  0  0  0  0  0  0  0  0  0  0  0
    6.8680   -3.9190  -50.9440 C   0  0  0  0  0  0  0  0  0  0  0  0
    5.2820   -4.5400  -50.7040 Cl  0  0  0  0  0  0  0  0  0  0  0  0
    7.1430   -3.1430  -52.0680 C   0  0  0  0  0  0  0  0  0  0  0  0
    5.1720   -0.1715  -52.5308 H   0  0  0  0  0  0  0  0  0  0  0  0
    5.3854    0.7951  -54.0297 H   0  0  0  0  0  0  0  0  0  0  0  0
    5.7713   -0.9593  -54.0297 H   0  0  0  0  0  0  0  0  0  0  0  0
    7.4184    1.3422  -53.2258 H   0  0  0  0  0  0  0  0  0  0  0  0
    7.3236    0.0441  -51.9554 H   0  0  0  0  0  0  0  0  0  0  0  0
   10.6720    0.7330  -56.2510 H   0  0  0  0  0  0  0  0  0  0  0  0
   12.1523    2.9082  -56.7556 H   0  0  0  0  0  0  0  0  0  0  0  0
   11.9610    1.8010  -58.1675 H   0  0  0  0  0  0  0  0  0  0  0  0
   12.8251    4.0352  -58.8765 H   0  0  0  0  0  0  0  0  0  0  0  0
   11.0981    4.4751  -60.6224 H   0  0  0  0  0  0  0  0  0  0  0  0
   11.3602    2.7080  -60.4019 H   0  0  0  0  0  0  0  0  0  0  0  0
    8.9269    3.2446  -60.5423 H   0  0  0  0  0  0  0  0  0  0  0  0
    9.0688    5.5681  -59.6373 H   0  0  0  0  0  0  0  0  0  0  0  0
    7.8793    4.5820  -58.7135 H   0  0  0  0  0  0  0  0  0  0  0  0
    9.3289    5.9164  -57.1816 H   0  0  0  0  0  0  0  0  0  0  0  0
   11.3350    6.0254  -58.6610 H   0  0  0  0  0  0  0  0  0  0  0  0
   11.7607    5.3586  -57.0424 H   0  0  0  0  0  0  0  0  0  0  0  0
   10.0894    4.0180  -55.7574 H   0  0  0  0  0  0  0  0  0  0  0  0
    8.4704    3.6795  -56.4791 H   0  0  0  0  0  0  0  0  0  0  0  0
    8.2478    2.1315  -58.4174 H   0  0  0  0  0  0  0  0  0  0  0  0
    9.7203    1.3564  -59.1237 H   0  0  0  0  0  0  0  0  0  0  0  0
   11.1741   -3.3386  -53.6980 H   0  0  0  0  0  0  0  0  0  0  0  0
    9.7372   -4.2057  -54.3937 H   0  0  0  0  0  0  0  0  0  0  0  0
   11.3701   -1.3294  -56.1178 H   0  0  0  0  0  0  0  0  0  0  0  0
   12.5431   -1.5621  -58.3059 H   0  0  0  0  0  0  0  0  0  0  0  0
   12.9544   -3.8348  -59.2867 H   0  0  0  0  0  0  0  0  0  0  0  0
   12.2883   -7.4433  -56.4234 H   0  0  0  0  0  0  0  0  0  0  0  0
   10.6846   -7.3803  -57.2947 H   0  0  0  0  0  0  0  0  0  0  0  0
   10.4407   -2.4853  -51.4583 H   0  0  0  0  0  0  0  0  0  0  0  0
    9.9369   -3.8849  -49.4554 H   0  0  0  0  0  0  0  0  0  0  0  0
    7.6383   -4.8015  -49.1210 H   0  0  0  0  0  0  0  0  0  0  0  0
    6.3546   -2.9462  -52.8094 H   0  0  0  0  0  0  0  0  0  0  0  0
  1  2  1  0
  2  3  1  0
  3  4  1  0
  4  5  1  0
  5  6  2  0
  5  7  1  0
  8  7  1  1
  8  9  1  0
  9 10  1  0
 10 11  1  0
 11 12  1  0
 12 13  1  0
 13 14  1  0
 14 15  1  0
 14 16  1  0
 12 17  1  0
  4 18  2  0
 18 19  1  0
 19 20  1  0
 20 21  1  0
 21 22  2  0
 22 23  1  0
 23 24  2  0
 24 25  1  0
 25 26  2  0
 26 27  1  0
 27 28  1  0
 28 29  1  0
 19 30  1  0
 30 31  1  0
 31 32  2  0
 32 33  1  0
 33 34  2  0
 34 35  1  0
 35 36  1  0
 35 37  2  0
 30  3  2  0
 37 31  1  0
 16  8  1  0
 26 21  1  0
 17  8  1  0
 29 25  1  0
 15 10  1  0
  1 38  1  0
  1 39  1  0
  1 40  1  0
  2 41  1  0
  2 42  1  0
  7 43  1  0
  9 44  1  0
  9 45  1  0
 10 46  1  6
 11 47  1  0
 11 48  1  0
 12 49  1  6
 13 50  1  0
 13 51  1  0
 14 52  1  1
 15 53  1  0
 15 54  1  0
 16 55  1  0
 16 56  1  0
 17 57  1  0
 17 58  1  0
 20 59  1  0
 20 60  1  0
 22 61  1  0
 23 62  1  0
 24 63  1  0
 28 64  1  0
 28 65  1  0
 32 66  1  0
 33 67  1  0
 34 68  1  0
 37 69  1  0
M  END
>  <meeko>  (43) 
{"is_sidechain": false}

$$$$

     RDKit          3D

 76 81  0  0  0  0  0  0  0  0999 V2000
    9.9420    0.0550  -55.3560 C   0  0  0  0  0  0  0  0  0  0  0  0
    8.6380    0.6710  -55.7180 C   0  0  0  0  0  0  0  0  0  0  0  0
    7.3430    0.1870  -55.3650 C   0  0  0  0  0  0  0  0  0  0  0  0
    7.0090   -1.0150  -54.5720 C   0  0  0  0  0  0  0  0  0  0  0  0
    6.2460   -1.8870  -54.9720 O   0  0  0  0  0  0  0  0  0  0  0  0
    7.6490   -1.0380  -53.3530 N   0  0  0  0  0  0  0  0  0  0  0  0
    7.5380   -2.0790  -52.3370 C   0  0  2  0  0  0  0  0  0  0  0  0
    6.2780   -2.9530  -52.5530 C   0  0  0  0  0  0  0  0  0  0  0  0
    6.2080   -4.0730  -51.4980 C   0  0  1  0  0  0  0  0  0  0  0  0
    7.4560   -4.9620  -51.6180 C   0  0  0  0  0  0  0  0  0  0  0  0
    8.7220   -4.1230  -51.3880 C   0  0  2  0  0  0  0  0  0  0  0  0
    8.6720   -3.4980  -49.9850 C   0  0  0  0  0  0  0  0  0  0  0  0
    7.4310   -2.6000  -49.8550 C   0  0  2  0  0  0  0  0  0  0  0  0
    6.1680   -3.4430  -50.0950 C   0  0  0  0  0  0  0  0  0  0  0  0
    7.5010   -1.4820  -50.9090 C   0  0  0  0  0  0  0  0  0  0  0  0
    8.7820   -3.0010  -52.4370 C   0  0  0  0  0  0  0  0  0  0  0  0
    6.3730    0.9840  -55.8580 N   0  0  0  0  0  0  0  0  0  0  0  0
    7.0400    1.9700  -56.4970 N   0  0  0  0  0  0  0  0  0  0  0  0
    6.2680    3.0180  -57.1660 C   0  0  0  0  0  0  0  0  0  0  0  0
    6.2730    2.8830  -58.6700 C   0  0  0  0  0  0  0  0  0  0  0  0
    7.3700    3.3140  -59.4230 C   0  0  0  0  0  0  0  0  0  0  0  0
    7.3640    3.1760  -60.8060 C   0  0  0  0  0  0  0  0  0  0  0  0
    6.2600    2.6110  -61.4500 C   0  0  0  0  0  0  0  0  0  0  0  0
    5.1320    2.1740  -60.7300 C   0  0  0  0  0  0  0  0  0  0  0  0
    3.9330    1.5600  -61.4750 C   0  0  0  0  0  0  0  0  0  0  0  0
    4.0660    1.8230  -62.9910 C   0  0  0  0  0  0  0  0  0  0  0  0
    3.7960    0.0320  -61.2910 C   0  0  0  0  0  0  0  0  0  0  0  0
    2.6250    2.2020  -60.9630 C   0  0  0  0  0  0  0  0  0  0  0  0
    5.1600    2.3310  -59.3330 C   0  0  0  0  0  0  0  0  0  0  0  0
    8.4090    1.8210  -56.4580 C   0  0  0  0  0  0  0  0  0  0  0  0
    9.3550    2.7580  -57.0500 C   0  0  0  0  0  0  0  0  0  0  0  0
    9.5090    4.0340  -56.4960 C   0  0  0  0  0  0  0  0  0  0  0  0
   10.3850    4.9540  -57.0760 C   0  0  0  0  0  0  0  0  0  0  0  0
   11.1200    4.6070  -58.2170 C   0  0  0  0  0  0  0  0  0  0  0  0
   11.9900    5.5850  -58.8000 C   0  0  0  0  0  0  0  0  0  0  0  0
   12.6790    6.4010  -59.2550 N   0  0  0  0  0  0  0  0  0  0  0  0
   10.9750    3.3260  -58.7630 C   0  0  0  0  0  0  0  0  0  0  0  0
   11.8380    2.8280  -60.1750 Cl  0  0  0  0  0  0  0  0  0  0  0  0
   10.1000    2.4040  -58.1780 C   0  0  0  0  0  0  0  0  0  0  0  0
   10.0353    0.0109  -54.2608 H   0  0  0  0  0  0  0  0  0  0  0  0
    9.9941   -0.9629  -55.7697 H   0  0  0  0  0  0  0  0  0  0  0  0
   10.7613    0.6613  -55.7697 H   0  0  0  0  0  0  0  0  0  0  0  0
    8.2460   -0.2290  -53.1890 H   0  0  0  0  0  0  0  0  0  0  0  0
    5.3813   -2.3214  -52.4698 H   0  0  0  0  0  0  0  0  0  0  0  0
    6.3302   -3.4098  -53.5523 H   0  0  0  0  0  0  0  0  0  0  0  0
    5.3047   -4.6795  -51.6598 H   0  0  0  0  0  0  0  0  0  0  0  0
    7.4073   -5.7621  -50.8647 H   0  0  0  0  0  0  0  0  0  0  0  0
    7.4915   -5.4008  -52.6261 H   0  0  0  0  0  0  0  0  0  0  0  0
    9.6110   -4.7649  -51.4759 H   0  0  0  0  0  0  0  0  0  0  0  0
    8.6239   -4.2977  -49.2312 H   0  0  0  0  0  0  0  0  0  0  0  0
    9.5757   -2.8912  -49.8269 H   0  0  0  0  0  0  0  0  0  0  0  0
    7.3971   -2.1588  -48.8479 H   0  0  0  0  0  0  0  0  0  0  0  0
    6.1149   -4.2410  -49.3398 H   0  0  0  0  0  0  0  0  0  0  0  0
    5.2834   -2.7937  -50.0183 H   0  0  0  0  0  0  0  0  0  0  0  0
    6.6159   -0.8364  -50.8102 H   0  0  0  0  0  0  0  0  0  0  0  0
    8.4188   -0.8982  -50.7454 H   0  0  0  0  0  0  0  0  0  0  0  0
    9.6888   -2.4010  -52.2704 H   0  0  0  0  0  0  0  0  0  0  0  0
    8.8003   -3.4575  -53.4377 H   0  0  0  0  0  0  0  0  0  0  0  0
    5.2276    2.9671  -56.8126 H   0  0  0  0  0  0  0  0  0  0  0  0
    6.7376    3.9817  -56.9198 H   0  0  0  0  0  0  0  0  0  0  0  0
    8.2390    3.7630  -58.9198 H   0  0  0  0  0  0  0  0  0  0  0  0
    8.2301    3.5122  -61.3949 H   0  0  0  0  0  0  0  0  0  0  0  0
    6.2727    2.5053  -62.5448 H   0  0  0  0  0  0  0  0  0  0  0  0
    4.5570    2.7939  -63.1530 H   0  0  0  0  0  0  0  0  0  0  0  0
    4.6694    1.0259  -63.4499 H   0  0  0  0  0  0  0  0  0  0  0  0
    3.0664    1.8365  -63.4499 H   0  0  0  0  0  0  0  0  0  0  0  0
    3.7745   -0.2076  -60.2176 H   0  0  0  0  0  0  0  0  0  0  0  0
    2.8634   -0.3119  -61.7622 H   0  0  0  0  0  0  0  0  0  0  0  0
    4.6525   -0.4723  -61.7622 H   0  0  0  0  0  0  0  0  0  0  0  0
    2.6231    2.2029  -59.8630 H   0  0  0  0  0  0  0  0  0  0  0  0
    2.5559    3.2364  -61.3307 H   0  0  0  0  0  0  0  0  0  0  0  0
    1.7644    1.6239  -61.3307 H   0  0  0  0  0  0  0  0  0  0  0  0
    4.2884    2.0139  -58.7416 H   0  0  0  0  0  0  0  0  0  0  0  0
    8.9370    4.3137  -55.5990 H   0  0  0  0  0  0  0  0  0  0  0  0
   10.4984    5.9554  -56.6351 H   0  0  0  0  0  0  0  0  0  0  0  0
    9.9982    1.3966  -58.6077 H   0  0  0  0  0  0  0  0  0  0  0  0
  1  2  1  0
  2  3  1  0
  3  4  1  0
  4  5  2  0
  4  6  1  0
  7  6  1  6
  7  8  1  0
  8  9  1  0
  9 10  1  0
 10 11  1  0
 11 12  1  0
 12 13  1  0
 13 14  1  0
 13 15  1  0
 11 16  1  0
  3 17  2  0
 17 18  1  0
 18 19  1  0
 19 20  1  0
 20 21  1  0
 21 22  2  0
 22 23  1  0
 23 24  2  0
 24 25  1  0
 25 26  1  0
 25 27  1  0
 25 28  1  0
 24 29  1  0
 18 30  1  0
 30 31  1  0
 31 32  1  0
 32 33  2  0
 33 34  1  0
 34 35  1  0
 35 36  3  0
 34 37  2  0
 37 38  1  0
 37 39  1  0
 30  2  2  0
 39 31  2  0
 15  7  1  0
 29 20  2  0
 16  7  1  0
 14  9  1  0
  1 40  1  0
  1 41  1  0
  1 42  1  0
  6 43  1  0
  8 44  1  0
  8 45  1  0
  9 46  1  6
 10 47  1  0
 10 48  1  0
 11 49  1  1
 12 50  1  0
 12 51  1  0
 13 52  1  1
 14 53  1  0
 14 54  1  0
 15 55  1  0
 15 56  1  0
 16 57  1  0
 16 58  1  0
 19 59  1  0
 19 60  1  0
 21 61  1  0
 22 62  1  0
 23 63  1  0
 26 64  1  0
 26 65  1  0
 26 66  1  0
 27 67  1  0
 27 68  1  0
 27 69  1  0
 28 70  1  0
 28 71  1  0
 28 72  1  0
 29 73  1  0
 32 74  1  0
 33 75  1  0
 39 76  1  0
M  END
>  <meeko>  (44) 
{"is_sidechain": false}

$$$$

     RDKit          3D

 66 71  0  0  0  0  0  0  0  0999 V2000
    8.9820    1.4440  -55.5970 O   0  0  0  0  0  0  0  0  0  0  0  0
    7.8460    1.0030  -55.6910 C   0  0  0  0  0  0  0  0  0  0  0  0
    7.4310   -0.2090  -55.1810 N   0  0  0  0  0  0  0  0  0  0  0  0
    8.3390   -1.1770  -54.5350 C   0  0  2  0  0  0  0  0  0  0  0  0
    8.5340   -0.8730  -53.0280 C   0  0  0  0  0  0  0  0  0  0  0  0
    9.4410   -1.9310  -52.3760 C   0  0  1  0  0  0  0  0  0  0  0  0
    8.7910   -3.3160  -52.5170 C   0  0  0  0  0  0  0  0  0  0  0  0
    8.6000   -3.6550  -54.0040 C   0  0  2  0  0  0  0  0  0  0  0  0
    9.9670   -3.6560  -54.7060 C   0  0  0  0  0  0  0  0  0  0  0  0
   10.6260   -2.2740  -54.5770 C   0  0  2  0  0  0  0  0  0  0  0  0
   10.8060   -1.9350  -53.0860 C   0  0  0  0  0  0  0  0  0  0  0  0
    9.7200   -1.2150  -55.2320 C   0  0  0  0  0  0  0  0  0  0  0  0
    7.7020   -2.5900  -54.6520 C   0  0  0  0  0  0  0  0  0  0  0  0
    6.7250    1.8200  -56.2940 C   0  0  2  0  0  0  0  0  0  0  0  0
    5.9170    1.0790  -57.3540 C   0  0  0  0  0  0  0  0  0  0  0  0
    5.3850    2.2130  -58.2260 C   0  0  2  0  0  0  0  0  0  0  0  0
    4.6340    1.8970  -59.4920 C   0  0  0  0  0  0  0  0  0  0  0  0
    5.0530    0.8980  -60.3860 C   0  0  0  0  0  0  0  0  0  0  0  0
    4.3210    0.6210  -61.5430 C   0  0  0  0  0  0  0  0  0  0  0  0
    3.1530    1.3240  -61.8190 C   0  0  0  0  0  0  0  0  0  0  0  0
    2.7090    2.3020  -60.9360 C   0  0  0  0  0  0  0  0  0  0  0  0
    3.4380    2.5830  -59.7790 C   0  0  0  0  0  0  0  0  0  0  0  0
    6.5860    3.1430  -58.3390 N   0  0  2  0  0  0  0  0  0  0  0  0
    7.4670    3.0530  -59.5770 C   0  0  0  0  0  0  0  0  0  0  0  0
    8.9000    3.5110  -59.4970 C   0  0  0  0  0  0  0  0  0  0  0  0
    9.2810    4.8260  -59.8000 C   0  0  0  0  0  0  0  0  0  0  0  0
   10.6190    5.2240  -59.7110 C   0  0  0  0  0  0  0  0  0  0  0  0
   11.5960    4.3050  -59.3430 C   0  0  0  0  0  0  0  0  0  0  0  0
   13.4000    4.8460  -59.2180 Br  0  0  0  0  0  0  0  0  0  0  0  0
   11.2470    2.9860  -59.0740 C   0  0  0  0  0  0  0  0  0  0  0  0
    9.9090    2.5920  -59.1590 C   0  0  0  0  0  0  0  0  0  0  0  0
    7.3340    3.0130  -57.0240 C   0  0  0  0  0  0  0  0  0  0  0  0
    6.6020   -0.6230  -55.5920 H   0  0  0  0  0  0  0  0  0  0  0  0
    8.9967    0.1186  -52.9160 H   0  0  0  0  0  0  0  0  0  0  0  0
    7.5524   -0.8926  -52.5320 H   0  0  0  0  0  0  0  0  0  0  0  0
    9.5778   -1.6950  -51.3104 H   0  0  0  0  0  0  0  0  0  0  0  0
    9.4394   -4.0724  -52.0508 H   0  0  0  0  0  0  0  0  0  0  0  0
    7.8106   -3.3085  -52.0183 H   0  0  0  0  0  0  0  0  0  0  0  0
    8.1337   -4.6466  -54.1005 H   0  0  0  0  0  0  0  0  0  0  0  0
   10.6149   -4.4132  -54.2403 H   0  0  0  0  0  0  0  0  0  0  0  0
    9.8252   -3.8900  -55.7714 H   0  0  0  0  0  0  0  0  0  0  0  0
   11.6059   -2.2832  -55.0767 H   0  0  0  0  0  0  0  0  0  0  0  0
   11.4574   -2.6877  -52.6178 H   0  0  0  0  0  0  0  0  0  0  0  0
   11.2615   -0.9378  -52.9960 H   0  0  0  0  0  0  0  0  0  0  0  0
   10.1965   -0.2274  -55.1453 H   0  0  0  0  0  0  0  0  0  0  0  0
    9.5768   -1.4754  -56.2911 H   0  0  0  0  0  0  0  0  0  0  0  0
    7.5635   -2.8351  -55.7154 H   0  0  0  0  0  0  0  0  0  0  0  0
    6.7345   -2.5823  -54.1287 H   0  0  0  0  0  0  0  0  0  0  0  0
    6.0642    2.0841  -55.4552 H   0  0  0  0  0  0  0  0  0  0  0  0
    6.5560    0.3982  -57.9355 H   0  0  0  0  0  0  0  0  0  0  0  0
    5.1237    0.4441  -56.9326 H   0  0  0  0  0  0  0  0  0  0  0  0
    4.5093    2.6827  -57.7543 H   0  0  0  0  0  0  0  0  0  0  0  0
    5.9686    0.3269  -60.1725 H   0  0  0  0  0  0  0  0  0  0  0  0
    4.6697   -0.1564  -62.2388 H   0  0  0  0  0  0  0  0  0  0  0  0
    2.5819    1.1068  -62.7337 H   0  0  0  0  0  0  0  0  0  0  0  0
    1.7823    2.8549  -61.1493 H   0  0  0  0  0  0  0  0  0  0  0  0
    3.0730    3.3513  -59.0815 H   0  0  0  0  0  0  0  0  0  0  0  0
    6.2010    4.0920  -58.3810 H   0  0  0  0  0  0  0  0  0  0  0  0
    7.4844    1.9964  -59.8824 H   0  0  0  0  0  0  0  0  0  0  0  0
    7.0050    3.7640  -60.2778 H   0  0  0  0  0  0  0  0  0  0  0  0
    8.5177    5.5541  -60.1118 H   0  0  0  0  0  0  0  0  0  0  0  0
   10.8987    6.2646  -59.9322 H   0  0  0  0  0  0  0  0  0  0  0  0
   12.0211    2.2558  -58.7954 H   0  0  0  0  0  0  0  0  0  0  0  0
    9.6404    1.5444  -58.9579 H   0  0  0  0  0  0  0  0  0  0  0  0
    8.4037    2.8380  -57.2112 H   0  0  0  0  0  0  0  0  0  0  0  0
    7.2474    3.9316  -56.4252 H   0  0  0  0  0  0  0  0  0  0  0  0
  1  2  2  0
  2  3  1  0
  4  3  1  6
  4  5  1  0
  5  6  1  0
  6  7  1  0
  7  8  1  0
  8  9  1  0
  9 10  1  0
 10 11  1  0
 10 12  1  0
  8 13  1  0
  2 14  1  0
 14 15  1  0
 15 16  1  0
 16 17  1  0
 17 18  2  0
 18 19  1  0
 19 20  2  0
 20 21  1  0
 21 22  2  0
 16 23  1  0
 23 24  1  0
 24 25  1  0
 25 26  1  0
 26 27  2  0
 27 28  1  0
 28 29  1  0
 28 30  2  0
 30 31  1  0
 23 32  1  0
 12  4  1  0
 32 14  1  0
 13  4  1  0
 22 17  1  0
 31 25  2  0
 11  6  1  0
  3 33  1  0
  5 34  1  0
  5 35  1  0
  6 36  1  1
  7 37  1  0
  7 38  1  0
  8 39  1  1
  9 40  1  0
  9 41  1  0
 10 42  1  6
 11 43  1  0
 11 44  1  0
 12 45  1  0
 12 46  1  0
 13 47  1  0
 13 48  1  0
 14 49  1  1
 15 50  1  0
 15 51  1  0
 16 52  1  1
 18 53  1  0
 19 54  1  0
 20 55  1  0
 21 56  1  0
 22 57  1  0
 23 58  1  1
 24 59  1  0
 24 60  1  0
 26 61  1  0
 27 62  1  0
 30 63  1  0
 31 64  1  0
 32 65  1  0
 32 66  1  0
M  CHG  1  23   1
M  END
>  <meeko>  (45) 
{"is_sidechain": false}

$$$$

     RDKit          3D

 66 71  0  0  0  0  0  0  0  0999 V2000
    6.6530    0.4560  -56.2940 O   0  0  0  0  0  0  0  0  0  0  0  0
    7.5260    1.1630  -55.7960 C   0  0  0  0  0  0  0  0  0  0  0  0
    8.2380    2.1290  -56.4580 N   0  0  0  0  0  0  0  0  0  0  0  0
    8.1380    2.4020  -57.9020 C   0  0  2  0  0  0  0  0  0  0  0  0
    7.7620    3.8960  -58.0950 C   0  0  0  0  0  0  0  0  0  0  0  0
    7.6440    4.2460  -59.5860 C   0  0  1  0  0  0  0  0  0  0  0  0
    8.9900    3.9700  -60.2760 C   0  0  0  0  0  0  0  0  0  0  0  0
    9.3670    2.4890  -60.1200 C   0  0  2  0  0  0  0  0  0  0  0  0
    8.2690    1.6160  -60.7520 C   0  0  0  0  0  0  0  0  0  0  0  0
    6.9180    1.8850  -60.0680 C   0  0  2  0  0  0  0  0  0  0  0  0
    6.5560    3.3700  -60.2260 C   0  0  0  0  0  0  0  0  0  0  0  0
    7.0330    1.5450  -58.5710 C   0  0  0  0  0  0  0  0  0  0  0  0
    9.4840    2.1500  -58.6230 C   0  0  0  0  0  0  0  0  0  0  0  0
    7.8000    1.0910  -54.3050 C   0  0  1  0  0  0  0  0  0  0  0  0
    6.9410   -0.0020  -53.6790 C   0  0  0  0  0  0  0  0  0  0  0  0
    7.6910   -1.3250  -53.9730 C   0  0  2  0  0  0  0  0  0  0  0  0
    7.6110   -2.3390  -52.8550 C   0  0  0  0  0  0  0  0  0  0  0  0
    7.8460   -1.9230  -51.5320 C   0  0  0  0  0  0  0  0  0  0  0  0
    7.7530   -2.8280  -50.4730 C   0  0  0  0  0  0  0  0  0  0  0  0
    7.4240   -4.1570  -50.7160 C   0  0  0  0  0  0  0  0  0  0  0  0
    7.1860   -4.5860  -52.0190 C   0  0  0  0  0  0  0  0  0  0  0  0
    7.2770   -3.6850  -53.0810 C   0  0  0  0  0  0  0  0  0  0  0  0
    9.0960   -0.8910  -54.3720 N   0  0  2  0  0  0  0  0  0  0  0  0
   10.2540   -1.7550  -53.9770 C   0  0  0  0  0  0  0  0  0  0  0  0
   10.7320   -2.6340  -55.1050 C   0  0  0  0  0  0  0  0  0  0  0  0
   11.4240   -2.0800  -56.1960 C   0  0  0  0  0  0  0  0  0  0  0  0
   11.8920   -2.8990  -57.2270 C   0  0  0  0  0  0  0  0  0  0  0  0
   11.6710   -4.2720  -57.1750 C   0  0  0  0  0  0  0  0  0  0  0  0
   12.3070   -5.3800  -58.5680 Br  0  0  0  0  0  0  0  0  0  0  0  0
   10.9830   -4.8360  -56.1030 C   0  0  0  0  0  0  0  0  0  0  0  0
   10.5150   -4.0200  -55.0700 C   0  0  0  0  0  0  0  0  0  0  0  0
    9.2100    0.5790  -54.0580 C   0  0  0  0  0  0  0  0  0  0  0  0
    9.0060    2.5830  -55.9750 H   0  0  0  0  0  0  0  0  0  0  0  0
    6.7979    4.0908  -57.6024 H   0  0  0  0  0  0  0  0  0  0  0  0
    8.5541    4.5168  -57.6510 H   0  0  0  0  0  0  0  0  0  0  0  0
    7.3789    5.3074  -59.7004 H   0  0  0  0  0  0  0  0  0  0  0  0
    8.9079    4.2142  -61.3454 H   0  0  0  0  0  0  0  0  0  0  0  0
    9.7686    4.5916  -59.8099 H   0  0  0  0  0  0  0  0  0  0  0  0
   10.3275    2.2971  -60.6205 H   0  0  0  0  0  0  0  0  0  0  0  0
    8.1877    1.8531  -61.8231 H   0  0  0  0  0  0  0  0  0  0  0  0
    8.5331    0.5562  -60.6212 H   0  0  0  0  0  0  0  0  0  0  0  0
    6.1369    1.2638  -60.5305 H   0  0  0  0  0  0  0  0  0  0  0  0
    6.4745    3.6135  -61.2956 H   0  0  0  0  0  0  0  0  0  0  0  0
    5.5956    3.5632  -59.7257 H   0  0  0  0  0  0  0  0  0  0  0  0
    6.0703    1.7477  -58.0789 H   0  0  0  0  0  0  0  0  0  0  0  0
    7.2961    0.4820  -58.4672 H   0  0  0  0  0  0  0  0  0  0  0  0
    9.7609    1.0912  -58.5124 H   0  0  0  0  0  0  0  0  0  0  0  0
   10.2542    2.7932  -58.1723 H   0  0  0  0  0  0  0  0  0  0  0  0
    7.6168    2.0957  -53.8963 H   0  0  0  0  0  0  0  0  0  0  0  0
    6.8465    0.1552  -52.5944 H   0  0  0  0  0  0  0  0  0  0  0  0
    5.9200   -0.0080  -54.0884 H   0  0  0  0  0  0  0  0  0  0  0  0
    7.2213   -1.8960  -54.7875 H   0  0  0  0  0  0  0  0  0  0  0  0
    8.1058   -0.8735  -51.3296 H   0  0  0  0  0  0  0  0  0  0  0  0
    7.9405   -2.4888  -49.4435 H   0  0  0  0  0  0  0  0  0  0  0  0
    7.3519   -4.8683  -49.8800 H   0  0  0  0  0  0  0  0  0  0  0  0
    6.9257   -5.6372  -52.2118 H   0  0  0  0  0  0  0  0  0  0  0  0
    7.0850   -4.0326  -54.1068 H   0  0  0  0  0  0  0  0  0  0  0  0
    9.0840   -0.9090  -55.4100 H   0  0  0  0  0  0  0  0  0  0  0  0
   11.0843   -1.1076  -53.6586 H   0  0  0  0  0  0  0  0  0  0  0  0
    9.9169   -2.4123  -53.1619 H   0  0  0  0  0  0  0  0  0  0  0  0
   11.5982   -0.9947  -56.2384 H   0  0  0  0  0  0  0  0  0  0  0  0
   12.4337   -2.4595  -58.0775 H   0  0  0  0  0  0  0  0  0  0  0  0
   10.8086   -5.9216  -56.0699 H   0  0  0  0  0  0  0  0  0  0  0  0
    9.9728   -4.4669  -54.2236 H   0  0  0  0  0  0  0  0  0  0  0  0
    9.5108    0.7378  -53.0119 H   0  0  0  0  0  0  0  0  0  0  0  0
    9.9707    1.0941  -54.6630 H   0  0  0  0  0  0  0  0  0  0  0  0
  1  2  2  0
  2  3  1  0
  4  3  1  1
  4  5  1  0
  5  6  1  0
  6  7  1  0
  7  8  1  0
  8  9  1  0
  9 10  1  0
 10 11  1  0
 10 12  1  0
  8 13  1  0
  2 14  1  0
 14 15  1  0
 15 16  1  0
 16 17  1  0
 17 18  2  0
 18 19  1  0
 19 20  2  0
 20 21  1  0
 21 22  2  0
 16 23  1  0
 23 24  1  0
 24 25  1  0
 25 26  1  0
 26 27  2  0
 27 28  1  0
 28 29  1  0
 28 30  2  0
 30 31  1  0
 23 32  1  0
 12  4  1  0
 32 14  1  0
 13  4  1  0
 22 17  1  0
 31 25  2  0
 11  6  1  0
  3 33  1  0
  5 34  1  0
  5 35  1  0
  6 36  1  1
  7 37  1  0
  7 38  1  0
  8 39  1  6
  9 40  1  0
  9 41  1  0
 10 42  1  6
 11 43  1  0
 11 44  1  0
 12 45  1  0
 12 46  1  0
 13 47  1  0
 13 48  1  0
 14 49  1  1
 15 50  1  0
 15 51  1  0
 16 52  1  6
 18 53  1  0
 19 54  1  0
 20 55  1  0
 21 56  1  0
 22 57  1  0
 23 58  1  6
 24 59  1  0
 24 60  1  0
 26 61  1  0
 27 62  1  0
 30 63  1  0
 31 64  1  0
 32 65  1  0
 32 66  1  0
M  CHG  1  23   1
M  END
>  <meeko>  (46) 
{"is_sidechain": false}

$$$$

     RDKit          3D

 66 71  0  0  0  0  0  0  0  0999 V2000
    8.3220    1.4610  -56.4080 O   0  0  0  0  0  0  0  0  0  0  0  0
    7.1390    1.5890  -56.1170 C   0  0  0  0  0  0  0  0  0  0  0  0
    6.4720    0.8420  -55.1710 N   0  0  0  0  0  0  0  0  0  0  0  0
    7.0780   -0.2880  -54.4430 C   0  0  2  0  0  0  0  0  0  0  0  0
    8.5190   -0.5740  -54.9340 C   0  0  0  0  0  0  0  0  0  0  0  0
    9.1060   -1.7940  -54.2020 C   0  0  1  0  0  0  0  0  0  0  0  0
    9.1210   -1.5170  -52.6880 C   0  0  0  0  0  0  0  0  0  0  0  0
    7.6900   -1.2680  -52.1820 C   0  0  2  0  0  0  0  0  0  0  0  0
    6.8250   -2.5040  -52.4740 C   0  0  0  0  0  0  0  0  0  0  0  0
    6.7990   -2.7790  -53.9850 C   0  0  2  0  0  0  0  0  0  0  0  0
    8.2320   -3.0260  -54.4830 C   0  0  0  0  0  0  0  0  0  0  0  0
    6.2180   -1.5540  -54.7100 C   0  0  0  0  0  0  0  0  0  0  0  0
    7.0980   -0.0500  -52.9120 C   0  0  0  0  0  0  0  0  0  0  0  0
    6.2920    2.6810  -56.7470 C   0  0  2  0  0  0  0  0  0  0  0  0
    5.1050    2.1220  -57.5200 C   0  0  0  0  0  0  0  0  0  0  0  0
    5.7000    1.7380  -58.8760 C   0  0  1  0  0  0  0  0  0  0  0  0
    4.6820    1.5690  -59.9810 C   0  0  0  0  0  0  0  0  0  0  0  0
    4.7980    0.5710  -60.9630 C   0  0  0  0  0  0  0  0  0  0  0  0
    3.8220    0.4270  -61.9510 C   0  0  0  0  0  0  0  0  0  0  0  0
    2.7190    1.2770  -61.9740 C   0  0  0  0  0  0  0  0  0  0  0  0
    2.5920    2.2750  -61.0130 C   0  0  0  0  0  0  0  0  0  0  0  0
    3.5660    2.4210  -60.0240 C   0  0  0  0  0  0  0  0  0  0  0  0
    6.6760    2.8720  -59.1430 N   0  0  2  0  0  0  0  0  0  0  0  0
    7.7550    2.5840  -60.1590 C   0  0  0  0  0  0  0  0  0  0  0  0
    9.1340    3.1240  -59.8820 C   0  0  0  0  0  0  0  0  0  0  0  0
   10.0470    2.4180  -59.0840 C   0  0  0  0  0  0  0  0  0  0  0  0
   11.3230    2.9290  -58.8340 C   0  0  0  0  0  0  0  0  0  0  0  0
   11.7050    4.1460  -59.3920 C   0  0  0  0  0  0  0  0  0  0  0  0
   13.4300    4.8370  -59.0550 Br  0  0  0  0  0  0  0  0  0  0  0  0
   10.8220    4.8540  -60.2020 C   0  0  0  0  0  0  0  0  0  0  0  0
    9.5440    4.3450  -60.4470 C   0  0  0  0  0  0  0  0  0  0  0  0
    7.1180    3.4150  -57.7960 C   0  0  0  0  0  0  0  0  0  0  0  0
    5.4620    0.8090  -55.2340 H   0  0  0  0  0  0  0  0  0  0  0  0
    8.4997   -0.7754  -56.0152 H   0  0  0  0  0  0  0  0  0  0  0  0
    9.1475    0.3037  -54.7228 H   0  0  0  0  0  0  0  0  0  0  0  0
   10.1306   -1.9801  -54.5562 H   0  0  0  0  0  0  0  0  0  0  0  0
    9.5464   -2.3853  -52.1635 H   0  0  0  0  0  0  0  0  0  0  0  0
    9.7328   -0.6242  -52.4914 H   0  0  0  0  0  0  0  0  0  0  0  0
    7.7089   -1.0777  -51.0988 H   0  0  0  0  0  0  0  0  0  0  0  0
    7.2464   -3.3757  -51.9519 H   0  0  0  0  0  0  0  0  0  0  0  0
    5.7993   -2.3195  -52.1218 H   0  0  0  0  0  0  0  0  0  0  0  0
    6.1786   -3.6641  -54.1893 H   0  0  0  0  0  0  0  0  0  0  0  0
    8.6535   -3.8981  -53.9617 H   0  0  0  0  0  0  0  0  0  0  0  0
    8.2102   -3.2135  -55.5667 H   0  0  0  0  0  0  0  0  0  0  0  0
    6.1971   -1.7529  -55.7917 H   0  0  0  0  0  0  0  0  0  0  0  0
    5.2013   -1.3727  -54.3312 H   0  0  0  0  0  0  0  0  0  0  0  0
    6.0699    0.1185  -52.5589 H   0  0  0  0  0  0  0  0  0  0  0  0
    7.7229    0.8296  -52.6981 H   0  0  0  0  0  0  0  0  0  0  0  0
    5.9527    3.3212  -55.9193 H   0  0  0  0  0  0  0  0  0  0  0  0
    4.6866    1.2406  -57.0120 H   0  0  0  0  0  0  0  0  0  0  0  0
    4.2775    2.8415  -57.6072 H   0  0  0  0  0  0  0  0  0  0  0  0
    6.1714    0.7444  -58.8534 H   0  0  0  0  0  0  0  0  0  0  0  0
    5.6666   -0.1038  -60.9534 H   0  0  0  0  0  0  0  0  0  0  0  0
    3.9245   -0.3597  -62.7130 H   0  0  0  0  0  0  0  0  0  0  0  0
    1.9492    1.1594  -62.7509 H   0  0  0  0  0  0  0  0  0  0  0  0
    1.7233    2.9495  -61.0327 H   0  0  0  0  0  0  0  0  0  0  0  0
    3.4583    3.2133  -59.2686 H   0  0  0  0  0  0  0  0  0  0  0  0
    6.1110    3.6050  -59.5850 H   0  0  0  0  0  0  0  0  0  0  0  0
    7.8409    1.4909  -60.2474 H   0  0  0  0  0  0  0  0  0  0  0  0
    7.4278    3.1058  -61.0704 H   0  0  0  0  0  0  0  0  0  0  0  0
    9.7545    1.4505  -58.6500 H   0  0  0  0  0  0  0  0  0  0  0  0
   12.0249    2.3706  -58.1972 H   0  0  0  0  0  0  0  0  0  0  0  0
   11.1293    5.8114  -60.6480 H   0  0  0  0  0  0  0  0  0  0  0  0
    8.8499    4.9063  -61.0898 H   0  0  0  0  0  0  0  0  0  0  0  0
    8.1897    3.2218  -57.6405 H   0  0  0  0  0  0  0  0  0  0  0  0
    6.9669    4.5028  -57.7344 H   0  0  0  0  0  0  0  0  0  0  0  0
  1  2  2  0
  2  3  1  0
  4  3  1  6
  4  5  1  0
  5  6  1  0
  6  7  1  0
  7  8  1  0
  8  9  1  0
  9 10  1  0
 10 11  1  0
 10 12  1  0
  8 13  1  0
  2 14  1  0
 14 15  1  0
 15 16  1  0
 16 17  1  0
 17 18  2  0
 18 19  1  0
 19 20  2  0
 20 21  1  0
 21 22  2  0
 16 23  1  0
 23 24  1  0
 24 25  1  0
 25 26  1  0
 26 27  2  0
 27 28  1  0
 28 29  1  0
 28 30  2  0
 30 31  1  0
 23 32  1  0
 12  4  1  0
 32 14  1  0
 13  4  1  0
 22 17  1  0
 31 25  2  0
 11  6  1  0
  3 33  1  0
  5 34  1  0
  5 35  1  0
  6 36  1  6
  7 37  1  0
  7 38  1  0
  8 39  1  1
  9 40  1  0
  9 41  1  0
 10 42  1  1
 11 43  1  0
 11 44  1  0
 12 45  1  0
 12 46  1  0
 13 47  1  0
 13 48  1  0
 14 49  1  1
 15 50  1  0
 15 51  1  0
 16 52  1  1
 18 53  1  0
 19 54  1  0
 20 55  1  0
 21 56  1  0
 22 57  1  0
 23 58  1  6
 24 59  1  0
 24 60  1  0
 26 61  1  0
 27 62  1  0
 30 63  1  0
 31 64  1  0
 32 65  1  0
 32 66  1  0
M  CHG  1  23   1
M  END
>  <meeko>  (47) 
{"is_sidechain": false}

$$$$

     RDKit          3D

 66 71  0  0  0  0  0  0  0  0999 V2000
    8.8670    1.7540  -55.7050 O   0  0  0  0  0  0  0  0  0  0  0  0
    7.6920    1.5210  -55.9740 C   0  0  0  0  0  0  0  0  0  0  0  0
    6.9550    0.4840  -55.4630 N   0  0  0  0  0  0  0  0  0  0  0  0
    7.4890   -0.5700  -54.5820 C   0  0  2  0  0  0  0  0  0  0  0  0
    7.4470   -0.1480  -53.0920 C   0  0  0  0  0  0  0  0  0  0  0  0
    7.9630   -1.2850  -52.1930 C   0  0  1  0  0  0  0  0  0  0  0  0
    7.0760   -2.5260  -52.3810 C   0  0  0  0  0  0  0  0  0  0  0  0
    7.1130   -2.9790  -53.8480 C   0  0  2  0  0  0  0  0  0  0  0  0
    8.5600   -3.3200  -54.2390 C   0  0  0  0  0  0  0  0  0  0  0  0
    9.4570   -2.0840  -54.0620 C   0  0  2  0  0  0  0  0  0  0  0  0
    9.4080   -1.6290  -52.5940 C   0  0  0  0  0  0  0  0  0  0  0  0
    8.9400   -0.9470  -54.9630 C   0  0  0  0  0  0  0  0  0  0  0  0
    6.6050   -1.8370  -54.7420 C   0  0  0  0  0  0  0  0  0  0  0  0
    6.9030    2.4810  -56.8440 C   0  0  1  0  0  0  0  0  0  0  0  0
    7.7200    3.7490  -57.0960 C   0  0  0  0  0  0  0  0  0  0  0  0
    8.4740    3.5220  -58.4250 C   0  0  1  0  0  0  0  0  0  0  0  0
    9.9710    3.6940  -58.3640 C   0  0  0  0  0  0  0  0  0  0  0  0
   10.5860    4.6860  -59.1470 C   0  0  0  0  0  0  0  0  0  0  0  0
   11.9720    4.8530  -59.1310 C   0  0  0  0  0  0  0  0  0  0  0  0
   12.7640    4.0330  -58.3330 C   0  0  0  0  0  0  0  0  0  0  0  0
   12.1720    3.0470  -57.5500 C   0  0  0  0  0  0  0  0  0  0  0  0
   10.7860    2.8770  -57.5640 C   0  0  0  0  0  0  0  0  0  0  0  0
    8.0540    2.1440  -58.8800 N   0  0  2  0  0  0  0  0  0  0  0  0
    8.1250    1.9130  -60.3570 C   0  0  0  0  0  0  0  0  0  0  0  0
    6.7710    1.9240  -61.0160 C   0  0  0  0  0  0  0  0  0  0  0  0
    5.7030    1.1970  -60.4690 C   0  0  0  0  0  0  0  0  0  0  0  0
    4.4560    1.1890  -61.1000 C   0  0  0  0  0  0  0  0  0  0  0  0
    4.2700    1.9060  -62.2810 C   0  0  0  0  0  0  0  0  0  0  0  0
    2.5850    1.8900  -63.1330 Br  0  0  0  0  0  0  0  0  0  0  0  0
    5.3200    2.6340  -62.8350 C   0  0  0  0  0  0  0  0  0  0  0  0
    6.5670    2.6440  -62.2060 C   0  0  0  0  0  0  0  0  0  0  0  0
    6.7220    1.8850  -58.2290 C   0  0  0  0  0  0  0  0  0  0  0  0
    6.0270    0.3180  -55.8360 H   0  0  0  0  0  0  0  0  0  0  0  0
    8.0795    0.7407  -52.9499 H   0  0  0  0  0  0  0  0  0  0  0  0
    6.4063    0.0779  -52.8163 H   0  0  0  0  0  0  0  0  0  0  0  0
    7.9339   -0.9672  -51.1403 H   0  0  0  0  0  0  0  0  0  0  0  0
    7.4458   -3.3390  -51.7390 H   0  0  0  0  0  0  0  0  0  0  0  0
    6.0408   -2.2757  -52.1058 H   0  0  0  0  0  0  0  0  0  0  0  0
    6.4755   -3.8660  -53.9774 H   0  0  0  0  0  0  0  0  0  0  0  0
    8.9291   -4.1331  -53.5966 H   0  0  0  0  0  0  0  0  0  0  0  0
    8.5847   -3.6366  -55.2922 H   0  0  0  0  0  0  0  0  0  0  0  0
   10.4917   -2.3345  -54.3389 H   0  0  0  0  0  0  0  0  0  0  0  0
    9.7810   -2.4389  -51.9498 H   0  0  0  0  0  0  0  0  0  0  0  0
   10.0367   -0.7344  -52.4740 H   0  0  0  0  0  0  0  0  0  0  0  0
    9.5869   -0.0658  -54.8406 H   0  0  0  0  0  0  0  0  0  0  0  0
    8.9559   -1.2872  -56.0090 H   0  0  0  0  0  0  0  0  0  0  0  0
    6.6308   -2.1635  -55.7921 H   0  0  0  0  0  0  0  0  0  0  0  0
    5.5767   -1.5873  -54.4414 H   0  0  0  0  0  0  0  0  0  0  0  0
    5.9505    2.6808  -56.3314 H   0  0  0  0  0  0  0  0  0  0  0  0
    7.0543    4.6206  -57.1799 H   0  0  0  0  0  0  0  0  0  0  0  0
    8.4180    3.9458  -56.2689 H   0  0  0  0  0  0  0  0  0  0  0  0
    8.2013    4.3059  -59.1469 H   0  0  0  0  0  0  0  0  0  0  0  0
    9.9676    5.3390  -59.7804 H   0  0  0  0  0  0  0  0  0  0  0  0
   12.4385    5.6336  -59.7499 H   0  0  0  0  0  0  0  0  0  0  0  0
   13.8561    4.1641  -58.3213 H   0  0  0  0  0  0  0  0  0  0  0  0
   12.7976    2.3995  -56.9181 H   0  0  0  0  0  0  0  0  0  0  0  0
   10.3276    2.0945  -56.9415 H   0  0  0  0  0  0  0  0  0  0  0  0
    8.7030    1.4640  -58.4430 H   0  0  0  0  0  0  0  0  0  0  0  0
    8.7413    2.7052  -60.8072 H   0  0  0  0  0  0  0  0  0  0  0  0
    8.5618    0.9159  -60.5153 H   0  0  0  0  0  0  0  0  0  0  0  0
    5.8480    0.6298  -59.5377 H   0  0  0  0  0  0  0  0  0  0  0  0
    3.6225    0.6178  -60.6654 H   0  0  0  0  0  0  0  0  0  0  0  0
    5.1676    3.1999  -63.7659 H   0  0  0  0  0  0  0  0  0  0  0  0
    7.3954    3.2194  -62.6449 H   0  0  0  0  0  0  0  0  0  0  0  0
    5.9100    2.3886  -58.7740 H   0  0  0  0  0  0  0  0  0  0  0  0
    6.4450    0.8206  -58.2123 H   0  0  0  0  0  0  0  0  0  0  0  0
  1  2  2  0
  2  3  1  0
  4  3  1  6
  4  5  1  0
  5  6  1  0
  6  7  1  0
  7  8  1  0
  8  9  1  0
  9 10  1  0
 10 11  1  0
 10 12  1  0
  8 13  1  0
  2 14  1  0
 14 15  1  0
 15 16  1  0
 16 17  1  0
 17 18  2  0
 18 19  1  0
 19 20  2  0
 20 21  1  0
 21 22  2  0
 16 23  1  0
 23 24  1  0
 24 25  1  0
 25 26  1  0
 26 27  2  0
 27 28  1  0
 28 29  1  0
 28 30  2  0
 30 31  1  0
 23 32  1  0
 12  4  1  0
 32 14  1  0
 13  4  1  0
 22 17  1  0
 31 25  2  0
 11  6  1  0
  3 33  1  0
  5 34  1  0
  5 35  1  0
  6 36  1  1
  7 37  1  0
  7 38  1  0
  8 39  1  1
  9 40  1  0
  9 41  1  0
 10 42  1  6
 11 43  1  0
 11 44  1  0
 12 45  1  0
 12 46  1  0
 13 47  1  0
 13 48  1  0
 14 49  1  1
 15 50  1  0
 15 51  1  0
 16 52  1  6
 18 53  1  0
 19 54  1  0
 20 55  1  0
 21 56  1  0
 22 57  1  0
 23 58  1  1
 24 59  1  0
 24 60  1  0
 26 61  1  0
 27 62  1  0
 30 63  1  0
 31 64  1  0
 32 65  1  0
 32 66  1  0
M  CHG  1  23   1
M  END
>  <meeko>  (48) 
{"is_sidechain": false}

$$$$

     RDKit          3D

 66 71  0  0  0  0  0  0  0  0999 V2000
    8.6010    1.5060  -55.9420 O   0  0  0  0  0  0  0  0  0  0  0  0
    9.7190    1.1680  -56.3080 C   0  0  0  0  0  0  0  0  0  0  0  0
   10.3850    1.6920  -57.3910 N   0  0  0  0  0  0  0  0  0  0  0  0
    9.8550    2.7610  -58.2560 C   0  0  2  0  0  0  0  0  0  0  0  0
   10.9150    3.0770  -59.3460 C   0  0  0  0  0  0  0  0  0  0  0  0
   10.4260    4.1920  -60.2850 C   0  0  1  0  0  0  0  0  0  0  0  0
    9.1260    3.7410  -60.9680 C   0  0  0  0  0  0  0  0  0  0  0  0
    8.0520    3.4450  -59.9090 C   0  0  2  0  0  0  0  0  0  0  0  0
    7.7910    4.7150  -59.0820 C   0  0  0  0  0  0  0  0  0  0  0  0
    9.0870    5.1750  -58.3930 C   0  0  2  0  0  0  0  0  0  0  0  0
   10.1550    5.4610  -59.4610 C   0  0  0  0  0  0  0  0  0  0  0  0
    9.5870    4.0600  -57.4570 C   0  0  0  0  0  0  0  0  0  0  0  0
    8.5530    2.3270  -58.9750 C   0  0  0  0  0  0  0  0  0  0  0  0
   10.4970    0.1100  -55.5600 C   0  0  2  0  0  0  0  0  0  0  0  0
   11.1260   -0.9300  -56.4720 C   0  0  0  0  0  0  0  0  0  0  0  0
   11.3870   -2.0980  -55.5240 C   0  0  2  0  0  0  0  0  0  0  0  0
   11.6160   -3.4290  -56.1940 C   0  0  0  0  0  0  0  0  0  0  0  0
   11.9130   -4.5900  -55.4590 C   0  0  0  0  0  0  0  0  0  0  0  0
   12.1510   -5.8020  -56.1090 C   0  0  0  0  0  0  0  0  0  0  0  0
   12.0980   -5.8730  -57.4990 C   0  0  0  0  0  0  0  0  0  0  0  0
   11.8040   -4.7330  -58.2410 C   0  0  0  0  0  0  0  0  0  0  0  0
   11.5650   -3.5200  -57.5950 C   0  0  0  0  0  0  0  0  0  0  0  0
   10.1720   -2.1000  -54.6240 N   0  0  1  0  0  0  0  0  0  0  0  0
   10.4180   -2.6590  -53.2510 C   0  0  0  0  0  0  0  0  0  0  0  0
    9.1380   -3.0330  -52.5530 C   0  0  0  0  0  0  0  0  0  0  0  0
    9.0440   -2.9350  -51.1540 C   0  0  0  0  0  0  0  0  0  0  0  0
    7.8710   -3.3090  -50.4950 C   0  0  0  0  0  0  0  0  0  0  0  0
    6.7860   -3.7850  -51.2280 C   0  0  0  0  0  0  0  0  0  0  0  0
    5.1990   -4.2910  -50.3360 Br  0  0  0  0  0  0  0  0  0  0  0  0
    6.8630   -3.8860  -52.6150 C   0  0  0  0  0  0  0  0  0  0  0  0
    8.0350   -3.5120  -53.2770 C   0  0  0  0  0  0  0  0  0  0  0  0
    9.5690   -0.7060  -54.6640 C   0  0  0  0  0  0  0  0  0  0  0  0
   11.3720    1.4950  -57.4950 H   0  0  0  0  0  0  0  0  0  0  0  0
   11.8466    3.4003  -58.8585 H   0  0  0  0  0  0  0  0  0  0  0  0
   11.0863    2.1681  -59.9415 H   0  0  0  0  0  0  0  0  0  0  0  0
   11.1908    4.4017  -61.0473 H   0  0  0  0  0  0  0  0  0  0  0  0
    8.7693    4.5391  -61.6356 H   0  0  0  0  0  0  0  0  0  0  0  0
    9.3213    2.8280  -61.5497 H   0  0  0  0  0  0  0  0  0  0  0  0
    7.1227    3.1266  -60.4041 H   0  0  0  0  0  0  0  0  0  0  0  0
    7.4294    5.5136  -59.7465 H   0  0  0  0  0  0  0  0  0  0  0  0
    7.0347    4.4946  -58.3143 H   0  0  0  0  0  0  0  0  0  0  0  0
    8.8940    6.0878  -57.8103 H   0  0  0  0  0  0  0  0  0  0  0  0
    9.7985    6.2596  -60.1282 H   0  0  0  0  0  0  0  0  0  0  0  0
   11.0855    5.7764  -58.9664 H   0  0  0  0  0  0  0  0  0  0  0  0
   10.5191    4.3854  -56.9719 H   0  0  0  0  0  0  0  0  0  0  0  0
    8.8154    3.8589  -56.6993 H   0  0  0  0  0  0  0  0  0  0  0  0
    7.7798    2.1101  -58.2233 H   0  0  0  0  0  0  0  0  0  0  0  0
    8.7614    1.4294  -59.5757 H   0  0  0  0  0  0  0  0  0  0  0  0
   11.2653    0.6725  -55.0093 H   0  0  0  0  0  0  0  0  0  0  0  0
   10.4354   -1.2202  -57.2775 H   0  0  0  0  0  0  0  0  0  0  0  0
   12.0328   -0.5714  -56.9810 H   0  0  0  0  0  0  0  0  0  0  0  0
   12.3346   -1.9607  -54.9825 H   0  0  0  0  0  0  0  0  0  0  0  0
   11.9583   -4.5428  -54.3609 H   0  0  0  0  0  0  0  0  0  0  0  0
   12.3810   -6.7034  -55.5220 H   0  0  0  0  0  0  0  0  0  0  0  0
   12.2882   -6.8286  -58.0094 H   0  0  0  0  0  0  0  0  0  0  0  0
   11.7600   -4.7885  -59.3387 H   0  0  0  0  0  0  0  0  0  0  0  0
   11.3338   -2.6239  -58.1897 H   0  0  0  0  0  0  0  0  0  0  0  0
    9.4820   -2.7280  -55.0560 H   0  0  0  0  0  0  0  0  0  0  0  0
   11.0478   -3.5563  -53.3412 H   0  0  0  0  0  0  0  0  0  0  0  0
   10.9145   -1.8807  -52.6529 H   0  0  0  0  0  0  0  0  0  0  0  0
    9.9006   -2.5610  -50.5741 H   0  0  0  0  0  0  0  0  0  0  0  0
    7.8038   -3.2280  -49.4000 H   0  0  0  0  0  0  0  0  0  0  0  0
    6.0020   -4.2598  -53.1885 H   0  0  0  0  0  0  0  0  0  0  0  0
    8.0938   -3.5934  -54.3724 H   0  0  0  0  0  0  0  0  0  0  0  0
    8.5543   -0.7374  -55.0875 H   0  0  0  0  0  0  0  0  0  0  0  0
    9.4814   -0.2686  -53.6585 H   0  0  0  0  0  0  0  0  0  0  0  0
  1  2  2  0
  2  3  1  0
  4  3  1  1
  4  5  1  0
  5  6  1  0
  6  7  1  0
  7  8  1  0
  8  9  1  0
  9 10  1  0
 10 11  1  0
 10 12  1  0
  8 13  1  0
  2 14  1  0
 14 15  1  0
 15 16  1  0
 16 17  1  0
 17 18  2  0
 18 19  1  0
 19 20  2  0
 20 21  1  0
 21 22  2  0
 16 23  1  0
 23 24  1  0
 24 25  1  0
 25 26  1  0
 26 27  2  0
 27 28  1  0
 28 29  1  0
 28 30  2  0
 30 31  1  0
 23 32  1  0
 12  4  1  0
 32 14  1  0
 13  4  1  0
 22 17  1  0
 31 25  2  0
 11  6  1  0
  3 33  1  0
  5 34  1  0
  5 35  1  0
  6 36  1  6
  7 37  1  0
  7 38  1  0
  8 39  1  6
  9 40  1  0
  9 41  1  0
 10 42  1  1
 11 43  1  0
 11 44  1  0
 12 45  1  0
 12 46  1  0
 13 47  1  0
 13 48  1  0
 14 49  1  1
 15 50  1  0
 15 51  1  0
 16 52  1  1
 18 53  1  0
 19 54  1  0
 20 55  1  0
 21 56  1  0
 22 57  1  0
 23 58  1  6
 24 59  1  0
 24 60  1  0
 26 61  1  0
 27 62  1  0
 30 63  1  0
 31 64  1  0
 32 65  1  0
 32 66  1  0
M  CHG  1  23   1
M  END
>  <meeko>  (49) 
{"is_sidechain": false}

$$$$

     RDKit          3D

 66 71  0  0  0  0  0  0  0  0999 V2000
    6.2400    1.1340  -56.0980 O   0  0  0  0  0  0  0  0  0  0  0  0
    7.3720    0.9900  -55.6530 C   0  0  0  0  0  0  0  0  0  0  0  0
    8.5220    1.4400  -56.2640 N   0  0  0  0  0  0  0  0  0  0  0  0
    8.5350    2.2600  -57.4890 C   0  0  2  0  0  0  0  0  0  0  0  0
    9.9470    2.1550  -58.1290 C   0  0  0  0  0  0  0  0  0  0  0  0
   10.0360    2.9940  -59.4130 C   0  0  1  0  0  0  0  0  0  0  0  0
    8.9950    2.4840  -60.4210 C   0  0  0  0  0  0  0  0  0  0  0  0
    7.5850    2.5980  -59.8210 C   0  0  2  0  0  0  0  0  0  0  0  0
    7.2960    4.0700  -59.4770 C   0  0  0  0  0  0  0  0  0  0  0  0
    8.3340    4.5920  -58.4680 C   0  0  2  0  0  0  0  0  0  0  0  0
    9.7400    4.4640  -59.0750 C   0  0  0  0  0  0  0  0  0  0  0  0
    8.2570    3.7510  -57.1810 C   0  0  0  0  0  0  0  0  0  0  0  0
    7.5090    1.7550  -58.5360 C   0  0  0  0  0  0  0  0  0  0  0  0
    7.6220    0.1670  -54.4120 C   0  0  1  0  0  0  0  0  0  0  0  0
    7.2430   -1.3020  -54.5680 C   0  0  0  0  0  0  0  0  0  0  0  0
    8.2280   -2.0910  -53.6940 C   0  0  2  0  0  0  0  0  0  0  0  0
    7.6410   -2.7190  -52.4520 C   0  0  0  0  0  0  0  0  0  0  0  0
    7.9950   -2.2900  -51.1610 C   0  0  0  0  0  0  0  0  0  0  0  0
    7.4690   -2.9230  -50.0320 C   0  0  0  0  0  0  0  0  0  0  0  0
    6.5880   -3.9910  -50.1750 C   0  0  0  0  0  0  0  0  0  0  0  0
    6.2300   -4.4300  -51.4460 C   0  0  0  0  0  0  0  0  0  0  0  0
    6.7530   -3.8010  -52.5770 C   0  0  0  0  0  0  0  0  0  0  0  0
    9.3180   -1.0970  -53.3300 N   0  0  1  0  0  0  0  0  0  0  0  0
   10.7050   -1.6770  -53.3580 C   0  0  0  0  0  0  0  0  0  0  0  0
   10.9720   -2.4480  -54.6230 C   0  0  0  0  0  0  0  0  0  0  0  0
   10.9460   -3.8520  -54.6140 C   0  0  0  0  0  0  0  0  0  0  0  0
   11.2280   -4.5720  -55.7780 C   0  0  0  0  0  0  0  0  0  0  0  0
   11.5410   -3.8950  -56.9540 C   0  0  0  0  0  0  0  0  0  0  0  0
   11.9270   -4.8690  -58.5240 Br  0  0  0  0  0  0  0  0  0  0  0  0
   11.5700   -2.5020  -56.9780 C   0  0  0  0  0  0  0  0  0  0  0  0
   11.2860   -1.7800  -55.8160 C   0  0  0  0  0  0  0  0  0  0  0  0
    9.1210    0.1170  -54.1990 C   0  0  0  0  0  0  0  0  0  0  0  0
    9.3580    1.5140  -55.6960 H   0  0  0  0  0  0  0  0  0  0  0  0
   10.6955    2.5187  -57.4096 H   0  0  0  0  0  0  0  0  0  0  0  0
   10.1369    1.1023  -58.3856 H   0  0  0  0  0  0  0  0  0  0  0  0
   11.0434    2.9091  -59.8465 H   0  0  0  0  0  0  0  0  0  0  0  0
    9.0504    3.0874  -61.3391 H   0  0  0  0  0  0  0  0  0  0  0  0
    9.2044    1.4298  -60.6551 H   0  0  0  0  0  0  0  0  0  0  0  0
    6.8443    2.2340  -60.5483 H   0  0  0  0  0  0  0  0  0  0  0  0
    7.3452    4.6743  -60.3948 H   0  0  0  0  0  0  0  0  0  0  0  0
    6.2928    4.1450  -59.0321 H   0  0  0  0  0  0  0  0  0  0  0  0
    8.1268    5.6467  -58.2344 H   0  0  0  0  0  0  0  0  0  0  0  0
    9.7965    5.0672  -59.9931 H   0  0  0  0  0  0  0  0  0  0  0  0
   10.4816    4.8228  -58.3461 H   0  0  0  0  0  0  0  0  0  0  0  0
    9.0058    4.1180  -56.4637 H   0  0  0  0  0  0  0  0  0  0  0  0
    7.2467    3.8436  -56.7560 H   0  0  0  0  0  0  0  0  0  0  0  0
    6.4958    1.8298  -58.1142 H   0  0  0  0  0  0  0  0  0  0  0  0
    7.7422    0.7091  -58.7844 H   0  0  0  0  0  0  0  0  0  0  0  0
    7.0314    0.6301  -53.6078 H   0  0  0  0  0  0  0  0  0  0  0  0
    6.2110   -1.4684  -54.2256 H   0  0  0  0  0  0  0  0  0  0  0  0
    7.2944   -1.6208  -55.6195 H   0  0  0  0  0  0  0  0  0  0  0  0
    8.5895   -2.9603  -54.2630 H   0  0  0  0  0  0  0  0  0  0  0  0
    8.6925   -1.4483  -51.0385 H   0  0  0  0  0  0  0  0  0  0  0  0
    7.7520   -2.5763  -49.0272 H   0  0  0  0  0  0  0  0  0  0  0  0
    6.1752   -4.4874  -49.2844 H   0  0  0  0  0  0  0  0  0  0  0  0
    5.5338   -5.2740  -51.5596 H   0  0  0  0  0  0  0  0  0  0  0  0
    6.4667   -4.1564  -53.5779 H   0  0  0  0  0  0  0  0  0  0  0  0
    9.1500   -0.8150  -52.3560 H   0  0  0  0  0  0  0  0  0  0  0  0
   11.4339   -0.8566  -53.2823 H   0  0  0  0  0  0  0  0  0  0  0  0
   10.7977   -2.3733  -52.5115 H   0  0  0  0  0  0  0  0  0  0  0  0
   10.7022   -4.3883  -53.6851 H   0  0  0  0  0  0  0  0  0  0  0  0
   11.2028   -5.6716  -55.7653 H   0  0  0  0  0  0  0  0  0  0  0  0
   11.8160   -1.9719  -57.9099 H   0  0  0  0  0  0  0  0  0  0  0  0
   11.3088   -0.6804  -55.8367 H   0  0  0  0  0  0  0  0  0  0  0  0
    9.4753    1.0254  -53.6899 H   0  0  0  0  0  0  0  0  0  0  0  0
    9.6839    0.0617  -55.1424 H   0  0  0  0  0  0  0  0  0  0  0  0
  1  2  2  0
  2  3  1  0
  4  3  1  1
  4  5  1  0
  5  6  1  0
  6  7  1  0
  7  8  1  0
  8  9  1  0
  9 10  1  0
 10 11  1  0
 10 12  1  0
  8 13  1  0
  2 14  1  0
 14 15  1  0
 15 16  1  0
 16 17  1  0
 17 18  2  0
 18 19  1  0
 19 20  2  0
 20 21  1  0
 21 22  2  0
 16 23  1  0
 23 24  1  0
 24 25  1  0
 25 26  1  0
 26 27  2  0
 27 28  1  0
 28 29  1  0
 28 30  2  0
 30 31  1  0
 23 32  1  0
 12  4  1  0
 32 14  1  0
 13  4  1  0
 22 17  1  0
 31 25  2  0
 11  6  1  0
  3 33  1  0
  5 34  1  0
  5 35  1  0
  6 36  1  6
  7 37  1  0
  7 38  1  0
  8 39  1  6
  9 40  1  0
  9 41  1  0
 10 42  1  1
 11 43  1  0
 11 44  1  0
 12 45  1  0
 12 46  1  0
 13 47  1  0
 13 48  1  0
 14 49  1  1
 15 50  1  0
 15 51  1  0
 16 52  1  6
 18 53  1  0
 19 54  1  0
 20 55  1  0
 21 56  1  0
 22 57  1  0
 23 58  1  1
 24 59  1  0
 24 60  1  0
 26 61  1  0
 27 62  1  0
 30 63  1  0
 31 64  1  0
 32 65  1  0
 32 66  1  0
M  CHG  1  23   1
M  END
>  <meeko>  (50) 
{"is_sidechain": false}

$$$$

     RDKit          3D

 66 71  0  0  0  0  0  0  0  0999 V2000
    9.1130    1.1590  -55.2990 O   0  0  0  0  0  0  0  0  0  0  0  0
    7.9170    1.1330  -55.5810 C   0  0  0  0  0  0  0  0  0  0  0  0
    7.3060    1.9290  -56.5150 N   0  0  0  0  0  0  0  0  0  0  0  0
    8.0080    2.8720  -57.4010 C   0  0  2  0  0  0  0  0  0  0  0  0
    8.5030    4.1230  -56.6320 C   0  0  0  0  0  0  0  0  0  0  0  0
    9.1900    5.1120  -57.5900 C   0  0  1  0  0  0  0  0  0  0  0  0
   10.3820    4.4140  -58.2670 C   0  0  0  0  0  0  0  0  0  0  0  0
    9.8980    3.1920  -59.0650 C   0  0  2  0  0  0  0  0  0  0  0  0
    8.8900    3.6500  -60.1310 C   0  0  0  0  0  0  0  0  0  0  0  0
    7.6920    4.3400  -59.4580 C   0  0  2  0  0  0  0  0  0  0  0  0
    8.1870    5.5590  -58.6640 C   0  0  0  0  0  0  0  0  0  0  0  0
    7.0160    3.3520  -58.4960 C   0  0  0  0  0  0  0  0  0  0  0  0
    9.2110    2.2010  -58.1080 C   0  0  0  0  0  0  0  0  0  0  0  0
    6.9700    0.2590  -54.7830 C   0  0  2  0  0  0  0  0  0  0  0  0
    7.4730    0.1340  -53.3490 C   0  0  0  0  0  0  0  0  0  0  0  0
    8.5750   -0.9520  -53.4000 C   0  0  1  0  0  0  0  0  0  0  0  0
    8.6140   -1.8460  -52.1830 C   0  0  0  0  0  0  0  0  0  0  0  0
    9.7070   -2.6850  -51.9010 C   0  0  0  0  0  0  0  0  0  0  0  0
    9.7210   -3.4770  -50.7520 C   0  0  0  0  0  0  0  0  0  0  0  0
    8.6470   -3.4420  -49.8650 C   0  0  0  0  0  0  0  0  0  0  0  0
    7.5590   -2.6150  -50.1270 C   0  0  0  0  0  0  0  0  0  0  0  0
    7.5420   -1.8220  -51.2750 C   0  0  0  0  0  0  0  0  0  0  0  0
    8.3590   -1.6580  -54.7340 N   0  0  1  0  0  0  0  0  0  0  0  0
    8.6240   -3.1300  -54.8180 C   0  0  0  0  0  0  0  0  0  0  0  0
    9.9490   -3.4440  -55.4670 C   0  0  0  0  0  0  0  0  0  0  0  0
   10.4160   -4.7660  -55.5280 C   0  0  0  0  0  0  0  0  0  0  0  0
   11.6290   -5.0600  -56.1540 C   0  0  0  0  0  0  0  0  0  0  0  0
   12.3810   -4.0360  -56.7250 C   0  0  0  0  0  0  0  0  0  0  0  0
   14.0200   -4.4370  -57.5770 Br  0  0  0  0  0  0  0  0  0  0  0  0
   11.9330   -2.7190  -56.6710 C   0  0  0  0  0  0  0  0  0  0  0  0
   10.7200   -2.4230  -56.0440 C   0  0  0  0  0  0  0  0  0  0  0  0
    7.0400   -1.1760  -55.2800 C   0  0  0  0  0  0  0  0  0  0  0  0
    6.3330    1.7550  -56.7400 H   0  0  0  0  0  0  0  0  0  0  0  0
    7.6436    4.6183  -56.1565 H   0  0  0  0  0  0  0  0  0  0  0  0
    9.2296    3.8056  -55.8695 H   0  0  0  0  0  0  0  0  0  0  0  0
    9.5433    5.9888  -57.0275 H   0  0  0  0  0  0  0  0  0  0  0  0
   10.8773    5.1206  -58.9492 H   0  0  0  0  0  0  0  0  0  0  0  0
   11.0894    4.0805  -57.4935 H   0  0  0  0  0  0  0  0  0  0  0  0
   10.7550    2.7033  -59.5516 H   0  0  0  0  0  0  0  0  0  0  0  0
    9.3802    4.3572  -60.8162 H   0  0  0  0  0  0  0  0  0  0  0  0
    8.5340    2.7736  -60.6924 H   0  0  0  0  0  0  0  0  0  0  0  0
    6.9734    4.6648  -60.2248 H   0  0  0  0  0  0  0  0  0  0  0  0
    8.6775    6.2659  -59.3494 H   0  0  0  0  0  0  0  0  0  0  0  0
    7.3293    6.0467  -58.1776 H   0  0  0  0  0  0  0  0  0  0  0  0
    6.1607    3.8479  -58.0138 H   0  0  0  0  0  0  0  0  0  0  0  0
    6.6804    2.4770  -59.0719 H   0  0  0  0  0  0  0  0  0  0  0  0
    8.8550    1.3324  -58.6814 H   0  0  0  0  0  0  0  0  0  0  0  0
    9.9375    1.8819  -57.3461 H   0  0  0  0  0  0  0  0  0  0  0  0
    5.9696    0.7081  -54.8700 H   0  0  0  0  0  0  0  0  0  0  0  0
    7.8898    1.0908  -53.0014 H   0  0  0  0  0  0  0  0  0  0  0  0
    6.6653   -0.1316  -52.6511 H   0  0  0  0  0  0  0  0  0  0  0  0
    9.5859   -0.5205  -53.3556 H   0  0  0  0  0  0  0  0  0  0  0  0
   10.5606   -2.7173  -52.5940 H   0  0  0  0  0  0  0  0  0  0  0  0
   10.5817   -4.1303  -50.5462 H   0  0  0  0  0  0  0  0  0  0  0  0
    8.6592   -4.0667  -48.9597 H   0  0  0  0  0  0  0  0  0  0  0  0
    6.7105   -2.5863  -49.4276 H   0  0  0  0  0  0  0  0  0  0  0  0
    6.6783   -1.1698  -51.4717 H   0  0  0  0  0  0  0  0  0  0  0  0
    9.0510   -1.2200  -55.3700 H   0  0  0  0  0  0  0  0  0  0  0  0
    8.6225   -3.5470  -53.8001 H   0  0  0  0  0  0  0  0  0  0  0  0
    7.8340   -3.5761  -55.4400 H   0  0  0  0  0  0  0  0  0  0  0  0
    9.8223   -5.5762  -55.0795 H   0  0  0  0  0  0  0  0  0  0  0  0
   11.9900   -6.0982  -56.1961 H   0  0  0  0  0  0  0  0  0  0  0  0
   12.5323   -1.9137  -57.1207 H   0  0  0  0  0  0  0  0  0  0  0  0
   10.3667   -1.3821  -56.0023 H   0  0  0  0  0  0  0  0  0  0  0  0
    7.0288   -1.2150  -56.3793 H   0  0  0  0  0  0  0  0  0  0  0  0
    6.1861   -1.7895  -54.9568 H   0  0  0  0  0  0  0  0  0  0  0  0
  1  2  2  0
  2  3  1  0
  4  3  1  1
  4  5  1  0
  5  6  1  0
  6  7  1  0
  7  8  1  0
  8  9  1  0
  9 10  1  0
 10 11  1  0
 10 12  1  0
  8 13  1  0
  2 14  1  0
 14 15  1  0
 15 16  1  0
 16 17  1  0
 17 18  2  0
 18 19  1  0
 19 20  2  0
 20 21  1  0
 21 22  2  0
 16 23  1  0
 23 24  1  0
 24 25  1  0
 25 26  1  0
 26 27  2  0
 27 28  1  0
 28 29  1  0
 28 30  2  0
 30 31  1  0
 23 32  1  0
 12  4  1  0
 32 14  1  0
 13  4  1  0
 22 17  1  0
 31 25  2  0
 11  6  1  0
  3 33  1  0
  5 34  1  0
  5 35  1  0
  6 36  1  1
  7 37  1  0
  7 38  1  0
  8 39  1  6
  9 40  1  0
  9 41  1  0
 10 42  1  6
 11 43  1  0
 11 44  1  0
 12 45  1  0
 12 46  1  0
 13 47  1  0
 13 48  1  0
 14 49  1  1
 15 50  1  0
 15 51  1  0
 16 52  1  6
 18 53  1  0
 19 54  1  0
 20 55  1  0
 21 56  1  0
 22 57  1  0
 23 58  1  6
 24 59  1  0
 24 60  1  0
 26 61  1  0
 27 62  1  0
 30 63  1  0
 31 64  1  0
 32 65  1  0
 32 66  1  0
M  CHG  1  23   1
M  END
>  <meeko>  (51) 
{"is_sidechain": false}

$$$$

     RDKit          3D

 66 71  0  0  0  0  0  0  0  0999 V2000
   10.0970    1.2460  -55.9160 O   0  0  0  0  0  0  0  0  0  0  0  0
    8.8750    1.1960  -55.8580 C   0  0  0  0  0  0  0  0  0  0  0  0
    8.1540    0.1540  -55.3220 N   0  0  0  0  0  0  0  0  0  0  0  0
    8.7650   -0.9980  -54.6320 C   0  0  2  0  0  0  0  0  0  0  0  0
   10.0960   -1.4340  -55.2970 C   0  0  0  0  0  0  0  0  0  0  0  0
   10.6780   -2.6670  -54.5860 C   0  0  1  0  0  0  0  0  0  0  0  0
   10.9240   -2.3280  -53.1050 C   0  0  0  0  0  0  0  0  0  0  0  0
    9.6020   -1.9310  -52.4260 C   0  0  2  0  0  0  0  0  0  0  0  0
    8.6060   -3.0970  -52.5350 C   0  0  0  0  0  0  0  0  0  0  0  0
    8.3520   -3.4350  -54.0130 C   0  0  2  0  0  0  0  0  0  0  0  0
    9.6780   -3.8300  -54.6810 C   0  0  0  0  0  0  0  0  0  0  0  0
    7.7800   -2.1960  -54.7200 C   0  0  0  0  0  0  0  0  0  0  0  0
    9.0180   -0.6970  -53.1350 C   0  0  0  0  0  0  0  0  0  0  0  0
    8.0230    2.2580  -56.5150 C   0  0  1  0  0  0  0  0  0  0  0  0
    8.6530    3.6550  -56.4810 C   0  0  0  0  0  0  0  0  0  0  0  0
    8.7050    4.1740  -57.9270 C   0  0  1  0  0  0  0  0  0  0  0  0
   10.1080    4.3510  -58.4670 C   0  0  0  0  0  0  0  0  0  0  0  0
   11.1750    3.5070  -58.1220 C   0  0  0  0  0  0  0  0  0  0  0  0
   12.4500    3.7090  -58.6550 C   0  0  0  0  0  0  0  0  0  0  0  0
   12.6840    4.7600  -59.5380 C   0  0  0  0  0  0  0  0  0  0  0  0
   11.6440    5.6170  -59.8810 C   0  0  0  0  0  0  0  0  0  0  0  0
   10.3680    5.4170  -59.3490 C   0  0  0  0  0  0  0  0  0  0  0  0
    7.7920    3.2180  -58.6830 N   0  0  1  0  0  0  0  0  0  0  0  0
    7.9440    3.1330  -60.1780 C   0  0  0  0  0  0  0  0  0  0  0  0
    6.6960    2.6740  -60.8850 C   0  0  0  0  0  0  0  0  0  0  0  0
    5.5960    2.1780  -60.1650 C   0  0  0  0  0  0  0  0  0  0  0  0
    4.4400    1.7630  -60.8310 C   0  0  0  0  0  0  0  0  0  0  0  0
    4.3770    1.8310  -62.2210 C   0  0  0  0  0  0  0  0  0  0  0  0
    2.8110    1.2730  -63.1180 Br  0  0  0  0  0  0  0  0  0  0  0  0
    5.4640    2.3020  -62.9510 C   0  0  0  0  0  0  0  0  0  0  0  0
    6.6210    2.7160  -62.2860 C   0  0  0  0  0  0  0  0  0  0  0  0
    7.9010    1.8940  -57.9830 C   0  0  0  0  0  0  0  0  0  0  0  0
    7.1900    0.3350  -55.0650 H   0  0  0  0  0  0  0  0  0  0  0  0
    9.9090   -1.6802  -56.3527 H   0  0  0  0  0  0  0  0  0  0  0  0
   10.8177   -0.6074  -55.2211 H   0  0  0  0  0  0  0  0  0  0  0  0
   11.6258   -2.9562  -55.0636 H   0  0  0  0  0  0  0  0  0  0  0  0
   11.3447   -3.2075  -52.5956 H   0  0  0  0  0  0  0  0  0  0  0  0
   11.6283   -1.4855  -53.0411 H   0  0  0  0  0  0  0  0  0  0  0  0
    9.7850   -1.6977  -51.3667 H   0  0  0  0  0  0  0  0  0  0  0  0
    9.0209   -3.9793  -52.0256 H   0  0  0  0  0  0  0  0  0  0  0  0
    7.6561   -2.8059  -52.0627 H   0  0  0  0  0  0  0  0  0  0  0  0
    7.6395   -4.2700  -54.0854 H   0  0  0  0  0  0  0  0  0  0  0  0
   10.0945   -4.7117  -54.1719 H   0  0  0  0  0  0  0  0  0  0  0  0
    9.4945   -4.0644  -55.7400 H   0  0  0  0  0  0  0  0  0  0  0  0
    7.6007   -2.4368  -55.7782 H   0  0  0  0  0  0  0  0  0  0  0  0
    6.8401   -1.9130  -54.2236 H   0  0  0  0  0  0  0  0  0  0  0  0
    8.0670   -0.4211  -52.6559 H   0  0  0  0  0  0  0  0  0  0  0  0
    9.7378    0.1310  -53.0564 H   0  0  0  0  0  0  0  0  0  0  0  0
    7.0682    2.2911  -55.9697 H   0  0  0  0  0  0  0  0  0  0  0  0
    8.0411    4.3279  -55.8623 H   0  0  0  0  0  0  0  0  0  0  0  0
    9.6632    3.6139  -56.0477 H   0  0  0  0  0  0  0  0  0  0  0  0
    8.3471    5.2087  -58.0337 H   0  0  0  0  0  0  0  0  0  0  0  0
   11.0048    2.6753  -57.4225 H   0  0  0  0  0  0  0  0  0  0  0  0
   13.2731    3.0348  -58.3760 H   0  0  0  0  0  0  0  0  0  0  0  0
   13.6874    4.9117  -59.9625 H   0  0  0  0  0  0  0  0  0  0  0  0
   11.8263    6.4533  -60.5720 H   0  0  0  0  0  0  0  0  0  0  0  0
    9.5534    6.1033  -59.6236 H   0  0  0  0  0  0  0  0  0  0  0  0
    6.8420    3.5670  -58.5230 H   0  0  0  0  0  0  0  0  0  0  0  0
    8.2122    4.1299  -60.5577 H   0  0  0  0  0  0  0  0  0  0  0  0
    8.7241    2.3846  -60.3812 H   0  0  0  0  0  0  0  0  0  0  0  0
    5.6454    2.1159  -59.0679 H   0  0  0  0  0  0  0  0  0  0  0  0
    3.5809    1.3831  -60.2586 H   0  0  0  0  0  0  0  0  0  0  0  0
    5.4125    2.3483  -64.0488 H   0  0  0  0  0  0  0  0  0  0  0  0
    7.4821    3.0786  -62.8665 H   0  0  0  0  0  0  0  0  0  0  0  0
    7.0031    1.2839  -58.1603 H   0  0  0  0  0  0  0  0  0  0  0  0
    8.7525    1.2969  -58.3412 H   0  0  0  0  0  0  0  0  0  0  0  0
  1  2  2  0
  2  3  1  0
  4  3  1  6
  4  5  1  0
  5  6  1  0
  6  7  1  0
  7  8  1  0
  8  9  1  0
  9 10  1  0
 10 11  1  0
 10 12  1  0
  8 13  1  0
  2 14  1  0
 14 15  1  0
 15 16  1  0
 16 17  1  0
 17 18  2  0
 18 19  1  0
 19 20  2  0
 20 21  1  0
 21 22  2  0
 16 23  1  0
 23 24  1  0
 24 25  1  0
 25 26  1  0
 26 27  2  0
 27 28  1  0
 28 29  1  0
 28 30  2  0
 30 31  1  0
 23 32  1  0
 12  4  1  0
 32 14  1  0
 13  4  1  0
 22 17  1  0
 31 25  2  0
 11  6  1  0
  3 33  1  0
  5 34  1  0
  5 35  1  0
  6 36  1  6
  7 37  1  0
  7 38  1  0
  8 39  1  1
  9 40  1  0
  9 41  1  0
 10 42  1  1
 11 43  1  0
 11 44  1  0
 12 45  1  0
 12 46  1  0
 13 47  1  0
 13 48  1  0
 14 49  1  1
 15 50  1  0
 15 51  1  0
 16 52  1  1
 18 53  1  0
 19 54  1  0
 20 55  1  0
 21 56  1  0
 22 57  1  0
 23 58  1  6
 24 59  1  0
 24 60  1  0
 26 61  1  0
 27 62  1  0
 30 63  1  0
 31 64  1  0
 32 65  1  0
 32 66  1  0
M  CHG  1  23   1
M  END
>  <meeko>  (52) 
{"is_sidechain": false}

$$$$

     RDKit          3D

 70 74  0  0  0  0  0  0  0  0999 V2000
    9.4470    3.7580  -56.3940 C   0  0  0  0  0  0  0  0  0  0  0  0
    8.4600    2.9870  -57.1970 C   0  0  0  0  0  0  0  0  0  0  0  0
    7.8420    1.7670  -56.8110 C   0  0  0  0  0  0  0  0  0  0  0  0
    8.0140    1.0170  -55.5500 C   0  0  0  0  0  0  0  0  0  0  0  0
    7.2250    1.0850  -54.6130 O   0  0  0  0  0  0  0  0  0  0  0  0
    9.1430    0.2260  -55.5460 N   0  0  0  0  0  0  0  0  0  0  0  0
    9.4340   -0.7530  -54.5050 C   0  0  1  0  0  0  0  0  0  0  0  0
    8.3470   -1.8360  -54.5020 C   0  0  0  0  0  0  0  0  0  0  0  0
    8.7300   -3.2610  -54.1000 C   0  0  2  0  0  0  0  0  0  0  0  0
    9.5340   -3.3420  -52.7930 C   0  0  0  0  0  0  0  0  0  0  0  0
   11.0510   -3.1570  -52.9550 C   0  0  1  0  0  0  0  0  0  0  0  0
   11.5890   -4.0580  -54.0660 C   0  0  0  0  0  0  0  0  0  0  0  0
   10.9000   -3.6990  -55.3830 C   0  0  1  0  0  0  0  0  0  0  0  0
    9.4090   -4.0090  -55.2560 C   0  0  0  0  0  0  0  0  0  0  0  0
   11.1650   -2.2310  -55.7520 C   0  0  0  0  0  0  0  0  0  0  0  0
   10.9010   -1.2170  -54.6230 C   0  0  2  0  0  0  0  0  0  0  0  0
   11.4350   -1.7110  -53.2690 C   0  0  0  0  0  0  0  0  0  0  0  0
    7.0400    1.3030  -57.7850 N   0  0  0  0  0  0  0  0  0  0  0  0
    7.0180    2.2820  -58.7250 N   0  0  0  0  0  0  0  0  0  0  0  0
    6.0300    2.1990  -59.7500 C   0  0  0  0  0  0  0  0  0  0  0  0
    6.3560    2.3450  -61.1030 C   0  0  0  0  0  0  0  0  0  0  0  0
    5.3580    2.2710  -62.0830 C   0  0  0  0  0  0  0  0  0  0  0  0
    4.0240    2.0660  -61.7050 C   0  0  0  0  0  0  0  0  0  0  0  0
    2.9790    1.9890  -62.7320 N   0  0  0  0  0  0  0  0  0  0  0  0
    2.6100    0.8630  -63.0950 O   0  0  0  0  0  0  0  0  0  0  0  0
    2.5310    3.0540  -63.1790 O   0  0  0  0  0  0  0  0  0  0  0  0
    3.6810    1.9540  -60.3530 C   0  0  0  0  0  0  0  0  0  0  0  0
    4.6820    2.0330  -59.3810 C   0  0  0  0  0  0  0  0  0  0  0  0
    8.0110    3.2270  -58.4910 C   0  0  0  0  0  0  0  0  0  0  0  0
    8.5270    4.2340  -59.4850 C   0  0  0  0  0  0  0  0  0  0  0  0
    9.8850    3.8690  -60.1550 C   0  0  0  0  0  0  0  0  0  0  0  0
    9.5800    3.3040  -61.5590 C   0  0  0  0  0  0  0  0  0  0  0  0
   10.7930    5.1000  -60.3250 C   0  0  0  0  0  0  0  0  0  0  0  0
   10.6430    2.7920  -59.3610 C   0  0  0  0  0  0  0  0  0  0  0  0
    9.2491    3.6034  -55.3230 H   0  0  0  0  0  0  0  0  0  0  0  0
   10.4637    3.4125  -56.6326 H   0  0  0  0  0  0  0  0  0  0  0  0
    9.3579    4.8281  -56.6326 H   0  0  0  0  0  0  0  0  0  0  0  0
    9.6260    0.1850  -56.4410 H   0  0  0  0  0  0  0  0  0  0  0  0
    9.3792   -0.3231  -53.4940 H   0  0  0  0  0  0  0  0  0  0  0  0
    7.5613   -1.5039  -53.8075 H   0  0  0  0  0  0  0  0  0  0  0  0
    8.0572   -1.9259  -55.5593 H   0  0  0  0  0  0  0  0  0  0  0  0
    7.7846   -3.7791  -53.8815 H   0  0  0  0  0  0  0  0  0  0  0  0
    9.1645   -2.5584  -52.1152 H   0  0  0  0  0  0  0  0  0  0  0  0
    9.3869   -4.3598  -52.4024 H   0  0  0  0  0  0  0  0  0  0  0  0
   11.4994   -3.4326  -51.9891 H   0  0  0  0  0  0  0  0  0  0  0  0
   12.6744   -3.9100  -54.1664 H   0  0  0  0  0  0  0  0  0  0  0  0
   11.3870   -5.1105  -53.8184 H   0  0  0  0  0  0  0  0  0  0  0  0
   11.3115   -4.3032  -56.2050 H   0  0  0  0  0  0  0  0  0  0  0  0
    8.9120   -3.7251  -56.1954 H   0  0  0  0  0  0  0  0  0  0  0  0
    9.3164   -5.0850  -55.0471 H   0  0  0  0  0  0  0  0  0  0  0  0
   12.2192   -2.1399  -56.0526 H   0  0  0  0  0  0  0  0  0  0  0  0
   10.4577   -1.9845  -56.5575 H   0  0  0  0  0  0  0  0  0  0  0  0
   11.4696   -0.3229  -54.9185 H   0  0  0  0  0  0  0  0  0  0  0  0
   12.5324   -1.6361  -53.2788 H   0  0  0  0  0  0  0  0  0  0  0  0
   10.9816   -1.0788  -52.4913 H   0  0  0  0  0  0  0  0  0  0  0  0
    7.4012    2.5188  -61.3984 H   0  0  0  0  0  0  0  0  0  0  0  0
    5.6204    2.3735  -63.1463 H   0  0  0  0  0  0  0  0  0  0  0  0
    2.6319    1.8050  -60.0577 H   0  0  0  0  0  0  0  0  0  0  0  0
    4.4135    1.9647  -58.3164 H   0  0  0  0  0  0  0  0  0  0  0  0
    7.7743    4.3443  -60.2796 H   0  0  0  0  0  0  0  0  0  0  0  0
    8.7057    5.1591  -58.9174 H   0  0  0  0  0  0  0  0  0  0  0  0
    9.0595    2.3399  -61.4611 H   0  0  0  0  0  0  0  0  0  0  0  0
    8.9412    4.0114  -62.1081 H   0  0  0  0  0  0  0  0  0  0  0  0
   10.5219    3.1581  -62.1081 H   0  0  0  0  0  0  0  0  0  0  0  0
   11.0773    5.4855  -59.3348 H   0  0  0  0  0  0  0  0  0  0  0  0
   11.6981    4.8140  -60.8809 H   0  0  0  0  0  0  0  0  0  0  0  0
   10.2525    5.8803  -60.8809 H   0  0  0  0  0  0  0  0  0  0  0  0
   10.5155    2.9731  -58.2835 H   0  0  0  0  0  0  0  0  0  0  0  0
   10.2434    1.7993  -59.6158 H   0  0  0  0  0  0  0  0  0  0  0  0
   11.7123    2.8332  -59.6158 H   0  0  0  0  0  0  0  0  0  0  0  0
  1  2  1  0
  2  3  1  0
  3  4  1  0
  4  5  2  0
  4  6  1  0
  6  7  1  0
  7  8  1  0
  8  9  1  0
  9 10  1  0
 10 11  1  0
 11 12  1  0
 12 13  1  0
 13 14  1  0
 13 15  1  0
 15 16  1  0
 16 17  1  0
  3 18  2  0
 18 19  1  0
 19 20  1  0
 20 21  1  0
 21 22  2  0
 22 23  1  0
 23 24  1  0
 24 25  2  0
 24 26  1  0
 23 27  2  0
 27 28  1  0
 19 29  1  0
 29 30  1  0
 30 31  1  0
 31 32  1  0
 31 33  1  0
 31 34  1  0
 29  2  2  0
 16  7  1  0
 28 20  2  0
 14  9  1  0
 17 11  1  0
  1 35  1  0
  1 36  1  0
  1 37  1  0
  6 38  1  0
  7 39  1  1
  8 40  1  0
  8 41  1  0
  9 42  1  1
 10 43  1  0
 10 44  1  0
 11 45  1  1
 12 46  1  0
 12 47  1  0
 13 48  1  6
 14 49  1  0
 14 50  1  0
 15 51  1  0
 15 52  1  0
 16 53  1  6
 17 54  1  0
 17 55  1  0
 21 56  1  0
 22 57  1  0
 27 58  1  0
 28 59  1  0
 30 60  1  0
 30 61  1  0
 32 62  1  0
 32 63  1  0
 32 64  1  0
 33 65  1  0
 33 66  1  0
 33 67  1  0
 34 68  1  0
 34 69  1  0
 34 70  1  0
M  CHG  2  24   1  26  -1
M  END
>  <meeko>  (53) 
{"is_sidechain": false}

$$$$

     RDKit          3D

 60 65  0  0  0  0  0  0  0  0999 V2000
   10.3950    1.9510  -56.0300 C   0  0  0  0  0  0  0  0  0  0  0  0
    9.0050    1.6770  -56.4810 C   0  0  0  0  0  0  0  0  0  0  0  0
    8.0360    0.9050  -55.7890 C   0  0  0  0  0  0  0  0  0  0  0  0
    8.1710    0.2410  -54.4760 C   0  0  0  0  0  0  0  0  0  0  0  0
    8.7170    0.7700  -53.5140 O   0  0  0  0  0  0  0  0  0  0  0  0
    7.6160   -1.0210  -54.4610 N   0  0  0  0  0  0  0  0  0  0  0  0
    7.5710   -1.9300  -53.3220 C   0  0  2  0  0  0  0  0  0  0  0  0
    7.4100   -1.1640  -51.9850 C   0  0  0  0  0  0  0  0  0  0  0  0
    7.4130   -2.1420  -50.7970 C   0  0  1  0  0  0  0  0  0  0  0  0
    6.2550   -3.1410  -50.9610 C   0  0  0  0  0  0  0  0  0  0  0  0
    6.4220   -3.9340  -52.2690 C   0  0  2  0  0  0  0  0  0  0  0  0
    7.7590   -4.6910  -52.2360 C   0  0  0  0  0  0  0  0  0  0  0  0
    8.9210   -3.6960  -52.0810 C   0  0  2  0  0  0  0  0  0  0  0  0
    8.7450   -2.9090  -50.7730 C   0  0  0  0  0  0  0  0  0  0  0  0
    8.9070   -2.7170  -53.2650 C   0  0  0  0  0  0  0  0  0  0  0  0
    6.4180   -2.9570  -53.4570 C   0  0  0  0  0  0  0  0  0  0  0  0
    6.8990    0.8050  -56.4980 N   0  0  0  0  0  0  0  0  0  0  0  0
    7.0840    1.5690  -57.6100 N   0  0  0  0  0  0  0  0  0  0  0  0
    5.9720    1.7400  -58.5010 C   0  0  0  0  0  0  0  0  0  0  0  0
    5.9770    1.0520  -59.7310 C   0  0  0  0  0  0  0  0  0  0  0  0
    4.9180    1.1840  -60.6330 C   0  0  0  0  0  0  0  0  0  0  0  0
    3.8370    1.9980  -60.3140 C   0  0  0  0  0  0  0  0  0  0  0  0
    2.5310    2.1630  -61.4210 Cl  0  0  0  0  0  0  0  0  0  0  0  0
    3.8050    2.6720  -59.0970 C   0  0  0  0  0  0  0  0  0  0  0  0
    4.8660    2.5410  -58.1900 C   0  0  0  0  0  0  0  0  0  0  0  0
    8.3870    2.0690  -57.6630 C   0  0  0  0  0  0  0  0  0  0  0  0
    8.9990    2.7890  -58.7780 C   0  0  0  0  0  0  0  0  0  0  0  0
    9.0980    4.1860  -58.7500 C   0  0  0  0  0  0  0  0  0  0  0  0
    9.6730    4.8710  -59.8210 C   0  0  0  0  0  0  0  0  0  0  0  0
   10.1420    4.1670  -60.9310 C   0  0  0  0  0  0  0  0  0  0  0  0
   10.0330    2.7780  -60.9730 C   0  0  0  0  0  0  0  0  0  0  0  0
    9.4590    2.0900  -59.9020 C   0  0  0  0  0  0  0  0  0  0  0  0
   10.4291    1.9577  -54.9305 H   0  0  0  0  0  0  0  0  0  0  0  0
   11.0658    1.1678  -56.4129 H   0  0  0  0  0  0  0  0  0  0  0  0
   10.7184    2.9302  -56.4129 H   0  0  0  0  0  0  0  0  0  0  0  0
    7.1940   -1.2940  -55.3460 H   0  0  0  0  0  0  0  0  0  0  0  0
    8.2435   -0.4551  -51.8718 H   0  0  0  0  0  0  0  0  0  0  0  0
    6.4512   -0.6249  -51.9983 H   0  0  0  0  0  0  0  0  0  0  0  0
    7.2914   -1.5835  -49.8572 H   0  0  0  0  0  0  0  0  0  0  0  0
    6.2530   -3.8385  -50.1104 H   0  0  0  0  0  0  0  0  0  0  0  0
    5.3046   -2.5882  -50.9940 H   0  0  0  0  0  0  0  0  0  0  0  0
    5.5949   -4.6511  -52.3771 H   0  0  0  0  0  0  0  0  0  0  0  0
    7.7615   -5.3897  -51.3864 H   0  0  0  0  0  0  0  0  0  0  0  0
    7.8827   -5.2481  -53.1764 H   0  0  0  0  0  0  0  0  0  0  0  0
    9.8760   -4.2415  -52.0590 H   0  0  0  0  0  0  0  0  0  0  0  0
    8.7476   -3.6082  -49.9238 H   0  0  0  0  0  0  0  0  0  0  0  0
    9.5729   -2.1923  -50.6682 H   0  0  0  0  0  0  0  0  0  0  0  0
    9.7386   -2.0058  -53.1532 H   0  0  0  0  0  0  0  0  0  0  0  0
    9.0139   -3.2927  -54.1962 H   0  0  0  0  0  0  0  0  0  0  0  0
    6.5457   -3.5233  -54.3913 H   0  0  0  0  0  0  0  0  0  0  0  0
    5.4604   -2.4159  -53.4682 H   0  0  0  0  0  0  0  0  0  0  0  0
    6.8270    0.4016  -59.9847 H   0  0  0  0  0  0  0  0  0  0  0  0
    4.9395    0.6458  -61.5921 H   0  0  0  0  0  0  0  0  0  0  0  0
    2.9445    3.3096  -58.8458 H   0  0  0  0  0  0  0  0  0  0  0  0
    4.8295    3.0713  -57.2269 H   0  0  0  0  0  0  0  0  0  0  0  0
    8.7212    4.7449  -57.8807 H   0  0  0  0  0  0  0  0  0  0  0  0
    9.7568    5.9674  -59.7904 H   0  0  0  0  0  0  0  0  0  0  0  0
   10.5978    4.7084  -61.7731 H   0  0  0  0  0  0  0  0  0  0  0  0
   10.3992    2.2238  -61.8498 H   0  0  0  0  0  0  0  0  0  0  0  0
    9.3675    0.9945  -59.9408 H   0  0  0  0  0  0  0  0  0  0  0  0
  1  2  1  0
  2  3  1  0
  3  4  1  0
  4  5  2  0
  4  6  1  0
  7  6  1  6
  7  8  1  0
  8  9  1  0
  9 10  1  0
 10 11  1  0
 11 12  1  0
 12 13  1  0
 13 14  1  0
 13 15  1  0
 11 16  1  0
  3 17  2  0
 17 18  1  0
 18 19  1  0
 19 20  1  0
 20 21  2  0
 21 22  1  0
 22 23  1  0
 22 24  2  0
 24 25  1  0
 18 26  1  0
 26 27  1  0
 27 28  2  0
 28 29  1  0
 29 30  2  0
 30 31  1  0
 31 32  2  0
 26  2  2  0
 32 27  1  0
 15  7  1  0
 25 19  2  0
 16  7  1  0
 14  9  1  0
  1 33  1  0
  1 34  1  0
  1 35  1  0
  6 36  1  0
  8 37  1  0
  8 38  1  0
  9 39  1  1
 10 40  1  0
 10 41  1  0
 11 42  1  6
 12 43  1  0
 12 44  1  0
 13 45  1  1
 14 46  1  0
 14 47  1  0
 15 48  1  0
 15 49  1  0
 16 50  1  0
 16 51  1  0
 20 52  1  0
 21 53  1  0
 24 54  1  0
 25 55  1  0
 28 56  1  0
 29 57  1  0
 30 58  1  0
 31 59  1  0
 32 60  1  0
M  END
>  <meeko>  (54) 
{"is_sidechain": false}

$$$$

     RDKit          3D

 66 71  0  0  0  0  0  0  0  0999 V2000
    6.2480    0.0240  -53.7140 C   0  0  0  0  0  0  0  0  0  0  0  0
    7.6130   -0.4510  -54.0600 C   0  0  0  0  0  0  0  0  0  0  0  0
    8.4840    0.1010  -55.0480 C   0  0  0  0  0  0  0  0  0  0  0  0
    8.2330    1.2520  -55.9380 C   0  0  0  0  0  0  0  0  0  0  0  0
    7.1200    1.7420  -56.1010 O   0  0  0  0  0  0  0  0  0  0  0  0
    9.3810    1.7040  -56.5530 N   0  0  0  0  0  0  0  0  0  0  0  0
    9.4790    2.8170  -57.4910 C   0  0  2  0  0  0  0  0  0  0  0  0
    9.1550    4.1690  -56.8090 C   0  0  0  0  0  0  0  0  0  0  0  0
    9.3120    5.3300  -57.8070 C   0  0  1  0  0  0  0  0  0  0  0  0
   10.7600    5.3670  -58.3200 C   0  0  0  0  0  0  0  0  0  0  0  0
   11.1020    4.0430  -59.0210 C   0  0  2  0  0  0  0  0  0  0  0  0
   10.1440    3.8300  -60.2040 C   0  0  0  0  0  0  0  0  0  0  0  0
    8.6920    3.7860  -59.7020 C   0  0  2  0  0  0  0  0  0  0  0  0
    8.3590    5.1090  -58.9940 C   0  0  0  0  0  0  0  0  0  0  0  0
    8.5350    2.6240  -58.7040 C   0  0  0  0  0  0  0  0  0  0  0  0
   10.9350    2.8850  -58.0230 C   0  0  0  0  0  0  0  0  0  0  0  0
    9.6520   -0.5740  -55.0990 N   0  0  0  0  0  0  0  0  0  0  0  0
    9.5210   -1.5370  -54.1660 N   0  0  0  0  0  0  0  0  0  0  0  0
   10.6300   -2.4480  -53.9430 C   0  0  0  0  0  0  0  0  0  0  0  0
   10.3720   -3.8110  -54.5790 C   0  0  0  0  0  0  0  0  0  0  0  0
   11.3110   -4.0660  -55.7320 C   0  0  0  0  0  0  0  0  0  0  0  0
   12.2320   -5.1210  -55.6710 C   0  0  0  0  0  0  0  0  0  0  0  0
   13.0860   -5.3740  -56.7460 C   0  0  0  0  0  0  0  0  0  0  0  0
   13.0250   -4.5780  -57.8880 C   0  0  0  0  0  0  0  0  0  0  0  0
   12.1090   -3.5300  -57.9580 C   0  0  0  0  0  0  0  0  0  0  0  0
   11.2530   -3.2760  -56.8850 C   0  0  0  0  0  0  0  0  0  0  0  0
    8.3160   -1.5110  -53.5070 C   0  0  0  0  0  0  0  0  0  0  0  0
    7.9460   -2.4320  -52.4410 C   0  0  0  0  0  0  0  0  0  0  0  0
    8.3390   -2.1770  -51.1230 C   0  0  0  0  0  0  0  0  0  0  0  0
    7.9980   -3.0650  -50.1020 C   0  0  0  0  0  0  0  0  0  0  0  0
    7.2560   -4.2100  -50.3940 C   0  0  0  0  0  0  0  0  0  0  0  0
    6.8520   -4.4650  -51.7030 C   0  0  0  0  0  0  0  0  0  0  0  0
    7.1930   -3.5780  -52.7250 C   0  0  0  0  0  0  0  0  0  0  0  0
    6.1393    0.0618  -52.6200 H   0  0  0  0  0  0  0  0  0  0  0  0
    6.0924    1.0291  -54.1329 H   0  0  0  0  0  0  0  0  0  0  0  0
    5.5020   -0.6674  -54.1329 H   0  0  0  0  0  0  0  0  0  0  0  0
   10.2120    1.1730  -56.3010 H   0  0  0  0  0  0  0  0  0  0  0  0
    8.1195    4.1481  -56.4386 H   0  0  0  0  0  0  0  0  0  0  0  0
    9.8546    4.3218  -55.9740 H   0  0  0  0  0  0  0  0  0  0  0  0
    9.0717    6.2812  -57.3095 H   0  0  0  0  0  0  0  0  0  0  0  0
   10.8729    6.1968  -59.0332 H   0  0  0  0  0  0  0  0  0  0  0  0
   11.4415    5.5120  -57.4688 H   0  0  0  0  0  0  0  0  0  0  0  0
   12.1393    4.0756  -59.3857 H   0  0  0  0  0  0  0  0  0  0  0  0
   10.2576    4.6585  -60.9187 H   0  0  0  0  0  0  0  0  0  0  0  0
   10.3850    2.8768  -60.6972 H   0  0  0  0  0  0  0  0  0  0  0  0
    8.0107    3.6394  -60.5531 H   0  0  0  0  0  0  0  0  0  0  0  0
    8.4673    5.9399  -59.7067 H   0  0  0  0  0  0  0  0  0  0  0  0
    7.3249    5.0666  -58.6214 H   0  0  0  0  0  0  0  0  0  0  0  0
    7.4940    2.5892  -58.3502 H   0  0  0  0  0  0  0  0  0  0  0  0
    8.7958    1.6831  -59.2107 H   0  0  0  0  0  0  0  0  0  0  0  0
   11.1789    1.9379  -58.5265 H   0  0  0  0  0  0  0  0  0  0  0  0
   11.6120    3.0540  -57.1726 H   0  0  0  0  0  0  0  0  0  0  0  0
   11.5413   -2.0157  -54.3820 H   0  0  0  0  0  0  0  0  0  0  0  0
   10.7466   -2.5902  -52.8585 H   0  0  0  0  0  0  0  0  0  0  0  0
   10.5166   -4.5936  -53.8196 H   0  0  0  0  0  0  0  0  0  0  0  0
    9.3409   -3.8252  -54.9620 H   0  0  0  0  0  0  0  0  0  0  0  0
   12.2821   -5.7526  -54.7718 H   0  0  0  0  0  0  0  0  0  0  0  0
   13.8076   -6.2024  -56.6914 H   0  0  0  0  0  0  0  0  0  0  0  0
   13.6995   -4.7767  -58.7339 H   0  0  0  0  0  0  0  0  0  0  0  0
   12.0605   -2.9022  -58.8599 H   0  0  0  0  0  0  0  0  0  0  0  0
   10.5289   -2.4502  -56.9464 H   0  0  0  0  0  0  0  0  0  0  0  0
    8.9196   -1.2722  -50.8903 H   0  0  0  0  0  0  0  0  0  0  0  0
    8.3139   -2.8625  -49.0680 H   0  0  0  0  0  0  0  0  0  0  0  0
    6.9897   -4.9120  -49.5901 H   0  0  0  0  0  0  0  0  0  0  0  0
    6.2638   -5.3662  -51.9309 H   0  0  0  0  0  0  0  0  0  0  0  0
    6.8693   -3.7797  -53.7568 H   0  0  0  0  0  0  0  0  0  0  0  0
  1  2  1  0
  2  3  1  0
  3  4  1  0
  4  5  2  0
  4  6  1  0
  7  6  1  1
  7  8  1  0
  8  9  1  0
  9 10  1  0
 10 11  1  0
 11 12  1  0
 12 13  1  0
 13 14  1  0
 13 15  1  0
 11 16  1  0
  3 17  2  0
 17 18  1  0
 18 19  1  0
 19 20  1  0
 20 21  1  0
 21 22  2  0
 22 23  1  0
 23 24  2  0
 24 25  1  0
 25 26  2  0
 18 27  1  0
 27 28  1  0
 28 29  2  0
 29 30  1  0
 30 31  2  0
 31 32  1  0
 32 33  2  0
 27  2  2  0
 33 28  1  0
 15  7  1  0
 26 21  1  0
 16  7  1  0
 14  9  1  0
  1 34  1  0
  1 35  1  0
  1 36  1  0
  6 37  1  0
  8 38  1  0
  8 39  1  0
  9 40  1  1
 10 41  1  0
 10 42  1  0
 11 43  1  6
 12 44  1  0
 12 45  1  0
 13 46  1  6
 14 47  1  0
 14 48  1  0
 15 49  1  0
 15 50  1  0
 16 51  1  0
 16 52  1  0
 19 53  1  0
 19 54  1  0
 20 55  1  0
 20 56  1  0
 22 57  1  0
 23 58  1  0
 24 59  1  0
 25 60  1  0
 26 61  1  0
 29 62  1  0
 30 63  1  0
 31 64  1  0
 32 65  1  0
 33 66  1  0
M  END
>  <meeko>  (55) 
{"is_sidechain": false}

$$$$

     RDKit          3D

 55 59  0  0  0  0  0  0  0  0999 V2000
   11.0580   -4.4550  -55.3040 C   0  0  0  0  0  0  0  0  0  0  0  0
   10.9340   -3.4960  -54.5910 C   0  0  0  0  0  0  0  0  0  0  0  0
   10.7910   -2.3230  -53.7150 C   0  0  0  0  0  0  0  0  0  0  0  0
    9.6140   -1.5190  -54.0320 N   0  0  0  0  0  0  0  0  0  0  0  0
    9.7170   -0.5480  -54.9610 N   0  0  0  0  0  0  0  0  0  0  0  0
    8.5030    0.0260  -54.9980 C   0  0  0  0  0  0  0  0  0  0  0  0
    8.2140    1.1330  -55.9320 C   0  0  0  0  0  0  0  0  0  0  0  0
    7.0880    1.5950  -56.0920 O   0  0  0  0  0  0  0  0  0  0  0  0
    9.3380    1.6110  -56.5870 N   0  0  0  0  0  0  0  0  0  0  0  0
    9.3500    2.7740  -57.4780 C   0  0  2  0  0  0  0  0  0  0  0  0
    8.3100    2.6420  -58.6190 C   0  0  0  0  0  0  0  0  0  0  0  0
    8.3880    3.8530  -59.5660 C   0  0  1  0  0  0  0  0  0  0  0  0
    8.1210    5.1390  -58.7650 C   0  0  0  0  0  0  0  0  0  0  0  0
    9.1730    5.2980  -57.6540 C   0  0  2  0  0  0  0  0  0  0  0  0
   10.5730    5.3590  -58.2860 C   0  0  0  0  0  0  0  0  0  0  0  0
   10.8460    4.0720  -59.0800 C   0  0  2  0  0  0  0  0  0  0  0  0
    9.7910    3.9230  -60.1870 C   0  0  0  0  0  0  0  0  0  0  0  0
   10.7560    2.8650  -58.1320 C   0  0  0  0  0  0  0  0  0  0  0  0
    9.0950    4.0900  -56.7050 C   0  0  0  0  0  0  0  0  0  0  0  0
    7.6200   -0.5850  -54.0480 C   0  0  0  0  0  0  0  0  0  0  0  0
    6.2120   -0.2150  -53.7520 C   0  0  0  0  0  0  0  0  0  0  0  0
    8.3690   -1.5870  -53.4490 C   0  0  0  0  0  0  0  0  0  0  0  0
    8.0080   -2.5340  -52.4010 C   0  0  0  0  0  0  0  0  0  0  0  0
    8.1840   -2.1990  -51.0540 C   0  0  0  0  0  0  0  0  0  0  0  0
    7.8340   -3.1060  -50.0520 C   0  0  0  0  0  0  0  0  0  0  0  0
    7.3090   -4.3530  -50.3930 C   0  0  0  0  0  0  0  0  0  0  0  0
    7.1370   -4.6950  -51.7330 C   0  0  0  0  0  0  0  0  0  0  0  0
    7.4870   -3.7880  -52.7360 C   0  0  0  0  0  0  0  0  0  0  0  0
   11.1715   -5.3330  -55.9568 H   0  0  0  0  0  0  0  0  0  0  0  0
   10.7097   -2.6697  -52.6742 H   0  0  0  0  0  0  0  0  0  0  0  0
   11.6761   -1.6875  -53.8660 H   0  0  0  0  0  0  0  0  0  0  0  0
   10.2210    1.3320  -56.1810 H   0  0  0  0  0  0  0  0  0  0  0  0
    8.5135    1.7236  -59.1891 H   0  0  0  0  0  0  0  0  0  0  0  0
    7.3031    2.6010  -58.1780 H   0  0  0  0  0  0  0  0  0  0  0  0
    7.6370    3.7497  -60.3631 H   0  0  0  0  0  0  0  0  0  0  0  0
    8.1716    6.0056  -59.4407 H   0  0  0  0  0  0  0  0  0  0  0  0
    7.1220    5.0780  -58.3087 H   0  0  0  0  0  0  0  0  0  0  0  0
    8.9810    6.2234  -57.0912 H   0  0  0  0  0  0  0  0  0  0  0  0
   10.6300    6.2241  -58.9631 H   0  0  0  0  0  0  0  0  0  0  0  0
   11.3253    5.4592  -57.4897 H   0  0  0  0  0  0  0  0  0  0  0  0
   11.8491    4.1204  -59.5288 H   0  0  0  0  0  0  0  0  0  0  0  0
    9.8476    4.7884  -60.8637 H   0  0  0  0  0  0  0  0  0  0  0  0
    9.9846    2.9978  -60.7496 H   0  0  0  0  0  0  0  0  0  0  0  0
   10.9474    1.9443  -58.7027 H   0  0  0  0  0  0  0  0  0  0  0  0
   11.5053    2.9881  -57.3361 H   0  0  0  0  0  0  0  0  0  0  0  0
    9.8546    4.1995  -55.9169 H   0  0  0  0  0  0  0  0  0  0  0  0
    8.0894    4.0517  -56.2609 H   0  0  0  0  0  0  0  0  0  0  0  0
    6.0643   -0.1762  -52.6626 H   0  0  0  0  0  0  0  0  0  0  0  0
    5.9928    0.7712  -54.1871 H   0  0  0  0  0  0  0  0  0  0  0  0
    5.5363   -0.9661  -54.1871 H   0  0  0  0  0  0  0  0  0  0  0  0
    8.5997   -1.2172  -50.7834 H   0  0  0  0  0  0  0  0  0  0  0  0
    7.9721   -2.8377  -48.9942 H   0  0  0  0  0  0  0  0  0  0  0  0
    7.0307   -5.0667  -49.6036 H   0  0  0  0  0  0  0  0  0  0  0  0
    6.7256   -5.6794  -52.0009 H   0  0  0  0  0  0  0  0  0  0  0  0
    7.3524   -4.0610  -53.7931 H   0  0  0  0  0  0  0  0  0  0  0  0
  1  2  3  0
  2  3  1  0
  3  4  1  0
  4  5  1  0
  5  6  2  0
  6  7  1  0
  7  8  2  0
  7  9  1  0
 10  9  1  1
 10 11  1  0
 11 12  1  0
 12 13  1  0
 13 14  1  0
 14 15  1  0
 15 16  1  0
 16 17  1  0
 16 18  1  0
 14 19  1  0
  6 20  1  0
 20 21  1  0
 20 22  2  0
 22 23  1  0
 23 24  2  0
 24 25  1  0
 25 26  2  0
 26 27  1  0
 27 28  2  0
 22  4  1  0
 28 23  1  0
 18 10  1  0
 19 10  1  0
 17 12  1  0
  1 29  1  0
  3 30  1  0
  3 31  1  0
  9 32  1  0
 11 33  1  0
 11 34  1  0
 12 35  1  6
 13 36  1  0
 13 37  1  0
 14 38  1  1
 15 39  1  0
 15 40  1  0
 16 41  1  6
 17 42  1  0
 17 43  1  0
 18 44  1  0
 18 45  1  0
 19 46  1  0
 19 47  1  0
 21 48  1  0
 21 49  1  0
 21 50  1  0
 24 51  1  0
 25 52  1  0
 26 53  1  0
 27 54  1  0
 28 55  1  0
M  END
>  <meeko>  (56) 
{"is_sidechain": false}

$$$$

     RDKit          3D

 33 35  0  0  0  0  0  0  0  0999 V2000
    6.6200    0.4460  -55.6890 C   0  0  0  0  0  0  0  0  0  0  0  0
    6.8130    1.7470  -56.4250 C   0  0  0  0  0  0  0  0  0  0  0  0
    5.9040    2.5610  -56.5380 O   0  0  0  0  0  0  0  0  0  0  0  0
    8.0740    1.8970  -56.9570 N   0  0  0  0  0  0  0  0  0  0  0  0
    8.5120    3.0450  -57.7590 C   0  0  2  0  0  0  0  0  0  0  0  0
    9.9470    2.7590  -58.2820 C   0  0  0  0  0  0  0  0  0  0  0  0
   10.4660    3.9250  -59.1360 C   0  0  1  0  0  0  0  0  0  0  0  0
    9.5260    4.1320  -60.3330 C   0  0  0  0  0  0  0  0  0  0  0  0
    8.1060    4.4460  -59.8360 C   0  0  2  0  0  0  0  0  0  0  0  0
    8.1390    5.7200  -58.9750 C   0  0  0  0  0  0  0  0  0  0  0  0
    9.0790    5.5220  -57.7720 C   0  0  2  0  0  0  0  0  0  0  0  0
   10.4930    5.2020  -58.2810 C   0  0  0  0  0  0  0  0  0  0  0  0
    8.5680    4.3470  -56.9190 C   0  0  0  0  0  0  0  0  0  0  0  0
    7.5940    3.2710  -58.9850 C   0  0  0  0  0  0  0  0  0  0  0  0
    6.6474    0.6305  -54.6049 H   0  0  0  0  0  0  0  0  0  0  0  0
    5.6475    0.0108  -55.9625 H   0  0  0  0  0  0  0  0  0  0  0  0
    7.4243   -0.2528  -55.9625 H   0  0  0  0  0  0  0  0  0  0  0  0
    8.7050    1.1080  -56.8930 H   0  0  0  0  0  0  0  0  0  0  0  0
   10.6201    2.6145  -57.4240 H   0  0  0  0  0  0  0  0  0  0  0  0
    9.9176    1.8540  -58.9066 H   0  0  0  0  0  0  0  0  0  0  0  0
   11.4801    3.7006  -59.4983 H   0  0  0  0  0  0  0  0  0  0  0  0
    9.8923    4.9705  -60.9435 H   0  0  0  0  0  0  0  0  0  0  0  0
    9.5027    3.2135  -60.9378 H   0  0  0  0  0  0  0  0  0  0  0  0
    7.4382    4.5983  -60.6967 H   0  0  0  0  0  0  0  0  0  0  0  0
    8.5004    6.5615  -59.5843 H   0  0  0  0  0  0  0  0  0  0  0  0
    7.1242    5.9323  -58.6075 H   0  0  0  0  0  0  0  0  0  0  0  0
    9.1033    6.4388  -57.1646 H   0  0  0  0  0  0  0  0  0  0  0  0
   10.8596    6.0411  -58.8905 H   0  0  0  0  0  0  0  0  0  0  0  0
   11.1606    5.0471  -57.4206 H   0  0  0  0  0  0  0  0  0  0  0  0
    9.2465    4.1978  -56.0661 H   0  0  0  0  0  0  0  0  0  0  0  0
    7.5542    4.5825  -56.5629 H   0  0  0  0  0  0  0  0  0  0  0  0
    6.5746    3.4940  -58.6370 H   0  0  0  0  0  0  0  0  0  0  0  0
    7.5951    2.3599  -59.6014 H   0  0  0  0  0  0  0  0  0  0  0  0
  1  2  1  0
  2  3  2  0
  2  4  1  0
  5  4  1  1
  5  6  1  0
  6  7  1  0
  7  8  1  0
  8  9  1  0
  9 10  1  0
 10 11  1  0
 11 12  1  0
 11 13  1  0
  9 14  1  0
 13  5  1  0
 14  5  1  0
 12  7  1  0
  1 15  1  0
  1 16  1  0
  1 17  1  0
  4 18  1  0
  6 19  1  0
  6 20  1  0
  7 21  1  6
  8 22  1  0
  8 23  1  0
  9 24  1  6
 10 25  1  0
 10 26  1  0
 11 27  1  1
 12 28  1  0
 12 29  1  0
 13 30  1  0
 13 31  1  0
 14 32  1  0
 14 33  1  0
M  END
>  <meeko>  (57) 
{"is_sidechain": false}

$$$$

     RDKit          3D

 65 70  0  0  0  0  0  0  0  0999 V2000
    6.8540    0.3150  -53.1200 C   0  0  0  0  0  0  0  0  0  0  0  0
    7.9170   -0.4630  -53.8250 C   0  0  0  0  0  0  0  0  0  0  0  0
    8.6430   -0.0630  -55.0000 C   0  0  0  0  0  0  0  0  0  0  0  0
    8.6100    1.1780  -55.7780 C   0  0  0  0  0  0  0  0  0  0  0  0
    7.5840    1.8360  -55.9050 O   0  0  0  0  0  0  0  0  0  0  0  0
    9.8050    1.4920  -56.3890 N   0  0  0  0  0  0  0  0  0  0  0  0
   10.0070    2.6170  -57.3040 C   0  0  2  0  0  0  0  0  0  0  0  0
    9.1630    2.4640  -58.5930 C   0  0  0  0  0  0  0  0  0  0  0  0
    9.4390    3.6270  -59.5610 C   0  0  1  0  0  0  0  0  0  0  0  0
    9.0900    4.9560  -58.8690 C   0  0  0  0  0  0  0  0  0  0  0  0
    9.9500    5.1380  -57.6070 C   0  0  2  0  0  0  0  0  0  0  0  0
   11.4350    5.1330  -57.9990 C   0  0  0  0  0  0  0  0  0  0  0  0
   11.7910    3.8040  -58.6820 C   0  0  2  0  0  0  0  0  0  0  0  0
   10.9290    3.6310  -59.9420 C   0  0  0  0  0  0  0  0  0  0  0  0
   11.5060    2.6460  -57.7120 C   0  0  0  0  0  0  0  0  0  0  0  0
    9.6740    3.9760  -56.6370 C   0  0  0  0  0  0  0  0  0  0  0  0
    9.4310   -1.1430  -55.3470 C   0  0  0  0  0  0  0  0  0  0  0  0
    9.2750   -2.1420  -54.4220 N   0  0  0  0  0  0  0  0  0  0  0  0
    9.9880   -3.4230  -54.4660 C   0  0  0  0  0  0  0  0  0  0  0  0
   11.5090   -3.2460  -54.3400 C   0  0  0  0  0  0  0  0  0  0  0  0
   12.2030   -4.5210  -54.7840 C   0  0  0  0  0  0  0  0  0  0  0  0
   11.9290   -4.8750  -56.1390 O   0  0  0  0  0  0  0  0  0  0  0  0
   10.7390   -4.3180  -56.6980 C   0  0  0  0  0  0  0  0  0  0  0  0
    9.5990   -4.2620  -55.6940 C   0  0  0  0  0  0  0  0  0  0  0  0
    8.3460   -1.7450  -53.4780 C   0  0  0  0  0  0  0  0  0  0  0  0
    7.9050   -2.5760  -52.3530 C   0  0  0  0  0  0  0  0  0  0  0  0
    8.6470   -2.5860  -51.1650 C   0  0  0  0  0  0  0  0  0  0  0  0
    8.2320   -3.3640  -50.0800 C   0  0  0  0  0  0  0  0  0  0  0  0
    7.0720   -4.1340  -50.1710 C   0  0  0  0  0  0  0  0  0  0  0  0
    6.3260   -4.1280  -51.3480 C   0  0  0  0  0  0  0  0  0  0  0  0
    6.7430   -3.3510  -52.4270 C   0  0  0  0  0  0  0  0  0  0  0  0
    6.0120   -3.3730  -53.5510 F   0  0  0  0  0  0  0  0  0  0  0  0
    6.9880    0.2169  -52.0326 H   0  0  0  0  0  0  0  0  0  0  0  0
    6.9261    1.3752  -53.4042 H   0  0  0  0  0  0  0  0  0  0  0  0
    5.8652   -0.0743  -53.4042 H   0  0  0  0  0  0  0  0  0  0  0  0
   10.4800    0.7420  -56.4260 H   0  0  0  0  0  0  0  0  0  0  0  0
    9.4225    1.5148  -59.0847 H   0  0  0  0  0  0  0  0  0  0  0  0
    8.0968    2.4728  -58.3224 H   0  0  0  0  0  0  0  0  0  0  0  0
    8.8263    3.5068  -60.4666 H   0  0  0  0  0  0  0  0  0  0  0  0
    9.2812    5.7882  -59.5624 H   0  0  0  0  0  0  0  0  0  0  0  0
    8.0282    4.9438  -58.5818 H   0  0  0  0  0  0  0  0  0  0  0  0
    9.7012    6.0933  -57.1218 H   0  0  0  0  0  0  0  0  0  0  0  0
   11.6319    5.9637  -58.6926 H   0  0  0  0  0  0  0  0  0  0  0  0
   12.0489    5.2508  -57.0939 H   0  0  0  0  0  0  0  0  0  0  0  0
   12.8553    3.8048  -58.9600 H   0  0  0  0  0  0  0  0  0  0  0  0
   11.1258    4.4619  -60.6354 H   0  0  0  0  0  0  0  0  0  0  0  0
   11.1816    2.6755  -60.4250 H   0  0  0  0  0  0  0  0  0  0  0  0
   11.7640    1.6952  -58.2013 H   0  0  0  0  0  0  0  0  0  0  0  0
   12.1129    2.7905  -56.8060 H   0  0  0  0  0  0  0  0  0  0  0  0
   10.2964    4.0997  -55.7385 H   0  0  0  0  0  0  0  0  0  0  0  0
    8.6079    3.9861  -56.3662 H   0  0  0  0  0  0  0  0  0  0  0  0
   10.0840   -1.1935  -56.2308 H   0  0  0  0  0  0  0  0  0  0  0  0
    9.6653   -3.9928  -53.5822 H   0  0  0  0  0  0  0  0  0  0  0  0
   11.8352   -2.4099  -54.9760 H   0  0  0  0  0  0  0  0  0  0  0  0
   11.7687   -3.0316  -53.2928 H   0  0  0  0  0  0  0  0  0  0  0  0
   13.2887   -4.3836  -54.6726 H   0  0  0  0  0  0  0  0  0  0  0  0
   11.8191   -5.3356  -54.1524 H   0  0  0  0  0  0  0  0  0  0  0  0
   10.9556   -3.2966  -57.0440 H   0  0  0  0  0  0  0  0  0  0  0  0
   10.4231   -4.9661  -57.5287 H   0  0  0  0  0  0  0  0  0  0  0  0
    8.7185   -3.8102  -56.1742 H   0  0  0  0  0  0  0  0  0  0  0  0
    9.3735   -5.2861  -55.3619 H   0  0  0  0  0  0  0  0  0  0  0  0
    9.5607   -1.9787  -51.0853 H   0  0  0  0  0  0  0  0  0  0  0  0
    8.8219   -3.3691  -49.1516 H   0  0  0  0  0  0  0  0  0  0  0  0
    6.7471   -4.7444  -49.3156 H   0  0  0  0  0  0  0  0  0  0  0  0
    5.4114   -4.7343  -51.4251 H   0  0  0  0  0  0  0  0  0  0  0  0
  1  2  1  0
  2  3  1  0
  3  4  1  0
  4  5  2  0
  4  6  1  0
  7  6  1  1
  7  8  1  0
  8  9  1  0
  9 10  1  0
 10 11  1  0
 11 12  1  0
 12 13  1  0
 13 14  1  0
 13 15  1  0
 11 16  1  0
  3 17  2  0
 17 18  1  0
 18 19  1  0
 19 20  1  0
 20 21  1  0
 21 22  1  0
 22 23  1  0
 23 24  1  0
 18 25  1  0
 25 26  1  0
 26 27  2  0
 27 28  1  0
 28 29  2  0
 29 30  1  0
 30 31  2  0
 31 32  1  0
 25  2  2  0
 31 26  1  0
 15  7  1  0
 24 19  1  0
 16  7  1  0
 14  9  1  0
  1 33  1  0
  1 34  1  0
  1 35  1  0
  6 36  1  0
  8 37  1  0
  8 38  1  0
  9 39  1  6
 10 40  1  0
 10 41  1  0
 11 42  1  1
 12 43  1  0
 12 44  1  0
 13 45  1  6
 14 46  1  0
 14 47  1  0
 15 48  1  0
 15 49  1  0
 16 50  1  0
 16 51  1  0
 17 52  1  0
 19 53  1  0
 20 54  1  0
 20 55  1  0
 21 56  1  0
 21 57  1  0
 23 58  1  0
 23 59  1  0
 24 60  1  0
 24 61  1  0
 27 62  1  0
 28 63  1  0
 29 64  1  0
 30 65  1  0
M  END
>  <meeko>  (58) 
{"is_sidechain": false}

$$$$

     RDKit          3D

 61 66  0  0  0  0  0  0  0  0999 V2000
    6.5210    0.3830  -53.4030 C   0  0  0  0  0  0  0  0  0  0  0  0
    7.6810   -0.2130  -54.1340 C   0  0  0  0  0  0  0  0  0  0  0  0
    8.2950    0.3080  -55.3230 C   0  0  0  0  0  0  0  0  0  0  0  0
    8.0500    1.5430  -56.0700 C   0  0  0  0  0  0  0  0  0  0  0  0
    6.9730    2.1250  -56.0180 O   0  0  0  0  0  0  0  0  0  0  0  0
    9.1060    1.9370  -56.8600 N   0  0  0  0  0  0  0  0  0  0  0  0
    9.0810    3.0720  -57.7850 C   0  0  2  0  0  0  0  0  0  0  0  0
    7.8960    2.9740  -58.7770 C   0  0  0  0  0  0  0  0  0  0  0  0
    7.9260    4.1450  -59.7740 C   0  0  1  0  0  0  0  0  0  0  0  0
    7.8420    5.4720  -58.9990 C   0  0  0  0  0  0  0  0  0  0  0  0
    9.0360    5.5990  -58.0360 C   0  0  2  0  0  0  0  0  0  0  0  0
   10.3450    5.5500  -58.8400 C   0  0  0  0  0  0  0  0  0  0  0  0
   10.4380    4.2230  -59.6090 C   0  0  2  0  0  0  0  0  0  0  0  0
    9.2420    4.1040  -60.5670 C   0  0  0  0  0  0  0  0  0  0  0  0
   10.3990    3.0580  -58.6070 C   0  0  0  0  0  0  0  0  0  0  0  0
    9.0080    4.4290  -57.0380 C   0  0  0  0  0  0  0  0  0  0  0  0
    9.2070   -0.6460  -55.7310 C   0  0  0  0  0  0  0  0  0  0  0  0
    9.2880   -1.6480  -54.7910 N   0  0  0  0  0  0  0  0  0  0  0  0
   10.1780   -2.7490  -54.9030 C   0  0  0  0  0  0  0  0  0  0  0  0
   10.1180   -3.5100  -56.0840 C   0  0  0  0  0  0  0  0  0  0  0  0
   10.9240   -4.6370  -56.2340 C   0  0  0  0  0  0  0  0  0  0  0  0
   11.8060   -5.0010  -55.2190 C   0  0  0  0  0  0  0  0  0  0  0  0
   11.9000   -4.2240  -54.0630 C   0  0  0  0  0  0  0  0  0  0  0  0
   11.0970   -3.0870  -53.9010 C   0  0  0  0  0  0  0  0  0  0  0  0
   11.4900   -1.9860  -52.4020 Br  0  0  0  0  0  0  0  0  0  0  0  0
    8.3070   -1.4260  -53.8260 C   0  0  0  0  0  0  0  0  0  0  0  0
    7.9340   -2.3900  -52.7780 C   0  0  0  0  0  0  0  0  0  0  0  0
    7.3500   -3.6200  -53.1090 C   0  0  0  0  0  0  0  0  0  0  0  0
    6.9850   -4.5250  -52.1100 C   0  0  0  0  0  0  0  0  0  0  0  0
    7.1920   -4.2050  -50.7690 C   0  0  0  0  0  0  0  0  0  0  0  0
    7.7590   -2.9790  -50.4270 C   0  0  0  0  0  0  0  0  0  0  0  0
    8.1230   -2.0740  -51.4260 C   0  0  0  0  0  0  0  0  0  0  0  0
    6.6875    0.2974  -52.3191 H   0  0  0  0  0  0  0  0  0  0  0  0
    6.4214    1.4439  -53.6761 H   0  0  0  0  0  0  0  0  0  0  0  0
    5.6005   -0.1538  -53.6761 H   0  0  0  0  0  0  0  0  0  0  0  0
    9.8200    1.2380  -57.0090 H   0  0  0  0  0  0  0  0  0  0  0  0
    7.9655    2.0260  -59.3306 H   0  0  0  0  0  0  0  0  0  0  0  0
    6.9544    3.0154  -58.2098 H   0  0  0  0  0  0  0  0  0  0  0  0
    7.0747    4.0641  -60.4660 H   0  0  0  0  0  0  0  0  0  0  0  0
    7.8579    6.3106  -59.7107 H   0  0  0  0  0  0  0  0  0  0  0  0
    6.9078    5.4912  -58.4185 H   0  0  0  0  0  0  0  0  0  0  0  0
    8.9731    6.5526  -57.4913 H   0  0  0  0  0  0  0  0  0  0  0  0
   10.3663    6.3870  -59.5534 H   0  0  0  0  0  0  0  0  0  0  0  0
   11.1972    5.6282  -58.1489 H   0  0  0  0  0  0  0  0  0  0  0  0
   11.3757    4.1923  -60.1832 H   0  0  0  0  0  0  0  0  0  0  0  0
    9.2629    4.9403  -61.2812 H   0  0  0  0  0  0  0  0  0  0  0  0
    9.3072    3.1487  -61.1085 H   0  0  0  0  0  0  0  0  0  0  0  0
   10.4692    2.1082  -59.1573 H   0  0  0  0  0  0  0  0  0  0  0  0
   11.2453    3.1656  -57.9126 H   0  0  0  0  0  0  0  0  0  0  0  0
    9.8681    4.5137  -56.3575 H   0  0  0  0  0  0  0  0  0  0  0  0
    8.0672    4.4705  -56.4695 H   0  0  0  0  0  0  0  0  0  0  0  0
    9.7827   -0.6101  -56.6676 H   0  0  0  0  0  0  0  0  0  0  0  0
    9.4326   -3.2148  -56.8921 H   0  0  0  0  0  0  0  0  0  0  0  0
   10.8638   -5.2385  -57.1530 H   0  0  0  0  0  0  0  0  0  0  0  0
   12.4287   -5.9011  -55.3285 H   0  0  0  0  0  0  0  0  0  0  0  0
   12.6106   -4.5067  -53.2724 H   0  0  0  0  0  0  0  0  0  0  0  0
    7.1775   -3.8750  -54.1651 H   0  0  0  0  0  0  0  0  0  0  0  0
    6.5339   -5.4909  -52.3814 H   0  0  0  0  0  0  0  0  0  0  0  0
    6.9081   -4.9193  -49.9821 H   0  0  0  0  0  0  0  0  0  0  0  0
    7.9200   -2.7239  -49.3692 H   0  0  0  0  0  0  0  0  0  0  0  0
    8.5621   -1.1042  -51.1492 H   0  0  0  0  0  0  0  0  0  0  0  0
  1  2  1  0
  2  3  1  0
  3  4  1  0
  4  5  2  0
  4  6  1  0
  7  6  1  1
  7  8  1  0
  8  9  1  0
  9 10  1  0
 10 11  1  0
 11 12  1  0
 12 13  1  0
 13 14  1  0
 13 15  1  0
 11 16  1  0
  3 17  2  0
 17 18  1  0
 18 19  1  0
 19 20  2  0
 20 21  1  0
 21 22  2  0
 22 23  1  0
 23 24  2  0
 24 25  1  0
 18 26  1  0
 26 27  1  0
 27 28  2  0
 28 29  1  0
 29 30  2  0
 30 31  1  0
 31 32  2  0
 26  2  2  0
 32 27  1  0
 15  7  1  0
 24 19  1  0
 16  7  1  0
 14  9  1  0
  1 33  1  0
  1 34  1  0
  1 35  1  0
  6 36  1  0
  8 37  1  0
  8 38  1  0
  9 39  1  6
 10 40  1  0
 10 41  1  0
 11 42  1  1
 12 43  1  0
 12 44  1  0
 13 45  1  6
 14 46  1  0
 14 47  1  0
 15 48  1  0
 15 49  1  0
 16 50  1  0
 16 51  1  0
 17 52  1  0
 20 53  1  0
 21 54  1  0
 22 55  1  0
 23 56  1  0
 28 57  1  0
 29 58  1  0
 30 59  1  0
 31 60  1  0
 32 61  1  0
M  END
>  <meeko>  (59) 
{"is_sidechain": false}

$$$$

     RDKit          3D

 45 48  0  0  0  0  0  0  0  0999 V2000
   11.7560   -1.4230  -54.5060 O   0  0  0  0  0  0  0  0  0  0  0  0
   10.6410   -1.9340  -54.4750 C   0  0  0  0  0  0  0  0  0  0  0  0
    9.5260   -1.4110  -53.5550 C   0  0  0  0  0  0  0  0  0  0  0  0
    8.3200   -2.2580  -53.6740 N   0  0  0  0  0  0  0  0  0  0  0  0
    7.8290   -2.8920  -52.5230 C   0  0  0  0  0  0  0  0  0  0  0  0
    6.6570   -3.6550  -52.4920 C   0  0  0  0  0  0  0  0  0  0  0  0
    6.1790   -4.1990  -51.2940 C   0  0  0  0  0  0  0  0  0  0  0  0
    6.8510   -3.9630  -50.1000 C   0  0  0  0  0  0  0  0  0  0  0  0
    7.9930   -3.1690  -50.1000 C   0  0  0  0  0  0  0  0  0  0  0  0
    8.4660   -2.6290  -51.3000 C   0  0  0  0  0  0  0  0  0  0  0  0
   10.2660   -3.0430  -55.2100 N   0  0  0  0  0  0  0  0  0  0  0  0
   11.1420   -3.8310  -56.0750 C   0  0  2  0  0  0  0  0  0  0  0  0
   11.8820   -2.9430  -57.1090 C   0  0  0  0  0  0  0  0  0  0  0  0
   12.7580   -3.8060  -58.0340 C   0  0  1  0  0  0  0  0  0  0  0  0
   13.7830   -4.5770  -57.1850 C   0  0  0  0  0  0  0  0  0  0  0  0
   13.0610   -5.4880  -56.1800 C   0  0  2  0  0  0  0  0  0  0  0  0
   12.1690   -6.4790  -56.9440 C   0  0  0  0  0  0  0  0  0  0  0  0
   11.1370   -5.7140  -57.7870 C   0  0  2  0  0  0  0  0  0  0  0  0
   11.8690   -4.8070  -58.7880 C   0  0  0  0  0  0  0  0  0  0  0  0
   10.2710   -4.8470  -56.8610 C   0  0  0  0  0  0  0  0  0  0  0  0
   12.1850   -4.6270  -55.2530 C   0  0  0  0  0  0  0  0  0  0  0  0
    9.8786   -1.4267  -52.5132 H   0  0  0  0  0  0  0  0  0  0  0  0
    9.2709   -0.3831  -53.8523 H   0  0  0  0  0  0  0  0  0  0  0  0
    7.5690   -1.7440  -54.1360 H   0  0  0  0  0  0  0  0  0  0  0  0
    6.1014   -3.8305  -53.4250 H   0  0  0  0  0  0  0  0  0  0  0  0
    5.2681   -4.8156  -51.2973 H   0  0  0  0  0  0  0  0  0  0  0  0
    6.4818   -4.4015  -49.1611 H   0  0  0  0  0  0  0  0  0  0  0  0
    8.5231   -2.9662  -49.1577 H   0  0  0  0  0  0  0  0  0  0  0  0
    9.3569   -1.9839  -51.2853 H   0  0  0  0  0  0  0  0  0  0  0  0
    9.3680   -3.4350  -54.9310 H   0  0  0  0  0  0  0  0  0  0  0  0
   11.1417   -2.4000  -57.7150 H   0  0  0  0  0  0  0  0  0  0  0  0
   12.5267   -2.2329  -56.5704 H   0  0  0  0  0  0  0  0  0  0  0  0
   13.2822   -3.1616  -58.7551 H   0  0  0  0  0  0  0  0  0  0  0  0
   14.4129   -5.1914  -57.8451 H   0  0  0  0  0  0  0  0  0  0  0  0
   14.4066   -3.8576  -56.6340 H   0  0  0  0  0  0  0  0  0  0  0  0
   13.8011   -6.0405  -55.5825 H   0  0  0  0  0  0  0  0  0  0  0  0
   12.7941   -7.0967  -57.6056 H   0  0  0  0  0  0  0  0  0  0  0  0
   11.6420   -7.1210  -56.2228 H   0  0  0  0  0  0  0  0  0  0  0  0
   10.5016   -6.4285  -58.3308 H   0  0  0  0  0  0  0  0  0  0  0  0
   12.4947   -5.4242  -59.4494 H   0  0  0  0  0  0  0  0  0  0  0  0
   11.1283   -4.2550  -59.3852 H   0  0  0  0  0  0  0  0  0  0  0  0
    9.5356   -4.2973  -57.4668 H   0  0  0  0  0  0  0  0  0  0  0  0
    9.7625   -5.5041  -56.1401 H   0  0  0  0  0  0  0  0  0  0  0  0
   11.6611   -5.2809  -54.5403 H   0  0  0  0  0  0  0  0  0  0  0  0
   12.8295   -3.9168  -54.7142 H   0  0  0  0  0  0  0  0  0  0  0  0
  1  2  2  0
  2  3  1  0
  3  4  1  0
  4  5  1  0
  5  6  2  0
  6  7  1  0
  7  8  2  0
  8  9  1  0
  9 10  2  0
  2 11  1  0
 12 11  1  1
 12 13  1  0
 13 14  1  0
 14 15  1  0
 15 16  1  0
 16 17  1  0
 17 18  1  0
 18 19  1  0
 18 20  1  0
 16 21  1  0
 10  5  1  0
 20 12  1  0
 21 12  1  0
 19 14  1  0
  3 22  1  0
  3 23  1  0
  4 24  1  0
  6 25  1  0
  7 26  1  0
  8 27  1  0
  9 28  1  0
 10 29  1  0
 11 30  1  0
 13 31  1  0
 13 32  1  0
 14 33  1  6
 15 34  1  0
 15 35  1  0
 16 36  1  1
 17 37  1  0
 17 38  1  0
 18 39  1  6
 19 40  1  0
 19 41  1  0
 20 42  1  0
 20 43  1  0
 21 44  1  0
 21 45  1  0
M  END
>  <meeko>  (60) 
{"is_sidechain": false}

$$$$

     RDKit          3D

 79 84  0  0  0  0  0  0  0  0999 V2000
   12.3600    4.9160  -58.0810 C   0  0  0  0  0  0  0  0  0  0  0  0
   11.5160    4.0470  -58.9760 C   0  0  0  0  0  0  0  0  0  0  0  0
   11.1380    4.5550  -60.2310 C   0  0  0  0  0  0  0  0  0  0  0  0
   10.3410    3.8070  -61.0950 C   0  0  0  0  0  0  0  0  0  0  0  0
    9.9050    2.5450  -60.7150 C   0  0  0  0  0  0  0  0  0  0  0  0
   10.2760    2.0230  -59.4760 C   0  0  0  0  0  0  0  0  0  0  0  0
   11.1070    2.7470  -58.5980 C   0  0  0  0  0  0  0  0  0  0  0  0
   11.4820    2.1650  -57.2530 C   0  0  0  0  0  0  0  0  0  0  0  0
   10.3520    1.5630  -56.5330 N   0  0  0  0  0  0  0  0  0  0  0  0
   10.3860    0.3000  -56.0010 C   0  0  0  0  0  0  0  0  0  0  0  0
    9.2070    0.0680  -55.3210 C   0  0  0  0  0  0  0  0  0  0  0  0
    8.9190   -1.1760  -54.6100 C   0  0  0  0  0  0  0  0  0  0  0  0
    9.2360   -2.2560  -55.0870 O   0  0  0  0  0  0  0  0  0  0  0  0
    8.2860   -0.9930  -53.4040 N   0  0  0  0  0  0  0  0  0  0  0  0
    7.9810   -2.0660  -52.4520 C   0  0  2  0  0  0  0  0  0  0  0  0
    9.2400   -2.9010  -52.1120 C   0  0  0  0  0  0  0  0  0  0  0  0
    8.9060   -3.9830  -51.0710 C   0  0  1  0  0  0  0  0  0  0  0  0
    8.3950   -3.3110  -49.7860 C   0  0  0  0  0  0  0  0  0  0  0  0
    7.1310   -2.4910  -50.0900 C   0  0  2  0  0  0  0  0  0  0  0  0
    6.0430   -3.4210  -50.6470 C   0  0  0  0  0  0  0  0  0  0  0  0
    6.5400   -4.0920  -51.9380 C   0  0  2  0  0  0  0  0  0  0  0  0
    7.8090   -4.9050  -51.6300 C   0  0  0  0  0  0  0  0  0  0  0  0
    6.8710   -3.0110  -52.9800 C   0  0  0  0  0  0  0  0  0  0  0  0
    7.4640   -1.4190  -51.1380 C   0  0  0  0  0  0  0  0  0  0  0  0
    8.3830    1.2260  -55.5220 C   0  0  0  0  0  0  0  0  0  0  0  0
    7.0100    1.4330  -54.9690 C   0  0  0  0  0  0  0  0  0  0  0  0
    9.0710    2.0730  -56.3930 C   0  0  0  0  0  0  0  0  0  0  0  0
    8.5860    3.2580  -57.1040 C   0  0  0  0  0  0  0  0  0  0  0  0
    9.1060    4.5140  -56.7630 C   0  0  0  0  0  0  0  0  0  0  0  0
    8.7010    5.6600  -57.4440 C   0  0  0  0  0  0  0  0  0  0  0  0
    7.7620    5.5660  -58.4630 C   0  0  0  0  0  0  0  0  0  0  0  0
    7.2120    4.3280  -58.7960 C   0  0  0  0  0  0  0  0  0  0  0  0
    7.6080    3.1560  -58.1210 C   0  0  0  0  0  0  0  0  0  0  0  0
    6.9140    1.8570  -58.4720 C   0  0  0  0  0  0  0  0  0  0  0  0
    5.6440    1.9810  -59.2810 N   0  0  0  0  0  0  0  0  0  0  0  0
    4.4420    2.2980  -58.4490 C   0  0  0  0  0  0  0  0  0  0  0  0
    5.4260    0.7890  -60.1660 C   0  0  0  0  0  0  0  0  0  0  0  0
   12.1361    4.6855  -57.0290 H   0  0  0  0  0  0  0  0  0  0  0  0
   13.4244    4.7228  -58.2802 H   0  0  0  0  0  0  0  0  0  0  0  0
   12.1359    5.9743  -58.2802 H   0  0  0  0  0  0  0  0  0  0  0  0
   11.4760    5.5566  -60.5351 H   0  0  0  0  0  0  0  0  0  0  0  0
   10.0578    4.2156  -62.0762 H   0  0  0  0  0  0  0  0  0  0  0  0
    9.2670    1.9568  -61.3910 H   0  0  0  0  0  0  0  0  0  0  0  0
    9.9133    1.0280  -59.1788 H   0  0  0  0  0  0  0  0  0  0  0  0
   12.2456    1.3892  -57.4113 H   0  0  0  0  0  0  0  0  0  0  0  0
   11.8499    2.9970  -56.6346 H   0  0  0  0  0  0  0  0  0  0  0  0
   11.2178   -0.4130  -56.0999 H   0  0  0  0  0  0  0  0  0  0  0  0
    8.3180   -0.0520  -53.0310 H   0  0  0  0  0  0  0  0  0  0  0  0
    9.6125   -3.3830  -53.0279 H   0  0  0  0  0  0  0  0  0  0  0  0
   10.0076   -2.2323  -51.6953 H   0  0  0  0  0  0  0  0  0  0  0  0
    9.8079   -4.5721  -50.8484 H   0  0  0  0  0  0  0  0  0  0  0  0
    8.1575   -4.0839  -49.0402 H   0  0  0  0  0  0  0  0  0  0  0  0
    9.1746   -2.6416  -49.3934 H   0  0  0  0  0  0  0  0  0  0  0  0
    6.7710   -2.0111  -49.1680 H   0  0  0  0  0  0  0  0  0  0  0  0
    5.8072   -4.1944  -49.9012 H   0  0  0  0  0  0  0  0  0  0  0  0
    5.1411   -2.8317  -50.8688 H   0  0  0  0  0  0  0  0  0  0  0  0
    5.7585   -4.7579  -52.3327 H   0  0  0  0  0  0  0  0  0  0  0  0
    7.5724   -5.6807  -50.8869 H   0  0  0  0  0  0  0  0  0  0  0  0
    8.1705   -5.3726  -52.5577 H   0  0  0  0  0  0  0  0  0  0  0  0
    7.2178   -3.4947  -53.9051 H   0  0  0  0  0  0  0  0  0  0  0  0
    5.9651   -2.4189  -53.1768 H   0  0  0  0  0  0  0  0  0  0  0  0
    6.5572   -0.8360  -51.3568 H   0  0  0  0  0  0  0  0  0  0  0  0
    8.2532   -0.7677  -50.7342 H   0  0  0  0  0  0  0  0  0  0  0  0
    7.0526    1.4266  -53.8698 H   0  0  0  0  0  0  0  0  0  0  0  0
    6.6173    2.4005  -55.3151 H   0  0  0  0  0  0  0  0  0  0  0  0
    6.3495    0.6243  -55.3151 H   0  0  0  0  0  0  0  0  0  0  0  0
    9.8416    4.5958  -55.9492 H   0  0  0  0  0  0  0  0  0  0  0  0
    9.1247    6.6388  -57.1747 H   0  0  0  0  0  0  0  0  0  0  0  0
    7.4514    6.4693  -59.0085 H   0  0  0  0  0  0  0  0  0  0  0  0
    6.4594    4.2658  -59.5959 H   0  0  0  0  0  0  0  0  0  0  0  0
    7.6214    1.2428  -59.0485 H   0  0  0  0  0  0  0  0  0  0  0  0
    6.6113    1.4141  -57.5117 H   0  0  0  0  0  0  0  0  0  0  0  0
    5.7960    2.7660  -59.9260 H   0  0  0  0  0  0  0  0  0  0  0  0
    4.7051    2.2286  -57.3832 H   0  0  0  0  0  0  0  0  0  0  0  0
    4.0975    3.3177  -58.6760 H   0  0  0  0  0  0  0  0  0  0  0  0
    3.6394    1.5808  -58.6760 H   0  0  0  0  0  0  0  0  0  0  0  0
    5.2627   -0.1040  -59.5447 H   0  0  0  0  0  0  0  0  0  0  0  0
    4.5443    0.9601  -60.8010 H   0  0  0  0  0  0  0  0  0  0  0  0
    6.3112    0.6370  -60.8010 H   0  0  0  0  0  0  0  0  0  0  0  0
  1  2  1  0
  2  3  2  0
  3  4  1  0
  4  5  2  0
  5  6  1  0
  6  7  2  0
  7  8  1  0
  8  9  1  0
  9 10  1  0
 10 11  2  0
 11 12  1  0
 12 13  2  0
 12 14  1  0
 15 14  1  6
 15 16  1  0
 16 17  1  0
 17 18  1  0
 18 19  1  0
 19 20  1  0
 20 21  1  0
 21 22  1  0
 21 23  1  0
 19 24  1  0
 11 25  1  0
 25 26  1  0
 25 27  2  0
 27 28  1  0
 28 29  2  0
 29 30  1  0
 30 31  2  0
 31 32  1  0
 32 33  2  0
 33 34  1  0
 34 35  1  0
 35 36  1  0
 35 37  1  0
  7  2  1  0
 27  9  1  0
 33 28  1  0
 23 15  1  0
 24 15  1  0
 22 17  1  0
  1 38  1  0
  1 39  1  0
  1 40  1  0
  3 41  1  0
  4 42  1  0
  5 43  1  0
  6 44  1  0
  8 45  1  0
  8 46  1  0
 10 47  1  0
 14 48  1  0
 16 49  1  0
 16 50  1  0
 17 51  1  1
 18 52  1  0
 18 53  1  0
 19 54  1  1
 20 55  1  0
 20 56  1  0
 21 57  1  6
 22 58  1  0
 22 59  1  0
 23 60  1  0
 23 61  1  0
 24 62  1  0
 24 63  1  0
 26 64  1  0
 26 65  1  0
 26 66  1  0
 29 67  1  0
 30 68  1  0
 31 69  1  0
 32 70  1  0
 34 71  1  0
 34 72  1  0
 35 73  1  0
 36 74  1  0
 36 75  1  0
 36 76  1  0
 37 77  1  0
 37 78  1  0
 37 79  1  0
M  CHG  1  35   1
M  END
>  <meeko>  (61) 
{"is_sidechain": false}

$$$$

     RDKit          3D

 69 73  0  0  0  0  0  0  0  0999 V2000
    6.2600    0.2200  -53.3430 C   0  0  0  0  0  0  0  0  0  0  0  0
    7.5050   -0.3920  -53.8940 C   0  0  0  0  0  0  0  0  0  0  0  0
    8.2740    0.0700  -55.0190 C   0  0  0  0  0  0  0  0  0  0  0  0
    8.0510    1.1860  -55.9420 C   0  0  0  0  0  0  0  0  0  0  0  0
    6.9330    1.6510  -56.1350 O   0  0  0  0  0  0  0  0  0  0  0  0
    9.2030    1.6820  -56.5110 N   0  0  0  0  0  0  0  0  0  0  0  0
    9.2890    2.8090  -57.4580 C   0  0  2  0  0  0  0  0  0  0  0  0
   10.7920    3.0150  -57.7870 C   0  0  0  0  0  0  0  0  0  0  0  0
   11.1570    4.3150  -58.5190 C   0  0  2  0  0  0  0  0  0  0  0  0
   10.4030    5.5280  -57.9720 C   0  0  0  0  0  0  0  0  0  0  0  0
    8.9120    5.2680  -57.8010 C   0  0  2  0  0  0  0  0  0  0  0  0
    8.7240    4.0980  -56.8360 C   0  0  0  0  0  0  0  0  0  0  0  0
    8.1930    5.0020  -59.1350 C   0  0  0  0  0  0  0  0  0  0  0  0
    8.4740    3.6230  -59.7920 C   0  0  2  0  0  0  0  0  0  0  0  0
    7.2950    3.3270  -60.7600 C   0  0  0  0  0  0  0  0  0  0  0  0
    8.4770    2.4950  -58.7300 C   0  0  0  0  0  0  0  0  0  0  0  0
    9.7750    3.6260  -60.6420 C   0  0  2  0  0  0  0  0  0  0  0  0
   10.1120    2.2950  -61.0560 O   0  0  0  0  0  0  0  0  0  0  0  0
   11.0440    4.2280  -60.0410 C   0  0  0  0  0  0  0  0  0  0  0  0
    9.3830   -0.7530  -55.0900 C   0  0  0  0  0  0  0  0  0  0  0  0
    9.3010   -1.7130  -54.1160 N   0  0  0  0  0  0  0  0  0  0  0  0
   10.2980   -2.7670  -53.9090 C   0  0  0  0  0  0  0  0  0  0  0  0
   11.4950   -2.2550  -53.1070 C   0  0  0  0  0  0  0  0  0  0  0  0
   10.7390   -3.3950  -55.2330 C   0  0  0  0  0  0  0  0  0  0  0  0
    8.1520   -1.5140  -53.3770 C   0  0  0  0  0  0  0  0  0  0  0  0
    7.7590   -2.3470  -52.2420 C   0  0  0  0  0  0  0  0  0  0  0  0
    8.5190   -2.3390  -51.0700 C   0  0  0  0  0  0  0  0  0  0  0  0
    8.1570   -3.1560  -50.0020 C   0  0  0  0  0  0  0  0  0  0  0  0
    7.0260   -3.9710  -50.0980 C   0  0  0  0  0  0  0  0  0  0  0  0
    6.2240   -3.9490  -51.2430 C   0  0  0  0  0  0  0  0  0  0  0  0
    5.1650   -4.8560  -51.3780 N   0  0  0  0  0  0  0  0  0  0  0  0
    6.6280   -3.1700  -52.3310 C   0  0  0  0  0  0  0  0  0  0  0  0
    6.2977    0.2014  -52.2438 H   0  0  0  0  0  0  0  0  0  0  0  0
    6.1786    1.2608  -53.6896 H   0  0  0  0  0  0  0  0  0  0  0  0
    5.3862   -0.3513  -53.6896 H   0  0  0  0  0  0  0  0  0  0  0  0
   10.0690    1.3290  -56.1300 H   0  0  0  0  0  0  0  0  0  0  0  0
   11.3481    2.9973  -56.8381 H   0  0  0  0  0  0  0  0  0  0  0  0
   11.0536    2.2038  -58.4823 H   0  0  0  0  0  0  0  0  0  0  0  0
   12.2259    4.4614  -58.3046 H   0  0  0  0  0  0  0  0  0  0  0  0
   10.8280    5.7938  -56.9929 H   0  0  0  0  0  0  0  0  0  0  0  0
   10.5155    6.3443  -58.7007 H   0  0  0  0  0  0  0  0  0  0  0  0
    8.4515    6.1779  -57.3888 H   0  0  0  0  0  0  0  0  0  0  0  0
    9.2539    4.3119  -55.8961 H   0  0  0  0  0  0  0  0  0  0  0  0
    7.6508    3.9629  -56.6359 H   0  0  0  0  0  0  0  0  0  0  0  0
    7.1103    5.0757  -58.9552 H   0  0  0  0  0  0  0  0  0  0  0  0
    8.5822    5.7526  -59.8386 H   0  0  0  0  0  0  0  0  0  0  0  0
    6.3902    3.0998  -60.1771 H   0  0  0  0  0  0  0  0  0  0  0  0
    7.1114    4.2069  -61.3941 H   0  0  0  0  0  0  0  0  0  0  0  0
    7.5488    2.4647  -61.3941 H   0  0  0  0  0  0  0  0  0  0  0  0
    7.4357    2.3018  -58.4326 H   0  0  0  0  0  0  0  0  0  0  0  0
    8.9612    1.6268  -59.2008 H   0  0  0  0  0  0  0  0  0  0  0  0
    9.4875    4.3005  -61.4620 H   0  0  0  0  0  0  0  0  0  0  0  0
   11.0730    2.2590  -61.1980 H   0  0  0  0  0  0  0  0  0  0  0  0
   11.8909    3.6224  -60.3959 H   0  0  0  0  0  0  0  0  0  0  0  0
   11.0284    5.2771  -60.3714 H   0  0  0  0  0  0  0  0  0  0  0  0
   10.2035   -0.6525  -55.8157 H   0  0  0  0  0  0  0  0  0  0  0  0
    9.8173   -3.5590  -53.3160 H   0  0  0  0  0  0  0  0  0  0  0  0
   11.2819   -2.3461  -52.0317 H   0  0  0  0  0  0  0  0  0  0  0  0
   12.3853   -2.8510  -53.3562 H   0  0  0  0  0  0  0  0  0  0  0  0
   11.6789   -1.1995  -53.3562 H   0  0  0  0  0  0  0  0  0  0  0  0
   11.3603   -4.2798  -55.0302 H   0  0  0  0  0  0  0  0  0  0  0  0
    9.8518   -3.6945  -55.8103 H   0  0  0  0  0  0  0  0  0  0  0  0
   11.3219   -2.6622  -55.8103 H   0  0  0  0  0  0  0  0  0  0  0  0
    9.4023   -1.6882  -50.9908 H   0  0  0  0  0  0  0  0  0  0  0  0
    8.7613   -3.1598  -49.0829 H   0  0  0  0  0  0  0  0  0  0  0  0
    6.7637   -4.6375  -49.2632 H   0  0  0  0  0  0  0  0  0  0  0  0
    4.7700   -4.8930  -52.3120 H   0  0  0  0  0  0  0  0  0  0  0  0
    5.3630   -5.7780  -51.0020 H   0  0  0  0  0  0  0  0  0  0  0  0
    6.0519   -3.2032  -53.2675 H   0  0  0  0  0  0  0  0  0  0  0  0
  1  2  1  0
  2  3  1  0
  3  4  1  0
  4  5  2  0
  4  6  1  0
  7  6  1  1
  7  8  1  0
  8  9  1  0
  9 10  1  0
 10 11  1  0
 11 12  1  0
 11 13  1  0
 13 14  1  0
 14 15  1  6
 14 16  1  0
 14 17  1  0
 17 18  1  0
 17 19  1  0
  3 20  2  0
 20 21  1  0
 21 22  1  0
 22 23  1  0
 22 24  1  0
 21 25  1  0
 25 26  1  0
 26 27  1  0
 27 28  2  0
 28 29  1  0
 29 30  2  0
 30 31  1  0
 30 32  1  0
 25  2  2  0
 32 26  2  0
 12  7  1  0
 16  7  1  0
 19  9  1  0
  1 33  1  0
  1 34  1  0
  1 35  1  0
  6 36  1  0
  8 37  1  0
  8 38  1  0
  9 39  1  6
 10 40  1  0
 10 41  1  0
 11 42  1  1
 12 43  1  0
 12 44  1  0
 13 45  1  0
 13 46  1  0
 15 47  1  0
 15 48  1  0
 15 49  1  0
 16 50  1  0
 16 51  1  0
 17 52  1  6
 18 53  1  0
 19 54  1  0
 19 55  1  0
 20 56  1  0
 22 57  1  0
 23 58  1  0
 23 59  1  0
 23 60  1  0
 24 61  1  0
 24 62  1  0
 24 63  1  0
 27 64  1  0
 28 65  1  0
 29 66  1  0
 31 67  1  0
 31 68  1  0
 32 69  1  0
M  END
>  <meeko>  (62) 
{"is_sidechain": false}

$$$$

     RDKit          3D

 64 69  0  0  0  0  0  0  0  0999 V2000
    6.1350   -0.0360  -53.7520 C   0  0  0  0  0  0  0  0  0  0  0  0
    7.5330   -0.3710  -54.1530 C   0  0  0  0  0  0  0  0  0  0  0  0
    8.3260    0.2750  -55.1660 C   0  0  0  0  0  0  0  0  0  0  0  0
    8.0380    1.4250  -56.0270 C   0  0  0  0  0  0  0  0  0  0  0  0
    6.9080    1.8880  -56.1330 O   0  0  0  0  0  0  0  0  0  0  0  0
    9.1260    1.8840  -56.7370 N   0  0  0  0  0  0  0  0  0  0  0  0
    9.0830    2.9480  -57.7420 C   0  0  2  0  0  0  0  0  0  0  0  0
   10.3920    2.8810  -58.5760 C   0  0  0  0  0  0  0  0  0  0  0  0
   10.4130    3.9710  -59.6590 C   0  0  1  0  0  0  0  0  0  0  0  0
    9.2090    3.7750  -60.5940 C   0  0  0  0  0  0  0  0  0  0  0  0
    7.9010    3.8660  -59.7920 C   0  0  2  0  0  0  0  0  0  0  0  0
    7.8170    5.2450  -59.1150 C   0  0  0  0  0  0  0  0  0  0  0  0
    9.0180    5.4500  -58.1770 C   0  0  2  0  0  0  0  0  0  0  0  0
   10.3190    5.3500  -58.9890 C   0  0  0  0  0  0  0  0  0  0  0  0
    9.0080    4.3550  -57.0960 C   0  0  0  0  0  0  0  0  0  0  0  0
    7.8890    2.7700  -58.7120 C   0  0  0  0  0  0  0  0  0  0  0  0
    9.5120   -0.4330  -55.2360 C   0  0  0  0  0  0  0  0  0  0  0  0
    9.4890   -1.4450  -54.3120 N   0  0  0  0  0  0  0  0  0  0  0  0
   10.6040   -2.3660  -54.0890 C   0  0  0  0  0  0  0  0  0  0  0  0
   10.9760   -3.1450  -55.3280 C   0  0  0  0  0  0  0  0  0  0  0  0
   11.5490   -2.5100  -56.4400 C   0  0  0  0  0  0  0  0  0  0  0  0
   11.9010   -3.2450  -57.5740 C   0  0  0  0  0  0  0  0  0  0  0  0
   11.6910   -4.6220  -57.6080 C   0  0  0  0  0  0  0  0  0  0  0  0
   11.1290   -5.2660  -56.5080 C   0  0  0  0  0  0  0  0  0  0  0  0
   10.7780   -4.5340  -55.3720 C   0  0  0  0  0  0  0  0  0  0  0  0
    8.3010   -1.4030  -53.6150 C   0  0  0  0  0  0  0  0  0  0  0  0
    7.9610   -2.3360  -52.5430 C   0  0  0  0  0  0  0  0  0  0  0  0
    8.1460   -1.9690  -51.2050 C   0  0  0  0  0  0  0  0  0  0  0  0
    7.8220   -2.8600  -50.1810 C   0  0  0  0  0  0  0  0  0  0  0  0
    7.3070   -4.1190  -50.4880 C   0  0  0  0  0  0  0  0  0  0  0  0
    7.1120   -4.4880  -51.8190 C   0  0  0  0  0  0  0  0  0  0  0  0
    7.4350   -3.5970  -52.8440 C   0  0  0  0  0  0  0  0  0  0  0  0
    6.0625   -0.0186  -52.6545 H   0  0  0  0  0  0  0  0  0  0  0  0
    5.8653    0.9522  -54.1530 H   0  0  0  0  0  0  0  0  0  0  0  0
    5.4468   -0.7946  -54.1530 H   0  0  0  0  0  0  0  0  0  0  0  0
    9.9170    1.2560  -56.7650 H   0  0  0  0  0  0  0  0  0  0  0  0
   11.2528    3.0233  -57.9060 H   0  0  0  0  0  0  0  0  0  0  0  0
   10.4437    1.8983  -59.0676 H   0  0  0  0  0  0  0  0  0  0  0  0
   11.3459    3.9048  -60.2380 H   0  0  0  0  0  0  0  0  0  0  0  0
    9.2173    4.5570  -61.3675 H   0  0  0  0  0  0  0  0  0  0  0  0
    9.2754    2.7834  -61.0656 H   0  0  0  0  0  0  0  0  0  0  0  0
    7.0429    3.7302  -60.4667 H   0  0  0  0  0  0  0  0  0  0  0  0
    7.8203    6.0293  -59.8863 H   0  0  0  0  0  0  0  0  0  0  0  0
    6.8889    5.3004  -58.5272 H   0  0  0  0  0  0  0  0  0  0  0  0
    8.9538    6.4404  -57.7026 H   0  0  0  0  0  0  0  0  0  0  0  0
   10.3273    6.1324  -59.7622 H   0  0  0  0  0  0  0  0  0  0  0  0
   11.1777    5.4841  -58.3147 H   0  0  0  0  0  0  0  0  0  0  0  0
    9.8742    4.4945  -56.4325 H   0  0  0  0  0  0  0  0  0  0  0  0
    8.0723    4.4320  -56.5227 H   0  0  0  0  0  0  0  0  0  0  0  0
    6.9492    2.8325  -58.1439 H   0  0  0  0  0  0  0  0  0  0  0  0
    7.9729    1.7885  -59.2016 H   0  0  0  0  0  0  0  0  0  0  0  0
   10.3425   -0.2179  -55.9245 H   0  0  0  0  0  0  0  0  0  0  0  0
   11.4795   -1.7855  -53.7627 H   0  0  0  0  0  0  0  0  0  0  0  0
   10.2872   -3.0908  -53.3246 H   0  0  0  0  0  0  0  0  0  0  0  0
   11.7225   -1.4240  -56.4185 H   0  0  0  0  0  0  0  0  0  0  0  0
   12.3449   -2.7358  -58.4421 H   0  0  0  0  0  0  0  0  0  0  0  0
   11.9685   -5.1997  -58.5020 H   0  0  0  0  0  0  0  0  0  0  0  0
   10.9615   -6.3529  -56.5344 H   0  0  0  0  0  0  0  0  0  0  0  0
   10.3425   -5.0503  -54.5038 H   0  0  0  0  0  0  0  0  0  0  0  0
    8.5481   -0.9749  -50.9598 H   0  0  0  0  0  0  0  0  0  0  0  0
    7.9730   -2.5690  -49.1310 H   0  0  0  0  0  0  0  0  0  0  0  0
    7.0544   -4.8215  -49.6801 H   0  0  0  0  0  0  0  0  0  0  0  0
    6.7040   -5.4805  -52.0608 H   0  0  0  0  0  0  0  0  0  0  0  0
    7.2753   -3.8876  -53.8928 H   0  0  0  0  0  0  0  0  0  0  0  0
  1  2  1  0
  2  3  1  0
  3  4  1  0
  4  5  2  0
  4  6  1  0
  7  6  1  1
  7  8  1  0
  8  9  1  0
  9 10  1  0
 10 11  1  0
 11 12  1  0
 12 13  1  0
 13 14  1  0
 13 15  1  0
 11 16  1  0
  3 17  2  0
 17 18  1  0
 18 19  1  0
 19 20  1  0
 20 21  2  0
 21 22  1  0
 22 23  2  0
 23 24  1  0
 24 25  2  0
 18 26  1  0
 26 27  1  0
 27 28  2  0
 28 29  1  0
 29 30  2  0
 30 31  1  0
 31 32  2  0
 26  2  2  0
 32 27  1  0
 15  7  1  0
 25 20  1  0
 16  7  1  0
 14  9  1  0
  1 33  1  0
  1 34  1  0
  1 35  1  0
  6 36  1  0
  8 37  1  0
  8 38  1  0
  9 39  1  6
 10 40  1  0
 10 41  1  0
 11 42  1  6
 12 43  1  0
 12 44  1  0
 13 45  1  1
 14 46  1  0
 14 47  1  0
 15 48  1  0
 15 49  1  0
 16 50  1  0
 16 51  1  0
 17 52  1  0
 19 53  1  0
 19 54  1  0
 21 55  1  0
 22 56  1  0
 23 57  1  0
 24 58  1  0
 25 59  1  0
 28 60  1  0
 29 61  1  0
 30 62  1  0
 31 63  1  0
 32 64  1  0
M  END
>  <meeko>  (63) 
{"is_sidechain": false}

$$$$

     RDKit          3D

 64 69  0  0  0  0  0  0  0  0999 V2000
    6.4860    0.3050  -53.9330 C   0  0  0  0  0  0  0  0  0  0  0  0
    7.8180   -0.2260  -54.3500 C   0  0  0  0  0  0  0  0  0  0  0  0
    8.6570    0.3510  -55.3670 C   0  0  0  0  0  0  0  0  0  0  0  0
    8.3700    1.5410  -56.1820 C   0  0  0  0  0  0  0  0  0  0  0  0
    7.2720    2.0860  -56.1730 O   0  0  0  0  0  0  0  0  0  0  0  0
    9.4220    1.9680  -56.9680 N   0  0  0  0  0  0  0  0  0  0  0  0
    9.3580    3.0740  -57.9250 C   0  0  2  0  0  0  0  0  0  0  0  0
    8.2010    2.8870  -58.9380 C   0  0  0  0  0  0  0  0  0  0  0  0
    8.1920    4.0320  -59.9670 C   0  0  1  0  0  0  0  0  0  0  0  0
    8.0240    5.3720  -59.2320 C   0  0  0  0  0  0  0  0  0  0  0  0
    9.1890    5.5880  -58.2500 C   0  0  2  0  0  0  0  0  0  0  0  0
   10.5150    5.5850  -59.0270 C   0  0  0  0  0  0  0  0  0  0  0  0
   10.6920    4.2440  -59.7550 C   0  0  2  0  0  0  0  0  0  0  0  0
    9.5240    4.0380  -60.7340 C   0  0  0  0  0  0  0  0  0  0  0  0
   10.6910    3.1070  -58.7230 C   0  0  0  0  0  0  0  0  0  0  0  0
    9.2000    4.4450  -57.2190 C   0  0  0  0  0  0  0  0  0  0  0  0
    9.7980   -0.4300  -55.4050 C   0  0  0  0  0  0  0  0  0  0  0  0
    9.6750   -1.4570  -54.4990 N   0  0  0  0  0  0  0  0  0  0  0  0
   10.7110   -2.4690  -54.2910 C   0  0  0  0  0  0  0  0  0  0  0  0
   10.9990   -3.2470  -55.5480 C   0  0  0  0  0  0  0  0  0  0  0  0
   10.5330   -4.5620  -55.7090 C   0  0  0  0  0  0  0  0  0  0  0  0
   10.7950   -5.2620  -56.8880 C   0  0  0  0  0  0  0  0  0  0  0  0
   11.5250   -4.6530  -57.9030 C   0  0  0  0  0  0  0  0  0  0  0  0
   11.7740   -5.3300  -59.0310 F   0  0  0  0  0  0  0  0  0  0  0  0
   12.0030   -3.3590  -57.7640 C   0  0  0  0  0  0  0  0  0  0  0  0
   11.7370   -2.6680  -56.5880 C   0  0  0  0  0  0  0  0  0  0  0  0
   12.2150   -1.4230  -56.4520 F   0  0  0  0  0  0  0  0  0  0  0  0
    8.4690   -1.3470  -53.8370 C   0  0  0  0  0  0  0  0  0  0  0  0
    8.0040   -2.2820  -52.8100 C   0  0  0  0  0  0  0  0  0  0  0  0
    8.6490   -2.3200  -51.5650 C   0  0  0  0  0  0  0  0  0  0  0  0
    8.2230   -3.2130  -50.5800 C   0  0  0  0  0  0  0  0  0  0  0  0
    7.1590   -4.0700  -50.8410 C   0  0  0  0  0  0  0  0  0  0  0  0
    6.7520   -4.9210  -49.8910 F   0  0  0  0  0  0  0  0  0  0  0  0
    6.5100   -4.0540  -52.0680 C   0  0  0  0  0  0  0  0  0  0  0  0
    6.9370   -3.1610  -53.0440 C   0  0  0  0  0  0  0  0  0  0  0  0
    6.2920   -3.1440  -54.2200 F   0  0  0  0  0  0  0  0  0  0  0  0
    6.4280    0.3281  -52.8348 H   0  0  0  0  0  0  0  0  0  0  0  0
    6.3570    1.3233  -54.3285 H   0  0  0  0  0  0  0  0  0  0  0  0
    5.6919   -0.3453  -54.3285 H   0  0  0  0  0  0  0  0  0  0  0  0
   10.2110    1.3430  -57.0390 H   0  0  0  0  0  0  0  0  0  0  0  0
    8.3318    1.9296  -59.4636 H   0  0  0  0  0  0  0  0  0  0  0  0
    7.2464    2.8936  -58.3915 H   0  0  0  0  0  0  0  0  0  0  0  0
    7.3604    3.8885  -60.6725 H   0  0  0  0  0  0  0  0  0  0  0  0
    8.0113    6.1905  -59.9667 H   0  0  0  0  0  0  0  0  0  0  0  0
    7.0784    5.3576  -58.6702 H   0  0  0  0  0  0  0  0  0  0  0  0
    9.0661    6.5516  -57.7339 H   0  0  0  0  0  0  0  0  0  0  0  0
   10.5077    6.4017  -59.7638 H   0  0  0  0  0  0  0  0  0  0  0  0
   11.3477    5.7269  -58.3224 H   0  0  0  0  0  0  0  0  0  0  0  0
   11.6427    4.2456  -60.3083 H   0  0  0  0  0  0  0  0  0  0  0  0
    9.5170    4.8552  -61.4703 H   0  0  0  0  0  0  0  0  0  0  0  0
    9.6493    3.0740  -61.2488 H   0  0  0  0  0  0  0  0  0  0  0  0
   10.8202    2.1478  -59.2457 H   0  0  0  0  0  0  0  0  0  0  0  0
   11.5163    3.2774  -58.0160 H   0  0  0  0  0  0  0  0  0  0  0  0
   10.0402    4.5928  -56.5245 H   0  0  0  0  0  0  0  0  0  0  0  0
    8.2465    4.4533  -56.6705 H   0  0  0  0  0  0  0  0  0  0  0  0
   10.6667   -0.2568  -56.0571 H   0  0  0  0  0  0  0  0  0  0  0  0
   11.6346   -1.9697  -53.9627 H   0  0  0  0  0  0  0  0  0  0  0  0
   10.3486   -3.1752  -53.5294 H   0  0  0  0  0  0  0  0  0  0  0  0
    9.9592   -5.0424  -54.9028 H   0  0  0  0  0  0  0  0  0  0  0  0
   10.4258   -6.2905  -57.0136 H   0  0  0  0  0  0  0  0  0  0  0  0
   12.5830   -2.8873  -58.5709 H   0  0  0  0  0  0  0  0  0  0  0  0
    9.4932   -1.6440  -51.3641 H   0  0  0  0  0  0  0  0  0  0  0  0
    8.7264   -3.2387  -49.6023 H   0  0  0  0  0  0  0  0  0  0  0  0
    5.6708   -4.7374  -52.2649 H   0  0  0  0  0  0  0  0  0  0  0  0
  1  2  1  0
  2  3  1  0
  3  4  1  0
  4  5  2  0
  4  6  1  0
  7  6  1  1
  7  8  1  0
  8  9  1  0
  9 10  1  0
 10 11  1  0
 11 12  1  0
 12 13  1  0
 13 14  1  0
 13 15  1  0
 11 16  1  0
  3 17  2  0
 17 18  1  0
 18 19  1  0
 19 20  1  0
 20 21  1  0
 21 22  2  0
 22 23  1  0
 23 24  1  0
 23 25  2  0
 25 26  1  0
 26 27  1  0
 18 28  1  0
 28 29  1  0
 29 30  1  0
 30 31  2  0
 31 32  1  0
 32 33  1  0
 32 34  2  0
 34 35  1  0
 35 36  1  0
 28  2  2  0
 35 29  2  0
 15  7  1  0
 26 20  2  0
 16  7  1  0
 14  9  1  0
  1 37  1  0
  1 38  1  0
  1 39  1  0
  6 40  1  0
  8 41  1  0
  8 42  1  0
  9 43  1  6
 10 44  1  0
 10 45  1  0
 11 46  1  1
 12 47  1  0
 12 48  1  0
 13 49  1  6
 14 50  1  0
 14 51  1  0
 15 52  1  0
 15 53  1  0
 16 54  1  0
 16 55  1  0
 17 56  1  0
 19 57  1  0
 19 58  1  0
 21 59  1  0
 22 60  1  0
 25 61  1  0
 30 62  1  0
 31 63  1  0
 34 64  1  0
M  END
>  <meeko>  (64) 
{"is_sidechain": false}

$$$$

     RDKit          3D

 68 73  0  0  0  0  0  0  0  0999 V2000
   12.1260   -7.1960  -57.2570 C   0  0  0  0  0  0  0  0  0  0  0  0
   11.0120   -6.4980  -56.7140 O   0  0  0  0  0  0  0  0  0  0  0  0
   11.1640   -5.1520  -56.5170 C   0  0  0  0  0  0  0  0  0  0  0  0
   11.7440   -4.4670  -57.5860 C   0  0  0  0  0  0  0  0  0  0  0  0
   11.9520   -3.0910  -57.5170 C   0  0  0  0  0  0  0  0  0  0  0  0
   11.5830   -2.3880  -56.3720 C   0  0  0  0  0  0  0  0  0  0  0  0
   10.9960   -3.0540  -55.2860 C   0  0  0  0  0  0  0  0  0  0  0  0
   10.6150   -2.2840  -54.0440 C   0  0  0  0  0  0  0  0  0  0  0  0
    9.5150   -1.3480  -54.2750 N   0  0  0  0  0  0  0  0  0  0  0  0
    9.5390   -0.3670  -55.2300 C   0  0  0  0  0  0  0  0  0  0  0  0
    8.3420    0.3280  -55.2010 C   0  0  0  0  0  0  0  0  0  0  0  0
    8.0550    1.4500  -56.0980 C   0  0  0  0  0  0  0  0  0  0  0  0
    6.9730    2.0270  -56.0830 O   0  0  0  0  0  0  0  0  0  0  0  0
    9.1140    1.8190  -56.8960 N   0  0  0  0  0  0  0  0  0  0  0  0
    9.1190    2.9710  -57.8010 C   0  0  2  0  0  0  0  0  0  0  0  0
    8.9910    4.3050  -57.0270 C   0  0  0  0  0  0  0  0  0  0  0  0
    9.0590    5.5000  -57.9930 C   0  0  1  0  0  0  0  0  0  0  0  0
   10.4080    5.4830  -58.7300 C   0  0  0  0  0  0  0  0  0  0  0  0
   10.5540    4.1760  -59.5270 C   0  0  2  0  0  0  0  0  0  0  0  0
    9.4120    4.0730  -60.5490 C   0  0  0  0  0  0  0  0  0  0  0  0
    8.0580    4.0810  -59.8230 C   0  0  2  0  0  0  0  0  0  0  0  0
    7.9190    5.3860  -59.0220 C   0  0  0  0  0  0  0  0  0  0  0  0
    7.9890    2.8840  -58.8580 C   0  0  0  0  0  0  0  0  0  0  0  0
   10.4750    2.9850  -58.5600 C   0  0  0  0  0  0  0  0  0  0  0  0
    7.5600   -0.2670  -54.1470 C   0  0  0  0  0  0  0  0  0  0  0  0
    6.2170    0.1710  -53.6650 C   0  0  0  0  0  0  0  0  0  0  0  0
    8.2990   -1.3280  -53.6250 C   0  0  0  0  0  0  0  0  0  0  0  0
    7.9390   -2.2590  -52.5580 C   0  0  0  0  0  0  0  0  0  0  0  0
    7.4080   -3.5150  -52.8700 C   0  0  0  0  0  0  0  0  0  0  0  0
    7.0670   -4.4060  -51.8500 C   0  0  0  0  0  0  0  0  0  0  0  0
    7.2520   -4.0450  -50.5170 C   0  0  0  0  0  0  0  0  0  0  0  0
    7.7740   -2.7910  -50.1990 C   0  0  0  0  0  0  0  0  0  0  0  0
    8.1140   -1.8990  -51.2180 C   0  0  0  0  0  0  0  0  0  0  0  0
   10.8020   -4.4460  -55.3680 C   0  0  0  0  0  0  0  0  0  0  0  0
   12.7487   -7.5862  -56.4384 H   0  0  0  0  0  0  0  0  0  0  0  0
   11.7686   -8.0319  -57.8763 H   0  0  0  0  0  0  0  0  0  0  0  0
   12.7223   -6.5097  -57.8763 H   0  0  0  0  0  0  0  0  0  0  0  0
   12.0395   -5.0183  -58.4908 H   0  0  0  0  0  0  0  0  0  0  0  0
   12.4073   -2.5600  -58.3660 H   0  0  0  0  0  0  0  0  0  0  0  0
   11.7533   -1.3025  -56.3193 H   0  0  0  0  0  0  0  0  0  0  0  0
   10.3106   -2.9995  -53.2659 H   0  0  0  0  0  0  0  0  0  0  0  0
   11.4921   -1.6961  -53.7356 H   0  0  0  0  0  0  0  0  0  0  0  0
   10.3772   -0.1633  -55.9126 H   0  0  0  0  0  0  0  0  0  0  0  0
   10.0120    1.4440  -56.6240 H   0  0  0  0  0  0  0  0  0  0  0  0
    8.0279    4.3238  -56.4959 H   0  0  0  0  0  0  0  0  0  0  0  0
    9.8222    4.3804  -56.3105 H   0  0  0  0  0  0  0  0  0  0  0  0
    8.9578    6.4381  -57.4276 H   0  0  0  0  0  0  0  0  0  0  0  0
   10.4571    6.3382  -59.4201 H   0  0  0  0  0  0  0  0  0  0  0  0
   11.2229    5.5508  -57.9942 H   0  0  0  0  0  0  0  0  0  0  0  0
   11.5210    4.1678  -60.0512 H   0  0  0  0  0  0  0  0  0  0  0  0
    9.4612    4.9288  -61.2384 H   0  0  0  0  0  0  0  0  0  0  0  0
    9.5147    3.1344  -61.1133 H   0  0  0  0  0  0  0  0  0  0  0  0
    7.2443    4.0092  -60.5597 H   0  0  0  0  0  0  0  0  0  0  0  0
    7.9640    6.2423  -59.7111 H   0  0  0  0  0  0  0  0  0  0  0  0
    6.9551    5.3819  -58.4921 H   0  0  0  0  0  0  0  0  0  0  0  0
    7.0148    2.8870  -58.3471 H   0  0  0  0  0  0  0  0  0  0  0  0
    8.1129    1.9555  -59.4346 H   0  0  0  0  0  0  0  0  0  0  0  0
   10.5767    2.0506  -59.1315 H   0  0  0  0  0  0  0  0  0  0  0  0
   11.2871    3.0776  -57.8238 H   0  0  0  0  0  0  0  0  0  0  0  0
    6.2055    0.1748  -52.5651 H   0  0  0  0  0  0  0  0  0  0  0  0
    6.0064    1.1844  -54.0374 H   0  0  0  0  0  0  0  0  0  0  0  0
    5.4494   -0.5234  -54.0374 H   0  0  0  0  0  0  0  0  0  0  0  0
    7.2586   -3.8016  -53.9214 H   0  0  0  0  0  0  0  0  0  0  0  0
    6.6520   -5.3937  -52.0992 H   0  0  0  0  0  0  0  0  0  0  0  0
    6.9863   -4.7493  -49.7149 H   0  0  0  0  0  0  0  0  0  0  0  0
    7.9176   -2.5052  -49.1465 H   0  0  0  0  0  0  0  0  0  0  0  0
    8.5213   -0.9088  -50.9657 H   0  0  0  0  0  0  0  0  0  0  0  0
   10.3598   -4.9840  -54.5165 H   0  0  0  0  0  0  0  0  0  0  0  0
  1  2  1  0
  2  3  1  0
  3  4  1  0
  4  5  2  0
  5  6  1  0
  6  7  2  0
  7  8  1  0
  8  9  1  0
  9 10  1  0
 10 11  2  0
 11 12  1  0
 12 13  2  0
 12 14  1  0
 15 14  1  1
 15 16  1  0
 16 17  1  0
 17 18  1  0
 18 19  1  0
 19 20  1  0
 20 21  1  0
 21 22  1  0
 21 23  1  0
 19 24  1  0
 11 25  1  0
 25 26  1  0
 25 27  2  0
 27 28  1  0
 28 29  2  0
 29 30  1  0
 30 31  2  0
 31 32  1  0
 32 33  2  0
  7 34  1  0
 34  3  2  0
 27  9  1  0
 33 28  1  0
 23 15  1  0
 24 15  1  0
 22 17  1  0
  1 35  1  0
  1 36  1  0
  1 37  1  0
  4 38  1  0
  5 39  1  0
  6 40  1  0
  8 41  1  0
  8 42  1  0
 10 43  1  0
 14 44  1  0
 16 45  1  0
 16 46  1  0
 17 47  1  1
 18 48  1  0
 18 49  1  0
 19 50  1  6
 20 51  1  0
 20 52  1  0
 21 53  1  6
 22 54  1  0
 22 55  1  0
 23 56  1  0
 23 57  1  0
 24 58  1  0
 24 59  1  0
 26 60  1  0
 26 61  1  0
 26 62  1  0
 29 63  1  0
 30 64  1  0
 31 65  1  0
 32 66  1  0
 33 67  1  0
 34 68  1  0
M  END
>  <meeko>  (65) 
{"is_sidechain": false}

$$$$

     RDKit          3D

 64 69  0  0  0  0  0  0  0  0999 V2000
    6.1790    0.2100  -53.7840 C   0  0  0  0  0  0  0  0  0  0  0  0
    7.5210   -0.3090  -54.1840 C   0  0  0  0  0  0  0  0  0  0  0  0
    8.3580    0.2480  -55.2110 C   0  0  0  0  0  0  0  0  0  0  0  0
    8.0700    1.4170  -56.0530 C   0  0  0  0  0  0  0  0  0  0  0  0
    6.9510    1.9150  -56.1150 O   0  0  0  0  0  0  0  0  0  0  0  0
    9.1500    1.8790  -56.7790 N   0  0  0  0  0  0  0  0  0  0  0  0
    9.0970    2.9660  -57.7580 C   0  0  2  0  0  0  0  0  0  0  0  0
    7.9290    2.7790  -58.7570 C   0  0  0  0  0  0  0  0  0  0  0  0
    7.9310    3.9010  -59.8100 C   0  0  1  0  0  0  0  0  0  0  0  0
    7.7940    5.2600  -59.1030 C   0  0  0  0  0  0  0  0  0  0  0  0
    8.9710    5.4750  -58.1360 C   0  0  2  0  0  0  0  0  0  0  0  0
   10.2890    5.4310  -58.9240 C   0  0  0  0  0  0  0  0  0  0  0  0
   10.4360    4.0710  -59.6240 C   0  0  2  0  0  0  0  0  0  0  0  0
    9.2570    3.8650  -60.5870 C   0  0  0  0  0  0  0  0  0  0  0  0
   10.4240    2.9560  -58.5670 C   0  0  0  0  0  0  0  0  0  0  0  0
    8.9700    4.3540  -57.0800 C   0  0  0  0  0  0  0  0  0  0  0  0
    9.5120   -0.5170  -55.2210 C   0  0  0  0  0  0  0  0  0  0  0  0
    9.3890   -1.5320  -54.3020 N   0  0  0  0  0  0  0  0  0  0  0  0
   10.4130   -2.5410  -54.0160 C   0  0  0  0  0  0  0  0  0  0  0  0
   10.9210   -3.2510  -55.2510 C   0  0  0  0  0  0  0  0  0  0  0  0
   10.6230   -4.6150  -55.4250 C   0  0  0  0  0  0  0  0  0  0  0  0
   11.0850   -5.3010  -56.5440 C   0  0  0  0  0  0  0  0  0  0  0  0
   10.7940   -6.6000  -56.6860 F   0  0  0  0  0  0  0  0  0  0  0  0
   11.8440   -4.6600  -57.5130 C   0  0  0  0  0  0  0  0  0  0  0  0
   12.1450   -3.3080  -57.3600 C   0  0  0  0  0  0  0  0  0  0  0  0
   11.6880   -2.6050  -56.2380 C   0  0  0  0  0  0  0  0  0  0  0  0
   12.0950   -0.9310  -56.1280 Cl  0  0  0  0  0  0  0  0  0  0  0  0
    8.1900   -1.3950  -53.6290 C   0  0  0  0  0  0  0  0  0  0  0  0
    7.7730   -2.2660  -52.5320 C   0  0  0  0  0  0  0  0  0  0  0  0
    7.0190   -3.4150  -52.7910 C   0  0  0  0  0  0  0  0  0  0  0  0
    6.6300   -4.2510  -51.7440 C   0  0  0  0  0  0  0  0  0  0  0  0
    6.9900   -3.9400  -50.4320 C   0  0  0  0  0  0  0  0  0  0  0  0
    7.7340   -2.7900  -50.1670 C   0  0  0  0  0  0  0  0  0  0  0  0
    8.1240   -1.9540  -51.2140 C   0  0  0  0  0  0  0  0  0  0  0  0
    6.1086    0.2372  -52.6866 H   0  0  0  0  0  0  0  0  0  0  0  0
    6.0439    1.2252  -54.1854 H   0  0  0  0  0  0  0  0  0  0  0  0
    5.3960   -0.4502  -54.1854 H   0  0  0  0  0  0  0  0  0  0  0  0
    9.9550    1.2710  -56.8090 H   0  0  0  0  0  0  0  0  0  0  0  0
    8.0381    1.8084  -59.2630 H   0  0  0  0  0  0  0  0  0  0  0  0
    6.9795    2.8150  -58.2027 H   0  0  0  0  0  0  0  0  0  0  0  0
    7.0905    3.7584  -60.5051 H   0  0  0  0  0  0  0  0  0  0  0  0
    7.7902    6.0625  -59.8553 H   0  0  0  0  0  0  0  0  0  0  0  0
    6.8531    5.2758  -58.5334 H   0  0  0  0  0  0  0  0  0  0  0  0
    8.8705    6.4514  -57.6394 H   0  0  0  0  0  0  0  0  0  0  0  0
   10.2894    6.2313  -59.6786 H   0  0  0  0  0  0  0  0  0  0  0  0
   11.1303    5.5733  -58.2298 H   0  0  0  0  0  0  0  0  0  0  0  0
   11.3818    4.0436  -60.1850 H   0  0  0  0  0  0  0  0  0  0  0  0
    9.2589    4.6654  -61.3416 H   0  0  0  0  0  0  0  0  0  0  0  0
    9.3601    2.8871  -61.0801 H   0  0  0  0  0  0  0  0  0  0  0  0
   10.5310    1.9834  -59.0696 H   0  0  0  0  0  0  0  0  0  0  0  0
   11.2587    3.1255  -57.8710 H   0  0  0  0  0  0  0  0  0  0  0  0
    9.8186    4.5011  -56.3957 H   0  0  0  0  0  0  0  0  0  0  0  0
    8.0218    4.3916  -56.5237 H   0  0  0  0  0  0  0  0  0  0  0  0
   10.3881   -0.3406  -55.8624 H   0  0  0  0  0  0  0  0  0  0  0  0
   11.2632   -2.0450  -53.5249 H   0  0  0  0  0  0  0  0  0  0  0  0
    9.9468   -3.3024  -53.3735 H   0  0  0  0  0  0  0  0  0  0  0  0
   10.0205   -5.1428  -54.6711 H   0  0  0  0  0  0  0  0  0  0  0  0
   12.2043   -5.2134  -58.3927 H   0  0  0  0  0  0  0  0  0  0  0  0
   12.7441   -2.7906  -58.1237 H   0  0  0  0  0  0  0  0  0  0  0  0
    6.7316   -3.6605  -53.8240 H   0  0  0  0  0  0  0  0  0  0  0  0
    6.0395   -5.1553  -51.9526 H   0  0  0  0  0  0  0  0  0  0  0  0
    6.6872   -4.6015  -49.6070 H   0  0  0  0  0  0  0  0  0  0  0  0
    8.0133   -2.5422  -49.1323 H   0  0  0  0  0  0  0  0  0  0  0  0
    8.7092   -1.0469  -51.0025 H   0  0  0  0  0  0  0  0  0  0  0  0
  1  2  1  0
  2  3  1  0
  3  4  1  0
  4  5  2  0
  4  6  1  0
  7  6  1  1
  7  8  1  0
  8  9  1  0
  9 10  1  0
 10 11  1  0
 11 12  1  0
 12 13  1  0
 13 14  1  0
 13 15  1  0
 11 16  1  0
  3 17  2  0
 17 18  1  0
 18 19  1  0
 19 20  1  0
 20 21  1  0
 21 22  2  0
 22 23  1  0
 22 24  1  0
 24 25  2  0
 25 26  1  0
 26 27  1  0
 18 28  1  0
 28 29  1  0
 29 30  2  0
 30 31  1  0
 31 32  2  0
 32 33  1  0
 33 34  2  0
 28  2  2  0
 34 29  1  0
 15  7  1  0
 26 20  2  0
 16  7  1  0
 14  9  1  0
  1 35  1  0
  1 36  1  0
  1 37  1  0
  6 38  1  0
  8 39  1  0
  8 40  1  0
  9 41  1  6
 10 42  1  0
 10 43  1  0
 11 44  1  1
 12 45  1  0
 12 46  1  0
 13 47  1  6
 14 48  1  0
 14 49  1  0
 15 50  1  0
 15 51  1  0
 16 52  1  0
 16 53  1  0
 17 54  1  0
 19 55  1  0
 19 56  1  0
 21 57  1  0
 24 58  1  0
 25 59  1  0
 30 60  1  0
 31 61  1  0
 32 62  1  0
 33 63  1  0
 34 64  1  0
M  END
>  <meeko>  (66) 
{"is_sidechain": false}

$$$$

     RDKit          3D

 76 81  0  0  0  0  0  0  0  0999 V2000
    5.5730   -0.3640  -53.4270 C   0  0  0  0  0  0  0  0  0  0  0  0
    6.9530   -0.5370  -53.9690 C   0  0  0  0  0  0  0  0  0  0  0  0
    7.5400    0.1500  -55.0920 C   0  0  0  0  0  0  0  0  0  0  0  0
    6.9890    1.1410  -56.0200 C   0  0  0  0  0  0  0  0  0  0  0  0
    5.8680    1.6150  -55.8790 O   0  0  0  0  0  0  0  0  0  0  0  0
    7.8560    1.5260  -57.0270 N   0  0  0  0  0  0  0  0  0  0  0  0
    7.5980    2.6090  -57.9930 C   0  0  2  0  0  0  0  0  0  0  0  0
    6.2030    2.4060  -58.6230 C   0  0  0  0  0  0  0  0  0  0  0  0
    8.6410    2.6330  -59.1430 C   0  0  0  0  0  0  0  0  0  0  0  0
    8.4690    3.7350  -60.1880 C   0  0  0  0  0  0  0  0  0  0  0  0
    8.5140    5.1680  -59.6630 C   0  0  0  0  0  0  0  0  0  0  0  0
    9.4100    5.3380  -58.4350 C   0  0  1  0  0  0  0  0  0  0  0  0
    8.9020    4.7100  -57.0910 C   0  0  2  0  0  0  0  0  0  0  0  0
   10.0500    3.7790  -56.6000 C   0  0  0  0  0  0  0  0  0  0  0  0
   11.2540    4.3760  -57.2780 C   0  0  1  0  0  0  0  0  0  0  0  0
   12.5050    3.6080  -57.6080 C   0  0  0  0  0  0  0  0  0  0  0  0
   13.0400    4.3710  -58.8380 C   0  0  0  0  0  0  0  0  0  0  0  0
   11.8510    5.1460  -59.4330 C   0  0  0  0  0  0  0  0  0  0  0  0
   10.6980    4.6040  -58.6570 N   0  0  2  0  0  0  0  0  0  0  0  0
    7.5760    3.9410  -57.1760 C   0  0  0  0  0  0  0  0  0  0  0  0
    8.8520   -0.2810  -55.1590 C   0  0  0  0  0  0  0  0  0  0  0  0
    9.0860   -1.1870  -54.1570 N   0  0  0  0  0  0  0  0  0  0  0  0
   10.3800   -1.8340  -53.9390 C   0  0  0  0  0  0  0  0  0  0  0  0
   10.7900   -2.7040  -55.1020 C   0  0  0  0  0  0  0  0  0  0  0  0
   10.4530   -4.0660  -55.1350 C   0  0  0  0  0  0  0  0  0  0  0  0
   10.8260   -4.8630  -56.2190 C   0  0  0  0  0  0  0  0  0  0  0  0
   11.5380   -4.3100  -57.2810 C   0  0  0  0  0  0  0  0  0  0  0  0
   11.8770   -2.9590  -57.2610 C   0  0  0  0  0  0  0  0  0  0  0  0
   11.5060   -2.1590  -56.1790 C   0  0  0  0  0  0  0  0  0  0  0  0
    7.9200   -1.4000  -53.4510 C   0  0  0  0  0  0  0  0  0  0  0  0
    7.8020   -2.3490  -52.3430 C   0  0  0  0  0  0  0  0  0  0  0  0
    7.8210   -1.8820  -51.0220 C   0  0  0  0  0  0  0  0  0  0  0  0
    7.7060   -2.7780  -49.9560 C   0  0  0  0  0  0  0  0  0  0  0  0
    7.5750   -4.1460  -50.1990 C   0  0  0  0  0  0  0  0  0  0  0  0
    7.5630   -4.6210  -51.5090 C   0  0  0  0  0  0  0  0  0  0  0  0
    7.6800   -3.7240  -52.5700 C   0  0  0  0  0  0  0  0  0  0  0  0
    7.6690   -4.2080  -53.8210 F   0  0  0  0  0  0  0  0  0  0  0  0
    5.6077   -0.3683  -52.3276 H   0  0  0  0  0  0  0  0  0  0  0  0
    5.1589    0.5931  -53.7770 H   0  0  0  0  0  0  0  0  0  0  0  0
    4.9355   -1.1893  -53.7770 H   0  0  0  0  0  0  0  0  0  0  0  0
    8.8240    1.3470  -56.7930 H   0  0  0  0  0  0  0  0  0  0  0  0
    5.4530    2.2969  -57.8258 H   0  0  0  0  0  0  0  0  0  0  0  0
    5.9518    3.2770  -59.2460 H   0  0  0  0  0  0  0  0  0  0  0  0
    6.2104    1.4995  -59.2460 H   0  0  0  0  0  0  0  0  0  0  0  0
    9.6365    2.7521  -58.6906 H   0  0  0  0  0  0  0  0  0  0  0  0
    8.5007    1.6873  -59.6871 H   0  0  0  0  0  0  0  0  0  0  0  0
    9.2729    3.6232  -60.9305 H   0  0  0  0  0  0  0  0  0  0  0  0
    7.4567    3.6006  -60.5969 H   0  0  0  0  0  0  0  0  0  0  0  0
    8.8923    5.8208  -60.4635 H   0  0  0  0  0  0  0  0  0  0  0  0
    7.4912    5.4339  -59.3576 H   0  0  0  0  0  0  0  0  0  0  0  0
    9.4652    6.4318  -58.3325 H   0  0  0  0  0  0  0  0  0  0  0  0
    8.6710    5.5273  -56.3919 H   0  0  0  0  0  0  0  0  0  0  0  0
   10.1508    3.8131  -55.5052 H   0  0  0  0  0  0  0  0  0  0  0  0
    9.8901    2.7170  -56.8378 H   0  0  0  0  0  0  0  0  0  0  0  0
   11.6000    5.1492  -56.5763 H   0  0  0  0  0  0  0  0  0  0  0  0
   13.2235    3.6391  -56.7757 H   0  0  0  0  0  0  0  0  0  0  0  0
   12.3306    2.5378  -57.7933 H   0  0  0  0  0  0  0  0  0  0  0  0
   13.8335    5.0697  -58.5344 H   0  0  0  0  0  0  0  0  0  0  0  0
   13.4683    3.6776  -59.5768 H   0  0  0  0  0  0  0  0  0  0  0  0
   11.9628    6.2290  -59.2762 H   0  0  0  0  0  0  0  0  0  0  0  0
   11.7459    5.0240  -60.5211 H   0  0  0  0  0  0  0  0  0  0  0  0
   10.4660    3.6880  -59.0710 H   0  0  0  0  0  0  0  0  0  0  0  0
    7.2626    3.6993  -56.1497 H   0  0  0  0  0  0  0  0  0  0  0  0
    6.8864    4.6053  -57.7175 H   0  0  0  0  0  0  0  0  0  0  0  0
    9.5930    0.0514  -55.9010 H   0  0  0  0  0  0  0  0  0  0  0  0
   11.1440   -1.0562  -53.7928 H   0  0  0  0  0  0  0  0  0  0  0  0
   10.2879   -2.4792  -53.0529 H   0  0  0  0  0  0  0  0  0  0  0  0
    9.8904   -4.5092  -54.3001 H   0  0  0  0  0  0  0  0  0  0  0  0
   10.5572   -5.9295  -56.2345 H   0  0  0  0  0  0  0  0  0  0  0  0
   11.8321   -4.9392  -58.1340 H   0  0  0  0  0  0  0  0  0  0  0  0
   12.4383   -2.5216  -58.0998 H   0  0  0  0  0  0  0  0  0  0  0  0
   11.7770   -1.0929  -56.1704 H   0  0  0  0  0  0  0  0  0  0  0  0
    7.9269   -0.8053  -50.8233 H   0  0  0  0  0  0  0  0  0  0  0  0
    7.7188   -2.4038  -48.9217 H   0  0  0  0  0  0  0  0  0  0  0  0
    7.4813   -4.8483  -49.3576 H   0  0  0  0  0  0  0  0  0  0  0  0
    7.4617   -5.6986  -51.7051 H   0  0  0  0  0  0  0  0  0  0  0  0
  1  2  1  0
  2  3  1  0
  3  4  1  0
  4  5  2  0
  4  6  1  0
  7  6  1  1
  7  8  1  0
  7  9  1  0
  9 10  1  0
 10 11  1  0
 11 12  1  0
 12 13  1  0
 13 14  1  0
 14 15  1  0
 15 16  1  0
 16 17  1  0
 17 18  1  0
 18 19  1  0
 13 20  1  0
  3 21  2  0
 21 22  1  0
 22 23  1  0
 23 24  1  0
 24 25  2  0
 25 26  1  0
 26 27  2  0
 27 28  1  0
 28 29  2  0
 22 30  1  0
 30 31  1  0
 31 32  2  0
 32 33  1  0
 33 34  2  0
 34 35  1  0
 35 36  2  0
 36 37  1  0
 30  2  2  0
 36 31  1  0
 20  7  1  0
 29 24  1  0
 19 12  1  0
 19 15  1  0
  1 38  1  0
  1 39  1  0
  1 40  1  0
  6 41  1  0
  8 42  1  0
  8 43  1  0
  8 44  1  0
  9 45  1  0
  9 46  1  0
 10 47  1  0
 10 48  1  0
 11 49  1  0
 11 50  1  0
 12 51  1  1
 13 52  1  1
 14 53  1  0
 14 54  1  0
 15 55  1  1
 16 56  1  0
 16 57  1  0
 17 58  1  0
 17 59  1  0
 18 60  1  0
 18 61  1  0
 19 62  1  6
 20 63  1  0
 20 64  1  0
 21 65  1  0
 23 66  1  0
 23 67  1  0
 25 68  1  0
 26 69  1  0
 27 70  1  0
 28 71  1  0
 29 72  1  0
 32 73  1  0
 33 74  1  0
 34 75  1  0
 35 76  1  0
M  CHG  1  19   1
M  END
>  <meeko>  (67) 
{"is_sidechain": false}

$$$$

     RDKit          3D

 76 81  0  0  0  0  0  0  0  0999 V2000
    5.8400   -0.4680  -53.3820 C   0  0  0  0  0  0  0  0  0  0  0  0
    7.2240   -0.6850  -53.9020 C   0  0  0  0  0  0  0  0  0  0  0  0
    7.8410    0.0570  -54.9720 C   0  0  0  0  0  0  0  0  0  0  0  0
    7.2370    1.1540  -55.7420 C   0  0  0  0  0  0  0  0  0  0  0  0
    6.1570    1.6460  -55.4390 O   0  0  0  0  0  0  0  0  0  0  0  0
    7.9820    1.5840  -56.8280 N   0  0  0  0  0  0  0  0  0  0  0  0
    7.5310    2.5620  -57.8450 C   0  0  2  0  0  0  0  0  0  0  0  0
    6.0680    2.2460  -58.2200 C   0  0  0  0  0  0  0  0  0  0  0  0
    8.4340    2.3210  -59.0850 C   0  0  0  0  0  0  0  0  0  0  0  0
    8.3820    3.3110  -60.2420 C   0  0  0  0  0  0  0  0  0  0  0  0
    8.6510    4.7910  -59.9720 C   0  0  0  0  0  0  0  0  0  0  0  0
    9.3980    5.2510  -58.7200 C   0  0  1  0  0  0  0  0  0  0  0  0
    8.9550    4.7480  -57.3410 C   0  0  2  0  0  0  0  0  0  0  0  0
   10.1550    4.0270  -56.7330 C   0  0  0  0  0  0  0  0  0  0  0  0
   11.3610    4.7290  -57.3360 C   0  0  1  0  0  0  0  0  0  0  0  0
   12.5850    3.8440  -57.5580 C   0  0  0  0  0  0  0  0  0  0  0  0
   12.9620    4.0480  -59.0180 C   0  0  0  0  0  0  0  0  0  0  0  0
   11.6210    4.2310  -59.7010 C   0  0  0  0  0  0  0  0  0  0  0  0
   10.8990    5.1240  -58.7370 N   0  0  1  0  0  0  0  0  0  0  0  0
    7.6050    4.0250  -57.3240 C   0  0  0  0  0  0  0  0  0  0  0  0
    9.1200   -0.4600  -55.1040 C   0  0  0  0  0  0  0  0  0  0  0  0
    9.2860   -1.4850  -54.2000 N   0  0  0  0  0  0  0  0  0  0  0  0
   10.5170   -2.2680  -54.0740 C   0  0  0  0  0  0  0  0  0  0  0  0
   10.8720   -2.9960  -55.3470 C   0  0  0  0  0  0  0  0  0  0  0  0
   10.4990   -4.3340  -55.5470 C   0  0  0  0  0  0  0  0  0  0  0  0
   10.8260   -4.9930  -56.7330 C   0  0  0  0  0  0  0  0  0  0  0  0
   11.5250   -4.3220  -57.7340 C   0  0  0  0  0  0  0  0  0  0  0  0
   11.8970   -2.9920  -57.5520 C   0  0  0  0  0  0  0  0  0  0  0  0
   11.5690   -2.3310  -56.3670 C   0  0  0  0  0  0  0  0  0  0  0  0
    8.1460   -1.6190  -53.4380 C   0  0  0  0  0  0  0  0  0  0  0  0
    7.9960   -2.6040  -52.3640 C   0  0  0  0  0  0  0  0  0  0  0  0
    8.7930   -2.5120  -51.2160 C   0  0  0  0  0  0  0  0  0  0  0  0
    8.6570   -3.4470  -50.1850 C   0  0  0  0  0  0  0  0  0  0  0  0
    7.7280   -4.4830  -50.2960 C   0  0  0  0  0  0  0  0  0  0  0  0
    6.9330   -4.5840  -51.4360 C   0  0  0  0  0  0  0  0  0  0  0  0
    7.0710   -3.6490  -52.4590 C   0  0  0  0  0  0  0  0  0  0  0  0
    6.2800   -3.7580  -53.5390 F   0  0  0  0  0  0  0  0  0  0  0  0
    5.8569   -0.4707  -52.2821 H   0  0  0  0  0  0  0  0  0  0  0  0
    5.4613    0.5005  -53.7405 H   0  0  0  0  0  0  0  0  0  0  0  0
    5.1830   -1.2741  -53.7405 H   0  0  0  0  0  0  0  0  0  0  0  0
    8.6600    0.9030  -57.1390 H   0  0  0  0  0  0  0  0  0  0  0  0
    5.4740    2.1177  -57.3031 H   0  0  0  0  0  0  0  0  0  0  0  0
    5.6539    3.0754  -58.8121 H   0  0  0  0  0  0  0  0  0  0  0  0
    6.0331    1.3196  -58.8121 H   0  0  0  0  0  0  0  0  0  0  0  0
    9.4738    2.2987  -58.7267 H   0  0  0  0  0  0  0  0  0  0  0  0
    8.0425    1.3889  -59.5185 H   0  0  0  0  0  0  0  0  0  0  0  0
    9.1254    2.9794  -60.9819 H   0  0  0  0  0  0  0  0  0  0  0  0
    7.3278    3.2906  -60.5555 H   0  0  0  0  0  0  0  0  0  0  0  0
    9.2271    5.1637  -60.8318 H   0  0  0  0  0  0  0  0  0  0  0  0
    7.6393    5.1886  -59.8035 H   0  0  0  0  0  0  0  0  0  0  0  0
    9.0768    6.2981  -58.8215 H   0  0  0  0  0  0  0  0  0  0  0  0
    8.6923    5.5842  -56.6764 H   0  0  0  0  0  0  0  0  0  0  0  0
   10.1545    4.1254  -55.6374 H   0  0  0  0  0  0  0  0  0  0  0  0
   10.1480    2.9476  -56.9449 H   0  0  0  0  0  0  0  0  0  0  0  0
   11.6636    5.5344  -56.6507 H   0  0  0  0  0  0  0  0  0  0  0  0
   13.4099    4.1534  -56.8993 H   0  0  0  0  0  0  0  0  0  0  0  0
   12.3772    2.7882  -57.3296 H   0  0  0  0  0  0  0  0  0  0  0  0
   13.5924    4.9410  -59.1413 H   0  0  0  0  0  0  0  0  0  0  0  0
   13.5465    3.2135  -59.4328 H   0  0  0  0  0  0  0  0  0  0  0  0
   11.7353    4.7128  -60.6832 H   0  0  0  0  0  0  0  0  0  0  0  0
   11.0966    3.2866  -59.9085 H   0  0  0  0  0  0  0  0  0  0  0  0
   11.2720    6.0690  -58.9090 H   0  0  0  0  0  0  0  0  0  0  0  0
    7.2574    4.0143  -56.2804 H   0  0  0  0  0  0  0  0  0  0  0  0
    6.9908    4.5926  -58.0385 H   0  0  0  0  0  0  0  0  0  0  0  0
    9.8804   -0.1079  -55.8166 H   0  0  0  0  0  0  0  0  0  0  0  0
   11.3422   -1.5885  -53.8144 H   0  0  0  0  0  0  0  0  0  0  0  0
   10.3537   -3.0236  -53.2915 H   0  0  0  0  0  0  0  0  0  0  0  0
    9.9439   -4.8682  -54.7619 H   0  0  0  0  0  0  0  0  0  0  0  0
   10.5316   -6.0430  -56.8775 H   0  0  0  0  0  0  0  0  0  0  0  0
   11.7832   -4.8424  -58.6681 H   0  0  0  0  0  0  0  0  0  0  0  0
   12.4494   -2.4625  -58.3422 H   0  0  0  0  0  0  0  0  0  0  0  0
   11.8598   -1.2788  -56.2317 H   0  0  0  0  0  0  0  0  0  0  0  0
    9.5297   -1.7002  -51.1249 H   0  0  0  0  0  0  0  0  0  0  0  0
    9.2835   -3.3659  -49.2845 H   0  0  0  0  0  0  0  0  0  0  0  0
    7.6237   -5.2185  -49.4848 H   0  0  0  0  0  0  0  0  0  0  0  0
    6.1996   -5.3987  -51.5275 H   0  0  0  0  0  0  0  0  0  0  0  0
  1  2  1  0
  2  3  1  0
  3  4  1  0
  4  5  2  0
  4  6  1  0
  7  6  1  1
  7  8  1  0
  7  9  1  0
  9 10  1  0
 10 11  1  0
 11 12  1  0
 12 13  1  0
 13 14  1  0
 14 15  1  0
 15 16  1  0
 16 17  1  0
 17 18  1  0
 18 19  1  0
 13 20  1  0
  3 21  2  0
 21 22  1  0
 22 23  1  0
 23 24  1  0
 24 25  2  0
 25 26  1  0
 26 27  2  0
 27 28  1  0
 28 29  2  0
 22 30  1  0
 30 31  1  0
 31 32  2  0
 32 33  1  0
 33 34  2  0
 34 35  1  0
 35 36  2  0
 36 37  1  0
 30  2  2  0
 36 31  1  0
 20  7  1  0
 29 24  1  0
 19 12  1  0
 19 15  1  0
  1 38  1  0
  1 39  1  0
  1 40  1  0
  6 41  1  0
  8 42  1  0
  8 43  1  0
  8 44  1  0
  9 45  1  0
  9 46  1  0
 10 47  1  0
 10 48  1  0
 11 49  1  0
 11 50  1  0
 12 51  1  1
 13 52  1  1
 14 53  1  0
 14 54  1  0
 15 55  1  1
 16 56  1  0
 16 57  1  0
 17 58  1  0
 17 59  1  0
 18 60  1  0
 18 61  1  0
 19 62  1  6
 20 63  1  0
 20 64  1  0
 21 65  1  0
 23 66  1  0
 23 67  1  0
 25 68  1  0
 26 69  1  0
 27 70  1  0
 28 71  1  0
 29 72  1  0
 32 73  1  0
 33 74  1  0
 34 75  1  0
 35 76  1  0
M  CHG  1  19   1
M  END
>  <meeko>  (68) 
{"is_sidechain": false}

$$$$

     RDKit          3D

 64 69  0  0  0  0  0  0  0  0999 V2000
    6.3420    0.0170  -54.1150 C   0  0  0  0  0  0  0  0  0  0  0  0
    7.7650   -0.2880  -54.4480 C   0  0  0  0  0  0  0  0  0  0  0  0
    8.6010    0.4020  -55.3970 C   0  0  0  0  0  0  0  0  0  0  0  0
    8.3390    1.5740  -56.2360 C   0  0  0  0  0  0  0  0  0  0  0  0
    7.2460    2.1280  -56.2510 O   0  0  0  0  0  0  0  0  0  0  0  0
    9.3990    1.9410  -57.0370 N   0  0  0  0  0  0  0  0  0  0  0  0
    9.3590    3.0070  -58.0420 C   0  0  2  0  0  0  0  0  0  0  0  0
    9.1660    4.4050  -57.4000 C   0  0  0  0  0  0  0  0  0  0  0  0
    9.1820    5.5020  -58.4790 C   0  0  1  0  0  0  0  0  0  0  0  0
   10.5340    5.4780  -59.2090 C   0  0  0  0  0  0  0  0  0  0  0  0
   10.7460    4.1090  -59.8730 C   0  0  2  0  0  0  0  0  0  0  0  0
    9.6140    3.8500  -60.8800 C   0  0  0  0  0  0  0  0  0  0  0  0
    8.2570    3.8660  -60.1600 C   0  0  2  0  0  0  0  0  0  0  0  0
    8.0540    5.2350  -59.4900 C   0  0  0  0  0  0  0  0  0  0  0  0
    8.2390    2.7660  -59.0840 C   0  0  0  0  0  0  0  0  0  0  0  0
   10.7180    3.0160  -58.7930 C   0  0  0  0  0  0  0  0  0  0  0  0
    9.7980   -0.2910  -55.4300 C   0  0  0  0  0  0  0  0  0  0  0  0
    9.7560   -1.3070  -54.5120 N   0  0  0  0  0  0  0  0  0  0  0  0
   10.8610   -2.2380  -54.2840 C   0  0  0  0  0  0  0  0  0  0  0  0
   11.1430   -3.1060  -55.4890 C   0  0  0  0  0  0  0  0  0  0  0  0
   10.8710   -4.4830  -55.4460 C   0  0  0  0  0  0  0  0  0  0  0  0
   11.1260   -5.2900  -56.5560 C   0  0  0  0  0  0  0  0  0  0  0  0
   11.6470   -4.7220  -57.7120 C   0  0  0  0  0  0  0  0  0  0  0  0
   11.8930   -5.4970  -58.7760 F   0  0  0  0  0  0  0  0  0  0  0  0
   11.9140   -3.3610  -57.7800 C   0  0  0  0  0  0  0  0  0  0  0  0
   11.6610   -2.5520  -56.6720 C   0  0  0  0  0  0  0  0  0  0  0  0
    8.5170   -1.3310  -53.9070 C   0  0  0  0  0  0  0  0  0  0  0  0
    8.1280   -2.3070  -52.8930 C   0  0  0  0  0  0  0  0  0  0  0  0
    8.2010   -1.9800  -51.5340 C   0  0  0  0  0  0  0  0  0  0  0  0
    7.8260   -2.9160  -50.5680 C   0  0  0  0  0  0  0  0  0  0  0  0
    7.3840   -4.1730  -50.9670 C   0  0  0  0  0  0  0  0  0  0  0  0
    7.0220   -5.0670  -50.0390 F   0  0  0  0  0  0  0  0  0  0  0  0
    7.3140   -4.5150  -52.3120 C   0  0  0  0  0  0  0  0  0  0  0  0
    7.6910   -3.5820  -53.2780 C   0  0  0  0  0  0  0  0  0  0  0  0
    6.2187    0.0434  -53.0223 H   0  0  0  0  0  0  0  0  0  0  0  0
    6.0676    0.9943  -54.5387 H   0  0  0  0  0  0  0  0  0  0  0  0
    5.6912   -0.7621  -54.5387 H   0  0  0  0  0  0  0  0  0  0  0  0
   10.1290    1.2510  -57.1290 H   0  0  0  0  0  0  0  0  0  0  0  0
    8.2012    4.4307  -56.8723 H   0  0  0  0  0  0  0  0  0  0  0  0
    9.9898    4.5887  -56.6946 H   0  0  0  0  0  0  0  0  0  0  0  0
    9.0337    6.4854  -58.0090 H   0  0  0  0  0  0  0  0  0  0  0  0
   10.5463    6.2629  -59.9796 H   0  0  0  0  0  0  0  0  0  0  0  0
   11.3407    5.6569  -58.4828 H   0  0  0  0  0  0  0  0  0  0  0  0
   11.7148    4.0966  -60.3938 H   0  0  0  0  0  0  0  0  0  0  0  0
    9.6263    4.6339  -61.6516 H   0  0  0  0  0  0  0  0  0  0  0  0
    9.7638    2.8652  -61.3466 H   0  0  0  0  0  0  0  0  0  0  0  0
    7.4507    3.6860  -60.8863 H   0  0  0  0  0  0  0  0  0  0  0  0
    8.0616    6.0211  -60.2594 H   0  0  0  0  0  0  0  0  0  0  0  0
    7.0893    5.2373  -58.9615 H   0  0  0  0  0  0  0  0  0  0  0  0
    7.2638    2.7734  -58.5752 H   0  0  0  0  0  0  0  0  0  0  0  0
    8.4073    1.7926  -59.5680 H   0  0  0  0  0  0  0  0  0  0  0  0
   10.8718    2.0364  -59.2692 H   0  0  0  0  0  0  0  0  0  0  0  0
   11.5175    3.2224  -58.0662 H   0  0  0  0  0  0  0  0  0  0  0  0
   10.6486   -0.0624  -56.0889 H   0  0  0  0  0  0  0  0  0  0  0  0
   11.7661   -1.6600  -54.0457 H   0  0  0  0  0  0  0  0  0  0  0  0
   10.5747   -2.9005  -53.4538 H   0  0  0  0  0  0  0  0  0  0  0  0
   10.4540   -4.9289  -54.5310 H   0  0  0  0  0  0  0  0  0  0  0  0
   10.9158   -6.3690  -56.5158 H   0  0  0  0  0  0  0  0  0  0  0  0
   12.3228   -2.9231  -58.7026 H   0  0  0  0  0  0  0  0  0  0  0  0
   11.8684   -1.4730  -56.7247 H   0  0  0  0  0  0  0  0  0  0  0  0
    8.5542   -0.9846  -51.2266 H   0  0  0  0  0  0  0  0  0  0  0  0
    7.8798   -2.6611  -49.4993 H   0  0  0  0  0  0  0  0  0  0  0  0
    6.9641   -5.5136  -52.6126 H   0  0  0  0  0  0  0  0  0  0  0  0
    7.6452   -3.8475  -54.3445 H   0  0  0  0  0  0  0  0  0  0  0  0
  1  2  1  0
  2  3  1  0
  3  4  1  0
  4  5  2  0
  4  6  1  0
  7  6  1  1
  7  8  1  0
  8  9  1  0
  9 10  1  0
 10 11  1  0
 11 12  1  0
 12 13  1  0
 13 14  1  0
 13 15  1  0
 11 16  1  0
  3 17  2  0
 17 18  1  0
 18 19  1  0
 19 20  1  0
 20 21  1  0
 21 22  2  0
 22 23  1  0
 23 24  1  0
 23 25  2  0
 25 26  1  0
 18 27  1  0
 27 28  1  0
 28 29  1  0
 29 30  2  0
 30 31  1  0
 31 32  1  0
 31 33  2  0
 33 34  1  0
 27  2  2  0
 34 28  2  0
 15  7  1  0
 26 20  2  0
 16  7  1  0
 14  9  1  0
  1 35  1  0
  1 36  1  0
  1 37  1  0
  6 38  1  0
  8 39  1  0
  8 40  1  0
  9 41  1  1
 10 42  1  0
 10 43  1  0
 11 44  1  6
 12 45  1  0
 12 46  1  0
 13 47  1  6
 14 48  1  0
 14 49  1  0
 15 50  1  0
 15 51  1  0
 16 52  1  0
 16 53  1  0
 17 54  1  0
 19 55  1  0
 19 56  1  0
 21 57  1  0
 22 58  1  0
 25 59  1  0
 26 60  1  0
 29 61  1  0
 30 62  1  0
 33 63  1  0
 34 64  1  0
M  END
>  <meeko>  (69) 
{"is_sidechain": false}

$$$$

     RDKit          3D

 48 52  0  0  0  0  0  0  0  0999 V2000
    6.2770    2.4280  -56.6820 O   0  0  0  0  0  0  0  0  0  0  0  0
    7.2660    1.8010  -56.3160 C   0  0  0  0  0  0  0  0  0  0  0  0
    8.5380    2.0300  -56.7940 N   0  0  0  0  0  0  0  0  0  0  0  0
    8.8790    3.0090  -57.8310 C   0  0  2  0  0  0  0  0  0  0  0  0
   10.3260    2.8140  -58.3470 C   0  0  0  0  0  0  0  0  0  0  0  0
   10.6770    3.8880  -59.3920 C   0  0  1  0  0  0  0  0  0  0  0  0
    9.6900    3.7930  -60.5690 C   0  0  0  0  0  0  0  0  0  0  0  0
    8.2530    4.0230  -60.0730 C   0  0  2  0  0  0  0  0  0  0  0  0
    8.1560    5.4140  -59.4260 C   0  0  0  0  0  0  0  0  0  0  0  0
    9.1330    5.5110  -58.2440 C   0  0  2  0  0  0  0  0  0  0  0  0
   10.5670    5.2780  -58.7490 C   0  0  0  0  0  0  0  0  0  0  0  0
    8.7820    4.4300  -57.2100 C   0  0  0  0  0  0  0  0  0  0  0  0
    7.8980    2.9500  -59.0290 C   0  0  0  0  0  0  0  0  0  0  0  0
    7.1710    0.7200  -55.3320 C   0  0  0  0  0  0  0  0  0  0  0  0
    6.0160   -0.0020  -55.0880 C   0  0  0  0  0  0  0  0  0  0  0  0
    6.2670   -0.9300  -54.1160 N   0  0  0  0  0  0  0  0  0  0  0  0
    7.5760   -0.8410  -53.7010 C   0  0  0  0  0  0  0  0  0  0  0  0
    8.1420   -1.6940  -52.6560 C   0  0  0  0  0  0  0  0  0  0  0  0
    9.4600   -2.1700  -52.7470 C   0  0  0  0  0  0  0  0  0  0  0  0
    9.9920   -2.9830  -51.7430 C   0  0  0  0  0  0  0  0  0  0  0  0
    9.2080   -3.3210  -50.6460 C   0  0  0  0  0  0  0  0  0  0  0  0
    9.7190   -4.1000  -49.6850 F   0  0  0  0  0  0  0  0  0  0  0  0
    7.9030   -2.8590  -50.5330 C   0  0  0  0  0  0  0  0  0  0  0  0
    7.3720   -2.0450  -51.5370 C   0  0  0  0  0  0  0  0  0  0  0  0
    8.1480    0.1860  -54.4360 C   0  0  0  0  0  0  0  0  0  0  0  0
    9.2480    1.3610  -56.5410 H   0  0  0  0  0  0  0  0  0  0  0  0
   11.0250    2.8904  -57.5011 H   0  0  0  0  0  0  0  0  0  0  0  0
   10.4047    1.8225  -58.8168 H   0  0  0  0  0  0  0  0  0  0  0  0
   11.7031    3.7291  -59.7551 H   0  0  0  0  0  0  0  0  0  0  0  0
    9.9429    4.5573  -61.3186 H   0  0  0  0  0  0  0  0  0  0  0  0
    9.7601    2.7912  -61.0178 H   0  0  0  0  0  0  0  0  0  0  0  0
    7.5542    3.9598  -60.9202 H   0  0  0  0  0  0  0  0  0  0  0  0
    8.4090    6.1816  -60.1721 H   0  0  0  0  0  0  0  0  0  0  0  0
    7.1303    5.5729  -59.0617 H   0  0  0  0  0  0  0  0  0  0  0  0
    9.0592    6.5071  -57.7833 H   0  0  0  0  0  0  0  0  0  0  0  0
   10.8199    6.0457  -59.4951 H   0  0  0  0  0  0  0  0  0  0  0  0
   11.2637    5.3397  -57.9000 H   0  0  0  0  0  0  0  0  0  0  0  0
    9.4819    4.5010  -56.3644 H   0  0  0  0  0  0  0  0  0  0  0  0
    7.7483    4.5933  -56.8712 H   0  0  0  0  0  0  0  0  0  0  0  0
    6.8740    3.1231  -58.6665 H   0  0  0  0  0  0  0  0  0  0  0  0
    7.9725    1.9587  -59.4999 H   0  0  0  0  0  0  0  0  0  0  0  0
    5.0510    0.1468  -55.5947 H   0  0  0  0  0  0  0  0  0  0  0  0
    5.5820   -1.5700  -53.7370 H   0  0  0  0  0  0  0  0  0  0  0  0
   10.0786   -1.9006  -53.6158 H   0  0  0  0  0  0  0  0  0  0  0  0
   11.0249   -3.3533  -51.8201 H   0  0  0  0  0  0  0  0  0  0  0  0
    7.2922   -3.1318  -49.6598 H   0  0  0  0  0  0  0  0  0  0  0  0
    6.3396   -1.6756  -51.4491 H   0  0  0  0  0  0  0  0  0  0  0  0
    9.1874    0.5341  -54.3442 H   0  0  0  0  0  0  0  0  0  0  0  0
  1  2  2  0
  2  3  1  0
  4  3  1  1
  4  5  1  0
  5  6  1  0
  6  7  1  0
  7  8  1  0
  8  9  1  0
  9 10  1  0
 10 11  1  0
 10 12  1  0
  8 13  1  0
  2 14  1  0
 14 15  2  0
 15 16  1  0
 16 17  1  0
 17 18  1  0
 18 19  1  0
 19 20  2  0
 20 21  1  0
 21 22  1  0
 21 23  2  0
 23 24  1  0
 17 25  2  0
 12  4  1  0
 25 14  1  0
 13  4  1  0
 24 18  2  0
 11  6  1  0
  3 26  1  0
  5 27  1  0
  5 28  1  0
  6 29  1  6
  7 30  1  0
  7 31  1  0
  8 32  1  6
  9 33  1  0
  9 34  1  0
 10 35  1  1
 11 36  1  0
 11 37  1  0
 12 38  1  0
 12 39  1  0
 13 40  1  0
 13 41  1  0
 15 42  1  0
 16 43  1  0
 19 44  1  0
 20 45  1  0
 23 46  1  0
 24 47  1  0
 25 48  1  0
M  END
>  <meeko>  (70) 
{"is_sidechain": false}

$$$$

     RDKit          3D

 62 67  0  0  0  0  0  0  0  0999 V2000
    6.2640    0.0810  -53.8810 C   0  0  0  0  0  0  0  0  0  0  0  0
    7.6530   -0.2960  -54.2810 C   0  0  0  0  0  0  0  0  0  0  0  0
    8.4570    0.3380  -55.2900 C   0  0  0  0  0  0  0  0  0  0  0  0
    8.1930    1.5080  -56.1320 C   0  0  0  0  0  0  0  0  0  0  0  0
    7.0800    2.0150  -56.2100 O   0  0  0  0  0  0  0  0  0  0  0  0
    9.2860    1.9320  -56.8560 N   0  0  0  0  0  0  0  0  0  0  0  0
    9.2630    3.0030  -57.8540 C   0  0  2  0  0  0  0  0  0  0  0  0
    8.1110    2.8100  -58.8710 C   0  0  0  0  0  0  0  0  0  0  0  0
    8.1460    3.9140  -59.9430 C   0  0  1  0  0  0  0  0  0  0  0  0
    8.0100    5.2860  -59.2610 C   0  0  0  0  0  0  0  0  0  0  0  0
    9.1710    5.5050  -58.2760 C   0  0  2  0  0  0  0  0  0  0  0  0
   10.5030    5.4340  -59.0380 C   0  0  0  0  0  0  0  0  0  0  0  0
   10.6480    4.0620  -59.7120 C   0  0  2  0  0  0  0  0  0  0  0  0
    9.4850    3.8510  -60.6940 C   0  0  0  0  0  0  0  0  0  0  0  0
   10.6040    2.9650  -58.6360 C   0  0  0  0  0  0  0  0  0  0  0  0
    9.1380    4.4030  -57.2020 C   0  0  0  0  0  0  0  0  0  0  0  0
    9.6180   -0.4060  -55.3790 C   0  0  0  0  0  0  0  0  0  0  0  0
    9.5840   -1.4130  -54.4480 N   0  0  0  0  0  0  0  0  0  0  0  0
   10.6650   -2.3820  -54.2860 C   0  0  0  0  0  0  0  0  0  0  0  0
   10.9380   -3.1310  -55.5650 C   0  0  0  0  0  0  0  0  0  0  0  0
   10.4640   -4.4190  -55.7470 C   0  0  0  0  0  0  0  0  0  0  0  0
   10.7730   -5.0230  -56.9440 C   0  0  0  0  0  0  0  0  0  0  0  0
   11.4880   -4.4280  -57.9150 N   0  0  0  0  0  0  0  0  0  0  0  0
   11.8960   -3.1800  -57.6480 C   0  0  0  0  0  0  0  0  0  0  0  0
   11.6520   -2.4930  -56.5220 N   0  0  0  0  0  0  0  0  0  0  0  0
    8.3870   -1.3640  -53.7600 C   0  0  0  0  0  0  0  0  0  0  0  0
    8.0120   -2.2850  -52.6850 C   0  0  0  0  0  0  0  0  0  0  0  0
    8.6890   -2.2300  -51.4590 C   0  0  0  0  0  0  0  0  0  0  0  0
    8.3400   -3.0930  -50.4170 C   0  0  0  0  0  0  0  0  0  0  0  0
    7.3080   -4.0170  -50.5890 C   0  0  0  0  0  0  0  0  0  0  0  0
    6.6220   -4.0750  -51.8010 C   0  0  0  0  0  0  0  0  0  0  0  0
    6.9730   -3.2110  -52.8360 C   0  0  0  0  0  0  0  0  0  0  0  0
    6.3040   -3.2990  -53.9960 F   0  0  0  0  0  0  0  0  0  0  0  0
    6.1911    0.1008  -52.7836 H   0  0  0  0  0  0  0  0  0  0  0  0
    6.0243    1.0767  -54.2824 H   0  0  0  0  0  0  0  0  0  0  0  0
    5.5538   -0.6569  -54.2824 H   0  0  0  0  0  0  0  0  0  0  0  0
   10.0470    1.2700  -56.9080 H   0  0  0  0  0  0  0  0  0  0  0  0
    8.2187    1.8295  -59.3578 H   0  0  0  0  0  0  0  0  0  0  0  0
    7.1516    2.8650  -58.3357 H   0  0  0  0  0  0  0  0  0  0  0  0
    7.3178    3.7683  -60.6522 H   0  0  0  0  0  0  0  0  0  0  0  0
    8.0284    6.0760  -60.0263 H   0  0  0  0  0  0  0  0  0  0  0  0
    7.0589    5.3208  -58.7094 H   0  0  0  0  0  0  0  0  0  0  0  0
    9.0720    6.4908  -57.7980 H   0  0  0  0  0  0  0  0  0  0  0  0
   10.5263    6.2216  -59.8056 H   0  0  0  0  0  0  0  0  0  0  0  0
   11.3327    5.5790  -58.3305 H   0  0  0  0  0  0  0  0  0  0  0  0
   11.6036    4.0157  -60.2549 H   0  0  0  0  0  0  0  0  0  0  0  0
    9.5093    4.6380  -61.4622 H   0  0  0  0  0  0  0  0  0  0  0  0
    9.5872    2.8638  -61.1684 H   0  0  0  0  0  0  0  0  0  0  0  0
   10.7102    1.9828  -59.1197 H   0  0  0  0  0  0  0  0  0  0  0  0
   11.4271    3.1376  -57.9270 H   0  0  0  0  0  0  0  0  0  0  0  0
    9.9750    4.5530  -56.5042 H   0  0  0  0  0  0  0  0  0  0  0  0
    8.1800    4.4599  -56.6645 H   0  0  0  0  0  0  0  0  0  0  0  0
   10.4404   -0.2200  -56.0855 H   0  0  0  0  0  0  0  0  0  0  0  0
   11.5785   -1.8496  -53.9826 H   0  0  0  0  0  0  0  0  0  0  0  0
   10.3608   -3.1105  -53.5200 H   0  0  0  0  0  0  0  0  0  0  0  0
    9.8716   -4.9324  -54.9753 H   0  0  0  0  0  0  0  0  0  0  0  0
   10.4155   -6.0490  -57.1161 H   0  0  0  0  0  0  0  0  0  0  0  0
   12.4861   -2.6713  -58.4246 H   0  0  0  0  0  0  0  0  0  0  0  0
    9.5011   -1.5020  -51.3161 H   0  0  0  0  0  0  0  0  0  0  0  0
    8.8794   -3.0442  -49.4596 H   0  0  0  0  0  0  0  0  0  0  0  0
    7.0365   -4.6984  -49.7693 H   0  0  0  0  0  0  0  0  0  0  0  0
    5.8066   -4.8002  -51.9397 H   0  0  0  0  0  0  0  0  0  0  0  0
  1  2  1  0
  2  3  1  0
  3  4  1  0
  4  5  2  0
  4  6  1  0
  7  6  1  1
  7  8  1  0
  8  9  1  0
  9 10  1  0
 10 11  1  0
 11 12  1  0
 12 13  1  0
 13 14  1  0
 13 15  1  0
 11 16  1  0
  3 17  2  0
 17 18  1  0
 18 19  1  0
 19 20  1  0
 20 21  1  0
 21 22  2  0
 22 23  1  0
 23 24  2  0
 24 25  1  0
 18 26  1  0
 26 27  1  0
 27 28  2  0
 28 29  1  0
 29 30  2  0
 30 31  1  0
 31 32  2  0
 32 33  1  0
 26  2  2  0
 32 27  1  0
 15  7  1  0
 25 20  2  0
 16  7  1  0
 14  9  1  0
  1 34  1  0
  1 35  1  0
  1 36  1  0
  6 37  1  0
  8 38  1  0
  8 39  1  0
  9 40  1  6
 10 41  1  0
 10 42  1  0
 11 43  1  1
 12 44  1  0
 12 45  1  0
 13 46  1  6
 14 47  1  0
 14 48  1  0
 15 49  1  0
 15 50  1  0
 16 51  1  0
 16 52  1  0
 17 53  1  0
 19 54  1  0
 19 55  1  0
 21 56  1  0
 22 57  1  0
 24 58  1  0
 28 59  1  0
 29 60  1  0
 30 61  1  0
 31 62  1  0
M  END
>  <meeko>  (71) 
{"is_sidechain": false}

$$$$

     RDKit          3D

 62 67  0  0  0  0  0  0  0  0999 V2000
    9.2840   -0.0270  -53.5980 O   0  0  0  0  0  0  0  0  0  0  0  0
    8.2110   -0.1770  -54.1680 C   0  0  0  0  0  0  0  0  0  0  0  0
    7.2590   -1.0970  -53.7800 N   0  0  0  0  0  0  0  0  0  0  0  0
    7.4200   -2.0530  -52.6810 C   0  0  2  0  0  0  0  0  0  0  0  0
    8.6110   -3.0120  -52.9270 C   0  0  0  0  0  0  0  0  0  0  0  0
    8.7230   -4.0400  -51.7890 C   0  0  1  0  0  0  0  0  0  0  0  0
    8.9210   -3.3010  -50.4550 C   0  0  0  0  0  0  0  0  0  0  0  0
    7.7240   -2.3740  -50.1800 C   0  0  2  0  0  0  0  0  0  0  0  0
    6.4370   -3.2100  -50.1220 C   0  0  0  0  0  0  0  0  0  0  0  0
    6.2290   -3.9440  -51.4560 C   0  0  2  0  0  0  0  0  0  0  0  0
    7.4290   -4.8670  -51.7220 C   0  0  0  0  0  0  0  0  0  0  0  0
    6.1270   -2.9110  -52.5890 C   0  0  0  0  0  0  0  0  0  0  0  0
    7.6110   -1.3430  -51.3170 C   0  0  0  0  0  0  0  0  0  0  0  0
    7.8470    0.6100  -55.3470 C   0  0  0  0  0  0  0  0  0  0  0  0
    6.6400    0.6860  -56.0750 C   0  0  0  0  0  0  0  0  0  0  0  0
    6.7990    1.5730  -57.1300 C   0  0  0  0  0  0  0  0  0  0  0  0
    5.8070    1.8080  -58.1820 C   0  0  0  0  0  0  0  0  0  0  0  0
    4.5830    2.4140  -57.8680 C   0  0  0  0  0  0  0  0  0  0  0  0
    3.6170    2.6090  -58.8600 C   0  0  0  0  0  0  0  0  0  0  0  0
    3.8600    2.1880  -60.1680 C   0  0  0  0  0  0  0  0  0  0  0  0
    5.0670    1.5670  -60.4860 C   0  0  0  0  0  0  0  0  0  0  0  0
    6.0270    1.3760  -59.4950 C   0  0  0  0  0  0  0  0  0  0  0  0
    7.1770    0.7690  -59.8270 F   0  0  0  0  0  0  0  0  0  0  0  0
    8.0900    2.1210  -57.0590 N   0  0  0  0  0  0  0  0  0  0  0  0
    8.7030    3.1410  -57.8540 C   0  0  0  0  0  0  0  0  0  0  0  0
    8.3910    4.4530  -57.7240 C   0  0  0  0  0  0  0  0  0  0  0  0
    8.9810    5.5750  -58.5320 C   0  0  0  0  0  0  0  0  0  0  0  0
   10.1800    5.1590  -59.3760 C   0  0  0  0  0  0  0  0  0  0  0  0
    9.9350    3.8000  -60.0090 C   0  0  0  0  0  0  0  0  0  0  0  0
    9.6980    2.7380  -58.9290 C   0  0  0  0  0  0  0  0  0  0  0  0
    8.7040    1.4850  -55.9840 C   0  0  0  0  0  0  0  0  0  0  0  0
    6.4930   -1.2550  -54.4170 H   0  0  0  0  0  0  0  0  0  0  0  0
    8.4578   -3.5418  -53.8788 H   0  0  0  0  0  0  0  0  0  0  0  0
    9.5388   -2.4223  -52.9644 H   0  0  0  0  0  0  0  0  0  0  0  0
    9.5788   -4.7055  -51.9752 H   0  0  0  0  0  0  0  0  0  0  0  0
    9.0061   -4.0362  -49.6412 H   0  0  0  0  0  0  0  0  0  0  0  0
    9.8383   -2.6966  -50.5115 H   0  0  0  0  0  0  0  0  0  0  0  0
    7.8695   -1.8544  -49.2214 H   0  0  0  0  0  0  0  0  0  0  0  0
    6.5170   -3.9467  -49.3091 H   0  0  0  0  0  0  0  0  0  0  0  0
    5.5809   -2.5443  -49.9379 H   0  0  0  0  0  0  0  0  0  0  0  0
    5.3061   -4.5408  -51.4100 H   0  0  0  0  0  0  0  0  0  0  0  0
    7.5092   -5.6038  -50.9092 H   0  0  0  0  0  0  0  0  0  0  0  0
    7.2810   -5.3847  -52.6812 H   0  0  0  0  0  0  0  0  0  0  0  0
    5.9764   -3.4376  -53.5430 H   0  0  0  0  0  0  0  0  0  0  0  0
    5.2785   -2.2434  -52.3783 H   0  0  0  0  0  0  0  0  0  0  0  0
    6.7480   -0.6881  -51.1265 H   0  0  0  0  0  0  0  0  0  0  0  0
    8.5377   -0.7513  -51.3522 H   0  0  0  0  0  0  0  0  0  0  0  0
    5.7196    0.1303  -55.8428 H   0  0  0  0  0  0  0  0  0  0  0  0
    4.3812    2.7378  -56.8363 H   0  0  0  0  0  0  0  0  0  0  0  0
    2.6630    3.0956  -58.6086 H   0  0  0  0  0  0  0  0  0  0  0  0
    3.1000    2.3459  -60.9474 H   0  0  0  0  0  0  0  0  0  0  0  0
    5.2603    1.2294  -61.5149 H   0  0  0  0  0  0  0  0  0  0  0  0
    7.6428    4.7197  -56.9630 H   0  0  0  0  0  0  0  0  0  0  0  0
    8.2025    5.9656  -59.2038 H   0  0  0  0  0  0  0  0  0  0  0  0
    9.3382    6.3316  -57.8178 H   0  0  0  0  0  0  0  0  0  0  0  0
   10.3416    5.9044  -60.1687 H   0  0  0  0  0  0  0  0  0  0  0  0
   11.0677    5.0970  -58.7294 H   0  0  0  0  0  0  0  0  0  0  0  0
    9.0499    3.8582  -60.6595 H   0  0  0  0  0  0  0  0  0  0  0  0
   10.8206    3.5172  -60.5970 H   0  0  0  0  0  0  0  0  0  0  0  0
    9.3234    1.8274  -59.4194 H   0  0  0  0  0  0  0  0  0  0  0  0
   10.6624    2.5887  -58.4213 H   0  0  0  0  0  0  0  0  0  0  0  0
    9.7464    1.6586  -55.6788 H   0  0  0  0  0  0  0  0  0  0  0  0
  1  2  2  0
  2  3  1  0
  4  3  1  6
  4  5  1  0
  5  6  1  0
  6  7  1  0
  7  8  1  0
  8  9  1  0
  9 10  1  0
 10 11  1  0
 10 12  1  0
  8 13  1  0
  2 14  1  0
 14 15  1  0
 15 16  2  0
 16 17  1  0
 17 18  2  0
 18 19  1  0
 19 20  2  0
 20 21  1  0
 21 22  2  0
 22 23  1  0
 16 24  1  0
 24 25  1  0
 25 26  2  0
 26 27  1  0
 27 28  1  0
 28 29  1  0
 29 30  1  0
 24 31  1  0
 12  4  1  0
 31 14  2  0
 13  4  1  0
 22 17  1  0
 30 25  1  0
 11  6  1  0
  3 32  1  0
  5 33  1  0
  5 34  1  0
  6 35  1  6
  7 36  1  0
  7 37  1  0
  8 38  1  1
  9 39  1  0
  9 40  1  0
 10 41  1  1
 11 42  1  0
 11 43  1  0
 12 44  1  0
 12 45  1  0
 13 46  1  0
 13 47  1  0
 15 48  1  0
 18 49  1  0
 19 50  1  0
 20 51  1  0
 21 52  1  0
 26 53  1  0
 27 54  1  0
 27 55  1  0
 28 56  1  0
 28 57  1  0
 29 58  1  0
 29 59  1  0
 30 60  1  0
 30 61  1  0
 31 62  1  0
M  END
>  <meeko>  (72) 
{"is_sidechain": false}

$$$$

     RDKit          3D

 62 67  0  0  0  0  0  0  0  0999 V2000
    6.2380    0.0120  -53.6280 C   0  0  0  0  0  0  0  0  0  0  0  0
    7.6070   -0.3980  -54.0630 C   0  0  0  0  0  0  0  0  0  0  0  0
    8.3900    0.2160  -55.1050 C   0  0  0  0  0  0  0  0  0  0  0  0
    8.1050    1.3640  -55.9700 C   0  0  0  0  0  0  0  0  0  0  0  0
    6.9700    1.8070  -56.1020 O   0  0  0  0  0  0  0  0  0  0  0  0
    9.2060    1.8410  -56.6470 N   0  0  0  0  0  0  0  0  0  0  0  0
    9.1710    2.9040  -57.6540 C   0  0  2  0  0  0  0  0  0  0  0  0
   10.5310    2.9040  -58.4060 C   0  0  0  0  0  0  0  0  0  0  0  0
   10.5630    3.9950  -59.4890 C   0  0  1  0  0  0  0  0  0  0  0  0
    9.4300    3.7410  -60.4940 C   0  0  0  0  0  0  0  0  0  0  0  0
    8.0720    3.7660  -59.7730 C   0  0  2  0  0  0  0  0  0  0  0  0
    7.8790    5.1380  -59.1060 C   0  0  0  0  0  0  0  0  0  0  0  0
    9.0090    5.4000  -58.0960 C   0  0  2  0  0  0  0  0  0  0  0  0
   10.3590    5.3670  -58.8270 C   0  0  0  0  0  0  0  0  0  0  0  0
    8.9870    4.3050  -57.0160 C   0  0  0  0  0  0  0  0  0  0  0  0
    8.0490    2.6690  -58.6950 C   0  0  0  0  0  0  0  0  0  0  0  0
    9.5560   -0.5190  -55.1960 C   0  0  0  0  0  0  0  0  0  0  0  0
    9.5440   -1.5030  -54.2430 N   0  0  0  0  0  0  0  0  0  0  0  0
   10.6460   -2.4440  -54.0390 C   0  0  0  0  0  0  0  0  0  0  0  0
   11.0790   -3.1110  -55.3220 C   0  0  0  0  0  0  0  0  0  0  0  0
   11.5680   -2.3620  -56.4030 C   0  0  0  0  0  0  0  0  0  0  0  0
   11.9570   -2.9910  -57.5870 C   0  0  0  0  0  0  0  0  0  0  0  0
   11.8660   -4.3770  -57.7050 C   0  0  0  0  0  0  0  0  0  0  0  0
   11.3890   -5.1300  -56.6360 C   0  0  0  0  0  0  0  0  0  0  0  0
   11.2730   -6.8410  -56.7760 Cl  0  0  0  0  0  0  0  0  0  0  0  0
   11.0030   -4.5080  -55.4480 C   0  0  0  0  0  0  0  0  0  0  0  0
    8.3580   -1.4510  -53.5360 C   0  0  0  0  0  0  0  0  0  0  0  0
    8.0250   -2.3950  -52.4730 C   0  0  0  0  0  0  0  0  0  0  0  0
    7.6540   -3.7110  -52.7280 C   0  0  0  0  0  0  0  0  0  0  0  0
    7.3440   -4.5900  -51.7430 N   0  0  0  0  0  0  0  0  0  0  0  0
    7.4310   -4.0950  -50.4880 C   0  0  0  0  0  0  0  0  0  0  0  0
    7.8070   -2.7860  -50.2300 C   0  0  0  0  0  0  0  0  0  0  0  0
    8.1180   -1.9080  -51.2130 N   0  0  0  0  0  0  0  0  0  0  0  0
    6.1913    0.0260  -52.5291 H   0  0  0  0  0  0  0  0  0  0  0  0
    6.0150    1.0163  -54.0173 H   0  0  0  0  0  0  0  0  0  0  0  0
    5.4996   -0.7044  -54.0173 H   0  0  0  0  0  0  0  0  0  0  0  0
   10.0010    1.2190  -56.6660 H   0  0  0  0  0  0  0  0  0  0  0  0
   11.3406    3.0895  -57.6848 H   0  0  0  0  0  0  0  0  0  0  0  0
   10.6628    1.9255  -58.8909 H   0  0  0  0  0  0  0  0  0  0  0  0
   11.5311    3.9758  -60.0110 H   0  0  0  0  0  0  0  0  0  0  0  0
    9.4465    4.5235  -61.2670 H   0  0  0  0  0  0  0  0  0  0  0  0
    9.5740    2.7544  -60.9587 H   0  0  0  0  0  0  0  0  0  0  0  0
    7.2636    3.5888  -60.4976 H   0  0  0  0  0  0  0  0  0  0  0  0
    7.8917    5.9222  -59.8773 H   0  0  0  0  0  0  0  0  0  0  0  0
    6.9146    5.1479  -58.5769 H   0  0  0  0  0  0  0  0  0  0  0  0
    8.8672    6.3848  -57.6268 H   0  0  0  0  0  0  0  0  0  0  0  0
   10.3747    6.1503  -59.5991 H   0  0  0  0  0  0  0  0  0  0  0  0
   11.1674    5.5427  -58.1020 H   0  0  0  0  0  0  0  0  0  0  0  0
    9.8029    4.4864  -56.3009 H   0  0  0  0  0  0  0  0  0  0  0  0
    8.0154    4.3349  -56.5011 H   0  0  0  0  0  0  0  0  0  0  0  0
    7.0743    2.6834  -58.1854 H   0  0  0  0  0  0  0  0  0  0  0  0
    8.2118    1.6941  -59.1777 H   0  0  0  0  0  0  0  0  0  0  0  0
   10.3658   -0.3422  -55.9191 H   0  0  0  0  0  0  0  0  0  0  0  0
   11.5032   -1.8981  -53.6181 H   0  0  0  0  0  0  0  0  0  0  0  0
   10.2932   -3.2301  -53.3552 H   0  0  0  0  0  0  0  0  0  0  0  0
   11.6456   -1.2681  -56.3167 H   0  0  0  0  0  0  0  0  0  0  0  0
   12.3359   -2.3920  -58.4282 H   0  0  0  0  0  0  0  0  0  0  0  0
   12.1697   -4.8733  -58.6385 H   0  0  0  0  0  0  0  0  0  0  0  0
   10.6375   -5.1145  -54.6062 H   0  0  0  0  0  0  0  0  0  0  0  0
    7.6102   -4.0531  -53.7725 H   0  0  0  0  0  0  0  0  0  0  0  0
    7.1947   -4.7552  -49.6405 H   0  0  0  0  0  0  0  0  0  0  0  0
    7.8547   -2.4467  -49.1847 H   0  0  0  0  0  0  0  0  0  0  0  0
  1  2  1  0
  2  3  1  0
  3  4  1  0
  4  5  2  0
  4  6  1  0
  7  6  1  1
  7  8  1  0
  8  9  1  0
  9 10  1  0
 10 11  1  0
 11 12  1  0
 12 13  1  0
 13 14  1  0
 13 15  1  0
 11 16  1  0
  3 17  2  0
 17 18  1  0
 18 19  1  0
 19 20  1  0
 20 21  2  0
 21 22  1  0
 22 23  2  0
 23 24  1  0
 24 25  1  0
 24 26  2  0
 18 27  1  0
 27 28  1  0
 28 29  2  0
 29 30  1  0
 30 31  2  0
 31 32  1  0
 32 33  2  0
 27  2  2  0
 33 28  1  0
 15  7  1  0
 26 20  1  0
 16  7  1  0
 14  9  1  0
  1 34  1  0
  1 35  1  0
  1 36  1  0
  6 37  1  0
  8 38  1  0
  8 39  1  0
  9 40  1  6
 10 41  1  0
 10 42  1  0
 11 43  1  6
 12 44  1  0
 12 45  1  0
 13 46  1  1
 14 47  1  0
 14 48  1  0
 15 49  1  0
 15 50  1  0
 16 51  1  0
 16 52  1  0
 17 53  1  0
 19 54  1  0
 19 55  1  0
 21 56  1  0
 22 57  1  0
 23 58  1  0
 26 59  1  0
 29 60  1  0
 31 61  1  0
 32 62  1  0
M  END
>  <meeko>  (73) 
{"is_sidechain": false}

$$$$

     RDKit          3D

 53 57  0  0  0  0  0  0  0  0999 V2000
    5.9320   -0.2820  -53.9490 C   0  0  0  0  0  0  0  0  0  0  0  0
    7.3900   -0.5310  -54.0920 C   0  0  0  0  0  0  0  0  0  0  0  0
    8.2850    0.1360  -54.9840 C   0  0  0  0  0  0  0  0  0  0  0  0
    7.9690    1.2030  -55.9560 C   0  0  0  0  0  0  0  0  0  0  0  0
    6.8250    1.5700  -56.2000 O   0  0  0  0  0  0  0  0  0  0  0  0
    9.0980    1.7260  -56.5490 N   0  0  0  0  0  0  0  0  0  0  0  0
    9.1370    2.7830  -57.5530 C   0  0  2  0  0  0  0  0  0  0  0  0
    8.1560    2.5010  -58.7180 C   0  0  0  0  0  0  0  0  0  0  0  0
    8.2520    3.6050  -59.7860 C   0  0  1  0  0  0  0  0  0  0  0  0
    7.9130    4.9600  -59.1430 C   0  0  0  0  0  0  0  0  0  0  0  0
    8.9020    5.2700  -58.0060 C   0  0  2  0  0  0  0  0  0  0  0  0
   10.3300    5.3070  -58.5730 C   0  0  0  0  0  0  0  0  0  0  0  0
   10.6770    3.9520  -59.2090 C   0  0  2  0  0  0  0  0  0  0  0  0
    9.6830    3.6510  -60.3430 C   0  0  0  0  0  0  0  0  0  0  0  0
   10.5710    2.8520  -58.1420 C   0  0  0  0  0  0  0  0  0  0  0  0
    8.8070    4.1660  -56.9390 C   0  0  0  0  0  0  0  0  0  0  0  0
    9.5450   -0.3290  -54.8480 N   0  0  0  0  0  0  0  0  0  0  0  0
    9.4450   -1.2800  -53.9010 N   0  0  0  0  0  0  0  0  0  0  0  0
   10.6300   -2.0200  -53.5250 C   0  0  0  0  0  0  0  0  0  0  0  0
    8.1770   -1.4380  -53.4000 C   0  0  0  0  0  0  0  0  0  0  0  0
    7.8230   -2.4000  -52.3630 C   0  0  0  0  0  0  0  0  0  0  0  0
    7.3360   -3.6640  -52.7140 C   0  0  0  0  0  0  0  0  0  0  0  0
    7.0010   -4.5890  -51.7240 C   0  0  0  0  0  0  0  0  0  0  0  0
    7.1480   -4.2550  -50.3780 C   0  0  0  0  0  0  0  0  0  0  0  0
    7.6260   -2.9950  -50.0210 C   0  0  0  0  0  0  0  0  0  0  0  0
    7.9620   -2.0690  -51.0100 C   0  0  0  0  0  0  0  0  0  0  0  0
    5.6706   -0.2374  -52.8814 H   0  0  0  0  0  0  0  0  0  0  0  0
    5.6743    0.6732  -54.4299 H   0  0  0  0  0  0  0  0  0  0  0  0
    5.3719   -1.0975  -54.4299 H   0  0  0  0  0  0  0  0  0  0  0  0
    9.9620    1.2940  -56.2280 H   0  0  0  0  0  0  0  0  0  0  0  0
    8.4068    1.5326  -59.1755 H   0  0  0  0  0  0  0  0  0  0  0  0
    7.1304    2.4799  -58.3209 H   0  0  0  0  0  0  0  0  0  0  0  0
    7.5456    3.3939  -60.6023 H   0  0  0  0  0  0  0  0  0  0  0  0
    7.9765    5.7502  -59.9056 H   0  0  0  0  0  0  0  0  0  0  0  0
    6.8940    4.9172  -58.7310 H   0  0  0  0  0  0  0  0  0  0  0  0
    8.6578    6.2433  -57.5555 H   0  0  0  0  0  0  0  0  0  0  0  0
   10.3988    6.0961  -59.3362 H   0  0  0  0  0  0  0  0  0  0  0  0
   11.0377    5.5152  -57.7570 H   0  0  0  0  0  0  0  0  0  0  0  0
   11.6999    3.9846  -59.6123 H   0  0  0  0  0  0  0  0  0  0  0  0
    9.7518    4.4394  -61.1070 H   0  0  0  0  0  0  0  0  0  0  0  0
    9.9287    2.6767  -60.7906 H   0  0  0  0  0  0  0  0  0  0  0  0
   10.8189    1.8827  -58.5991 H   0  0  0  0  0  0  0  0  0  0  0  0
   11.2728    3.0856  -57.3278 H   0  0  0  0  0  0  0  0  0  0  0  0
    9.5212    4.3822  -56.1308 H   0  0  0  0  0  0  0  0  0  0  0  0
    7.7805    4.1424  -56.5443 H   0  0  0  0  0  0  0  0  0  0  0  0
   10.7017   -2.0648  -52.4283 H   0  0  0  0  0  0  0  0  0  0  0  0
   10.5689   -3.0407  -53.9304 H   0  0  0  0  0  0  0  0  0  0  0  0
   11.5204   -1.5171  -53.9304 H   0  0  0  0  0  0  0  0  0  0  0  0
    7.2167   -3.9297  -53.7747 H   0  0  0  0  0  0  0  0  0  0  0  0
    6.6208   -5.5821  -52.0056 H   0  0  0  0  0  0  0  0  0  0  0  0
    6.8869   -4.9856  -49.5982 H   0  0  0  0  0  0  0  0  0  0  0  0
    7.7385   -2.7304  -48.9592 H   0  0  0  0  0  0  0  0  0  0  0  0
    8.3375   -1.0751  -50.7250 H   0  0  0  0  0  0  0  0  0  0  0  0
  1  2  1  0
  2  3  1  0
  3  4  1  0
  4  5  2  0
  4  6  1  0
  7  6  1  1
  7  8  1  0
  8  9  1  0
  9 10  1  0
 10 11  1  0
 11 12  1  0
 12 13  1  0
 13 14  1  0
 13 15  1  0
 11 16  1  0
  3 17  2  0
 17 18  1  0
 18 19  1  0
 18 20  1  0
 20 21  1  0
 21 22  2  0
 22 23  1  0
 23 24  2  0
 24 25  1  0
 25 26  2  0
 20  2  2  0
 26 21  1  0
 15  7  1  0
 16  7  1  0
 14  9  1  0
  1 27  1  0
  1 28  1  0
  1 29  1  0
  6 30  1  0
  8 31  1  0
  8 32  1  0
  9 33  1  6
 10 34  1  0
 10 35  1  0
 11 36  1  1
 12 37  1  0
 12 38  1  0
 13 39  1  6
 14 40  1  0
 14 41  1  0
 15 42  1  0
 15 43  1  0
 16 44  1  0
 16 45  1  0
 19 46  1  0
 19 47  1  0
 19 48  1  0
 22 49  1  0
 23 50  1  0
 24 51  1  0
 25 52  1  0
 26 53  1  0
M  END
>  <meeko>  (74) 
{"is_sidechain": false}

$$$$

     RDKit          3D

 61 66  0  0  0  0  0  0  0  0999 V2000
    5.7930    0.2720  -53.1770 N   0  0  0  0  0  0  0  0  0  0  0  0
    6.8100   -0.1550  -53.5390 C   0  0  0  0  0  0  0  0  0  0  0  0
    8.0850   -0.6060  -53.9850 C   0  0  0  0  0  0  0  0  0  0  0  0
    8.9070   -0.0300  -54.9920 C   0  0  0  0  0  0  0  0  0  0  0  0
    8.6630    1.1650  -55.8280 C   0  0  0  0  0  0  0  0  0  0  0  0
    7.5510    1.6770  -55.9230 O   0  0  0  0  0  0  0  0  0  0  0  0
    9.7710    1.6480  -56.5030 N   0  0  0  0  0  0  0  0  0  0  0  0
    9.7580    2.8030  -57.4080 C   0  0  2  0  0  0  0  0  0  0  0  0
    9.5870    4.1400  -56.6430 C   0  0  0  0  0  0  0  0  0  0  0  0
    9.6320    5.3320  -57.6150 C   0  0  1  0  0  0  0  0  0  0  0  0
   10.9880    5.3500  -58.3350 C   0  0  0  0  0  0  0  0  0  0  0  0
   11.1810    4.0440  -59.1210 C   0  0  2  0  0  0  0  0  0  0  0  0
   10.0530    3.9010  -60.1560 C   0  0  0  0  0  0  0  0  0  0  0  0
    8.6900    3.8750  -59.4460 C   0  0  2  0  0  0  0  0  0  0  0  0
    8.5060    5.1800  -58.6530 C   0  0  0  0  0  0  0  0  0  0  0  0
    8.6440    2.6800  -58.4770 C   0  0  0  0  0  0  0  0  0  0  0  0
   11.1240    2.8560  -58.1470 C   0  0  0  0  0  0  0  0  0  0  0  0
   10.0310   -0.7550  -55.1400 N   0  0  0  0  0  0  0  0  0  0  0  0
    9.9030   -1.7850  -54.2770 N   0  0  0  0  0  0  0  0  0  0  0  0
   10.9520   -2.8010  -54.2310 C   0  0  0  0  0  0  0  0  0  0  0  0
   11.1800   -3.4400  -55.5790 C   0  0  0  0  0  0  0  0  0  0  0  0
   10.8830   -4.7940  -55.7880 C   0  0  0  0  0  0  0  0  0  0  0  0
   11.0920   -5.3810  -57.0360 C   0  0  0  0  0  0  0  0  0  0  0  0
   11.6060   -4.6230  -58.0870 C   0  0  0  0  0  0  0  0  0  0  0  0
   11.9110   -3.2780  -57.8910 C   0  0  0  0  0  0  0  0  0  0  0  0
   11.7020   -2.6880  -56.6440 C   0  0  0  0  0  0  0  0  0  0  0  0
    8.7610   -1.7160  -53.5130 C   0  0  0  0  0  0  0  0  0  0  0  0
    8.3930   -2.6830  -52.4880 C   0  0  0  0  0  0  0  0  0  0  0  0
    8.9410   -2.5910  -51.2050 C   0  0  0  0  0  0  0  0  0  0  0  0
    8.5840   -3.5150  -50.2210 C   0  0  0  0  0  0  0  0  0  0  0  0
    7.6820   -4.5370  -50.5180 C   0  0  0  0  0  0  0  0  0  0  0  0
    7.1380   -4.6370  -51.7980 C   0  0  0  0  0  0  0  0  0  0  0  0
    7.4930   -3.7140  -52.7830 C   0  0  0  0  0  0  0  0  0  0  0  0
   10.5940    1.0650  -56.5430 H   0  0  0  0  0  0  0  0  0  0  0  0
    8.6188    4.1361  -56.1209 H   0  0  0  0  0  0  0  0  0  0  0  0
   10.4098    4.2417  -55.9201 H   0  0  0  0  0  0  0  0  0  0  0  0
    9.4988    6.2708  -57.0575 H   0  0  0  0  0  0  0  0  0  0  0  0
   11.0205    6.2020  -59.0300 H   0  0  0  0  0  0  0  0  0  0  0  0
   11.7918    5.4463  -57.5903 H   0  0  0  0  0  0  0  0  0  0  0  0
   12.1542    4.0611  -59.6335 H   0  0  0  0  0  0  0  0  0  0  0  0
   10.0858    4.7530  -60.8509 H   0  0  0  0  0  0  0  0  0  0  0  0
   10.1892    2.9616  -60.7118 H   0  0  0  0  0  0  0  0  0  0  0  0
    7.8863    3.7780  -60.1908 H   0  0  0  0  0  0  0  0  0  0  0  0
    8.5327    6.0337  -59.3462 H   0  0  0  0  0  0  0  0  0  0  0  0
    7.5377    5.1508  -58.1318 H   0  0  0  0  0  0  0  0  0  0  0  0
    7.6643    2.6570  -57.9774 H   0  0  0  0  0  0  0  0  0  0  0  0
    8.8011    1.7533  -59.0485 H   0  0  0  0  0  0  0  0  0  0  0  0
   11.2637    1.9220  -58.7111 H   0  0  0  0  0  0  0  0  0  0  0  0
   11.9211    2.9791  -57.3991 H   0  0  0  0  0  0  0  0  0  0  0  0
   11.8886   -2.3296  -53.8985 H   0  0  0  0  0  0  0  0  0  0  0  0
   10.6324   -3.5878  -53.5319 H   0  0  0  0  0  0  0  0  0  0  0  0
   10.4819   -5.3985  -54.9611 H   0  0  0  0  0  0  0  0  0  0  0  0
   10.8510   -6.4430  -57.1910 H   0  0  0  0  0  0  0  0  0  0  0  0
   11.7707   -5.0868  -59.0707 H   0  0  0  0  0  0  0  0  0  0  0  0
   12.3171   -2.6803  -58.7204 H   0  0  0  0  0  0  0  0  0  0  0  0
   11.9478   -1.6264  -56.4940 H   0  0  0  0  0  0  0  0  0  0  0  0
    9.6555   -1.7883  -50.9701 H   0  0  0  0  0  0  0  0  0  0  0  0
    9.0140   -3.4371  -49.2115 H   0  0  0  0  0  0  0  0  0  0  0  0
    7.3999   -5.2641  -49.7423 H   0  0  0  0  0  0  0  0  0  0  0  0
    6.4283   -5.4442  -52.0318 H   0  0  0  0  0  0  0  0  0  0  0  0
    7.0649   -3.7968  -53.7929 H   0  0  0  0  0  0  0  0  0  0  0  0
  1  2  3  0
  2  3  1  0
  3  4  1  0
  4  5  1  0
  5  6  2  0
  5  7  1  0
  8  7  1  1
  8  9  1  0
  9 10  1  0
 10 11  1  0
 11 12  1  0
 12 13  1  0
 13 14  1  0
 14 15  1  0
 14 16  1  0
 12 17  1  0
  4 18  2  0
 18 19  1  0
 19 20  1  0
 20 21  1  0
 21 22  2  0
 22 23  1  0
 23 24  2  0
 24 25  1  0
 25 26  2  0
 19 27  1  0
 27 28  1  0
 28 29  2  0
 29 30  1  0
 30 31  2  0
 31 32  1  0
 32 33  2  0
 27  3  2  0
 33 28  1  0
 16  8  1  0
 26 21  1  0
 17  8  1  0
 15 10  1  0
  7 34  1  0
  9 35  1  0
  9 36  1  0
 10 37  1  1
 11 38  1  0
 11 39  1  0
 12 40  1  6
 13 41  1  0
 13 42  1  0
 14 43  1  6
 15 44  1  0
 15 45  1  0
 16 46  1  0
 16 47  1  0
 17 48  1  0
 17 49  1  0
 20 50  1  0
 20 51  1  0
 22 52  1  0
 23 53  1  0
 24 54  1  0
 25 55  1  0
 26 56  1  0
 29 57  1  0
 30 58  1  0
 31 59  1  0
 32 60  1  0
 33 61  1  0
M  END
>  <meeko>  (75) 
{"is_sidechain": false}

$$$$

     RDKit          3D

 42 44  0  0  0  0  0  0  0  0999 V2000
    8.4530    4.2750  -57.1560 C   0  0  0  0  0  0  0  0  0  0  0  0
    7.7210    2.9780  -57.4450 C   0  0  0  0  0  0  0  0  0  0  0  0
    8.0540    1.9550  -56.4850 N   0  0  0  0  0  0  0  0  0  0  0  0
    7.1050    1.1970  -55.8310 C   0  0  0  0  0  0  0  0  0  0  0  0
    5.8960    1.3720  -55.9410 O   0  0  0  0  0  0  0  0  0  0  0  0
    7.6910    0.1410  -54.9900 C   0  0  0  0  0  0  0  0  0  0  0  0
    7.0280   -0.6230  -53.9990 C   0  0  0  0  0  0  0  0  0  0  0  0
    7.9730   -1.4850  -53.4850 C   0  0  0  0  0  0  0  0  0  0  0  0
    7.8440   -2.4940  -52.4460 C   0  0  0  0  0  0  0  0  0  0  0  0
    7.3910   -3.7790  -52.7640 C   0  0  0  0  0  0  0  0  0  0  0  0
    7.2760   -4.7490  -51.7680 C   0  0  0  0  0  0  0  0  0  0  0  0
    7.6080   -4.4400  -50.4500 C   0  0  0  0  0  0  0  0  0  0  0  0
    8.0500   -3.1580  -50.1260 C   0  0  0  0  0  0  0  0  0  0  0  0
    8.1650   -2.1860  -51.1200 C   0  0  0  0  0  0  0  0  0  0  0  0
    9.1350   -1.1940  -54.1630 N   0  0  0  0  0  0  0  0  0  0  0  0
   10.4350   -1.8460  -54.0190 C   0  0  0  0  0  0  0  0  0  0  0  0
   10.7950   -2.6850  -55.2200 C   0  0  0  0  0  0  0  0  0  0  0  0
   11.5310   -2.1310  -56.2780 C   0  0  0  0  0  0  0  0  0  0  0  0
   11.8700   -2.9070  -57.3880 C   0  0  0  0  0  0  0  0  0  0  0  0
   11.4850   -4.2440  -57.4510 C   0  0  0  0  0  0  0  0  0  0  0  0
   10.7600   -4.8080  -56.4030 C   0  0  0  0  0  0  0  0  0  0  0  0
   10.4190   -4.0350  -55.2930 C   0  0  0  0  0  0  0  0  0  0  0  0
    8.9840   -0.2270  -55.1010 N   0  0  0  0  0  0  0  0  0  0  0  0
    8.5328    4.4164  -56.0681 H   0  0  0  0  0  0  0  0  0  0  0  0
    9.4606    4.2331  -57.5952 H   0  0  0  0  0  0  0  0  0  0  0  0
    7.8963    5.1159  -57.5952 H   0  0  0  0  0  0  0  0  0  0  0  0
    6.6374    3.1637  -57.4074 H   0  0  0  0  0  0  0  0  0  0  0  0
    8.0251    2.6262  -58.4419 H   0  0  0  0  0  0  0  0  0  0  0  0
    9.0140    1.6470  -56.3560 H   0  0  0  0  0  0  0  0  0  0  0  0
    5.9724   -0.5445  -53.6999 H   0  0  0  0  0  0  0  0  0  0  0  0
    7.1247   -4.0252  -53.8025 H   0  0  0  0  0  0  0  0  0  0  0  0
    6.9228   -5.7590  -52.0231 H   0  0  0  0  0  0  0  0  0  0  0  0
    7.5214   -5.2069  -49.6662 H   0  0  0  0  0  0  0  0  0  0  0  0
    8.3084   -2.9127  -49.0853 H   0  0  0  0  0  0  0  0  0  0  0  0
    8.5092   -1.1741  -50.8601 H   0  0  0  0  0  0  0  0  0  0  0  0
   11.2052   -1.0721  -53.8853 H   0  0  0  0  0  0  0  0  0  0  0  0
   10.3794   -2.5150  -53.1476 H   0  0  0  0  0  0  0  0  0  0  0  0
   11.8434   -1.0773  -56.2327 H   0  0  0  0  0  0  0  0  0  0  0  0
   12.4426   -2.4614  -58.2148 H   0  0  0  0  0  0  0  0  0  0  0  0
   11.7527   -4.8537  -58.3265 H   0  0  0  0  0  0  0  0  0  0  0  0
   10.4562   -5.8641  -56.4511 H   0  0  0  0  0  0  0  0  0  0  0  0
    9.8502   -4.4878  -54.4675 H   0  0  0  0  0  0  0  0  0  0  0  0
  1  2  1  0
  2  3  1  0
  3  4  1  0
  4  5  2  0
  4  6  1  0
  6  7  1  0
  7  8  2  0
  8  9  1  0
  9 10  2  0
 10 11  1  0
 11 12  2  0
 12 13  1  0
 13 14  2  0
  8 15  1  0
 15 16  1  0
 16 17  1  0
 17 18  2  0
 18 19  1  0
 19 20  2  0
 20 21  1  0
 21 22  2  0
 15 23  1  0
 23  6  2  0
 14  9  1  0
 22 17  1  0
  1 24  1  0
  1 25  1  0
  1 26  1  0
  2 27  1  0
  2 28  1  0
  3 29  1  0
  7 30  1  0
 10 31  1  0
 11 32  1  0
 12 33  1  0
 13 34  1  0
 14 35  1  0
 16 36  1  0
 16 37  1  0
 18 38  1  0
 19 39  1  0
 20 40  1  0
 21 41  1  0
 22 42  1  0
M  END
>  <meeko>  (76) 
{"is_sidechain": false}

$$$$

     RDKit          3D

 63 65  0  0  0  0  0  0  0  0999 V2000
   11.8970   -4.5490  -58.6870 C   0  0  0  0  0  0  0  0  0  0  0  0
   11.4890   -3.8510  -57.3990 C   0  0  0  0  0  0  0  0  0  0  0  0
   10.7940   -4.8150  -56.4370 C   0  0  0  0  0  0  0  0  0  0  0  0
   10.3380   -4.0970  -55.1650 C   0  0  0  0  0  0  0  0  0  0  0  0
   11.1720   -2.8390  -54.9070 C   0  0  0  0  0  0  0  0  0  0  0  0
   10.6600   -2.0110  -53.7270 C   0  0  0  0  0  0  0  0  0  0  0  0
    9.4260   -1.2950  -54.0030 N   0  0  0  0  0  0  0  0  0  0  0  0
    9.4420   -0.3200  -54.9320 N   0  0  0  0  0  0  0  0  0  0  0  0
    8.1660    0.1150  -54.9820 C   0  0  0  0  0  0  0  0  0  0  0  0
    7.7660    1.1850  -55.9180 C   0  0  0  0  0  0  0  0  0  0  0  0
    6.6150    1.3470  -56.3110 O   0  0  0  0  0  0  0  0  0  0  0  0
    8.8230    1.9880  -56.2930 N   0  0  0  0  0  0  0  0  0  0  0  0
    8.6390    3.2150  -57.0280 C   0  0  0  0  0  0  0  0  0  0  0  0
    9.0770    3.0790  -58.4910 C   0  0  0  0  0  0  0  0  0  0  0  0
    7.9160    2.6000  -59.3870 C   0  0  0  0  0  0  0  0  0  0  0  0
    8.0640    3.0050  -60.8560 C   0  0  0  0  0  0  0  0  0  0  0  0
    9.5210    3.1740  -61.2590 C   0  0  0  0  0  0  0  0  0  0  0  0
   10.2140    4.2570  -60.4310 C   0  0  0  0  0  0  0  0  0  0  0  0
    9.6540    4.3990  -59.0130 C   0  0  0  0  0  0  0  0  0  0  0  0
    7.3480   -0.5790  -54.0400 C   0  0  0  0  0  0  0  0  0  0  0  0
    5.8990   -0.3620  -53.7970 C   0  0  0  0  0  0  0  0  0  0  0  0
    8.1970   -1.4800  -53.4160 C   0  0  0  0  0  0  0  0  0  0  0  0
    7.9200   -2.4610  -52.3750 C   0  0  0  0  0  0  0  0  0  0  0  0
    8.0960   -2.1250  -51.0280 C   0  0  0  0  0  0  0  0  0  0  0  0
    7.8300   -3.0630  -50.0280 C   0  0  0  0  0  0  0  0  0  0  0  0
    7.3950   -4.3430  -50.3710 C   0  0  0  0  0  0  0  0  0  0  0  0
    7.2300   -4.6880  -51.7120 C   0  0  0  0  0  0  0  0  0  0  0  0
    7.4930   -3.7500  -52.7120 C   0  0  0  0  0  0  0  0  0  0  0  0
   12.4386   -5.4756  -58.4462 H   0  0  0  0  0  0  0  0  0  0  0  0
   10.9983   -4.7914  -59.2732 H   0  0  0  0  0  0  0  0  0  0  0  0
   12.5491   -3.8849  -59.2732 H   0  0  0  0  0  0  0  0  0  0  0  0
   12.3879   -3.4454  -56.9117 H   0  0  0  0  0  0  0  0  0  0  0  0
   10.7837   -3.0453  -57.6508 H   0  0  0  0  0  0  0  0  0  0  0  0
    9.9163   -5.2501  -56.9373 H   0  0  0  0  0  0  0  0  0  0  0  0
   11.5099   -5.6010  -56.1549 H   0  0  0  0  0  0  0  0  0  0  0  0
    9.2816   -3.8104  -55.2744 H   0  0  0  0  0  0  0  0  0  0  0  0
   10.4694   -4.7813  -54.3139 H   0  0  0  0  0  0  0  0  0  0  0  0
   12.2083   -3.1428  -54.6980 H   0  0  0  0  0  0  0  0  0  0  0  0
   11.1009   -2.2084  -55.8055 H   0  0  0  0  0  0  0  0  0  0  0  0
   10.4852   -2.6885  -52.8782 H   0  0  0  0  0  0  0  0  0  0  0  0
   11.4278   -1.2535  -53.5108 H   0  0  0  0  0  0  0  0  0  0  0  0
    9.6730    1.8220  -55.7600 H   0  0  0  0  0  0  0  0  0  0  0  0
    7.5742    3.4895  -57.0001 H   0  0  0  0  0  0  0  0  0  0  0  0
    9.2620    3.9898  -56.5573 H   0  0  0  0  0  0  0  0  0  0  0  0
    9.8673    2.3149  -58.5301 H   0  0  0  0  0  0  0  0  0  0  0  0
    7.8657    1.5025  -59.3328 H   0  0  0  0  0  0  0  0  0  0  0  0
    7.0009    3.0814  -59.0117 H   0  0  0  0  0  0  0  0  0  0  0  0
    7.6098    2.2262  -61.4861 H   0  0  0  0  0  0  0  0  0  0  0  0
    7.5602    3.9732  -60.9928 H   0  0  0  0  0  0  0  0  0  0  0  0
   10.0458    2.2191  -61.1081 H   0  0  0  0  0  0  0  0  0  0  0  0
    9.5519    3.4775  -62.3158 H   0  0  0  0  0  0  0  0  0  0  0  0
   11.2831    4.0085  -60.3591 H   0  0  0  0  0  0  0  0  0  0  0  0
   10.0398    5.2147  -60.9433 H   0  0  0  0  0  0  0  0  0  0  0  0
   10.4631    4.7233  -58.3421 H   0  0  0  0  0  0  0  0  0  0  0  0
    8.8406    5.1390  -59.0405 H   0  0  0  0  0  0  0  0  0  0  0  0
    5.7091   -0.3336  -52.7139 H   0  0  0  0  0  0  0  0  0  0  0  0
    5.5904    0.5924  -54.2486 H   0  0  0  0  0  0  0  0  0  0  0  0
    5.3243   -1.1841  -54.2486 H   0  0  0  0  0  0  0  0  0  0  0  0
    8.4452   -1.1181  -50.7557 H   0  0  0  0  0  0  0  0  0  0  0  0
    7.9635   -2.7923  -48.9702 H   0  0  0  0  0  0  0  0  0  0  0  0
    7.1820   -5.0807  -49.5833 H   0  0  0  0  0  0  0  0  0  0  0  0
    6.8925   -5.6995  -51.9820 H   0  0  0  0  0  0  0  0  0  0  0  0
    7.3640   -4.0255  -53.7691 H   0  0  0  0  0  0  0  0  0  0  0  0
  1  2  1  0
  2  3  1  0
  3  4  1  0
  4  5  1  0
  5  6  1  0
  6  7  1  0
  7  8  1  0
  8  9  2  0
  9 10  1  0
 10 11  2  0
 10 12  1  0
 12 13  1  0
 13 14  1  0
 14 15  1  0
 15 16  1  0
 16 17  1  0
 17 18  1  0
 18 19  1  0
  9 20  1  0
 20 21  1  0
 20 22  2  0
 22 23  1  0
 23 24  2  0
 24 25  1  0
 25 26  2  0
 26 27  1  0
 27 28  2  0
 22  7  1  0
 28 23  1  0
 19 14  1  0
  1 29  1  0
  1 30  1  0
  1 31  1  0
  2 32  1  0
  2 33  1  0
  3 34  1  0
  3 35  1  0
  4 36  1  0
  4 37  1  0
  5 38  1  0
  5 39  1  0
  6 40  1  0
  6 41  1  0
 12 42  1  0
 13 43  1  0
 13 44  1  0
 14 45  1  0
 15 46  1  0
 15 47  1  0
 16 48  1  0
 16 49  1  0
 17 50  1  0
 17 51  1  0
 18 52  1  0
 18 53  1  0
 19 54  1  0
 19 55  1  0
 21 56  1  0
 21 57  1  0
 21 58  1  0
 24 59  1  0
 25 60  1  0
 26 61  1  0
 27 62  1  0
 28 63  1  0
M  END
>  <meeko>  (77) 
{"is_sidechain": false}

$$$$

     RDKit          3D

 51 55  0  0  0  0  0  0  0  0999 V2000
   11.7900   -0.3840  -56.1280 C   0  0  0  0  0  0  0  0  0  0  0  0
   10.4550   -0.7500  -55.5510 C   0  0  0  0  0  0  0  0  0  0  0  0
   10.1990   -1.9960  -54.9790 C   0  0  0  0  0  0  0  0  0  0  0  0
   11.2150   -2.9830  -54.9880 N   0  0  0  0  0  0  0  0  0  0  0  0
   11.5170   -3.9400  -55.9840 C   0  0  0  0  0  0  0  0  0  0  0  0
   11.4170   -3.5690  -57.3350 C   0  0  0  0  0  0  0  0  0  0  0  0
   11.7630   -4.4570  -58.3570 C   0  0  0  0  0  0  0  0  0  0  0  0
   12.2420   -5.7260  -58.0440 C   0  0  0  0  0  0  0  0  0  0  0  0
   12.3820   -6.0990  -56.7100 C   0  0  0  0  0  0  0  0  0  0  0  0
   12.0340   -5.2070  -55.6910 C   0  0  0  0  0  0  0  0  0  0  0  0
    9.0080   -2.2920  -54.4260 N   0  0  0  0  0  0  0  0  0  0  0  0
    8.0540   -1.3600  -54.4520 C   0  0  0  0  0  0  0  0  0  0  0  0
    8.1700   -0.1470  -54.9850 N   0  0  0  0  0  0  0  0  0  0  0  0
    9.3810    0.1340  -55.5340 C   0  0  0  0  0  0  0  0  0  0  0  0
    9.4470    1.5220  -56.1390 C   0  0  0  0  0  0  0  0  0  0  0  0
    9.6240    2.5310  -55.4700 O   0  0  0  0  0  0  0  0  0  0  0  0
    9.2890    1.5350  -57.5100 N   0  0  0  0  0  0  0  0  0  0  0  0
    9.1670    2.7290  -58.3180 C   0  0  2  0  0  0  0  0  0  0  0  0
    9.2060    2.2730  -59.7930 C   0  0  0  0  0  0  0  0  0  0  0  0
    8.9920    3.3090  -60.6430 C   0  0  0  0  0  0  0  0  0  0  0  0
    7.6880    4.0720  -60.4660 C   0  0  0  0  0  0  0  0  0  0  0  0
    7.6980    4.6650  -59.0450 C   0  0  2  0  0  0  0  0  0  0  0  0
    8.9040    5.6230  -58.9070 C   0  0  0  0  0  0  0  0  0  0  0  0
   10.2250    4.8740  -59.2040 C   0  0  2  0  0  0  0  0  0  0  0  0
   10.1670    4.2860  -60.6430 C   0  0  0  0  0  0  0  0  0  0  0  0
   10.3650    3.7180  -58.1690 C   0  0  0  0  0  0  0  0  0  0  0  0
    7.8480    3.4980  -58.0420 C   0  0  0  0  0  0  0  0  0  0  0  0
   12.5012   -0.1890  -55.3118 H   0  0  0  0  0  0  0  0  0  0  0  0
   12.1615   -1.2134  -56.7477 H   0  0  0  0  0  0  0  0  0  0  0  0
   11.6865    0.5189  -56.7477 H   0  0  0  0  0  0  0  0  0  0  0  0
   12.0630   -2.5980  -54.5820 H   0  0  0  0  0  0  0  0  0  0  0  0
   11.0598   -2.5612  -57.5932 H   0  0  0  0  0  0  0  0  0  0  0  0
   11.6568   -4.1532  -59.4089 H   0  0  0  0  0  0  0  0  0  0  0  0
   12.5084   -6.4301  -58.8461 H   0  0  0  0  0  0  0  0  0  0  0  0
   12.7673   -7.0978  -56.4570 H   0  0  0  0  0  0  0  0  0  0  0  0
   12.1689   -5.5063  -54.6411 H   0  0  0  0  0  0  0  0  0  0  0  0
    7.0879   -1.6169  -53.9930 H   0  0  0  0  0  0  0  0  0  0  0  0
    9.0440    0.6360  -57.9180 H   0  0  0  0  0  0  0  0  0  0  0  0
    9.3851    1.2365  -60.1148 H   0  0  0  0  0  0  0  0  0  0  0  0
    7.6190    4.8786  -61.2107 H   0  0  0  0  0  0  0  0  0  0  0  0
    6.8235    3.4063  -60.6057 H   0  0  0  0  0  0  0  0  0  0  0  0
    6.7692    5.2203  -58.8477 H   0  0  0  0  0  0  0  0  0  0  0  0
    8.7904    6.4536  -59.6192 H   0  0  0  0  0  0  0  0  0  0  0  0
    8.9367    6.0093  -57.8776 H   0  0  0  0  0  0  0  0  0  0  0  0
   11.0846    5.5564  -59.1302 H   0  0  0  0  0  0  0  0  0  0  0  0
    9.9999    5.0870  -61.3782 H   0  0  0  0  0  0  0  0  0  0  0  0
   11.1090    3.7883  -60.9167 H   0  0  0  0  0  0  0  0  0  0  0  0
   11.3076    3.1798  -58.3476 H   0  0  0  0  0  0  0  0  0  0  0  0
   10.3657    4.1380  -57.1524 H   0  0  0  0  0  0  0  0  0  0  0  0
    7.8668    3.8980  -57.0175 H   0  0  0  0  0  0  0  0  0  0  0  0
    6.9974    2.8102  -58.1577 H   0  0  0  0  0  0  0  0  0  0  0  0
  1  2  1  0
  2  3  1  0
  3  4  1  0
  4  5  1  0
  5  6  2  0
  6  7  1  0
  7  8  2  0
  8  9  1  0
  9 10  2  0
  3 11  2  0
 11 12  1  0
 12 13  2  0
 13 14  1  0
 14 15  1  0
 15 16  2  0
 15 17  1  0
 18 17  1  1
 18 19  1  0
 19 20  2  0
 20 21  1  0
 21 22  1  0
 22 23  1  0
 23 24  1  0
 24 25  1  0
 24 26  1  0
 22 27  1  0
 14  2  2  0
 26 18  1  0
 10  5  1  0
 27 18  1  0
 25 20  1  0
  1 28  1  0
  1 29  1  0
  1 30  1  0
  4 31  1  0
  6 32  1  0
  7 33  1  0
  8 34  1  0
  9 35  1  0
 10 36  1  0
 12 37  1  0
 17 38  1  0
 19 39  1  0
 21 40  1  0
 21 41  1  0
 22 42  1  1
 23 43  1  0
 23 44  1  0
 24 45  1  6
 25 46  1  0
 25 47  1  0
 26 48  1  0
 26 49  1  0
 27 50  1  0
 27 51  1  0
M  END
>  <meeko>  (78) 
{"is_sidechain": false}

$$$$

     RDKit          3D

 51 55  0  0  0  0  0  0  0  0999 V2000
    7.8500    1.0990  -54.8550 C   0  0  0  0  0  0  0  0  0  0  0  0
    8.9390    0.0690  -54.8990 C   0  0  0  0  0  0  0  0  0  0  0  0
   10.0440    0.0660  -55.6870 C   0  0  0  0  0  0  0  0  0  0  0  0
   10.3230    1.2600  -56.5930 C   0  0  0  0  0  0  0  0  0  0  0  0
   11.4430    1.6740  -56.8630 O   0  0  0  0  0  0  0  0  0  0  0  0
    9.1600    1.7880  -57.1100 N   0  0  0  0  0  0  0  0  0  0  0  0
    9.1070    2.7890  -58.1510 C   0  0  2  0  0  0  0  0  0  0  0  0
    7.6370    3.2580  -58.2380 C   0  0  0  0  0  0  0  0  0  0  0  0
    7.4480    4.1280  -59.2620 C   0  0  0  0  0  0  0  0  0  0  0  0
    8.1320    5.4680  -58.9920 C   0  0  0  0  0  0  0  0  0  0  0  0
    9.6540    5.1570  -58.9240 C   0  0  2  0  0  0  0  0  0  0  0  0
   10.1180    4.5840  -60.2850 C   0  0  0  0  0  0  0  0  0  0  0  0
    9.3250    3.3000  -60.6260 C   0  0  2  0  0  0  0  0  0  0  0  0
    7.8220    3.6310  -60.6500 C   0  0  0  0  0  0  0  0  0  0  0  0
    9.5630    2.2380  -59.5280 C   0  0  0  0  0  0  0  0  0  0  0  0
    9.9230    4.0810  -57.8320 C   0  0  0  0  0  0  0  0  0  0  0  0
   11.0080   -0.9530  -55.7500 N   0  0  0  0  0  0  0  0  0  0  0  0
   10.8210   -1.9550  -54.9570 C   0  0  0  0  0  0  0  0  0  0  0  0
    9.7790   -2.0770  -54.1010 N   0  0  0  0  0  0  0  0  0  0  0  0
    8.7970   -1.1260  -53.9890 C   0  0  0  0  0  0  0  0  0  0  0  0
    7.7830   -1.1790  -53.1720 N   0  0  0  0  0  0  0  0  0  0  0  0
    7.6390   -2.2800  -52.3190 C   0  0  0  0  0  0  0  0  0  0  0  0
    6.9590   -3.4220  -52.7480 C   0  0  0  0  0  0  0  0  0  0  0  0
    6.8270   -4.5250  -51.9030 C   0  0  0  0  0  0  0  0  0  0  0  0
    7.3660   -4.4850  -50.6170 C   0  0  0  0  0  0  0  0  0  0  0  0
    8.0300   -3.3410  -50.1750 C   0  0  0  0  0  0  0  0  0  0  0  0
    8.1610   -2.2400  -51.0230 C   0  0  0  0  0  0  0  0  0  0  0  0
    7.6058    1.3299  -53.8076 H   0  0  0  0  0  0  0  0  0  0  0  0
    8.1898    2.0138  -55.3626 H   0  0  0  0  0  0  0  0  0  0  0  0
    6.9555    0.7088  -55.3626 H   0  0  0  0  0  0  0  0  0  0  0  0
    8.3370    1.2180  -56.9340 H   0  0  0  0  0  0  0  0  0  0  0  0
    6.8417    2.9272  -57.5539 H   0  0  0  0  0  0  0  0  0  0  0  0
    7.9214    6.1771  -59.8061 H   0  0  0  0  0  0  0  0  0  0  0  0
    7.7696    5.9287  -58.0611 H   0  0  0  0  0  0  0  0  0  0  0  0
   10.1981    6.0829  -58.6860 H   0  0  0  0  0  0  0  0  0  0  0  0
    9.9488    5.3345  -61.0712 H   0  0  0  0  0  0  0  0  0  0  0  0
   11.1882    4.3375  -60.2231 H   0  0  0  0  0  0  0  0  0  0  0  0
    9.6560    2.9178  -61.6029 H   0  0  0  0  0  0  0  0  0  0  0  0
    7.6203    4.4127  -61.3971 H   0  0  0  0  0  0  0  0  0  0  0  0
    7.2311    2.7430  -60.9188 H   0  0  0  0  0  0  0  0  0  0  0  0
    8.9873    1.3316  -59.7667 H   0  0  0  0  0  0  0  0  0  0  0  0
   10.6354    1.9973  -59.4841 H   0  0  0  0  0  0  0  0  0  0  0  0
   10.9961    3.8399  -57.8133 H   0  0  0  0  0  0  0  0  0  0  0  0
    9.6142    4.4730  -56.8517 H   0  0  0  0  0  0  0  0  0  0  0  0
   11.5617   -2.7680  -54.9785 H   0  0  0  0  0  0  0  0  0  0  0  0
    9.7180   -2.8910  -53.5050 H   0  0  0  0  0  0  0  0  0  0  0  0
    6.5247   -3.4523  -53.7582 H   0  0  0  0  0  0  0  0  0  0  0  0
    6.2985   -5.4249  -52.2507 H   0  0  0  0  0  0  0  0  0  0  0  0
    7.2673   -5.3555  -49.9518 H   0  0  0  0  0  0  0  0  0  0  0  0
    8.4501   -3.3063  -49.1590 H   0  0  0  0  0  0  0  0  0  0  0  0
    8.6780   -1.3358  -50.6693 H   0  0  0  0  0  0  0  0  0  0  0  0
  1  2  1  0
  2  3  2  0
  3  4  1  0
  4  5  2  0
  4  6  1  0
  7  6  1  1
  7  8  1  0
  8  9  2  0
  9 10  1  0
 10 11  1  0
 11 12  1  0
 12 13  1  0
 13 14  1  0
 13 15  1  0
 11 16  1  0
  3 17  1  0
 17 18  2  0
 18 19  1  0
 19 20  1  0
 20 21  2  0
 21 22  1  0
 22 23  2  0
 23 24  1  0
 24 25  2  0
 25 26  1  0
 26 27  2  0
 20  2  1  0
 27 22  1  0
 15  7  1  0
 16  7  1  0
 14  9  1  0
  1 28  1  0
  1 29  1  0
  1 30  1  0
  6 31  1  0
  8 32  1  0
 10 33  1  0
 10 34  1  0
 11 35  1  1
 12 36  1  0
 12 37  1  0
 13 38  1  6
 14 39  1  0
 14 40  1  0
 15 41  1  0
 15 42  1  0
 16 43  1  0
 16 44  1  0
 18 45  1  0
 19 46  1  0
 23 47  1  0
 24 48  1  0
 25 49  1  0
 26 50  1  0
 27 51  1  0
M  END
>  <meeko>  (79) 
{"is_sidechain": false}

$$$$

     RDKit          3D

 51 55  0  0  0  0  0  0  0  0999 V2000
    8.3280   -0.3500  -53.3110 C   0  0  0  0  0  0  0  0  0  0  0  0
    9.4130   -0.9100  -54.1800 C   0  0  0  0  0  0  0  0  0  0  0  0
    9.8720   -0.3480  -55.3310 C   0  0  0  0  0  0  0  0  0  0  0  0
    9.1170    0.8240  -55.9580 C   0  0  0  0  0  0  0  0  0  0  0  0
    7.9570    1.1140  -55.7030 O   0  0  0  0  0  0  0  0  0  0  0  0
    9.8920    1.4960  -56.8770 N   0  0  0  0  0  0  0  0  0  0  0  0
    9.4820    2.6730  -57.6060 C   0  0  2  0  0  0  0  0  0  0  0  0
   10.5910    2.9700  -58.6400 C   0  0  0  0  0  0  0  0  0  0  0  0
   10.3520    4.1230  -59.3140 C   0  0  0  0  0  0  0  0  0  0  0  0
    9.1530    3.9880  -60.2510 C   0  0  0  0  0  0  0  0  0  0  0  0
    7.9250    3.7280  -59.3290 C   0  0  2  0  0  0  0  0  0  0  0  0
    7.7360    4.9400  -58.3850 C   0  0  0  0  0  0  0  0  0  0  0  0
    9.0070    5.1650  -57.5340 C   0  0  2  0  0  0  0  0  0  0  0  0
   10.2080    5.3820  -58.4730 C   0  0  0  0  0  0  0  0  0  0  0  0
    9.2880    3.9050  -56.6830 C   0  0  0  0  0  0  0  0  0  0  0  0
    8.1860    2.4700  -58.4510 C   0  0  0  0  0  0  0  0  0  0  0  0
   11.0210   -0.7330  -56.0400 N   0  0  0  0  0  0  0  0  0  0  0  0
   11.7090   -1.6930  -55.5180 C   0  0  0  0  0  0  0  0  0  0  0  0
   11.3690   -2.3460  -54.3860 N   0  0  0  0  0  0  0  0  0  0  0  0
   10.1900   -2.1280  -53.7240 C   0  0  0  0  0  0  0  0  0  0  0  0
    9.9160   -3.0360  -52.8310 N   0  0  0  0  0  0  0  0  0  0  0  0
    8.7070   -3.1130  -52.1390 C   0  0  0  0  0  0  0  0  0  0  0  0
    7.5670   -3.6510  -52.7440 C   0  0  0  0  0  0  0  0  0  0  0  0
    6.3740   -3.7720  -52.0260 C   0  0  0  0  0  0  0  0  0  0  0  0
    6.3230   -3.3750  -50.6900 C   0  0  0  0  0  0  0  0  0  0  0  0
    7.4650   -2.8700  -50.0700 C   0  0  0  0  0  0  0  0  0  0  0  0
    8.6550   -2.7500  -50.7910 C   0  0  0  0  0  0  0  0  0  0  0  0
    8.5969   -0.4888  -52.2534 H   0  0  0  0  0  0  0  0  0  0  0  0
    8.2073    0.7230  -53.5209 H   0  0  0  0  0  0  0  0  0  0  0  0
    7.3834   -0.8732  -53.5209 H   0  0  0  0  0  0  0  0  0  0  0  0
   10.8330    1.1290  -56.9900 H   0  0  0  0  0  0  0  0  0  0  0  0
   11.4666    2.3259  -58.8089 H   0  0  0  0  0  0  0  0  0  0  0  0
    9.0106    4.9139  -60.8275 H   0  0  0  0  0  0  0  0  0  0  0  0
    9.2949    3.1742  -60.9774 H   0  0  0  0  0  0  0  0  0  0  0  0
    7.0316    3.5764  -59.9525 H   0  0  0  0  0  0  0  0  0  0  0  0
    7.5384    5.8399  -58.9860 H   0  0  0  0  0  0  0  0  0  0  0  0
    6.8882    4.7398  -57.7133 H   0  0  0  0  0  0  0  0  0  0  0  0
    8.8581    6.0393  -56.8833 H   0  0  0  0  0  0  0  0  0  0  0  0
   10.0267    6.2509  -59.1227 H   0  0  0  0  0  0  0  0  0  0  0  0
   11.1251    5.5749  -57.8971 H   0  0  0  0  0  0  0  0  0  0  0  0
   10.2005    4.0626  -56.0893 H   0  0  0  0  0  0  0  0  0  0  0  0
    8.4340    3.7237  -56.0139 H   0  0  0  0  0  0  0  0  0  0  0  0
    7.3316    2.3121  -57.7765 H   0  0  0  0  0  0  0  0  0  0  0  0
    8.3117    1.5928  -59.1026 H   0  0  0  0  0  0  0  0  0  0  0  0
   12.6335   -1.9992  -56.0295 H   0  0  0  0  0  0  0  0  0  0  0  0
   11.8630   -3.1820  -54.1080 H   0  0  0  0  0  0  0  0  0  0  0  0
    7.6094   -3.9813  -53.7924 H   0  0  0  0  0  0  0  0  0  0  0  0
    5.4765   -4.1798  -52.5140 H   0  0  0  0  0  0  0  0  0  0  0  0
    5.3825   -3.4603  -50.1259 H   0  0  0  0  0  0  0  0  0  0  0  0
    7.4288   -2.5662  -49.0134 H   0  0  0  0  0  0  0  0  0  0  0  0
    9.5582   -2.3667  -50.2937 H   0  0  0  0  0  0  0  0  0  0  0  0
  1  2  1  0
  2  3  2  0
  3  4  1  0
  4  5  2  0
  4  6  1  0
  7  6  1  1
  7  8  1  0
  8  9  2  0
  9 10  1  0
 10 11  1  0
 11 12  1  0
 12 13  1  0
 13 14  1  0
 13 15  1  0
 11 16  1  0
  3 17  1  0
 17 18  2  0
 18 19  1  0
 19 20  1  0
 20 21  2  0
 21 22  1  0
 22 23  2  0
 23 24  1  0
 24 25  2  0
 25 26  1  0
 26 27  2  0
 20  2  1  0
 27 22  1  0
 15  7  1  0
 16  7  1  0
 14  9  1  0
  1 28  1  0
  1 29  1  0
  1 30  1  0
  6 31  1  0
  8 32  1  0
 10 33  1  0
 10 34  1  0
 11 35  1  6
 12 36  1  0
 12 37  1  0
 13 38  1  1
 14 39  1  0
 14 40  1  0
 15 41  1  0
 15 42  1  0
 16 43  1  0
 16 44  1  0
 18 45  1  0
 19 46  1  0
 23 47  1  0
 24 48  1  0
 25 49  1  0
 26 50  1  0
 27 51  1  0
M  END
>  <meeko>  (80) 
{"is_sidechain": false}

$$$$

     RDKit          3D

 51 55  0  0  0  0  0  0  0  0999 V2000
    5.8970    0.5400  -54.7960 C   0  0  0  0  0  0  0  0  0  0  0  0
    7.3370    0.1310  -54.7380 C   0  0  0  0  0  0  0  0  0  0  0  0
    8.3440    0.5760  -55.5090 C   0  0  0  0  0  0  0  0  0  0  0  0
    8.1290    1.6390  -56.5460 C   0  0  0  0  0  0  0  0  0  0  0  0
    7.0480    2.1870  -56.7060 O   0  0  0  0  0  0  0  0  0  0  0  0
    9.2880    1.9290  -57.2300 N   0  0  0  0  0  0  0  0  0  0  0  0
    9.4230    2.9300  -58.2760 C   0  0  2  0  0  0  0  0  0  0  0  0
    8.4920    2.5750  -59.4490 C   0  0  0  0  0  0  0  0  0  0  0  0
    8.4810    3.5570  -60.3860 C   0  0  0  0  0  0  0  0  0  0  0  0
    8.0350    4.9340  -59.9200 C   0  0  0  0  0  0  0  0  0  0  0  0
    9.0260    5.3860  -58.8330 C   0  0  2  0  0  0  0  0  0  0  0  0
   10.4410    5.4730  -59.4440 C   0  0  0  0  0  0  0  0  0  0  0  0
   10.8580    4.1030  -60.0250 C   0  0  2  0  0  0  0  0  0  0  0  0
    9.8250    3.6690  -61.1080 C   0  0  0  0  0  0  0  0  0  0  0  0
   10.8610    3.0650  -58.8660 C   0  0  0  0  0  0  0  0  0  0  0  0
    9.0160    4.3230  -57.7110 C   0  0  0  0  0  0  0  0  0  0  0  0
    9.6200    0.0740  -55.3780 N   0  0  0  0  0  0  0  0  0  0  0  0
    9.8870   -0.7920  -54.3690 C   0  0  0  0  0  0  0  0  0  0  0  0
    9.0140   -1.2970  -53.5700 N   0  0  0  0  0  0  0  0  0  0  0  0
    7.6910   -0.9280  -53.7230 C   0  0  0  0  0  0  0  0  0  0  0  0
    6.7560   -1.4670  -53.0000 N   0  0  0  0  0  0  0  0  0  0  0  0
    7.0960   -2.4430  -52.0540 C   0  0  0  0  0  0  0  0  0  0  0  0
    7.8190   -2.0940  -50.9090 C   0  0  0  0  0  0  0  0  0  0  0  0
    8.1940   -3.0700  -49.9830 C   0  0  0  0  0  0  0  0  0  0  0  0
    7.8600   -4.4050  -50.2040 C   0  0  0  0  0  0  0  0  0  0  0  0
    7.1520   -4.7640  -51.3510 C   0  0  0  0  0  0  0  0  0  0  0  0
    6.7780   -3.7860  -52.2750 C   0  0  0  0  0  0  0  0  0  0  0  0
    5.5059    0.6511  -53.7739 H   0  0  0  0  0  0  0  0  0  0  0  0
    5.8093    1.4986  -55.3284 H   0  0  0  0  0  0  0  0  0  0  0  0
    5.3185   -0.2294  -55.3284 H   0  0  0  0  0  0  0  0  0  0  0  0
   10.0870    1.3350  -57.0550 H   0  0  0  0  0  0  0  0  0  0  0  0
    7.9098    1.6443  -59.5191 H   0  0  0  0  0  0  0  0  0  0  0  0
    8.0506    5.6410  -60.7626 H   0  0  0  0  0  0  0  0  0  0  0  0
    7.0088    4.9007  -59.5252 H   0  0  0  0  0  0  0  0  0  0  0  0
    8.7428    6.3706  -58.4326 H   0  0  0  0  0  0  0  0  0  0  0  0
   10.4440    6.2243  -60.2475 H   0  0  0  0  0  0  0  0  0  0  0  0
   11.1540    5.7607  -58.6573 H   0  0  0  0  0  0  0  0  0  0  0  0
   11.8566    4.1665  -60.4819 H   0  0  0  0  0  0  0  0  0  0  0  0
    9.7684    4.4233  -61.9066 H   0  0  0  0  0  0  0  0  0  0  0  0
   10.1104    2.7169  -61.5792 H   0  0  0  0  0  0  0  0  0  0  0  0
   11.1914    2.0888  -59.2505 H   0  0  0  0  0  0  0  0  0  0  0  0
   11.5480    3.4032  -58.0763 H   0  0  0  0  0  0  0  0  0  0  0  0
    9.7286    4.6178  -56.9266 H   0  0  0  0  0  0  0  0  0  0  0  0
    8.0003    4.2550  -57.2943 H   0  0  0  0  0  0  0  0  0  0  0  0
   10.3670    0.6180  -55.7980 H   0  0  0  0  0  0  0  0  0  0  0  0
   10.9364   -1.0870  -54.2215 H   0  0  0  0  0  0  0  0  0  0  0  0
    8.0944   -1.0431  -50.7364 H   0  0  0  0  0  0  0  0  0  0  0  0
    8.7529   -2.7851  -49.0794 H   0  0  0  0  0  0  0  0  0  0  0  0
    8.1543   -5.1744  -49.4750 H   0  0  0  0  0  0  0  0  0  0  0  0
    6.8883   -5.8172  -51.5276 H   0  0  0  0  0  0  0  0  0  0  0  0
    6.2291   -4.0747  -53.1835 H   0  0  0  0  0  0  0  0  0  0  0  0
  1  2  1  0
  2  3  2  0
  3  4  1  0
  4  5  2  0
  4  6  1  0
  7  6  1  1
  7  8  1  0
  8  9  2  0
  9 10  1  0
 10 11  1  0
 11 12  1  0
 12 13  1  0
 13 14  1  0
 13 15  1  0
 11 16  1  0
  3 17  1  0
 17 18  1  0
 18 19  2  0
 19 20  1  0
 20 21  2  0
 21 22  1  0
 22 23  2  0
 23 24  1  0
 24 25  2  0
 25 26  1  0
 26 27  2  0
 20  2  1  0
 27 22  1  0
 15  7  1  0
 16  7  1  0
 14  9  1  0
  1 28  1  0
  1 29  1  0
  1 30  1  0
  6 31  1  0
  8 32  1  0
 10 33  1  0
 10 34  1  0
 11 35  1  1
 12 36  1  0
 12 37  1  0
 13 38  1  6
 14 39  1  0
 14 40  1  0
 15 41  1  0
 15 42  1  0
 16 43  1  0
 16 44  1  0
 17 45  1  0
 18 46  1  0
 23 47  1  0
 24 48  1  0
 25 49  1  0
 26 50  1  0
 27 51  1  0
M  END
>  <meeko>  (81) 
{"is_sidechain": false}

$$$$

     RDKit          3D

 51 55  0  0  0  0  0  0  0  0999 V2000
    9.4520    0.5430  -55.8280 C   0  0  0  0  0  0  0  0  0  0  0  0
    8.5720   -0.2320  -54.8980 C   0  0  0  0  0  0  0  0  0  0  0  0
    8.9010   -1.4110  -54.3350 C   0  0  0  0  0  0  0  0  0  0  0  0
   10.1710   -2.1180  -54.7010 C   0  0  0  0  0  0  0  0  0  0  0  0
   11.2410   -1.8450  -54.1760 O   0  0  0  0  0  0  0  0  0  0  0  0
    9.9730   -3.0620  -55.6840 N   0  0  0  0  0  0  0  0  0  0  0  0
   11.0050   -3.9200  -56.2450 C   0  0  2  0  0  0  0  0  0  0  0  0
   11.9420   -3.0860  -57.1380 C   0  0  0  0  0  0  0  0  0  0  0  0
   12.8340   -3.8740  -57.7910 C   0  0  0  0  0  0  0  0  0  0  0  0
   13.8400   -4.5100  -56.8300 C   0  0  0  0  0  0  0  0  0  0  0  0
   13.0120   -5.4510  -55.9060 C   0  0  2  0  0  0  0  0  0  0  0  0
   12.3270   -6.5370  -56.7670 C   0  0  0  0  0  0  0  0  0  0  0  0
   11.4120   -5.8800  -57.8250 C   0  0  2  0  0  0  0  0  0  0  0  0
   12.2540   -4.9420  -58.7050 C   0  0  0  0  0  0  0  0  0  0  0  0
   10.3370   -5.0270  -57.1140 C   0  0  0  0  0  0  0  0  0  0  0  0
   11.9020   -4.6310  -55.1870 C   0  0  0  0  0  0  0  0  0  0  0  0
    8.1210   -1.9750  -53.3530 N   0  0  0  0  0  0  0  0  0  0  0  0
    7.1190   -1.2450  -52.8110 C   0  0  0  0  0  0  0  0  0  0  0  0
    6.7120   -0.1120  -53.2640 N   0  0  0  0  0  0  0  0  0  0  0  0
    7.2290    0.3320  -54.4710 C   0  0  0  0  0  0  0  0  0  0  0  0
    6.4490    1.1740  -55.0610 N   0  0  0  0  0  0  0  0  0  0  0  0
    6.6830    1.6700  -56.3430 C   0  0  0  0  0  0  0  0  0  0  0  0
    7.2950    2.9160  -56.5040 C   0  0  0  0  0  0  0  0  0  0  0  0
    7.5000    3.4460  -57.7790 C   0  0  0  0  0  0  0  0  0  0  0  0
    7.0720    2.7400  -58.9030 C   0  0  0  0  0  0  0  0  0  0  0  0
    6.4290    1.5120  -58.7510 C   0  0  0  0  0  0  0  0  0  0  0  0
    6.2250    0.9850  -57.4740 C   0  0  0  0  0  0  0  0  0  0  0  0
   10.1512    1.1588  -55.2433 H   0  0  0  0  0  0  0  0  0  0  0  0
   10.0194   -0.1541  -56.4621 H   0  0  0  0  0  0  0  0  0  0  0  0
    8.8322    1.1939  -56.4621 H   0  0  0  0  0  0  0  0  0  0  0  0
    9.0150   -3.2890  -55.9150 H   0  0  0  0  0  0  0  0  0  0  0  0
   11.8947   -1.9913  -57.2345 H   0  0  0  0  0  0  0  0  0  0  0  0
   14.5911   -5.0871  -57.3893 H   0  0  0  0  0  0  0  0  0  0  0  0
   14.3811   -3.7482  -56.2496 H   0  0  0  0  0  0  0  0  0  0  0  0
   13.6833   -5.9118  -55.1664 H   0  0  0  0  0  0  0  0  0  0  0  0
   13.0964   -7.1374  -57.2744 H   0  0  0  0  0  0  0  0  0  0  0  0
   11.7179   -7.1807  -56.1154 H   0  0  0  0  0  0  0  0  0  0  0  0
   10.9391   -6.6645  -58.4341 H   0  0  0  0  0  0  0  0  0  0  0  0
   13.0651   -5.5056  -59.1892 H   0  0  0  0  0  0  0  0  0  0  0  0
   11.6382   -4.4888  -59.4958 H   0  0  0  0  0  0  0  0  0  0  0  0
    9.6922   -4.5542  -57.8694 H   0  0  0  0  0  0  0  0  0  0  0  0
    9.7399   -5.6800  -56.4605 H   0  0  0  0  0  0  0  0  0  0  0  0
   11.2836   -5.3076  -54.5788 H   0  0  0  0  0  0  0  0  0  0  0  0
   12.3697   -3.8751  -54.5390 H   0  0  0  0  0  0  0  0  0  0  0  0
    8.3980   -2.8770  -52.9830 H   0  0  0  0  0  0  0  0  0  0  0  0
    6.6168   -1.6491  -51.9197 H   0  0  0  0  0  0  0  0  0  0  0  0
    7.6178    3.4837  -55.6188 H   0  0  0  0  0  0  0  0  0  0  0  0
    7.9986    4.4194  -57.8970 H   0  0  0  0  0  0  0  0  0  0  0  0
    7.2415    3.1516  -59.9089 H   0  0  0  0  0  0  0  0  0  0  0  0
    6.0827    0.9588  -59.6364 H   0  0  0  0  0  0  0  0  0  0  0  0
    5.7008    0.0251  -57.3564 H   0  0  0  0  0  0  0  0  0  0  0  0
  1  2  1  0
  2  3  2  0
  3  4  1  0
  4  5  2  0
  4  6  1  0
  7  6  1  1
  7  8  1  0
  8  9  2  0
  9 10  1  0
 10 11  1  0
 11 12  1  0
 12 13  1  0
 13 14  1  0
 13 15  1  0
 11 16  1  0
  3 17  1  0
 17 18  1  0
 18 19  2  0
 19 20  1  0
 20 21  2  0
 21 22  1  0
 22 23  2  0
 23 24  1  0
 24 25  2  0
 25 26  1  0
 26 27  2  0
 20  2  1  0
 27 22  1  0
 15  7  1  0
 16  7  1  0
 14  9  1  0
  1 28  1  0
  1 29  1  0
  1 30  1  0
  6 31  1  0
  8 32  1  0
 10 33  1  0
 10 34  1  0
 11 35  1  1
 12 36  1  0
 12 37  1  0
 13 38  1  6
 14 39  1  0
 14 40  1  0
 15 41  1  0
 15 42  1  0
 16 43  1  0
 16 44  1  0
 17 45  1  0
 18 46  1  0
 23 47  1  0
 24 48  1  0
 25 49  1  0
 26 50  1  0
 27 51  1  0
M  END
>  <meeko>  (82) 
{"is_sidechain": false}

$$$$

     RDKit          3D

 39 42  0  0  0  0  0  0  0  0999 V2000
    8.1280    3.4060  -61.2310 N   0  0  0  0  0  0  0  0  0  0  0  0
    7.7190    2.8880  -60.2770 C   0  0  0  0  0  0  0  0  0  0  0  0
    7.1940    2.2510  -59.1130 C   0  0  0  0  0  0  0  0  0  0  0  0
    5.9250    1.6510  -58.9540 C   0  0  0  0  0  0  0  0  0  0  0  0
    4.8250    1.5130  -59.9130 C   0  0  0  0  0  0  0  0  0  0  0  0
    3.6970    2.3320  -59.7920 C   0  0  0  0  0  0  0  0  0  0  0  0
    2.6680    2.1860  -60.7050 C   0  0  0  0  0  0  0  0  0  0  0  0
    2.6870    1.2940  -61.7170 N   0  0  0  0  0  0  0  0  0  0  0  0
    3.7890    0.5220  -61.8250 C   0  0  0  0  0  0  0  0  0  0  0  0
    4.8710    0.5940  -60.9630 C   0  0  0  0  0  0  0  0  0  0  0  0
    5.7950    1.1680  -57.7140 N   0  0  0  0  0  0  0  0  0  0  0  0
    6.9800    1.3980  -57.0810 N   0  0  0  0  0  0  0  0  0  0  0  0
    7.1550    0.8660  -55.7620 C   0  0  0  0  0  0  0  0  0  0  0  0
    8.4120    0.7240  -55.1630 C   0  0  0  0  0  0  0  0  0  0  0  0
    8.5270    0.1960  -53.8710 C   0  0  0  0  0  0  0  0  0  0  0  0
    7.3930   -0.2050  -53.1700 C   0  0  0  0  0  0  0  0  0  0  0  0
    6.1380   -0.0870  -53.7600 C   0  0  0  0  0  0  0  0  0  0  0  0
    6.0190    0.4380  -55.0490 C   0  0  0  0  0  0  0  0  0  0  0  0
    7.8440    2.1330  -57.8930 C   0  0  0  0  0  0  0  0  0  0  0  0
    9.1250    2.7220  -57.5070 C   0  0  0  0  0  0  0  0  0  0  0  0
   10.3270    2.0890  -57.8450 C   0  0  0  0  0  0  0  0  0  0  0  0
   11.5490    2.6640  -57.4920 C   0  0  0  0  0  0  0  0  0  0  0  0
   11.5770    3.8790  -56.8080 C   0  0  0  0  0  0  0  0  0  0  0  0
   10.3850    4.5220  -56.4790 C   0  0  0  0  0  0  0  0  0  0  0  0
    9.1610    3.9490  -56.8310 C   0  0  0  0  0  0  0  0  0  0  0  0
    3.6297    3.0778  -58.9862 H   0  0  0  0  0  0  0  0  0  0  0  0
    1.7849    2.8334  -60.6000 H   0  0  0  0  0  0  0  0  0  0  0  0
    3.8303   -0.2081  -62.6468 H   0  0  0  0  0  0  0  0  0  0  0  0
    5.7461   -0.0577  -61.1026 H   0  0  0  0  0  0  0  0  0  0  0  0
    9.3157    1.0292  -55.7108 H   0  0  0  0  0  0  0  0  0  0  0  0
    9.5195    0.0975  -53.4072 H   0  0  0  0  0  0  0  0  0  0  0  0
    7.4886   -0.6137  -52.1532 H   0  0  0  0  0  0  0  0  0  0  0  0
    5.2399   -0.4071  -53.2113 H   0  0  0  0  0  0  0  0  0  0  0  0
    5.0248    0.5180  -55.5129 H   0  0  0  0  0  0  0  0  0  0  0  0
   10.3084    1.1343  -58.3911 H   0  0  0  0  0  0  0  0  0  0  0  0
   12.4903    2.1585  -57.7535 H   0  0  0  0  0  0  0  0  0  0  0  0
   12.5404    4.3301  -56.5280 H   0  0  0  0  0  0  0  0  0  0  0  0
   10.4083    5.4815  -55.9417 H   0  0  0  0  0  0  0  0  0  0  0  0
    8.2220    4.4625  -56.5768 H   0  0  0  0  0  0  0  0  0  0  0  0
  1  2  3  0
  2  3  1  0
  3  4  1  0
  4  5  1  0
  5  6  2  0
  6  7  1  0
  7  8  2  0
  8  9  1  0
  9 10  2  0
  4 11  2  0
 11 12  1  0
 12 13  1  0
 13 14  2  0
 14 15  1  0
 15 16  2  0
 16 17  1  0
 17 18  2  0
 12 19  1  0
 19 20  1  0
 20 21  2  0
 21 22  1  0
 22 23  2  0
 23 24  1  0
 24 25  2  0
 19  3  2  0
 25 20  1  0
 10  5  1  0
 18 13  1  0
  6 26  1  0
  7 27  1  0
  9 28  1  0
 10 29  1  0
 14 30  1  0
 15 31  1  0
 16 32  1  0
 17 33  1  0
 18 34  1  0
 21 35  1  0
 22 36  1  0
 23 37  1  0
 24 38  1  0
 25 39  1  0
M  END
>  <meeko>  (83) 
{"is_sidechain": false}

$$$$

     RDKit          3D

 64 70  0  0  0  0  0  0  0  0999 V2000
    8.2810    1.8650  -56.2820 O   0  0  0  0  0  0  0  0  0  0  0  0
    9.3760    1.3610  -56.5110 C   0  0  0  0  0  0  0  0  0  0  0  0
   10.2870    1.9050  -57.3990 N   0  0  0  0  0  0  0  0  0  0  0  0
   10.0720    3.0780  -58.2270 C   0  0  2  0  0  0  0  0  0  0  0  0
    8.9500    2.7950  -59.2390 C   0  0  0  0  0  0  0  0  0  0  0  0
    8.8260    3.8080  -60.1350 C   0  0  0  0  0  0  0  0  0  0  0  0
    8.3050    5.0870  -59.4780 C   0  0  0  0  0  0  0  0  0  0  0  0
    9.4030    5.5270  -58.4650 C   0  0  2  0  0  0  0  0  0  0  0  0
   10.7160    5.8120  -59.2280 C   0  0  0  0  0  0  0  0  0  0  0  0
   11.1690    4.5510  -59.9970 C   0  0  2  0  0  0  0  0  0  0  0  0
   10.0550    4.1270  -60.9710 C   0  0  0  0  0  0  0  0  0  0  0  0
   11.3900    3.3930  -58.9990 C   0  0  0  0  0  0  0  0  0  0  0  0
    9.6680    4.3730  -57.4540 C   0  0  0  0  0  0  0  0  0  0  0  0
    9.8210    0.1000  -55.8750 C   0  0  0  0  0  0  0  0  0  0  0  0
   10.9850   -0.4740  -56.2360 N   0  0  0  0  0  0  0  0  0  0  0  0
   11.0980   -1.5590  -55.4460 N   0  0  0  0  0  0  0  0  0  0  0  0
   12.2990   -2.3800  -55.5400 C   0  0  0  0  0  0  0  0  0  0  0  0
   12.1030   -3.5670  -56.4540 C   0  0  0  0  0  0  0  0  0  0  0  0
   11.9610   -4.8590  -55.9240 C   0  0  0  0  0  0  0  0  0  0  0  0
   11.7830   -5.9550  -56.7680 C   0  0  0  0  0  0  0  0  0  0  0  0
   11.7490   -5.7760  -58.1490 C   0  0  0  0  0  0  0  0  0  0  0  0
   11.8970   -4.4990  -58.6880 C   0  0  0  0  0  0  0  0  0  0  0  0
   12.0750   -3.3990  -57.8460 C   0  0  0  0  0  0  0  0  0  0  0  0
   10.0100   -1.7520  -54.6370 C   0  0  0  0  0  0  0  0  0  0  0  0
    9.8070   -2.9280  -53.6380 C   0  0  0  0  0  0  0  0  0  0  0  0
   10.6660   -3.0220  -52.4040 C   0  0  0  0  0  0  0  0  0  0  0  0
    9.2230   -2.6440  -52.2780 C   0  0  0  0  0  0  0  0  0  0  0  0
    9.1750   -0.6730  -54.8530 C   0  0  0  0  0  0  0  0  0  0  0  0
    7.9080   -0.4650  -54.1810 C   0  0  0  0  0  0  0  0  0  0  0  0
    6.7410   -1.0310  -54.6940 C   0  0  0  0  0  0  0  0  0  0  0  0
    5.5480   -0.7730  -54.0410 C   0  0  0  0  0  0  0  0  0  0  0  0
    5.4500   -0.0010  -52.9360 N   0  0  0  0  0  0  0  0  0  0  0  0
    6.5960    0.5280  -52.4560 C   0  0  0  0  0  0  0  0  0  0  0  0
    7.8350    0.3310  -53.0380 C   0  0  0  0  0  0  0  0  0  0  0  0
   11.0240    1.2860  -57.7030 H   0  0  0  0  0  0  0  0  0  0  0  0
    8.3274    1.8882  -59.2376 H   0  0  0  0  0  0  0  0  0  0  0  0
    8.1481    5.8692  -60.2353 H   0  0  0  0  0  0  0  0  0  0  0  0
    7.3397    4.9189  -58.9781 H   0  0  0  0  0  0  0  0  0  0  0  0
    9.0647    6.4286  -57.9333 H   0  0  0  0  0  0  0  0  0  0  0  0
   10.5512    6.6332  -59.9411 H   0  0  0  0  0  0  0  0  0  0  0  0
   11.4973    6.0932  -58.5065 H   0  0  0  0  0  0  0  0  0  0  0  0
   12.0989    4.7733  -60.5409 H   0  0  0  0  0  0  0  0  0  0  0  0
    9.8331    4.9468  -61.6701 H   0  0  0  0  0  0  0  0  0  0  0  0
   10.3641    3.2519  -61.5615 H   0  0  0  0  0  0  0  0  0  0  0  0
   11.7098    2.4963  -59.5501 H   0  0  0  0  0  0  0  0  0  0  0  0
   12.1637    3.6897  -58.2756 H   0  0  0  0  0  0  0  0  0  0  0  0
   10.4831    4.6624  -56.7744 H   0  0  0  0  0  0  0  0  0  0  0  0
    8.7537    4.1803  -56.8736 H   0  0  0  0  0  0  0  0  0  0  0  0
   13.1214   -1.7628  -55.9308 H   0  0  0  0  0  0  0  0  0  0  0  0
   12.5302   -2.7603  -54.5341 H   0  0  0  0  0  0  0  0  0  0  0  0
   11.9903   -5.0082  -54.8346 H   0  0  0  0  0  0  0  0  0  0  0  0
   11.6692   -6.9629  -56.3422 H   0  0  0  0  0  0  0  0  0  0  0  0
   11.6056   -6.6410  -58.8132 H   0  0  0  0  0  0  0  0  0  0  0  0
   11.8736   -4.3574  -59.7786 H   0  0  0  0  0  0  0  0  0  0  0  0
   12.1940   -2.3942  -58.2776 H   0  0  0  0  0  0  0  0  0  0  0  0
    9.5659   -3.6068  -54.4693 H   0  0  0  0  0  0  0  0  0  0  0  0
   11.0097   -4.0042  -52.0475 H   0  0  0  0  0  0  0  0  0  0  0  0
   11.6173   -2.5719  -52.0841 H   0  0  0  0  0  0  0  0  0  0  0  0
    8.5076   -3.3488  -51.8292 H   0  0  0  0  0  0  0  0  0  0  0  0
    8.6772   -1.8019  -51.8276 H   0  0  0  0  0  0  0  0  0  0  0  0
    6.7679   -1.6649  -55.5926 H   0  0  0  0  0  0  0  0  0  0  0  0
    4.6280   -1.2215  -54.4441 H   0  0  0  0  0  0  0  0  0  0  0  0
    6.5409    1.1508  -51.5510 H   0  0  0  0  0  0  0  0  0  0  0  0
    8.7389    0.7899  -52.6108 H   0  0  0  0  0  0  0  0  0  0  0  0
  1  2  2  0
  2  3  1  0
  4  3  1  1
  4  5  1  0
  5  6  2  0
  6  7  1  0
  7  8  1  0
  8  9  1  0
  9 10  1  0
 10 11  1  0
 10 12  1  0
  8 13  1  0
  2 14  1  0
 14 15  2  0
 15 16  1  0
 16 17  1  0
 17 18  1  0
 18 19  2  0
 19 20  1  0
 20 21  2  0
 21 22  1  0
 22 23  2  0
 16 24  1  0
 24 25  1  0
 25 26  1  0
 26 27  1  0
 24 28  2  0
 28 29  1  0
 29 30  2  0
 30 31  1  0
 31 32  2  0
 32 33  1  0
 33 34  2  0
 12  4  1  0
 28 14  1  0
 34 29  1  0
 13  4  1  0
 23 18  1  0
 27 25  1  0
 11  6  1  0
  3 35  1  0
  5 36  1  0
  7 37  1  0
  7 38  1  0
  8 39  1  1
  9 40  1  0
  9 41  1  0
 10 42  1  6
 11 43  1  0
 11 44  1  0
 12 45  1  0
 12 46  1  0
 13 47  1  0
 13 48  1  0
 17 49  1  0
 17 50  1  0
 19 51  1  0
 20 52  1  0
 21 53  1  0
 22 54  1  0
 23 55  1  0
 25 56  1  0
 26 57  1  0
 26 58  1  0
 27 59  1  0
 27 60  1  0
 30 61  1  0
 31 62  1  0
 33 63  1  0
 34 64  1  0
M  END
>  <meeko>  (84) 
{"is_sidechain": false}

$$$$

     RDKit          3D

 69 73  0  0  0  0  0  0  0  0999 V2000
    6.4070    0.0400  -53.4380 C   0  0  0  0  0  0  0  0  0  0  0  0
    7.6920   -0.5220  -53.9270 C   0  0  0  0  0  0  0  0  0  0  0  0
    8.5170    0.0100  -54.9630 C   0  0  0  0  0  0  0  0  0  0  0  0
    8.2820    1.2170  -55.7770 C   0  0  0  0  0  0  0  0  0  0  0  0
    7.1720    1.5760  -56.1600 O   0  0  0  0  0  0  0  0  0  0  0  0
    9.4460    1.9000  -56.0750 N   0  0  0  0  0  0  0  0  0  0  0  0
    9.4770    2.9550  -57.0620 C   0  0  1  0  0  0  0  0  0  0  0  0
   10.1000    4.2510  -56.5110 C   0  0  0  0  0  0  0  0  0  0  0  0
   11.2530    4.5190  -57.4930 C   0  0  1  0  0  0  0  0  0  0  0  0
   11.7650    3.1050  -57.7580 C   0  0  0  0  0  0  0  0  0  0  0  0
   10.4040    2.6040  -58.2540 C   0  0  2  0  0  0  0  0  0  0  0  0
   10.1570    3.5810  -59.4280 C   0  0  1  0  0  0  0  0  0  0  0  0
    8.7870    3.6160  -59.8900 N   0  0  0  0  0  0  0  0  0  0  0  0
    8.2620    2.5520  -60.5990 C   0  0  0  0  0  0  0  0  0  0  0  0
    8.9370    1.6180  -61.0170 O   0  0  0  0  0  0  0  0  0  0  0  0
    6.7750    2.6700  -60.8200 C   0  0  0  0  0  0  0  0  0  0  0  0
    6.0050    2.1830  -59.6140 C   0  0  0  0  0  0  0  0  0  0  0  0
    6.2790    0.8600  -59.4350 F   0  0  0  0  0  0  0  0  0  0  0  0
   10.6630    4.9220  -58.8610 C   0  0  0  0  0  0  0  0  0  0  0  0
    9.6130   -0.7530  -55.1560 N   0  0  0  0  0  0  0  0  0  0  0  0
    9.4850   -1.7500  -54.2590 N   0  0  0  0  0  0  0  0  0  0  0  0
   10.5260   -2.7600  -54.1840 C   0  0  0  0  0  0  0  0  0  0  0  0
   10.1050   -4.0530  -54.8750 C   0  0  0  0  0  0  0  0  0  0  0  0
   10.9490   -4.3250  -56.0950 C   0  0  0  0  0  0  0  0  0  0  0  0
   11.2580   -5.6430  -56.4600 C   0  0  0  0  0  0  0  0  0  0  0  0
   12.0190   -5.8980  -57.6020 C   0  0  0  0  0  0  0  0  0  0  0  0
   12.4730   -4.8410  -58.3890 C   0  0  0  0  0  0  0  0  0  0  0  0
   12.1660   -3.5280  -58.0360 C   0  0  0  0  0  0  0  0  0  0  0  0
   11.4050   -3.2700  -56.8960 C   0  0  0  0  0  0  0  0  0  0  0  0
    8.3500   -1.6610  -53.4890 C   0  0  0  0  0  0  0  0  0  0  0  0
    7.9980   -2.6070  -52.4380 C   0  0  0  0  0  0  0  0  0  0  0  0
    8.5320   -2.4600  -51.1540 C   0  0  0  0  0  0  0  0  0  0  0  0
    8.2060   -3.3730  -50.1490 C   0  0  0  0  0  0  0  0  0  0  0  0
    7.3420   -4.4330  -50.4230 C   0  0  0  0  0  0  0  0  0  0  0  0
    6.7990   -4.5780  -51.6990 C   0  0  0  0  0  0  0  0  0  0  0  0
    7.1230   -3.6660  -52.7040 C   0  0  0  0  0  0  0  0  0  0  0  0
    6.4026    0.0419  -52.3380 H   0  0  0  0  0  0  0  0  0  0  0  0
    6.2933    1.0700  -53.8069 H   0  0  0  0  0  0  0  0  0  0  0  0
    5.5735   -0.5757  -53.8069 H   0  0  0  0  0  0  0  0  0  0  0  0
   10.2930    1.4050  -55.8030 H   0  0  0  0  0  0  0  0  0  0  0  0
    8.4237    3.0784  -57.3540 H   0  0  0  0  0  0  0  0  0  0  0  0
    9.3720    5.0756  -56.5201 H   0  0  0  0  0  0  0  0  0  0  0  0
   10.4297    4.1653  -55.4651 H   0  0  0  0  0  0  0  0  0  0  0  0
   11.9646    5.2686  -57.1165 H   0  0  0  0  0  0  0  0  0  0  0  0
   12.5505    3.0636  -58.5269 H   0  0  0  0  0  0  0  0  0  0  0  0
   12.2571    2.5623  -56.9374 H   0  0  0  0  0  0  0  0  0  0  0  0
   10.2882    1.5511  -58.5506 H   0  0  0  0  0  0  0  0  0  0  0  0
   10.6805    3.2816  -60.3479 H   0  0  0  0  0  0  0  0  0  0  0  0
    8.1370    4.2500  -59.4430 H   0  0  0  0  0  0  0  0  0  0  0  0
    6.5220    3.7242  -61.0060 H   0  0  0  0  0  0  0  0  0  0  0  0
    6.5000    2.0479  -61.6845 H   0  0  0  0  0  0  0  0  0  0  0  0
    6.3124    2.7501  -58.7230 H   0  0  0  0  0  0  0  0  0  0  0  0
    4.9259    2.3280  -59.7704 H   0  0  0  0  0  0  0  0  0  0  0  0
   11.4347    5.3602  -59.5109 H   0  0  0  0  0  0  0  0  0  0  0  0
    9.8752    5.6860  -58.7856 H   0  0  0  0  0  0  0  0  0  0  0  0
   11.4335   -2.3740  -54.6712 H   0  0  0  0  0  0  0  0  0  0  0  0
   10.7138   -2.9823  -53.1232 H   0  0  0  0  0  0  0  0  0  0  0  0
   10.2168   -4.8890  -54.1688 H   0  0  0  0  0  0  0  0  0  0  0  0
    9.0576   -3.9495  -55.1947 H   0  0  0  0  0  0  0  0  0  0  0  0
   10.8990   -6.4802  -55.8434 H   0  0  0  0  0  0  0  0  0  0  0  0
   12.2607   -6.9342  -57.8812 H   0  0  0  0  0  0  0  0  0  0  0  0
   13.0733   -5.0429  -59.2883 H   0  0  0  0  0  0  0  0  0  0  0  0
   12.5244   -2.6941  -58.6574 H   0  0  0  0  0  0  0  0  0  0  0  0
   11.1615   -2.2323  -56.6243 H   0  0  0  0  0  0  0  0  0  0  0  0
    9.2109   -1.6227  -50.9350 H   0  0  0  0  0  0  0  0  0  0  0  0
    8.6307   -3.2562  -49.1410 H   0  0  0  0  0  0  0  0  0  0  0  0
    7.0889   -5.1547  -49.6324 H   0  0  0  0  0  0  0  0  0  0  0  0
    6.1146   -5.4120  -51.9135 H   0  0  0  0  0  0  0  0  0  0  0  0
    6.6893   -3.7799  -53.7084 H   0  0  0  0  0  0  0  0  0  0  0  0
  1  2  1  0
  2  3  1  0
  3  4  1  0
  4  5  2  0
  4  6  1  0
  6  7  1  0
  7  8  1  0
  8  9  1  0
  9 10  1  0
 10 11  1  0
 11 12  1  0
 12 13  1  0
 13 14  1  0
 14 15  2  0
 14 16  1  0
 16 17  1  0
 17 18  1  0
 12 19  1  0
  3 20  2  0
 20 21  1  0
 21 22  1  0
 22 23  1  0
 23 24  1  0
 24 25  2  0
 25 26  1  0
 26 27  2  0
 27 28  1  0
 28 29  2  0
 21 30  1  0
 30 31  1  0
 31 32  2  0
 32 33  1  0
 33 34  2  0
 34 35  1  0
 35 36  2  0
 30  2  2  0
 36 31  1  0
 11  7  1  0
 29 24  1  0
 19  9  1  0
  1 37  1  0
  1 38  1  0
  1 39  1  0
  6 40  1  0
  7 41  1  6
  8 42  1  0
  8 43  1  0
  9 44  1  1
 10 45  1  0
 10 46  1  0
 11 47  1  6
 12 48  1  6
 13 49  1  0
 16 50  1  0
 16 51  1  0
 17 52  1  0
 17 53  1  0
 19 54  1  0
 19 55  1  0
 22 56  1  0
 22 57  1  0
 23 58  1  0
 23 59  1  0
 25 60  1  0
 26 61  1  0
 27 62  1  0
 28 63  1  0
 29 64  1  0
 32 65  1  0
 33 66  1  0
 34 67  1  0
 35 68  1  0
 36 69  1  0
M  END
>  <meeko>  (85) 
{"is_sidechain": false}

$$$$

     RDKit          3D

 58 63  0  0  0  0  0  0  0  0999 V2000
    6.1130   -0.2130  -53.8110 C   0  0  0  0  0  0  0  0  0  0  0  0
    7.5320   -0.5420  -54.1030 C   0  0  0  0  0  0  0  0  0  0  0  0
    8.3720    0.0890  -55.0680 C   0  0  0  0  0  0  0  0  0  0  0  0
    8.0310    1.1970  -55.9840 C   0  0  0  0  0  0  0  0  0  0  0  0
    6.8950    1.6490  -56.0890 O   0  0  0  0  0  0  0  0  0  0  0  0
    9.1260    1.6580  -56.6800 N   0  0  0  0  0  0  0  0  0  0  0  0
    9.1830    2.8200  -57.5400 C   0  0  2  0  0  0  0  0  0  0  0  0
   10.6210    3.0050  -58.0590 C   0  0  0  0  0  0  0  0  0  0  0  0
   10.6890    3.9960  -58.9840 C   0  0  0  0  0  0  0  0  0  0  0  0
    9.8270    3.8240  -60.2260 C   0  0  0  0  0  0  0  0  0  0  0  0
    8.3610    3.7730  -59.7550 C   0  0  2  0  0  0  0  0  0  0  0  0
    8.0100    5.1030  -59.0520 C   0  0  0  0  0  0  0  0  0  0  0  0
    8.9590    5.3400  -57.8560 C   0  0  2  0  0  0  0  0  0  0  0  0
   10.4300    5.3700  -58.3650 C   0  0  0  0  0  0  0  0  0  0  0  0
    8.7810    4.1630  -56.8540 C   0  0  0  0  0  0  0  0  0  0  0  0
    8.2260    2.6100  -58.7490 C   0  0  0  0  0  0  0  0  0  0  0  0
    9.6080   -0.4520  -55.0680 N   0  0  0  0  0  0  0  0  0  0  0  0
    9.5490   -1.4190  -54.1260 N   0  0  0  0  0  0  0  0  0  0  0  0
   10.7410   -2.2290  -53.8840 C   0  0  0  0  0  0  0  0  0  0  0  0
   11.2050   -2.9350  -55.1250 C   0  0  0  0  0  0  0  0  0  0  0  0
   10.3550   -3.9900  -55.7890 C   0  0  0  0  0  0  0  0  0  0  0  0
   11.6050   -4.3870  -55.0560 C   0  0  0  0  0  0  0  0  0  0  0  0
    8.3260   -1.5130  -53.5070 C   0  0  0  0  0  0  0  0  0  0  0  0
    7.9980   -2.4770  -52.4660 C   0  0  0  0  0  0  0  0  0  0  0  0
    8.2120   -2.1650  -51.1180 C   0  0  0  0  0  0  0  0  0  0  0  0
    7.8970   -3.0920  -50.1230 C   0  0  0  0  0  0  0  0  0  0  0  0
    7.3590   -4.3310  -50.4700 C   0  0  0  0  0  0  0  0  0  0  0  0
    7.1330   -4.6440  -51.8090 C   0  0  0  0  0  0  0  0  0  0  0  0
    7.4480   -3.7180  -52.8050 C   0  0  0  0  0  0  0  0  0  0  0  0
    5.9614   -0.1778  -52.7221 H   0  0  0  0  0  0  0  0  0  0  0  0
    5.8663    0.7662  -54.2474 H   0  0  0  0  0  0  0  0  0  0  0  0
    5.4606   -0.9837  -54.2474 H   0  0  0  0  0  0  0  0  0  0  0  0
    9.9980    1.2430  -56.3600 H   0  0  0  0  0  0  0  0  0  0  0  0
   11.4830    2.4100  -57.7230 H   0  0  0  0  0  0  0  0  0  0  0  0
    9.9748    4.6737  -60.9088 H   0  0  0  0  0  0  0  0  0  0  0  0
   10.0973    2.9049  -60.7665 H   0  0  0  0  0  0  0  0  0  0  0  0
    7.6828    3.6232  -60.6080 H   0  0  0  0  0  0  0  0  0  0  0  0
    8.1141    5.9313  -59.7683 H   0  0  0  0  0  0  0  0  0  0  0  0
    6.9744    5.0528  -58.6845 H   0  0  0  0  0  0  0  0  0  0  0  0
    8.7267    6.2966  -57.3651 H   0  0  0  0  0  0  0  0  0  0  0  0
   10.5573    6.1597  -59.1201 H   0  0  0  0  0  0  0  0  0  0  0  0
   11.1351    5.5837  -57.5482 H   0  0  0  0  0  0  0  0  0  0  0  0
    9.4219    4.3308  -55.9759 H   0  0  0  0  0  0  0  0  0  0  0  0
    7.7283    4.1096  -56.5395 H   0  0  0  0  0  0  0  0  0  0  0  0
    7.1887    2.5644  -58.3857 H   0  0  0  0  0  0  0  0  0  0  0  0
    8.4929    1.6702  -59.2544 H   0  0  0  0  0  0  0  0  0  0  0  0
   11.5485   -1.5736  -53.5257 H   0  0  0  0  0  0  0  0  0  0  0  0
   10.4853   -2.9929  -53.1350 H   0  0  0  0  0  0  0  0  0  0  0  0
   11.6800   -2.0023  -55.4633 H   0  0  0  0  0  0  0  0  0  0  0  0
    9.3692   -4.2442  -55.3724 H   0  0  0  0  0  0  0  0  0  0  0  0
    9.9666   -4.1487  -56.8058 H   0  0  0  0  0  0  0  0  0  0  0  0
   11.5337   -4.9320  -54.1032 H   0  0  0  0  0  0  0  0  0  0  0  0
   12.5096   -4.9567  -55.3149 H   0  0  0  0  0  0  0  0  0  0  0  0
    8.6299   -1.1857  -50.8419 H   0  0  0  0  0  0  0  0  0  0  0  0
    8.0731   -2.8453  -49.0656 H   0  0  0  0  0  0  0  0  0  0  0  0
    7.1128   -5.0620  -49.6858 H   0  0  0  0  0  0  0  0  0  0  0  0
    6.7064   -5.6207  -52.0811 H   0  0  0  0  0  0  0  0  0  0  0  0
    7.2630   -3.9651  -53.8608 H   0  0  0  0  0  0  0  0  0  0  0  0
  1  2  1  0
  2  3  1  0
  3  4  1  0
  4  5  2  0
  4  6  1  0
  7  6  1  1
  7  8  1  0
  8  9  2  0
  9 10  1  0
 10 11  1  0
 11 12  1  0
 12 13  1  0
 13 14  1  0
 13 15  1  0
 11 16  1  0
  3 17  2  0
 17 18  1  0
 18 19  1  0
 19 20  1  0
 20 21  1  0
 21 22  1  0
 18 23  1  0
 23 24  1  0
 24 25  2  0
 25 26  1  0
 26 27  2  0
 27 28  1  0
 28 29  2  0
 23  2  2  0
 29 24  1  0
 15  7  1  0
 22 20  1  0
 16  7  1  0
 14  9  1  0
  1 30  1  0
  1 31  1  0
  1 32  1  0
  6 33  1  0
  8 34  1  0
 10 35  1  0
 10 36  1  0
 11 37  1  6
 12 38  1  0
 12 39  1  0
 13 40  1  1
 14 41  1  0
 14 42  1  0
 15 43  1  0
 15 44  1  0
 16 45  1  0
 16 46  1  0
 19 47  1  0
 19 48  1  0
 20 49  1  0
 21 50  1  0
 21 51  1  0
 22 52  1  0
 22 53  1  0
 25 54  1  0
 26 55  1  0
 27 56  1  0
 28 57  1  0
 29 58  1  0
M  END
>  <meeko>  (86) 
{"is_sidechain": false}

$$$$

     RDKit          3D

 55 59  0  0  0  0  0  0  0  0999 V2000
    6.7010    0.1030  -53.4960 C   0  0  0  0  0  0  0  0  0  0  0  0
    8.0400   -0.3110  -53.9910 C   0  0  0  0  0  0  0  0  0  0  0  0
    8.7560    0.1990  -55.1260 C   0  0  0  0  0  0  0  0  0  0  0  0
    8.3680    1.2830  -56.0570 C   0  0  0  0  0  0  0  0  0  0  0  0
    7.2000    1.6140  -56.2320 O   0  0  0  0  0  0  0  0  0  0  0  0
    9.4360    1.8530  -56.7250 N   0  0  0  0  0  0  0  0  0  0  0  0
    9.3300    2.8370  -57.7890 C   0  0  2  0  0  0  0  0  0  0  0  0
   10.6920    2.9840  -58.4890 C   0  0  0  0  0  0  0  0  0  0  0  0
   10.6810    4.0080  -59.3800 C   0  0  0  0  0  0  0  0  0  0  0  0
    9.7750    3.7090  -60.5770 C   0  0  0  0  0  0  0  0  0  0  0  0
    8.3300    3.6090  -60.0050 C   0  0  2  0  0  0  0  0  0  0  0  0
    7.9420    4.9580  -59.3600 C   0  0  0  0  0  0  0  0  0  0  0  0
    8.9390    5.3180  -58.2380 C   0  0  2  0  0  0  0  0  0  0  0  0
   10.3600    5.3870  -58.8270 C   0  0  0  0  0  0  0  0  0  0  0  0
    8.9250    4.2080  -57.1650 C   0  0  0  0  0  0  0  0  0  0  0  0
    8.2840    2.5120  -58.9010 C   0  0  0  0  0  0  0  0  0  0  0  0
    9.9280   -0.4440  -55.2750 N   0  0  0  0  0  0  0  0  0  0  0  0
    9.9420   -1.3730  -54.3030 N   0  0  0  0  0  0  0  0  0  0  0  0
   11.0850   -2.2660  -54.2190 C   0  0  0  0  0  0  0  0  0  0  0  0
   10.8020   -3.7230  -54.6040 C   0  0  0  0  0  0  0  0  0  0  0  0
   11.3000   -4.1800  -55.9560 C   0  0  0  0  0  0  0  0  0  0  0  0
   11.6680   -5.5230  -56.1350 C   0  0  0  0  0  0  0  0  0  0  0  0
   12.1470   -5.9740  -57.3660 C   0  0  0  0  0  0  0  0  0  0  0  0
   12.2730   -5.0890  -58.4320 C   0  0  0  0  0  0  0  0  0  0  0  0
   11.9270   -3.7500  -58.2650 C   0  0  0  0  0  0  0  0  0  0  0  0
   11.4510   -3.2950  -57.0330 C   0  0  0  0  0  0  0  0  0  0  0  0
    8.8650   -1.2940  -53.4700 C   0  0  0  0  0  0  0  0  0  0  0  0
    8.6610   -2.1000  -52.3190 C   0  0  0  0  0  0  0  0  0  0  0  0
    8.5170   -2.7620  -51.3780 N   0  0  0  0  0  0  0  0  0  0  0  0
    6.7007    0.1031  -52.3960 H   0  0  0  0  0  0  0  0  0  0  0  0
    6.4710    1.1142  -53.8628 H   0  0  0  0  0  0  0  0  0  0  0  0
    5.9404   -0.6019  -53.8628 H   0  0  0  0  0  0  0  0  0  0  0  0
   10.2700    1.2830  -56.7450 H   0  0  0  0  0  0  0  0  0  0  0  0
   11.5631    2.3416  -58.2927 H   0  0  0  0  0  0  0  0  0  0  0  0
    9.8382    4.5207  -61.3167 H   0  0  0  0  0  0  0  0  0  0  0  0
   10.0726    2.7806  -61.0864 H   0  0  0  0  0  0  0  0  0  0  0  0
    7.6351    3.3589  -60.8202 H   0  0  0  0  0  0  0  0  0  0  0  0
    7.9585    5.7459  -60.1274 H   0  0  0  0  0  0  0  0  0  0  0  0
    6.9329    4.8737  -58.9304 H   0  0  0  0  0  0  0  0  0  0  0  0
    8.6537    6.2843  -57.7966 H   0  0  0  0  0  0  0  0  0  0  0  0
   10.3989    6.1351  -59.6325 H   0  0  0  0  0  0  0  0  0  0  0  0
   11.0894    5.6802  -58.0576 H   0  0  0  0  0  0  0  0  0  0  0  0
    9.6371    4.4669  -56.3676 H   0  0  0  0  0  0  0  0  0  0  0  0
    7.9080    4.1244  -56.7541 H   0  0  0  0  0  0  0  0  0  0  0  0
    7.2776    2.4816  -58.4581 H   0  0  0  0  0  0  0  0  0  0  0  0
    8.5214    1.5357  -59.3489 H   0  0  0  0  0  0  0  0  0  0  0  0
   11.8674   -1.8820  -54.8901 H   0  0  0  0  0  0  0  0  0  0  0  0
   11.3844   -2.2815  -53.1606 H   0  0  0  0  0  0  0  0  0  0  0  0
   11.2693   -4.3651  -53.8428 H   0  0  0  0  0  0  0  0  0  0  0  0
    9.7060   -3.7979  -54.6607 H   0  0  0  0  0  0  0  0  0  0  0  0
   11.5778   -6.2279  -55.2954 H   0  0  0  0  0  0  0  0  0  0  0  0
   12.4252   -7.0306  -57.4934 H   0  0  0  0  0  0  0  0  0  0  0  0
   12.6448   -5.4456  -59.4039 H   0  0  0  0  0  0  0  0  0  0  0  0
   12.0290   -3.0485  -59.1062 H   0  0  0  0  0  0  0  0  0  0  0  0
   11.1924   -2.2333  -56.9067 H   0  0  0  0  0  0  0  0  0  0  0  0
  1  2  1  0
  2  3  1  0
  3  4  1  0
  4  5  2  0
  4  6  1  0
  7  6  1  1
  7  8  1  0
  8  9  2  0
  9 10  1  0
 10 11  1  0
 11 12  1  0
 12 13  1  0
 13 14  1  0
 13 15  1  0
 11 16  1  0
  3 17  2  0
 17 18  1  0
 18 19  1  0
 19 20  1  0
 20 21  1  0
 21 22  2  0
 22 23  1  0
 23 24  2  0
 24 25  1  0
 25 26  2  0
 18 27  1  0
 27 28  1  0
 28 29  3  0
 27  2  2  0
 15  7  1  0
 26 21  1  0
 16  7  1  0
 14  9  1  0
  1 30  1  0
  1 31  1  0
  1 32  1  0
  6 33  1  0
  8 34  1  0
 10 35  1  0
 10 36  1  0
 11 37  1  6
 12 38  1  0
 12 39  1  0
 13 40  1  1
 14 41  1  0
 14 42  1  0
 15 43  1  0
 15 44  1  0
 16 45  1  0
 16 46  1  0
 19 47  1  0
 19 48  1  0
 20 49  1  0
 20 50  1  0
 22 51  1  0
 23 52  1  0
 24 53  1  0
 25 54  1  0
 26 55  1  0
M  END
>  <meeko>  (87) 
{"is_sidechain": false}

$$$$

     RDKit          3D

 61 66  0  0  0  0  0  0  0  0999 V2000
    6.3160    0.1750  -53.6050 C   0  0  0  0  0  0  0  0  0  0  0  0
    7.6210   -0.4250  -53.9860 C   0  0  0  0  0  0  0  0  0  0  0  0
    8.5130    0.0440  -54.9970 C   0  0  0  0  0  0  0  0  0  0  0  0
    8.3440    1.2110  -55.8860 C   0  0  0  0  0  0  0  0  0  0  0  0
    7.2480    1.6720  -56.1860 O   0  0  0  0  0  0  0  0  0  0  0  0
    9.5450    1.7060  -56.3450 N   0  0  0  0  0  0  0  0  0  0  0  0
    9.6850    2.7240  -57.3570 C   0  0  2  0  0  0  0  0  0  0  0  0
   11.1980    2.8770  -57.6290 C   0  0  0  0  0  0  0  0  0  0  0  0
   11.4400    3.7410  -58.6460 C   0  0  0  0  0  0  0  0  0  0  0  0
   10.7970    3.4090  -59.9840 C   0  0  0  0  0  0  0  0  0  0  0  0
    9.2730    3.4010  -59.7670 C   0  0  2  0  0  0  0  0  0  0  0  0
    8.8250    4.8020  -59.2910 C   0  0  0  0  0  0  0  0  0  0  0  0
    9.5670    5.1930  -57.9900 C   0  0  2  0  0  0  0  0  0  0  0  0
   11.1010    5.1790  -58.2530 C   0  0  0  0  0  0  0  0  0  0  0  0
    9.2120    4.1390  -56.8990 C   0  0  0  0  0  0  0  0  0  0  0  0
    8.9520    2.3560  -58.6740 C   0  0  0  0  0  0  0  0  0  0  0  0
    9.6080   -0.7390  -55.0830 N   0  0  0  0  0  0  0  0  0  0  0  0
    9.4170   -1.6830  -54.1410 N   0  0  0  0  0  0  0  0  0  0  0  0
   10.4340   -2.7050  -53.9650 C   0  0  0  0  0  0  0  0  0  0  0  0
   10.1790   -3.9230  -54.8500 C   0  0  0  0  0  0  0  0  0  0  0  0
   11.3000   -4.1330  -55.8270 C   0  0  0  0  0  0  0  0  0  0  0  0
   11.0180   -4.6460  -57.2140 C   0  0  0  0  0  0  0  0  0  0  0  0
   11.4430   -3.2180  -57.0150 C   0  0  0  0  0  0  0  0  0  0  0  0
    8.2370   -1.5440  -53.4500 C   0  0  0  0  0  0  0  0  0  0  0  0
    7.8020   -2.4360  -52.3830 C   0  0  0  0  0  0  0  0  0  0  0  0
    7.0230   -3.5590  -52.6800 C   0  0  0  0  0  0  0  0  0  0  0  0
    6.6110   -4.4160  -51.6580 C   0  0  0  0  0  0  0  0  0  0  0  0
    6.9730   -4.1530  -50.3380 C   0  0  0  0  0  0  0  0  0  0  0  0
    7.7420   -3.0300  -50.0360 C   0  0  0  0  0  0  0  0  0  0  0  0
    8.1550   -2.1720  -51.0560 C   0  0  0  0  0  0  0  0  0  0  0  0
    6.2356    0.2120  -52.5086 H   0  0  0  0  0  0  0  0  0  0  0  0
    6.2484    1.1946  -54.0122 H   0  0  0  0  0  0  0  0  0  0  0  0
    5.4980   -0.4374  -54.0122 H   0  0  0  0  0  0  0  0  0  0  0  0
   10.3430    1.1240  -56.0990 H   0  0  0  0  0  0  0  0  0  0  0  0
   11.9828    2.3498  -57.0668 H   0  0  0  0  0  0  0  0  0  0  0  0
   11.0673    4.1697  -60.7312 H   0  0  0  0  0  0  0  0  0  0  0  0
   11.1441    2.4324  -60.3525 H   0  0  0  0  0  0  0  0  0  0  0  0
    8.7472    3.1497  -60.6999 H   0  0  0  0  0  0  0  0  0  0  0  0
    9.0524    5.5406  -60.0738 H   0  0  0  0  0  0  0  0  0  0  0  0
    7.7432    4.7823  -59.0925 H   0  0  0  0  0  0  0  0  0  0  0  0
    9.2686    6.1986  -57.6586 H   0  0  0  0  0  0  0  0  0  0  0  0
   11.3565    5.8702  -59.0697 H   0  0  0  0  0  0  0  0  0  0  0  0
   11.6678    5.5023  -57.3675 H   0  0  0  0  0  0  0  0  0  0  0  0
    9.7144    4.4049  -55.9572 H   0  0  0  0  0  0  0  0  0  0  0  0
    8.1226    4.1262  -56.7472 H   0  0  0  0  0  0  0  0  0  0  0  0
    7.8669    2.3382  -58.4943 H   0  0  0  0  0  0  0  0  0  0  0  0
    9.2904    1.3651  -59.0111 H   0  0  0  0  0  0  0  0  0  0  0  0
   11.4147   -2.2782  -54.2219 H   0  0  0  0  0  0  0  0  0  0  0  0
   10.4066   -3.0350  -52.9160 H   0  0  0  0  0  0  0  0  0  0  0  0
   10.0869   -4.8153  -54.2134 H   0  0  0  0  0  0  0  0  0  0  0  0
    9.2522   -3.7517  -55.4172 H   0  0  0  0  0  0  0  0  0  0  0  0
   11.9539   -4.4499  -55.0012 H   0  0  0  0  0  0  0  0  0  0  0  0
   11.7057   -5.3637  -57.6851 H   0  0  0  0  0  0  0  0  0  0  0  0
   10.1657   -5.1427  -57.7007 H   0  0  0  0  0  0  0  0  0  0  0  0
   12.4417   -2.8911  -57.3402 H   0  0  0  0  0  0  0  0  0  0  0  0
   11.0305   -2.2376  -57.2955 H   0  0  0  0  0  0  0  0  0  0  0  0
    6.7344   -3.7673  -53.7208 H   0  0  0  0  0  0  0  0  0  0  0  0
    6.0001   -5.2996  -51.8947 H   0  0  0  0  0  0  0  0  0  0  0  0
    6.6518   -4.8318  -49.5342 H   0  0  0  0  0  0  0  0  0  0  0  0
    8.0232   -2.8203  -48.9934 H   0  0  0  0  0  0  0  0  0  0  0  0
    8.7600   -1.2854  -50.8155 H   0  0  0  0  0  0  0  0  0  0  0  0
  1  2  1  0
  2  3  1  0
  3  4  1  0
  4  5  2  0
  4  6  1  0
  7  6  1  1
  7  8  1  0
  8  9  2  0
  9 10  1  0
 10 11  1  0
 11 12  1  0
 12 13  1  0
 13 14  1  0
 13 15  1  0
 11 16  1  0
  3 17  2  0
 17 18  1  0
 18 19  1  0
 19 20  1  0
 20 21  1  0
 21 22  1  0
 22 23  1  0
 18 24  1  0
 24 25  1  0
 25 26  2  0
 26 27  1  0
 27 28  2  0
 28 29  1  0
 29 30  2  0
 24  2  2  0
 30 25  1  0
 15  7  1  0
 23 21  1  0
 16  7  1  0
 14  9  1  0
  1 31  1  0
  1 32  1  0
  1 33  1  0
  6 34  1  0
  8 35  1  0
 10 36  1  0
 10 37  1  0
 11 38  1  6
 12 39  1  0
 12 40  1  0
 13 41  1  1
 14 42  1  0
 14 43  1  0
 15 44  1  0
 15 45  1  0
 16 46  1  0
 16 47  1  0
 19 48  1  0
 19 49  1  0
 20 50  1  0
 20 51  1  0
 21 52  1  0
 22 53  1  0
 22 54  1  0
 23 55  1  0
 23 56  1  0
 26 57  1  0
 27 58  1  0
 28 59  1  0
 29 60  1  0
 30 61  1  0
M  END
>  <meeko>  (88) 
{"is_sidechain": false}

$$$$

     RDKit          3D

 51 55  0  0  0  0  0  0  0  0999 V2000
    6.0910   -0.2040  -53.9900 C   0  0  0  0  0  0  0  0  0  0  0  0
    7.5530   -0.4180  -54.1510 C   0  0  0  0  0  0  0  0  0  0  0  0
    8.4450    0.2640  -55.0430 C   0  0  0  0  0  0  0  0  0  0  0  0
    8.1220    1.2970  -56.0510 C   0  0  0  0  0  0  0  0  0  0  0  0
    6.9800    1.6980  -56.2480 O   0  0  0  0  0  0  0  0  0  0  0  0
    9.2330    1.7810  -56.7180 N   0  0  0  0  0  0  0  0  0  0  0  0
    9.2350    2.8950  -57.6490 C   0  0  2  0  0  0  0  0  0  0  0  0
    9.0580    4.2120  -56.8740 C   0  0  0  0  0  0  0  0  0  0  0  0
    9.2140    5.2890  -57.6850 C   0  0  0  0  0  0  0  0  0  0  0  0
   10.5530    5.4150  -58.3950 C   0  0  0  0  0  0  0  0  0  0  0  0
   10.7070    4.1750  -59.2930 C   0  0  2  0  0  0  0  0  0  0  0  0
    9.5640    4.1560  -60.3320 C   0  0  0  0  0  0  0  0  0  0  0  0
    8.1950    4.1420  -59.6150 C   0  0  2  0  0  0  0  0  0  0  0  0
    8.0790    5.4010  -58.7050 C   0  0  0  0  0  0  0  0  0  0  0  0
    8.1170    2.8590  -58.7380 C   0  0  0  0  0  0  0  0  0  0  0  0
   10.6040    2.9230  -58.3950 C   0  0  0  0  0  0  0  0  0  0  0  0
    9.7070   -0.1620  -54.8710 N   0  0  0  0  0  0  0  0  0  0  0  0
    9.6230   -1.1170  -53.9330 N   0  0  0  0  0  0  0  0  0  0  0  0
   10.8260   -1.8260  -53.5590 C   0  0  0  0  0  0  0  0  0  0  0  0
    8.3550   -1.3040  -53.4430 C   0  0  0  0  0  0  0  0  0  0  0  0
    8.0060   -2.2650  -52.4000 C   0  0  0  0  0  0  0  0  0  0  0  0
    7.8250   -1.8390  -51.0770 C   0  0  0  0  0  0  0  0  0  0  0  0
    7.4890   -2.7570  -50.0780 C   0  0  0  0  0  0  0  0  0  0  0  0
    7.3260   -4.1080  -50.3920 C   0  0  0  0  0  0  0  0  0  0  0  0
    7.4950   -4.5390  -51.7060 C   0  0  0  0  0  0  0  0  0  0  0  0
    7.8290   -3.6210  -52.6990 C   0  0  0  0  0  0  0  0  0  0  0  0
    7.9860   -4.0660  -53.9550 F   0  0  0  0  0  0  0  0  0  0  0  0
    5.8415   -0.1675  -52.9193 H   0  0  0  0  0  0  0  0  0  0  0  0
    5.8048    0.7456  -54.4658 H   0  0  0  0  0  0  0  0  0  0  0  0
    5.5447   -1.0317  -54.4658 H   0  0  0  0  0  0  0  0  0  0  0  0
   10.1100    1.6040  -56.2450 H   0  0  0  0  0  0  0  0  0  0  0  0
    8.8335    4.2731  -55.7989 H   0  0  0  0  0  0  0  0  0  0  0  0
   10.5711    6.3288  -59.0071 H   0  0  0  0  0  0  0  0  0  0  0  0
   11.3770    5.4775  -57.6689 H   0  0  0  0  0  0  0  0  0  0  0  0
   11.6735    4.1934  -59.8180 H   0  0  0  0  0  0  0  0  0  0  0  0
    9.6336    5.0523  -60.9659 H   0  0  0  0  0  0  0  0  0  0  0  0
    9.6554    3.2516  -60.9514 H   0  0  0  0  0  0  0  0  0  0  0  0
    7.3767    4.1498  -60.3501 H   0  0  0  0  0  0  0  0  0  0  0  0
    8.1917    6.3170  -59.3035 H   0  0  0  0  0  0  0  0  0  0  0  0
    7.0972    5.4530  -58.2117 H   0  0  0  0  0  0  0  0  0  0  0  0
    7.1327    2.8097  -58.2495 H   0  0  0  0  0  0  0  0  0  0  0  0
    8.2588    1.9738  -59.3754 H   0  0  0  0  0  0  0  0  0  0  0  0
   10.6942    2.0218  -59.0192 H   0  0  0  0  0  0  0  0  0  0  0  0
   11.4134    2.9524  -57.6507 H   0  0  0  0  0  0  0  0  0  0  0  0
   10.9000   -1.8696  -52.4624 H   0  0  0  0  0  0  0  0  0  0  0  0
   10.7907   -2.8477  -53.9650 H   0  0  0  0  0  0  0  0  0  0  0  0
   11.7027   -1.3002  -53.9650 H   0  0  0  0  0  0  0  0  0  0  0  0
    7.9481   -0.7757  -50.8234 H   0  0  0  0  0  0  0  0  0  0  0  0
    7.3526   -2.4144  -49.0416 H   0  0  0  0  0  0  0  0  0  0  0  0
    7.0649   -4.8298  -49.6040 H   0  0  0  0  0  0  0  0  0  0  0  0
    7.3650   -5.6017  -51.9587 H   0  0  0  0  0  0  0  0  0  0  0  0
  1  2  1  0
  2  3  1  0
  3  4  1  0
  4  5  2  0
  4  6  1  0
  7  6  1  1
  7  8  1  0
  8  9  2  0
  9 10  1  0
 10 11  1  0
 11 12  1  0
 12 13  1  0
 13 14  1  0
 13 15  1  0
 11 16  1  0
  3 17  2  0
 17 18  1  0
 18 19  1  0
 18 20  1  0
 20 21  1  0
 21 22  2  0
 22 23  1  0
 23 24  2  0
 24 25  1  0
 25 26  2  0
 26 27  1  0
 20  2  2  0
 26 21  1  0
 15  7  1  0
 16  7  1  0
 14  9  1  0
  1 28  1  0
  1 29  1  0
  1 30  1  0
  6 31  1  0
  8 32  1  0
 10 33  1  0
 10 34  1  0
 11 35  1  6
 12 36  1  0
 12 37  1  0
 13 38  1  6
 14 39  1  0
 14 40  1  0
 15 41  1  0
 15 42  1  0
 16 43  1  0
 16 44  1  0
 19 45  1  0
 19 46  1  0
 19 47  1  0
 22 48  1  0
 23 49  1  0
 24 50  1  0
 25 51  1  0
M  END
>  <meeko>  (89) 
{"is_sidechain": false}

$$$$

     RDKit          3D

 46 50  0  0  0  0  0  0  0  0999 V2000
    9.6740    1.4590  -55.6870 O   0  0  0  0  0  0  0  0  0  0  0  0
    8.4790    1.2880  -55.8950 C   0  0  0  0  0  0  0  0  0  0  0  0
    7.7750    1.9460  -56.8820 N   0  0  0  0  0  0  0  0  0  0  0  0
    8.3320    2.9420  -57.7850 C   0  0  2  0  0  0  0  0  0  0  0  0
    7.3350    3.2420  -58.9200 C   0  0  0  0  0  0  0  0  0  0  0  0
    7.7650    4.2670  -59.7010 C   0  0  0  0  0  0  0  0  0  0  0  0
    7.9870    5.6000  -59.0050 C   0  0  0  0  0  0  0  0  0  0  0  0
    9.0780    5.3770  -57.9430 C   0  0  2  0  0  0  0  0  0  0  0  0
   10.3790    4.9290  -58.6430 C   0  0  0  0  0  0  0  0  0  0  0  0
   10.1340    3.6340  -59.4500 C   0  0  2  0  0  0  0  0  0  0  0  0
    9.0120    3.8890  -60.5000 C   0  0  0  0  0  0  0  0  0  0  0  0
    9.6770    2.5250  -58.4590 C   0  0  0  0  0  0  0  0  0  0  0  0
    8.5940    4.2580  -56.9940 C   0  0  0  0  0  0  0  0  0  0  0  0
    7.6690    0.3920  -55.0950 C   0  0  0  0  0  0  0  0  0  0  0  0
    6.2900    0.2790  -55.0780 C   0  0  0  0  0  0  0  0  0  0  0  0
    5.9430   -0.7130  -54.1320 C   0  0  0  0  0  0  0  0  0  0  0  0
    7.1090   -1.1890  -53.5590 C   0  0  0  0  0  0  0  0  0  0  0  0
    7.3190   -2.1890  -52.5100 C   0  0  0  0  0  0  0  0  0  0  0  0
    7.0500   -3.5410  -52.7610 C   0  0  0  0  0  0  0  0  0  0  0  0
    7.2420   -4.5030  -51.7650 C   0  0  0  0  0  0  0  0  0  0  0  0
    7.7090   -4.1240  -50.5090 C   0  0  0  0  0  0  0  0  0  0  0  0
    7.9860   -2.7850  -50.2480 C   0  0  0  0  0  0  0  0  0  0  0  0
    7.7930   -1.8220  -51.2430 C   0  0  0  0  0  0  0  0  0  0  0  0
    8.1390   -0.4810  -54.1380 N   0  0  0  0  0  0  0  0  0  0  0  0
    6.7730    1.9640  -56.7750 H   0  0  0  0  0  0  0  0  0  0  0  0
    6.3937    2.6953  -59.0782 H   0  0  0  0  0  0  0  0  0  0  0  0
    8.3172    6.3558  -59.7328 H   0  0  0  0  0  0  0  0  0  0  0  0
    7.0566    5.9609  -58.5422 H   0  0  0  0  0  0  0  0  0  0  0  0
    9.2691    6.3023  -57.3797 H   0  0  0  0  0  0  0  0  0  0  0  0
   10.7165    5.7234  -59.3249 H   0  0  0  0  0  0  0  0  0  0  0  0
   11.1479    4.7359  -57.8805 H   0  0  0  0  0  0  0  0  0  0  0  0
   11.0521    3.3240  -59.9706 H   0  0  0  0  0  0  0  0  0  0  0  0
    9.2981    4.7105  -61.1732 H   0  0  0  0  0  0  0  0  0  0  0  0
    8.8361    3.0012  -61.1252 H   0  0  0  0  0  0  0  0  0  0  0  0
    9.5344    1.5817  -59.0066 H   0  0  0  0  0  0  0  0  0  0  0  0
   10.4459    2.3901  -57.6840 H   0  0  0  0  0  0  0  0  0  0  0  0
    9.3642    4.0735  -56.2306 H   0  0  0  0  0  0  0  0  0  0  0  0
    7.6552    4.5783  -56.5185 H   0  0  0  0  0  0  0  0  0  0  0  0
    5.5866    0.8595  -55.6930 H   0  0  0  0  0  0  0  0  0  0  0  0
    4.9229   -1.0482  -53.8930 H   0  0  0  0  0  0  0  0  0  0  0  0
    6.6841   -3.8485  -53.7517 H   0  0  0  0  0  0  0  0  0  0  0  0
    7.0239   -5.5608  -51.9737 H   0  0  0  0  0  0  0  0  0  0  0  0
    7.8586   -4.8809  -49.7250 H   0  0  0  0  0  0  0  0  0  0  0  0
    8.3574   -2.4841  -49.2573 H   0  0  0  0  0  0  0  0  0  0  0  0
    8.0153   -0.7661  -51.0295 H   0  0  0  0  0  0  0  0  0  0  0  0
    9.1060   -0.5470  -53.8520 H   0  0  0  0  0  0  0  0  0  0  0  0
  1  2  2  0
  2  3  1  0
  4  3  1  1
  4  5  1  0
  5  6  2  0
  6  7  1  0
  7  8  1  0
  8  9  1  0
  9 10  1  0
 10 11  1  0
 10 12  1  0
  8 13  1  0
  2 14  1  0
 14 15  2  0
 15 16  1  0
 16 17  2  0
 17 18  1  0
 18 19  2  0
 19 20  1  0
 20 21  2  0
 21 22  1  0
 22 23  2  0
 17 24  1  0
 12  4  1  0
 24 14  1  0
 13  4  1  0
 23 18  1  0
 11  6  1  0
  3 25  1  0
  5 26  1  0
  7 27  1  0
  7 28  1  0
  8 29  1  1
  9 30  1  0
  9 31  1  0
 10 32  1  6
 11 33  1  0
 11 34  1  0
 12 35  1  0
 12 36  1  0
 13 37  1  0
 13 38  1  0
 15 39  1  0
 16 40  1  0
 19 41  1  0
 20 42  1  0
 21 43  1  0
 22 44  1  0
 23 45  1  0
 24 46  1  0
M  END
>  <meeko>  (90) 
{"is_sidechain": false}

$$$$

     RDKit          3D

 49 53  0  0  0  0  0  0  0  0999 V2000
    6.5860    2.0930  -56.1420 O   0  0  0  0  0  0  0  0  0  0  0  0
    7.6800    1.5420  -56.1250 C   0  0  0  0  0  0  0  0  0  0  0  0
    8.7910    1.9600  -56.8220 N   0  0  0  0  0  0  0  0  0  0  0  0
    8.8510    3.0240  -57.8000 C   0  0  2  0  0  0  0  0  0  0  0  0
   10.1090    2.8500  -58.6710 C   0  0  0  0  0  0  0  0  0  0  0  0
   10.2840    3.9070  -59.5050 C   0  0  0  0  0  0  0  0  0  0  0  0
    9.1990    3.9670  -60.5820 C   0  0  0  0  0  0  0  0  0  0  0  0
    7.8590    4.2150  -59.8260 C   0  0  2  0  0  0  0  0  0  0  0  0
    7.9420    5.5610  -59.0710 C   0  0  0  0  0  0  0  0  0  0  0  0
    9.1240    5.5420  -58.0760 C   0  0  2  0  0  0  0  0  0  0  0  0
   10.4280    5.2710  -58.8480 C   0  0  0  0  0  0  0  0  0  0  0  0
    8.9240    4.3940  -57.0640 C   0  0  0  0  0  0  0  0  0  0  0  0
    7.6370    3.0840  -58.7790 C   0  0  0  0  0  0  0  0  0  0  0  0
    7.9340    0.3200  -55.3430 C   0  0  0  0  0  0  0  0  0  0  0  0
    6.9820   -0.4550  -54.6360 C   0  0  0  0  0  0  0  0  0  0  0  0
    7.7060   -1.4760  -54.0880 C   0  0  0  0  0  0  0  0  0  0  0  0
    7.2000   -2.7560  -53.0910 Cl  0  0  0  0  0  0  0  0  0  0  0  0
    9.0050   -1.3210  -54.4810 N   0  0  0  0  0  0  0  0  0  0  0  0
   10.1640   -2.1430  -54.1510 C   0  0  0  0  0  0  0  0  0  0  0  0
   10.6770   -2.9030  -55.3510 C   0  0  0  0  0  0  0  0  0  0  0  0
   10.3290   -4.2500  -55.5380 C   0  0  0  0  0  0  0  0  0  0  0  0
   10.7750   -4.9540  -56.6590 C   0  0  0  0  0  0  0  0  0  0  0  0
   11.5740   -4.3210  -57.6080 C   0  0  0  0  0  0  0  0  0  0  0  0
   11.9320   -2.9860  -57.4360 C   0  0  0  0  0  0  0  0  0  0  0  0
   11.4850   -2.2880  -56.3140 C   0  0  0  0  0  0  0  0  0  0  0  0
   11.8480   -0.9830  -56.1360 O   0  0  0  0  0  0  0  0  0  0  0  0
    9.1770   -0.1970  -55.2260 N   0  0  0  0  0  0  0  0  0  0  0  0
    9.5590    1.2930  -56.7770 H   0  0  0  0  0  0  0  0  0  0  0  0
   10.7804    1.9800  -58.6235 H   0  0  0  0  0  0  0  0  0  0  0  0
    9.4008    4.7905  -61.2828 H   0  0  0  0  0  0  0  0  0  0  0  0
    9.1639    3.0391  -61.1717 H   0  0  0  0  0  0  0  0  0  0  0  0
    7.0319    4.2306  -60.5510 H   0  0  0  0  0  0  0  0  0  0  0  0
    8.0897    6.3755  -59.7954 H   0  0  0  0  0  0  0  0  0  0  0  0
    7.0065    5.7189  -58.5144 H   0  0  0  0  0  0  0  0  0  0  0  0
    9.1746    6.5090  -57.5542 H   0  0  0  0  0  0  0  0  0  0  0  0
   10.5802    6.0449  -59.6148 H   0  0  0  0  0  0  0  0  0  0  0  0
   11.2947    5.2897  -58.1709 H   0  0  0  0  0  0  0  0  0  0  0  0
    9.7685    4.3816  -56.3592 H   0  0  0  0  0  0  0  0  0  0  0  0
    7.9804    4.5575  -56.5228 H   0  0  0  0  0  0  0  0  0  0  0  0
    6.7184    3.2887  -58.2095 H   0  0  0  0  0  0  0  0  0  0  0  0
    7.5429    2.1199  -59.3003 H   0  0  0  0  0  0  0  0  0  0  0  0
    5.9004   -0.2749  -54.5478 H   0  0  0  0  0  0  0  0  0  0  0  0
   10.9659   -1.4915  -53.7736 H   0  0  0  0  0  0  0  0  0  0  0  0
    9.8562   -2.8755  -53.3903 H   0  0  0  0  0  0  0  0  0  0  0  0
    9.6979   -4.7569  -54.7932 H   0  0  0  0  0  0  0  0  0  0  0  0
   10.4949   -6.0093  -56.7924 H   0  0  0  0  0  0  0  0  0  0  0  0
   11.9220   -4.8748  -58.4924 H   0  0  0  0  0  0  0  0  0  0  0  0
   12.5650   -2.4838  -58.1824 H   0  0  0  0  0  0  0  0  0  0  0  0
   12.7720   -0.9540  -55.8350 H   0  0  0  0  0  0  0  0  0  0  0  0
  1  2  2  0
  2  3  1  0
  4  3  1  1
  4  5  1  0
  5  6  2  0
  6  7  1  0
  7  8  1  0
  8  9  1  0
  9 10  1  0
 10 11  1  0
 10 12  1  0
  8 13  1  0
  2 14  1  0
 14 15  1  0
 15 16  2  0
 16 17  1  0
 16 18  1  0
 18 19  1  0
 19 20  1  0
 20 21  2  0
 21 22  1  0
 22 23  2  0
 23 24  1  0
 24 25  2  0
 25 26  1  0
 18 27  1  0
 12  4  1  0
 27 14  2  0
 13  4  1  0
 25 20  1  0
 11  6  1  0
  3 28  1  0
  5 29  1  0
  7 30  1  0
  7 31  1  0
  8 32  1  6
  9 33  1  0
  9 34  1  0
 10 35  1  1
 11 36  1  0
 11 37  1  0
 12 38  1  0
 12 39  1  0
 13 40  1  0
 13 41  1  0
 15 42  1  0
 19 43  1  0
 19 44  1  0
 21 45  1  0
 22 46  1  0
 23 47  1  0
 24 48  1  0
 26 49  1  0
M  END
>  <meeko>  (91) 
{"is_sidechain": false}

$$$$

     RDKit          3D

 57 62  0  0  0  0  0  0  0  0999 V2000
    9.1470    0.7140  -53.4690 N   0  0  0  0  0  0  0  0  0  0  0  0
    8.3730    0.2050  -54.4030 C   0  0  0  0  0  0  0  0  0  0  0  0
    7.6780   -0.9150  -54.3170 N   0  0  0  0  0  0  0  0  0  0  0  0
    7.6060   -1.8730  -53.2240 C   0  0  2  0  0  0  0  0  0  0  0  0
    8.9280   -2.6330  -53.0930 C   0  0  0  0  0  0  0  0  0  0  0  0
    8.8410   -3.5840  -52.1300 C   0  0  0  0  0  0  0  0  0  0  0  0
    8.7680   -2.9620  -50.7320 C   0  0  0  0  0  0  0  0  0  0  0  0
    7.4340   -2.1540  -50.7050 C   0  0  2  0  0  0  0  0  0  0  0  0
    6.2490   -3.1270  -50.9160 C   0  0  0  0  0  0  0  0  0  0  0  0
    6.3940   -3.8670  -52.2670 C   0  0  2  0  0  0  0  0  0  0  0  0
    7.7370   -4.6240  -52.2810 C   0  0  0  0  0  0  0  0  0  0  0  0
    6.4150   -2.8350  -53.4190 C   0  0  0  0  0  0  0  0  0  0  0  0
    7.4200   -1.1230  -51.8740 C   0  0  0  0  0  0  0  0  0  0  0  0
    8.2250    0.9090  -55.6890 C   0  0  0  0  0  0  0  0  0  0  0  0
    9.2160    1.4920  -56.4800 C   0  0  0  0  0  0  0  0  0  0  0  0
    8.5400    2.0570  -57.5480 C   0  0  0  0  0  0  0  0  0  0  0  0
    9.1240    2.9150  -58.5810 C   0  0  0  0  0  0  0  0  0  0  0  0
    9.4970    2.3320  -59.8020 C   0  0  0  0  0  0  0  0  0  0  0  0
   10.0620    3.1090  -60.8170 C   0  0  0  0  0  0  0  0  0  0  0  0
   10.2720    4.4720  -60.6170 C   0  0  0  0  0  0  0  0  0  0  0  0
    9.9250    5.0620  -59.4020 C   0  0  0  0  0  0  0  0  0  0  0  0
    9.3600    4.2880  -58.3850 C   0  0  0  0  0  0  0  0  0  0  0  0
    8.9480    5.1610  -56.7460 Br  0  0  0  0  0  0  0  0  0  0  0  0
    7.1870    1.7310  -57.3840 N   0  0  0  0  0  0  0  0  0  0  0  0
    6.0510    1.9720  -58.2210 C   0  0  0  0  0  0  0  0  0  0  0  0
    4.8400    2.3730  -57.6240 C   0  0  0  0  0  0  0  0  0  0  0  0
    3.7070    2.6250  -58.4020 C   0  0  0  0  0  0  0  0  0  0  0  0
    3.7630    2.4730  -59.7850 C   0  0  0  0  0  0  0  0  0  0  0  0
    4.9520    2.0610  -60.3790 C   0  0  0  0  0  0  0  0  0  0  0  0
    5.0200    1.8520  -62.0870 Cl  0  0  0  0  0  0  0  0  0  0  0  0
    6.0910    1.8060  -59.6090 C   0  0  0  0  0  0  0  0  0  0  0  0
    7.0000    1.0560  -56.2020 N   0  0  0  0  0  0  0  0  0  0  0  0
    9.2310    0.2740  -52.5640 H   0  0  0  0  0  0  0  0  0  0  0  0
    9.6450    1.5840  -53.6100 H   0  0  0  0  0  0  0  0  0  0  0  0
    7.1490   -1.0970  -55.1760 H   0  0  0  0  0  0  0  0  0  0  0  0
    9.8257   -2.4350  -53.6971 H   0  0  0  0  0  0  0  0  0  0  0  0
    8.7575   -3.7473  -49.9618 H   0  0  0  0  0  0  0  0  0  0  0  0
    9.6377   -2.3213  -50.5243 H   0  0  0  0  0  0  0  0  0  0  0  0
    7.3478   -1.6352  -49.7389 H   0  0  0  0  0  0  0  0  0  0  0  0
    6.2345   -3.8633  -50.0989 H   0  0  0  0  0  0  0  0  0  0  0  0
    5.3114   -2.5519  -50.9226 H   0  0  0  0  0  0  0  0  0  0  0  0
    5.5522   -4.5636  -52.3940 H   0  0  0  0  0  0  0  0  0  0  0  0
    7.7756   -5.3389  -51.4458 H   0  0  0  0  0  0  0  0  0  0  0  0
    7.8575   -5.1889  -53.2171 H   0  0  0  0  0  0  0  0  0  0  0  0
    6.5207   -3.3598  -54.3799 H   0  0  0  0  0  0  0  0  0  0  0  0
    5.4759   -2.2622  -53.4163 H   0  0  0  0  0  0  0  0  0  0  0  0
    6.4589   -0.5879  -51.8804 H   0  0  0  0  0  0  0  0  0  0  0  0
    8.2387   -0.4010  -51.7380 H   0  0  0  0  0  0  0  0  0  0  0  0
   10.3003    1.5007  -56.2949 H   0  0  0  0  0  0  0  0  0  0  0  0
    9.3434    1.2545  -59.9614 H   0  0  0  0  0  0  0  0  0  0  0  0
   10.3411    2.6444  -61.7742 H   0  0  0  0  0  0  0  0  0  0  0  0
   10.7121    5.0834  -61.4186 H   0  0  0  0  0  0  0  0  0  0  0  0
   10.0961    6.1371  -59.2441 H   0  0  0  0  0  0  0  0  0  0  0  0
    4.7854    2.4893  -56.5315 H   0  0  0  0  0  0  0  0  0  0  0  0
    2.7702    2.9437  -57.9216 H   0  0  0  0  0  0  0  0  0  0  0  0
    2.8756    2.6767  -60.4022 H   0  0  0  0  0  0  0  0  0  0  0  0
    7.0200    1.4743  -60.0958 H   0  0  0  0  0  0  0  0  0  0  0  0
  1  2  1  0
  2  3  2  0
  4  3  1  6
  4  5  1  0
  5  6  2  0
  6  7  1  0
  7  8  1  0
  8  9  1  0
  9 10  1  0
 10 11  1  0
 10 12  1  0
  8 13  1  0
  2 14  1  0
 14 15  1  0
 15 16  2  0
 16 17  1  0
 17 18  2  0
 18 19  1  0
 19 20  2  0
 20 21  1  0
 21 22  2  0
 22 23  1  0
 16 24  1  0
 24 25  1  0
 25 26  2  0
 26 27  1  0
 27 28  2  0
 28 29  1  0
 29 30  1  0
 29 31  2  0
 24 32  1  0
 12  4  1  0
 32 14  2  0
 13  4  1  0
 22 17  1  0
 31 25  1  0
 11  6  1  0
  1 33  1  0
  1 34  1  0
  3 35  1  0
  5 36  1  0
  7 37  1  0
  7 38  1  0
  8 39  1  1
  9 40  1  0
  9 41  1  0
 10 42  1  6
 11 43  1  0
 11 44  1  0
 12 45  1  0
 12 46  1  0
 13 47  1  0
 13 48  1  0
 15 49  1  0
 18 50  1  0
 19 51  1  0
 20 52  1  0
 21 53  1  0
 26 54  1  0
 27 55  1  0
 28 56  1  0
 31 57  1  0
M  CHG  1   3   1
M  END
>  <meeko>  (92) 
{"is_sidechain": false}

$$$$

     RDKit          3D

 57 62  0  0  0  0  0  0  0  0999 V2000
   12.3790    2.6000  -56.8960 N   0  0  0  0  0  0  0  0  0  0  0  0
   11.1260    2.3000  -57.1890 C   0  0  0  0  0  0  0  0  0  0  0  0
   10.4660    3.0180  -58.0780 N   0  0  0  0  0  0  0  0  0  0  0  0
    9.1280    2.8850  -58.6730 C   0  0  2  0  0  0  0  0  0  0  0  0
    9.0900    1.8730  -59.8110 C   0  0  0  0  0  0  0  0  0  0  0  0
    7.8280    1.7230  -60.2850 C   0  0  0  0  0  0  0  0  0  0  0  0
    6.7460    1.3450  -59.2800 C   0  0  0  0  0  0  0  0  0  0  0  0
    6.6760    2.4770  -58.2360 C   0  0  2  0  0  0  0  0  0  0  0  0
    6.3120    3.7990  -58.9540 C   0  0  0  0  0  0  0  0  0  0  0  0
    7.3580    4.1180  -60.0490 C   0  0  2  0  0  0  0  0  0  0  0  0
    7.3850    2.9510  -61.0810 C   0  0  0  0  0  0  0  0  0  0  0  0
    8.7510    4.2420  -59.3580 C   0  0  0  0  0  0  0  0  0  0  0  0
    8.0690    2.6210  -57.5800 C   0  0  0  0  0  0  0  0  0  0  0  0
   10.6480    1.1130  -56.4570 C   0  0  0  0  0  0  0  0  0  0  0  0
    9.6480    0.9840  -55.4950 C   0  0  0  0  0  0  0  0  0  0  0  0
    9.6640   -0.3450  -55.1100 C   0  0  0  0  0  0  0  0  0  0  0  0
    8.8270   -0.9510  -54.0730 C   0  0  0  0  0  0  0  0  0  0  0  0
    9.4540   -1.6280  -53.0150 C   0  0  0  0  0  0  0  0  0  0  0  0
    8.6980   -2.2060  -51.9940 C   0  0  0  0  0  0  0  0  0  0  0  0
    7.3080   -2.1090  -52.0140 C   0  0  0  0  0  0  0  0  0  0  0  0
    6.6700   -1.4300  -53.0510 C   0  0  0  0  0  0  0  0  0  0  0  0
    7.4230   -0.8500  -54.0760 C   0  0  0  0  0  0  0  0  0  0  0  0
    6.4770    0.0310  -55.4700 Br  0  0  0  0  0  0  0  0  0  0  0  0
   10.6660   -0.9610  -55.8640 N   0  0  0  0  0  0  0  0  0  0  0  0
   11.0690   -2.3320  -55.9620 C   0  0  0  0  0  0  0  0  0  0  0  0
   11.1570   -3.1010  -54.7860 C   0  0  0  0  0  0  0  0  0  0  0  0
   11.5450   -4.4440  -54.8310 C   0  0  0  0  0  0  0  0  0  0  0  0
   11.8590   -5.0350  -56.0500 C   0  0  0  0  0  0  0  0  0  0  0  0
   11.7920   -4.2780  -57.2160 C   0  0  0  0  0  0  0  0  0  0  0  0
   12.1980   -5.0010  -58.7240 Cl  0  0  0  0  0  0  0  0  0  0  0  0
   11.4050   -2.9340  -57.1800 C   0  0  0  0  0  0  0  0  0  0  0  0
   11.3460   -0.0220  -56.6000 N   0  0  0  0  0  0  0  0  0  0  0  0
   12.9030    3.3550  -57.3070 H   0  0  0  0  0  0  0  0  0  0  0  0
   12.8480    1.9550  -56.2590 H   0  0  0  0  0  0  0  0  0  0  0  0
   10.9770    3.8080  -58.4480 H   0  0  0  0  0  0  0  0  0  0  0  0
    9.9688    1.3356  -60.1969 H   0  0  0  0  0  0  0  0  0  0  0  0
    5.7770    1.2430  -59.7904 H   0  0  0  0  0  0  0  0  0  0  0  0
    6.9799    0.3842  -58.7982 H   0  0  0  0  0  0  0  0  0  0  0  0
    5.9181    2.2501  -57.4718 H   0  0  0  0  0  0  0  0  0  0  0  0
    5.3195    3.6993  -59.4176 H   0  0  0  0  0  0  0  0  0  0  0  0
    6.3023    4.6163  -58.2179 H   0  0  0  0  0  0  0  0  0  0  0  0
    7.1075    5.0535  -60.5706 H   0  0  0  0  0  0  0  0  0  0  0  0
    6.3847    2.7923  -61.5103 H   0  0  0  0  0  0  0  0  0  0  0  0
    8.0612    3.1616  -61.9226 H   0  0  0  0  0  0  0  0  0  0  0  0
    9.5113    4.4937  -60.1121 H   0  0  0  0  0  0  0  0  0  0  0  0
    8.7081    5.0335  -58.5953 H   0  0  0  0  0  0  0  0  0  0  0  0
    8.0555    3.4625  -56.8717 H   0  0  0  0  0  0  0  0  0  0  0  0
    8.3192    1.6940  -57.0433 H   0  0  0  0  0  0  0  0  0  0  0  0
    8.9830    1.7755  -55.1192 H   0  0  0  0  0  0  0  0  0  0  0  0
   10.5511   -1.7036  -52.9904 H   0  0  0  0  0  0  0  0  0  0  0  0
    9.1999   -2.7386  -51.1728 H   0  0  0  0  0  0  0  0  0  0  0  0
    6.7136   -2.5687  -51.2107 H   0  0  0  0  0  0  0  0  0  0  0  0
    5.5729   -1.3506  -53.0627 H   0  0  0  0  0  0  0  0  0  0  0  0
   10.9170   -2.6386  -53.8172 H   0  0  0  0  0  0  0  0  0  0  0  0
   11.6017   -5.0321  -53.9032 H   0  0  0  0  0  0  0  0  0  0  0  0
   12.1581   -6.0927  -56.0924 H   0  0  0  0  0  0  0  0  0  0  0  0
   11.3647   -2.3493  -58.1108 H   0  0  0  0  0  0  0  0  0  0  0  0
  1  2  1  0
  2  3  2  0
  4  3  1  1
  4  5  1  0
  5  6  2  0
  6  7  1  0
  7  8  1  0
  8  9  1  0
  9 10  1  0
 10 11  1  0
 10 12  1  0
  8 13  1  0
  2 14  1  0
 14 15  1  0
 15 16  2  0
 16 17  1  0
 17 18  2  0
 18 19  1  0
 19 20  2  0
 20 21  1  0
 21 22  2  0
 22 23  1  0
 16 24  1  0
 24 25  1  0
 25 26  2  0
 26 27  1  0
 27 28  2  0
 28 29  1  0
 29 30  1  0
 29 31  2  0
 24 32  1  0
 12  4  1  0
 32 14  2  0
 13  4  1  0
 22 17  1  0
 31 25  1  0
 11  6  1  0
  1 33  1  0
  1 34  1  0
  3 35  1  0
  5 36  1  0
  7 37  1  0
  7 38  1  0
  8 39  1  1
  9 40  1  0
  9 41  1  0
 10 42  1  6
 11 43  1  0
 11 44  1  0
 12 45  1  0
 12 46  1  0
 13 47  1  0
 13 48  1  0
 15 49  1  0
 18 50  1  0
 19 51  1  0
 20 52  1  0
 21 53  1  0
 26 54  1  0
 27 55  1  0
 28 56  1  0
 31 57  1  0
M  CHG  1   3   1
M  END
>  <meeko>  (93) 
{"is_sidechain": false}

$$$$

     RDKit          3D

 42 45  0  0  0  0  0  0  0  0999 V2000
    6.4600    2.1340  -56.4800 O   0  0  0  0  0  0  0  0  0  0  0  0
    7.5270    1.5600  -56.3080 C   0  0  0  0  0  0  0  0  0  0  0  0
    7.6110    0.4510  -55.3260 C   0  0  0  0  0  0  0  0  0  0  0  0
    8.5380    0.3810  -54.3590 C   0  0  0  0  0  0  0  0  0  0  0  0
    8.6380   -0.7330  -53.4060 C   0  0  0  0  0  0  0  0  0  0  0  0
    7.6180   -1.0330  -52.4940 C   0  0  0  0  0  0  0  0  0  0  0  0
    7.7390   -2.1190  -51.6230 C   0  0  0  0  0  0  0  0  0  0  0  0
    8.8750   -2.9230  -51.6630 C   0  0  0  0  0  0  0  0  0  0  0  0
    9.8900   -2.6450  -52.5770 C   0  0  0  0  0  0  0  0  0  0  0  0
    9.7690   -1.5600  -53.4480 C   0  0  0  0  0  0  0  0  0  0  0  0
    8.7130    1.8960  -56.9070 N   0  0  0  0  0  0  0  0  0  0  0  0
    8.8700    3.0450  -57.7760 C   0  0  2  0  0  0  0  0  0  0  0  0
   10.2280    2.8690  -58.4940 C   0  0  0  0  0  0  0  0  0  0  0  0
   10.5350    3.9480  -59.2560 C   0  0  0  0  0  0  0  0  0  0  0  0
    9.6160    4.0540  -60.4720 C   0  0  0  0  0  0  0  0  0  0  0  0
    8.1870    4.2840  -59.8990 C   0  0  2  0  0  0  0  0  0  0  0  0
    8.1700    5.6070  -59.0960 C   0  0  0  0  0  0  0  0  0  0  0  0
    9.2050    5.5540  -57.9490 C   0  0  2  0  0  0  0  0  0  0  0  0
   10.5990    5.2900  -58.5420 C   0  0  0  0  0  0  0  0  0  0  0  0
    8.8620    4.3860  -56.9960 C   0  0  0  0  0  0  0  0  0  0  0  0
    7.8180    3.1250  -58.9270 C   0  0  0  0  0  0  0  0  0  0  0  0
    6.8710   -0.3600  -55.3948 H   0  0  0  0  0  0  0  0  0  0  0  0
    9.2637    1.2033  -54.2747 H   0  0  0  0  0  0  0  0  0  0  0  0
    6.7134   -0.4079  -52.4632 H   0  0  0  0  0  0  0  0  0  0  0  0
    6.9355   -2.3390  -50.9047 H   0  0  0  0  0  0  0  0  0  0  0  0
    8.9713   -3.7757  -50.9748 H   0  0  0  0  0  0  0  0  0  0  0  0
   10.7870   -3.2807  -52.6123 H   0  0  0  0  0  0  0  0  0  0  0  0
   10.5689   -1.3524  -54.1740 H   0  0  0  0  0  0  0  0  0  0  0  0
    9.5570    1.5230  -56.4950 H   0  0  0  0  0  0  0  0  0  0  0  0
   10.8664    1.9783  -58.3985 H   0  0  0  0  0  0  0  0  0  0  0  0
    9.9158    4.9007  -61.1070 H   0  0  0  0  0  0  0  0  0  0  0  0
    9.6629    3.1502  -61.0972 H   0  0  0  0  0  0  0  0  0  0  0  0
    7.4681    4.3241  -60.7306 H   0  0  0  0  0  0  0  0  0  0  0  0
    8.4162    6.4422  -59.7681 H   0  0  0  0  0  0  0  0  0  0  0  0
    7.1677    5.7508  -58.6661 H   0  0  0  0  0  0  0  0  0  0  0  0
    9.1888    6.5085  -57.4025 H   0  0  0  0  0  0  0  0  0  0  0  0
   10.8621    6.0848  -59.2555 H   0  0  0  0  0  0  0  0  0  0  0  0
   11.3643    5.2769  -57.7520 H   0  0  0  0  0  0  0  0  0  0  0  0
    9.6087    4.3427  -56.1894 H   0  0  0  0  0  0  0  0  0  0  0  0
    7.8613    4.5498  -56.5696 H   0  0  0  0  0  0  0  0  0  0  0  0
    6.8218    3.3105  -58.4990 H   0  0  0  0  0  0  0  0  0  0  0  0
    7.8123    2.1745  -59.4806 H   0  0  0  0  0  0  0  0  0  0  0  0
  1  2  2  0
  2  3  1  0
  3  4  2  0
  4  5  1  0
  5  6  2  0
  6  7  1  0
  7  8  2  0
  8  9  1  0
  9 10  2  0
  2 11  1  0
 12 11  1  1
 12 13  1  0
 13 14  2  0
 14 15  1  0
 15 16  1  0
 16 17  1  0
 17 18  1  0
 18 19  1  0
 18 20  1  0
 16 21  1  0
 10  5  1  0
 20 12  1  0
 21 12  1  0
 19 14  1  0
  3 22  1  0
  4 23  1  0
  6 24  1  0
  7 25  1  0
  8 26  1  0
  9 27  1  0
 10 28  1  0
 11 29  1  0
 13 30  1  0
 15 31  1  0
 15 32  1  0
 16 33  1  6
 17 34  1  0
 17 35  1  0
 18 36  1  1
 19 37  1  0
 19 38  1  0
 20 39  1  0
 20 40  1  0
 21 41  1  0
 21 42  1  0
M  END
>  <meeko>  (94) 
{"is_sidechain": false}

$$$$

     RDKit          3D

 51 55  0  0  0  0  0  0  0  0999 V2000
    5.2080    2.2620  -58.0070 C   0  0  0  0  0  0  0  0  0  0  0  0
    6.6800    2.4410  -57.9070 C   0  0  0  0  0  0  0  0  0  0  0  0
    7.5330    1.8950  -56.9120 C   0  0  0  0  0  0  0  0  0  0  0  0
    7.1630    1.0370  -55.7660 C   0  0  0  0  0  0  0  0  0  0  0  0
    6.0360    1.0170  -55.2870 O   0  0  0  0  0  0  0  0  0  0  0  0
    8.2170    0.2670  -55.3240 N   0  0  0  0  0  0  0  0  0  0  0  0
    8.1660   -0.7850  -54.3330 C   0  0  2  0  0  0  0  0  0  0  0  0
    7.1100   -1.8270  -54.7410 C   0  0  0  0  0  0  0  0  0  0  0  0
    7.1330   -2.9060  -53.9170 C   0  0  0  0  0  0  0  0  0  0  0  0
    8.4470   -3.6670  -53.8370 C   0  0  0  0  0  0  0  0  0  0  0  0
    9.5050   -2.6890  -53.2950 C   0  0  2  0  0  0  0  0  0  0  0  0
    9.0850   -2.2180  -51.8860 C   0  0  0  0  0  0  0  0  0  0  0  0
    7.6960   -1.5420  -51.9430 C   0  0  2  0  0  0  0  0  0  0  0  0
    6.6550   -2.5530  -52.5080 C   0  0  0  0  0  0  0  0  0  0  0  0
    7.7920   -0.3120  -52.8920 C   0  0  0  0  0  0  0  0  0  0  0  0
    9.5600   -1.4750  -54.2480 C   0  0  0  0  0  0  0  0  0  0  0  0
    8.8160    2.2240  -57.1390 N   0  0  0  0  0  0  0  0  0  0  0  0
    8.7970    3.0610  -58.2110 N   0  0  0  0  0  0  0  0  0  0  0  0
   10.0160    3.7170  -58.5780 C   0  0  0  0  0  0  0  0  0  0  0  0
    9.9460    4.9720  -59.2120 C   0  0  0  0  0  0  0  0  0  0  0  0
   11.1090    5.6480  -59.5930 C   0  0  0  0  0  0  0  0  0  0  0  0
   12.3520    5.0680  -59.3590 C   0  0  0  0  0  0  0  0  0  0  0  0
   13.7850    5.8940  -59.8290 Cl  0  0  0  0  0  0  0  0  0  0  0  0
   12.4380    3.8170  -58.7540 C   0  0  0  0  0  0  0  0  0  0  0  0
   11.2740    3.1390  -58.3690 C   0  0  0  0  0  0  0  0  0  0  0  0
    7.5260    3.1190  -58.7740 C   0  0  0  0  0  0  0  0  0  0  0  0
    7.1880    3.7410  -60.0820 C   0  0  0  0  0  0  0  0  0  0  0  0
    4.7756    2.2094  -56.9969 H   0  0  0  0  0  0  0  0  0  0  0  0
    4.7711    3.1136  -58.5490 H   0  0  0  0  0  0  0  0  0  0  0  0
    4.9879    1.3305  -58.5490 H   0  0  0  0  0  0  0  0  0  0  0  0
    9.0290    0.3220  -55.9340 H   0  0  0  0  0  0  0  0  0  0  0  0
    6.4232   -1.7123  -55.5926 H   0  0  0  0  0  0  0  0  0  0  0  0
    8.3445   -4.5262  -53.1579 H   0  0  0  0  0  0  0  0  0  0  0  0
    8.7383   -4.0497  -54.8263 H   0  0  0  0  0  0  0  0  0  0  0  0
   10.4899   -3.1750  -53.2347 H   0  0  0  0  0  0  0  0  0  0  0  0
    9.0399   -3.0854  -51.2110 H   0  0  0  0  0  0  0  0  0  0  0  0
    9.8233   -1.4921  -51.5145 H   0  0  0  0  0  0  0  0  0  0  0  0
    7.3826   -1.2237  -50.9378 H   0  0  0  0  0  0  0  0  0  0  0  0
    6.6181   -3.4551  -51.8796 H   0  0  0  0  0  0  0  0  0  0  0  0
    5.6423   -2.1237  -52.5216 H   0  0  0  0  0  0  0  0  0  0  0  0
    6.8221    0.2062  -52.9177 H   0  0  0  0  0  0  0  0  0  0  0  0
    8.5682    0.3737  -52.5213 H   0  0  0  0  0  0  0  0  0  0  0  0
   10.2992   -0.7525  -53.8717 H   0  0  0  0  0  0  0  0  0  0  0  0
    9.8467   -1.8229  -55.2514 H   0  0  0  0  0  0  0  0  0  0  0  0
    8.9640    5.4264  -59.4101 H   0  0  0  0  0  0  0  0  0  0  0  0
   11.0417    6.6341  -60.0757 H   0  0  0  0  0  0  0  0  0  0  0  0
   13.4228    3.3596  -58.5778 H   0  0  0  0  0  0  0  0  0  0  0  0
   11.3489    2.1469  -57.8998 H   0  0  0  0  0  0  0  0  0  0  0  0
    6.6692    4.6957  -59.9108 H   0  0  0  0  0  0  0  0  0  0  0  0
    8.1116    3.9225  -60.6513 H   0  0  0  0  0  0  0  0  0  0  0  0
    6.5333    3.0648  -60.6513 H   0  0  0  0  0  0  0  0  0  0  0  0
  1  2  1  0
  2  3  1  0
  3  4  1  0
  4  5  2  0
  4  6  1  0
  7  6  1  6
  7  8  1  0
  8  9  2  0
  9 10  1  0
 10 11  1  0
 11 12  1  0
 12 13  1  0
 13 14  1  0
 13 15  1  0
 11 16  1  0
  3 17  2  0
 17 18  1  0
 18 19  1  0
 19 20  1  0
 20 21  2  0
 21 22  1  0
 22 23  1  0
 22 24  2  0
 24 25  1  0
 18 26  1  0
 26 27  1  0
 26  2  2  0
 15  7  1  0
 25 19  2  0
 16  7  1  0
 14  9  1  0
  1 28  1  0
  1 29  1  0
  1 30  1  0
  6 31  1  0
  8 32  1  0
 10 33  1  0
 10 34  1  0
 11 35  1  1
 12 36  1  0
 12 37  1  0
 13 38  1  1
 14 39  1  0
 14 40  1  0
 15 41  1  0
 15 42  1  0
 16 43  1  0
 16 44  1  0
 20 45  1  0
 21 46  1  0
 24 47  1  0
 25 48  1  0
 27 49  1  0
 27 50  1  0
 27 51  1  0
M  END
>  <meeko>  (95) 
{"is_sidechain": false}

$$$$

     RDKit          3D

 58 62  0  0  0  0  0  0  0  0999 V2000
   15.6550   -3.7000  -57.6560 C   0  0  0  0  0  0  0  0  0  0  0  0
   14.5690   -4.5320  -58.0450 O   0  0  0  0  0  0  0  0  0  0  0  0
   13.4430   -4.4710  -57.2720 C   0  0  0  0  0  0  0  0  0  0  0  0
   12.6410   -3.3510  -57.4960 C   0  0  0  0  0  0  0  0  0  0  0  0
   11.4620   -3.1590  -56.7680 C   0  0  0  0  0  0  0  0  0  0  0  0
   11.0640   -4.0950  -55.8060 C   0  0  0  0  0  0  0  0  0  0  0  0
    9.7980   -3.8820  -55.0090 C   0  0  0  0  0  0  0  0  0  0  0  0
    9.9700   -2.9270  -53.8260 C   0  0  0  0  0  0  0  0  0  0  0  0
    9.0910   -1.7710  -53.8870 N   0  0  0  0  0  0  0  0  0  0  0  0
    9.1050   -0.9890  -54.9800 N   0  0  0  0  0  0  0  0  0  0  0  0
    8.2080   -0.0210  -54.7230 C   0  0  0  0  0  0  0  0  0  0  0  0
    7.9490    1.0500  -55.7070 C   0  0  0  0  0  0  0  0  0  0  0  0
    6.8250    1.4860  -55.9280 O   0  0  0  0  0  0  0  0  0  0  0  0
    9.0970    1.5160  -56.3240 N   0  0  0  0  0  0  0  0  0  0  0  0
    9.1610    2.6570  -57.2210 C   0  0  2  0  0  0  0  0  0  0  0  0
   10.6270    2.9320  -57.5960 C   0  0  0  0  0  0  0  0  0  0  0  0
   10.7210    3.8860  -58.5560 C   0  0  0  0  0  0  0  0  0  0  0  0
   10.0140    3.5960  -59.8720 C   0  0  0  0  0  0  0  0  0  0  0  0
    8.5150    3.4510  -59.5570 C   0  0  2  0  0  0  0  0  0  0  0  0
    7.9910    4.7760  -58.9620 C   0  0  0  0  0  0  0  0  0  0  0  0
    8.7830    5.1360  -57.6850 C   0  0  2  0  0  0  0  0  0  0  0  0
   10.2960    5.2600  -58.0360 C   0  0  0  0  0  0  0  0  0  0  0  0
    8.5830    3.9900  -56.6500 C   0  0  0  0  0  0  0  0  0  0  0  0
    8.3570    2.3230  -58.5140 C   0  0  0  0  0  0  0  0  0  0  0  0
    7.5960   -0.2130  -53.4380 C   0  0  0  0  0  0  0  0  0  0  0  0
    6.5810    0.6500  -52.7810 C   0  0  0  0  0  0  0  0  0  0  0  0
    8.1830   -1.3640  -52.9530 C   0  0  0  0  0  0  0  0  0  0  0  0
    7.8040   -2.2010  -51.2840 Br  0  0  0  0  0  0  0  0  0  0  0  0
   11.8670   -5.2210  -55.5920 C   0  0  0  0  0  0  0  0  0  0  0  0
   13.0500   -5.4060  -56.3170 C   0  0  0  0  0  0  0  0  0  0  0  0
   15.7098   -3.6580  -56.5582 H   0  0  0  0  0  0  0  0  0  0  0  0
   16.5938   -4.1122  -58.0545 H   0  0  0  0  0  0  0  0  0  0  0  0
   15.5013   -2.6863  -58.0545 H   0  0  0  0  0  0  0  0  0  0  0  0
   12.9393   -2.6111  -58.2533 H   0  0  0  0  0  0  0  0  0  0  0  0
   10.8443   -2.2677  -56.9524 H   0  0  0  0  0  0  0  0  0  0  0  0
    9.0304   -3.4691  -55.6800 H   0  0  0  0  0  0  0  0  0  0  0  0
    9.5106   -4.8595  -54.5943 H   0  0  0  0  0  0  0  0  0  0  0  0
    9.7573   -3.4786  -52.8984 H   0  0  0  0  0  0  0  0  0  0  0  0
   11.0036   -2.5520  -53.8580 H   0  0  0  0  0  0  0  0  0  0  0  0
    9.9530    1.2960  -55.8330 H   0  0  0  0  0  0  0  0  0  0  0  0
   11.4893    2.4204  -57.1435 H   0  0  0  0  0  0  0  0  0  0  0  0
   10.1731    4.4255  -60.5767 H   0  0  0  0  0  0  0  0  0  0  0  0
   10.4077    2.6789  -60.3345 H   0  0  0  0  0  0  0  0  0  0  0  0
    7.9474    3.2145  -60.4691 H   0  0  0  0  0  0  0  0  0  0  0  0
    8.1111    5.5800  -59.7031 H   0  0  0  0  0  0  0  0  0  0  0  0
    6.9279    4.6590  -58.7047 H   0  0  0  0  0  0  0  0  0  0  0  0
    8.4287    6.0909  -57.2695 H   0  0  0  0  0  0  0  0  0  0  0  0
   10.4472    6.0257  -58.8111 H   0  0  0  0  0  0  0  0  0  0  0  0
   10.8898    5.5612  -57.1604 H   0  0  0  0  0  0  0  0  0  0  0  0
    9.1063    4.2451  -55.7167 H   0  0  0  0  0  0  0  0  0  0  0  0
    7.5088    3.8643  -56.4494 H   0  0  0  0  0  0  0  0  0  0  0  0
    7.2926    2.2119  -58.2596 H   0  0  0  0  0  0  0  0  0  0  0  0
    8.7449    1.3867  -58.9417 H   0  0  0  0  0  0  0  0  0  0  0  0
    6.6799    0.5659  -51.6887 H   0  0  0  0  0  0  0  0  0  0  0  0
    6.7375    1.6958  -53.0839 H   0  0  0  0  0  0  0  0  0  0  0  0
    5.5740    0.3273  -53.0839 H   0  0  0  0  0  0  0  0  0  0  0  0
   11.5648   -5.9698  -54.8450 H   0  0  0  0  0  0  0  0  0  0  0  0
   13.6723   -6.2939  -56.1318 H   0  0  0  0  0  0  0  0  0  0  0  0
  1  2  1  0
  2  3  1  0
  3  4  1  0
  4  5  2  0
  5  6  1  0
  6  7  1  0
  7  8  1  0
  8  9  1  0
  9 10  1  0
 10 11  2  0
 11 12  1  0
 12 13  2  0
 12 14  1  0
 15 14  1  1
 15 16  1  0
 16 17  2  0
 17 18  1  0
 18 19  1  0
 19 20  1  0
 20 21  1  0
 21 22  1  0
 21 23  1  0
 19 24  1  0
 11 25  1  0
 25 26  1  0
 25 27  2  0
 27 28  1  0
  6 29  2  0
 29 30  1  0
 30  3  2  0
 27  9  1  0
 23 15  1  0
 24 15  1  0
 22 17  1  0
  1 31  1  0
  1 32  1  0
  1 33  1  0
  4 34  1  0
  5 35  1  0
  7 36  1  0
  7 37  1  0
  8 38  1  0
  8 39  1  0
 14 40  1  0
 16 41  1  0
 18 42  1  0
 18 43  1  0
 19 44  1  6
 20 45  1  0
 20 46  1  0
 21 47  1  1
 22 48  1  0
 22 49  1  0
 23 50  1  0
 23 51  1  0
 24 52  1  0
 24 53  1  0
 26 54  1  0
 26 55  1  0
 26 56  1  0
 29 57  1  0
 30 58  1  0
M  END
>  <meeko>  (96) 
{"is_sidechain": false}

$$$$

     RDKit          3D

 61 66  0  0  0  0  0  0  0  0999 V2000
   12.1270   -5.6070  -56.1470 C   0  0  0  0  0  0  0  0  0  0  0  0
   11.5410   -4.5170  -55.3190 C   0  0  0  0  0  0  0  0  0  0  0  0
   11.8730   -4.1330  -54.0390 C   0  0  0  0  0  0  0  0  0  0  0  0
   11.1050   -3.0130  -53.5590 C   0  0  0  0  0  0  0  0  0  0  0  0
   11.4080   -2.3690  -52.2460 C   0  0  0  0  0  0  0  0  0  0  0  0
   10.1680   -2.6360  -54.5080 C   0  0  0  0  0  0  0  0  0  0  0  0
    9.1550   -1.6620  -54.4500 N   0  0  0  0  0  0  0  0  0  0  0  0
    9.1220   -0.7420  -55.4460 N   0  0  0  0  0  0  0  0  0  0  0  0
    8.1850    0.1460  -55.1000 C   0  0  0  0  0  0  0  0  0  0  0  0
    7.8990    1.3080  -55.9600 C   0  0  0  0  0  0  0  0  0  0  0  0
    6.8230    1.8970  -55.9520 O   0  0  0  0  0  0  0  0  0  0  0  0
    8.9690    1.6780  -56.7570 N   0  0  0  0  0  0  0  0  0  0  0  0
    8.9850    2.8880  -57.5500 C   0  0  2  0  0  0  0  0  0  0  0  0
   10.3360    2.8920  -58.3030 C   0  0  0  0  0  0  0  0  0  0  0  0
   10.5180    4.0420  -58.9980 C   0  0  0  0  0  0  0  0  0  0  0  0
    9.5630    4.1330  -60.1880 C   0  0  0  0  0  0  0  0  0  0  0  0
    8.1330    4.1830  -59.5760 C   0  0  2  0  0  0  0  0  0  0  0  0
    8.0060    5.4450  -58.6880 C   0  0  0  0  0  0  0  0  0  0  0  0
    9.0690    5.4230  -57.5650 C   0  0  2  0  0  0  0  0  0  0  0  0
   10.4680    5.3360  -58.2000 C   0  0  0  0  0  0  0  0  0  0  0  0
    8.8650    4.1700  -56.6840 C   0  0  0  0  0  0  0  0  0  0  0  0
    7.9030    2.9350  -58.6740 C   0  0  0  0  0  0  0  0  0  0  0  0
    7.5260   -0.2450  -53.8990 C   0  0  0  0  0  0  0  0  0  0  0  0
    6.3880    0.4520  -53.2390 C   0  0  0  0  0  0  0  0  0  0  0  0
    8.1340   -1.4400  -53.5250 C   0  0  0  0  0  0  0  0  0  0  0  0
    7.7070   -2.3870  -52.4900 C   0  0  0  0  0  0  0  0  0  0  0  0
    8.0690   -2.1830  -51.1520 C   0  0  0  0  0  0  0  0  0  0  0  0
    7.6870   -3.0970  -50.1670 C   0  0  0  0  0  0  0  0  0  0  0  0
    6.9470   -4.2260  -50.5130 C   0  0  0  0  0  0  0  0  0  0  0  0
    6.5880   -4.4440  -51.8410 C   0  0  0  0  0  0  0  0  0  0  0  0
    6.9690   -3.5300  -52.8260 C   0  0  0  0  0  0  0  0  0  0  0  0
   10.3080   -3.5290  -55.9590 S   0  0  0  0  0  0  0  0  0  0  0  0
   12.5444   -6.3834  -55.4889 H   0  0  0  0  0  0  0  0  0  0  0  0
   11.3437   -6.0467  -56.7819 H   0  0  0  0  0  0  0  0  0  0  0  0
   12.9258   -5.1961  -56.7819 H   0  0  0  0  0  0  0  0  0  0  0  0
   12.6493   -4.6330  -53.4412 H   0  0  0  0  0  0  0  0  0  0  0  0
   11.0942   -3.0359  -51.4294 H   0  0  0  0  0  0  0  0  0  0  0  0
   12.4892   -2.1808  -52.1708 H   0  0  0  0  0  0  0  0  0  0  0  0
   10.8638   -1.4160  -52.1708 H   0  0  0  0  0  0  0  0  0  0  0  0
    9.8670    1.3090  -56.4720 H   0  0  0  0  0  0  0  0  0  0  0  0
   11.0599    2.0641  -58.2778 H   0  0  0  0  0  0  0  0  0  0  0  0
    9.7627    5.0438  -60.7715 H   0  0  0  0  0  0  0  0  0  0  0  0
    9.6829    3.2796  -60.8716 H   0  0  0  0  0  0  0  0  0  0  0  0
    7.3940    4.2030  -60.3906 H   0  0  0  0  0  0  0  0  0  0  0  0
    8.1529    6.3412  -59.3087 H   0  0  0  0  0  0  0  0  0  0  0  0
    7.0052    5.4611  -58.2318 H   0  0  0  0  0  0  0  0  0  0  0  0
    8.9731    6.3348  -56.9572 H   0  0  0  0  0  0  0  0  0  0  0  0
   10.6344    6.1961  -58.8652 H   0  0  0  0  0  0  0  0  0  0  0  0
   11.2502    5.3492  -57.4267 H   0  0  0  0  0  0  0  0  0  0  0  0
    9.6317    4.1502  -55.8955 H   0  0  0  0  0  0  0  0  0  0  0  0
    7.8639    4.2068  -56.2296 H   0  0  0  0  0  0  0  0  0  0  0  0
    6.9041    2.9938  -58.2170 H   0  0  0  0  0  0  0  0  0  0  0  0
    7.9770    2.0250  -59.2875 H   0  0  0  0  0  0  0  0  0  0  0  0
    6.4998    0.3835  -52.1468 H   0  0  0  0  0  0  0  0  0  0  0  0
    6.3808    1.5096  -53.5413 H   0  0  0  0  0  0  0  0  0  0  0  0
    5.4426   -0.0222  -53.5413 H   0  0  0  0  0  0  0  0  0  0  0  0
    8.6584   -1.2965  -50.8750 H   0  0  0  0  0  0  0  0  0  0  0  0
    7.9704   -2.9255  -49.1181 H   0  0  0  0  0  0  0  0  0  0  0  0
    6.6463   -4.9453  -49.7370 H   0  0  0  0  0  0  0  0  0  0  0  0
    6.0046   -5.3357  -52.1140 H   0  0  0  0  0  0  0  0  0  0  0  0
    6.6875   -3.7088  -53.8742 H   0  0  0  0  0  0  0  0  0  0  0  0
  1  2  1  0
  2  3  2  0
  3  4  1  0
  4  5  1  0
  4  6  2  0
  6  7  1  0
  7  8  1  0
  8  9  2  0
  9 10  1  0
 10 11  2  0
 10 12  1  0
 13 12  1  1
 13 14  1  0
 14 15  2  0
 15 16  1  0
 16 17  1  0
 17 18  1  0
 18 19  1  0
 19 20  1  0
 19 21  1  0
 17 22  1  0
  9 23  1  0
 23 24  1  0
 23 25  2  0
 25 26  1  0
 26 27  2  0
 27 28  1  0
 28 29  2  0
 29 30  1  0
 30 31  2  0
  6 32  1  0
 32  2  1  0
 25  7  1  0
 31 26  1  0
 21 13  1  0
 22 13  1  0
 20 15  1  0
  1 33  1  0
  1 34  1  0
  1 35  1  0
  3 36  1  0
  5 37  1  0
  5 38  1  0
  5 39  1  0
 12 40  1  0
 14 41  1  0
 16 42  1  0
 16 43  1  0
 17 44  1  6
 18 45  1  0
 18 46  1  0
 19 47  1  1
 20 48  1  0
 20 49  1  0
 21 50  1  0
 21 51  1  0
 22 52  1  0
 22 53  1  0
 24 54  1  0
 24 55  1  0
 24 56  1  0
 27 57  1  0
 28 58  1  0
 29 59  1  0
 30 60  1  0
 31 61  1  0
M  END
>  <meeko>  (97) 
{"is_sidechain": false}

$$$$

     RDKit          3D

 80 85  0  0  0  0  0  0  0  0999 V2000
    6.2020   -0.5070  -53.4560 C   0  0  0  0  0  0  0  0  0  0  0  0
    7.5780   -0.6890  -54.0070 C   0  0  0  0  0  0  0  0  0  0  0  0
    8.1740    0.0990  -55.0540 C   0  0  0  0  0  0  0  0  0  0  0  0
    7.6700    1.2540  -55.7980 C   0  0  0  0  0  0  0  0  0  0  0  0
    6.5000    1.3420  -56.1600 O   0  0  0  0  0  0  0  0  0  0  0  0
    8.6270    2.1940  -56.1090 N   0  0  0  0  0  0  0  0  0  0  0  0
    8.3430    3.3590  -56.9210 C   0  0  0  0  0  0  0  0  0  0  0  0
    9.4400    3.6850  -57.9590 C   0  0  2  0  0  0  0  0  0  0  0  0
   10.7670    4.1000  -57.2710 C   0  0  0  0  0  0  0  0  0  0  0  0
   11.8290    4.4770  -58.3200 C   0  0  1  0  0  0  0  0  0  0  0  0
   12.0880    3.2670  -59.2340 C   0  0  0  0  0  0  0  0  0  0  0  0
   10.7890    2.8600  -59.9490 C   0  0  2  0  0  0  0  0  0  0  0  0
   10.2800    4.0420  -60.7890 C   0  0  0  0  0  0  0  0  0  0  0  0
   10.0140    5.2540  -59.8820 C   0  0  2  0  0  0  0  0  0  0  0  0
   11.3150    5.6510  -59.1680 C   0  0  0  0  0  0  0  0  0  0  0  0
    8.9560    4.8760  -58.8320 C   0  0  0  0  0  0  0  0  0  0  0  0
    9.7290    2.4860  -58.8980 C   0  0  0  0  0  0  0  0  0  0  0  0
    9.4120   -0.4600  -55.2990 C   0  0  0  0  0  0  0  0  0  0  0  0
    9.6170   -1.5030  -54.4380 N   0  0  0  0  0  0  0  0  0  0  0  0
   10.8560   -2.2710  -54.4160 C   0  0  0  0  0  0  0  0  0  0  0  0
   10.9710   -3.2910  -55.5620 C   0  0  2  0  0  0  0  0  0  0  0  0
   11.7670   -4.5210  -55.1100 C   0  0  0  0  0  0  0  0  0  0  0  0
   11.7970   -5.6130  -56.1820 C   0  0  0  0  0  0  0  0  0  0  0  0
   11.6180   -5.0830  -57.6060 C   0  0  2  0  0  0  0  0  0  0  0  0
   12.2220   -5.9990  -58.5120 O   0  0  0  0  0  0  0  0  0  0  0  0
   12.2380   -3.7010  -57.7640 C   0  0  0  0  0  0  0  0  0  0  0  0
   11.6030   -2.6730  -56.8250 C   0  0  0  0  0  0  0  0  0  0  0  0
    8.5090   -1.6620  -53.6250 C   0  0  0  0  0  0  0  0  0  0  0  0
    8.4200   -2.7370  -52.5580 C   0  0  0  0  0  0  0  0  0  0  0  0
    7.3970   -3.8310  -52.9260 C   0  0  0  0  0  0  0  0  0  0  0  0
    6.7050   -4.4470  -51.7080 C   0  0  0  0  0  0  0  0  0  0  0  0
    7.6570   -4.5710  -50.5270 C   0  0  0  0  0  0  0  0  0  0  0  0
    8.1990   -3.2140  -50.0750 C   0  0  0  0  0  0  0  0  0  0  0  0
    8.1600   -2.1420  -51.1670 C   0  0  0  0  0  0  0  0  0  0  0  0
    6.2435   -0.5125  -52.3568 H   0  0  0  0  0  0  0  0  0  0  0  0
    5.7922    0.4532  -53.8027 H   0  0  0  0  0  0  0  0  0  0  0  0
    5.5567   -1.3276  -53.8027 H   0  0  0  0  0  0  0  0  0  0  0  0
    9.5900    1.9570  -55.9250 H   0  0  0  0  0  0  0  0  0  0  0  0
    7.3994    3.1841  -57.4586 H   0  0  0  0  0  0  0  0  0  0  0  0
    8.2879    4.2181  -56.2362 H   0  0  0  0  0  0  0  0  0  0  0  0
   10.5802    4.9659  -56.6189 H   0  0  0  0  0  0  0  0  0  0  0  0
   11.1397    3.2505  -56.6799 H   0  0  0  0  0  0  0  0  0  0  0  0
   12.7612    4.7683  -57.8140 H   0  0  0  0  0  0  0  0  0  0  0  0
   12.8483    3.5327  -59.9833 H   0  0  0  0  0  0  0  0  0  0  0  0
   12.4438    2.4236  -58.6241 H   0  0  0  0  0  0  0  0  0  0  0  0
   10.9801    1.9977  -60.6048 H   0  0  0  0  0  0  0  0  0  0  0  0
   11.0380    4.3084  -61.5403 H   0  0  0  0  0  0  0  0  0  0  0  0
    9.3443    3.7531  -61.2901 H   0  0  0  0  0  0  0  0  0  0  0  0
    9.6530    6.0979  -60.4883 H   0  0  0  0  0  0  0  0  0  0  0  0
   12.0745    5.9190  -59.9173 H   0  0  0  0  0  0  0  0  0  0  0  0
   11.1183    6.5115  -58.5115 H   0  0  0  0  0  0  0  0  0  0  0  0
    8.7665    5.7440  -58.1834 H   0  0  0  0  0  0  0  0  0  0  0  0
    8.0349    4.5770  -59.3538 H   0  0  0  0  0  0  0  0  0  0  0  0
    8.7995    2.1964  -59.4101 H   0  0  0  0  0  0  0  0  0  0  0  0
   10.1098    1.6487  -58.2947 H   0  0  0  0  0  0  0  0  0  0  0  0
   10.1227   -0.1199  -56.0666 H   0  0  0  0  0  0  0  0  0  0  0  0
   11.7006   -1.5700  -54.4888 H   0  0  0  0  0  0  0  0  0  0  0  0
   10.8643   -2.8414  -53.4755 H   0  0  0  0  0  0  0  0  0  0  0  0
    9.9498   -3.6037  -55.8254 H   0  0  0  0  0  0  0  0  0  0  0  0
   12.7995   -4.2134  -54.8880 H   0  0  0  0  0  0  0  0  0  0  0  0
   11.2735   -4.9350  -54.2183 H   0  0  0  0  0  0  0  0  0  0  0  0
   12.7659   -6.1304  -56.1234 H   0  0  0  0  0  0  0  0  0  0  0  0
   10.9493   -6.2844  -55.9803 H   0  0  0  0  0  0  0  0  0  0  0  0
   10.5434   -4.9893  -57.8216 H   0  0  0  0  0  0  0  0  0  0  0  0
   12.9380   -6.4530  -58.0360 H   0  0  0  0  0  0  0  0  0  0  0  0
   13.3133   -3.7674  -57.5418 H   0  0  0  0  0  0  0  0  0  0  0  0
   12.0632   -3.3681  -58.7977 H   0  0  0  0  0  0  0  0  0  0  0  0
   12.3818   -1.9625  -56.5110 H   0  0  0  0  0  0  0  0  0  0  0  0
   10.7905   -2.1867  -57.3847 H   0  0  0  0  0  0  0  0  0  0  0  0
    9.4031   -3.2283  -52.5126 H   0  0  0  0  0  0  0  0  0  0  0  0
    6.6291   -3.3864  -53.5761 H   0  0  0  0  0  0  0  0  0  0  0  0
    7.9498   -4.6379  -53.4294 H   0  0  0  0  0  0  0  0  0  0  0  0
    5.8574   -3.8086  -51.4180 H   0  0  0  0  0  0  0  0  0  0  0  0
    6.3613   -5.4557  -51.9807 H   0  0  0  0  0  0  0  0  0  0  0  0
    7.1201   -5.0354  -49.6868 H   0  0  0  0  0  0  0  0  0  0  0  0
    8.5114   -5.1860  -50.8459 H   0  0  0  0  0  0  0  0  0  0  0  0
    7.5959   -2.8650  -49.2239 H   0  0  0  0  0  0  0  0  0  0  0  0
    9.2556   -3.3624  -49.8073 H   0  0  0  0  0  0  0  0  0  0  0  0
    7.1687   -1.6653  -51.1630 H   0  0  0  0  0  0  0  0  0  0  0  0
    8.9517   -1.4083  -50.9550 H   0  0  0  0  0  0  0  0  0  0  0  0
  1  2  1  0
  2  3  1  0
  3  4  1  0
  4  5  2  0
  4  6  1  0
  6  7  1  0
  8  7  1  1
  8  9  1  0
  9 10  1  0
 10 11  1  0
 11 12  1  0
 12 13  1  0
 13 14  1  0
 14 15  1  0
 14 16  1  0
 12 17  1  0
  3 18  2  0
 18 19  1  0
 19 20  1  0
 20 21  1  0
 21 22  1  0
 22 23  1  0
 23 24  1  0
 24 25  1  0
 24 26  1  0
 26 27  1  0
 19 28  1  0
 28 29  1  0
 29 30  1  0
 30 31  1  0
 31 32  1  0
 32 33  1  0
 33 34  1  0
 28  2  2  0
 34 29  1  0
 16  8  1  0
 27 21  1  0
 17  8  1  0
 15 10  1  0
  1 35  1  0
  1 36  1  0
  1 37  1  0
  6 38  1  0
  7 39  1  0
  7 40  1  0
  9 41  1  0
  9 42  1  0
 10 43  1  1
 11 44  1  0
 11 45  1  0
 12 46  1  6
 13 47  1  0
 13 48  1  0
 14 49  1  6
 15 50  1  0
 15 51  1  0
 16 52  1  0
 16 53  1  0
 17 54  1  0
 17 55  1  0
 18 56  1  0
 20 57  1  0
 20 58  1  0
 21 59  1  1
 22 60  1  0
 22 61  1  0
 23 62  1  0
 23 63  1  0
 24 64  1  1
 25 65  1  0
 26 66  1  0
 26 67  1  0
 27 68  1  0
 27 69  1  0
 29 70  1  0
 30 71  1  0
 30 72  1  0
 31 73  1  0
 31 74  1  0
 32 75  1  0
 32 76  1  0
 33 77  1  0
 33 78  1  0
 34 79  1  0
 34 80  1  0
M  END
>  <meeko>  (98) 
{"is_sidechain": false}

$$$$

     RDKit          3D

 66 69  0  0  0  0  0  0  0  0999 V2000
   12.1030   -6.7730  -58.1470 C   0  0  0  0  0  0  0  0  0  0  0  0
   12.9230   -5.6250  -58.3260 O   0  0  0  0  0  0  0  0  0  0  0  0
   13.1140   -4.8730  -57.1230 C   0  0  2  0  0  0  0  0  0  0  0  0
   12.1740   -5.4740  -56.0690 C   0  0  0  0  0  0  0  0  0  0  0  0
   11.7810   -4.4460  -55.0180 C   0  0  0  0  0  0  0  0  0  0  0  0
   10.9670   -3.2920  -55.6370 C   0  0  1  0  0  0  0  0  0  0  0  0
   11.0750   -2.0510  -54.7310 C   0  0  0  0  0  0  0  0  0  0  0  0
   10.0290   -1.0590  -54.9440 N   0  0  0  0  0  0  0  0  0  0  0  0
   10.1750    0.0450  -55.7490 C   0  0  0  0  0  0  0  0  0  0  0  0
    8.9980    0.7770  -55.7300 C   0  0  0  0  0  0  0  0  0  0  0  0
    8.7100    2.0120  -56.4710 C   0  0  0  0  0  0  0  0  0  0  0  0
    7.6470    2.1960  -57.0550 O   0  0  0  0  0  0  0  0  0  0  0  0
    9.7150    2.9550  -56.4470 N   0  0  0  0  0  0  0  0  0  0  0  0
    9.5300    4.2720  -57.0040 C   0  0  0  0  0  0  0  0  0  0  0  0
   10.7300    4.6820  -57.8210 C   0  0  0  0  0  0  0  0  0  0  0  0
   12.0180    4.2730  -57.4360 C   0  0  0  0  0  0  0  0  0  0  0  0
   13.1310    4.6290  -58.1990 C   0  0  0  0  0  0  0  0  0  0  0  0
   12.9570    5.3890  -59.3490 C   0  0  0  0  0  0  0  0  0  0  0  0
   14.0240    5.7300  -60.0820 F   0  0  0  0  0  0  0  0  0  0  0  0
   11.6910    5.7980  -59.7510 C   0  0  0  0  0  0  0  0  0  0  0  0
   10.5760    5.4430  -58.9900 C   0  0  0  0  0  0  0  0  0  0  0  0
    8.1090    0.0730  -54.8430 C   0  0  0  0  0  0  0  0  0  0  0  0
    6.7170    0.4910  -54.5010 C   0  0  0  0  0  0  0  0  0  0  0  0
    8.7810   -1.0460  -54.3580 C   0  0  0  0  0  0  0  0  0  0  0  0
    8.3100   -2.0670  -53.4230 C   0  0  0  0  0  0  0  0  0  0  0  0
    7.8320   -3.2900  -53.9010 C   0  0  0  0  0  0  0  0  0  0  0  0
    7.3800   -4.2630  -53.0100 C   0  0  0  0  0  0  0  0  0  0  0  0
    7.3980   -4.0160  -51.6360 C   0  0  0  0  0  0  0  0  0  0  0  0
    7.8760   -2.7960  -51.1410 C   0  0  0  0  0  0  0  0  0  0  0  0
    7.8520   -2.5120  -49.6690 C   0  0  0  0  0  0  0  0  0  0  0  0
    8.3150   -1.8190  -52.0440 C   0  0  0  0  0  0  0  0  0  0  0  0
   11.3850   -3.0130  -57.0970 C   0  0  0  0  0  0  0  0  0  0  0  0
   12.8440   -3.3780  -57.3660 C   0  0  0  0  0  0  0  0  0  0  0  0
   11.9675   -6.9628  -57.0720 H   0  0  0  0  0  0  0  0  0  0  0  0
   11.1228   -6.6001  -58.6153 H   0  0  0  0  0  0  0  0  0  0  0  0
   12.5845   -7.6441  -58.6153 H   0  0  0  0  0  0  0  0  0  0  0  0
   14.1544   -4.9349  -56.7712 H   0  0  0  0  0  0  0  0  0  0  0  0
   11.2646   -5.8395  -56.5685 H   0  0  0  0  0  0  0  0  0  0  0  0
   12.7028   -6.2965  -55.5651 H   0  0  0  0  0  0  0  0  0  0  0  0
   11.1728   -4.9388  -54.2452 H   0  0  0  0  0  0  0  0  0  0  0  0
   12.7002   -4.0269  -54.5827 H   0  0  0  0  0  0  0  0  0  0  0  0
    9.9073   -3.5822  -55.6908 H   0  0  0  0  0  0  0  0  0  0  0  0
   11.0257   -2.3839  -53.6837 H   0  0  0  0  0  0  0  0  0  0  0  0
   12.0281   -1.5616  -54.9802 H   0  0  0  0  0  0  0  0  0  0  0  0
   11.0801    0.3059  -56.3170 H   0  0  0  0  0  0  0  0  0  0  0  0
   10.4740    2.8240  -55.7970 H   0  0  0  0  0  0  0  0  0  0  0  0
    8.6388    4.2688  -57.6488 H   0  0  0  0  0  0  0  0  0  0  0  0
    9.4036    4.9888  -56.1793 H   0  0  0  0  0  0  0  0  0  0  0  0
   12.1500    3.6680  -56.5269 H   0  0  0  0  0  0  0  0  0  0  0  0
   14.1382    4.3104  -57.8923 H   0  0  0  0  0  0  0  0  0  0  0  0
   11.5683    6.3985  -60.6644 H   0  0  0  0  0  0  0  0  0  0  0  0
    9.5722    5.7611  -59.3080 H   0  0  0  0  0  0  0  0  0  0  0  0
    6.6027    0.5253  -53.4075 H   0  0  0  0  0  0  0  0  0  0  0  0
    6.5197    1.4880  -54.9218 H   0  0  0  0  0  0  0  0  0  0  0  0
    6.0031   -0.2324  -54.9218 H   0  0  0  0  0  0  0  0  0  0  0  0
    7.8122   -3.4858  -54.9832 H   0  0  0  0  0  0  0  0  0  0  0  0
    7.0089   -5.2262  -53.3902 H   0  0  0  0  0  0  0  0  0  0  0  0
    7.0345   -4.7843  -50.9378 H   0  0  0  0  0  0  0  0  0  0  0  0
    7.9319   -3.4571  -49.1119 H   0  0  0  0  0  0  0  0  0  0  0  0
    8.6982   -1.8596  -49.4076 H   0  0  0  0  0  0  0  0  0  0  0  0
    6.9083   -2.0109  -49.4076 H   0  0  0  0  0  0  0  0  0  0  0  0
    8.6671   -0.8476  -51.6667 H   0  0  0  0  0  0  0  0  0  0  0  0
   10.7438   -3.6045  -57.7670 H   0  0  0  0  0  0  0  0  0  0  0  0
   11.2708   -1.9340  -57.2778 H   0  0  0  0  0  0  0  0  0  0  0  0
   13.0836   -3.1386  -58.4125 H   0  0  0  0  0  0  0  0  0  0  0  0
   13.4739   -2.8002  -56.6736 H   0  0  0  0  0  0  0  0  0  0  0  0
  1  2  1  0
  2  3  1  0
  3  4  1  0
  4  5  1  0
  5  6  1  0
  6  7  1  0
  7  8  1  0
  8  9  1  0
  9 10  2  0
 10 11  1  0
 11 12  2  0
 11 13  1  0
 13 14  1  0
 14 15  1  0
 15 16  1  0
 16 17  2  0
 17 18  1  0
 18 19  1  0
 18 20  2  0
 20 21  1  0
 10 22  1  0
 22 23  1  0
 22 24  2  0
 24 25  1  0
 25 26  1  0
 26 27  2  0
 27 28  1  0
 28 29  2  0
 29 30  1  0
 29 31  1  0
  6 32  1  0
 32 33  1  0
 33  3  1  0
 24  8  1  0
 31 25  2  0
 21 15  2  0
  1 34  1  0
  1 35  1  0
  1 36  1  0
  3 37  1  6
  4 38  1  0
  4 39  1  0
  5 40  1  0
  5 41  1  0
  6 42  1  1
  7 43  1  0
  7 44  1  0
  9 45  1  0
 13 46  1  0
 14 47  1  0
 14 48  1  0
 16 49  1  0
 17 50  1  0
 20 51  1  0
 21 52  1  0
 23 53  1  0
 23 54  1  0
 23 55  1  0
 26 56  1  0
 27 57  1  0
 28 58  1  0
 30 59  1  0
 30 60  1  0
 30 61  1  0
 31 62  1  0
 32 63  1  0
 32 64  1  0
 33 65  1  0
 33 66  1  0
M  END
>  <meeko>  (99) 
{"is_sidechain": false}

$$$$

     RDKit          3D

 64 69  0  0  0  0  0  0  0  0999 V2000
    7.7190    1.8900  -56.1710 O   0  0  0  0  0  0  0  0  0  0  0  0
    8.8170    1.3490  -56.2350 C   0  0  0  0  0  0  0  0  0  0  0  0
    9.8320    1.7640  -57.0700 N   0  0  0  0  0  0  0  0  0  0  0  0
    9.7630    2.9290  -57.9560 C   0  0  2  0  0  0  0  0  0  0  0  0
   11.1250    3.0570  -58.6920 C   0  0  0  0  0  0  0  0  0  0  0  0
   11.1290    4.2690  -59.6380 C   0  0  1  0  0  0  0  0  0  0  0  0
   10.0130    4.0980  -60.6790 C   0  0  0  0  0  0  0  0  0  0  0  0
    8.6510    3.9920  -59.9760 C   0  0  2  0  0  0  0  0  0  0  0  0
    8.4030    5.2690  -59.1540 C   0  0  0  0  0  0  0  0  0  0  0  0
    9.5150    5.4500  -58.1070 C   0  0  2  0  0  0  0  0  0  0  0  0
   10.8730    5.5460  -58.8220 C   0  0  0  0  0  0  0  0  0  0  0  0
    9.5230    4.2360  -57.1610 C   0  0  0  0  0  0  0  0  0  0  0  0
    8.6590    2.7770  -59.0320 C   0  0  0  0  0  0  0  0  0  0  0  0
    9.1790    0.2330  -55.3630 C   0  0  0  0  0  0  0  0  0  0  0  0
   10.3070   -0.5440  -55.5600 C   0  0  0  0  0  0  0  0  0  0  0  0
   10.3540   -1.5110  -54.5930 N   0  0  0  0  0  0  0  0  0  0  0  0
   11.3920   -2.5260  -54.5020 C   0  0  0  0  0  0  0  0  0  0  0  0
   11.3560   -3.5570  -55.6440 C   0  0  2  0  0  0  0  0  0  0  0  0
   12.1610   -4.8230  -55.3220 C   0  0  0  0  0  0  0  0  0  0  0  0
   12.0630   -5.8740  -56.4330 C   0  0  0  0  0  0  0  0  0  0  0  0
   11.7310   -5.2880  -57.8060 C   0  0  2  0  0  0  0  0  0  0  0  0
   12.2040   -6.1790  -58.8090 O   0  0  0  0  0  0  0  0  0  0  0  0
   12.3620   -3.9140  -57.9890 C   0  0  0  0  0  0  0  0  0  0  0  0
   11.8730   -2.9090  -56.9450 C   0  0  0  0  0  0  0  0  0  0  0  0
    9.2700   -1.3890  -53.7490 C   0  0  0  0  0  0  0  0  0  0  0  0
    8.8870   -2.1470  -52.6290 C   0  0  0  0  0  0  0  0  0  0  0  0
    7.7440   -1.7610  -51.9260 C   0  0  0  0  0  0  0  0  0  0  0  0
    7.0090   -0.6480  -52.3180 C   0  0  0  0  0  0  0  0  0  0  0  0
    7.3930    0.0980  -53.4380 C   0  0  0  0  0  0  0  0  0  0  0  0
    8.5320   -0.2820  -54.1880 C   0  0  0  0  0  0  0  0  0  0  0  0
   10.7520    1.4230  -56.8290 H   0  0  0  0  0  0  0  0  0  0  0  0
   11.9258    3.1790  -57.9478 H   0  0  0  0  0  0  0  0  0  0  0  0
   11.2878    2.1470  -59.2881 H   0  0  0  0  0  0  0  0  0  0  0  0
   12.1016    4.3437  -60.1465 H   0  0  0  0  0  0  0  0  0  0  0  0
   10.0081    4.9666  -61.3539 H   0  0  0  0  0  0  0  0  0  0  0  0
   10.1945    3.1789  -61.2555 H   0  0  0  0  0  0  0  0  0  0  0  0
    7.8561    3.8732  -60.7270 H   0  0  0  0  0  0  0  0  0  0  0  0
    8.3929    6.1386  -59.8275 H   0  0  0  0  0  0  0  0  0  0  0  0
    7.4350    5.1823  -58.6387 H   0  0  0  0  0  0  0  0  0  0  0  0
    9.3351    6.3685  -57.5291 H   0  0  0  0  0  0  0  0  0  0  0  0
   10.8688    6.4147  -59.4968 H   0  0  0  0  0  0  0  0  0  0  0  0
   11.6689    5.6604  -58.0714 H   0  0  0  0  0  0  0  0  0  0  0  0
   10.3255    4.3607  -56.4191 H   0  0  0  0  0  0  0  0  0  0  0  0
    8.5471    4.1715  -56.6576 H   0  0  0  0  0  0  0  0  0  0  0  0
    7.6800    2.6978  -58.5367 H   0  0  0  0  0  0  0  0  0  0  0  0
    8.8617    1.8711  -59.6221 H   0  0  0  0  0  0  0  0  0  0  0  0
   11.0458   -0.4066  -56.3633 H   0  0  0  0  0  0  0  0  0  0  0  0
   12.3704   -2.0236  -54.5193 H   0  0  0  0  0  0  0  0  0  0  0  0
   11.2181   -3.0784  -53.5668 H   0  0  0  0  0  0  0  0  0  0  0  0
   10.3096   -3.8709  -55.7726 H   0  0  0  0  0  0  0  0  0  0  0  0
   13.2173   -4.5461  -55.1894 H   0  0  0  0  0  0  0  0  0  0  0  0
   11.7424   -5.2633  -54.4050 H   0  0  0  0  0  0  0  0  0  0  0  0
   13.0284   -6.3967  -56.5027 H   0  0  0  0  0  0  0  0  0  0  0  0
   11.2381   -6.5501  -56.1640 H   0  0  0  0  0  0  0  0  0  0  0  0
   10.6408   -5.1666  -57.8881 H   0  0  0  0  0  0  0  0  0  0  0  0
   11.7620   -5.9460  -59.6440 H   0  0  0  0  0  0  0  0  0  0  0  0
   13.4542   -4.0116  -57.9022 H   0  0  0  0  0  0  0  0  0  0  0  0
   12.0707   -3.5385  -58.9810 H   0  0  0  0  0  0  0  0  0  0  0  0
   12.7088   -2.2407  -56.6902 H   0  0  0  0  0  0  0  0  0  0  0  0
   11.0233   -2.3729  -57.3929 H   0  0  0  0  0  0  0  0  0  0  0  0
    9.4733   -3.0228  -52.3140 H   0  0  0  0  0  0  0  0  0  0  0  0
    7.4212   -2.3447  -51.0513 H   0  0  0  0  0  0  0  0  0  0  0  0
    6.1190   -0.3515  -51.7436 H   0  0  0  0  0  0  0  0  0  0  0  0
    6.8089    0.9811  -53.7361 H   0  0  0  0  0  0  0  0  0  0  0  0
  1  2  2  0
  2  3  1  0
  4  3  1  1
  4  5  1  0
  5  6  1  0
  6  7  1  0
  7  8  1  0
  8  9  1  0
  9 10  1  0
 10 11  1  0
 10 12  1  0
  8 13  1  0
  2 14  1  0
 14 15  2  0
 15 16  1  0
 16 17  1  0
 17 18  1  0
 18 19  1  0
 19 20  1  0
 20 21  1  0
 21 22  1  0
 21 23  1  0
 23 24  1  0
 16 25  1  0
 25 26  2  0
 26 27  1  0
 27 28  2  0
 28 29  1  0
 29 30  2  0
 12  4  1  0
 30 14  1  0
 13  4  1  0
 24 18  1  0
 30 25  1  0
 11  6  1  0
  3 31  1  0
  5 32  1  0
  5 33  1  0
  6 34  1  6
  7 35  1  0
  7 36  1  0
  8 37  1  6
  9 38  1  0
  9 39  1  0
 10 40  1  1
 11 41  1  0
 11 42  1  0
 12 43  1  0
 12 44  1  0
 13 45  1  0
 13 46  1  0
 15 47  1  0
 17 48  1  0
 17 49  1  0
 18 50  1  1
 19 51  1  0
 19 52  1  0
 20 53  1  0
 20 54  1  0
 21 55  1  6
 22 56  1  0
 23 57  1  0
 23 58  1  0
 24 59  1  0
 24 60  1  0
 26 61  1  0
 27 62  1  0
 28 63  1  0
 29 64  1  0
M  END
>  <meeko>  (100) 
{"is_sidechain": false}

$$$$

     RDKit          3D

 74 79  0  0  0  0  0  0  0  0999 V2000
    5.5550   -4.3280  -50.5420 C   0  0  0  0  0  0  0  0  0  0  0  0
    6.8810   -3.7160  -50.8900 C   0  0  0  0  0  0  0  0  0  0  0  0
    8.0320   -4.0480  -50.1660 C   0  0  0  0  0  0  0  0  0  0  0  0
    9.2680   -3.5000  -50.5130 C   0  0  0  0  0  0  0  0  0  0  0  0
    9.3660   -2.6300  -51.5980 C   0  0  0  0  0  0  0  0  0  0  0  0
    8.2290   -2.3080  -52.3480 C   0  0  0  0  0  0  0  0  0  0  0  0
    8.3400   -1.4100  -53.4970 C   0  0  0  0  0  0  0  0  0  0  0  0
    7.4820   -0.3820  -53.8880 C   0  0  0  0  0  0  0  0  0  0  0  0
    6.2020   -0.0190  -53.2090 C   0  0  0  0  0  0  0  0  0  0  0  0
    8.0530    0.2400  -55.0540 C   0  0  0  0  0  0  0  0  0  0  0  0
    7.6100    1.3790  -55.8600 C   0  0  0  0  0  0  0  0  0  0  0  0
    6.4930    1.4230  -56.3690 O   0  0  0  0  0  0  0  0  0  0  0  0
    8.5610    2.3560  -56.0480 N   0  0  0  0  0  0  0  0  0  0  0  0
    8.3330    3.5170  -56.8840 C   0  0  0  0  0  0  0  0  0  0  0  0
    9.4650    3.7940  -57.8990 C   0  0  2  0  0  0  0  0  0  0  0  0
   10.7930    4.1500  -57.1820 C   0  0  0  0  0  0  0  0  0  0  0  0
   11.8950    4.4770  -58.2060 C   0  0  1  0  0  0  0  0  0  0  0  0
   12.1200    3.2570  -59.1140 C   0  0  0  0  0  0  0  0  0  0  0  0
   10.8210    2.9070  -59.8580 C   0  0  2  0  0  0  0  0  0  0  0  0
   10.3830    4.1100  -60.7080 C   0  0  0  0  0  0  0  0  0  0  0  0
   10.1510    5.3330  -59.8070 C   0  0  2  0  0  0  0  0  0  0  0  0
   11.4520    5.6720  -59.0640 C   0  0  0  0  0  0  0  0  0  0  0  0
    9.0540    5.0030  -58.7820 C   0  0  0  0  0  0  0  0  0  0  0  0
    9.7210    2.5820  -58.8310 C   0  0  0  0  0  0  0  0  0  0  0  0
    9.1960   -0.4810  -55.3520 C   0  0  0  0  0  0  0  0  0  0  0  0
    9.3580   -1.4720  -54.4240 N   0  0  0  0  0  0  0  0  0  0  0  0
   10.4620   -2.4250  -54.4570 C   0  0  0  0  0  0  0  0  0  0  0  0
   10.5980   -3.1470  -55.8100 C   0  0  1  0  0  0  0  0  0  0  0  0
   11.7200   -2.5120  -56.6360 C   0  0  0  0  0  0  0  0  0  0  0  0
   11.9090   -3.2960  -57.9290 C   0  0  0  0  0  0  0  0  0  0  0  0
   12.2730   -4.7410  -57.6230 C   0  0  0  0  0  0  0  0  0  0  0  0
   11.3470   -5.3860  -56.6170 C   0  0  0  0  0  0  0  0  0  0  0  0
   11.1460   -6.5980  -56.5900 O   0  0  0  0  0  0  0  0  0  0  0  0
   10.8200   -4.5790  -55.6480 N   0  0  0  0  0  0  0  0  0  0  0  0
    6.9900   -2.8470  -51.9840 C   0  0  0  0  0  0  0  0  0  0  0  0
    5.4494   -4.3767  -49.4482 H   0  0  0  0  0  0  0  0  0  0  0  0
    4.7456   -3.7124  -50.9614 H   0  0  0  0  0  0  0  0  0  0  0  0
    5.4984   -5.3433  -50.9614 H   0  0  0  0  0  0  0  0  0  0  0  0
    7.9621   -4.7453  -49.3181 H   0  0  0  0  0  0  0  0  0  0  0  0
   10.1653   -3.7548  -49.9300 H   0  0  0  0  0  0  0  0  0  0  0  0
   10.3403   -2.1951  -51.8656 H   0  0  0  0  0  0  0  0  0  0  0  0
    6.3413   -0.0585  -52.1186 H   0  0  0  0  0  0  0  0  0  0  0  0
    5.9061    0.9985  -53.5042 H   0  0  0  0  0  0  0  0  0  0  0  0
    5.4160   -0.7297  -53.5042 H   0  0  0  0  0  0  0  0  0  0  0  0
    9.5010    2.1670  -55.7380 H   0  0  0  0  0  0  0  0  0  0  0  0
    7.3980    3.3626  -57.4425 H   0  0  0  0  0  0  0  0  0  0  0  0
    8.2875    4.3876  -56.2132 H   0  0  0  0  0  0  0  0  0  0  0  0
   10.6306    5.0246  -56.5350 H   0  0  0  0  0  0  0  0  0  0  0  0
   11.1134    3.2852  -56.5824 H   0  0  0  0  0  0  0  0  0  0  0  0
   12.8284    4.7253  -57.6795 H   0  0  0  0  0  0  0  0  0  0  0  0
   12.9078    3.4884  -59.8460 H   0  0  0  0  0  0  0  0  0  0  0  0
   12.4241    2.3991  -58.4964 H   0  0  0  0  0  0  0  0  0  0  0  0
   10.9893    2.0365  -60.5091 H   0  0  0  0  0  0  0  0  0  0  0  0
   11.1682    4.3423  -61.4425 H   0  0  0  0  0  0  0  0  0  0  0  0
    9.4464    3.8623  -61.2291 H   0  0  0  0  0  0  0  0  0  0  0  0
    9.8418    6.1920  -60.4206 H   0  0  0  0  0  0  0  0  0  0  0  0
   12.2389    5.9062  -59.7960 H   0  0  0  0  0  0  0  0  0  0  0  0
   11.2787    6.5402  -58.4111 H   0  0  0  0  0  0  0  0  0  0  0  0
    8.8878    5.8791  -58.1380 H   0  0  0  0  0  0  0  0  0  0  0  0
    8.1329    4.7442  -59.3247 H   0  0  0  0  0  0  0  0  0  0  0  0
    8.7914    2.3339  -59.3641 H   0  0  0  0  0  0  0  0  0  0  0  0
   10.0498    1.7290  -58.2191 H   0  0  0  0  0  0  0  0  0  0  0  0
    9.8679   -0.2875  -56.2011 H   0  0  0  0  0  0  0  0  0  0  0  0
   11.3977   -1.8836  -54.2538 H   0  0  0  0  0  0  0  0  0  0  0  0
   10.2555   -3.1919  -53.6959 H   0  0  0  0  0  0  0  0  0  0  0  0
    9.6459   -3.0294  -56.3483 H   0  0  0  0  0  0  0  0  0  0  0  0
   11.4553   -1.4713  -56.8742 H   0  0  0  0  0  0  0  0  0  0  0  0
   12.6553   -2.5306  -56.0573 H   0  0  0  0  0  0  0  0  0  0  0  0
   10.9737   -3.2723  -58.5076 H   0  0  0  0  0  0  0  0  0  0  0  0
   12.7233   -2.8375  -58.5092 H   0  0  0  0  0  0  0  0  0  0  0  0
   12.2303   -5.3183  -58.5584 H   0  0  0  0  0  0  0  0  0  0  0  0
   13.2823   -4.7392  -57.1855 H   0  0  0  0  0  0  0  0  0  0  0  0
   10.1650   -5.0820  -55.0580 H   0  0  0  0  0  0  0  0  0  0  0  0
    6.0919   -2.5858  -52.5629 H   0  0  0  0  0  0  0  0  0  0  0  0
  1  2  1  0
  2  3  2  0
  3  4  1  0
  4  5  2  0
  5  6  1  0
  6  7  1  0
  7  8  2  0
  8  9  1  0
  8 10  1  0
 10 11  1  0
 11 12  2  0
 11 13  1  0
 13 14  1  0
 15 14  1  1
 15 16  1  0
 16 17  1  0
 17 18  1  0
 18 19  1  0
 19 20  1  0
 20 21  1  0
 21 22  1  0
 21 23  1  0
 19 24  1  0
 10 25  2  0
 25 26  1  0
 26 27  1  0
 27 28  1  0
 28 29  1  0
 29 30  1  0
 30 31  1  0
 31 32  1  0
 32 33  2  0
 32 34  1  0
  6 35  2  0
 35  2  1  0
 26  7  1  0
 34 28  1  0
 23 15  1  0
 24 15  1  0
 22 17  1  0
  1 36  1  0
  1 37  1  0
  1 38  1  0
  3 39  1  0
  4 40  1  0
  5 41  1  0
  9 42  1  0
  9 43  1  0
  9 44  1  0
 13 45  1  0
 14 46  1  0
 14 47  1  0
 16 48  1  0
 16 49  1  0
 17 50  1  1
 18 51  1  0
 18 52  1  0
 19 53  1  6
 20 54  1  0
 20 55  1  0
 21 56  1  6
 22 57  1  0
 22 58  1  0
 23 59  1  0
 23 60  1  0
 24 61  1  0
 24 62  1  0
 25 63  1  0
 27 64  1  0
 27 65  1  0
 28 66  1  6
 29 67  1  0
 29 68  1  0
 30 69  1  0
 30 70  1  0
 31 71  1  0
 31 72  1  0
 34 73  1  0
 35 74  1  0
M  END
>  <meeko>  (101) 
{"is_sidechain": false}

$$$$

     RDKit          3D

 69 74  0  0  0  0  0  0  0  0999 V2000
    5.8510    2.1560  -61.4960 C   0  0  0  0  0  0  0  0  0  0  0  0
    5.5630    2.2400  -60.0270 C   0  0  0  0  0  0  0  0  0  0  0  0
    4.3280    2.7150  -59.5710 C   0  0  0  0  0  0  0  0  0  0  0  0
    4.0450    2.7570  -58.2050 C   0  0  0  0  0  0  0  0  0  0  0  0
    4.9950    2.3210  -57.2820 C   0  0  0  0  0  0  0  0  0  0  0  0
    6.2350    1.8430  -57.7210 C   0  0  0  0  0  0  0  0  0  0  0  0
    7.2280    1.3900  -56.7470 C   0  0  0  0  0  0  0  0  0  0  0  0
    7.0790    0.4330  -55.7460 C   0  0  0  0  0  0  0  0  0  0  0  0
    5.8640   -0.3940  -55.4760 C   0  0  0  0  0  0  0  0  0  0  0  0
    8.3060    0.3790  -55.0010 C   0  0  0  0  0  0  0  0  0  0  0  0
    8.5970   -0.4650  -53.8330 C   0  0  0  0  0  0  0  0  0  0  0  0
    9.6200   -0.3300  -53.1730 O   0  0  0  0  0  0  0  0  0  0  0  0
    7.6130   -1.3880  -53.5390 N   0  0  0  0  0  0  0  0  0  0  0  0
    7.6210   -2.2760  -52.3730 C   0  0  2  0  0  0  0  0  0  0  0  0
    6.4640   -3.2980  -52.5340 C   0  0  0  0  0  0  0  0  0  0  0  0
    6.4080   -4.2610  -51.3370 C   0  0  1  0  0  0  0  0  0  0  0  0
    7.7390   -5.0250  -51.2420 C   0  0  0  0  0  0  0  0  0  0  0  0
    8.8980   -4.0340  -51.0580 C   0  0  2  0  0  0  0  0  0  0  0  0
    8.6730   -3.2210  -49.7720 C   0  0  0  0  0  0  0  0  0  0  0  0
    7.3430   -2.4530  -49.8570 C   0  0  2  0  0  0  0  0  0  0  0  0
    6.1910   -3.4530  -50.0490 C   0  0  0  0  0  0  0  0  0  0  0  0
    7.3870   -1.4920  -51.0580 C   0  0  0  0  0  0  0  0  0  0  0  0
    8.9450   -3.0760  -52.2610 C   0  0  0  0  0  0  0  0  0  0  0  0
    9.1450    1.3160  -55.5790 C   0  0  0  0  0  0  0  0  0  0  0  0
    8.5080    1.9000  -56.6490 N   0  0  0  0  0  0  0  0  0  0  0  0
    9.0730    2.9640  -57.4730 C   0  0  2  0  0  0  0  0  0  0  0  0
   10.0880    2.4960  -58.5260 C   0  0  0  0  0  0  0  0  0  0  0  0
   10.8790    3.7640  -58.8090 C   0  0  1  0  0  0  0  0  0  0  0  0
   10.1030    4.6100  -59.6460 O   0  0  0  0  0  0  0  0  0  0  0  0
   11.0800    4.3830  -57.4290 C   0  0  0  0  0  0  0  0  0  0  0  0
    9.8150    4.0300  -56.6390 C   0  0  1  0  0  0  0  0  0  0  0  0
    9.0300    5.2090  -56.4660 O   0  0  0  0  0  0  0  0  0  0  0  0
    6.5060    1.7890  -59.0940 C   0  0  0  0  0  0  0  0  0  0  0  0
    6.8969    1.8509  -61.6477 H   0  0  0  0  0  0  0  0  0  0  0  0
    5.1822    1.4155  -61.9590 H   0  0  0  0  0  0  0  0  0  0  0  0
    5.6852    3.1399  -61.9590 H   0  0  0  0  0  0  0  0  0  0  0  0
    3.5743    3.0580  -60.2951 H   0  0  0  0  0  0  0  0  0  0  0  0
    3.0723    3.1341  -57.8564 H   0  0  0  0  0  0  0  0  0  0  0  0
    4.7692    2.3528  -56.2059 H   0  0  0  0  0  0  0  0  0  0  0  0
    5.7208   -0.4915  -54.3897 H   0  0  0  0  0  0  0  0  0  0  0  0
    4.9831    0.0928  -55.9198 H   0  0  0  0  0  0  0  0  0  0  0  0
    5.9938   -1.3921  -55.9198 H   0  0  0  0  0  0  0  0  0  0  0  0
    6.7310   -1.2570  -54.0120 H   0  0  0  0  0  0  0  0  0  0  0  0
    5.5105   -2.7538  -52.6026 H   0  0  0  0  0  0  0  0  0  0  0  0
    6.6398   -3.8849  -53.4476 H   0  0  0  0  0  0  0  0  0  0  0  0
    5.5808   -4.9739  -51.4694 H   0  0  0  0  0  0  0  0  0  0  0  0
    7.7055   -5.7108  -50.3826 H   0  0  0  0  0  0  0  0  0  0  0  0
    7.8952   -5.5974  -52.1683 H   0  0  0  0  0  0  0  0  0  0  0  0
    9.8469   -4.5858  -50.9865 H   0  0  0  0  0  0  0  0  0  0  0  0
    8.6441   -3.9041  -48.9103 H   0  0  0  0  0  0  0  0  0  0  0  0
    9.4966   -2.5017  -49.6525 H   0  0  0  0  0  0  0  0  0  0  0  0
    7.1861   -1.8808  -48.9307 H   0  0  0  0  0  0  0  0  0  0  0  0
    6.1567   -4.1390  -49.1898 H   0  0  0  0  0  0  0  0  0  0  0  0
    5.2421   -2.9017  -50.1234 H   0  0  0  0  0  0  0  0  0  0  0  0
    6.4312   -0.9516  -51.1242 H   0  0  0  0  0  0  0  0  0  0  0  0
    8.2153   -0.7824  -50.9152 H   0  0  0  0  0  0  0  0  0  0  0  0
    9.7819   -2.3739  -52.1317 H   0  0  0  0  0  0  0  0  0  0  0  0
    9.0820   -3.6659  -53.1793 H   0  0  0  0  0  0  0  0  0  0  0  0
   10.1623    1.5561  -55.2361 H   0  0  0  0  0  0  0  0  0  0  0  0
    8.1794    3.3703  -57.9694 H   0  0  0  0  0  0  0  0  0  0  0  0
   10.7377    1.7032  -58.1268 H   0  0  0  0  0  0  0  0  0  0  0  0
    9.6207    2.0620  -59.4223 H   0  0  0  0  0  0  0  0  0  0  0  0
   11.8364    3.5924  -59.3227 H   0  0  0  0  0  0  0  0  0  0  0  0
   10.6270    4.8150  -60.4400 H   0  0  0  0  0  0  0  0  0  0  0  0
   11.9697    3.9575  -56.9418 H   0  0  0  0  0  0  0  0  0  0  0  0
   11.2376    5.4701  -57.4863 H   0  0  0  0  0  0  0  0  0  0  0  0
   10.0356    3.6371  -55.6355 H   0  0  0  0  0  0  0  0  0  0  0  0
    8.0960    4.9370  -56.4090 H   0  0  0  0  0  0  0  0  0  0  0  0
    7.4690    1.3884  -59.4435 H   0  0  0  0  0  0  0  0  0  0  0  0
  1  2  1  0
  2  3  2  0
  3  4  1  0
  4  5  2  0
  5  6  1  0
  6  7  1  0
  7  8  2  0
  8  9  1  0
  8 10  1  0
 10 11  1  0
 11 12  2  0
 11 13  1  0
 14 13  1  6
 14 15  1  0
 15 16  1  0
 16 17  1  0
 17 18  1  0
 18 19  1  0
 19 20  1  0
 20 21  1  0
 20 22  1  0
 18 23  1  0
 10 24  2  0
 24 25  1  0
 25 26  1  0
 26 27  1  0
 27 28  1  0
 28 29  1  0
 28 30  1  0
 30 31  1  0
 31 32  1  0
  6 33  2  0
 33  2  1  0
 25  7  1  0
 31 26  1  0
 22 14  1  0
 23 14  1  0
 21 16  1  0
  1 34  1  0
  1 35  1  0
  1 36  1  0
  3 37  1  0
  4 38  1  0
  5 39  1  0
  9 40  1  0
  9 41  1  0
  9 42  1  0
 13 43  1  0
 15 44  1  0
 15 45  1  0
 16 46  1  6
 17 47  1  0
 17 48  1  0
 18 49  1  1
 19 50  1  0
 19 51  1  0
 20 52  1  1
 21 53  1  0
 21 54  1  0
 22 55  1  0
 22 56  1  0
 23 57  1  0
 23 58  1  0
 24 59  1  0
 26 60  1  6
 27 61  1  0
 27 62  1  0
 28 63  1  6
 29 64  1  0
 30 65  1  0
 30 66  1  0
 31 67  1  1
 32 68  1  0
 33 69  1  0
M  END
>  <meeko>  (102) 
{"is_sidechain": false}

$$$$

     RDKit          3D

 86 91  0  0  0  0  0  0  0  0999 V2000
   11.1650    0.0130  -56.1050 C   0  0  0  0  0  0  0  0  0  0  0  0
    9.8310   -0.3050  -55.5100 C   0  0  0  0  0  0  0  0  0  0  0  0
    8.6810    0.5540  -55.5350 C   0  0  0  0  0  0  0  0  0  0  0  0
    8.4880    1.8930  -56.1010 C   0  0  0  0  0  0  0  0  0  0  0  0
    7.4930    2.1810  -56.7530 O   0  0  0  0  0  0  0  0  0  0  0  0
    9.5290    2.7630  -55.8690 N   0  0  0  0  0  0  0  0  0  0  0  0
    9.5560    4.1010  -56.4310 C   0  0  0  0  0  0  0  0  0  0  0  0
   10.4320    4.2370  -57.6970 C   0  0  2  0  0  0  0  0  0  0  0  0
   11.9210    4.4730  -57.3320 C   0  0  0  0  0  0  0  0  0  0  0  0
   12.7690    4.6650  -58.6040 C   0  0  1  0  0  0  0  0  0  0  0  0
   12.6530    3.4090  -59.4830 C   0  0  0  0  0  0  0  0  0  0  0  0
   11.1860    3.1770  -59.8800 C   0  0  2  0  0  0  0  0  0  0  0  0
   10.6710    4.3990  -60.6560 C   0  0  0  0  0  0  0  0  0  0  0  0
   10.7780    5.6580  -59.7820 C   0  0  2  0  0  0  0  0  0  0  0  0
   12.2450    5.8800  -59.3850 C   0  0  0  0  0  0  0  0  0  0  0  0
    9.9350    5.4630  -58.5110 C   0  0  0  0  0  0  0  0  0  0  0  0
   10.3430    2.9870  -58.6070 C   0  0  0  0  0  0  0  0  0  0  0  0
    7.6850   -0.1180  -54.8570 C   0  0  0  0  0  0  0  0  0  0  0  0
    8.1430   -1.3470  -54.4660 N   0  0  0  0  0  0  0  0  0  0  0  0
    7.2560   -2.3440  -53.8730 C   0  0  0  0  0  0  0  0  0  0  0  0
    7.7380   -2.9180  -52.5290 C   0  0  2  0  0  0  0  0  0  0  0  0
    6.8910   -4.1010  -52.0480 C   0  0  0  0  0  0  0  0  0  0  0  0
    7.3860   -4.6980  -50.7230 C   0  0  0  0  0  0  0  0  0  0  0  0
    8.1870   -3.7240  -49.8570 C   0  0  1  0  0  0  0  0  0  0  0  0
    9.5540   -3.7880  -50.2520 O   0  0  0  0  0  0  0  0  0  0  0  0
    7.6820   -2.2970  -50.0200 C   0  0  0  0  0  0  0  0  0  0  0  0
    7.7630   -1.7990  -51.4670 C   0  0  0  0  0  0  0  0  0  0  0  0
    9.4790   -1.4590  -54.8010 C   0  0  0  0  0  0  0  0  0  0  0  0
   10.3430   -2.6160  -54.4370 C   0  0  0  0  0  0  0  0  0  0  0  0
   10.0910   -3.7260  -55.4000 N   0  0  0  0  0  0  0  0  0  0  0  0
   11.2160   -4.2500  -56.2290 C   0  0  0  0  0  0  0  0  0  0  0  0
   11.4860   -3.3350  -57.4290 C   0  0  0  0  0  0  0  0  0  0  0  0
   12.1840   -4.0650  -58.5820 C   0  0  0  0  0  0  0  0  0  0  0  0
   13.0470   -5.2200  -58.0910 C   0  0  0  0  0  0  0  0  0  0  0  0
   12.2280   -6.2730  -57.3400 C   0  0  0  0  0  0  0  0  0  0  0  0
   10.9930   -5.7030  -56.6340 C   0  0  0  0  0  0  0  0  0  0  0  0
   11.8937    0.1867  -55.2995 H   0  0  0  0  0  0  0  0  0  0  0  0
   11.4997   -0.8305  -56.7266 H   0  0  0  0  0  0  0  0  0  0  0  0
   11.0832    0.9168  -56.7266 H   0  0  0  0  0  0  0  0  0  0  0  0
   10.3900    2.3910  -55.4970 H   0  0  0  0  0  0  0  0  0  0  0  0
    8.5262    4.3870  -56.6913 H   0  0  0  0  0  0  0  0  0  0  0  0
    9.9993    4.7566  -55.6670 H   0  0  0  0  0  0  0  0  0  0  0  0
   12.0009    5.3734  -56.7053 H   0  0  0  0  0  0  0  0  0  0  0  0
   12.2953    3.5942  -56.7864 H   0  0  0  0  0  0  0  0  0  0  0  0
   13.8209    4.8291  -58.3271 H   0  0  0  0  0  0  0  0  0  0  0  0
   13.2591    3.5430  -60.3912 H   0  0  0  0  0  0  0  0  0  0  0  0
   13.0153    2.5382  -58.9170 H   0  0  0  0  0  0  0  0  0  0  0  0
   11.1085    2.2805  -60.5126 H   0  0  0  0  0  0  0  0  0  0  0  0
   11.2748    4.5342  -61.5655 H   0  0  0  0  0  0  0  0  0  0  0  0
    9.6178    4.2366  -60.9289 H   0  0  0  0  0  0  0  0  0  0  0  0
   10.4112    6.5299  -60.3434 H   0  0  0  0  0  0  0  0  0  0  0  0
   12.8509    6.0182  -60.2926 H   0  0  0  0  0  0  0  0  0  0  0  0
   12.3150    6.7749  -58.7491 H   0  0  0  0  0  0  0  0  0  0  0  0
   10.0121    6.3650  -57.8862 H   0  0  0  0  0  0  0  0  0  0  0  0
    8.8901    5.2876  -58.8066 H   0  0  0  0  0  0  0  0  0  0  0  0
    9.2932    2.8216  -58.8909 H   0  0  0  0  0  0  0  0  0  0  0  0
   10.7311    2.1193  -58.0533 H   0  0  0  0  0  0  0  0  0  0  0  0
    6.6763    0.2743  -54.6606 H   0  0  0  0  0  0  0  0  0  0  0  0
    6.2736   -1.8759  -53.7127 H   0  0  0  0  0  0  0  0  0  0  0  0
    7.2244   -3.1885  -54.5771 H   0  0  0  0  0  0  0  0  0  0  0  0
    8.7548   -3.3084  -52.6831 H   0  0  0  0  0  0  0  0  0  0  0  0
    5.8551   -3.7571  -51.9115 H   0  0  0  0  0  0  0  0  0  0  0  0
    6.9665   -4.8897  -52.8111 H   0  0  0  0  0  0  0  0  0  0  0  0
    6.5106   -5.0323  -50.1468 H   0  0  0  0  0  0  0  0  0  0  0  0
    8.0658   -5.5230  -50.9823 H   0  0  0  0  0  0  0  0  0  0  0  0
    8.0709   -4.0081  -48.8007 H   0  0  0  0  0  0  0  0  0  0  0  0
    9.7470   -4.7060  -50.5130 H   0  0  0  0  0  0  0  0  0  0  0  0
    6.6326   -2.2562  -49.6927 H   0  0  0  0  0  0  0  0  0  0  0  0
    8.3259   -1.6466  -49.4098 H   0  0  0  0  0  0  0  0  0  0  0  0
    6.9074   -1.1323  -51.6497 H   0  0  0  0  0  0  0  0  0  0  0  0
    8.7329   -1.2904  -51.5699 H   0  0  0  0  0  0  0  0  0  0  0  0
   11.4006   -2.3173  -54.4857 H   0  0  0  0  0  0  0  0  0  0  0  0
   10.1108   -2.9486  -53.4145 H   0  0  0  0  0  0  0  0  0  0  0  0
    9.3320   -3.4190  -56.0220 H   0  0  0  0  0  0  0  0  0  0  0  0
    9.6710   -4.5020  -54.8730 H   0  0  0  0  0  0  0  0  0  0  0  0
   12.1252   -4.2438  -55.6099 H   0  0  0  0  0  0  0  0  0  0  0  0
   10.5265   -2.9386  -57.7926 H   0  0  0  0  0  0  0  0  0  0  0  0
   12.1554   -2.5305  -57.0904 H   0  0  0  0  0  0  0  0  0  0  0  0
   11.4188   -4.4601  -59.2664 H   0  0  0  0  0  0  0  0  0  0  0  0
   12.8410   -3.3441  -59.0906 H   0  0  0  0  0  0  0  0  0  0  0  0
   13.5279   -5.6968  -58.9579 H   0  0  0  0  0  0  0  0  0  0  0  0
   13.7940   -4.8120  -57.3942 H   0  0  0  0  0  0  0  0  0  0  0  0
   11.8956   -7.0341  -58.0613 H   0  0  0  0  0  0  0  0  0  0  0  0
   12.8803   -6.6918  -56.5596 H   0  0  0  0  0  0  0  0  0  0  0  0
   10.1316   -5.7581  -57.3159 H   0  0  0  0  0  0  0  0  0  0  0  0
   10.8047   -6.2946  -55.7259 H   0  0  0  0  0  0  0  0  0  0  0  0
  1  2  1  0
  2  3  1  0
  3  4  1  0
  4  5  2  0
  4  6  1  0
  6  7  1  0
  8  7  1  1
  8  9  1  0
  9 10  1  0
 10 11  1  0
 11 12  1  0
 12 13  1  0
 13 14  1  0
 14 15  1  0
 14 16  1  0
 12 17  1  0
  3 18  2  0
 18 19  1  0
 19 20  1  0
 20 21  1  0
 21 22  1  0
 22 23  1  0
 23 24  1  0
 24 25  1  0
 24 26  1  0
 26 27  1  0
 19 28  1  0
 28 29  1  0
 29 30  1  0
 30 31  1  0
 31 32  1  0
 32 33  1  0
 33 34  1  0
 34 35  1  0
 35 36  1  0
 28  2  2  0
 36 31  1  0
 16  8  1  0
 27 21  1  0
 17  8  1  0
 15 10  1  0
  1 37  1  0
  1 38  1  0
  1 39  1  0
  6 40  1  0
  7 41  1  0
  7 42  1  0
  9 43  1  0
  9 44  1  0
 10 45  1  1
 11 46  1  0
 11 47  1  0
 12 48  1  6
 13 49  1  0
 13 50  1  0
 14 51  1  6
 15 52  1  0
 15 53  1  0
 16 54  1  0
 16 55  1  0
 17 56  1  0
 17 57  1  0
 18 58  1  0
 20 59  1  0
 20 60  1  0
 21 61  1  1
 22 62  1  0
 22 63  1  0
 23 64  1  0
 23 65  1  0
 24 66  1  6
 25 67  1  0
 26 68  1  0
 26 69  1  0
 27 70  1  0
 27 71  1  0
 29 72  1  0
 29 73  1  0
 30 74  1  0
 30 75  1  0
 31 76  1  0
 32 77  1  0
 32 78  1  0
 33 79  1  0
 33 80  1  0
 34 81  1  0
 34 82  1  0
 35 83  1  0
 35 84  1  0
 36 85  1  0
 36 86  1  0
M  CHG  1  30   1
M  END
>  <meeko>  (103) 
{"is_sidechain": false}

$$$$

     RDKit          3D

 93 99  0  0  0  0  0  0  0  0999 V2000
   10.7430    1.6910  -56.1210 C   0  0  0  0  0  0  0  0  0  0  0  0
    9.2830    1.3780  -56.0730 C   0  0  0  0  0  0  0  0  0  0  0  0
    8.6770    0.2460  -55.4200 C   0  0  0  0  0  0  0  0  0  0  0  0
    9.2560   -0.8480  -54.6360 C   0  0  0  0  0  0  0  0  0  0  0  0
    9.4250   -0.7620  -53.4240 O   0  0  0  0  0  0  0  0  0  0  0  0
    9.6490   -1.9440  -55.3740 N   0  0  0  0  0  0  0  0  0  0  0  0
   10.3860   -3.0260  -54.7530 C   0  0  0  0  0  0  0  0  0  0  0  0
   11.1760   -3.8950  -55.7530 C   0  0  2  0  0  0  0  0  0  0  0  0
   11.8660   -2.9650  -56.7860 C   0  0  0  0  0  0  0  0  0  0  0  0
   12.6750   -3.7820  -57.8060 C   0  0  1  0  0  0  0  0  0  0  0  0
   13.7480   -4.5960  -57.0640 C   0  0  0  0  0  0  0  0  0  0  0  0
   13.0830   -5.5450  -56.0560 C   0  0  2  0  0  0  0  0  0  0  0  0
   12.1360   -6.4980  -56.8040 C   0  0  0  0  0  0  0  0  0  0  0  0
   11.0560   -5.6920  -57.5460 C   0  0  2  0  0  0  0  0  0  0  0  0
   11.7310   -4.7420  -58.5480 C   0  0  0  0  0  0  0  0  0  0  0  0
   10.2490   -4.8690  -56.5270 C   0  0  0  0  0  0  0  0  0  0  0  0
   12.2740   -4.7220  -55.0380 C   0  0  0  0  0  0  0  0  0  0  0  0
    7.3270    0.3250  -55.6990 C   0  0  0  0  0  0  0  0  0  0  0  0
    7.0730    1.4490  -56.4390 N   0  0  0  0  0  0  0  0  0  0  0  0
    5.7210    1.8440  -56.8060 C   0  0  0  0  0  0  0  0  0  0  0  0
    5.3930    1.9460  -58.3070 C   0  0  2  0  0  0  0  0  0  0  0  0
    3.8950    2.2140  -58.5060 C   0  0  0  0  0  0  0  0  0  0  0  0
    3.5180    2.4530  -59.9740 C   0  0  0  0  0  0  0  0  0  0  0  0
    4.5280    1.8860  -60.9710 C   0  0  1  0  0  0  0  0  0  0  0  0
    5.5520    2.8640  -61.1800 O   0  0  0  0  0  0  0  0  0  0  0  0
    5.1350    0.5780  -60.4710 C   0  0  0  0  0  0  0  0  0  0  0  0
    5.8190    0.7020  -59.1020 C   0  0  0  0  0  0  0  0  0  0  0  0
    8.2610    2.1110  -56.6860 C   0  0  0  0  0  0  0  0  0  0  0  0
    8.3790    3.2970  -57.5350 C   0  0  0  0  0  0  0  0  0  0  0  0
    7.7370    4.4810  -57.1550 C   0  0  0  0  0  0  0  0  0  0  0  0
    7.8590    5.6320  -57.9290 C   0  0  0  0  0  0  0  0  0  0  0  0
    8.6370    5.6120  -59.0840 C   0  0  0  0  0  0  0  0  0  0  0  0
    9.2950    4.4360  -59.4830 C   0  0  0  0  0  0  0  0  0  0  0  0
   10.1710    4.4460  -60.7030 C   0  0  0  0  0  0  0  0  0  0  0  0
   11.6280    4.8000  -60.4690 N   0  0  0  0  0  0  0  0  0  0  0  0
   11.8560    6.2610  -60.1440 C   0  0  0  0  0  0  0  0  0  0  0  0
   13.3500    6.5500  -60.2060 C   0  0  0  0  0  0  0  0  0  0  0  0
   14.1490    5.6270  -59.2890 C   0  0  0  0  0  0  0  0  0  0  0  0
   13.8170    4.1580  -59.5350 C   0  0  0  0  0  0  0  0  0  0  0  0
   12.3170    3.9020  -59.4750 C   0  0  0  0  0  0  0  0  0  0  0  0
    9.1390    3.2740  -58.7100 C   0  0  0  0  0  0  0  0  0  0  0  0
   11.1339    1.7748  -55.0962 H   0  0  0  0  0  0  0  0  0  0  0  0
   11.2733    0.8861  -56.6511 H   0  0  0  0  0  0  0  0  0  0  0  0
   10.8968    2.6425  -56.6511 H   0  0  0  0  0  0  0  0  0  0  0  0
    9.7930   -1.7780  -56.3580 H   0  0  0  0  0  0  0  0  0  0  0  0
   11.0961   -2.5935  -54.0328 H   0  0  0  0  0  0  0  0  0  0  0  0
    9.6464   -3.6830  -54.2720 H   0  0  0  0  0  0  0  0  0  0  0  0
   11.0975   -2.3847  -57.3178 H   0  0  0  0  0  0  0  0  0  0  0  0
   12.5528   -2.2933  -56.2501 H   0  0  0  0  0  0  0  0  0  0  0  0
   13.1563   -3.1054  -58.5275 H   0  0  0  0  0  0  0  0  0  0  0  0
   14.3268   -5.1843  -57.7913 H   0  0  0  0  0  0  0  0  0  0  0  0
   14.4159   -3.9074  -56.5256 H   0  0  0  0  0  0  0  0  0  0  0  0
   13.8556   -6.1261  -55.5313 H   0  0  0  0  0  0  0  0  0  0  0  0
   12.7131   -7.0888  -57.5306 H   0  0  0  0  0  0  0  0  0  0  0  0
   11.6516   -7.1683  -56.0787 H   0  0  0  0  0  0  0  0  0  0  0  0
   10.3840   -6.3776  -58.0829 H   0  0  0  0  0  0  0  0  0  0  0  0
   12.3083   -5.3305  -59.2763 H   0  0  0  0  0  0  0  0  0  0  0  0
   10.9584   -4.1582  -59.0698 H   0  0  0  0  0  0  0  0  0  0  0  0
    9.4797   -4.2898  -57.0586 H   0  0  0  0  0  0  0  0  0  0  0  0
    9.7795   -5.5571  -55.8086 H   0  0  0  0  0  0  0  0  0  0  0  0
   11.8003   -5.4042  -54.3167 H   0  0  0  0  0  0  0  0  0  0  0  0
   12.9555   -4.0319  -54.5190 H   0  0  0  0  0  0  0  0  0  0  0  0
    6.5699   -0.4046  -55.3757 H   0  0  0  0  0  0  0  0  0  0  0  0
    5.0320    1.1072  -56.3675 H   0  0  0  0  0  0  0  0  0  0  0  0
    5.6160    2.8708  -56.4258 H   0  0  0  0  0  0  0  0  0  0  0  0
    5.9778    2.7900  -58.7015 H   0  0  0  0  0  0  0  0  0  0  0  0
    3.3314    1.3446  -58.1365 H   0  0  0  0  0  0  0  0  0  0  0  0
    3.6482    3.1303  -57.9498 H   0  0  0  0  0  0  0  0  0  0  0  0
    2.5424    1.9812  -60.1626 H   0  0  0  0  0  0  0  0  0  0  0  0
    3.4956    3.5423  -60.1255 H   0  0  0  0  0  0  0  0  0  0  0  0
    4.0146    1.6621  -61.9177 H   0  0  0  0  0  0  0  0  0  0  0  0
    5.4470    3.1830  -62.0960 H   0  0  0  0  0  0  0  0  0  0  0  0
    4.3325   -0.1702  -60.3924 H   0  0  0  0  0  0  0  0  0  0  0  0
    5.9106    0.2850  -61.1939 H   0  0  0  0  0  0  0  0  0  0  0  0
    5.5717   -0.1905  -58.5085 H   0  0  0  0  0  0  0  0  0  0  0  0
    6.8987    0.7960  -59.2903 H   0  0  0  0  0  0  0  0  0  0  0  0
    7.1310    4.5025  -56.2372 H   0  0  0  0  0  0  0  0  0  0  0  0
    7.3419    6.5553  -57.6288 H   0  0  0  0  0  0  0  0  0  0  0  0
    8.7374    6.5249  -59.6894 H   0  0  0  0  0  0  0  0  0  0  0  0
   10.1357    3.4423  -61.1516 H   0  0  0  0  0  0  0  0  0  0  0  0
    9.7715    5.2407  -61.3502 H   0  0  0  0  0  0  0  0  0  0  0  0
   12.0780    4.6290  -61.3750 H   0  0  0  0  0  0  0  0  0  0  0  0
   11.3272    6.8894  -60.8757 H   0  0  0  0  0  0  0  0  0  0  0  0
   11.4736    6.4841  -59.1370 H   0  0  0  0  0  0  0  0  0  0  0  0
   13.6964    6.4096  -61.2406 H   0  0  0  0  0  0  0  0  0  0  0  0
   13.5103    7.5851  -59.8700 H   0  0  0  0  0  0  0  0  0  0  0  0
   15.2221    5.7850  -59.4720 H   0  0  0  0  0  0  0  0  0  0  0  0
   13.8859    5.8674  -58.2483 H   0  0  0  0  0  0  0  0  0  0  0  0
   14.1883    3.8703  -60.5297 H   0  0  0  0  0  0  0  0  0  0  0  0
   14.2986    3.5609  -58.7467 H   0  0  0  0  0  0  0  0  0  0  0  0
   12.1118    2.8503  -59.7235 H   0  0  0  0  0  0  0  0  0  0  0  0
   11.9435    4.1121  -58.4619 H   0  0  0  0  0  0  0  0  0  0  0  0
    9.6184    2.3374  -59.0309 H   0  0  0  0  0  0  0  0  0  0  0  0
  1  2  1  0
  2  3  1  0
  3  4  1  0
  4  5  2  0
  4  6  1  0
  6  7  1  0
  8  7  1  1
  8  9  1  0
  9 10  1  0
 10 11  1  0
 11 12  1  0
 12 13  1  0
 13 14  1  0
 14 15  1  0
 14 16  1  0
 12 17  1  0
  3 18  2  0
 18 19  1  0
 19 20  1  0
 20 21  1  0
 21 22  1  0
 22 23  1  0
 23 24  1  0
 24 25  1  0
 24 26  1  0
 26 27  1  0
 19 28  1  0
 28 29  1  0
 29 30  1  0
 30 31  2  0
 31 32  1  0
 32 33  2  0
 33 34  1  0
 34 35  1  0
 35 36  1  0
 36 37  1  0
 37 38  1  0
 38 39  1  0
 39 40  1  0
 33 41  1  0
 28  2  2  0
 41 29  2  0
 16  8  1  0
 27 21  1  0
 40 35  1  0
 17  8  1  0
 15 10  1  0
  1 42  1  0
  1 43  1  0
  1 44  1  0
  6 45  1  0
  7 46  1  0
  7 47  1  0
  9 48  1  0
  9 49  1  0
 10 50  1  6
 11 51  1  0
 11 52  1  0
 12 53  1  1
 13 54  1  0
 13 55  1  0
 14 56  1  6
 15 57  1  0
 15 58  1  0
 16 59  1  0
 16 60  1  0
 17 61  1  0
 17 62  1  0
 18 63  1  0
 20 64  1  0
 20 65  1  0
 21 66  1  1
 22 67  1  0
 22 68  1  0
 23 69  1  0
 23 70  1  0
 24 71  1  1
 25 72  1  0
 26 73  1  0
 26 74  1  0
 27 75  1  0
 27 76  1  0
 30 77  1  0
 31 78  1  0
 32 79  1  0
 34 80  1  0
 34 81  1  0
 35 82  1  0
 36 83  1  0
 36 84  1  0
 37 85  1  0
 37 86  1  0
 38 87  1  0
 38 88  1  0
 39 89  1  0
 39 90  1  0
 40 91  1  0
 40 92  1  0
 41 93  1  0
M  CHG  1  35   1
M  END
>  <meeko>  (104) 
{"is_sidechain": false}

$$$$

     RDKit          3D

 80 85  0  0  0  0  0  0  0  0999 V2000
    6.5640   -0.1370  -53.7970 C   0  0  0  0  0  0  0  0  0  0  0  0
    7.9650   -0.3490  -54.2750 C   0  0  0  0  0  0  0  0  0  0  0  0
    8.6340    0.4420  -55.2690 C   0  0  0  0  0  0  0  0  0  0  0  0
    8.2150    1.6380  -56.0060 C   0  0  0  0  0  0  0  0  0  0  0  0
    7.1480    1.6840  -56.6080 O   0  0  0  0  0  0  0  0  0  0  0  0
    9.1330    2.6630  -56.0060 N   0  0  0  0  0  0  0  0  0  0  0  0
    8.9070    3.9070  -56.7180 C   0  0  0  0  0  0  0  0  0  0  0  0
    9.9010    4.1400  -57.8750 C   0  0  2  0  0  0  0  0  0  0  0  0
    9.4590    5.3170  -58.7820 C   0  0  0  0  0  0  0  0  0  0  0  0
   10.4430    5.5030  -59.9500 C   0  0  1  0  0  0  0  0  0  0  0  0
   11.8450    5.7920  -59.3880 C   0  0  0  0  0  0  0  0  0  0  0  0
   12.3140    4.6200  -58.5120 C   0  0  2  0  0  0  0  0  0  0  0  0
   12.3500    3.3370  -59.3560 C   0  0  0  0  0  0  0  0  0  0  0  0
   10.9500    3.0370  -59.9150 C   0  0  2  0  0  0  0  0  0  0  0  0
   10.4870    4.2150  -60.7870 C   0  0  0  0  0  0  0  0  0  0  0  0
    9.9660    2.8570  -58.7460 C   0  0  0  0  0  0  0  0  0  0  0  0
   11.3280    4.4340  -57.3440 C   0  0  0  0  0  0  0  0  0  0  0  0
    9.8350   -0.1910  -55.5070 C   0  0  0  0  0  0  0  0  0  0  0  0
    9.9780   -1.2550  -54.6580 N   0  0  0  0  0  0  0  0  0  0  0  0
   11.1540   -2.1160  -54.7140 C   0  0  0  0  0  0  0  0  0  0  0  0
   11.0720   -3.2300  -55.7800 C   0  0  2  0  0  0  0  0  0  0  0  0
   11.5590   -4.5910  -55.2450 C   0  0  0  0  0  0  0  0  0  0  0  0
   11.5770   -5.6660  -56.3320 C   0  0  0  0  0  0  0  0  0  0  0  0
   12.3920   -5.2300  -57.5460 C   0  0  1  0  0  0  0  0  0  0  0  0
   12.3130   -6.2120  -58.5700 O   0  0  0  0  0  0  0  0  0  0  0  0
   11.8950   -3.8950  -58.0920 C   0  0  0  0  0  0  0  0  0  0  0  0
   11.8950   -2.8160  -57.0130 C   0  0  0  0  0  0  0  0  0  0  0  0
    8.8300   -1.3840  -53.8930 C   0  0  0  0  0  0  0  0  0  0  0  0
    8.5460   -2.4830  -52.8920 C   0  0  2  0  0  0  0  0  0  0  0  0
    7.4120   -3.4280  -53.2990 C   0  0  0  0  0  0  0  0  0  0  0  0
    7.3500   -4.5920  -52.3470 N   0  0  0  0  0  0  0  0  0  0  0  0
    7.5590   -4.2650  -50.8910 C   0  0  0  0  0  0  0  0  0  0  0  0
    7.4350   -2.7700  -50.6130 C   0  0  1  0  0  0  0  0  0  0  0  0
    7.6940   -2.5470  -49.3010 F   0  0  0  0  0  0  0  0  0  0  0  0
    8.4080   -1.9520  -51.4540 C   0  0  0  0  0  0  0  0  0  0  0  0
    6.5483   -0.1346  -52.6971 H   0  0  0  0  0  0  0  0  0  0  0  0
    6.1910    0.8278  -54.1711 H   0  0  0  0  0  0  0  0  0  0  0  0
    5.9222   -0.9483  -54.1711 H   0  0  0  0  0  0  0  0  0  0  0  0
   10.0490    2.4940  -55.6210 H   0  0  0  0  0  0  0  0  0  0  0  0
    7.8878    3.8919  -57.1316 H   0  0  0  0  0  0  0  0  0  0  0  0
    9.0508    4.7249  -55.9966 H   0  0  0  0  0  0  0  0  0  0  0  0
    8.4570    5.1064  -59.1841 H   0  0  0  0  0  0  0  0  0  0  0  0
    9.4437    6.2390  -58.1823 H   0  0  0  0  0  0  0  0  0  0  0  0
   10.1157    6.3423  -60.5812 H   0  0  0  0  0  0  0  0  0  0  0  0
   12.5501    5.9285  -60.2212 H   0  0  0  0  0  0  0  0  0  0  0  0
   11.8068    6.7058  -58.7769 H   0  0  0  0  0  0  0  0  0  0  0  0
   13.3193    4.8307  -58.1184 H   0  0  0  0  0  0  0  0  0  0  0  0
   13.0548    3.4692  -60.1901 H   0  0  0  0  0  0  0  0  0  0  0  0
   12.6742    2.4974  -58.7236 H   0  0  0  0  0  0  0  0  0  0  0  0
   10.9826    2.1187  -60.5197 H   0  0  0  0  0  0  0  0  0  0  0  0
   11.1896    4.3476  -61.6230 H   0  0  0  0  0  0  0  0  0  0  0  0
    9.4802    4.0025  -61.1759 H   0  0  0  0  0  0  0  0  0  0  0  0
    8.9646    2.6432  -59.1477 H   0  0  0  0  0  0  0  0  0  0  0  0
   10.3140    2.0232  -58.1186 H   0  0  0  0  0  0  0  0  0  0  0  0
   11.6619    3.5921  -56.7198 H   0  0  0  0  0  0  0  0  0  0  0  0
   11.3017    5.3604  -56.7515 H   0  0  0  0  0  0  0  0  0  0  0  0
   10.5698    0.1138  -56.2668 H   0  0  0  0  0  0  0  0  0  0  0  0
   12.0302   -1.4893  -54.9365 H   0  0  0  0  0  0  0  0  0  0  0  0
   11.2258   -2.6173  -53.7375 H   0  0  0  0  0  0  0  0  0  0  0  0
   10.0148   -3.3557  -56.0565 H   0  0  0  0  0  0  0  0  0  0  0  0
   12.5779   -4.4715  -54.8480 H   0  0  0  0  0  0  0  0  0  0  0  0
   10.8592   -4.9155  -54.4607 H   0  0  0  0  0  0  0  0  0  0  0  0
   12.0188   -6.5842  -55.9176 H   0  0  0  0  0  0  0  0  0  0  0  0
   10.5412   -5.8388  -56.6595 H   0  0  0  0  0  0  0  0  0  0  0  0
   13.4371   -5.1139  -57.2231 H   0  0  0  0  0  0  0  0  0  0  0  0
   11.8100   -6.9760  -58.2420 H   0  0  0  0  0  0  0  0  0  0  0  0
   12.5526   -3.5780  -58.9148 H   0  0  0  0  0  0  0  0  0  0  0  0
   10.8624   -4.0294  -58.4464 H   0  0  0  0  0  0  0  0  0  0  0  0
   12.9325   -2.6275  -56.6999 H   0  0  0  0  0  0  0  0  0  0  0  0
   11.4359   -1.9115  -57.4385 H   0  0  0  0  0  0  0  0  0  0  0  0
    9.4444   -3.1177  -52.9019 H   0  0  0  0  0  0  0  0  0  0  0  0
    6.4564   -2.8838  -53.2728 H   0  0  0  0  0  0  0  0  0  0  0  0
    7.5989   -3.8015  -54.3166 H   0  0  0  0  0  0  0  0  0  0  0  0
    6.4450   -5.0710  -52.4640 H   0  0  0  0  0  0  0  0  0  0  0  0
    8.0540   -5.2920  -52.6270 H   0  0  0  0  0  0  0  0  0  0  0  0
    6.8042   -4.7999  -50.2958 H   0  0  0  0  0  0  0  0  0  0  0  0
    8.5781   -4.5761  -50.6177 H   0  0  0  0  0  0  0  0  0  0  0  0
    6.4135   -2.4573  -50.8752 H   0  0  0  0  0  0  0  0  0  0  0  0
    8.0489   -0.9131  -51.4959 H   0  0  0  0  0  0  0  0  0  0  0  0
    9.3974   -2.0229  -50.9785 H   0  0  0  0  0  0  0  0  0  0  0  0
  1  2  1  0
  2  3  1  0
  3  4  1  0
  4  5  2  0
  4  6  1  0
  6  7  1  0
  8  7  1  1
  8  9  1  0
  9 10  1  0
 10 11  1  0
 11 12  1  0
 12 13  1  0
 13 14  1  0
 14 15  1  0
 14 16  1  0
 12 17  1  0
  3 18  2  0
 18 19  1  0
 19 20  1  0
 20 21  1  0
 21 22  1  0
 22 23  1  0
 23 24  1  0
 24 25  1  0
 24 26  1  0
 26 27  1  0
 19 28  1  0
 28 29  1  0
 29 30  1  0
 30 31  1  0
 31 32  1  0
 32 33  1  0
 33 34  1  0
 33 35  1  0
 28  2  2  0
 35 29  1  0
 16  8  1  0
 27 21  1  0
 17  8  1  0
 15 10  1  0
  1 36  1  0
  1 37  1  0
  1 38  1  0
  6 39  1  0
  7 40  1  0
  7 41  1  0
  9 42  1  0
  9 43  1  0
 10 44  1  6
 11 45  1  0
 11 46  1  0
 12 47  1  1
 13 48  1  0
 13 49  1  0
 14 50  1  6
 15 51  1  0
 15 52  1  0
 16 53  1  0
 16 54  1  0
 17 55  1  0
 17 56  1  0
 18 57  1  0
 20 58  1  0
 20 59  1  0
 21 60  1  1
 22 61  1  0
 22 62  1  0
 23 63  1  0
 23 64  1  0
 24 65  1  6
 25 66  1  0
 26 67  1  0
 26 68  1  0
 27 69  1  0
 27 70  1  0
 29 71  1  1
 30 72  1  0
 30 73  1  0
 31 74  1  0
 31 75  1  0
 32 76  1  0
 32 77  1  0
 33 78  1  6
 35 79  1  0
 35 80  1  0
M  CHG  1  31   1
M  END
>  <meeko>  (105) 
{"is_sidechain": false}

$$$$

     RDKit          3D

 70 75  0  0  0  0  0  0  0  0999 V2000
    7.5590    0.4470  -53.3130 C   0  0  0  0  0  0  0  0  0  0  0  0
    8.5700   -0.2100  -54.1970 C   0  0  0  0  0  0  0  0  0  0  0  0
    9.1870    0.4000  -55.3420 C   0  0  0  0  0  0  0  0  0  0  0  0
    8.9450    1.7530  -55.8610 C   0  0  0  0  0  0  0  0  0  0  0  0
    7.8440    2.1150  -56.2650 O   0  0  0  0  0  0  0  0  0  0  0  0
   10.0390    2.5940  -55.8440 N   0  0  0  0  0  0  0  0  0  0  0  0
    9.9660    3.9780  -56.2620 C   0  0  0  0  0  0  0  0  0  0  0  0
   10.6990    4.2690  -57.5920 C   0  0  2  0  0  0  0  0  0  0  0  0
   12.2120    4.5170  -57.3630 C   0  0  0  0  0  0  0  0  0  0  0  0
   12.9340    4.7510  -58.7020 C   0  0  1  0  0  0  0  0  0  0  0  0
   12.7590    3.5150  -59.5970 C   0  0  0  0  0  0  0  0  0  0  0  0
   11.2660    3.2650  -59.8630 C   0  0  2  0  0  0  0  0  0  0  0  0
   10.6580    4.4940  -60.5560 C   0  0  0  0  0  0  0  0  0  0  0  0
   10.8250    5.7350  -59.6650 C   0  0  2  0  0  0  0  0  0  0  0  0
   12.3200    5.9740  -59.4010 C   0  0  0  0  0  0  0  0  0  0  0  0
   10.1060    5.5000  -58.3240 C   0  0  0  0  0  0  0  0  0  0  0  0
   10.5470    3.0350  -58.5230 C   0  0  0  0  0  0  0  0  0  0  0  0
   10.0470   -0.5540  -55.8570 C   0  0  0  0  0  0  0  0  0  0  0  0
    9.9780   -1.6990  -55.0910 N   0  0  0  0  0  0  0  0  0  0  0  0
   10.7900   -2.8800  -55.4000 C   0  0  2  0  0  0  0  0  0  0  0  0
   11.6660   -2.7700  -56.6540 C   0  0  0  0  0  0  0  0  0  0  0  0
   12.6640   -3.9310  -56.7520 C   0  0  0  0  0  0  0  0  0  0  0  0
   12.1380   -5.2300  -56.1440 C   0  0  1  0  0  0  0  0  0  0  0  0
   12.5200   -5.2670  -54.8330 F   0  0  0  0  0  0  0  0  0  0  0  0
   10.6190   -5.3180  -56.1810 C   0  0  0  0  0  0  0  0  0  0  0  0
    9.9670   -4.1810  -55.3850 C   0  0  0  0  0  0  0  0  0  0  0  0
    9.0780   -1.5010  -54.0620 C   0  0  0  0  0  0  0  0  0  0  0  0
    8.7260   -2.4870  -53.0420 C   0  0  0  0  0  0  0  0  0  0  0  0
    9.4860   -2.6050  -51.8720 C   0  0  0  0  0  0  0  0  0  0  0  0
    9.1300   -3.5340  -50.8940 C   0  0  0  0  0  0  0  0  0  0  0  0
    8.0060   -4.3300  -51.0820 C   0  0  0  0  0  0  0  0  0  0  0  0
    7.6660   -5.2220  -50.1420 F   0  0  0  0  0  0  0  0  0  0  0  0
    7.2260   -4.2100  -52.2250 C   0  0  0  0  0  0  0  0  0  0  0  0
    7.5810   -3.2820  -53.2050 C   0  0  0  0  0  0  0  0  0  0  0  0
    7.8252    0.2740  -52.2598 H   0  0  0  0  0  0  0  0  0  0  0  0
    7.5434    1.5283  -53.5144 H   0  0  0  0  0  0  0  0  0  0  0  0
    6.5646    0.0221  -53.5144 H   0  0  0  0  0  0  0  0  0  0  0  0
   10.8960    2.2640  -55.4320 H   0  0  0  0  0  0  0  0  0  0  0  0
    8.9066    4.2478  -56.3839 H   0  0  0  0  0  0  0  0  0  0  0  0
   10.4661    4.5738  -55.4842 H   0  0  0  0  0  0  0  0  0  0  0  0
   12.3399    5.4033  -56.7241 H   0  0  0  0  0  0  0  0  0  0  0  0
   12.6461    3.6305  -56.8775 H   0  0  0  0  0  0  0  0  0  0  0  0
   14.0045    4.9262  -58.5194 H   0  0  0  0  0  0  0  0  0  0  0  0
   13.2764    3.6817  -60.5533 H   0  0  0  0  0  0  0  0  0  0  0  0
   13.1868    2.6381  -59.0889 H   0  0  0  0  0  0  0  0  0  0  0  0
   11.1485    2.3815  -60.5077 H   0  0  0  0  0  0  0  0  0  0  0  0
   11.1701    4.6622  -61.5149 H   0  0  0  0  0  0  0  0  0  0  0  0
    9.5867    4.3167  -60.7318 H   0  0  0  0  0  0  0  0  0  0  0  0
   10.3924    6.6116  -60.1694 H   0  0  0  0  0  0  0  0  0  0  0  0
   12.8360    6.1437  -60.3576 H   0  0  0  0  0  0  0  0  0  0  0  0
   12.4351    6.8552  -58.7527 H   0  0  0  0  0  0  0  0  0  0  0  0
   10.2264    6.3901  -57.6890 H   0  0  0  0  0  0  0  0  0  0  0  0
    9.0402    5.3136  -58.5224 H   0  0  0  0  0  0  0  0  0  0  0  0
    9.4783    2.8575  -58.7138 H   0  0  0  0  0  0  0  0  0  0  0  0
   10.9993    2.1635  -58.0271 H   0  0  0  0  0  0  0  0  0  0  0  0
   10.6873   -0.4198  -56.7413 H   0  0  0  0  0  0  0  0  0  0  0  0
   11.5096   -2.9248  -54.5692 H   0  0  0  0  0  0  0  0  0  0  0  0
   11.0186   -2.7803  -57.5432 H   0  0  0  0  0  0  0  0  0  0  0  0
   12.2364   -1.8314  -56.5928 H   0  0  0  0  0  0  0  0  0  0  0  0
   12.8905   -4.1086  -57.8137 H   0  0  0  0  0  0  0  0  0  0  0  0
   13.5587   -3.6418  -56.1812 H   0  0  0  0  0  0  0  0  0  0  0  0
   12.5465   -6.0659  -56.7309 H   0  0  0  0  0  0  0  0  0  0  0  0
   10.2836   -5.2592  -57.2270 H   0  0  0  0  0  0  0  0  0  0  0  0
   10.3190   -6.2729  -55.7247 H   0  0  0  0  0  0  0  0  0  0  0  0
    8.9775   -3.9736  -55.8184 H   0  0  0  0  0  0  0  0  0  0  0  0
    9.8987   -4.5123  -54.3383 H   0  0  0  0  0  0  0  0  0  0  0  0
   10.3668   -1.9630  -51.7234 H   0  0  0  0  0  0  0  0  0  0  0  0
    9.7344   -3.6359  -49.9806 H   0  0  0  0  0  0  0  0  0  0  0  0
    6.3351   -4.8417  -52.3568 H   0  0  0  0  0  0  0  0  0  0  0  0
    6.9617   -3.1734  -54.1076 H   0  0  0  0  0  0  0  0  0  0  0  0
  1  2  1  0
  2  3  1  0
  3  4  1  0
  4  5  2  0
  4  6  1  0
  6  7  1  0
  8  7  1  1
  8  9  1  0
  9 10  1  0
 10 11  1  0
 11 12  1  0
 12 13  1  0
 13 14  1  0
 14 15  1  0
 14 16  1  0
 12 17  1  0
  3 18  2  0
 18 19  1  0
 19 20  1  0
 20 21  1  0
 21 22  1  0
 22 23  1  0
 23 24  1  0
 23 25  1  0
 25 26  1  0
 19 27  1  0
 27 28  1  0
 28 29  1  0
 29 30  2  0
 30 31  1  0
 31 32  1  0
 31 33  2  0
 33 34  1  0
 27  2  2  0
 34 28  2  0
 16  8  1  0
 26 20  1  0
 17  8  1  0
 15 10  1  0
  1 35  1  0
  1 36  1  0
  1 37  1  0
  6 38  1  0
  7 39  1  0
  7 40  1  0
  9 41  1  0
  9 42  1  0
 10 43  1  1
 11 44  1  0
 11 45  1  0
 12 46  1  6
 13 47  1  0
 13 48  1  0
 14 49  1  6
 15 50  1  0
 15 51  1  0
 16 52  1  0
 16 53  1  0
 17 54  1  0
 17 55  1  0
 18 56  1  0
 20 57  1  6
 21 58  1  0
 21 59  1  0
 22 60  1  0
 22 61  1  0
 23 62  1  1
 25 63  1  0
 25 64  1  0
 26 65  1  0
 26 66  1  0
 29 67  1  0
 30 68  1  0
 33 69  1  0
 34 70  1  0
M  END
>  <meeko>  (106) 
{"is_sidechain": false}

$$$$

     RDKit          3D

 73 78  0  0  0  0  0  0  0  0999 V2000
    5.9210   -4.5370  -51.6500 C   0  0  0  0  0  0  0  0  0  0  0  0
    7.2320   -3.8190  -51.7640 C   0  0  0  0  0  0  0  0  0  0  0  0
    8.2520   -4.0520  -50.8330 C   0  0  0  0  0  0  0  0  0  0  0  0
    9.4640   -3.3650  -50.9230 C   0  0  0  0  0  0  0  0  0  0  0  0
    9.6620   -2.4290  -51.9380 C   0  0  0  0  0  0  0  0  0  0  0  0
    8.6450   -2.1720  -52.8620 C   0  0  0  0  0  0  0  0  0  0  0  0
    8.8420   -1.1780  -53.9150 C   0  0  0  0  0  0  0  0  0  0  0  0
    8.1880    0.0400  -54.0960 C   0  0  0  0  0  0  0  0  0  0  0  0
    7.0820    0.5610  -53.2420 C   0  0  0  0  0  0  0  0  0  0  0  0
    8.7620    0.6700  -55.2560 C   0  0  0  0  0  0  0  0  0  0  0  0
    8.4890    1.9620  -55.8870 C   0  0  0  0  0  0  0  0  0  0  0  0
    7.4370    2.1940  -56.4750 O   0  0  0  0  0  0  0  0  0  0  0  0
    9.5270    2.8630  -55.8210 N   0  0  0  0  0  0  0  0  0  0  0  0
    9.4800    4.1590  -56.4650 C   0  0  0  0  0  0  0  0  0  0  0  0
   10.3640    4.2680  -57.7280 C   0  0  2  0  0  0  0  0  0  0  0  0
   10.2760    2.9960  -58.6110 C   0  0  0  0  0  0  0  0  0  0  0  0
   11.1300    3.1560  -59.8820 C   0  0  1  0  0  0  0  0  0  0  0  0
   10.6230    4.3620  -60.6880 C   0  0  0  0  0  0  0  0  0  0  0  0
   10.7280    5.6400  -59.8410 C   0  0  2  0  0  0  0  0  0  0  0  0
   12.1940    5.8670  -59.4390 C   0  0  0  0  0  0  0  0  0  0  0  0
   12.7080    4.6670  -58.6270 C   0  0  2  0  0  0  0  0  0  0  0  0
   12.5950    3.3920  -59.4800 C   0  0  0  0  0  0  0  0  0  0  0  0
   11.8510    4.5060  -57.3590 C   0  0  0  0  0  0  0  0  0  0  0  0
    9.8760    5.4760  -58.5720 C   0  0  0  0  0  0  0  0  0  0  0  0
    9.6930   -0.2220  -55.7570 C   0  0  0  0  0  0  0  0  0  0  0  0
    9.7440   -1.3270  -54.9500 N   0  0  0  0  0  0  0  0  0  0  0  0
   10.6320   -2.4710  -55.1700 C   0  0  2  0  0  0  0  0  0  0  0  0
   11.6240   -2.2090  -56.3200 C   0  0  0  0  0  0  0  0  0  0  0  0
   12.1890   -3.4910  -56.9340 C   0  0  0  0  0  0  0  0  0  0  0  0
   12.2120   -4.6390  -55.9370 C   0  0  2  0  0  0  0  0  0  0  0  0
   12.7490   -5.7360  -56.5340 F   0  0  0  0  0  0  0  0  0  0  0  0
   10.8130   -4.9900  -55.4380 C   0  0  0  0  0  0  0  0  0  0  0  0
    9.8670   -3.7880  -55.3680 C   0  0  0  0  0  0  0  0  0  0  0  0
    7.4340   -2.8680  -52.7720 C   0  0  0  0  0  0  0  0  0  0  0  0
    5.6695   -4.6747  -50.5880 H   0  0  0  0  0  0  0  0  0  0  0  0
    5.1343   -3.9438  -52.1392 H   0  0  0  0  0  0  0  0  0  0  0  0
    5.9972   -5.5193  -52.1392 H   0  0  0  0  0  0  0  0  0  0  0  0
    8.0970   -4.7818  -50.0247 H   0  0  0  0  0  0  0  0  0  0  0  0
   10.2631   -3.5619  -50.1932 H   0  0  0  0  0  0  0  0  0  0  0  0
   10.6195   -1.8925  -52.0114 H   0  0  0  0  0  0  0  0  0  0  0  0
    7.3473    0.4360  -52.1818 H   0  0  0  0  0  0  0  0  0  0  0  0
    6.9242    1.6282  -53.4571 H   0  0  0  0  0  0  0  0  0  0  0  0
    6.1587    0.0031  -53.4571 H   0  0  0  0  0  0  0  0  0  0  0  0
   10.4140    2.5350  -55.4680 H   0  0  0  0  0  0  0  0  0  0  0  0
    8.4385    4.3639  -56.7535 H   0  0  0  0  0  0  0  0  0  0  0  0
    9.8711    4.8880  -55.7400 H   0  0  0  0  0  0  0  0  0  0  0  0
   10.6414    2.1318  -58.0368 H   0  0  0  0  0  0  0  0  0  0  0  0
    9.2276    2.8422  -58.9063 H   0  0  0  0  0  0  0  0  0  0  0  0
   11.0555    2.2460  -60.4954 H   0  0  0  0  0  0  0  0  0  0  0  0
   11.2327    4.4756  -61.5965 H   0  0  0  0  0  0  0  0  0  0  0  0
    9.5711    4.1963  -60.9638 H   0  0  0  0  0  0  0  0  0  0  0  0
   10.3675    6.5003  -60.4241 H   0  0  0  0  0  0  0  0  0  0  0  0
   12.8066    5.9829  -60.3453 H   0  0  0  0  0  0  0  0  0  0  0  0
   12.2632    6.7760  -58.8234 H   0  0  0  0  0  0  0  0  0  0  0  0
   13.7582    4.8335  -58.3453 H   0  0  0  0  0  0  0  0  0  0  0  0
   13.2078    3.5048  -60.3865 H   0  0  0  0  0  0  0  0  0  0  0  0
   12.9512    2.5325  -58.8932 H   0  0  0  0  0  0  0  0  0  0  0  0
   12.2211    3.6471  -56.7799 H   0  0  0  0  0  0  0  0  0  0  0  0
   11.9240    5.4282  -56.7638 H   0  0  0  0  0  0  0  0  0  0  0  0
    9.9514    6.3916  -57.9671 H   0  0  0  0  0  0  0  0  0  0  0  0
    8.8326    5.2969  -58.8706 H   0  0  0  0  0  0  0  0  0  0  0  0
   10.2981   -0.0677  -56.6626 H   0  0  0  0  0  0  0  0  0  0  0  0
   11.2185   -2.5900  -54.2470 H   0  0  0  0  0  0  0  0  0  0  0  0
   11.1043   -1.6439  -57.1078 H   0  0  0  0  0  0  0  0  0  0  0  0
   12.4712   -1.6481  -55.8987 H   0  0  0  0  0  0  0  0  0  0  0  0
   11.5642   -3.7788  -57.7924 H   0  0  0  0  0  0  0  0  0  0  0  0
   13.2250   -3.2906  -57.2448 H   0  0  0  0  0  0  0  0  0  0  0  0
   12.8155   -4.3220  -55.0737 H   0  0  0  0  0  0  0  0  0  0  0  0
   10.3778   -5.7357  -56.1195 H   0  0  0  0  0  0  0  0  0  0  0  0
   10.9232   -5.3735  -54.4129 H   0  0  0  0  0  0  0  0  0  0  0  0
    9.2950   -3.7300  -56.3058 H   0  0  0  0  0  0  0  0  0  0  0  0
    9.1989   -3.9284  -54.5055 H   0  0  0  0  0  0  0  0  0  0  0  0
    6.6339   -2.6662  -53.4994 H   0  0  0  0  0  0  0  0  0  0  0  0
  1  2  1  0
  2  3  2  0
  3  4  1  0
  4  5  2  0
  5  6  1  0
  6  7  1  0
  7  8  2  0
  8  9  1  0
  8 10  1  0
 10 11  1  0
 11 12  2  0
 11 13  1  0
 13 14  1  0
 15 14  1  1
 15 16  1  0
 16 17  1  0
 17 18  1  0
 18 19  1  0
 19 20  1  0
 20 21  1  0
 21 22  1  0
 21 23  1  0
 19 24  1  0
 10 25  2  0
 25 26  1  0
 26 27  1  0
 27 28  1  0
 28 29  1  0
 29 30  1  0
 30 31  1  0
 30 32  1  0
 32 33  1  0
  6 34  2  0
 34  2  1  0
 26  7  1  0
 33 27  1  0
 23 15  1  0
 24 15  1  0
 22 17  1  0
  1 35  1  0
  1 36  1  0
  1 37  1  0
  3 38  1  0
  4 39  1  0
  5 40  1  0
  9 41  1  0
  9 42  1  0
  9 43  1  0
 13 44  1  0
 14 45  1  0
 14 46  1  0
 16 47  1  0
 16 48  1  0
 17 49  1  6
 18 50  1  0
 18 51  1  0
 19 52  1  6
 20 53  1  0
 20 54  1  0
 21 55  1  1
 22 56  1  0
 22 57  1  0
 23 58  1  0
 23 59  1  0
 24 60  1  0
 24 61  1  0
 25 62  1  0
 27 63  1  6
 28 64  1  0
 28 65  1  0
 29 66  1  0
 29 67  1  0
 30 68  1  6
 32 69  1  0
 32 70  1  0
 33 71  1  0
 33 72  1  0
 34 73  1  0
M  END
>  <meeko>  (107) 
{"is_sidechain": false}

$$$$

     RDKit          3D

 79 83  0  0  0  0  0  0  0  0999 V2000
    7.0590   -4.3470  -50.9640 C   0  0  0  0  0  0  0  0  0  0  0  0
    7.8230   -3.7230  -52.1240 C   0  0  0  0  0  0  0  0  0  0  0  0
    8.3050   -2.2960  -51.8460 C   0  0  0  0  0  0  0  0  0  0  0  0
    8.2700   -1.4150  -53.0630 C   0  0  0  0  0  0  0  0  0  0  0  0
    7.2090   -0.6720  -53.5760 C   0  0  0  0  0  0  0  0  0  0  0  0
    5.8380   -0.5380  -52.9960 C   0  0  0  0  0  0  0  0  0  0  0  0
    7.6440   -0.0660  -54.8040 C   0  0  0  0  0  0  0  0  0  0  0  0
    6.8540    0.7900  -55.6990 C   0  0  0  0  0  0  0  0  0  0  0  0
    5.6260    0.7950  -55.6940 O   0  0  0  0  0  0  0  0  0  0  0  0
    7.5930    1.5730  -56.5630 N   0  0  0  0  0  0  0  0  0  0  0  0
    6.9630    2.3920  -57.5780 C   0  0  0  0  0  0  0  0  0  0  0  0
    7.7630    2.3710  -58.8840 C   0  0  0  0  0  0  0  0  0  0  0  0
    9.1000    3.1490  -58.8670 C   0  0  2  0  0  0  0  0  0  0  0  0
    9.5760    3.5150  -60.2950 C   0  0  0  0  0  0  0  0  0  0  0  0
   10.8760    4.3380  -60.2440 C   0  0  1  0  0  0  0  0  0  0  0  0
   10.6320    5.6310  -59.4520 C   0  0  0  0  0  0  0  0  0  0  0  0
   10.1870    5.2940  -58.0200 C   0  0  2  0  0  0  0  0  0  0  0  0
   11.2800    4.4650  -57.3280 C   0  0  0  0  0  0  0  0  0  0  0  0
   11.5280    3.1660  -58.1100 C   0  0  2  0  0  0  0  0  0  0  0  0
   11.9690    3.5130  -59.5420 C   0  0  0  0  0  0  0  0  0  0  0  0
   10.2260    2.3450  -58.1670 C   0  0  0  0  0  0  0  0  0  0  0  0
    8.8900    4.4710  -58.0760 C   0  0  0  0  0  0  0  0  0  0  0  0
    8.9640   -0.4490  -54.9680 C   0  0  0  0  0  0  0  0  0  0  0  0
    9.3570   -1.1980  -53.8840 N   0  0  0  0  0  0  0  0  0  0  0  0
   10.7040   -1.7250  -53.7310 C   0  0  0  0  0  0  0  0  0  0  0  0
   11.1880   -2.7040  -54.8250 C   0  0  2  0  0  0  0  0  0  0  0  0
   11.4870   -2.0130  -56.1620 C   0  0  0  0  0  0  0  0  0  0  0  0
   12.0250   -3.0010  -57.1950 C   0  0  0  0  0  0  0  0  0  0  0  0
   11.0850   -4.1910  -57.4030 C   0  0  1  0  0  0  0  0  0  0  0  0
   11.7400   -5.0900  -58.3030 O   0  0  0  0  0  0  0  0  0  0  0  0
   12.2510   -6.2540  -57.6690 C   0  0  0  0  0  0  0  0  0  0  0  0
   10.7870   -4.8770  -56.0660 C   0  0  0  0  0  0  0  0  0  0  0  0
   10.2380   -3.8940  -55.0360 C   0  0  0  0  0  0  0  0  0  0  0  0
    7.4869   -3.9975  -50.0128 H   0  0  0  0  0  0  0  0  0  0  0  0
    6.0009   -4.0515  -51.0206 H   0  0  0  0  0  0  0  0  0  0  0  0
    7.1372   -5.4428  -51.0206 H   0  0  0  0  0  0  0  0  0  0  0  0
    8.7005   -4.3503  -52.3396 H   0  0  0  0  0  0  0  0  0  0  0  0
    7.1278   -3.6679  -52.9747 H   0  0  0  0  0  0  0  0  0  0  0  0
    7.6592   -1.8524  -51.0739 H   0  0  0  0  0  0  0  0  0  0  0  0
    9.3530   -2.3615  -51.5182 H   0  0  0  0  0  0  0  0  0  0  0  0
    5.9022   -0.5443  -51.8979 H   0  0  0  0  0  0  0  0  0  0  0  0
    5.3888    0.4083  -53.3316 H   0  0  0  0  0  0  0  0  0  0  0  0
    5.2140   -1.3794  -53.3316 H   0  0  0  0  0  0  0  0  0  0  0  0
    8.5830    1.3980  -56.6340 H   0  0  0  0  0  0  0  0  0  0  0  0
    5.9507    2.0076  -57.7714 H   0  0  0  0  0  0  0  0  0  0  0  0
    6.9218    3.4286  -57.2122 H   0  0  0  0  0  0  0  0  0  0  0  0
    7.9863    1.3215  -59.1262 H   0  0  0  0  0  0  0  0  0  0  0  0
    7.1320    2.8776  -59.6291 H   0  0  0  0  0  0  0  0  0  0  0  0
    9.7566    2.5904  -60.8629 H   0  0  0  0  0  0  0  0  0  0  0  0
    8.7960    4.1180  -60.7828 H   0  0  0  0  0  0  0  0  0  0  0  0
   11.1953    4.5873  -61.2667 H   0  0  0  0  0  0  0  0  0  0  0  0
   11.5621    6.2172  -59.4160 H   0  0  0  0  0  0  0  0  0  0  0  0
    9.8423    6.2146  -59.9477 H   0  0  0  0  0  0  0  0  0  0  0  0
   10.0163    6.2237  -57.4574 H   0  0  0  0  0  0  0  0  0  0  0  0
   12.2108    5.0499  -57.2885 H   0  0  0  0  0  0  0  0  0  0  0  0
   10.9528    4.2156  -56.3078 H   0  0  0  0  0  0  0  0  0  0  0  0
   12.3127    2.5795  -57.6097 H   0  0  0  0  0  0  0  0  0  0  0  0
   12.8997    4.0982  -59.5048 H   0  0  0  0  0  0  0  0  0  0  0  0
   12.1357    2.5822  -60.1040 H   0  0  0  0  0  0  0  0  0  0  0  0
   10.4090    1.4167  -58.7281 H   0  0  0  0  0  0  0  0  0  0  0  0
    9.9087    2.1142  -57.1394 H   0  0  0  0  0  0  0  0  0  0  0  0
    8.5730    4.2297  -57.0507 H   0  0  0  0  0  0  0  0  0  0  0  0
    8.1201    5.0664  -58.5886 H   0  0  0  0  0  0  0  0  0  0  0  0
    9.5985   -0.1943  -55.8297 H   0  0  0  0  0  0  0  0  0  0  0  0
   11.3975   -0.8713  -53.7154 H   0  0  0  0  0  0  0  0  0  0  0  0
   10.6837   -2.3128  -52.8014 H   0  0  0  0  0  0  0  0  0  0  0  0
   12.1369   -3.1030  -54.4372 H   0  0  0  0  0  0  0  0  0  0  0  0
   10.5600   -1.5629  -56.5469 H   0  0  0  0  0  0  0  0  0  0  0  0
   12.2536   -1.2434  -55.9888 H   0  0  0  0  0  0  0  0  0  0  0  0
   12.1505   -2.4772  -58.1541 H   0  0  0  0  0  0  0  0  0  0  0  0
   12.9840   -3.3900  -56.8221 H   0  0  0  0  0  0  0  0  0  0  0  0
   10.1214   -3.8630  -57.8199 H   0  0  0  0  0  0  0  0  0  0  0  0
   12.1968   -6.1306  -56.5773 H   0  0  0  0  0  0  0  0  0  0  0  0
   11.6535   -7.1274  -57.9694 H   0  0  0  0  0  0  0  0  0  0  0  0
   13.2983   -6.4053  -57.9694 H   0  0  0  0  0  0  0  0  0  0  0  0
   10.0446   -5.6718  -56.2310 H   0  0  0  0  0  0  0  0  0  0  0  0
   11.7286   -5.2911  -55.6762 H   0  0  0  0  0  0  0  0  0  0  0  0
    9.2658   -3.5166  -55.3858 H   0  0  0  0  0  0  0  0  0  0  0  0
   10.1328   -4.4237  -54.0777 H   0  0  0  0  0  0  0  0  0  0  0  0
  1  2  1  0
  2  3  1  0
  3  4  1  0
  4  5  2  0
  5  6  1  0
  5  7  1  0
  7  8  1  0
  8  9  2  0
  8 10  1  0
 10 11  1  0
 11 12  1  0
 13 12  1  6
 13 14  1  0
 14 15  1  0
 15 16  1  0
 16 17  1  0
 17 18  1  0
 18 19  1  0
 19 20  1  0
 19 21  1  0
 17 22  1  0
  7 23  2  0
 23 24  1  0
 24 25  1  0
 25 26  1  0
 26 27  1  0
 27 28  1  0
 28 29  1  0
 29 30  1  0
 30 31  1  0
 29 32  1  0
 32 33  1  0
 24  4  1  0
 33 26  1  0
 21 13  1  0
 22 13  1  0
 20 15  1  0
  1 34  1  0
  1 35  1  0
  1 36  1  0
  2 37  1  0
  2 38  1  0
  3 39  1  0
  3 40  1  0
  6 41  1  0
  6 42  1  0
  6 43  1  0
 10 44  1  0
 11 45  1  0
 11 46  1  0
 12 47  1  0
 12 48  1  0
 14 49  1  0
 14 50  1  0
 15 51  1  6
 16 52  1  0
 16 53  1  0
 17 54  1  1
 18 55  1  0
 18 56  1  0
 19 57  1  1
 20 58  1  0
 20 59  1  0
 21 60  1  0
 21 61  1  0
 22 62  1  0
 22 63  1  0
 23 64  1  0
 25 65  1  0
 25 66  1  0
 26 67  1  6
 27 68  1  0
 27 69  1  0
 28 70  1  0
 28 71  1  0
 29 72  1  1
 31 73  1  0
 31 74  1  0
 31 75  1  0
 32 76  1  0
 32 77  1  0
 33 78  1  0
 33 79  1  0
M  END
>  <meeko>  (108) 
{"is_sidechain": false}

$$$$

     RDKit          3D

 67 71  0  0  0  0  0  0  0  0999 V2000
    7.4140    0.1100  -52.8890 C   0  0  0  0  0  0  0  0  0  0  0  0
    8.5100   -0.4700  -53.7200 C   0  0  0  0  0  0  0  0  0  0  0  0
    8.9710    0.0660  -54.9730 C   0  0  0  0  0  0  0  0  0  0  0  0
    8.4550    1.2470  -55.6760 C   0  0  0  0  0  0  0  0  0  0  0  0
    7.2890    1.3360  -56.0490 O   0  0  0  0  0  0  0  0  0  0  0  0
    9.3830    2.2440  -55.8950 N   0  0  0  0  0  0  0  0  0  0  0  0
    9.0540    3.4880  -56.5590 C   0  0  0  0  0  0  0  0  0  0  0  0
    9.9850    3.8190  -57.7450 C   0  0  2  0  0  0  0  0  0  0  0  0
   10.0670    2.6390  -58.7480 C   0  0  0  0  0  0  0  0  0  0  0  0
   10.9600    3.0040  -59.9460 C   0  0  1  0  0  0  0  0  0  0  0  0
   10.3730    4.2310  -60.6620 C   0  0  0  0  0  0  0  0  0  0  0  0
   10.3090    5.4230  -59.6940 C   0  0  2  0  0  0  0  0  0  0  0  0
   11.7230    5.7470  -59.1900 C   0  0  0  0  0  0  0  0  0  0  0  0
   12.3160    4.5270  -58.4670 C   0  0  2  0  0  0  0  0  0  0  0  0
   12.3730    3.3390  -59.4410 C   0  0  0  0  0  0  0  0  0  0  0  0
   11.4210    4.1590  -57.2710 C   0  0  0  0  0  0  0  0  0  0  0  0
    9.4180    5.0530  -58.4960 C   0  0  0  0  0  0  0  0  0  0  0  0
   10.0320   -0.7350  -55.3590 C   0  0  0  0  0  0  0  0  0  0  0  0
   10.1900   -1.7540  -54.4490 N   0  0  0  0  0  0  0  0  0  0  0  0
   11.2430   -2.7540  -54.5600 C   0  0  0  0  0  0  0  0  0  0  0  0
   11.2450   -3.6260  -55.8320 C   0  0  0  0  0  0  0  0  0  0  0  0
   11.8640   -5.0160  -55.6130 C   0  0  0  0  0  0  0  0  0  0  0  0
   11.7620   -5.8770  -56.8730 C   0  0  0  0  0  0  0  0  0  0  0  0
   12.3910   -5.1840  -58.0780 C   0  0  0  0  0  0  0  0  0  0  0  0
   11.8030   -3.7930  -58.2970 C   0  0  0  0  0  0  0  0  0  0  0  0
   11.8970   -2.9340  -57.0370 C   0  0  0  0  0  0  0  0  0  0  0  0
    9.2740   -1.5960  -53.4290 C   0  0  0  0  0  0  0  0  0  0  0  0
    9.2730   -2.4830  -52.3210 C   0  0  0  0  0  0  0  0  0  0  0  0
    8.2470   -3.2790  -52.0020 C   0  0  0  0  0  0  0  0  0  0  0  0
    6.7720   -3.4480  -52.8590 Cl  0  0  0  0  0  0  0  0  0  0  0  0
    7.6551   -0.0176  -51.8234 H   0  0  0  0  0  0  0  0  0  0  0  0
    7.3097    1.1813  -53.1156 H   0  0  0  0  0  0  0  0  0  0  0  0
    6.4695   -0.4063  -53.1156 H   0  0  0  0  0  0  0  0  0  0  0  0
   10.3410    2.0780  -55.6330 H   0  0  0  0  0  0  0  0  0  0  0  0
    8.0225    3.4196  -56.9349 H   0  0  0  0  0  0  0  0  0  0  0  0
    9.1762    4.2919  -55.8181 H   0  0  0  0  0  0  0  0  0  0  0  0
   10.4886    1.7603  -58.2379 H   0  0  0  0  0  0  0  0  0  0  0  0
    9.0545    2.4174  -59.1165 H   0  0  0  0  0  0  0  0  0  0  0  0
   11.0073    2.1557  -60.6447 H   0  0  0  0  0  0  0  0  0  0  0  0
   11.0104    4.4919  -61.5197 H   0  0  0  0  0  0  0  0  0  0  0  0
    9.3571    3.9940  -61.0110 H   0  0  0  0  0  0  0  0  0  0  0  0
    9.8923    6.2988  -60.2130 H   0  0  0  0  0  0  0  0  0  0  0  0
   12.3630    6.0103  -60.0450 H   0  0  0  0  0  0  0  0  0  0  0  0
   11.6712    6.5925  -58.4883 H   0  0  0  0  0  0  0  0  0  0  0  0
   13.3294    4.7648  -58.1114 H   0  0  0  0  0  0  0  0  0  0  0  0
   13.0132    3.6000  -60.2966 H   0  0  0  0  0  0  0  0  0  0  0  0
   12.7864    2.4637  -58.9186 H   0  0  0  0  0  0  0  0  0  0  0  0
   11.8476    3.2855  -56.7562 H   0  0  0  0  0  0  0  0  0  0  0  0
   11.3732    5.0194  -56.5873 H   0  0  0  0  0  0  0  0  0  0  0  0
    9.3726    5.9065  -57.8036 H   0  0  0  0  0  0  0  0  0  0  0  0
    8.4126    4.8067  -58.8683 H   0  0  0  0  0  0  0  0  0  0  0  0
   10.6522   -0.5805  -56.2543 H   0  0  0  0  0  0  0  0  0  0  0  0
   12.2077   -2.2272  -54.5166 H   0  0  0  0  0  0  0  0  0  0  0  0
   11.0617   -3.4549  -53.7318 H   0  0  0  0  0  0  0  0  0  0  0  0
   10.1801   -3.7705  -56.0669 H   0  0  0  0  0  0  0  0  0  0  0  0
   12.9243   -4.8975  -55.3454 H   0  0  0  0  0  0  0  0  0  0  0  0
   11.3113   -5.5178  -54.8051 H   0  0  0  0  0  0  0  0  0  0  0  0
   12.2823   -6.8301  -56.6974 H   0  0  0  0  0  0  0  0  0  0  0  0
   10.6968   -6.0456  -57.0898 H   0  0  0  0  0  0  0  0  0  0  0  0
   13.4743   -5.0913  -57.9111 H   0  0  0  0  0  0  0  0  0  0  0  0
   12.1814   -5.7904  -58.9715 H   0  0  0  0  0  0  0  0  0  0  0  0
   12.3550   -3.2966  -59.1087 H   0  0  0  0  0  0  0  0  0  0  0  0
   10.7398   -3.9073  -58.5551 H   0  0  0  0  0  0  0  0  0  0  0  0
   12.9571   -2.7468  -56.8107 H   0  0  0  0  0  0  0  0  0  0  0  0
   11.3627   -1.9906  -57.2229 H   0  0  0  0  0  0  0  0  0  0  0  0
   10.1707   -2.5177  -51.6862 H   0  0  0  0  0  0  0  0  0  0  0  0
    8.3615   -3.8896  -51.0942 H   0  0  0  0  0  0  0  0  0  0  0  0
  1  2  1  0
  2  3  1  0
  3  4  1  0
  4  5  2  0
  4  6  1  0
  6  7  1  0
  8  7  1  1
  8  9  1  0
  9 10  1  0
 10 11  1  0
 11 12  1  0
 12 13  1  0
 13 14  1  0
 14 15  1  0
 14 16  1  0
 12 17  1  0
  3 18  2  0
 18 19  1  0
 19 20  1  0
 20 21  1  0
 21 22  1  0
 22 23  1  0
 23 24  1  0
 24 25  1  0
 25 26  1  0
 19 27  1  0
 27 28  1  0
 28 29  2  0
 29 30  1  0
 27  2  2  0
 16  8  1  0
 26 21  1  0
 17  8  1  0
 15 10  1  0
  1 31  1  0
  1 32  1  0
  1 33  1  0
  6 34  1  0
  7 35  1  0
  7 36  1  0
  9 37  1  0
  9 38  1  0
 10 39  1  6
 11 40  1  0
 11 41  1  0
 12 42  1  6
 13 43  1  0
 13 44  1  0
 14 45  1  1
 15 46  1  0
 15 47  1  0
 16 48  1  0
 16 49  1  0
 17 50  1  0
 17 51  1  0
 18 52  1  0
 20 53  1  0
 20 54  1  0
 21 55  1  0
 22 56  1  0
 22 57  1  0
 23 58  1  0
 23 59  1  0
 24 60  1  0
 24 61  1  0
 25 62  1  0
 25 63  1  0
 26 64  1  0
 26 65  1  0
 28 66  1  0
 29 67  1  0
M  END
>  <meeko>  (109) 
{"is_sidechain": false}

$$$$

     RDKit          3D

 82 87  0  0  0  0  0  0  0  0999 V2000
    5.6860   -4.4880  -51.1360 C   0  0  0  0  0  0  0  0  0  0  0  0
    7.0170   -3.8160  -51.2900 C   0  0  0  0  0  0  0  0  0  0  0  0
    8.0670   -4.1120  -50.4130 C   0  0  0  0  0  0  0  0  0  0  0  0
    9.3120   -3.5010  -50.5700 C   0  0  0  0  0  0  0  0  0  0  0  0
    9.5230   -2.6010  -51.6140 C   0  0  0  0  0  0  0  0  0  0  0  0
    8.4930   -2.3180  -52.5150 C   0  0  0  0  0  0  0  0  0  0  0  0
    8.7180   -1.3870  -53.6200 C   0  0  0  0  0  0  0  0  0  0  0  0
    7.9110   -0.3430  -54.0630 C   0  0  0  0  0  0  0  0  0  0  0  0
    6.5990    0.0730  -53.4840 C   0  0  0  0  0  0  0  0  0  0  0  0
    8.5560    0.2680  -55.1970 C   0  0  0  0  0  0  0  0  0  0  0  0
    8.0630    1.4060  -55.9830 C   0  0  0  0  0  0  0  0  0  0  0  0
    6.9690    1.3970  -56.5390 O   0  0  0  0  0  0  0  0  0  0  0  0
    8.9250    2.4800  -56.0650 N   0  0  0  0  0  0  0  0  0  0  0  0
    8.6280    3.6620  -56.8470 C   0  0  0  0  0  0  0  0  0  0  0  0
    9.6880    3.9830  -57.9250 C   0  0  2  0  0  0  0  0  0  0  0  0
    9.7400    2.8060  -58.9360 C   0  0  0  0  0  0  0  0  0  0  0  0
   10.7750    3.0760  -60.0400 C   0  0  1  0  0  0  0  0  0  0  0  0
   10.3930    4.3630  -60.7870 C   0  0  0  0  0  0  0  0  0  0  0  0
   10.3630    5.5490  -59.8100 C   0  0  2  0  0  0  0  0  0  0  0  0
   11.7530    5.7130  -59.1720 C   0  0  0  0  0  0  0  0  0  0  0  0
   12.1410    4.4310  -58.4170 C   0  0  2  0  0  0  0  0  0  0  0  0
   12.1620    3.2510  -59.4010 C   0  0  0  0  0  0  0  0  0  0  0  0
   11.1020    4.1580  -57.3140 C   0  0  0  0  0  0  0  0  0  0  0  0
    9.3280    5.2740  -58.7060 C   0  0  0  0  0  0  0  0  0  0  0  0
    9.7360   -0.4350  -55.3870 C   0  0  0  0  0  0  0  0  0  0  0  0
    9.8370   -1.4090  -54.4230 N   0  0  0  0  0  0  0  0  0  0  0  0
   10.9570   -2.3340  -54.3220 C   0  0  0  0  0  0  0  0  0  0  0  0
   11.0240   -3.3720  -55.4600 C   0  0  2  0  0  0  0  0  0  0  0  0
   11.5430   -4.7320  -54.9830 C   0  0  0  0  0  0  0  0  0  0  0  0
   11.5820   -5.7790  -56.1020 C   0  0  0  0  0  0  0  0  0  0  0  0
   11.5720   -5.1820  -57.5060 C   0  0  1  0  0  0  0  0  0  0  0  0
   10.2730   -4.9000  -57.8260 F   0  0  0  0  0  0  0  0  0  0  0  0
   12.3900   -3.8830  -57.6270 C   0  0  0  0  0  0  0  0  0  0  0  0
   12.2460   -3.3240  -59.0560 C   0  0  0  0  0  0  0  0  0  0  0  0
   13.8870   -4.1770  -57.3910 C   0  0  0  0  0  0  0  0  0  0  0  0
   11.8940   -2.8180  -56.6100 C   0  0  0  0  0  0  0  0  0  0  0  0
    7.2430   -2.9240  -52.3470 C   0  0  0  0  0  0  0  0  0  0  0  0
    5.4555   -4.6044  -50.0667 H   0  0  0  0  0  0  0  0  0  0  0  0
    4.9081   -3.8746  -51.6141 H   0  0  0  0  0  0  0  0  0  0  0  0
    5.7177   -5.4781  -51.6141 H   0  0  0  0  0  0  0  0  0  0  0  0
    7.9100   -4.8306  -49.5951 H   0  0  0  0  0  0  0  0  0  0  0  0
   10.1282   -3.7298  -49.8690 H   0  0  0  0  0  0  0  0  0  0  0  0
   10.5021   -2.1129  -51.7285 H   0  0  0  0  0  0  0  0  0  0  0  0
    6.6602    0.0536  -52.3859 H   0  0  0  0  0  0  0  0  0  0  0  0
    6.3566    1.0921  -53.8198 H   0  0  0  0  0  0  0  0  0  0  0  0
    5.8137   -0.6202  -53.8198 H   0  0  0  0  0  0  0  0  0  0  0  0
    9.8410    2.3950  -55.6540 H   0  0  0  0  0  0  0  0  0  0  0  0
    7.6599    3.5120  -57.3472 H   0  0  0  0  0  0  0  0  0  0  0  0
    8.6157    4.5118  -56.1487 H   0  0  0  0  0  0  0  0  0  0  0  0
   10.0152    1.8845  -58.4020 H   0  0  0  0  0  0  0  0  0  0  0  0
    8.7493    2.6990  -59.4018 H   0  0  0  0  0  0  0  0  0  0  0  0
   10.7963    2.2317  -60.7448 H   0  0  0  0  0  0  0  0  0  0  0  0
   11.1338    4.5597  -61.5760 H   0  0  0  0  0  0  0  0  0  0  0  0
    9.3957    4.2384  -61.2341 H   0  0  0  0  0  0  0  0  0  0  0  0
   10.0906    6.4674  -60.3507 H   0  0  0  0  0  0  0  0  0  0  0  0
   12.4945    5.9098  -59.9603 H   0  0  0  0  0  0  0  0  0  0  0  0
   11.7278    6.5547  -58.4642 H   0  0  0  0  0  0  0  0  0  0  0  0
   13.1364    4.5524  -57.9648 H   0  0  0  0  0  0  0  0  0  0  0  0
   12.9042    3.4467  -60.1889 H   0  0  0  0  0  0  0  0  0  0  0  0
   12.4284    2.3322  -58.8580 H   0  0  0  0  0  0  0  0  0  0  0  0
   11.3792    3.2394  -56.7761 H   0  0  0  0  0  0  0  0  0  0  0  0
   11.0856    5.0142  -56.6236 H   0  0  0  0  0  0  0  0  0  0  0  0
    9.3096    6.1245  -58.0086 H   0  0  0  0  0  0  0  0  0  0  0  0
    8.3407    5.1410  -59.1725 H   0  0  0  0  0  0  0  0  0  0  0  0
   10.4725   -0.2438  -56.1814 H   0  0  0  0  0  0  0  0  0  0  0  0
   11.8890   -1.7498  -54.3327 H   0  0  0  0  0  0  0  0  0  0  0  0
   10.8181   -2.8978  -53.3877 H   0  0  0  0  0  0  0  0  0  0  0  0
   10.0002   -3.5438  -55.8238 H   0  0  0  0  0  0  0  0  0  0  0  0
   12.5615   -4.6009  -54.5888 H   0  0  0  0  0  0  0  0  0  0  0  0
   10.8505   -5.0983  -54.2108 H   0  0  0  0  0  0  0  0  0  0  0  0
   12.4983   -6.3764  -55.9859 H   0  0  0  0  0  0  0  0  0  0  0  0
   10.6688   -6.3846  -56.0054 H   0  0  0  0  0  0  0  0  0  0  0  0
   12.0318   -5.9164  -58.1836 H   0  0  0  0  0  0  0  0  0  0  0  0
   11.9719   -2.2598  -59.0075 H   0  0  0  0  0  0  0  0  0  0  0  0
   13.2014   -3.4326  -59.5902 H   0  0  0  0  0  0  0  0  0  0  0  0
   11.4619   -3.8807  -59.5902 H   0  0  0  0  0  0  0  0  0  0  0  0
   14.0870   -4.2163  -56.3100 H   0  0  0  0  0  0  0  0  0  0  0  0
   14.1473   -5.1434  -57.8474 H   0  0  0  0  0  0  0  0  0  0  0  0
   14.4934   -3.3808  -57.8474 H   0  0  0  0  0  0  0  0  0  0  0  0
   12.7757   -2.3314  -56.1675 H   0  0  0  0  0  0  0  0  0  0  0  0
   11.2529   -2.1262  -57.1760 H   0  0  0  0  0  0  0  0  0  0  0  0
    6.4293   -2.6979  -53.0519 H   0  0  0  0  0  0  0  0  0  0  0  0
  1  2  1  0
  2  3  2  0
  3  4  1  0
  4  5  2  0
  5  6  1  0
  6  7  1  0
  7  8  2  0
  8  9  1  0
  8 10  1  0
 10 11  1  0
 11 12  2  0
 11 13  1  0
 13 14  1  0
 15 14  1  1
 15 16  1  0
 16 17  1  0
 17 18  1  0
 18 19  1  0
 19 20  1  0
 20 21  1  0
 21 22  1  0
 21 23  1  0
 19 24  1  0
 10 25  2  0
 25 26  1  0
 26 27  1  0
 27 28  1  0
 28 29  1  0
 29 30  1  0
 30 31  1  0
 31 32  1  0
 31 33  1  0
 33 34  1  0
 33 35  1  0
 33 36  1  0
  6 37  2  0
 37  2  1  0
 26  7  1  0
 36 28  1  0
 23 15  1  0
 24 15  1  0
 22 17  1  0
  1 38  1  0
  1 39  1  0
  1 40  1  0
  3 41  1  0
  4 42  1  0
  5 43  1  0
  9 44  1  0
  9 45  1  0
  9 46  1  0
 13 47  1  0
 14 48  1  0
 14 49  1  0
 16 50  1  0
 16 51  1  0
 17 52  1  6
 18 53  1  0
 18 54  1  0
 19 55  1  6
 20 56  1  0
 20 57  1  0
 21 58  1  1
 22 59  1  0
 22 60  1  0
 23 61  1  0
 23 62  1  0
 24 63  1  0
 24 64  1  0
 25 65  1  0
 27 66  1  0
 27 67  1  0
 28 68  1  6
 29 69  1  0
 29 70  1  0
 30 71  1  0
 30 72  1  0
 31 73  1  6
 34 74  1  0
 34 75  1  0
 34 76  1  0
 35 77  1  0
 35 78  1  0
 35 79  1  0
 36 80  1  0
 36 81  1  0
 37 82  1  0
M  END
>  <meeko>  (110) 
{"is_sidechain": false}

$$$$

     RDKit          3D

 47 49  0  0  0  0  0  0  0  0999 V2000
   10.2310    1.4760  -56.4400 C   0  0  0  0  0  0  0  0  0  0  0  0
   10.8280    2.5850  -57.2280 C   0  0  0  0  0  0  0  0  0  0  0  0
   12.1210    2.7620  -57.4180 N   0  0  0  0  0  0  0  0  0  0  0  0
   12.2280    3.8640  -58.2190 C   0  0  0  0  0  0  0  0  0  0  0  0
   13.3910    4.3870  -58.6680 N   0  0  0  0  0  0  0  0  0  0  0  0
   13.2460    5.4730  -59.4540 C   0  0  0  0  0  0  0  0  0  0  0  0
   12.0380    6.0580  -59.8140 C   0  0  0  0  0  0  0  0  0  0  0  0
   10.8440    5.5130  -59.3450 C   0  0  0  0  0  0  0  0  0  0  0  0
   10.9790    4.3880  -58.5290 C   0  0  0  0  0  0  0  0  0  0  0  0
   10.0970    3.5680  -57.8640 N   0  0  0  0  0  0  0  0  0  0  0  0
    8.6510    3.6920  -57.8730 C   0  0  0  0  0  0  0  0  0  0  0  0
    7.9600    2.8840  -58.9900 C   0  0  2  0  0  0  0  0  0  0  0  0
    7.7800    3.7740  -60.2330 C   0  0  0  0  0  0  0  0  0  0  0  0
    7.0670    3.0370  -61.3660 C   0  0  0  0  0  0  0  0  0  0  0  0
    5.7230    2.4710  -60.9000 C   0  0  1  0  0  0  0  0  0  0  0  0
    4.9280    1.8820  -62.0670 C   0  0  0  0  0  0  0  0  0  0  0  0
    5.3110    2.1220  -63.2200 O   0  0  0  0  0  0  0  0  0  0  0  0
    3.7020    0.9900  -61.8700 C   0  0  0  0  0  0  0  0  0  0  0  0
    2.5870    1.6200  -61.0490 C   0  0  0  0  0  0  0  0  0  0  0  0
    3.2010    0.3980  -63.1810 C   0  0  0  0  0  0  0  0  0  0  0  0
    5.8910    1.5740  -59.6760 C   0  0  0  0  0  0  0  0  0  0  0  0
    6.6050    2.3090  -58.5400 C   0  0  0  0  0  0  0  0  0  0  0  0
   10.3444    1.6867  -55.3663 H   0  0  0  0  0  0  0  0  0  0  0  0
    9.1625    1.3858  -56.6851 H   0  0  0  0  0  0  0  0  0  0  0  0
   10.7441    0.5344  -56.6851 H   0  0  0  0  0  0  0  0  0  0  0  0
   14.1641    5.9363  -59.8443 H   0  0  0  0  0  0  0  0  0  0  0  0
   12.0242    6.9449  -60.4645 H   0  0  0  0  0  0  0  0  0  0  0  0
    9.8628    5.9398  -59.6001 H   0  0  0  0  0  0  0  0  0  0  0  0
    8.2675    3.3405  -56.9038 H   0  0  0  0  0  0  0  0  0  0  0  0
    8.4233    4.7520  -58.0590 H   0  0  0  0  0  0  0  0  0  0  0  0
    8.6054    2.0278  -59.2359 H   0  0  0  0  0  0  0  0  0  0  0  0
    7.1861    4.6570  -59.9546 H   0  0  0  0  0  0  0  0  0  0  0  0
    8.7789    4.0634  -60.5914 H   0  0  0  0  0  0  0  0  0  0  0  0
    6.8927    3.7377  -62.1958 H   0  0  0  0  0  0  0  0  0  0  0  0
    7.7029    2.2004  -61.6912 H   0  0  0  0  0  0  0  0  0  0  0  0
    5.0856    3.2915  -60.5387 H   0  0  0  0  0  0  0  0  0  0  0  0
    4.0593    0.1532  -61.2518 H   0  0  0  0  0  0  0  0  0  0  0  0
    2.8056    1.4965  -59.9780 H   0  0  0  0  0  0  0  0  0  0  0  0
    2.5164    2.6915  -61.2877 H   0  0  0  0  0  0  0  0  0  0  0  0
    1.6328    1.1276  -61.2877 H   0  0  0  0  0  0  0  0  0  0  0  0
    2.5038   -0.4259  -62.9685 H   0  0  0  0  0  0  0  0  0  0  0  0
    2.6831    1.1764  -63.7606 H   0  0  0  0  0  0  0  0  0  0  0  0
    4.0543    0.0160  -63.7606 H   0  0  0  0  0  0  0  0  0  0  0  0
    4.8979    1.2545  -59.3272 H   0  0  0  0  0  0  0  0  0  0  0  0
    6.5012    0.7053  -59.9641 H   0  0  0  0  0  0  0  0  0  0  0  0
    5.9659    3.1345  -58.1936 H   0  0  0  0  0  0  0  0  0  0  0  0
    6.7929    1.5867  -57.7320 H   0  0  0  0  0  0  0  0  0  0  0  0
  1  2  1  0
  2  3  2  0
  3  4  1  0
  4  5  1  0
  5  6  2  0
  6  7  1  0
  7  8  2  0
  8  9  1  0
  9 10  1  0
 10 11  1  0
 11 12  1  0
 12 13  1  0
 13 14  1  0
 14 15  1  0
 15 16  1  0
 16 17  2  0
 16 18  1  0
 18 19  1  0
 18 20  1  0
 15 21  1  0
 21 22  1  0
 10  2  1  0
 22 12  1  0
  9  4  2  0
  1 23  1  0
  1 24  1  0
  1 25  1  0
  6 26  1  0
  7 27  1  0
  8 28  1  0
 11 29  1  0
 11 30  1  0
 12 31  1  1
 13 32  1  0
 13 33  1  0
 14 34  1  0
 14 35  1  0
 15 36  1  6
 18 37  1  0
 19 38  1  0
 19 39  1  0
 19 40  1  0
 20 41  1  0
 20 42  1  0
 20 43  1  0
 21 44  1  0
 21 45  1  0
 22 46  1  0
 22 47  1  0
M  END
>  <meeko>  (111) 
{"is_sidechain": false}

$$$$

     RDKit          3D

 48 50  0  0  0  0  0  0  0  0999 V2000
    5.7170    2.5460  -57.0340 C   0  0  0  0  0  0  0  0  0  0  0  0
    5.1960    2.3930  -58.4210 C   0  0  0  0  0  0  0  0  0  0  0  0
    3.9010    2.2840  -58.7310 N   0  0  0  0  0  0  0  0  0  0  0  0
    3.7320    2.1060  -60.0640 C   0  0  0  0  0  0  0  0  0  0  0  0
    2.5410    1.9290  -60.7190 N   0  0  0  0  0  0  0  0  0  0  0  0
    2.7060    1.7540  -62.0570 C   0  0  0  0  0  0  0  0  0  0  0  0
    3.9450    1.7500  -62.7200 C   0  0  0  0  0  0  0  0  0  0  0  0
    5.1460    1.9360  -62.0080 C   0  0  0  0  0  0  0  0  0  0  0  0
    5.0010    2.1210  -60.6340 C   0  0  0  0  0  0  0  0  0  0  0  0
    5.8980    2.3390  -59.5790 N   0  0  0  0  0  0  0  0  0  0  0  0
    7.3630    2.4210  -59.7150 C   0  0  0  0  0  0  0  0  0  0  0  0
    7.8120    3.6030  -60.5980 C   0  0  2  0  0  0  0  0  0  0  0  0
    9.1420    3.2880  -61.3190 C   0  0  0  0  0  0  0  0  0  0  0  0
   10.3390    4.1020  -60.8240 C   0  0  0  0  0  0  0  0  0  0  0  0
   10.3040    4.2610  -59.3050 C   0  0  1  0  0  0  0  0  0  0  0  0
   11.6500    4.7540  -58.7670 C   0  0  0  0  0  0  0  0  0  0  0  0
   11.8280    4.7240  -57.5450 O   0  0  0  0  0  0  0  0  0  0  0  0
   12.7430    5.2520  -59.7180 C   0  0  0  0  0  0  0  0  0  0  0  0
   14.0350    4.4590  -59.5620 C   0  0  0  0  0  0  0  0  0  0  0  0
   13.0210    6.7390  -59.4870 C   0  0  0  0  0  0  0  0  0  0  0  0
    9.0580    5.0220  -58.8400 C   0  0  0  0  0  0  0  0  0  0  0  0
    7.8870    4.9280  -59.8250 C   0  0  0  0  0  0  0  0  0  0  0  0
    4.9187    2.3116  -56.3145 H   0  0  0  0  0  0  0  0  0  0  0  0
    6.5616    1.8580  -56.8816 H   0  0  0  0  0  0  0  0  0  0  0  0
    6.0555    3.5815  -56.8816 H   0  0  0  0  0  0  0  0  0  0  0  0
    3.1230    2.3010  -58.0820 H   0  0  0  0  0  0  0  0  0  0  0  0
    1.8023    1.6044  -62.6660 H   0  0  0  0  0  0  0  0  0  0  0  0
    3.9774    1.5997  -63.8092 H   0  0  0  0  0  0  0  0  0  0  0  0
    6.1291    1.9353  -62.5014 H   0  0  0  0  0  0  0  0  0  0  0  0
    7.8034    2.5418  -58.7143 H   0  0  0  0  0  0  0  0  0  0  0  0
    7.7047    1.4946  -60.1999 H   0  0  0  0  0  0  0  0  0  0  0  0
    7.0344    3.7382  -61.3642 H   0  0  0  0  0  0  0  0  0  0  0  0
    9.3678    2.2213  -61.1733 H   0  0  0  0  0  0  0  0  0  0  0  0
    8.9965    3.5558  -62.3759 H   0  0  0  0  0  0  0  0  0  0  0  0
   11.2675    3.5863  -61.1102 H   0  0  0  0  0  0  0  0  0  0  0  0
   10.2958    5.1014  -61.2815 H   0  0  0  0  0  0  0  0  0  0  0  0
   10.1812    3.2736  -58.8360 H   0  0  0  0  0  0  0  0  0  0  0  0
   12.3724    5.1039  -60.7430 H   0  0  0  0  0  0  0  0  0  0  0  0
   14.2554    4.3237  -58.4928 H   0  0  0  0  0  0  0  0  0  0  0  0
   13.9213    3.4750  -60.0403 H   0  0  0  0  0  0  0  0  0  0  0  0
   14.8609    5.0059  -60.0403 H   0  0  0  0  0  0  0  0  0  0  0  0
   13.0588    6.9414  -58.4064 H   0  0  0  0  0  0  0  0  0  0  0  0
   13.9848    7.0072  -59.9443 H   0  0  0  0  0  0  0  0  0  0  0  0
   12.2191    7.3373  -59.9443 H   0  0  0  0  0  0  0  0  0  0  0  0
    8.7356    4.6067  -57.8738 H   0  0  0  0  0  0  0  0  0  0  0  0
    9.3346    6.0839  -58.7633 H   0  0  0  0  0  0  0  0  0  0  0  0
    6.9514    5.0497  -59.2595 H   0  0  0  0  0  0  0  0  0  0  0  0
    8.0423    5.7192  -60.5732 H   0  0  0  0  0  0  0  0  0  0  0  0
  1  2  1  0
  2  3  2  0
  3  4  1  0
  4  5  1  0
  5  6  2  0
  6  7  1  0
  7  8  2  0
  8  9  1  0
  9 10  1  0
 10 11  1  0
 11 12  1  0
 12 13  1  0
 13 14  1  0
 14 15  1  0
 15 16  1  0
 16 17  2  0
 16 18  1  0
 18 19  1  0
 18 20  1  0
 15 21  1  0
 21 22  1  0
 10  2  1  0
 22 12  1  0
  9  4  2  0
  1 23  1  0
  1 24  1  0
  1 25  1  0
  3 26  1  0
  6 27  1  0
  7 28  1  0
  8 29  1  0
 11 30  1  0
 11 31  1  0
 12 32  1  1
 13 33  1  0
 13 34  1  0
 14 35  1  0
 14 36  1  0
 15 37  1  6
 18 38  1  0
 19 39  1  0
 19 40  1  0
 19 41  1  0
 20 42  1  0
 20 43  1  0
 20 44  1  0
 21 45  1  0
 21 46  1  0
 22 47  1  0
 22 48  1  0
M  CHG  1   3   1
M  END
>  <meeko>  (112) 
{"is_sidechain": false}

$$$$

     RDKit          3D

 89 92  0  0  0  0  0  0  0  0999 V2000
    7.8530   -2.5050  -50.1130 C   0  0  0  0  0  0  0  0  0  0  0  0
    7.8570   -1.7470  -51.4330 C   0  0  0  0  0  0  0  0  0  0  0  0
    8.4760   -2.4480  -52.6800 C   0  0  0  0  0  0  0  0  0  0  0  0
   10.0050   -2.5910  -52.5060 C   0  0  0  0  0  0  0  0  0  0  0  0
    7.9070   -3.8960  -52.6950 C   0  0  0  0  0  0  0  0  0  0  0  0
    8.1390   -1.7790  -54.0690 C   0  0  2  0  0  0  0  0  0  0  0  0
    8.7430   -0.3770  -54.2910 C   0  0  0  0  0  0  0  0  0  0  0  0
    8.1210    0.3020  -55.5100 C   0  0  0  0  0  0  0  0  0  0  0  0
    6.6300    0.6070  -55.3000 C   0  0  1  0  0  0  0  0  0  0  0  0
    5.8440    0.7790  -56.6300 C   0  0  0  0  0  0  0  0  0  0  0  0
    6.4080    1.5810  -57.7250 N   0  0  0  0  0  0  0  0  0  0  0  0
    5.9750    0.9630  -58.9730 O   0  0  0  0  0  0  0  0  0  0  0  0
    5.5050    2.0140  -59.8190 C   0  0  2  0  0  0  0  0  0  0  0  0
    4.1680    1.5890  -60.4160 C   0  0  0  0  0  0  0  0  0  0  0  0
    6.5560    2.2150  -60.9640 C   0  0  0  0  0  0  0  0  0  0  0  0
    6.2530    2.3020  -62.1540 O   0  0  0  0  0  0  0  0  0  0  0  0
    7.8670    2.2880  -60.5280 N   0  0  0  0  0  0  0  0  0  0  0  0
    9.0040    2.3140  -61.4370 C   0  0  2  0  0  0  0  0  0  0  0  0
   10.1040    1.3670  -60.9540 C   0  0  0  0  0  0  0  0  0  0  0  0
   10.7250    1.8020  -59.6200 C   0  0  0  0  0  0  0  0  0  0  0  0
   10.7440    3.3310  -59.4000 C   0  0  1  0  0  0  0  0  0  0  0  0
   11.8730    3.7520  -58.4200 C   0  0  0  0  0  0  0  0  0  0  0  0
   13.1730    4.0680  -59.1700 C   0  0  0  0  0  0  0  0  0  0  0  0
   12.1590    2.7240  -57.3210 C   0  0  0  0  0  0  0  0  0  0  0  0
   10.7630    4.0700  -60.7440 C   0  0  0  0  0  0  0  0  0  0  0  0
    9.5360    3.7440  -61.6070 C   0  0  0  0  0  0  0  0  0  0  0  0
    5.2880    3.1780  -59.0360 O   0  0  0  0  0  0  0  0  0  0  0  0
    5.9640    2.9690  -57.7990 C   0  0  2  0  0  0  0  0  0  0  0  0
    7.1230    3.9560  -57.6610 C   0  0  0  0  0  0  0  0  0  0  0  0
    7.3520    4.9530  -58.6250 C   0  0  0  0  0  0  0  0  0  0  0  0
    8.4330    5.8290  -58.5100 C   0  0  0  0  0  0  0  0  0  0  0  0
    9.3120    5.7180  -57.4360 C   0  0  0  0  0  0  0  0  0  0  0  0
    9.1170    4.7330  -56.4650 C   0  0  0  0  0  0  0  0  0  0  0  0
   10.0810    4.5850  -55.3250 C   0  0  0  0  0  0  0  0  0  0  0  0
    8.0360    3.8490  -56.5950 C   0  0  0  0  0  0  0  0  0  0  0  0
    5.9560   -0.4670  -54.4140 C   0  0  0  0  0  0  0  0  0  0  0  0
    6.6450   -1.8260  -54.4760 C   0  0  0  0  0  0  0  0  0  0  0  0
    7.8568   -1.7882  -49.2786 H   0  0  0  0  0  0  0  0  0  0  0  0
    6.9515   -3.1325  -50.0533 H   0  0  0  0  0  0  0  0  0  0  0  0
    8.7478   -3.1420  -50.0533 H   0  0  0  0  0  0  0  0  0  0  0  0
    6.8108   -1.5104  -51.6770 H   0  0  0  0  0  0  0  0  0  0  0  0
    8.5132   -0.8832  -51.2507 H   0  0  0  0  0  0  0  0  0  0  0  0
   10.2515   -2.6141  -51.4342 H   0  0  0  0  0  0  0  0  0  0  0  0
   10.3422   -3.5246  -52.9800 H   0  0  0  0  0  0  0  0  0  0  0  0
   10.5095   -1.7361  -52.9800 H   0  0  0  0  0  0  0  0  0  0  0  0
    7.7692   -4.2465  -51.6615 H   0  0  0  0  0  0  0  0  0  0  0  0
    6.9388   -3.9041  -53.2171 H   0  0  0  0  0  0  0  0  0  0  0  0
    8.6107   -4.5611  -53.2171 H   0  0  0  0  0  0  0  0  0  0  0  0
    8.6672   -2.4472  -54.7651 H   0  0  0  0  0  0  0  0  0  0  0  0
    8.5547    0.2406  -53.4004 H   0  0  0  0  0  0  0  0  0  0  0  0
    9.8238   -0.4852  -54.4644 H   0  0  0  0  0  0  0  0  0  0  0  0
    8.6531    1.2456  -55.7011 H   0  0  0  0  0  0  0  0  0  0  0  0
    8.2104   -0.3851  -56.3644 H   0  0  0  0  0  0  0  0  0  0  0  0
    6.5939    1.5758  -54.7804 H   0  0  0  0  0  0  0  0  0  0  0  0
    5.6767   -0.2313  -57.0315 H   0  0  0  0  0  0  0  0  0  0  0  0
    4.9602    1.3586  -56.3250 H   0  0  0  0  0  0  0  0  0  0  0  0
    3.4595    1.3638  -59.6053 H   0  0  0  0  0  0  0  0  0  0  0  0
    3.7679    2.4042  -61.0367 H   0  0  0  0  0  0  0  0  0  0  0  0
    4.3120    0.6924  -61.0367 H   0  0  0  0  0  0  0  0  0  0  0  0
    8.0300    2.0210  -59.5620 H   0  0  0  0  0  0  0  0  0  0  0  0
    8.6655    1.9637  -62.4233 H   0  0  0  0  0  0  0  0  0  0  0  0
    9.6725    0.3629  -60.8291 H   0  0  0  0  0  0  0  0  0  0  0  0
   10.9038    1.3786  -61.7091 H   0  0  0  0  0  0  0  0  0  0  0  0
   10.1470    1.3431  -58.8043 H   0  0  0  0  0  0  0  0  0  0  0  0
   11.7741    1.4716  -59.6366 H   0  0  0  0  0  0  0  0  0  0  0  0
    9.8112    3.6350  -58.9026 H   0  0  0  0  0  0  0  0  0  0  0  0
   11.4946    4.6582  -57.9245 H   0  0  0  0  0  0  0  0  0  0  0  0
   13.9766    4.2633  -58.4447 H   0  0  0  0  0  0  0  0  0  0  0  0
   13.4495    3.2109  -59.8016 H   0  0  0  0  0  0  0  0  0  0  0  0
   13.0253    4.9564  -59.8016 H   0  0  0  0  0  0  0  0  0  0  0  0
   12.0280    3.1948  -56.3355 H   0  0  0  0  0  0  0  0  0  0  0  0
   11.4619    1.8788  -57.4191 H   0  0  0  0  0  0  0  0  0  0  0  0
   13.1925    2.3602  -57.4191 H   0  0  0  0  0  0  0  0  0  0  0  0
   10.7823    5.1529  -60.5517 H   0  0  0  0  0  0  0  0  0  0  0  0
   11.6574    3.7430  -61.2946 H   0  0  0  0  0  0  0  0  0  0  0  0
    8.7312    4.4447  -61.3398 H   0  0  0  0  0  0  0  0  0  0  0  0
    9.8552    3.8380  -62.6555 H   0  0  0  0  0  0  0  0  0  0  0  0
    5.2819    3.1532  -56.9559 H   0  0  0  0  0  0  0  0  0  0  0  0
    6.6694    5.0444  -59.4827 H   0  0  0  0  0  0  0  0  0  0  0  0
    8.5906    6.6087  -59.2697 H   0  0  0  0  0  0  0  0  0  0  0  0
   10.1637    6.4090  -57.3518 H   0  0  0  0  0  0  0  0  0  0  0  0
    9.5377    4.6684  -54.3722 H   0  0  0  0  0  0  0  0  0  0  0  0
   10.5698    3.6013  -55.3835 H   0  0  0  0  0  0  0  0  0  0  0  0
   10.8424    5.3768  -55.3835 H   0  0  0  0  0  0  0  0  0  0  0  0
    7.8985    3.0542  -55.8471 H   0  0  0  0  0  0  0  0  0  0  0  0
    5.9696   -0.1169  -53.3713 H   0  0  0  0  0  0  0  0  0  0  0  0
    4.9331   -0.6050  -54.7942 H   0  0  0  0  0  0  0  0  0  0  0  0
    6.1203   -2.5140  -53.7967 H   0  0  0  0  0  0  0  0  0  0  0  0
    6.6046   -2.1625  -55.5225 H   0  0  0  0  0  0  0  0  0  0  0  0
  1  2  1  0
  2  3  1  0
  3  4  1  0
  3  5  1  0
  3  6  1  0
  6  7  1  0
  7  8  1  0
  8  9  1  0
  9 10  1  0
 10 11  1  0
 11 12  1  0
 12 13  1  0
 13 14  1  6
 13 15  1  0
 15 16  2  0
 15 17  1  0
 17 18  1  0
 18 19  1  0
 19 20  1  0
 20 21  1  0
 21 22  1  0
 22 23  1  0
 22 24  1  0
 21 25  1  0
 25 26  1  0
 13 27  1  0
 27 28  1  0
 28 29  1  0
 29 30  2  0
 30 31  1  0
 31 32  2  0
 32 33  1  0
 33 34  1  0
 33 35  2  0
  9 36  1  0
 36 37  1  0
 37  6  1  0
 28 11  1  0
 35 29  1  0
 26 18  1  0
  1 38  1  0
  1 39  1  0
  1 40  1  0
  2 41  1  0
  2 42  1  0
  4 43  1  0
  4 44  1  0
  4 45  1  0
  5 46  1  0
  5 47  1  0
  5 48  1  0
  6 49  1  1
  7 50  1  0
  7 51  1  0
  8 52  1  0
  8 53  1  0
  9 54  1  6
 10 55  1  0
 10 56  1  0
 14 57  1  0
 14 58  1  0
 14 59  1  0
 17 60  1  0
 18 61  1  1
 19 62  1  0
 19 63  1  0
 20 64  1  0
 20 65  1  0
 21 66  1  6
 22 67  1  0
 23 68  1  0
 23 69  1  0
 23 70  1  0
 24 71  1  0
 24 72  1  0
 24 73  1  0
 25 74  1  0
 25 75  1  0
 26 76  1  0
 26 77  1  0
 28 78  1  1
 30 79  1  0
 31 80  1  0
 32 81  1  0
 34 82  1  0
 34 83  1  0
 34 84  1  0
 35 85  1  0
 36 86  1  0
 36 87  1  0
 37 88  1  0
 37 89  1  0
M  END
>  <meeko>  (113) 
{"is_sidechain": false}

$$$$

     RDKit          3D

 89 92  0  0  0  0  0  0  0  0999 V2000
   14.7800   -4.5340  -57.2480 C   0  0  0  0  0  0  0  0  0  0  0  0
   13.8780   -5.6390  -56.7080 C   0  0  0  0  0  0  0  0  0  0  0  0
   12.4220   -5.7370  -57.2780 C   0  0  0  0  0  0  0  0  0  0  0  0
   12.4030   -5.4820  -58.7970 C   0  0  0  0  0  0  0  0  0  0  0  0
   11.9790   -7.2090  -57.0480 C   0  0  0  0  0  0  0  0  0  0  0  0
   11.4230   -4.7860  -56.5060 C   0  0  2  0  0  0  0  0  0  0  0  0
   11.1150   -3.4410  -57.2200 C   0  0  0  0  0  0  0  0  0  0  0  0
   11.7830   -2.2370  -56.5570 C   0  0  0  0  0  0  0  0  0  0  0  0
   11.3590   -2.0500  -55.0860 C   0  0  1  0  0  0  0  0  0  0  0  0
   10.2580   -0.9680  -54.9630 C   0  0  0  0  0  0  0  0  0  0  0  0
    9.4660   -1.1010  -53.7280 N   0  0  0  0  0  0  0  0  0  0  0  0
    8.7420    0.1670  -53.5970 O   0  0  0  0  0  0  0  0  0  0  0  0
    7.4170   -0.0430  -54.1030 C   0  0  1  0  0  0  0  0  0  0  0  0
    6.4140    0.4380  -53.0620 C   0  0  0  0  0  0  0  0  0  0  0  0
    7.2860    0.8230  -55.3950 C   0  0  0  0  0  0  0  0  0  0  0  0
    6.2760    0.8440  -56.0970 O   0  0  0  0  0  0  0  0  0  0  0  0
    8.4090    1.5870  -55.6920 N   0  0  0  0  0  0  0  0  0  0  0  0
    8.5150    2.3260  -56.9440 C   0  0  2  0  0  0  0  0  0  0  0  0
    9.5790    1.6830  -57.8520 C   0  0  0  0  0  0  0  0  0  0  0  0
   10.2710    2.7130  -58.7380 C   0  0  0  0  0  0  0  0  0  0  0  0
   11.0400    3.7480  -57.8920 C   0  0  1  0  0  0  0  0  0  0  0  0
   11.4950    5.0000  -58.6930 C   0  0  0  0  0  0  0  0  0  0  0  0
   13.0030    4.9810  -58.9660 C   0  0  0  0  0  0  0  0  0  0  0  0
   10.7390    5.2140  -60.0070 C   0  0  0  0  0  0  0  0  0  0  0  0
   10.2850    4.1170  -56.5930 C   0  0  0  0  0  0  0  0  0  0  0  0
    8.7900    3.8110  -56.6670 C   0  0  0  0  0  0  0  0  0  0  0  0
    7.2200   -1.4210  -54.3560 O   0  0  0  0  0  0  0  0  0  0  0  0
    8.3740   -2.0740  -53.8400 C   0  0  2  0  0  0  0  0  0  0  0  0
    8.0170   -2.7400  -52.5100 C   0  0  0  0  0  0  0  0  0  0  0  0
    8.9640   -2.7790  -51.4720 C   0  0  0  0  0  0  0  0  0  0  0  0
    8.6550   -3.3560  -50.2400 C   0  0  0  0  0  0  0  0  0  0  0  0
    7.3880   -3.8890  -50.0150 C   0  0  0  0  0  0  0  0  0  0  0  0
    6.4130   -3.8360  -51.0160 C   0  0  0  0  0  0  0  0  0  0  0  0
    5.0550   -4.4300  -50.7880 C   0  0  0  0  0  0  0  0  0  0  0  0
    6.7380   -3.2670  -52.2570 C   0  0  0  0  0  0  0  0  0  0  0  0
   10.9740   -3.3890  -54.4400 C   0  0  0  0  0  0  0  0  0  0  0  0
   11.7880   -4.5410  -55.0260 C   0  0  0  0  0  0  0  0  0  0  0  0
   15.2290   -3.9839  -56.4079 H   0  0  0  0  0  0  0  0  0  0  0  0
   15.5765   -4.9785  -57.8628 H   0  0  0  0  0  0  0  0  0  0  0  0
   14.1850   -3.8426  -57.8628 H   0  0  0  0  0  0  0  0  0  0  0  0
   14.3758   -6.5983  -56.9128 H   0  0  0  0  0  0  0  0  0  0  0  0
   13.7432   -5.3918  -55.6446 H   0  0  0  0  0  0  0  0  0  0  0  0
   12.3225   -4.4014  -58.9864 H   0  0  0  0  0  0  0  0  0  0  0  0
   13.3321   -5.8645  -59.2447 H   0  0  0  0  0  0  0  0  0  0  0  0
   11.5408   -5.9980  -59.2447 H   0  0  0  0  0  0  0  0  0  0  0  0
   11.9187   -7.4093  -55.9681 H   0  0  0  0  0  0  0  0  0  0  0  0
   10.9923   -7.3709  -57.5066 H   0  0  0  0  0  0  0  0  0  0  0  0
   12.7124   -7.8886  -57.5066 H   0  0  0  0  0  0  0  0  0  0  0  0
   10.4927   -5.3728  -56.5207 H   0  0  0  0  0  0  0  0  0  0  0  0
   11.4694   -3.5084  -58.2592 H   0  0  0  0  0  0  0  0  0  0  0  0
   10.0280   -3.2831  -57.1618 H   0  0  0  0  0  0  0  0  0  0  0  0
   12.8735   -2.3768  -56.5929 H   0  0  0  0  0  0  0  0  0  0  0  0
   11.4670   -1.3391  -57.1083 H   0  0  0  0  0  0  0  0  0  0  0  0
   12.2232   -1.6795  -54.5151 H   0  0  0  0  0  0  0  0  0  0  0  0
   10.7359    0.0228  -54.9697 H   0  0  0  0  0  0  0  0  0  0  0  0
    9.5716   -1.0941  -55.8132 H   0  0  0  0  0  0  0  0  0  0  0  0
    6.8116    0.2473  -52.0542 H   0  0  0  0  0  0  0  0  0  0  0  0
    6.2415    1.5168  -53.1901 H   0  0  0  0  0  0  0  0  0  0  0  0
    5.4648   -0.1029  -53.1901 H   0  0  0  0  0  0  0  0  0  0  0  0
    9.2730    1.2980  -55.2430 H   0  0  0  0  0  0  0  0  0  0  0  0
    7.5578    2.2750  -57.4835 H   0  0  0  0  0  0  0  0  0  0  0  0
   10.3347    1.1921  -57.2212 H   0  0  0  0  0  0  0  0  0  0  0  0
    9.0741    0.9566  -58.5057 H   0  0  0  0  0  0  0  0  0  0  0  0
   10.9783    2.1966  -59.4036 H   0  0  0  0  0  0  0  0  0  0  0  0
    9.5039    3.2415  -59.3230 H   0  0  0  0  0  0  0  0  0  0  0  0
   11.9720    3.2473  -57.5908 H   0  0  0  0  0  0  0  0  0  0  0  0
   11.2476    5.8499  -58.0399 H   0  0  0  0  0  0  0  0  0  0  0  0
   13.5485    4.9741  -58.0108 H   0  0  0  0  0  0  0  0  0  0  0  0
   13.2601    4.0795  -59.5416 H   0  0  0  0  0  0  0  0  0  0  0  0
   13.2827    5.8757  -59.5416 H   0  0  0  0  0  0  0  0  0  0  0  0
    9.7015    5.5077  -59.7895 H   0  0  0  0  0  0  0  0  0  0  0  0
   11.2308    6.0082  -60.5878 H   0  0  0  0  0  0  0  0  0  0  0  0
   10.7415    4.2798  -60.5878 H   0  0  0  0  0  0  0  0  0  0  0  0
   10.7195    3.5450  -55.7599 H   0  0  0  0  0  0  0  0  0  0  0  0
   10.3930    5.2016  -56.4451 H   0  0  0  0  0  0  0  0  0  0  0  0
    8.3245    4.0847  -55.7087 H   0  0  0  0  0  0  0  0  0  0  0  0
    8.3668    4.3937  -57.4985 H   0  0  0  0  0  0  0  0  0  0  0  0
    8.7215   -2.8696  -54.5155 H   0  0  0  0  0  0  0  0  0  0  0  0
    9.9632   -2.3483  -51.6334 H   0  0  0  0  0  0  0  0  0  0  0  0
    9.4138   -3.3901  -49.4444 H   0  0  0  0  0  0  0  0  0  0  0  0
    7.1534   -4.3535  -49.0459 H   0  0  0  0  0  0  0  0  0  0  0  0
    4.8674   -4.5120  -49.7072 H   0  0  0  0  0  0  0  0  0  0  0  0
    4.2908   -3.7840  -51.2448 H   0  0  0  0  0  0  0  0  0  0  0  0
    5.0107   -5.4297  -51.2448 H   0  0  0  0  0  0  0  0  0  0  0  0
    5.9756   -3.2325  -53.0492 H   0  0  0  0  0  0  0  0  0  0  0  0
   11.1613   -3.3319  -53.3576 H   0  0  0  0  0  0  0  0  0  0  0  0
    9.9092   -3.5784  -54.6406 H   0  0  0  0  0  0  0  0  0  0  0  0
   12.8581   -4.2962  -54.9561 H   0  0  0  0  0  0  0  0  0  0  0  0
   11.5609   -5.4536  -54.4555 H   0  0  0  0  0  0  0  0  0  0  0  0
  1  2  1  0
  2  3  1  0
  3  4  1  0
  3  5  1  0
  3  6  1  0
  6  7  1  0
  7  8  1  0
  8  9  1  0
  9 10  1  0
 10 11  1  0
 11 12  1  0
 12 13  1  0
 13 14  1  1
 13 15  1  0
 15 16  2  0
 15 17  1  0
 17 18  1  0
 18 19  1  0
 19 20  1  0
 20 21  1  0
 21 22  1  0
 22 23  1  0
 22 24  1  0
 21 25  1  0
 25 26  1  0
 13 27  1  0
 27 28  1  0
 28 29  1  0
 29 30  2  0
 30 31  1  0
 31 32  2  0
 32 33  1  0
 33 34  1  0
 33 35  2  0
  9 36  1  0
 36 37  1  0
 37  6  1  0
 28 11  1  0
 35 29  1  0
 26 18  1  0
  1 38  1  0
  1 39  1  0
  1 40  1  0
  2 41  1  0
  2 42  1  0
  4 43  1  0
  4 44  1  0
  4 45  1  0
  5 46  1  0
  5 47  1  0
  5 48  1  0
  6 49  1  6
  7 50  1  0
  7 51  1  0
  8 52  1  0
  8 53  1  0
  9 54  1  6
 10 55  1  0
 10 56  1  0
 14 57  1  0
 14 58  1  0
 14 59  1  0
 17 60  1  0
 18 61  1  1
 19 62  1  0
 19 63  1  0
 20 64  1  0
 20 65  1  0
 21 66  1  6
 22 67  1  0
 23 68  1  0
 23 69  1  0
 23 70  1  0
 24 71  1  0
 24 72  1  0
 24 73  1  0
 25 74  1  0
 25 75  1  0
 26 76  1  0
 26 77  1  0
 28 78  1  6
 30 79  1  0
 31 80  1  0
 32 81  1  0
 34 82  1  0
 34 83  1  0
 34 84  1  0
 35 85  1  0
 36 86  1  0
 36 87  1  0
 37 88  1  0
 37 89  1  0
M  END
>  <meeko>  (114) 
{"is_sidechain": false}

$$$$

     RDKit          3D

 89 92  0  0  0  0  0  0  0  0999 V2000
    9.6410    1.7340  -60.8110 C   0  0  0  0  0  0  0  0  0  0  0  0
    9.6180    3.1780  -61.2980 C   0  0  0  0  0  0  0  0  0  0  0  0
    9.5970    4.2790  -60.1900 C   0  0  0  0  0  0  0  0  0  0  0  0
   10.6890    5.3070  -60.5690 C   0  0  0  0  0  0  0  0  0  0  0  0
    8.2310    5.0030  -60.2400 C   0  0  0  0  0  0  0  0  0  0  0  0
    9.8320    3.6840  -58.7510 C   0  0  2  0  0  0  0  0  0  0  0  0
    8.7030    4.0180  -57.7430 C   0  0  0  0  0  0  0  0  0  0  0  0
    9.1700    4.0830  -56.2870 C   0  0  0  0  0  0  0  0  0  0  0  0
   10.2380    3.0440  -55.9400 C   0  0  1  0  0  0  0  0  0  0  0  0
    9.7670    1.5640  -55.9900 C   0  0  0  0  0  0  0  0  0  0  0  0
    8.5420    1.1270  -55.3190 N   0  0  0  0  0  0  0  0  0  0  0  0
    8.8850    0.2050  -54.2450 O   0  0  0  0  0  0  0  0  0  0  0  0
    7.7360   -0.6280  -54.0830 C   0  0  2  0  0  0  0  0  0  0  0  0
    6.9960   -0.2300  -52.8130 C   0  0  0  0  0  0  0  0  0  0  0  0
    8.1530   -2.1230  -53.9690 C   0  0  0  0  0  0  0  0  0  0  0  0
    7.4200   -3.0030  -53.5230 O   0  0  0  0  0  0  0  0  0  0  0  0
    9.4260   -2.3830  -54.4540 N   0  0  0  0  0  0  0  0  0  0  0  0
    9.9660   -3.7290  -54.5740 C   0  0  2  0  0  0  0  0  0  0  0  0
   11.4650   -3.7230  -54.2390 C   0  0  0  0  0  0  0  0  0  0  0  0
   12.2210   -4.8100  -54.9960 C   0  0  0  0  0  0  0  0  0  0  0  0
   12.1540   -4.5740  -56.5190 C   0  0  1  0  0  0  0  0  0  0  0  0
   12.6060   -5.7990  -57.3640 C   0  0  0  0  0  0  0  0  0  0  0  0
   11.8560   -7.0740  -56.9610 C   0  0  0  0  0  0  0  0  0  0  0  0
   12.4920   -5.5950  -58.8770 C   0  0  0  0  0  0  0  0  0  0  0  0
   10.7810   -4.0200  -56.9630 C   0  0  0  0  0  0  0  0  0  0  0  0
    9.6670   -4.3180  -55.9620 C   0  0  0  0  0  0  0  0  0  0  0  0
    6.8460   -0.4420  -55.1930 O   0  0  0  0  0  0  0  0  0  0  0  0
    7.6170    0.3360  -56.1130 C   0  0  1  0  0  0  0  0  0  0  0  0
    6.6790    1.1840  -56.9430 C   0  0  0  0  0  0  0  0  0  0  0  0
    5.6800    1.9520  -56.3240 C   0  0  0  0  0  0  0  0  0  0  0  0
    4.8030    2.7230  -57.0860 C   0  0  0  0  0  0  0  0  0  0  0  0
    4.9120    2.7400  -58.4770 C   0  0  0  0  0  0  0  0  0  0  0  0
    5.9060    1.9920  -59.1180 C   0  0  0  0  0  0  0  0  0  0  0  0
    6.0000    1.9760  -60.6140 C   0  0  0  0  0  0  0  0  0  0  0  0
    6.7730    1.2090  -58.3450 C   0  0  0  0  0  0  0  0  0  0  0  0
   11.4740    3.2410  -56.8510 C   0  0  0  0  0  0  0  0  0  0  0  0
   11.2010    4.0290  -58.1390 C   0  0  0  0  0  0  0  0  0  0  0  0
    9.6413    1.7179  -59.7111 H   0  0  0  0  0  0  0  0  0  0  0  0
    8.7511    1.2066  -61.1852 H   0  0  0  0  0  0  0  0  0  0  0  0
   10.5472    1.2352  -61.1852 H   0  0  0  0  0  0  0  0  0  0  0  0
   10.5150    3.3388  -61.9140 H   0  0  0  0  0  0  0  0  0  0  0  0
    8.6688    3.2901  -61.8425 H   0  0  0  0  0  0  0  0  0  0  0  0
   11.1329    5.7248  -59.6534 H   0  0  0  0  0  0  0  0  0  0  0  0
   11.4710    4.8096  -61.1616 H   0  0  0  0  0  0  0  0  0  0  0  0
   10.2397    6.1175  -61.1616 H   0  0  0  0  0  0  0  0  0  0  0  0
    7.8776    5.1903  -59.2153 H   0  0  0  0  0  0  0  0  0  0  0  0
    8.3426    5.9603  -60.7701 H   0  0  0  0  0  0  0  0  0  0  0  0
    7.5014    4.3732  -60.7701 H   0  0  0  0  0  0  0  0  0  0  0  0
    9.8160    2.5987  -58.9293 H   0  0  0  0  0  0  0  0  0  0  0  0
    8.2753    4.9947  -58.0133 H   0  0  0  0  0  0  0  0  0  0  0  0
    7.9675    3.2025  -57.8060 H   0  0  0  0  0  0  0  0  0  0  0  0
    9.5848    5.0843  -56.0991 H   0  0  0  0  0  0  0  0  0  0  0  0
    8.2941    3.8684  -55.6571 H   0  0  0  0  0  0  0  0  0  0  0  0
   10.4904    3.2258  -54.8849 H   0  0  0  0  0  0  0  0  0  0  0  0
    9.6439    1.3136  -57.0540 H   0  0  0  0  0  0  0  0  0  0  0  0
   10.5487    1.0482  -55.4131 H   0  0  0  0  0  0  0  0  0  0  0  0
    7.5796   -0.5439  -51.9350 H   0  0  0  0  0  0  0  0  0  0  0  0
    6.8624    0.8617  -52.7933 H   0  0  0  0  0  0  0  0  0  0  0  0
    6.0115   -0.7203  -52.7933 H   0  0  0  0  0  0  0  0  0  0  0  0
    9.9290   -1.5980  -54.8610 H   0  0  0  0  0  0  0  0  0  0  0  0
    9.4703   -4.3882  -53.8462 H   0  0  0  0  0  0  0  0  0  0  0  0
   11.8859   -2.7432  -54.5090 H   0  0  0  0  0  0  0  0  0  0  0  0
   11.5745   -3.9183  -53.1620 H   0  0  0  0  0  0  0  0  0  0  0  0
   13.2738   -4.8040  -54.6773 H   0  0  0  0  0  0  0  0  0  0  0  0
   11.7551   -5.7809  -54.7717 H   0  0  0  0  0  0  0  0  0  0  0  0
   12.8984   -3.7920  -56.7295 H   0  0  0  0  0  0  0  0  0  0  0  0
   13.6763   -5.9108  -57.1358 H   0  0  0  0  0  0  0  0  0  0  0  0
   11.8148   -7.1440  -55.8640 H   0  0  0  0  0  0  0  0  0  0  0  0
   10.8334   -7.0410  -57.3649 H   0  0  0  0  0  0  0  0  0  0  0  0
   12.3817   -7.9518  -57.3649 H   0  0  0  0  0  0  0  0  0  0  0  0
   11.9647   -4.6514  -59.0811 H   0  0  0  0  0  0  0  0  0  0  0  0
   13.4987   -5.5554  -59.3185 H   0  0  0  0  0  0  0  0  0  0  0  0
   11.9307   -6.4316  -59.3185 H   0  0  0  0  0  0  0  0  0  0  0  0
   10.8642   -2.9295  -57.0809 H   0  0  0  0  0  0  0  0  0  0  0  0
   10.5157   -4.5154  -57.9086 H   0  0  0  0  0  0  0  0  0  0  0  0
    8.7279   -3.8847  -56.3367 H   0  0  0  0  0  0  0  0  0  0  0  0
    9.5880   -5.4102  -55.8574 H   0  0  0  0  0  0  0  0  0  0  0  0
    8.1923   -0.2816  -56.8184 H   0  0  0  0  0  0  0  0  0  0  0  0
    5.5883    1.9454  -55.2279 H   0  0  0  0  0  0  0  0  0  0  0  0
    4.0233    3.3193  -56.5894 H   0  0  0  0  0  0  0  0  0  0  0  0
    4.2127    3.3447  -59.0730 H   0  0  0  0  0  0  0  0  0  0  0  0
    7.0433    1.7984  -60.9140 H   0  0  0  0  0  0  0  0  0  0  0  0
    5.3621    1.1735  -61.0129 H   0  0  0  0  0  0  0  0  0  0  0  0
    5.6635    2.9443  -61.0129 H   0  0  0  0  0  0  0  0  0  0  0  0
    7.5422    0.6020  -58.8450 H   0  0  0  0  0  0  0  0  0  0  0  0
   12.2415    3.7796  -56.2758 H   0  0  0  0  0  0  0  0  0  0  0  0
   11.7937    2.2358  -57.1631 H   0  0  0  0  0  0  0  0  0  0  0  0
   11.2254    5.1043  -57.9086 H   0  0  0  0  0  0  0  0  0  0  0  0
   11.9764    3.7594  -58.8712 H   0  0  0  0  0  0  0  0  0  0  0  0
  1  2  1  0
  2  3  1  0
  3  4  1  0
  3  5  1  0
  3  6  1  0
  6  7  1  0
  7  8  1  0
  8  9  1  0
  9 10  1  0
 10 11  1  0
 11 12  1  0
 12 13  1  0
 13 14  1  1
 13 15  1  0
 15 16  2  0
 15 17  1  0
 17 18  1  0
 18 19  1  0
 19 20  1  0
 20 21  1  0
 21 22  1  0
 22 23  1  0
 22 24  1  0
 21 25  1  0
 25 26  1  0
 13 27  1  0
 27 28  1  0
 28 29  1  0
 29 30  2  0
 30 31  1  0
 31 32  2  0
 32 33  1  0
 33 34  1  0
 33 35  2  0
  9 36  1  0
 36 37  1  0
 37  6  1  0
 28 11  1  0
 35 29  1  0
 26 18  1  0
  1 38  1  0
  1 39  1  0
  1 40  1  0
  2 41  1  0
  2 42  1  0
  4 43  1  0
  4 44  1  0
  4 45  1  0
  5 46  1  0
  5 47  1  0
  5 48  1  0
  6 49  1  1
  7 50  1  0
  7 51  1  0
  8 52  1  0
  8 53  1  0
  9 54  1  6
 10 55  1  0
 10 56  1  0
 14 57  1  0
 14 58  1  0
 14 59  1  0
 17 60  1  0
 18 61  1  6
 19 62  1  0
 19 63  1  0
 20 64  1  0
 20 65  1  0
 21 66  1  6
 22 67  1  0
 23 68  1  0
 23 69  1  0
 23 70  1  0
 24 71  1  0
 24 72  1  0
 24 73  1  0
 25 74  1  0
 25 75  1  0
 26 76  1  0
 26 77  1  0
 28 78  1  6
 30 79  1  0
 31 80  1  0
 32 81  1  0
 34 82  1  0
 34 83  1  0
 34 84  1  0
 35 85  1  0
 36 86  1  0
 36 87  1  0
 37 88  1  0
 37 89  1  0
M  END
>  <meeko>  (115) 
{"is_sidechain": false}

$$$$

     RDKit          3D

 89 92  0  0  0  0  0  0  0  0999 V2000
    5.2820   -4.4360  -50.4110 C   0  0  0  0  0  0  0  0  0  0  0  0
    6.7990   -4.4620  -50.5820 C   0  0  0  0  0  0  0  0  0  0  0  0
    7.4940   -3.1200  -50.9790 C   0  0  0  0  0  0  0  0  0  0  0  0
    7.6870   -2.2560  -49.7220 C   0  0  0  0  0  0  0  0  0  0  0  0
    8.9080   -3.4340  -51.5390 C   0  0  0  0  0  0  0  0  0  0  0  0
    6.6580   -2.3920  -52.1220 C   0  0  2  0  0  0  0  0  0  0  0  0
    6.8390   -2.9570  -53.5530 C   0  0  0  0  0  0  0  0  0  0  0  0
    7.9740   -2.3280  -54.3680 C   0  0  0  0  0  0  0  0  0  0  0  0
    7.9300   -0.7970  -54.4040 C   0  0  1  0  0  0  0  0  0  0  0  0
    6.7940   -0.1870  -55.2660 C   0  0  0  0  0  0  0  0  0  0  0  0
    7.2980    0.4890  -56.4720 N   0  0  0  0  0  0  0  0  0  0  0  0
    8.7280    0.7070  -56.1960 O   0  0  0  0  0  0  0  0  0  0  0  0
    8.9450    2.1100  -56.0850 C   0  0  1  0  0  0  0  0  0  0  0  0
    9.6850    2.3970  -54.7850 C   0  0  0  0  0  0  0  0  0  0  0  0
    9.8200    2.6180  -57.2740 C   0  0  0  0  0  0  0  0  0  0  0  0
    9.8430    2.0790  -58.3780 O   0  0  0  0  0  0  0  0  0  0  0  0
   10.5900    3.7340  -56.9550 N   0  0  0  0  0  0  0  0  0  0  0  0
   11.2440    4.5050  -58.0010 C   0  0  2  0  0  0  0  0  0  0  0  0
   10.2480    4.9650  -59.0820 C   0  0  0  0  0  0  0  0  0  0  0  0
   10.8580    5.0100  -60.4850 C   0  0  0  0  0  0  0  0  0  0  0  0
   12.3180    5.4940  -60.4960 C   0  0  1  0  0  0  0  0  0  0  0  0
   12.5000    6.9910  -60.0920 C   0  0  0  0  0  0  0  0  0  0  0  0
   12.9170    7.8790  -61.2710 C   0  0  0  0  0  0  0  0  0  0  0  0
   13.5550    7.1480  -58.9840 C   0  0  0  0  0  0  0  0  0  0  0  0
   13.1830    4.5430  -59.6290 C   0  0  0  0  0  0  0  0  0  0  0  0
   12.3870    3.7040  -58.6240 C   0  0  0  0  0  0  0  0  0  0  0  0
    7.6830    2.7710  -56.0240 O   0  0  0  0  0  0  0  0  0  0  0  0
    6.7800    1.8490  -56.6300 C   0  0  1  0  0  0  0  0  0  0  0  0
    6.5690    2.2890  -58.0740 C   0  0  0  0  0  0  0  0  0  0  0  0
    7.1930    3.4680  -58.5210 C   0  0  0  0  0  0  0  0  0  0  0  0
    7.0790    3.8770  -59.8510 C   0  0  0  0  0  0  0  0  0  0  0  0
    6.3460    3.1120  -60.7560 C   0  0  0  0  0  0  0  0  0  0  0  0
    5.7070    1.9410  -60.3370 C   0  0  0  0  0  0  0  0  0  0  0  0
    4.9600    1.0880  -61.3190 C   0  0  0  0  0  0  0  0  0  0  0  0
    5.8290    1.5360  -59.0000 C   0  0  0  0  0  0  0  0  0  0  0  0
    7.8730   -0.2650  -52.9630 C   0  0  0  0  0  0  0  0  0  0  0  0
    6.7120   -0.8460  -52.1640 C   0  0  0  0  0  0  0  0  0  0  0  0
    5.0338   -4.4317  -49.3394 H   0  0  0  0  0  0  0  0  0  0  0  0
    4.8750   -3.5307  -50.8852 H   0  0  0  0  0  0  0  0  0  0  0  0
    4.8442   -5.3268  -50.8852 H   0  0  0  0  0  0  0  0  0  0  0  0
    7.2345   -4.7907  -49.6269 H   0  0  0  0  0  0  0  0  0  0  0  0
    6.9779   -5.1372  -51.4318 H   0  0  0  0  0  0  0  0  0  0  0  0
    7.5482   -2.8775  -48.8251 H   0  0  0  0  0  0  0  0  0  0  0  0
    8.7020   -1.8320  -49.7208 H   0  0  0  0  0  0  0  0  0  0  0  0
    6.9489   -1.4404  -49.7208 H   0  0  0  0  0  0  0  0  0  0  0  0
    9.6070   -3.5892  -50.7039 H   0  0  0  0  0  0  0  0  0  0  0  0
    8.8646   -4.3444  -52.1549 H   0  0  0  0  0  0  0  0  0  0  0  0
    9.2540   -2.5908  -52.1549 H   0  0  0  0  0  0  0  0  0  0  0  0
    5.6484   -2.6562  -51.7743 H   0  0  0  0  0  0  0  0  0  0  0  0
    7.0382   -4.0356  -53.4696 H   0  0  0  0  0  0  0  0  0  0  0  0
    5.9102   -2.7201  -54.0927 H   0  0  0  0  0  0  0  0  0  0  0  0
    8.9323   -2.6377  -53.9257 H   0  0  0  0  0  0  0  0  0  0  0  0
    7.8581   -2.6778  -55.4045 H   0  0  0  0  0  0  0  0  0  0  0  0
    8.8524   -0.4734  -54.9085 H   0  0  0  0  0  0  0  0  0  0  0  0
    6.1131   -0.9943  -55.5735 H   0  0  0  0  0  0  0  0  0  0  0  0
    6.2792    0.5671  -54.6525 H   0  0  0  0  0  0  0  0  0  0  0  0
    9.0379    2.1460  -53.9316 H   0  0  0  0  0  0  0  0  0  0  0  0
   10.6005    1.7888  -54.7423 H   0  0  0  0  0  0  0  0  0  0  0  0
    9.9510    3.4635  -54.7423 H   0  0  0  0  0  0  0  0  0  0  0  0
   10.2310    4.2490  -56.1560 H   0  0  0  0  0  0  0  0  0  0  0  0
   11.6611    5.4092  -57.5336 H   0  0  0  0  0  0  0  0  0  0  0  0
    9.3974    4.2676  -59.0930 H   0  0  0  0  0  0  0  0  0  0  0  0
    9.9395    5.9896  -58.8270 H   0  0  0  0  0  0  0  0  0  0  0  0
   10.8220    3.9979  -60.9144 H   0  0  0  0  0  0  0  0  0  0  0  0
   10.2706    5.7300  -61.0738 H   0  0  0  0  0  0  0  0  0  0  0  0
   12.6653    5.4549  -61.5390 H   0  0  0  0  0  0  0  0  0  0  0  0
   11.5131    7.3169  -59.7318 H   0  0  0  0  0  0  0  0  0  0  0  0
   13.3555    8.8129  -60.8895 H   0  0  0  0  0  0  0  0  0  0  0  0
   13.6602    7.3487  -61.8845 H   0  0  0  0  0  0  0  0  0  0  0  0
   12.0343    8.1123  -61.8845 H   0  0  0  0  0  0  0  0  0  0  0  0
   13.0675    7.0755  -58.0006 H   0  0  0  0  0  0  0  0  0  0  0  0
   14.3082    6.3521  -59.0795 H   0  0  0  0  0  0  0  0  0  0  0  0
   14.0438    8.1288  -59.0795 H   0  0  0  0  0  0  0  0  0  0  0  0
   13.7196    3.8572  -60.3011 H   0  0  0  0  0  0  0  0  0  0  0  0
   13.8580    5.1815  -59.0402 H   0  0  0  0  0  0  0  0  0  0  0  0
   11.9682    2.8289  -59.1424 H   0  0  0  0  0  0  0  0  0  0  0  0
   13.0690    3.3949  -57.8182 H   0  0  0  0  0  0  0  0  0  0  0  0
    5.7915    1.8417  -56.1474 H   0  0  0  0  0  0  0  0  0  0  0  0
    7.7778    4.0749  -57.8141 H   0  0  0  0  0  0  0  0  0  0  0  0
    7.5683    4.8040  -60.1847 H   0  0  0  0  0  0  0  0  0  0  0  0
    6.2696    3.4311  -61.8059 H   0  0  0  0  0  0  0  0  0  0  0  0
    4.3301    0.3687  -60.7751 H   0  0  0  0  0  0  0  0  0  0  0  0
    4.3254    1.7266  -61.9510 H   0  0  0  0  0  0  0  0  0  0  0  0
    5.6767    0.5432  -61.9510 H   0  0  0  0  0  0  0  0  0  0  0  0
    5.3352    0.6101  -58.6700 H   0  0  0  0  0  0  0  0  0  0  0  0
    8.8137   -0.5244  -52.4552 H   0  0  0  0  0  0  0  0  0  0  0  0
    7.7253    0.8237  -53.0176 H   0  0  0  0  0  0  0  0  0  0  0  0
    6.7913   -0.4788  -51.1301 H   0  0  0  0  0  0  0  0  0  0  0  0
    5.7934   -0.5193  -52.6733 H   0  0  0  0  0  0  0  0  0  0  0  0
  1  2  1  0
  2  3  1  0
  3  4  1  0
  3  5  1  0
  3  6  1  0
  6  7  1  0
  7  8  1  0
  8  9  1  0
  9 10  1  0
 10 11  1  0
 11 12  1  0
 12 13  1  0
 13 14  1  1
 13 15  1  0
 15 16  2  0
 15 17  1  0
 17 18  1  0
 18 19  1  0
 19 20  1  0
 20 21  1  0
 21 22  1  0
 22 23  1  0
 22 24  1  0
 21 25  1  0
 25 26  1  0
 13 27  1  0
 27 28  1  0
 28 29  1  0
 29 30  2  0
 30 31  1  0
 31 32  2  0
 32 33  1  0
 33 34  1  0
 33 35  2  0
  9 36  1  0
 36 37  1  0
 37  6  1  0
 28 11  1  0
 35 29  1  0
 26 18  1  0
  1 38  1  0
  1 39  1  0
  1 40  1  0
  2 41  1  0
  2 42  1  0
  4 43  1  0
  4 44  1  0
  4 45  1  0
  5 46  1  0
  5 47  1  0
  5 48  1  0
  6 49  1  6
  7 50  1  0
  7 51  1  0
  8 52  1  0
  8 53  1  0
  9 54  1  1
 10 55  1  0
 10 56  1  0
 14 57  1  0
 14 58  1  0
 14 59  1  0
 17 60  1  0
 18 61  1  6
 19 62  1  0
 19 63  1  0
 20 64  1  0
 20 65  1  0
 21 66  1  1
 22 67  1  0
 23 68  1  0
 23 69  1  0
 23 70  1  0
 24 71  1  0
 24 72  1  0
 24 73  1  0
 25 74  1  0
 25 75  1  0
 26 76  1  0
 26 77  1  0
 28 78  1  1
 30 79  1  0
 31 80  1  0
 32 81  1  0
 34 82  1  0
 34 83  1  0
 34 84  1  0
 35 85  1  0
 36 86  1  0
 36 87  1  0
 37 88  1  0
 37 89  1  0
M  END
>  <meeko>  (116) 
{"is_sidechain": false}

$$$$

     RDKit          3D

 64 70  0  0  0  0  0  0  0  0999 V2000
   12.3720    7.5280  -60.3350 C   0  0  0  0  0  0  0  0  0  0  0  0
   12.2560    6.1050  -59.8730 C   0  0  0  0  0  0  0  0  0  0  0  0
   13.3860    5.2820  -59.8090 C   0  0  0  0  0  0  0  0  0  0  0  0
   13.2680    3.9470  -59.4180 C   0  0  0  0  0  0  0  0  0  0  0  0
   12.0170    3.4230  -59.0900 C   0  0  0  0  0  0  0  0  0  0  0  0
   10.8790    4.2320  -59.1510 C   0  0  0  0  0  0  0  0  0  0  0  0
    9.5720    3.7020  -58.7850 C   0  0  0  0  0  0  0  0  0  0  0  0
    9.0250    3.4490  -57.5340 C   0  0  0  0  0  0  0  0  0  0  0  0
    7.7360    2.8900  -57.8070 C   0  0  0  0  0  0  0  0  0  0  0  0
    7.4850    2.8460  -59.1140 N   0  0  0  0  0  0  0  0  0  0  0  0
    8.6170    3.2960  -59.6900 N   0  0  0  0  0  0  0  0  0  0  0  0
    8.6910    3.3450  -61.1480 C   0  0  0  0  0  0  0  0  0  0  0  0
    7.4260    2.8890  -61.7810 C   0  0  0  0  0  0  0  0  0  0  0  0
    7.1120    2.5790  -63.0870 C   0  0  0  0  0  0  0  0  0  0  0  0
    5.8010    2.1960  -63.1960 N   0  0  0  0  0  0  0  0  0  0  0  0
    5.3110    2.2800  -61.9820 C   0  0  0  0  0  0  0  0  0  0  0  0
    6.2570    2.6910  -61.0880 N   0  0  0  0  0  0  0  0  0  0  0  0
    6.8760    2.4580  -56.8350 N   0  0  0  0  0  0  0  0  0  0  0  0
    5.4600    2.7170  -57.1090 C   0  0  0  0  0  0  0  0  0  0  0  0
    7.0920    1.0740  -56.3390 C   0  0  0  0  0  0  0  0  0  0  0  0
    8.5540    0.7880  -56.1840 C   0  0  1  0  0  0  0  0  0  0  0  0
    9.2230    1.5520  -55.0720 C   0  0  2  0  0  0  0  0  0  0  0  0
   10.2870    2.5040  -55.5190 C   0  0  0  0  0  0  0  0  0  0  0  0
    9.6530    3.7340  -56.1970 C   0  0  0  0  0  0  0  0  0  0  0  0
    9.2920    0.0410  -55.0840 C   0  0  1  0  0  0  0  0  0  0  0  0
    8.5230   -0.7870  -54.0830 C   0  0  0  0  0  0  0  0  0  0  0  0
    7.7400   -0.1780  -53.0700 C   0  0  0  0  0  0  0  0  0  0  0  0
    7.0310   -0.9320  -52.1280 C   0  0  0  0  0  0  0  0  0  0  0  0
    7.1220   -2.3010  -52.2090 C   0  0  0  0  0  0  0  0  0  0  0  0
    7.8810   -2.9160  -53.1740 C   0  0  0  0  0  0  0  0  0  0  0  0
    8.5890   -2.1920  -54.1120 C   0  0  0  0  0  0  0  0  0  0  0  0
    7.8410   -4.2720  -53.0810 O   0  0  0  0  0  0  0  0  0  0  0  0
    6.9700   -4.4400  -51.9430 C   0  0  0  0  0  0  0  0  0  0  0  0
    6.5060   -3.1920  -51.3860 O   0  0  0  0  0  0  0  0  0  0  0  0
   11.0020    5.5660  -59.5590 C   0  0  0  0  0  0  0  0  0  0  0  0
   12.4263    8.1939  -59.4612 H   0  0  0  0  0  0  0  0  0  0  0  0
   13.2825    7.6436  -60.9412 H   0  0  0  0  0  0  0  0  0  0  0  0
   11.4922    7.7896  -60.9412 H   0  0  0  0  0  0  0  0  0  0  0  0
   14.3741    5.6898  -60.0686 H   0  0  0  0  0  0  0  0  0  0  0  0
   14.1618    3.3077  -59.3684 H   0  0  0  0  0  0  0  0  0  0  0  0
   11.9263    2.3707  -58.7827 H   0  0  0  0  0  0  0  0  0  0  0  0
    8.8918    4.3806  -61.4596 H   0  0  0  0  0  0  0  0  0  0  0  0
    9.4976    2.6709  -61.4720 H   0  0  0  0  0  0  0  0  0  0  0  0
    7.8187    2.6320  -63.9283 H   0  0  0  0  0  0  0  0  0  0  0  0
    4.2687    2.0483  -61.7177 H   0  0  0  0  0  0  0  0  0  0  0  0
    6.1010    2.8600  -60.1010 H   0  0  0  0  0  0  0  0  0  0  0  0
    4.9149    2.8167  -56.1588 H   0  0  0  0  0  0  0  0  0  0  0  0
    5.3627    3.6479  -57.6870 H   0  0  0  0  0  0  0  0  0  0  0  0
    5.0395    1.8809  -57.6870 H   0  0  0  0  0  0  0  0  0  0  0  0
    6.5964    0.9587  -55.3638 H   0  0  0  0  0  0  0  0  0  0  0  0
    6.6694    0.3675  -57.0685 H   0  0  0  0  0  0  0  0  0  0  0  0
    8.5913    0.6223  -57.2708 H   0  0  0  0  0  0  0  0  0  0  0  0
    8.9766    2.2378  -54.2480 H   0  0  0  0  0  0  0  0  0  0  0  0
   10.8710    2.8314  -54.6463 H   0  0  0  0  0  0  0  0  0  0  0  0
   10.9422    1.9951  -56.2413 H   0  0  0  0  0  0  0  0  0  0  0  0
    8.8753    4.1329  -55.5291 H   0  0  0  0  0  0  0  0  0  0  0  0
   10.4689    4.4492  -56.3783 H   0  0  0  0  0  0  0  0  0  0  0  0
   10.1070   -0.6967  -55.0430 H   0  0  0  0  0  0  0  0  0  0  0  0
    7.6882    0.9198  -53.0231 H   0  0  0  0  0  0  0  0  0  0  0  0
    6.4227   -0.4464  -51.3507 H   0  0  0  0  0  0  0  0  0  0  0  0
    9.1962   -2.7063  -54.8714 H   0  0  0  0  0  0  0  0  0  0  0  0
    6.0951   -5.0279  -52.2575 H   0  0  0  0  0  0  0  0  0  0  0  0
    7.5531   -4.9475  -51.1604 H   0  0  0  0  0  0  0  0  0  0  0  0
   10.1042    6.1972  -59.6337 H   0  0  0  0  0  0  0  0  0  0  0  0
  1  2  1  0
  2  3  2  0
  3  4  1  0
  4  5  2  0
  5  6  1  0
  6  7  1  0
  7  8  2  0
  8  9  1  0
  9 10  2  0
 10 11  1  0
 11 12  1  0
 12 13  1  0
 13 14  2  0
 14 15  1  0
 15 16  2  0
 16 17  1  0
  9 18  1  0
 18 19  1  0
 18 20  1  0
 20 21  1  0
 21 22  1  0
 22 23  1  0
 23 24  1  0
 22 25  1  0
 25 26  1  0
 26 27  1  0
 27 28  2  0
 28 29  1  0
 29 30  2  0
 30 31  1  0
 30 32  1  0
 32 33  1  0
 33 34  1  0
  6 35  2  0
 35  2  1  0
 11  7  1  0
 17 13  1  0
 25 21  1  0
 31 26  2  0
 24  8  1  0
 34 29  1  0
  1 36  1  0
  1 37  1  0
  1 38  1  0
  3 39  1  0
  4 40  1  0
  5 41  1  0
 12 42  1  0
 12 43  1  0
 14 44  1  0
 16 45  1  0
 17 46  1  0
 19 47  1  0
 19 48  1  0
 19 49  1  0
 20 50  1  0
 20 51  1  0
 21 52  1  6
 22 53  1  1
 23 54  1  0
 23 55  1  0
 24 56  1  0
 24 57  1  0
 25 58  1  6
 27 59  1  0
 28 60  1  0
 31 61  1  0
 33 62  1  0
 33 63  1  0
 35 64  1  0
M  END
>  <meeko>  (117) 
{"is_sidechain": false}

$$$$

     RDKit          3D

 64 70  0  0  0  0  0  0  0  0999 V2000
   12.1730    7.3140  -60.2370 C   0  0  0  0  0  0  0  0  0  0  0  0
   12.0530    5.8630  -59.8740 C   0  0  0  0  0  0  0  0  0  0  0  0
   13.1870    5.0450  -59.8390 C   0  0  0  0  0  0  0  0  0  0  0  0
   13.0770    3.7030  -59.4720 C   0  0  0  0  0  0  0  0  0  0  0  0
   11.8340    3.1700  -59.1280 C   0  0  0  0  0  0  0  0  0  0  0  0
   10.6940    3.9790  -59.1360 C   0  0  0  0  0  0  0  0  0  0  0  0
    9.3880    3.4380  -58.7710 C   0  0  0  0  0  0  0  0  0  0  0  0
    8.8330    3.2170  -57.5160 C   0  0  0  0  0  0  0  0  0  0  0  0
    7.5610    2.6160  -57.7790 C   0  0  0  0  0  0  0  0  0  0  0  0
    7.3290    2.5080  -59.0860 N   0  0  0  0  0  0  0  0  0  0  0  0
    8.4300    3.0280  -59.6720 N   0  0  0  0  0  0  0  0  0  0  0  0
    8.5190    3.0170  -61.1290 C   0  0  0  0  0  0  0  0  0  0  0  0
    7.2120    2.6590  -61.7520 C   0  0  0  0  0  0  0  0  0  0  0  0
    6.8520    2.6440  -63.0860 C   0  0  0  0  0  0  0  0  0  0  0  0
    5.5420    2.2550  -63.1100 N   0  0  0  0  0  0  0  0  0  0  0  0
    5.1480    2.0660  -61.8180 C   0  0  0  0  0  0  0  0  0  0  0  0
    6.1260    2.3060  -60.9750 N   0  0  0  0  0  0  0  0  0  0  0  0
    6.7030    2.1980  -56.8000 N   0  0  0  0  0  0  0  0  0  0  0  0
    5.2840    2.4050  -57.1010 C   0  0  0  0  0  0  0  0  0  0  0  0
    6.9550    0.8460  -56.2390 C   0  0  0  0  0  0  0  0  0  0  0  0
    8.4230    0.6050  -56.0750 C   0  0  1  0  0  0  0  0  0  0  0  0
    9.0670    1.4170  -54.9830 C   0  0  2  0  0  0  0  0  0  0  0  0
   10.1060    2.3860  -55.4550 C   0  0  0  0  0  0  0  0  0  0  0  0
    9.4350    3.5700  -56.1830 C   0  0  0  0  0  0  0  0  0  0  0  0
    9.1780   -0.0910  -54.9540 C   0  0  1  0  0  0  0  0  0  0  0  0
    8.4290   -0.9120  -53.9330 C   0  0  0  0  0  0  0  0  0  0  0  0
    7.6070   -0.2810  -52.9650 C   0  0  0  0  0  0  0  0  0  0  0  0
    6.8890   -1.0130  -52.0110 C   0  0  0  0  0  0  0  0  0  0  0  0
    6.9990   -2.3840  -52.0460 C   0  0  0  0  0  0  0  0  0  0  0  0
    7.7790   -3.0190  -52.9800 C   0  0  0  0  0  0  0  0  0  0  0  0
    8.4950   -2.3170  -53.9300 C   0  0  0  0  0  0  0  0  0  0  0  0
    7.7480   -4.3720  -52.8490 O   0  0  0  0  0  0  0  0  0  0  0  0
    6.8590   -4.5140  -51.7220 C   0  0  0  0  0  0  0  0  0  0  0  0
    6.3790   -3.2540  -51.2070 O   0  0  0  0  0  0  0  0  0  0  0  0
   10.8120    5.3240  -59.5090 C   0  0  0  0  0  0  0  0  0  0  0  0
   12.2230    7.9186  -59.3194 H   0  0  0  0  0  0  0  0  0  0  0  0
   13.0871    7.4695  -60.8288 H   0  0  0  0  0  0  0  0  0  0  0  0
   11.2969    7.6176  -60.8288 H   0  0  0  0  0  0  0  0  0  0  0  0
   14.1705    5.4615  -60.1021 H   0  0  0  0  0  0  0  0  0  0  0  0
   13.9721    3.0639  -59.4539 H   0  0  0  0  0  0  0  0  0  0  0  0
   11.7509    2.1091  -58.8494 H   0  0  0  0  0  0  0  0  0  0  0  0
    8.8192    4.0165  -61.4767 H   0  0  0  0  0  0  0  0  0  0  0  0
    9.2616    2.2612  -61.4245 H   0  0  0  0  0  0  0  0  0  0  0  0
    7.4873    2.8932  -63.9487 H   0  0  0  0  0  0  0  0  0  0  0  0
    4.9670    2.1320  -63.9310 H   0  0  0  0  0  0  0  0  0  0  0  0
    4.1371    1.7517  -61.5193 H   0  0  0  0  0  0  0  0  0  0  0  0
    4.7181    2.4876  -56.1614 H   0  0  0  0  0  0  0  0  0  0  0  0
    5.1640    3.3302  -57.6838 H   0  0  0  0  0  0  0  0  0  0  0  0
    4.9047    1.5527  -57.6838 H   0  0  0  0  0  0  0  0  0  0  0  0
    6.4643    0.7652  -55.2579 H   0  0  0  0  0  0  0  0  0  0  0  0
    6.5492    0.0947  -56.9325 H   0  0  0  0  0  0  0  0  0  0  0  0
    8.4681    0.4111  -57.1568 H   0  0  0  0  0  0  0  0  0  0  0  0
    8.7994    2.1176  -54.1783 H   0  0  0  0  0  0  0  0  0  0  0  0
   10.6710    2.7637  -54.5900 H   0  0  0  0  0  0  0  0  0  0  0  0
   10.7862    1.8738  -56.1515 H   0  0  0  0  0  0  0  0  0  0  0  0
    8.6358    3.9630  -55.5374 H   0  0  0  0  0  0  0  0  0  0  0  0
   10.2268    4.3076  -56.3806 H   0  0  0  0  0  0  0  0  0  0  0  0
   10.0130   -0.8043  -54.8913 H   0  0  0  0  0  0  0  0  0  0  0  0
    7.5310    0.8164  -52.9634 H   0  0  0  0  0  0  0  0  0  0  0  0
    6.2603   -0.5103  -51.2613 H   0  0  0  0  0  0  0  0  0  0  0  0
    9.1076   -2.8487  -54.6730 H   0  0  0  0  0  0  0  0  0  0  0  0
    5.9927   -5.1152  -52.0351 H   0  0  0  0  0  0  0  0  0  0  0  0
    7.4314   -4.9967  -50.9162 H   0  0  0  0  0  0  0  0  0  0  0  0
    9.9186    5.9657  -59.5155 H   0  0  0  0  0  0  0  0  0  0  0  0
  1  2  1  0
  2  3  2  0
  3  4  1  0
  4  5  2  0
  5  6  1  0
  6  7  1  0
  7  8  2  0
  8  9  1  0
  9 10  2  0
 10 11  1  0
 11 12  1  0
 12 13  1  0
 13 14  2  0
 14 15  1  0
 15 16  1  0
 16 17  2  0
  9 18  1  0
 18 19  1  0
 18 20  1  0
 20 21  1  0
 21 22  1  0
 22 23  1  0
 23 24  1  0
 22 25  1  0
 25 26  1  0
 26 27  1  0
 27 28  2  0
 28 29  1  0
 29 30  2  0
 30 31  1  0
 30 32  1  0
 32 33  1  0
 33 34  1  0
  6 35  2  0
 35  2  1  0
 11  7  1  0
 17 13  1  0
 25 21  1  0
 31 26  2  0
 24  8  1  0
 34 29  1  0
  1 36  1  0
  1 37  1  0
  1 38  1  0
  3 39  1  0
  4 40  1  0
  5 41  1  0
 12 42  1  0
 12 43  1  0
 14 44  1  0
 15 45  1  0
 16 46  1  0
 19 47  1  0
 19 48  1  0
 19 49  1  0
 20 50  1  0
 20 51  1  0
 21 52  1  6
 22 53  1  1
 23 54  1  0
 23 55  1  0
 24 56  1  0
 24 57  1  0
 25 58  1  6
 27 59  1  0
 28 60  1  0
 31 61  1  0
 33 62  1  0
 33 63  1  0
 35 64  1  0
M  END
>  <meeko>  (118) 
{"is_sidechain": false}

$$$$

     RDKit          3D

 65 71  0  0  0  0  0  0  0  0999 V2000
   12.3350    7.5130  -60.5390 C   0  0  0  0  0  0  0  0  0  0  0  0
   12.2610    6.1130  -60.0040 C   0  0  0  0  0  0  0  0  0  0  0  0
   13.4350    5.3920  -59.7480 C   0  0  0  0  0  0  0  0  0  0  0  0
   13.3740    4.1130  -59.1960 C   0  0  0  0  0  0  0  0  0  0  0  0
   12.1390    3.5410  -58.8910 C   0  0  0  0  0  0  0  0  0  0  0  0
   10.9600    4.2490  -59.1390 C   0  0  0  0  0  0  0  0  0  0  0  0
    9.6690    3.6480  -58.8360 C   0  0  0  0  0  0  0  0  0  0  0  0
    9.0560    3.4070  -57.6150 C   0  0  0  0  0  0  0  0  0  0  0  0
    7.8070    2.7870  -57.9490 C   0  0  0  0  0  0  0  0  0  0  0  0
    7.6250    2.7300  -59.2710 N   0  0  0  0  0  0  0  0  0  0  0  0
    8.7880    3.1970  -59.7850 N   0  0  0  0  0  0  0  0  0  0  0  0
    8.9490    3.2240  -61.2330 C   0  0  0  0  0  0  0  0  0  0  0  0
    7.6840    2.8400  -61.9060 C   0  0  0  0  0  0  0  0  0  0  0  0
    7.4180    2.2720  -63.1280 C   0  0  0  0  0  0  0  0  0  0  0  0
    6.0480    2.1320  -63.2230 N   0  0  0  0  0  0  0  0  0  0  0  0
    5.4500    2.5910  -62.1180 C   0  0  0  0  0  0  0  0  0  0  0  0
    6.4270    3.0070  -61.3220 N   0  0  0  0  0  0  0  0  0  0  0  0
    6.9130    2.3360  -57.0220 N   0  0  0  0  0  0  0  0  0  0  0  0
    5.4990    2.5520  -57.3220 C   0  0  0  0  0  0  0  0  0  0  0  0
    7.1550    0.9770  -56.4600 C   0  0  0  0  0  0  0  0  0  0  0  0
    8.6110    0.7570  -56.2020 C   0  0  1  0  0  0  0  0  0  0  0  0
    9.1790    1.5940  -55.0880 C   0  0  2  0  0  0  0  0  0  0  0  0
   10.2370    2.5620  -55.5110 C   0  0  0  0  0  0  0  0  0  0  0  0
    9.5940    3.7520  -56.2510 C   0  0  0  0  0  0  0  0  0  0  0  0
    9.2990    0.0880  -55.0220 C   0  0  1  0  0  0  0  0  0  0  0  0
    8.4890   -0.7200  -54.0360 C   0  0  0  0  0  0  0  0  0  0  0  0
    7.6220   -0.0940  -53.1070 C   0  0  0  0  0  0  0  0  0  0  0  0
    6.8730   -0.8290  -52.1800 C   0  0  0  0  0  0  0  0  0  0  0  0
    7.0110   -2.1970  -52.1920 C   0  0  0  0  0  0  0  0  0  0  0  0
    7.8540   -2.8260  -53.0730 C   0  0  0  0  0  0  0  0  0  0  0  0
    8.6020   -2.1220  -53.9930 C   0  0  0  0  0  0  0  0  0  0  0  0
    7.8510   -4.1780  -52.9190 O   0  0  0  0  0  0  0  0  0  0  0  0
    6.9220   -4.3240  -51.8240 C   0  0  0  0  0  0  0  0  0  0  0  0
    6.3710   -3.0710  -51.3710 O   0  0  0  0  0  0  0  0  0  0  0  0
   11.0250    5.5370  -59.6830 C   0  0  0  0  0  0  0  0  0  0  0  0
   12.3726    8.2243  -59.7008 H   0  0  0  0  0  0  0  0  0  0  0  0
   13.2402    7.6231  -61.1542 H   0  0  0  0  0  0  0  0  0  0  0  0
   11.4464    7.7179  -61.1542 H   0  0  0  0  0  0  0  0  0  0  0  0
   14.4122    5.8384  -59.9843 H   0  0  0  0  0  0  0  0  0  0  0  0
   14.3012    3.5543  -59.0008 H   0  0  0  0  0  0  0  0  0  0  0  0
   12.0931    2.5321  -58.4550 H   0  0  0  0  0  0  0  0  0  0  0  0
    9.2314    4.2399  -61.5465 H   0  0  0  0  0  0  0  0  0  0  0  0
    9.7334    2.5067  -61.5161 H   0  0  0  0  0  0  0  0  0  0  0  0
    8.1582    1.9828  -63.8886 H   0  0  0  0  0  0  0  0  0  0  0  0
    5.5490    1.7410  -64.0190 H   0  0  0  0  0  0  0  0  0  0  0  0
    4.3699    2.6181  -61.9115 H   0  0  0  0  0  0  0  0  0  0  0  0
    6.3270    3.4580  -60.4020 H   0  0  0  0  0  0  0  0  0  0  0  0
    4.9338    2.6383  -56.3823 H   0  0  0  0  0  0  0  0  0  0  0  0
    5.3851    3.4780  -57.9048 H   0  0  0  0  0  0  0  0  0  0  0  0
    5.1138    1.7023  -57.9048 H   0  0  0  0  0  0  0  0  0  0  0  0
    6.6024    0.8748  -55.5144 H   0  0  0  0  0  0  0  0  0  0  0  0
    6.8108    0.2290  -57.1894 H   0  0  0  0  0  0  0  0  0  0  0  0
    8.7261    0.5464  -57.2755 H   0  0  0  0  0  0  0  0  0  0  0  0
    8.8561    2.3074  -54.3155 H   0  0  0  0  0  0  0  0  0  0  0  0
   10.7706    2.9304  -54.6224 H   0  0  0  0  0  0  0  0  0  0  0  0
   10.9430    2.0550  -56.1852 H   0  0  0  0  0  0  0  0  0  0  0  0
    8.7639    4.1328  -55.6379 H   0  0  0  0  0  0  0  0  0  0  0  0
   10.3871    4.4993  -56.4014 H   0  0  0  0  0  0  0  0  0  0  0  0
   10.1339   -0.6162  -54.8917 H   0  0  0  0  0  0  0  0  0  0  0  0
    7.5345    1.0025  -53.1141 H   0  0  0  0  0  0  0  0  0  0  0  0
    6.1988   -0.3302  -51.4682 H   0  0  0  0  0  0  0  0  0  0  0  0
    9.2773   -2.6487  -54.6833 H   0  0  0  0  0  0  0  0  0  0  0  0
    6.0948   -4.9706  -52.1521 H   0  0  0  0  0  0  0  0  0  0  0  0
    7.4790   -4.7582  -50.9807 H   0  0  0  0  0  0  0  0  0  0  0  0
   10.0978    6.1017  -59.8600 H   0  0  0  0  0  0  0  0  0  0  0  0
  1  2  1  0
  2  3  2  0
  3  4  1  0
  4  5  2  0
  5  6  1  0
  6  7  1  0
  7  8  2  0
  8  9  1  0
  9 10  2  0
 10 11  1  0
 11 12  1  0
 12 13  1  0
 13 14  2  0
 14 15  1  0
 15 16  2  0
 16 17  1  0
  9 18  1  0
 18 19  1  0
 18 20  1  0
 20 21  1  0
 21 22  1  0
 22 23  1  0
 23 24  1  0
 22 25  1  0
 25 26  1  0
 26 27  1  0
 27 28  2  0
 28 29  1  0
 29 30  2  0
 30 31  1  0
 30 32  1  0
 32 33  1  0
 33 34  1  0
  6 35  2  0
 35  2  1  0
 11  7  1  0
 17 13  1  0
 25 21  1  0
 31 26  2  0
 24  8  1  0
 34 29  1  0
  1 36  1  0
  1 37  1  0
  1 38  1  0
  3 39  1  0
  4 40  1  0
  5 41  1  0
 12 42  1  0
 12 43  1  0
 14 44  1  0
 15 45  1  0
 16 46  1  0
 17 47  1  0
 19 48  1  0
 19 49  1  0
 19 50  1  0
 20 51  1  0
 20 52  1  0
 21 53  1  6
 22 54  1  1
 23 55  1  0
 23 56  1  0
 24 57  1  0
 24 58  1  0
 25 59  1  6
 27 60  1  0
 28 61  1  0
 31 62  1  0
 33 63  1  0
 33 64  1  0
 35 65  1  0
M  CHG  1  15   1
M  END
>  <meeko>  (119) 
{"is_sidechain": false}

$$$$

     RDKit          3D

 74 79  0  0  0  0  0  0  0  0999 V2000
    6.0710    0.1190  -53.4990 C   0  0  0  0  0  0  0  0  0  0  0  0
    7.4100   -0.3180  -53.9950 C   0  0  0  0  0  0  0  0  0  0  0  0
    8.1860    0.2890  -55.0450 C   0  0  0  0  0  0  0  0  0  0  0  0
    7.8930    1.4230  -55.9240 C   0  0  0  0  0  0  0  0  0  0  0  0
    6.7970    1.5790  -56.4540 O   0  0  0  0  0  0  0  0  0  0  0  0
    8.9250    2.3280  -56.0510 N   0  0  0  0  0  0  0  0  0  0  0  0
    8.7220    3.5910  -56.7300 C   0  0  0  0  0  0  0  0  0  0  0  0
    9.7530    3.8710  -57.8440 C   0  0  2  0  0  0  0  0  0  0  0  0
    9.2480    5.0600  -58.7040 C   0  0  0  0  0  0  0  0  0  0  0  0
   10.2380    5.3780  -59.8370 C   0  0  1  0  0  0  0  0  0  0  0  0
   11.6010    5.7430  -59.2270 C   0  0  0  0  0  0  0  0  0  0  0  0
   12.1340    4.5690  -58.3920 C   0  0  2  0  0  0  0  0  0  0  0  0
   12.2840    3.3300  -59.2930 C   0  0  0  0  0  0  0  0  0  0  0  0
   10.9240    2.9560  -59.9030 C   0  0  2  0  0  0  0  0  0  0  0  0
   10.3970    4.1370  -60.7320 C   0  0  0  0  0  0  0  0  0  0  0  0
    9.9290    2.6420  -58.7720 C   0  0  0  0  0  0  0  0  0  0  0  0
   11.1380    4.2530  -57.2610 C   0  0  0  0  0  0  0  0  0  0  0  0
    9.3760   -0.4110  -55.0960 C   0  0  0  0  0  0  0  0  0  0  0  0
    9.3530   -1.4100  -54.1620 N   0  0  0  0  0  0  0  0  0  0  0  0
   10.4460   -2.3550  -53.9600 C   0  0  0  0  0  0  0  0  0  0  0  0
   10.8030   -3.1660  -55.2180 C   0  0  2  0  0  0  0  0  0  0  0  0
   11.5600   -4.4660  -54.8780 C   0  0  0  0  0  0  0  0  0  0  0  0
   12.4570   -4.9770  -56.0120 C   0  0  0  0  0  0  0  0  0  0  0  0
   11.9590   -4.5610  -57.3910 C   0  0  1  0  0  0  0  0  0  0  0  0
   10.6640   -5.1190  -57.6200 O   0  0  0  0  0  0  0  0  0  0  0  0
   11.8710   -3.0380  -57.5260 C   0  0  0  0  0  0  0  0  0  0  0  0
   11.6160   -2.3130  -56.1980 C   0  0  0  0  0  0  0  0  0  0  0  0
    8.1450   -1.3930  -53.4960 C   0  0  0  0  0  0  0  0  0  0  0  0
    7.7820   -2.3440  -52.4480 C   0  0  0  0  0  0  0  0  0  0  0  0
    8.3840   -2.2710  -51.1860 C   0  0  0  0  0  0  0  0  0  0  0  0
    8.0380   -3.1790  -50.1820 C   0  0  0  0  0  0  0  0  0  0  0  0
    7.0820   -4.1600  -50.4370 C   0  0  0  0  0  0  0  0  0  0  0  0
    6.4800   -4.2220  -51.6900 C   0  0  0  0  0  0  0  0  0  0  0  0
    5.5580   -5.1640  -51.9300 F   0  0  0  0  0  0  0  0  0  0  0  0
    6.8180   -3.3240  -52.6960 C   0  0  0  0  0  0  0  0  0  0  0  0
    6.0697    0.1194  -52.3990 H   0  0  0  0  0  0  0  0  0  0  0  0
    5.8571    1.1336  -53.8663 H   0  0  0  0  0  0  0  0  0  0  0  0
    5.2998   -0.5741  -53.8663 H   0  0  0  0  0  0  0  0  0  0  0  0
    9.6250    2.2850  -55.3250 H   0  0  0  0  0  0  0  0  0  0  0  0
    7.7181    3.5858  -57.1796 H   0  0  0  0  0  0  0  0  0  0  0  0
    8.8410    4.3832  -55.9762 H   0  0  0  0  0  0  0  0  0  0  0  0
    8.2725    4.7997  -59.1407 H   0  0  0  0  0  0  0  0  0  0  0  0
    9.1563    5.9461  -58.0587 H   0  0  0  0  0  0  0  0  0  0  0  0
    9.8621    6.2205  -60.4360 H   0  0  0  0  0  0  0  0  0  0  0  0
   12.3130    5.9685  -60.0346 H   0  0  0  0  0  0  0  0  0  0  0  0
   11.4822    6.6232  -58.5780 H   0  0  0  0  0  0  0  0  0  0  0  0
   13.1105    4.8368  -57.9623 H   0  0  0  0  0  0  0  0  0  0  0  0
   12.9971    3.5512  -60.1008 H   0  0  0  0  0  0  0  0  0  0  0  0
   12.6532    2.4875  -58.6898 H   0  0  0  0  0  0  0  0  0  0  0  0
   11.0383    2.0736  -60.5497 H   0  0  0  0  0  0  0  0  0  0  0  0
   11.1079    4.3601  -61.5413 H   0  0  0  0  0  0  0  0  0  0  0  0
    9.4184    3.8711  -61.1581 H   0  0  0  0  0  0  0  0  0  0  0  0
    8.9553    2.3773  -59.2101 H   0  0  0  0  0  0  0  0  0  0  0  0
   10.3198    1.8023  -58.1785 H   0  0  0  0  0  0  0  0  0  0  0  0
   11.5232    3.4130  -56.6644 H   0  0  0  0  0  0  0  0  0  0  0  0
   11.0228    5.1467  -56.6301 H   0  0  0  0  0  0  0  0  0  0  0  0
   10.2107   -0.1984  -55.7801 H   0  0  0  0  0  0  0  0  0  0  0  0
   11.3374   -1.7928  -53.6447 H   0  0  0  0  0  0  0  0  0  0  0  0
   10.1122   -3.0744  -53.1978 H   0  0  0  0  0  0  0  0  0  0  0  0
    9.8556   -3.4549  -55.6964 H   0  0  0  0  0  0  0  0  0  0  0  0
   12.1896   -4.2795  -53.9955 H   0  0  0  0  0  0  0  0  0  0  0  0
   10.7999   -5.2406  -54.6982 H   0  0  0  0  0  0  0  0  0  0  0  0
   13.4702   -4.5738  -55.8677 H   0  0  0  0  0  0  0  0  0  0  0  0
   12.4464   -6.0763  -55.9734 H   0  0  0  0  0  0  0  0  0  0  0  0
   12.6795   -4.9352  -58.1332 H   0  0  0  0  0  0  0  0  0  0  0  0
   10.6480   -5.9990  -57.2070 H   0  0  0  0  0  0  0  0  0  0  0  0
   12.8198   -2.6714  -57.9448 H   0  0  0  0  0  0  0  0  0  0  0  0
   11.0121   -2.8230  -58.1788 H   0  0  0  0  0  0  0  0  0  0  0  0
   12.5841   -2.0692  -55.7362 H   0  0  0  0  0  0  0  0  0  0  0  0
   11.0355   -1.4044  -56.4160 H   0  0  0  0  0  0  0  0  0  0  0  0
    9.1349   -1.4931  -50.9835 H   0  0  0  0  0  0  0  0  0  0  0  0
    8.5184   -3.1196  -49.1942 H   0  0  0  0  0  0  0  0  0  0  0  0
    6.8051   -4.8805  -49.6533 H   0  0  0  0  0  0  0  0  0  0  0  0
    6.3300   -3.3847  -53.6799 H   0  0  0  0  0  0  0  0  0  0  0  0
  1  2  1  0
  2  3  1  0
  3  4  1  0
  4  5  2  0
  4  6  1  0
  6  7  1  0
  8  7  1  1
  8  9  1  0
  9 10  1  0
 10 11  1  0
 11 12  1  0
 12 13  1  0
 13 14  1  0
 14 15  1  0
 14 16  1  0
 12 17  1  0
  3 18  2  0
 18 19  1  0
 19 20  1  0
 20 21  1  0
 21 22  1  0
 22 23  1  0
 23 24  1  0
 24 25  1  0
 24 26  1  0
 26 27  1  0
 19 28  1  0
 28 29  1  0
 29 30  2  0
 30 31  1  0
 31 32  2  0
 32 33  1  0
 33 34  1  0
 33 35  2  0
 28  2  2  0
 35 29  1  0
 16  8  1  0
 27 21  1  0
 17  8  1  0
 15 10  1  0
  1 36  1  0
  1 37  1  0
  1 38  1  0
  6 39  1  0
  7 40  1  0
  7 41  1  0
  9 42  1  0
  9 43  1  0
 10 44  1  6
 11 45  1  0
 11 46  1  0
 12 47  1  1
 13 48  1  0
 13 49  1  0
 14 50  1  6
 15 51  1  0
 15 52  1  0
 16 53  1  0
 16 54  1  0
 17 55  1  0
 17 56  1  0
 18 57  1  0
 20 58  1  0
 20 59  1  0
 21 60  1  1
 22 61  1  0
 22 62  1  0
 23 63  1  0
 23 64  1  0
 24 65  1  1
 25 66  1  0
 26 67  1  0
 26 68  1  0
 27 69  1  0
 27 70  1  0
 30 71  1  0
 31 72  1  0
 32 73  1  0
 35 74  1  0
M  END
>  <meeko>  (120) 
{"is_sidechain": false}

$$$$

     RDKit          3D

 74 79  0  0  0  0  0  0  0  0999 V2000
    6.1990   -0.0310  -53.2520 C   0  0  0  0  0  0  0  0  0  0  0  0
    7.4790   -0.3950  -53.9270 C   0  0  0  0  0  0  0  0  0  0  0  0
    8.0550    0.2360  -55.0830 C   0  0  0  0  0  0  0  0  0  0  0  0
    7.5590    1.3170  -55.9370 C   0  0  0  0  0  0  0  0  0  0  0  0
    6.3840    1.3890  -56.2830 O   0  0  0  0  0  0  0  0  0  0  0  0
    8.5020    2.2640  -56.2650 N   0  0  0  0  0  0  0  0  0  0  0  0
    8.1950    3.4260  -57.0750 C   0  0  0  0  0  0  0  0  0  0  0  0
    9.3400    3.8250  -58.0300 C   0  0  2  0  0  0  0  0  0  0  0  0
    9.6440    2.6320  -58.9750 C   0  0  0  0  0  0  0  0  0  0  0  0
   10.7800    2.9820  -59.9520 C   0  0  1  0  0  0  0  0  0  0  0  0
   10.3650    4.1980  -60.7950 C   0  0  0  0  0  0  0  0  0  0  0  0
   10.0850    5.4000  -59.8800 C   0  0  2  0  0  0  0  0  0  0  0  0
   11.3540    5.7340  -59.0780 C   0  0  0  0  0  0  0  0  0  0  0  0
   11.7750    4.5240  -58.2290 C   0  0  2  0  0  0  0  0  0  0  0  0
   12.0470    3.3260  -59.1510 C   0  0  0  0  0  0  0  0  0  0  0  0
   10.6370    4.1700  -57.2540 C   0  0  0  0  0  0  0  0  0  0  0  0
    8.9490    5.0440  -58.9040 C   0  0  0  0  0  0  0  0  0  0  0  0
    9.2930   -0.3510  -55.2620 C   0  0  0  0  0  0  0  0  0  0  0  0
    9.4530   -1.3640  -54.3530 N   0  0  0  0  0  0  0  0  0  0  0  0
   10.6460   -2.1940  -54.2910 C   0  0  0  0  0  0  0  0  0  0  0  0
   10.8900   -3.1420  -55.4840 C   0  0  2  0  0  0  0  0  0  0  0  0
   11.5550   -4.4680  -55.0760 C   0  0  0  0  0  0  0  0  0  0  0  0
   11.7000   -5.4080  -56.2710 C   0  0  0  0  0  0  0  0  0  0  0  0
   12.4640   -4.7470  -57.4170 C   0  0  1  0  0  0  0  0  0  0  0  0
   12.4720   -5.6100  -58.5480 O   0  0  0  0  0  0  0  0  0  0  0  0
   11.8230   -3.4210  -57.8210 C   0  0  0  0  0  0  0  0  0  0  0  0
   11.6700   -2.4800  -56.6290 C   0  0  0  0  0  0  0  0  0  0  0  0
    8.3680   -1.3850  -53.5000 C   0  0  0  0  0  0  0  0  0  0  0  0
    8.2360   -2.2800  -52.3490 C   0  0  0  0  0  0  0  0  0  0  0  0
    9.3650   -2.6300  -51.5980 C   0  0  0  0  0  0  0  0  0  0  0  0
    9.2490   -3.4940  -50.5070 C   0  0  0  0  0  0  0  0  0  0  0  0
    8.0030   -4.0210  -50.1660 C   0  0  0  0  0  0  0  0  0  0  0  0
    6.8810   -3.6850  -50.9230 C   0  0  0  0  0  0  0  0  0  0  0  0
    5.1940   -4.4070  -50.4680 Br  0  0  0  0  0  0  0  0  0  0  0  0
    6.9920   -2.8230  -52.0130 C   0  0  0  0  0  0  0  0  0  0  0  0
    6.3357   -0.0699  -52.1612 H   0  0  0  0  0  0  0  0  0  0  0  0
    5.9045    0.9865  -53.5486 H   0  0  0  0  0  0  0  0  0  0  0  0
    5.4132   -0.7413  -53.5486 H   0  0  0  0  0  0  0  0  0  0  0  0
    9.4030    2.2130  -55.8160 H   0  0  0  0  0  0  0  0  0  0  0  0
    7.3001    3.2062  -57.6757 H   0  0  0  0  0  0  0  0  0  0  0  0
    8.0359    4.2695  -56.3871 H   0  0  0  0  0  0  0  0  0  0  0  0
    9.9427    1.7618  -58.3720 H   0  0  0  0  0  0  0  0  0  0  0  0
    8.7382    2.4038  -59.5560 H   0  0  0  0  0  0  0  0  0  0  0  0
   10.9807    2.1255  -60.6124 H   0  0  0  0  0  0  0  0  0  0  0  0
   11.1769    4.4522  -61.4923 H   0  0  0  0  0  0  0  0  0  0  0  0
    9.4528    3.9526  -61.3586 H   0  0  0  0  0  0  0  0  0  0  0  0
    9.7916    6.2673  -60.4897 H   0  0  0  0  0  0  0  0  0  0  0  0
   12.1667    5.9913  -59.7732 H   0  0  0  0  0  0  0  0  0  0  0  0
   11.1466    6.5858  -58.4136 H   0  0  0  0  0  0  0  0  0  0  0  0
   12.6863    4.7666  -57.6627 H   0  0  0  0  0  0  0  0  0  0  0  0
   12.8606    3.5789  -59.8467 H   0  0  0  0  0  0  0  0  0  0  0  0
   12.3355    2.4578  -58.5402 H   0  0  0  0  0  0  0  0  0  0  0  0
   10.9371    3.3024  -56.6480 H   0  0  0  0  0  0  0  0  0  0  0  0
   10.4423    5.0378  -56.6067 H   0  0  0  0  0  0  0  0  0  0  0  0
    8.7496    5.9070  -58.2517 H   0  0  0  0  0  0  0  0  0  0  0  0
    8.0503    4.7892  -59.4849 H   0  0  0  0  0  0  0  0  0  0  0  0
   10.0349   -0.0517  -56.0169 H   0  0  0  0  0  0  0  0  0  0  0  0
   11.5151   -1.5242  -54.2136 H   0  0  0  0  0  0  0  0  0  0  0  0
   10.4968   -2.8525  -53.4226 H   0  0  0  0  0  0  0  0  0  0  0  0
    9.8837   -3.3782  -55.8604 H   0  0  0  0  0  0  0  0  0  0  0  0
   12.5526   -4.2564  -54.6637 H   0  0  0  0  0  0  0  0  0  0  0  0
   10.9187   -4.9582  -54.3244 H   0  0  0  0  0  0  0  0  0  0  0  0
   12.2441   -6.3093  -55.9522 H   0  0  0  0  0  0  0  0  0  0  0  0
   10.6928   -5.6641  -56.6315 H   0  0  0  0  0  0  0  0  0  0  0  0
   13.4900   -4.5551  -57.0698 H   0  0  0  0  0  0  0  0  0  0  0  0
   13.1310   -5.2650  -59.1750 H   0  0  0  0  0  0  0  0  0  0  0  0
   12.4556   -2.9359  -58.5789 H   0  0  0  0  0  0  0  0  0  0  0  0
   10.8203   -3.6332  -58.2205 H   0  0  0  0  0  0  0  0  0  0  0  0
   12.6693   -2.1994  -56.2649 H   0  0  0  0  0  0  0  0  0  0  0  0
   11.1097   -1.5932  -56.9599 H   0  0  0  0  0  0  0  0  0  0  0  0
   10.3497   -2.2217  -51.8693 H   0  0  0  0  0  0  0  0  0  0  0  0
   10.1390   -3.7587  -49.9172 H   0  0  0  0  0  0  0  0  0  0  0  0
    7.9061   -4.6980  -49.3045 H   0  0  0  0  0  0  0  0  0  0  0  0
    6.1020   -2.5703  -52.6080 H   0  0  0  0  0  0  0  0  0  0  0  0
  1  2  1  0
  2  3  1  0
  3  4  1  0
  4  5  2  0
  4  6  1  0
  6  7  1  0
  8  7  1  1
  8  9  1  0
  9 10  1  0
 10 11  1  0
 11 12  1  0
 12 13  1  0
 13 14  1  0
 14 15  1  0
 14 16  1  0
 12 17  1  0
  3 18  2  0
 18 19  1  0
 19 20  1  0
 20 21  1  0
 21 22  1  0
 22 23  1  0
 23 24  1  0
 24 25  1  0
 24 26  1  0
 26 27  1  0
 19 28  1  0
 28 29  1  0
 29 30  2  0
 30 31  1  0
 31 32  2  0
 32 33  1  0
 33 34  1  0
 33 35  2  0
 28  2  2  0
 35 29  1  0
 16  8  1  0
 27 21  1  0
 17  8  1  0
 15 10  1  0
  1 36  1  0
  1 37  1  0
  1 38  1  0
  6 39  1  0
  7 40  1  0
  7 41  1  0
  9 42  1  0
  9 43  1  0
 10 44  1  6
 11 45  1  0
 11 46  1  0
 12 47  1  6
 13 48  1  0
 13 49  1  0
 14 50  1  1
 15 51  1  0
 15 52  1  0
 16 53  1  0
 16 54  1  0
 17 55  1  0
 17 56  1  0
 18 57  1  0
 20 58  1  0
 20 59  1  0
 21 60  1  1
 22 61  1  0
 22 62  1  0
 23 63  1  0
 23 64  1  0
 24 65  1  6
 25 66  1  0
 26 67  1  0
 26 68  1  0
 27 69  1  0
 27 70  1  0
 30 71  1  0
 31 72  1  0
 32 73  1  0
 35 74  1  0
M  END
>  <meeko>  (121) 
{"is_sidechain": false}

$$$$

     RDKit          3D

 73 78  0  0  0  0  0  0  0  0999 V2000
    6.7200   -0.0270  -53.4250 C   0  0  0  0  0  0  0  0  0  0  0  0
    8.0170   -0.5270  -53.9690 C   0  0  0  0  0  0  0  0  0  0  0  0
    8.7700    0.0880  -55.0300 C   0  0  0  0  0  0  0  0  0  0  0  0
    8.4200    1.3030  -55.7770 C   0  0  0  0  0  0  0  0  0  0  0  0
    7.2940    1.5030  -56.2240 O   0  0  0  0  0  0  0  0  0  0  0  0
    9.4470    2.2170  -55.9070 N   0  0  0  0  0  0  0  0  0  0  0  0
    9.2030    3.5280  -56.4720 C   0  0  0  0  0  0  0  0  0  0  0  0
   10.1130    3.8710  -57.6690 C   0  0  2  0  0  0  0  0  0  0  0  0
   10.0950    2.7430  -58.7330 C   0  0  0  0  0  0  0  0  0  0  0  0
   10.9710    3.1230  -59.9410 C   0  0  1  0  0  0  0  0  0  0  0  0
   10.4320    4.4150  -60.5720 C   0  0  0  0  0  0  0  0  0  0  0  0
   10.4630    5.5570  -59.5430 C   0  0  2  0  0  0  0  0  0  0  0  0
   11.9100    5.7770  -59.0730 C   0  0  0  0  0  0  0  0  0  0  0  0
   12.4560    4.4910  -58.4320 C   0  0  2  0  0  0  0  0  0  0  0  0
   12.4160    3.3530  -59.4660 C   0  0  0  0  0  0  0  0  0  0  0  0
   11.5800    4.1100  -57.2250 C   0  0  0  0  0  0  0  0  0  0  0  0
    9.5930    5.1720  -58.3360 C   0  0  0  0  0  0  0  0  0  0  0  0
    9.8810   -0.7140  -55.2240 C   0  0  0  0  0  0  0  0  0  0  0  0
    9.8480   -1.7500  -54.3240 N   0  0  0  0  0  0  0  0  0  0  0  0
   10.8660   -2.7920  -54.2530 C   0  0  0  0  0  0  0  0  0  0  0  0
   11.0450   -3.5710  -55.5680 C   0  0  0  0  0  0  0  0  0  0  0  0
   11.7660   -4.9180  -55.3490 C   0  0  0  0  0  0  0  0  0  0  0  0
   12.4810   -5.4440  -56.5960 C   0  0  0  0  0  0  0  0  0  0  0  0
   11.8410   -4.9390  -57.8810 C   0  0  0  0  0  0  0  0  0  0  0  0
   11.8700   -3.4120  -57.9640 C   0  0  0  0  0  0  0  0  0  0  0  0
   11.7970   -2.7220  -56.5980 C   0  0  0  0  0  0  0  0  0  0  0  0
    8.7090   -1.6620  -53.5550 C   0  0  0  0  0  0  0  0  0  0  0  0
    8.3560   -2.6240  -52.5110 C   0  0  0  0  0  0  0  0  0  0  0  0
    8.8740   -2.4830  -51.2200 C   0  0  0  0  0  0  0  0  0  0  0  0
    8.5390   -3.4020  -50.2240 C   0  0  0  0  0  0  0  0  0  0  0  0
    7.6800   -4.4610  -50.5130 C   0  0  0  0  0  0  0  0  0  0  0  0
    7.1510   -4.6000  -51.7950 C   0  0  0  0  0  0  0  0  0  0  0  0
    7.4850   -3.6820  -52.7920 C   0  0  0  0  0  0  0  0  0  0  0  0
    6.7541   -0.0401  -52.3256 H   0  0  0  0  0  0  0  0  0  0  0  0
    6.5481    1.0018  -53.7743 H   0  0  0  0  0  0  0  0  0  0  0  0
    5.9020   -0.6742  -53.7743 H   0  0  0  0  0  0  0  0  0  0  0  0
   10.2260    2.1000  -55.2780 H   0  0  0  0  0  0  0  0  0  0  0  0
    8.1567    3.5709  -56.8087 H   0  0  0  0  0  0  0  0  0  0  0  0
    9.4227    4.2621  -55.6828 H   0  0  0  0  0  0  0  0  0  0  0  0
   10.4812    1.8162  -58.2838 H   0  0  0  0  0  0  0  0  0  0  0  0
    9.0605    2.5969  -59.0773 H   0  0  0  0  0  0  0  0  0  0  0  0
   10.9499    2.3124  -60.6843 H   0  0  0  0  0  0  0  0  0  0  0  0
   11.0566    4.6863  -61.4359 H   0  0  0  0  0  0  0  0  0  0  0  0
    9.3942    4.2514  -60.8979 H   0  0  0  0  0  0  0  0  0  0  0  0
   10.0776    6.4799  -60.0009 H   0  0  0  0  0  0  0  0  0  0  0  0
   12.5360    6.0481  -59.9359 H   0  0  0  0  0  0  0  0  0  0  0  0
   11.9288    6.5872  -58.3292 H   0  0  0  0  0  0  0  0  0  0  0  0
   13.4916    4.6553  -58.0995 H   0  0  0  0  0  0  0  0  0  0  0  0
   13.0442    3.6220  -60.3280 H   0  0  0  0  0  0  0  0  0  0  0  0
   12.7942    2.4303  -59.0017 H   0  0  0  0  0  0  0  0  0  0  0  0
   11.9740    3.1901  -56.7684 H   0  0  0  0  0  0  0  0  0  0  0  0
   11.6005    4.9348  -56.4975 H   0  0  0  0  0  0  0  0  0  0  0  0
    9.6177    5.9887  -57.5995 H   0  0  0  0  0  0  0  0  0  0  0  0
    8.5644    4.9999  -58.6857 H   0  0  0  0  0  0  0  0  0  0  0  0
   10.6645   -0.5480  -55.9781 H   0  0  0  0  0  0  0  0  0  0  0  0
   11.8264   -2.3224  -53.9938 H   0  0  0  0  0  0  0  0  0  0  0  0
   10.5343   -3.5149  -53.4931 H   0  0  0  0  0  0  0  0  0  0  0  0
   10.0400   -3.7951  -55.9550 H   0  0  0  0  0  0  0  0  0  0  0  0
   12.5114   -4.7870  -54.5508 H   0  0  0  0  0  0  0  0  0  0  0  0
   10.9942   -5.6563  -55.0860 H   0  0  0  0  0  0  0  0  0  0  0  0
   13.5299   -5.1136  -56.5689 H   0  0  0  0  0  0  0  0  0  0  0  0
   12.4070   -6.5415  -56.5903 H   0  0  0  0  0  0  0  0  0  0  0  0
   12.3898   -5.3534  -58.7396 H   0  0  0  0  0  0  0  0  0  0  0  0
   10.7900   -5.2636  -57.8918 H   0  0  0  0  0  0  0  0  0  0  0  0
   12.8050   -3.1082  -58.4575 H   0  0  0  0  0  0  0  0  0  0  0  0
   10.9787   -3.1027  -58.5297 H   0  0  0  0  0  0  0  0  0  0  0  0
   12.8198   -2.5449  -56.2341 H   0  0  0  0  0  0  0  0  0  0  0  0
   11.2509   -1.7754  -56.7232 H   0  0  0  0  0  0  0  0  0  0  0  0
    9.5479   -1.6450  -50.9883 H   0  0  0  0  0  0  0  0  0  0  0  0
    8.9530   -3.2904  -49.2110 H   0  0  0  0  0  0  0  0  0  0  0  0
    7.4195   -5.1873  -49.7290 H   0  0  0  0  0  0  0  0  0  0  0  0
    6.4699   -5.4336  -52.0212 H   0  0  0  0  0  0  0  0  0  0  0  0
    7.0621   -3.7908  -53.8016 H   0  0  0  0  0  0  0  0  0  0  0  0
  1  2  1  0
  2  3  1  0
  3  4  1  0
  4  5  2  0
  4  6  1  0
  6  7  1  0
  8  7  1  1
  8  9  1  0
  9 10  1  0
 10 11  1  0
 11 12  1  0
 12 13  1  0
 13 14  1  0
 14 15  1  0
 14 16  1  0
 12 17  1  0
  3 18  2  0
 18 19  1  0
 19 20  1  0
 20 21  1  0
 21 22  1  0
 22 23  1  0
 23 24  1  0
 24 25  1  0
 25 26  1  0
 19 27  1  0
 27 28  1  0
 28 29  2  0
 29 30  1  0
 30 31  2  0
 31 32  1  0
 32 33  2  0
 27  2  2  0
 33 28  1  0
 16  8  1  0
 26 21  1  0
 17  8  1  0
 15 10  1  0
  1 34  1  0
  1 35  1  0
  1 36  1  0
  6 37  1  0
  7 38  1  0
  7 39  1  0
  9 40  1  0
  9 41  1  0
 10 42  1  6
 11 43  1  0
 11 44  1  0
 12 45  1  6
 13 46  1  0
 13 47  1  0
 14 48  1  1
 15 49  1  0
 15 50  1  0
 16 51  1  0
 16 52  1  0
 17 53  1  0
 17 54  1  0
 18 55  1  0
 20 56  1  0
 20 57  1  0
 21 58  1  0
 22 59  1  0
 22 60  1  0
 23 61  1  0
 23 62  1  0
 24 63  1  0
 24 64  1  0
 25 65  1  0
 25 66  1  0
 26 67  1  0
 26 68  1  0
 29 69  1  0
 30 70  1  0
 31 71  1  0
 32 72  1  0
 33 73  1  0
M  END
>  <meeko>  (122) 
{"is_sidechain": false}

$$$$

     RDKit          3D

 72 77  0  0  0  0  0  0  0  0999 V2000
    6.5830   -0.9590  -55.2270 C   0  0  0  0  0  0  0  0  0  0  0  0
    7.7160   -0.0190  -55.4740 C   0  0  0  0  0  0  0  0  0  0  0  0
    9.0240   -0.1220  -54.8820 C   0  0  0  0  0  0  0  0  0  0  0  0
    9.5150   -1.1460  -53.9510 C   0  0  0  0  0  0  0  0  0  0  0  0
    9.0920   -1.2570  -52.8060 O   0  0  0  0  0  0  0  0  0  0  0  0
   10.4840   -1.9390  -54.5240 N   0  0  0  0  0  0  0  0  0  0  0  0
   10.0730   -2.8230  -55.3710 C   0  0  0  0  0  0  0  0  0  0  0  0
   11.0400   -3.7610  -56.0760 C   0  0  2  0  0  0  0  0  0  0  0  0
   11.8970   -2.9370  -57.0630 C   0  0  0  0  0  0  0  0  0  0  0  0
   12.8460   -3.8610  -57.8470 C   0  0  1  0  0  0  0  0  0  0  0  0
   13.7680   -4.5950  -56.8580 C   0  0  0  0  0  0  0  0  0  0  0  0
   12.9300   -5.4330  -55.8780 C   0  0  2  0  0  0  0  0  0  0  0  0
   12.0990   -6.4580  -56.6680 C   0  0  0  0  0  0  0  0  0  0  0  0
   11.1680   -5.7330  -57.6550 C   0  0  2  0  0  0  0  0  0  0  0  0
   12.0160   -4.8940  -58.6270 C   0  0  0  0  0  0  0  0  0  0  0  0
   10.2260   -4.8030  -56.8740 C   0  0  0  0  0  0  0  0  0  0  0  0
   11.9810   -4.5040  -55.1010 C   0  0  0  0  0  0  0  0  0  0  0  0
    9.7440    0.9570  -55.3660 C   0  0  0  0  0  0  0  0  0  0  0  0
    8.9590    1.6770  -56.2290 N   0  0  0  0  0  0  0  0  0  0  0  0
    9.4280    2.8770  -56.9110 C   0  0  0  0  0  0  0  0  0  0  0  0
   10.4590    2.6000  -58.0270 C   0  0  2  0  0  0  0  0  0  0  0  0
   11.8840    2.9380  -57.5520 C   0  0  0  0  0  0  0  0  0  0  0  0
   12.1410    4.4430  -57.4520 C   0  0  0  0  0  0  0  0  0  0  0  0
   11.8250    5.1660  -58.7600 C   0  0  1  0  0  0  0  0  0  0  0  0
   12.7540    4.7670  -59.7660 O   0  0  0  0  0  0  0  0  0  0  0  0
   10.4120    4.8530  -59.2480 C   0  0  0  0  0  0  0  0  0  0  0  0
   10.1480    3.3480  -59.3350 C   0  0  0  0  0  0  0  0  0  0  0  0
    7.7030    1.1080  -56.2940 C   0  0  0  0  0  0  0  0  0  0  0  0
    6.6030    1.6320  -57.1030 C   0  0  0  0  0  0  0  0  0  0  0  0
    5.5160    2.2620  -56.4850 C   0  0  0  0  0  0  0  0  0  0  0  0
    4.4630    2.7670  -57.2490 C   0  0  0  0  0  0  0  0  0  0  0  0
    4.4950    2.6500  -58.6380 C   0  0  0  0  0  0  0  0  0  0  0  0
    5.5810    2.0330  -59.2550 C   0  0  0  0  0  0  0  0  0  0  0  0
    5.6180    1.8880  -60.9700 Cl  0  0  0  0  0  0  0  0  0  0  0  0
    6.6370    1.5280  -58.4970 C   0  0  0  0  0  0  0  0  0  0  0  0
    6.4368   -1.0803  -54.1435 H   0  0  0  0  0  0  0  0  0  0  0  0
    5.6652   -0.5535  -55.6777 H   0  0  0  0  0  0  0  0  0  0  0  0
    6.8121   -1.9359  -55.6777 H   0  0  0  0  0  0  0  0  0  0  0  0
    8.9972   -2.8992  -55.5877 H   0  0  0  0  0  0  0  0  0  0  0  0
   11.2352   -2.4136  -57.7687 H   0  0  0  0  0  0  0  0  0  0  0  0
   12.4948   -2.2084  -56.4957 H   0  0  0  0  0  0  0  0  0  0  0  0
   13.4506   -3.2656  -58.5470 H   0  0  0  0  0  0  0  0  0  0  0  0
   14.4462   -5.2575  -57.4158 H   0  0  0  0  0  0  0  0  0  0  0  0
   14.3513   -3.8542  -56.2914 H   0  0  0  0  0  0  0  0  0  0  0  0
   13.5953   -5.9571  -55.1760 H   0  0  0  0  0  0  0  0  0  0  0  0
   12.7751   -7.1223  -57.2262 H   0  0  0  0  0  0  0  0  0  0  0  0
   11.4915   -7.0479  -55.9659 H   0  0  0  0  0  0  0  0  0  0  0  0
   10.5776   -6.4709  -58.2179 H   0  0  0  0  0  0  0  0  0  0  0  0
   12.6926   -5.5575  -59.1856 H   0  0  0  0  0  0  0  0  0  0  0  0
   11.3485   -4.3671  -59.3247 H   0  0  0  0  0  0  0  0  0  0  0  0
    9.5632   -4.2818  -57.5804 H   0  0  0  0  0  0  0  0  0  0  0  0
    9.6306   -5.4051  -56.1720 H   0  0  0  0  0  0  0  0  0  0  0  0
   11.3792   -5.1028  -54.4015 H   0  0  0  0  0  0  0  0  0  0  0  0
   12.5783   -3.7647  -54.5471 H   0  0  0  0  0  0  0  0  0  0  0  0
   10.7835    1.1988  -55.0997 H   0  0  0  0  0  0  0  0  0  0  0  0
    8.5598    3.3823  -57.3592 H   0  0  0  0  0  0  0  0  0  0  0  0
    9.9337    3.4965  -56.1557 H   0  0  0  0  0  0  0  0  0  0  0  0
   10.3912    1.5243  -58.2469 H   0  0  0  0  0  0  0  0  0  0  0  0
   12.0379    2.4896  -56.5594 H   0  0  0  0  0  0  0  0  0  0  0  0
   12.5836    2.5342  -58.2987 H   0  0  0  0  0  0  0  0  0  0  0  0
   11.5080    4.8591  -56.6544 H   0  0  0  0  0  0  0  0  0  0  0  0
   13.2084    4.5913  -57.2313 H   0  0  0  0  0  0  0  0  0  0  0  0
   11.9005    6.2468  -58.5698 H   0  0  0  0  0  0  0  0  0  0  0  0
   12.4840    5.1870  -60.5990 H   0  0  0  0  0  0  0  0  0  0  0  0
    9.6893    5.2992  -58.5490 H   0  0  0  0  0  0  0  0  0  0  0  0
   10.3043    5.2727  -60.2591 H   0  0  0  0  0  0  0  0  0  0  0  0
    9.0874    3.1931  -59.5823 H   0  0  0  0  0  0  0  0  0  0  0  0
   10.8169    2.9437  -60.1090 H   0  0  0  0  0  0  0  0  0  0  0  0
    5.4918    2.3596  -55.3896 H   0  0  0  0  0  0  0  0  0  0  0  0
    3.6097    3.2562  -56.7565 H   0  0  0  0  0  0  0  0  0  0  0  0
    3.6658    3.0434  -59.2444 H   0  0  0  0  0  0  0  0  0  0  0  0
    7.4938    1.0495  -58.9940 H   0  0  0  0  0  0  0  0  0  0  0  0
  1  2  1  0
  2  3  1  0
  3  4  1  0
  4  5  2  0
  4  6  1  0
  6  7  2  0
  8  7  1  1
  8  9  1  0
  9 10  1  0
 10 11  1  0
 11 12  1  0
 12 13  1  0
 13 14  1  0
 14 15  1  0
 14 16  1  0
 12 17  1  0
  3 18  2  0
 18 19  1  0
 19 20  1  0
 20 21  1  0
 21 22  1  0
 22 23  1  0
 23 24  1  0
 24 25  1  0
 24 26  1  0
 26 27  1  0
 19 28  1  0
 28 29  1  0
 29 30  2  0
 30 31  1  0
 31 32  2  0
 32 33  1  0
 33 34  1  0
 33 35  2  0
 28  2  2  0
 35 29  1  0
 16  8  1  0
 27 21  1  0
 17  8  1  0
 15 10  1  0
  1 36  1  0
  1 37  1  0
  1 38  1  0
  7 39  1  0
  9 40  1  0
  9 41  1  0
 10 42  1  6
 11 43  1  0
 11 44  1  0
 12 45  1  1
 13 46  1  0
 13 47  1  0
 14 48  1  6
 15 49  1  0
 15 50  1  0
 16 51  1  0
 16 52  1  0
 17 53  1  0
 17 54  1  0
 18 55  1  0
 20 56  1  0
 20 57  1  0
 21 58  1  1
 22 59  1  0
 22 60  1  0
 23 61  1  0
 23 62  1  0
 24 63  1  6
 25 64  1  0
 26 65  1  0
 26 66  1  0
 27 67  1  0
 27 68  1  0
 30 69  1  0
 31 70  1  0
 32 71  1  0
 35 72  1  0
M  END
>  <meeko>  (123) 
{"is_sidechain": false}

$$$$

     RDKit          3D

 72 77  0  0  0  0  0  0  0  0999 V2000
    7.1400    0.7840  -54.3070 C   0  0  0  0  0  0  0  0  0  0  0  0
    8.4220    0.2780  -54.8800 C   0  0  0  0  0  0  0  0  0  0  0  0
    9.2640    0.9950  -55.8000 C   0  0  0  0  0  0  0  0  0  0  0  0
    9.0590    2.3470  -56.3370 C   0  0  0  0  0  0  0  0  0  0  0  0
    8.4320    2.5710  -57.3650 O   0  0  0  0  0  0  0  0  0  0  0  0
    9.6630    3.3110  -55.5790 N   0  0  0  0  0  0  0  0  0  0  0  0
   10.5660    4.0860  -56.0990 C   0  0  0  0  0  0  0  0  0  0  0  0
   11.1180    4.1960  -57.5220 C   0  0  2  0  0  0  0  0  0  0  0  0
   12.5940    4.6490  -57.4970 C   0  0  0  0  0  0  0  0  0  0  0  0
   13.1120    4.8860  -58.9280 C   0  0  1  0  0  0  0  0  0  0  0  0
   12.9710    3.5890  -59.7450 C   0  0  0  0  0  0  0  0  0  0  0  0
   11.4930    3.1620  -59.8100 C   0  0  2  0  0  0  0  0  0  0  0  0
   10.6700    4.2770  -60.4690 C   0  0  0  0  0  0  0  0  0  0  0  0
   10.8010    5.5710  -59.6530 C   0  0  2  0  0  0  0  0  0  0  0  0
   12.2780    5.9920  -59.5940 C   0  0  0  0  0  0  0  0  0  0  0  0
   10.2940    5.3160  -58.2260 C   0  0  0  0  0  0  0  0  0  0  0  0
   10.9800    2.9180  -58.3790 C   0  0  0  0  0  0  0  0  0  0  0  0
   10.3300    0.1570  -56.0770 C   0  0  0  0  0  0  0  0  0  0  0  0
   10.1910   -0.9990  -55.3540 N   0  0  0  0  0  0  0  0  0  0  0  0
   11.1530   -2.0930  -55.3940 C   0  0  0  0  0  0  0  0  0  0  0  0
   10.7300   -3.2700  -56.3010 C   0  0  2  0  0  0  0  0  0  0  0  0
   10.8270   -4.6430  -55.6130 C   0  0  0  0  0  0  0  0  0  0  0  0
   12.2680   -5.0980  -55.3790 C   0  0  0  0  0  0  0  0  0  0  0  0
   13.1130   -5.0570  -56.6540 C   0  0  1  0  0  0  0  0  0  0  0  0
   12.7330   -6.1210  -57.5230 O   0  0  0  0  0  0  0  0  0  0  0  0
   13.0030   -3.7200  -57.3870 C   0  0  0  0  0  0  0  0  0  0  0  0
   11.5530   -3.2780  -57.6010 C   0  0  0  0  0  0  0  0  0  0  0  0
    9.0160   -0.9580  -54.6320 C   0  0  0  0  0  0  0  0  0  0  0  0
    8.5500   -2.0430  -53.7720 C   0  0  0  0  0  0  0  0  0  0  0  0
    7.5700   -2.9340  -54.2260 C   0  0  0  0  0  0  0  0  0  0  0  0
    7.1230   -3.9690  -53.4030 C   0  0  0  0  0  0  0  0  0  0  0  0
    7.6500   -4.1160  -52.1200 C   0  0  0  0  0  0  0  0  0  0  0  0
    8.6180   -3.2220  -51.6630 C   0  0  0  0  0  0  0  0  0  0  0  0
    9.2650   -3.4030  -50.0800 Cl  0  0  0  0  0  0  0  0  0  0  0  0
    9.0660   -2.1850  -52.4790 C   0  0  0  0  0  0  0  0  0  0  0  0
    7.1954    0.7621  -53.2086 H   0  0  0  0  0  0  0  0  0  0  0  0
    6.9696    1.8168  -54.6451 H   0  0  0  0  0  0  0  0  0  0  0  0
    6.3102    0.1460  -54.6451 H   0  0  0  0  0  0  0  0  0  0  0  0
   11.0164    4.7925  -55.3863 H   0  0  0  0  0  0  0  0  0  0  0  0
   12.6756    5.5840  -56.9234 H   0  0  0  0  0  0  0  0  0  0  0  0
   13.1994    3.8602  -57.0265 H   0  0  0  0  0  0  0  0  0  0  0  0
   14.1692    5.1876  -58.8899 H   0  0  0  0  0  0  0  0  0  0  0  0
   13.3456    3.7592  -60.7651 H   0  0  0  0  0  0  0  0  0  0  0  0
   13.5545    2.7928  -59.2597 H   0  0  0  0  0  0  0  0  0  0  0  0
   11.3945    2.2398  -60.4015 H   0  0  0  0  0  0  0  0  0  0  0  0
   11.0408    4.4499  -61.4901 H   0  0  0  0  0  0  0  0  0  0  0  0
    9.6127    3.9755  -60.5050 H   0  0  0  0  0  0  0  0  0  0  0  0
   10.2091    6.3683  -60.1262 H   0  0  0  0  0  0  0  0  0  0  0  0
   12.6492    6.1637  -60.6151 H   0  0  0  0  0  0  0  0  0  0  0  0
   12.3673    6.9167  -59.0050 H   0  0  0  0  0  0  0  0  0  0  0  0
   10.3819    6.2450  -57.6435 H   0  0  0  0  0  0  0  0  0  0  0  0
    9.2451    4.9898  -58.2841 H   0  0  0  0  0  0  0  0  0  0  0  0
    9.9208    2.6243  -58.4207 H   0  0  0  0  0  0  0  0  0  0  0  0
   11.5809    2.1189  -57.9202 H   0  0  0  0  0  0  0  0  0  0  0  0
   11.1565    0.3826  -56.7669 H   0  0  0  0  0  0  0  0  0  0  0  0
   12.1106   -1.6980  -55.7642 H   0  0  0  0  0  0  0  0  0  0  0  0
   11.2254   -2.4902  -54.3708 H   0  0  0  0  0  0  0  0  0  0  0  0
    9.6673   -3.1047  -56.5317 H   0  0  0  0  0  0  0  0  0  0  0  0
   10.3166   -4.5837  -54.6404 H   0  0  0  0  0  0  0  0  0  0  0  0
   10.3561   -5.3783  -56.2820 H   0  0  0  0  0  0  0  0  0  0  0  0
   12.7287   -4.4374  -54.6298 H   0  0  0  0  0  0  0  0  0  0  0  0
   12.2356   -6.1422  -55.0345 H   0  0  0  0  0  0  0  0  0  0  0  0
   14.1640   -5.1765  -56.3521 H   0  0  0  0  0  0  0  0  0  0  0  0
   12.1080   -6.7010  -57.0600 H   0  0  0  0  0  0  0  0  0  0  0  0
   13.5210   -2.9511  -56.7951 H   0  0  0  0  0  0  0  0  0  0  0  0
   13.4600   -3.8479  -58.3794 H   0  0  0  0  0  0  0  0  0  0  0  0
   11.5546   -2.2615  -58.0214 H   0  0  0  0  0  0  0  0  0  0  0  0
   11.0847   -4.0030  -58.2830 H   0  0  0  0  0  0  0  0  0  0  0  0
    7.1503   -2.8178  -55.2361 H   0  0  0  0  0  0  0  0  0  0  0  0
    6.3555   -4.6684  -53.7661 H   0  0  0  0  0  0  0  0  0  0  0  0
    7.3035   -4.9339  -51.4711 H   0  0  0  0  0  0  0  0  0  0  0  0
    9.8237   -1.4795  -52.1075 H   0  0  0  0  0  0  0  0  0  0  0  0
  1  2  1  0
  2  3  1  0
  3  4  1  0
  4  5  2  0
  4  6  1  0
  6  7  2  0
  8  7  1  1
  8  9  1  0
  9 10  1  0
 10 11  1  0
 11 12  1  0
 12 13  1  0
 13 14  1  0
 14 15  1  0
 14 16  1  0
 12 17  1  0
  3 18  2  0
 18 19  1  0
 19 20  1  0
 20 21  1  0
 21 22  1  0
 22 23  1  0
 23 24  1  0
 24 25  1  0
 24 26  1  0
 26 27  1  0
 19 28  1  0
 28 29  1  0
 29 30  2  0
 30 31  1  0
 31 32  2  0
 32 33  1  0
 33 34  1  0
 33 35  2  0
 28  2  2  0
 35 29  1  0
 16  8  1  0
 27 21  1  0
 17  8  1  0
 15 10  1  0
  1 36  1  0
  1 37  1  0
  1 38  1  0
  7 39  1  0
  9 40  1  0
  9 41  1  0
 10 42  1  1
 11 43  1  0
 11 44  1  0
 12 45  1  6
 13 46  1  0
 13 47  1  0
 14 48  1  6
 15 49  1  0
 15 50  1  0
 16 51  1  0
 16 52  1  0
 17 53  1  0
 17 54  1  0
 18 55  1  0
 20 56  1  0
 20 57  1  0
 21 58  1  1
 22 59  1  0
 22 60  1  0
 23 61  1  0
 23 62  1  0
 24 63  1  6
 25 64  1  0
 26 65  1  0
 26 66  1  0
 27 67  1  0
 27 68  1  0
 30 69  1  0
 31 70  1  0
 32 71  1  0
 35 72  1  0
M  END
>  <meeko>  (124) 
{"is_sidechain": false}

$$$$
