
     RDKit          3D

 50 54  0  0  0  0  0  0  0  0999 V2000
    8.2520    0.7850  -54.4430 C   0  0  0  0  0  0  0  0  0  0  0  0
    9.3260   -0.1720  -54.8200 C   0  0  0  0  0  0  0  0  0  0  0  0
   10.3440    0.0420  -55.8030 C   0  0  0  0  0  0  0  0  0  0  0  0
   10.5400    1.2260  -56.6660 C   0  0  0  0  0  0  0  0  0  0  0  0
   11.6340    1.7510  -56.8410 O   0  0  0  0  0  0  0  0  0  0  0  0
    9.3640    1.6660  -57.2340 N   0  0  0  0  0  0  0  0  0  0  0  0
    9.2100    2.8080  -58.1290 C   0  0  2  0  0  0  0  0  0  0  0  0
    7.6970    3.1250  -58.2680 C   0  0  0  0  0  0  0  0  0  0  0  0
    7.4700    4.3240  -59.2030 C   0  0  1  0  0  0  0  0  0  0  0  0
    8.1920    5.5540  -58.6310 C   0  0  0  0  0  0  0  0  0  0  0  0
    9.6970    5.2690  -58.5100 C   0  0  2  0  0  0  0  0  0  0  0  0
   10.2640    4.9350  -59.9000 C   0  0  0  0  0  0  0  0  0  0  0  0
    9.5480    3.7030  -60.4810 C   0  0  2  0  0  0  0  0  0  0  0  0
    8.0430    3.9970  -60.5900 C   0  0  0  0  0  0  0  0  0  0  0  0
    9.7640    2.5020  -59.5430 C   0  0  0  0  0  0  0  0  0  0  0  0
    9.9150    4.0690  -57.5720 C   0  0  0  0  0  0  0  0  0  0  0  0
   11.1740   -1.0190  -55.8810 N   0  0  0  0  0  0  0  0  0  0  0  0
   10.6940   -1.8750  -54.9690 N   0  0  0  0  0  0  0  0  0  0  0  0
    9.5720   -1.4390  -54.3130 C   0  0  0  0  0  0  0  0  0  0  0  0
    8.8630   -2.2570  -53.3250 C   0  0  0  0  0  0  0  0  0  0  0  0
    9.5250   -2.5760  -52.1260 C   0  0  0  0  0  0  0  0  0  0  0  0
    8.8980   -3.3460  -51.1430 C   0  0  0  0  0  0  0  0  0  0  0  0
    7.6010   -3.8060  -51.3480 C   0  0  0  0  0  0  0  0  0  0  0  0
    6.8300   -4.7540  -50.1370 Cl  0  0  0  0  0  0  0  0  0  0  0  0
    6.9220   -3.5010  -52.5240 C   0  0  0  0  0  0  0  0  0  0  0  0
    7.5490   -2.7290  -53.5070 C   0  0  0  0  0  0  0  0  0  0  0  0
    6.6410   -2.4040  -54.9460 Cl  0  0  0  0  0  0  0  0  0  0  0  0
    8.1835    0.8461  -53.3468 H   0  0  0  0  0  0  0  0  0  0  0  0
    8.4865    1.7790  -54.8517 H   0  0  0  0  0  0  0  0  0  0  0  0
    7.2915    0.4379  -54.8517 H   0  0  0  0  0  0  0  0  0  0  0  0
    8.5510    1.1120  -56.9710 H   0  0  0  0  0  0  0  0  0  0  0  0
    7.1812    2.2449  -58.6796 H   0  0  0  0  0  0  0  0  0  0  0  0
    7.2981    3.3749  -57.2738 H   0  0  0  0  0  0  0  0  0  0  0  0
    6.3933    4.5331  -59.2871 H   0  0  0  0  0  0  0  0  0  0  0  0
    8.0363    6.4124  -59.3010 H   0  0  0  0  0  0  0  0  0  0  0  0
    7.7856    5.7810  -57.6344 H   0  0  0  0  0  0  0  0  0  0  0  0
   10.2085    6.1539  -58.1034 H   0  0  0  0  0  0  0  0  0  0  0  0
   10.1126    5.7937  -60.5706 H   0  0  0  0  0  0  0  0  0  0  0  0
   11.3382    4.7170  -59.8078 H   0  0  0  0  0  0  0  0  0  0  0  0
    9.9540    3.4730  -61.4771 H   0  0  0  0  0  0  0  0  0  0  0  0
    7.8871    4.8552  -61.2602 H   0  0  0  0  0  0  0  0  0  0  0  0
    7.5302    3.1111  -60.9929 H   0  0  0  0  0  0  0  0  0  0  0  0
    9.2429    1.6245  -59.9534 H   0  0  0  0  0  0  0  0  0  0  0  0
   10.8429    2.3020  -59.4656 H   0  0  0  0  0  0  0  0  0  0  0  0
   10.9933    3.8708  -57.4828 H   0  0  0  0  0  0  0  0  0  0  0  0
    9.4896    4.3072  -56.5860 H   0  0  0  0  0  0  0  0  0  0  0  0
   11.1780   -2.7570  -54.8350 H   0  0  0  0  0  0  0  0  0  0  0  0
   10.5505   -2.2144  -51.9597 H   0  0  0  0  0  0  0  0  0  0  0  0
    9.4281   -3.5878  -50.2100 H   0  0  0  0  0  0  0  0  0  0  0  0
    5.8960   -3.8658  -52.6796 H   0  0  0  0  0  0  0  0  0  0  0  0
  1  2  1  0
  2  3  1  0
  3  4  1  0
  4  5  2  0
  4  6  1  0
  7  6  1  1
  7  8  1  0
  8  9  1  0
  9 10  1  0
 10 11  1  0
 11 12  1  0
 12 13  1  0
 13 14  1  0
 13 15  1  0
 11 16  1  0
  3 17  2  0
 17 18  1  0
 18 19  1  0
 19 20  1  0
 20 21  1  0
 21 22  2  0
 22 23  1  0
 23 24  1  0
 23 25  2  0
 25 26  1  0
 26 27  1  0
 19  2  2  0
 26 20  2  0
 15  7  1  0
 16  7  1  0
 14  9  1  0
  1 28  1  0
  1 29  1  0
  1 30  1  0
  6 31  1  0
  8 32  1  0
  8 33  1  0
  9 34  1  6
 10 35  1  0
 10 36  1  0
 11 37  1  1
 12 38  1  0
 12 39  1  0
 13 40  1  6
 14 41  1  0
 14 42  1  0
 15 43  1  0
 15 44  1  0
 16 45  1  0
 16 46  1  0
 18 47  1  0
 21 48  1  0
 22 49  1  0
 25 50  1  0
M  END
>  <meeko>  (1) 
{"is_sidechain": false}

$$$$

     RDKit          3D

 50 54  0  0  0  0  0  0  0  0999 V2000
    8.3060    0.7770  -54.5000 C   0  0  0  0  0  0  0  0  0  0  0  0
    9.3800   -0.1680  -54.9040 C   0  0  0  0  0  0  0  0  0  0  0  0
    9.6360   -1.4820  -54.4080 C   0  0  0  0  0  0  0  0  0  0  0  0
    8.9030   -2.2320  -53.3940 C   0  0  0  0  0  0  0  0  0  0  0  0
    9.5690   -2.5640  -52.2030 C   0  0  0  0  0  0  0  0  0  0  0  0
    8.9130   -3.2750  -51.1960 C   0  0  0  0  0  0  0  0  0  0  0  0
    7.5870   -3.6630  -51.3790 C   0  0  0  0  0  0  0  0  0  0  0  0
    6.7770   -4.5380  -50.1390 Cl  0  0  0  0  0  0  0  0  0  0  0  0
    6.9140   -3.3530  -52.5580 C   0  0  0  0  0  0  0  0  0  0  0  0
    7.5710   -2.6410  -53.5680 C   0  0  0  0  0  0  0  0  0  0  0  0
    6.6810   -2.3220  -55.0190 Cl  0  0  0  0  0  0  0  0  0  0  0  0
   10.7320   -2.0070  -54.9730 N   0  0  0  0  0  0  0  0  0  0  0  0
   11.1430   -1.0650  -55.8310 N   0  0  0  0  0  0  0  0  0  0  0  0
   10.3530    0.0470  -55.8710 C   0  0  0  0  0  0  0  0  0  0  0  0
   10.5840    1.1930  -56.7160 C   0  0  0  0  0  0  0  0  0  0  0  0
   11.6740    1.7460  -56.8010 O   0  0  0  0  0  0  0  0  0  0  0  0
    9.4590    1.6230  -57.3940 N   0  0  0  0  0  0  0  0  0  0  0  0
    9.4210    2.8200  -58.2490 C   0  0  2  0  0  0  0  0  0  0  0  0
   10.5670    2.8290  -59.2930 C   0  0  0  0  0  0  0  0  0  0  0  0
   10.4600    4.0650  -60.2030 C   0  0  1  0  0  0  0  0  0  0  0  0
    9.1170    4.0340  -60.9490 C   0  0  0  0  0  0  0  0  0  0  0  0
    7.9580    4.0420  -59.9410 C   0  0  2  0  0  0  0  0  0  0  0  0
    8.0390    5.3150  -59.0830 C   0  0  0  0  0  0  0  0  0  0  0  0
    9.3750    5.3560  -58.3270 C   0  0  2  0  0  0  0  0  0  0  0  0
   10.5330    5.3370  -59.3410 C   0  0  0  0  0  0  0  0  0  0  0  0
    9.4810    4.1210  -57.4130 C   0  0  0  0  0  0  0  0  0  0  0  0
    8.0760    2.8110  -59.0280 C   0  0  0  0  0  0  0  0  0  0  0  0
    8.2527    0.8239  -53.4023 H   0  0  0  0  0  0  0  0  0  0  0  0
    8.5286    1.7775  -54.8994 H   0  0  0  0  0  0  0  0  0  0  0  0
    7.3420    0.4289  -54.8994 H   0  0  0  0  0  0  0  0  0  0  0  0
   10.6171   -2.2612  -52.0621 H   0  0  0  0  0  0  0  0  0  0  0  0
    9.4397   -3.5273  -50.2638 H   0  0  0  0  0  0  0  0  0  0  0  0
    5.8687   -3.6669  -52.6951 H   0  0  0  0  0  0  0  0  0  0  0  0
   11.9950   -1.2360  -56.3550 H   0  0  0  0  0  0  0  0  0  0  0  0
    8.5750    1.3600  -56.9810 H   0  0  0  0  0  0  0  0  0  0  0  0
   11.5338    2.8486  -58.7686 H   0  0  0  0  0  0  0  0  0  0  0  0
   10.4892    1.9239  -59.9132 H   0  0  0  0  0  0  0  0  0  0  0  0
   11.2857    4.0613  -60.9298 H   0  0  0  0  0  0  0  0  0  0  0  0
    9.0407    4.9178  -61.5994 H   0  0  0  0  0  0  0  0  0  0  0  0
    9.0617    3.1188  -61.5568 H   0  0  0  0  0  0  0  0  0  0  0  0
    6.9988    4.0181  -60.4790 H   0  0  0  0  0  0  0  0  0  0  0  0
    7.9618    6.1983  -59.7340 H   0  0  0  0  0  0  0  0  0  0  0  0
    7.2133    5.3132  -58.3562 H   0  0  0  0  0  0  0  0  0  0  0  0
    9.4283    6.2717  -57.7199 H   0  0  0  0  0  0  0  0  0  0  0  0
   10.4620    6.2216  -59.9910 H   0  0  0  0  0  0  0  0  0  0  0  0
   11.4887    5.3485  -58.7964 H   0  0  0  0  0  0  0  0  0  0  0  0
   10.4350    4.1562  -56.8664 H   0  0  0  0  0  0  0  0  0  0  0  0
    8.6380    4.1285  -56.7064 H   0  0  0  0  0  0  0  0  0  0  0  0
    7.2439    2.8160  -58.3085 H   0  0  0  0  0  0  0  0  0  0  0  0
    8.0402    1.9069  -59.6536 H   0  0  0  0  0  0  0  0  0  0  0  0
  1  2  1  0
  2  3  1  0
  3  4  1  0
  4  5  1  0
  5  6  2  0
  6  7  1  0
  7  8  1  0
  7  9  2  0
  9 10  1  0
 10 11  1  0
  3 12  2  0
 12 13  1  0
 13 14  1  0
 14 15  1  0
 15 16  2  0
 15 17  1  0
 18 17  1  1
 18 19  1  0
 19 20  1  0
 20 21  1  0
 21 22  1  0
 22 23  1  0
 23 24  1  0
 24 25  1  0
 24 26  1  0
 22 27  1  0
 14  2  2  0
 26 18  1  0
 10  4  2  0
 27 18  1  0
 25 20  1  0
  1 28  1  0
  1 29  1  0
  1 30  1  0
  5 31  1  0
  6 32  1  0
  9 33  1  0
 13 34  1  0
 17 35  1  0
 19 36  1  0
 19 37  1  0
 20 38  1  6
 21 39  1  0
 21 40  1  0
 22 41  1  6
 23 42  1  0
 23 43  1  0
 24 44  1  1
 25 45  1  0
 25 46  1  0
 26 47  1  0
 26 48  1  0
 27 49  1  0
 27 50  1  0
M  END
>  <meeko>  (2) 
{"is_sidechain": false}

$$$$

     RDKit          3D

 56 60  0  0  0  0  0  0  0  0999 V2000
   11.1910   -3.0590  -54.5750 C   0  0  0  0  0  0  0  0  0  0  0  0
   10.9290   -1.8980  -53.6300 C   0  0  0  0  0  0  0  0  0  0  0  0
    9.7320   -1.1520  -53.9850 N   0  0  0  0  0  0  0  0  0  0  0  0
    9.8410   -0.1830  -54.9150 N   0  0  0  0  0  0  0  0  0  0  0  0
    8.5890    0.2970  -55.0500 C   0  0  0  0  0  0  0  0  0  0  0  0
    8.2930    1.3930  -55.9920 C   0  0  0  0  0  0  0  0  0  0  0  0
    7.1750    1.8740  -56.1110 O   0  0  0  0  0  0  0  0  0  0  0  0
    9.4000    1.7940  -56.7050 N   0  0  0  0  0  0  0  0  0  0  0  0
    9.4400    2.8470  -57.7150 C   0  0  2  0  0  0  0  0  0  0  0  0
    8.4650    2.5540  -58.8830 C   0  0  0  0  0  0  0  0  0  0  0  0
    8.5610    3.6540  -59.9550 C   0  0  1  0  0  0  0  0  0  0  0  0
    8.2150    5.0120  -59.3220 C   0  0  0  0  0  0  0  0  0  0  0  0
    9.1980    5.3300  -58.1820 C   0  0  2  0  0  0  0  0  0  0  0  0
   10.6280    5.3700  -58.7430 C   0  0  0  0  0  0  0  0  0  0  0  0
   10.9830    4.0120  -59.3700 C   0  0  2  0  0  0  0  0  0  0  0  0
    9.9950    3.7030  -60.5060 C   0  0  0  0  0  0  0  0  0  0  0  0
   10.8770    2.9180  -58.2970 C   0  0  0  0  0  0  0  0  0  0  0  0
    9.1020    4.2310  -57.1090 C   0  0  0  0  0  0  0  0  0  0  0  0
    7.6770   -0.3890  -54.2010 C   0  0  0  0  0  0  0  0  0  0  0  0
    6.2240   -0.0980  -54.0980 C   0  0  0  0  0  0  0  0  0  0  0  0
    5.6390    0.0040  -55.3170 F   0  0  0  0  0  0  0  0  0  0  0  0
    5.5500   -1.0820  -53.4410 F   0  0  0  0  0  0  0  0  0  0  0  0
    5.9730    1.0450  -53.4150 F   0  0  0  0  0  0  0  0  0  0  0  0
    8.4460   -1.3390  -53.5360 C   0  0  0  0  0  0  0  0  0  0  0  0
    8.0500   -2.3530  -52.5610 C   0  0  0  0  0  0  0  0  0  0  0  0
    7.8810   -1.9980  -51.2160 C   0  0  0  0  0  0  0  0  0  0  0  0
    7.5080   -2.9660  -50.2790 C   0  0  0  0  0  0  0  0  0  0  0  0
    7.3060   -4.2810  -50.6880 C   0  0  0  0  0  0  0  0  0  0  0  0
    6.9460   -5.2010  -49.7850 F   0  0  0  0  0  0  0  0  0  0  0  0
    7.4700   -4.6520  -52.0140 C   0  0  0  0  0  0  0  0  0  0  0  0
    7.8420   -3.6860  -52.9410 C   0  0  0  0  0  0  0  0  0  0  0  0
    7.9980   -4.0520  -54.2220 F   0  0  0  0  0  0  0  0  0  0  0  0
   11.3962   -3.9682  -53.9908 H   0  0  0  0  0  0  0  0  0  0  0  0
   10.3071   -3.2223  -55.2091 H   0  0  0  0  0  0  0  0  0  0  0  0
   12.0593   -2.8269  -55.2091 H   0  0  0  0  0  0  0  0  0  0  0  0
   10.8095   -2.2928  -52.6103 H   0  0  0  0  0  0  0  0  0  0  0  0
   11.7849   -1.2104  -53.6989 H   0  0  0  0  0  0  0  0  0  0  0  0
   10.2460    1.2740  -56.4810 H   0  0  0  0  0  0  0  0  0  0  0  0
    8.7226    1.5848  -59.3350 H   0  0  0  0  0  0  0  0  0  0  0  0
    7.4377    2.5287  -58.4906 H   0  0  0  0  0  0  0  0  0  0  0  0
    7.8575    3.4358  -60.7720 H   0  0  0  0  0  0  0  0  0  0  0  0
    8.2806    5.7980  -60.0887 H   0  0  0  0  0  0  0  0  0  0  0  0
    7.1938    4.9698  -58.9154 H   0  0  0  0  0  0  0  0  0  0  0  0
    8.9483    6.3044  -57.7368 H   0  0  0  0  0  0  0  0  0  0  0  0
   10.6968    6.1551  -59.5104 H   0  0  0  0  0  0  0  0  0  0  0  0
   11.3315    5.5861  -57.9255 H   0  0  0  0  0  0  0  0  0  0  0  0
   12.0075    4.0445  -59.7691 H   0  0  0  0  0  0  0  0  0  0  0  0
   10.0641    4.4885  -61.2729 H   0  0  0  0  0  0  0  0  0  0  0  0
   10.2460    2.7276  -60.9482 H   0  0  0  0  0  0  0  0  0  0  0  0
   11.1312    1.9470  -58.7470 H   0  0  0  0  0  0  0  0  0  0  0  0
   11.5741    3.1589  -57.4809 H   0  0  0  0  0  0  0  0  0  0  0  0
    9.8117    4.4539  -56.2986 H   0  0  0  0  0  0  0  0  0  0  0  0
    8.0741    4.2056  -56.7182 H   0  0  0  0  0  0  0  0  0  0  0  0
    8.0419   -0.9575  -50.8975 H   0  0  0  0  0  0  0  0  0  0  0  0
    7.3747   -2.6896  -49.2227 H   0  0  0  0  0  0  0  0  0  0  0  0
    7.3082   -5.6941  -52.3270 H   0  0  0  0  0  0  0  0  0  0  0  0
  1  2  1  0
  2  3  1  0
  3  4  1  0
  4  5  2  0
  5  6  1  0
  6  7  2  0
  6  8  1  0
  9  8  1  1
  9 10  1  0
 10 11  1  0
 11 12  1  0
 12 13  1  0
 13 14  1  0
 14 15  1  0
 15 16  1  0
 15 17  1  0
 13 18  1  0
  5 19  1  0
 19 20  1  0
 20 21  1  0
 20 22  1  0
 20 23  1  0
 19 24  2  0
 24 25  1  0
 25 26  1  0
 26 27  2  0
 27 28  1  0
 28 29  1  0
 28 30  2  0
 30 31  1  0
 31 32  1  0
 24  3  1  0
 31 25  2  0
 17  9  1  0
 18  9  1  0
 16 11  1  0
  1 33  1  0
  1 34  1  0
  1 35  1  0
  2 36  1  0
  2 37  1  0
  8 38  1  0
 10 39  1  0
 10 40  1  0
 11 41  1  6
 12 42  1  0
 12 43  1  0
 13 44  1  1
 14 45  1  0
 14 46  1  0
 15 47  1  6
 16 48  1  0
 16 49  1  0
 17 50  1  0
 17 51  1  0
 18 52  1  0
 18 53  1  0
 26 54  1  0
 27 55  1  0
 30 56  1  0
M  END
>  <meeko>  (3) 
{"is_sidechain": false}

$$$$

     RDKit          3D

 48 50  0  0  0  0  0  0  0  0999 V2000
    5.8880   -0.3370  -53.7660 C   0  0  0  0  0  0  0  0  0  0  0  0
    7.3350   -0.5650  -54.0180 C   0  0  0  0  0  0  0  0  0  0  0  0
    8.1570    0.1320  -54.9550 C   0  0  0  0  0  0  0  0  0  0  0  0
    7.7640    1.2210  -55.8700 C   0  0  0  0  0  0  0  0  0  0  0  0
    6.6000    1.4680  -56.1690 O   0  0  0  0  0  0  0  0  0  0  0  0
    8.8460    1.9210  -56.3640 N   0  0  0  0  0  0  0  0  0  0  0  0
    8.7380    2.8950  -57.4350 C   0  0  2  0  0  0  0  0  0  0  0  0
    9.6790    2.5430  -58.6020 C   0  0  0  0  0  0  0  0  0  0  0  0
   11.0330    3.2360  -58.4680 C   0  0  0  0  0  0  0  0  0  0  0  0
   10.9010    4.7710  -58.4590 C   0  0  1  0  0  0  0  0  0  0  0  0
   11.1780    5.3620  -59.8430 C   0  0  0  0  0  0  0  0  0  0  0  0
    9.5310    5.2450  -57.9460 C   0  0  0  0  0  0  0  0  0  0  0  0
    8.9830    4.3070  -56.8780 C   0  0  0  0  0  0  0  0  0  0  0  0
    9.4210   -0.3380  -54.9390 N   0  0  0  0  0  0  0  0  0  0  0  0
    9.4040   -1.2970  -53.9940 N   0  0  0  0  0  0  0  0  0  0  0  0
   10.6310   -1.9970  -53.6860 C   0  0  0  0  0  0  0  0  0  0  0  0
    8.1750   -1.4910  -53.4160 C   0  0  0  0  0  0  0  0  0  0  0  0
    7.9050   -2.4780  -52.3780 C   0  0  0  0  0  0  0  0  0  0  0  0
    7.4360   -3.7500  -52.7230 C   0  0  0  0  0  0  0  0  0  0  0  0
    7.1700   -4.6950  -51.7300 C   0  0  0  0  0  0  0  0  0  0  0  0
    7.3770   -4.3740  -50.3890 C   0  0  0  0  0  0  0  0  0  0  0  0
    7.8520   -3.1110  -50.0390 C   0  0  0  0  0  0  0  0  0  0  0  0
    8.1170   -2.1650  -51.0300 C   0  0  0  0  0  0  0  0  0  0  0  0
    5.7047   -0.3081  -52.6818 H   0  0  0  0  0  0  0  0  0  0  0  0
    5.5840    0.6201  -54.2149 H   0  0  0  0  0  0  0  0  0  0  0  0
    5.3044   -1.1543  -54.2149 H   0  0  0  0  0  0  0  0  0  0  0  0
    9.7450    1.5080  -56.1260 H   0  0  0  0  0  0  0  0  0  0  0  0
    7.7187    2.8723  -57.8479 H   0  0  0  0  0  0  0  0  0  0  0  0
    9.8362    1.4544  -58.6166 H   0  0  0  0  0  0  0  0  0  0  0  0
    9.2097    2.8875  -59.5353 H   0  0  0  0  0  0  0  0  0  0  0  0
   11.5039    2.9151  -57.5271 H   0  0  0  0  0  0  0  0  0  0  0  0
   11.6449    2.9541  -59.3375 H   0  0  0  0  0  0  0  0  0  0  0  0
   11.6623    5.1392  -57.7556 H   0  0  0  0  0  0  0  0  0  0  0  0
   11.6425    6.3530  -59.7323 H   0  0  0  0  0  0  0  0  0  0  0  0
   11.8586    4.6978  -60.3958 H   0  0  0  0  0  0  0  0  0  0  0  0
   10.2321    5.4601  -60.3958 H   0  0  0  0  0  0  0  0  0  0  0  0
    9.6383    6.2522  -57.5170 H   0  0  0  0  0  0  0  0  0  0  0  0
    8.8285    5.2543  -58.7924 H   0  0  0  0  0  0  0  0  0  0  0  0
    9.7074    4.2442  -56.0526 H   0  0  0  0  0  0  0  0  0  0  0  0
    8.0212    4.7098  -56.5276 H   0  0  0  0  0  0  0  0  0  0  0  0
   10.7503   -2.0650  -52.5946 H   0  0  0  0  0  0  0  0  0  0  0  0
   10.5931   -3.0094  -54.1145 H   0  0  0  0  0  0  0  0  0  0  0  0
   11.4832   -1.4491  -54.1145 H   0  0  0  0  0  0  0  0  0  0  0  0
    7.2761   -4.0068  -53.7806 H   0  0  0  0  0  0  0  0  0  0  0  0
    6.7972   -5.6925  -52.0056 H   0  0  0  0  0  0  0  0  0  0  0  0
    7.1654   -5.1178  -49.6068 H   0  0  0  0  0  0  0  0  0  0  0  0
    8.0180   -2.8600  -48.9810 H   0  0  0  0  0  0  0  0  0  0  0  0
    8.4938   -1.1699  -50.7511 H   0  0  0  0  0  0  0  0  0  0  0  0
  1  2  1  0
  2  3  1  0
  3  4  1  0
  4  5  2  0
  4  6  1  0
  6  7  1  0
  7  8  1  0
  8  9  1  0
  9 10  1  0
 10 11  1  0
 10 12  1  0
 12 13  1  0
  3 14  2  0
 14 15  1  0
 15 16  1  0
 15 17  1  0
 17 18  1  0
 18 19  2  0
 19 20  1  0
 20 21  2  0
 21 22  1  0
 22 23  2  0
 17  2  2  0
 23 18  1  0
 13  7  1  0
  1 24  1  0
  1 25  1  0
  1 26  1  0
  6 27  1  0
  7 28  1  1
  8 29  1  0
  8 30  1  0
  9 31  1  0
  9 32  1  0
 10 33  1  6
 11 34  1  0
 11 35  1  0
 11 36  1  0
 12 37  1  0
 12 38  1  0
 13 39  1  0
 13 40  1  0
 16 41  1  0
 16 42  1  0
 16 43  1  0
 19 44  1  0
 20 45  1  0
 21 46  1  0
 22 47  1  0
 23 48  1  0
M  END
>  <meeko>  (4) 
{"is_sidechain": false}

$$$$

     RDKit          3D

 56 60  0  0  0  0  0  0  0  0999 V2000
    6.3890    1.5690  -56.0780 C   0  0  0  0  0  0  0  0  0  0  0  0
    6.8530    0.3960  -55.2280 C   0  0  0  0  0  0  0  0  0  0  0  0
    8.1790    0.7030  -54.5300 C   0  0  0  0  0  0  0  0  0  0  0  0
    9.2690   -0.2510  -54.9100 C   0  0  0  0  0  0  0  0  0  0  0  0
   10.3210   -0.0250  -55.8580 C   0  0  0  0  0  0  0  0  0  0  0  0
   10.5720    1.1780  -56.6800 C   0  0  0  0  0  0  0  0  0  0  0  0
   11.6540    1.7550  -56.7140 O   0  0  0  0  0  0  0  0  0  0  0  0
    9.4620    1.5680  -57.3970 N   0  0  0  0  0  0  0  0  0  0  0  0
    9.3800    2.6950  -58.3200 C   0  0  2  0  0  0  0  0  0  0  0  0
    8.1480    2.4890  -59.2410 C   0  0  0  0  0  0  0  0  0  0  0  0
    8.0090    3.6480  -60.2400 C   0  0  1  0  0  0  0  0  0  0  0  0
    7.8410    4.9640  -59.4670 C   0  0  0  0  0  0  0  0  0  0  0  0
    9.0620    5.2020  -58.5650 C   0  0  2  0  0  0  0  0  0  0  0  0
   10.3290    5.2680  -59.4340 C   0  0  0  0  0  0  0  0  0  0  0  0
   10.5070    3.9540  -60.2130 C   0  0  2  0  0  0  0  0  0  0  0  0
    9.2770    3.7230  -61.1050 C   0  0  0  0  0  0  0  0  0  0  0  0
   10.6380    2.7880  -59.2170 C   0  0  0  0  0  0  0  0  0  0  0  0
    9.1930    4.0370  -57.5680 C   0  0  0  0  0  0  0  0  0  0  0  0
   11.1380   -1.0960  -55.9400 N   0  0  0  0  0  0  0  0  0  0  0  0
   10.6360   -1.9610  -55.0470 N   0  0  0  0  0  0  0  0  0  0  0  0
    9.5090   -1.5220  -54.4050 C   0  0  0  0  0  0  0  0  0  0  0  0
    8.8020   -2.3330  -53.4120 C   0  0  0  0  0  0  0  0  0  0  0  0
    9.4430   -2.6100  -52.1930 C   0  0  0  0  0  0  0  0  0  0  0  0
    8.8110   -3.3800  -51.2160 C   0  0  0  0  0  0  0  0  0  0  0  0
    9.6180   -3.7040  -49.7320 Cl  0  0  0  0  0  0  0  0  0  0  0  0
    7.5320   -3.8850  -51.4300 C   0  0  0  0  0  0  0  0  0  0  0  0
    6.8780   -3.6160  -52.6330 C   0  0  0  0  0  0  0  0  0  0  0  0
    7.5060   -2.8440  -53.6190 C   0  0  0  0  0  0  0  0  0  0  0  0
    6.6270   -2.5690  -55.0830 Cl  0  0  0  0  0  0  0  0  0  0  0  0
    6.0640    2.3907  -55.4228 H   0  0  0  0  0  0  0  0  0  0  0  0
    7.2189    1.9127  -56.7129 H   0  0  0  0  0  0  0  0  0  0  0  0
    5.5486    1.2519  -56.7129 H   0  0  0  0  0  0  0  0  0  0  0  0
    6.0889    0.1814  -54.4664 H   0  0  0  0  0  0  0  0  0  0  0  0
    7.0014   -0.4720  -55.8872 H   0  0  0  0  0  0  0  0  0  0  0  0
    8.4923    1.7215  -54.8029 H   0  0  0  0  0  0  0  0  0  0  0  0
    8.0142    0.6034  -53.4470 H   0  0  0  0  0  0  0  0  0  0  0  0
    8.6570    0.9570  -57.2650 H   0  0  0  0  0  0  0  0  0  0  0  0
    8.2675    1.5472  -59.7967 H   0  0  0  0  0  0  0  0  0  0  0  0
    7.2439    2.4546  -58.6153 H   0  0  0  0  0  0  0  0  0  0  0  0
    7.1318    3.4831  -60.8829 H   0  0  0  0  0  0  0  0  0  0  0  0
    7.7470    5.7962  -60.1802 H   0  0  0  0  0  0  0  0  0  0  0  0
    6.9369    4.9040  -58.8432 H   0  0  0  0  0  0  0  0  0  0  0  0
    8.9375    6.1473  -58.0164 H   0  0  0  0  0  0  0  0  0  0  0  0
   10.2391    6.1026  -60.1448 H   0  0  0  0  0  0  0  0  0  0  0  0
   11.2029    5.4213  -58.7838 H   0  0  0  0  0  0  0  0  0  0  0  0
   11.4112    4.0122  -60.8368 H   0  0  0  0  0  0  0  0  0  0  0  0
    9.1828    4.5548  -61.8186 H   0  0  0  0  0  0  0  0  0  0  0  0
    9.3989    2.7759  -61.6511 H   0  0  0  0  0  0  0  0  0  0  0  0
   10.7548    1.8472  -59.7749 H   0  0  0  0  0  0  0  0  0  0  0  0
   11.5168    2.9631  -58.5790 H   0  0  0  0  0  0  0  0  0  0  0  0
   10.0638    4.2124  -56.9192 H   0  0  0  0  0  0  0  0  0  0  0  0
    8.2748    3.9810  -56.9649 H   0  0  0  0  0  0  0  0  0  0  0  0
   11.1140   -2.8450  -54.9130 H   0  0  0  0  0  0  0  0  0  0  0  0
   10.4530   -2.2160  -52.0069 H   0  0  0  0  0  0  0  0  0  0  0  0
    7.0398   -4.4922  -50.6560 H   0  0  0  0  0  0  0  0  0  0  0  0
    5.8664   -4.0113  -52.8076 H   0  0  0  0  0  0  0  0  0  0  0  0
  1  2  1  0
  2  3  1  0
  3  4  1  0
  4  5  1  0
  5  6  1  0
  6  7  2  0
  6  8  1  0
  9  8  1  1
  9 10  1  0
 10 11  1  0
 11 12  1  0
 12 13  1  0
 13 14  1  0
 14 15  1  0
 15 16  1  0
 15 17  1  0
 13 18  1  0
  5 19  2  0
 19 20  1  0
 20 21  1  0
 21 22  1  0
 22 23  1  0
 23 24  2  0
 24 25  1  0
 24 26  1  0
 26 27  2  0
 27 28  1  0
 28 29  1  0
 21  4  2  0
 28 22  2  0
 17  9  1  0
 18  9  1  0
 16 11  1  0
  1 30  1  0
  1 31  1  0
  1 32  1  0
  2 33  1  0
  2 34  1  0
  3 35  1  0
  3 36  1  0
  8 37  1  0
 10 38  1  0
 10 39  1  0
 11 40  1  6
 12 41  1  0
 12 42  1  0
 13 43  1  1
 14 44  1  0
 14 45  1  0
 15 46  1  6
 16 47  1  0
 16 48  1  0
 17 49  1  0
 17 50  1  0
 18 51  1  0
 18 52  1  0
 20 53  1  0
 23 54  1  0
 26 55  1  0
 27 56  1  0
M  END
>  <meeko>  (5) 
{"is_sidechain": false}

$$$$

     RDKit          3D

 56 60  0  0  0  0  0  0  0  0999 V2000
    5.8260   -0.7330  -54.5980 C   0  0  0  0  0  0  0  0  0  0  0  0
    5.9620    0.0260  -53.2870 C   0  0  0  0  0  0  0  0  0  0  0  0
    7.4130    0.4310  -53.0230 C   0  0  0  0  0  0  0  0  0  0  0  0
    8.3860   -0.3580  -53.8420 C   0  0  0  0  0  0  0  0  0  0  0  0
    8.9560   -1.6310  -53.5310 C   0  0  0  0  0  0  0  0  0  0  0  0
    8.7180   -2.4570  -52.3580 C   0  0  0  0  0  0  0  0  0  0  0  0
    7.3910   -2.7640  -52.0190 C   0  0  0  0  0  0  0  0  0  0  0  0
    7.1210   -3.5500  -50.9010 C   0  0  0  0  0  0  0  0  0  0  0  0
    5.4920   -3.9180  -50.4890 Cl  0  0  0  0  0  0  0  0  0  0  0  0
    8.1600   -4.0400  -50.1120 C   0  0  0  0  0  0  0  0  0  0  0  0
    9.4830   -3.7430  -50.4470 C   0  0  0  0  0  0  0  0  0  0  0  0
    9.7660   -2.9540  -51.5680 C   0  0  0  0  0  0  0  0  0  0  0  0
   11.4270   -2.6250  -51.9160 Cl  0  0  0  0  0  0  0  0  0  0  0  0
    9.7650   -2.0540  -54.5090 N   0  0  0  0  0  0  0  0  0  0  0  0
    9.7790   -1.0400  -55.3820 N   0  0  0  0  0  0  0  0  0  0  0  0
    8.9200   -0.0210  -55.0790 C   0  0  0  0  0  0  0  0  0  0  0  0
    8.7210    1.1560  -55.8910 C   0  0  0  0  0  0  0  0  0  0  0  0
    7.6240    1.6800  -56.0430 O   0  0  0  0  0  0  0  0  0  0  0  0
    9.8700    1.6180  -56.5040 N   0  0  0  0  0  0  0  0  0  0  0  0
    9.9060    2.7530  -57.4380 C   0  0  2  0  0  0  0  0  0  0  0  0
   11.3390    2.8410  -58.0330 C   0  0  0  0  0  0  0  0  0  0  0  0
   11.4530    4.0050  -59.0310 C   0  0  1  0  0  0  0  0  0  0  0  0
   10.4440    3.7920  -60.1700 C   0  0  0  0  0  0  0  0  0  0  0  0
    9.0170    3.7310  -59.6040 C   0  0  2  0  0  0  0  0  0  0  0  0
    8.7040    5.0470  -58.8730 C   0  0  0  0  0  0  0  0  0  0  0  0
    9.7090    5.2680  -57.7290 C   0  0  2  0  0  0  0  0  0  0  0  0
   11.1320    5.3220  -58.3070 C   0  0  0  0  0  0  0  0  0  0  0  0
    9.6080    4.1000  -56.7320 C   0  0  0  0  0  0  0  0  0  0  0  0
    8.9130    2.5610  -58.6110 C   0  0  0  0  0  0  0  0  0  0  0  0
    5.6355   -1.7959  -54.3883 H   0  0  0  0  0  0  0  0  0  0  0  0
    4.9880   -0.3176  -55.1769 H   0  0  0  0  0  0  0  0  0  0  0  0
    6.7561   -0.6344  -55.1769 H   0  0  0  0  0  0  0  0  0  0  0  0
    5.3403    0.9323  -53.3323 H   0  0  0  0  0  0  0  0  0  0  0  0
    5.6331   -0.6333  -52.4702 H   0  0  0  0  0  0  0  0  0  0  0  0
    7.5313    1.4975  -53.2651 H   0  0  0  0  0  0  0  0  0  0  0  0
    7.6285    0.2308  -51.9631 H   0  0  0  0  0  0  0  0  0  0  0  0
    6.5638   -2.3838  -52.6364 H   0  0  0  0  0  0  0  0  0  0  0  0
    7.9391   -4.6580  -49.2292 H   0  0  0  0  0  0  0  0  0  0  0  0
   10.3054   -4.1305  -49.8277 H   0  0  0  0  0  0  0  0  0  0  0  0
   10.4060   -1.1020  -56.1760 H   0  0  0  0  0  0  0  0  0  0  0  0
   10.6090    0.9390  -56.6190 H   0  0  0  0  0  0  0  0  0  0  0  0
   12.0585    2.9967  -57.2157 H   0  0  0  0  0  0  0  0  0  0  0  0
   11.5550    1.9025  -58.5645 H   0  0  0  0  0  0  0  0  0  0  0  0
   12.4724    4.0470  -59.4421 H   0  0  0  0  0  0  0  0  0  0  0  0
   10.5177    4.6267  -60.8827 H   0  0  0  0  0  0  0  0  0  0  0  0
   10.6706    2.8442  -60.6803 H   0  0  0  0  0  0  0  0  0  0  0  0
    8.2997    3.5839  -60.4249 H   0  0  0  0  0  0  0  0  0  0  0  0
    8.7724    5.8834  -59.5841 H   0  0  0  0  0  0  0  0  0  0  0  0
    7.6881    4.9938  -58.4546 H   0  0  0  0  0  0  0  0  0  0  0  0
    9.4832    6.2138  -57.2147 H   0  0  0  0  0  0  0  0  0  0  0  0
   11.2048    6.1570  -59.0194 H   0  0  0  0  0  0  0  0  0  0  0  0
   11.8505    5.4689  -57.4871 H   0  0  0  0  0  0  0  0  0  0  0  0
   10.3362    4.2523  -55.9217 H   0  0  0  0  0  0  0  0  0  0  0  0
    8.5866    4.0686  -56.3248 H   0  0  0  0  0  0  0  0  0  0  0  0
    7.8884    2.5139  -58.2135 H   0  0  0  0  0  0  0  0  0  0  0  0
    9.1602    1.6266  -59.1361 H   0  0  0  0  0  0  0  0  0  0  0  0
  1  2  1  0
  2  3  1  0
  3  4  1  0
  4  5  1  0
  5  6  1  0
  6  7  1  0
  7  8  2  0
  8  9  1  0
  8 10  1  0
 10 11  2  0
 11 12  1  0
 12 13  1  0
  5 14  2  0
 14 15  1  0
 15 16  1  0
 16 17  1  0
 17 18  2  0
 17 19  1  0
 20 19  1  1
 20 21  1  0
 21 22  1  0
 22 23  1  0
 23 24  1  0
 24 25  1  0
 25 26  1  0
 26 27  1  0
 26 28  1  0
 24 29  1  0
 16  4  2  0
 28 20  1  0
 12  6  2  0
 29 20  1  0
 27 22  1  0
  1 30  1  0
  1 31  1  0
  1 32  1  0
  2 33  1  0
  2 34  1  0
  3 35  1  0
  3 36  1  0
  7 37  1  0
 10 38  1  0
 11 39  1  0
 15 40  1  0
 19 41  1  0
 21 42  1  0
 21 43  1  0
 22 44  1  6
 23 45  1  0
 23 46  1  0
 24 47  1  6
 25 48  1  0
 25 49  1  0
 26 50  1  1
 27 51  1  0
 27 52  1  0
 28 53  1  0
 28 54  1  0
 29 55  1  0
 29 56  1  0
M  END
>  <meeko>  (6) 
{"is_sidechain": false}

$$$$

     RDKit          3D

 25 26  0  0  0  0  0  0  0  0999 V2000
    5.9060    1.3620  -59.1520 C   0  0  0  0  0  0  0  0  0  0  0  0
    5.8470    1.9020  -60.5360 C   0  0  0  0  0  0  0  0  0  0  0  0
    4.8360    1.6380  -61.5100 C   0  0  0  0  0  0  0  0  0  0  0  0
    3.6550    0.7880  -61.3860 C   0  0  0  0  0  0  0  0  0  0  0  0
    2.7130    0.7880  -62.1760 O   0  0  0  0  0  0  0  0  0  0  0  0
    5.0780    2.2970  -62.6560 N   0  0  0  0  0  0  0  0  0  0  0  0
    6.2260    2.9450  -62.4230 N   0  0  0  0  0  0  0  0  0  0  0  0
    6.7360    2.7590  -61.1660 C   0  0  0  0  0  0  0  0  0  0  0  0
    7.9840    3.3760  -60.7250 C   0  0  0  0  0  0  0  0  0  0  0  0
    9.1940    3.0460  -61.3510 C   0  0  0  0  0  0  0  0  0  0  0  0
   10.3930    3.6330  -60.9320 C   0  0  0  0  0  0  0  0  0  0  0  0
   10.3960    4.5580  -59.8800 C   0  0  0  0  0  0  0  0  0  0  0  0
   11.6260    5.1580  -59.4530 C   0  0  0  0  0  0  0  0  0  0  0  0
   12.6230    5.6390  -59.1080 N   0  0  0  0  0  0  0  0  0  0  0  0
    9.1970    4.8920  -59.2500 C   0  0  0  0  0  0  0  0  0  0  0  0
    8.0070    4.3030  -59.6750 C   0  0  0  0  0  0  0  0  0  0  0  0
    6.8750    4.6380  -59.0400 F   0  0  0  0  0  0  0  0  0  0  0  0
    5.8157    2.1885  -58.4318 H   0  0  0  0  0  0  0  0  0  0  0  0
    5.0801    0.6514  -59.0001 H   0  0  0  0  0  0  0  0  0  0  0  0
    6.8658    0.8465  -59.0001 H   0  0  0  0  0  0  0  0  0  0  0  0
    3.6049    0.1015  -60.5280 H   0  0  0  0  0  0  0  0  0  0  0  0
    6.6250    3.4970  -63.1760 H   0  0  0  0  0  0  0  0  0  0  0  0
    9.2010    2.3203  -62.1776 H   0  0  0  0  0  0  0  0  0  0  0  0
   11.3368    3.3671  -61.4305 H   0  0  0  0  0  0  0  0  0  0  0  0
    9.1905    5.6163  -58.4222 H   0  0  0  0  0  0  0  0  0  0  0  0
  1  2  1  0
  2  3  1  0
  3  4  1  0
  4  5  2  0
  3  6  2  0
  6  7  1  0
  7  8  1  0
  8  9  1  0
  9 10  1  0
 10 11  2  0
 11 12  1  0
 12 13  1  0
 13 14  3  0
 12 15  2  0
 15 16  1  0
 16 17  1  0
  8  2  2  0
 16  9  2  0
  1 18  1  0
  1 19  1  0
  1 20  1  0
  4 21  1  0
  7 22  1  0
 10 23  1  0
 11 24  1  0
 15 25  1  0
M  END
>  <meeko>  (7) 
{"is_sidechain": false}

$$$$

     RDKit          3D

 25 26  0  0  0  0  0  0  0  0999 V2000
    5.9060    1.4550  -59.1300 C   0  0  0  0  0  0  0  0  0  0  0  0
    5.8270    1.9120  -60.5430 C   0  0  0  0  0  0  0  0  0  0  0  0
    6.7350    2.7690  -61.2490 C   0  0  0  0  0  0  0  0  0  0  0  0
    7.9740    3.3910  -60.7850 C   0  0  0  0  0  0  0  0  0  0  0  0
    9.1940    3.0470  -61.3880 C   0  0  0  0  0  0  0  0  0  0  0  0
   10.3930    3.6240  -60.9540 C   0  0  0  0  0  0  0  0  0  0  0  0
   10.3870    4.5500  -59.9060 C   0  0  0  0  0  0  0  0  0  0  0  0
   11.6140    5.1420  -59.4600 C   0  0  0  0  0  0  0  0  0  0  0  0
   12.6040    5.6270  -59.1010 N   0  0  0  0  0  0  0  0  0  0  0  0
    9.1800    4.8910  -59.2930 C   0  0  0  0  0  0  0  0  0  0  0  0
    7.9910    4.3090  -59.7310 C   0  0  0  0  0  0  0  0  0  0  0  0
    6.8580    4.6500  -59.0970 F   0  0  0  0  0  0  0  0  0  0  0  0
    6.2960    3.0040  -62.4950 N   0  0  0  0  0  0  0  0  0  0  0  0
    5.1780    2.2770  -62.6050 N   0  0  0  0  0  0  0  0  0  0  0  0
    4.8430    1.6020  -61.4670 C   0  0  0  0  0  0  0  0  0  0  0  0
    3.6740    0.7750  -61.3830 C   0  0  0  0  0  0  0  0  0  0  0  0
    2.7780    0.7830  -62.2220 O   0  0  0  0  0  0  0  0  0  0  0  0
    5.7576    2.3133  -58.4582 H   0  0  0  0  0  0  0  0  0  0  0  0
    5.1244    0.7038  -58.9433 H   0  0  0  0  0  0  0  0  0  0  0  0
    6.8944    1.0098  -58.9433 H   0  0  0  0  0  0  0  0  0  0  0  0
    9.2079    2.3164  -62.2102 H   0  0  0  0  0  0  0  0  0  0  0  0
   11.3416    3.3487  -61.4380 H   0  0  0  0  0  0  0  0  0  0  0  0
    9.1670    5.6169  -58.4666 H   0  0  0  0  0  0  0  0  0  0  0  0
    4.6720    2.2790  -63.4850 H   0  0  0  0  0  0  0  0  0  0  0  0
    3.5753    0.0981  -60.5215 H   0  0  0  0  0  0  0  0  0  0  0  0
  1  2  1  0
  2  3  1  0
  3  4  1  0
  4  5  1  0
  5  6  2  0
  6  7  1  0
  7  8  1  0
  8  9  3  0
  7 10  2  0
 10 11  1  0
 11 12  1  0
  3 13  2  0
 13 14  1  0
 14 15  1  0
 15 16  1  0
 16 17  2  0
 15  2  2  0
 11  4  2  0
  1 18  1  0
  1 19  1  0
  1 20  1  0
  5 21  1  0
  6 22  1  0
 10 23  1  0
 14 24  1  0
 16 25  1  0
M  END
>  <meeko>  (8) 
{"is_sidechain": false}

$$$$

     RDKit          3D

 52 57  0  0  0  0  0  0  0  0999 V2000
    6.1770    1.7740  -57.9360 C   0  0  0  0  0  0  0  0  0  0  0  0
    7.4860    2.0980  -57.4150 N   0  0  0  0  0  0  0  0  0  0  0  0
    8.2500    2.9690  -58.0980 N   0  0  0  0  0  0  0  0  0  0  0  0
    9.4480    2.9300  -57.4930 C   0  0  0  0  0  0  0  0  0  0  0  0
   10.5880    3.7140  -57.9880 C   0  0  0  0  0  0  0  0  0  0  0  0
   11.8880    3.4340  -57.5230 C   0  0  0  0  0  0  0  0  0  0  0  0
   13.0080    4.1550  -57.9700 C   0  0  0  0  0  0  0  0  0  0  0  0
   12.8080    5.1780  -58.9020 C   0  0  0  0  0  0  0  0  0  0  0  0
   13.6920    6.0330  -59.5050 N   0  0  0  0  0  0  0  0  0  0  0  0
   13.0080    6.8320  -60.3150 N   0  0  0  0  0  0  0  0  0  0  0  0
   11.7140    6.4860  -60.2200 N   0  0  0  0  0  0  0  0  0  0  0  0
   11.5240    5.4490  -59.3500 C   0  0  0  0  0  0  0  0  0  0  0  0
   10.3900    4.7480  -58.9240 C   0  0  0  0  0  0  0  0  0  0  0  0
    9.3940    2.0620  -56.3720 C   0  0  0  0  0  0  0  0  0  0  0  0
    8.0970    1.5840  -56.3020 C   0  0  0  0  0  0  0  0  0  0  0  0
    7.5390    0.6850  -55.3240 C   0  0  0  0  0  0  0  0  0  0  0  0
    6.3350    0.6100  -55.1160 O   0  0  0  0  0  0  0  0  0  0  0  0
    8.4720   -0.1170  -54.6990 N   0  0  0  0  0  0  0  0  0  0  0  0
    8.1460   -1.1820  -53.7440 C   0  0  2  0  0  0  0  0  0  0  0  0
    7.6630   -0.6160  -52.3830 C   0  0  0  0  0  0  0  0  0  0  0  0
    7.3830   -1.7580  -51.3900 C   0  0  1  0  0  0  0  0  0  0  0  0
    6.3080   -2.6880  -51.9780 C   0  0  0  0  0  0  0  0  0  0  0  0
    6.7950   -3.2850  -53.3090 C   0  0  2  0  0  0  0  0  0  0  0  0
    8.0900   -4.0750  -53.0660 C   0  0  0  0  0  0  0  0  0  0  0  0
    9.1700   -3.1480  -52.4870 C   0  0  2  0  0  0  0  0  0  0  0  0
    8.6740   -2.5570  -51.1580 C   0  0  0  0  0  0  0  0  0  0  0  0
    9.4370   -2.0040  -53.4780 C   0  0  0  0  0  0  0  0  0  0  0  0
    7.0730   -2.1450  -54.3060 C   0  0  0  0  0  0  0  0  0  0  0  0
    5.4822    1.6020  -57.1007 H   0  0  0  0  0  0  0  0  0  0  0  0
    5.8106    2.6086  -58.5518 H   0  0  0  0  0  0  0  0  0  0  0  0
    6.2422    0.8649  -58.5518 H   0  0  0  0  0  0  0  0  0  0  0  0
   12.0303    2.6275  -56.7886 H   0  0  0  0  0  0  0  0  0  0  0  0
   14.0158    3.9208  -57.5965 H   0  0  0  0  0  0  0  0  0  0  0  0
   11.0340    6.9950  -60.7700 H   0  0  0  0  0  0  0  0  0  0  0  0
    9.3873    4.9939  -59.3037 H   0  0  0  0  0  0  0  0  0  0  0  0
   10.2221    1.8166  -55.6908 H   0  0  0  0  0  0  0  0  0  0  0  0
    9.3560   -0.2100  -55.1820 H   0  0  0  0  0  0  0  0  0  0  0  0
    8.4414    0.0411  -51.9680 H   0  0  0  0  0  0  0  0  0  0  0  0
    6.7335   -0.0502  -52.5440 H   0  0  0  0  0  0  0  0  0  0  0  0
    7.0304   -1.3410  -50.4352 H   0  0  0  0  0  0  0  0  0  0  0  0
    6.1034   -3.5024  -51.2674 H   0  0  0  0  0  0  0  0  0  0  0  0
    5.3905   -2.1085  -52.1581 H   0  0  0  0  0  0  0  0  0  0  0  0
    6.0246   -3.9546  -53.7190 H   0  0  0  0  0  0  0  0  0  0  0  0
    7.8911   -4.8909  -52.3556 H   0  0  0  0  0  0  0  0  0  0  0  0
    8.4444   -4.4901  -54.0210 H   0  0  0  0  0  0  0  0  0  0  0  0
   10.0949   -3.7186  -52.3168 H   0  0  0  0  0  0  0  0  0  0  0  0
    8.4751   -3.3731  -50.4477 H   0  0  0  0  0  0  0  0  0  0  0  0
    9.4453   -1.8877  -50.7493 H   0  0  0  0  0  0  0  0  0  0  0  0
   10.2068   -1.3387  -53.0598 H   0  0  0  0  0  0  0  0  0  0  0  0
    9.7770   -2.4383  -54.4297 H   0  0  0  0  0  0  0  0  0  0  0  0
    7.4315   -2.5727  -55.2539 H   0  0  0  0  0  0  0  0  0  0  0  0
    6.1422   -1.5825  -54.4713 H   0  0  0  0  0  0  0  0  0  0  0  0
  1  2  1  0
  2  3  1  0
  3  4  2  0
  4  5  1  0
  5  6  2  0
  6  7  1  0
  7  8  2  0
  8  9  1  0
  9 10  2  0
 10 11  1  0
 11 12  1  0
 12 13  2  0
  4 14  1  0
 14 15  2  0
 15 16  1  0
 16 17  2  0
 16 18  1  0
 19 18  1  6
 19 20  1  0
 20 21  1  0
 21 22  1  0
 22 23  1  0
 23 24  1  0
 24 25  1  0
 25 26  1  0
 25 27  1  0
 23 28  1  0
 15  2  1  0
 27 19  1  0
 13  5  1  0
 28 19  1  0
 12  8  1  0
 26 21  1  0
  1 29  1  0
  1 30  1  0
  1 31  1  0
  6 32  1  0
  7 33  1  0
 11 34  1  0
 13 35  1  0
 14 36  1  0
 18 37  1  0
 20 38  1  0
 20 39  1  0
 21 40  1  1
 22 41  1  0
 22 42  1  0
 23 43  1  6
 24 44  1  0
 24 45  1  0
 25 46  1  1
 26 47  1  0
 26 48  1  0
 27 49  1  0
 27 50  1  0
 28 51  1  0
 28 52  1  0
M  END
>  <meeko>  (9) 
{"is_sidechain": false}

$$$$

     RDKit          3D

 52 57  0  0  0  0  0  0  0  0999 V2000
    5.5280    1.5620  -56.4500 C   0  0  0  0  0  0  0  0  0  0  0  0
    6.6510    0.9460  -55.7800 N   0  0  0  0  0  0  0  0  0  0  0  0
    6.4110   -0.0080  -54.8630 N   0  0  0  0  0  0  0  0  0  0  0  0
    7.6180   -0.3730  -54.4120 C   0  0  0  0  0  0  0  0  0  0  0  0
    7.7690   -1.3960  -53.3700 C   0  0  0  0  0  0  0  0  0  0  0  0
    9.0430   -1.7650  -52.8980 C   0  0  0  0  0  0  0  0  0  0  0  0
    9.2180   -2.7410  -51.9050 C   0  0  0  0  0  0  0  0  0  0  0  0
    8.0580   -3.3290  -51.4070 C   0  0  0  0  0  0  0  0  0  0  0  0
    7.8210   -4.2880  -50.4630 N   0  0  0  0  0  0  0  0  0  0  0  0
    6.5100   -4.5380  -50.3180 N   0  0  0  0  0  0  0  0  0  0  0  0
    5.8600   -3.7460  -51.1610 N   0  0  0  0  0  0  0  0  0  0  0  0
    6.7830   -2.9950  -51.8400 C   0  0  0  0  0  0  0  0  0  0  0  0
    6.6260   -2.0160  -52.8300 C   0  0  0  0  0  0  0  0  0  0  0  0
    8.6290    0.3600  -55.0880 C   0  0  0  0  0  0  0  0  0  0  0  0
    7.9870    1.2030  -55.9790 C   0  0  0  0  0  0  0  0  0  0  0  0
    8.5000    2.1740  -56.9230 C   0  0  0  0  0  0  0  0  0  0  0  0
    7.7830    2.7680  -57.7190 O   0  0  0  0  0  0  0  0  0  0  0  0
    9.8660    2.3640  -56.8660 N   0  0  0  0  0  0  0  0  0  0  0  0
   10.6310    3.2430  -57.7570 C   0  0  2  0  0  0  0  0  0  0  0  0
   12.1440    3.2360  -57.4190 C   0  0  0  0  0  0  0  0  0  0  0  0
   12.9230    4.1240  -58.4050 C   0  0  1  0  0  0  0  0  0  0  0  0
   12.7360    3.5870  -59.8320 C   0  0  0  0  0  0  0  0  0  0  0  0
   11.2460    3.6000  -60.2050 C   0  0  2  0  0  0  0  0  0  0  0  0
   10.7120    5.0390  -60.1250 C   0  0  0  0  0  0  0  0  0  0  0  0
   10.8880    5.5860  -58.6990 C   0  0  2  0  0  0  0  0  0  0  0  0
   12.3810    5.5620  -58.3280 C   0  0  0  0  0  0  0  0  0  0  0  0
   10.1060    4.6990  -57.7140 C   0  0  0  0  0  0  0  0  0  0  0  0
   10.4700    2.7190  -59.2110 C   0  0  0  0  0  0  0  0  0  0  0  0
    4.8217    1.9494  -55.7010 H   0  0  0  0  0  0  0  0  0  0  0  0
    5.8858    2.3901  -57.0794 H   0  0  0  0  0  0  0  0  0  0  0  0
    5.0219    0.8152  -57.0794 H   0  0  0  0  0  0  0  0  0  0  0  0
    9.9305   -1.2720  -53.3215 H   0  0  0  0  0  0  0  0  0  0  0  0
   10.2159   -3.0258  -51.5403 H   0  0  0  0  0  0  0  0  0  0  0  0
    8.4800   -4.8020  -49.8910 H   0  0  0  0  0  0  0  0  0  0  0  0
    5.6220   -1.7352  -53.1811 H   0  0  0  0  0  0  0  0  0  0  0  0
    9.7147    0.2744  -54.9333 H   0  0  0  0  0  0  0  0  0  0  0  0
   10.3960    1.7180  -56.3000 H   0  0  0  0  0  0  0  0  0  0  0  0
   12.2880    3.6175  -56.3974 H   0  0  0  0  0  0  0  0  0  0  0  0
   12.5201    2.2052  -57.4966 H   0  0  0  0  0  0  0  0  0  0  0  0
   13.9919    4.1154  -58.1454 H   0  0  0  0  0  0  0  0  0  0  0  0
   13.2938    4.2216  -60.5364 H   0  0  0  0  0  0  0  0  0  0  0  0
   13.1127    2.5548  -59.8825 H   0  0  0  0  0  0  0  0  0  0  0  0
   11.1177    3.2143  -61.2271 H   0  0  0  0  0  0  0  0  0  0  0  0
   11.2685    5.6739  -60.8301 H   0  0  0  0  0  0  0  0  0  0  0  0
    9.6429    5.0426  -60.3840 H   0  0  0  0  0  0  0  0  0  0  0  0
   10.5095    6.6176  -58.6485 H   0  0  0  0  0  0  0  0  0  0  0  0
   12.9401    6.1994  -59.0288 H   0  0  0  0  0  0  0  0  0  0  0  0
   12.5025    5.9376  -57.3013 H   0  0  0  0  0  0  0  0  0  0  0  0
   10.2263    5.0967  -56.6955 H   0  0  0  0  0  0  0  0  0  0  0  0
    9.0440    4.7017  -58.0006 H   0  0  0  0  0  0  0  0  0  0  0  0
    9.4034    2.7272  -59.4800 H   0  0  0  0  0  0  0  0  0  0  0  0
   10.8729    1.6967  -59.2611 H   0  0  0  0  0  0  0  0  0  0  0  0
  1  2  1  0
  2  3  1  0
  3  4  2  0
  4  5  1  0
  5  6  2  0
  6  7  1  0
  7  8  2  0
  8  9  1  0
  9 10  1  0
 10 11  2  0
 11 12  1  0
 12 13  2  0
  4 14  1  0
 14 15  2  0
 15 16  1  0
 16 17  2  0
 16 18  1  0
 19 18  1  1
 19 20  1  0
 20 21  1  0
 21 22  1  0
 22 23  1  0
 23 24  1  0
 24 25  1  0
 25 26  1  0
 25 27  1  0
 23 28  1  0
 15  2  1  0
 27 19  1  0
 13  5  1  0
 28 19  1  0
 12  8  1  0
 26 21  1  0
  1 29  1  0
  1 30  1  0
  1 31  1  0
  6 32  1  0
  7 33  1  0
  9 34  1  0
 13 35  1  0
 14 36  1  0
 18 37  1  0
 20 38  1  0
 20 39  1  0
 21 40  1  1
 22 41  1  0
 22 42  1  0
 23 43  1  6
 24 44  1  0
 24 45  1  0
 25 46  1  6
 26 47  1  0
 26 48  1  0
 27 49  1  0
 27 50  1  0
 28 51  1  0
 28 52  1  0
M  END
>  <meeko>  (10) 
{"is_sidechain": false}

$$$$

     RDKit          3D

 52 57  0  0  0  0  0  0  0  0999 V2000
    5.5390    1.6470  -56.4260 C   0  0  0  0  0  0  0  0  0  0  0  0
    6.6540    1.0000  -55.7700 N   0  0  0  0  0  0  0  0  0  0  0  0
    6.3960    0.0630  -54.8380 N   0  0  0  0  0  0  0  0  0  0  0  0
    7.5980   -0.3470  -54.4110 C   0  0  0  0  0  0  0  0  0  0  0  0
    7.7350   -1.3780  -53.3680 C   0  0  0  0  0  0  0  0  0  0  0  0
    9.0490   -1.7800  -52.9550 C   0  0  0  0  0  0  0  0  0  0  0  0
    9.3130   -2.7550  -51.9690 C   0  0  0  0  0  0  0  0  0  0  0  0
    8.1640   -3.3230  -51.4010 C   0  0  0  0  0  0  0  0  0  0  0  0
    8.0560   -4.2650  -50.4510 N   0  0  0  0  0  0  0  0  0  0  0  0
    6.7310   -4.3910  -50.3260 N   0  0  0  0  0  0  0  0  0  0  0  0
    5.9290   -3.6390  -51.0900 N   0  0  0  0  0  0  0  0  0  0  0  0
    6.8130   -2.9250  -51.8080 C   0  0  0  0  0  0  0  0  0  0  0  0
    6.5760   -1.9500  -52.7940 C   0  0  0  0  0  0  0  0  0  0  0  0
    8.6220    0.3550  -55.1050 C   0  0  0  0  0  0  0  0  0  0  0  0
    7.9930    1.2180  -55.9880 C   0  0  0  0  0  0  0  0  0  0  0  0
    8.5200    2.1740  -56.9390 C   0  0  0  0  0  0  0  0  0  0  0  0
    7.8170    2.7380  -57.7700 O   0  0  0  0  0  0  0  0  0  0  0  0
    9.8790    2.3910  -56.8470 N   0  0  0  0  0  0  0  0  0  0  0  0
   10.6530    3.2760  -57.7250 C   0  0  2  0  0  0  0  0  0  0  0  0
   10.1050    4.7240  -57.7050 C   0  0  0  0  0  0  0  0  0  0  0  0
   10.8980    5.6170  -58.6760 C   0  0  1  0  0  0  0  0  0  0  0  0
   12.3810    5.6180  -58.2670 C   0  0  0  0  0  0  0  0  0  0  0  0
   12.9470    4.1870  -58.3220 C   0  0  2  0  0  0  0  0  0  0  0  0
   12.8020    3.6400  -59.7500 C   0  0  0  0  0  0  0  0  0  0  0  0
   11.3220    3.6280  -60.1590 C   0  0  2  0  0  0  0  0  0  0  0  0
   10.7660    5.0590  -60.1010 C   0  0  0  0  0  0  0  0  0  0  0  0
   10.5350    2.7420  -59.1790 C   0  0  0  0  0  0  0  0  0  0  0  0
   12.1570    3.2940  -57.3510 C   0  0  0  0  0  0  0  0  0  0  0  0
    4.8495    2.0471  -55.6680 H   0  0  0  0  0  0  0  0  0  0  0  0
    5.9105    2.4698  -57.0544 H   0  0  0  0  0  0  0  0  0  0  0  0
    5.0090    0.9161  -57.0544 H   0  0  0  0  0  0  0  0  0  0  0  0
    9.9093   -1.2954  -53.4398 H   0  0  0  0  0  0  0  0  0  0  0  0
   10.3319   -3.0441  -51.6720 H   0  0  0  0  0  0  0  0  0  0  0  0
    6.3360   -5.0520  -49.6600 H   0  0  0  0  0  0  0  0  0  0  0  0
    5.5610   -1.6535  -53.0971 H   0  0  0  0  0  0  0  0  0  0  0  0
    9.7068    0.2356  -54.9670 H   0  0  0  0  0  0  0  0  0  0  0  0
   10.4030    1.8010  -56.2190 H   0  0  0  0  0  0  0  0  0  0  0  0
    9.0468    4.7142  -58.0052 H   0  0  0  0  0  0  0  0  0  0  0  0
   10.2081    5.1281  -56.6871 H   0  0  0  0  0  0  0  0  0  0  0  0
   10.5031    6.6431  -58.6423 H   0  0  0  0  0  0  0  0  0  0  0  0
   12.9481    6.2601  -58.9570 H   0  0  0  0  0  0  0  0  0  0  0  0
   12.4705    6.0009  -57.2397 H   0  0  0  0  0  0  0  0  0  0  0  0
   14.0092    4.1952  -58.0363 H   0  0  0  0  0  0  0  0  0  0  0  0
   13.3668    4.2795  -60.4443 H   0  0  0  0  0  0  0  0  0  0  0  0
   13.1952    2.6133  -59.7855 H   0  0  0  0  0  0  0  0  0  0  0  0
   11.2241    3.2337  -61.1812 H   0  0  0  0  0  0  0  0  0  0  0  0
   11.3309    5.6977  -60.7960 H   0  0  0  0  0  0  0  0  0  0  0  0
    9.7037    5.0453  -60.3862 H   0  0  0  0  0  0  0  0  0  0  0  0
    9.4753    2.7334  -59.4738 H   0  0  0  0  0  0  0  0  0  0  0  0
   10.9537    1.7254  -59.2132 H   0  0  0  0  0  0  0  0  0  0  0  0
   12.5535    2.2691  -57.3990 H   0  0  0  0  0  0  0  0  0  0  0  0
   12.2638    3.6968  -56.3330 H   0  0  0  0  0  0  0  0  0  0  0  0
  1  2  1  0
  2  3  1  0
  3  4  2  0
  4  5  1  0
  5  6  1  0
  6  7  2  0
  7  8  1  0
  8  9  2  0
  9 10  1  0
 10 11  1  0
 11 12  2  0
 12 13  1  0
  4 14  1  0
 14 15  2  0
 15 16  1  0
 16 17  2  0
 16 18  1  0
 19 18  1  1
 19 20  1  0
 20 21  1  0
 21 22  1  0
 22 23  1  0
 23 24  1  0
 24 25  1  0
 25 26  1  0
 25 27  1  0
 23 28  1  0
 15  2  1  0
 27 19  1  0
 13  5  2  0
 28 19  1  0
 12  8  1  0
 26 21  1  0
  1 29  1  0
  1 30  1  0
  1 31  1  0
  6 32  1  0
  7 33  1  0
 10 34  1  0
 13 35  1  0
 14 36  1  0
 18 37  1  0
 20 38  1  0
 20 39  1  0
 21 40  1  6
 22 41  1  0
 22 42  1  0
 23 43  1  1
 24 44  1  0
 24 45  1  0
 25 46  1  6
 26 47  1  0
 26 48  1  0
 27 49  1  0
 27 50  1  0
 28 51  1  0
 28 52  1  0
M  END
>  <meeko>  (11) 
{"is_sidechain": false}

$$$$

     RDKit          3D

 48 51  0  0  0  0  0  0  0  0999 V2000
    9.6350    1.1920  -56.1680 C   0  0  0  0  0  0  0  0  0  0  0  0
    8.2640    1.5200  -56.6380 C   0  0  0  0  0  0  0  0  0  0  0  0
    7.0360    1.1250  -56.0250 C   0  0  0  0  0  0  0  0  0  0  0  0
    6.8520    0.3170  -54.8030 C   0  0  0  0  0  0  0  0  0  0  0  0
    6.1930    0.6890  -53.8370 O   0  0  0  0  0  0  0  0  0  0  0  0
    7.5050   -0.8950  -54.8590 N   0  0  0  0  0  0  0  0  0  0  0  0
    7.5730   -1.7890  -53.7350 C   0  0  2  0  0  0  0  0  0  0  0  0
    8.7650   -1.5620  -52.7940 C   0  0  2  0  0  0  0  0  0  0  0  0
    9.9790   -1.9070  -53.6770 C   0  0  0  0  0  0  0  0  0  0  0  0
    9.4580   -3.0610  -54.5460 C   0  0  0  0  0  0  0  0  0  0  0  0
    8.0010   -3.2240  -54.0660 C   0  0  1  0  0  0  0  0  0  0  0  0
    8.0320   -3.8540  -52.6610 C   0  0  0  0  0  0  0  0  0  0  0  0
    8.5660   -2.7080  -51.7820 C   0  0  0  0  0  0  0  0  0  0  0  0
    5.9740    1.5820  -56.7210 N   0  0  0  0  0  0  0  0  0  0  0  0
    6.5200    2.2700  -57.7410 N   0  0  0  0  0  0  0  0  0  0  0  0
    5.6460    2.9370  -58.6800 C   0  0  0  0  0  0  0  0  0  0  0  0
    7.8930    2.2560  -57.7540 C   0  0  0  0  0  0  0  0  0  0  0  0
    8.7090    2.9220  -58.7630 C   0  0  0  0  0  0  0  0  0  0  0  0
    8.7430    2.4430  -60.0750 C   0  0  0  0  0  0  0  0  0  0  0  0
    9.5470    3.0680  -61.0250 C   0  0  0  0  0  0  0  0  0  0  0  0
   10.3080    4.1850  -60.6700 C   0  0  0  0  0  0  0  0  0  0  0  0
   10.2460    4.7090  -59.3760 C   0  0  0  0  0  0  0  0  0  0  0  0
   11.1040    5.7480  -58.9970 N   0  0  0  0  0  0  0  0  0  0  0  0
    9.4820    4.0380  -58.4170 C   0  0  0  0  0  0  0  0  0  0  0  0
    9.6543    1.1874  -55.0682 H   0  0  0  0  0  0  0  0  0  0  0  0
    9.9238    0.1994  -56.5439 H   0  0  0  0  0  0  0  0  0  0  0  0
   10.3418    1.9464  -56.5439 H   0  0  0  0  0  0  0  0  0  0  0  0
    8.0730   -1.0300  -55.6930 H   0  0  0  0  0  0  0  0  0  0  0  0
    6.5573   -1.6217  -53.3473 H   0  0  0  0  0  0  0  0  0  0  0  0
    8.8690   -0.5728  -52.3241 H   0  0  0  0  0  0  0  0  0  0  0  0
   10.2740   -1.0474  -54.2968 H   0  0  0  0  0  0  0  0  0  0  0  0
   10.8753   -2.1719  -53.0970 H   0  0  0  0  0  0  0  0  0  0  0  0
    9.4959   -2.8004  -55.6140 H   0  0  0  0  0  0  0  0  0  0  0  0
   10.0529   -3.9811  -54.4481 H   0  0  0  0  0  0  0  0  0  0  0  0
    7.3928   -3.7850  -54.7908 H   0  0  0  0  0  0  0  0  0  0  0  0
    7.0248   -4.1608  -52.3425 H   0  0  0  0  0  0  0  0  0  0  0  0
    8.6458   -4.7652  -52.6069 H   0  0  0  0  0  0  0  0  0  0  0  0
    7.8359   -2.4299  -51.0077 H   0  0  0  0  0  0  0  0  0  0  0  0
    9.4846   -2.9705  -51.2367 H   0  0  0  0  0  0  0  0  0  0  0  0
    4.8889    3.5148  -58.1295 H   0  0  0  0  0  0  0  0  0  0  0  0
    6.2369    3.6158  -59.3124 H   0  0  0  0  0  0  0  0  0  0  0  0
    5.1472    2.1879  -59.3124 H   0  0  0  0  0  0  0  0  0  0  0  0
    8.1343    1.5715  -60.3578 H   0  0  0  0  0  0  0  0  0  0  0  0
    9.5830    2.6825  -62.0546 H   0  0  0  0  0  0  0  0  0  0  0  0
   10.9629    4.6569  -61.4172 H   0  0  0  0  0  0  0  0  0  0  0  0
   11.8410    5.4660  -58.3580 H   0  0  0  0  0  0  0  0  0  0  0  0
   11.4540    6.2990  -59.7740 H   0  0  0  0  0  0  0  0  0  0  0  0
    9.4878    4.3914  -57.3753 H   0  0  0  0  0  0  0  0  0  0  0  0
  1  2  1  0
  2  3  1  0
  3  4  1  0
  4  5  2  0
  4  6  1  0
  6  7  1  0
  7  8  1  0
  8  9  1  0
  9 10  1  0
 10 11  1  0
 11 12  1  0
 12 13  1  0
  3 14  2  0
 14 15  1  0
 15 16  1  0
 15 17  1  0
 17 18  1  0
 18 19  1  0
 19 20  2  0
 20 21  1  0
 21 22  2  0
 22 23  1  0
 22 24  1  0
 17  2  2  0
 24 18  2  0
 11  7  1  0
 13  8  1  0
  1 25  1  0
  1 26  1  0
  1 27  1  0
  6 28  1  0
  7 29  1  6
  8 30  1  6
  9 31  1  0
  9 32  1  0
 10 33  1  0
 10 34  1  0
 11 35  1  1
 12 36  1  0
 12 37  1  0
 13 38  1  0
 13 39  1  0
 16 40  1  0
 16 41  1  0
 16 42  1  0
 19 43  1  0
 20 44  1  0
 21 45  1  0
 23 46  1  0
 23 47  1  0
 24 48  1  0
M  END
>  <meeko>  (12) 
{"is_sidechain": false}

$$$$

     RDKit          3D

 54 57  0  0  0  0  0  0  0  0999 V2000
    3.6620    0.7410  -62.8860 C   0  0  0  0  0  0  0  0  0  0  0  0
    4.5720    1.2410  -61.8330 C   0  0  0  0  0  0  0  0  0  0  0  0
    4.6880    0.8720  -60.5540 C   0  0  0  0  0  0  0  0  0  0  0  0
    5.7490    1.6830  -59.9480 C   0  0  0  0  0  0  0  0  0  0  0  0
    6.1110    1.5670  -58.7910 O   0  0  0  0  0  0  0  0  0  0  0  0
    6.2140    2.5180  -60.9110 N   0  0  0  0  0  0  0  0  0  0  0  0
    7.2730    3.4900  -60.7210 C   0  0  0  0  0  0  0  0  0  0  0  0
    8.6340    3.0200  -61.2700 C   0  0  1  0  0  0  0  0  0  0  0  0
    9.7170    4.0870  -61.0150 C   0  0  0  0  0  0  0  0  0  0  0  0
   10.7600    3.4450  -60.0970 C   0  0  0  0  0  0  0  0  0  0  0  0
   10.0510    2.2570  -59.4570 C   0  0  1  0  0  0  0  0  0  0  0  0
    9.2520    2.7360  -58.3740 O   0  0  0  0  0  0  0  0  0  0  0  0
    8.8680    1.6360  -57.5660 N   0  0  0  0  0  0  0  0  0  0  0  0
    9.1030    1.8020  -56.2160 C   0  0  0  0  0  0  0  0  0  0  0  0
    9.8600    2.6440  -55.7400 O   0  0  0  0  0  0  0  0  0  0  0  0
    8.3280    0.8630  -55.3920 C   0  0  0  0  0  0  0  0  0  0  0  0
    6.9710    1.0100  -55.1910 N   0  0  0  0  0  0  0  0  0  0  0  0
    6.6260    0.0170  -54.4100 C   0  0  0  0  0  0  0  0  0  0  0  0
    7.6930   -0.7780  -54.0420 N   0  0  0  0  0  0  0  0  0  0  0  0
    7.6180   -1.8600  -53.1140 C   0  0  0  0  0  0  0  0  0  0  0  0
    7.7790   -1.6160  -51.7400 C   0  0  0  0  0  0  0  0  0  0  0  0
    7.7190   -2.6710  -50.8210 C   0  0  0  0  0  0  0  0  0  0  0  0
    7.5120   -3.9720  -51.2700 C   0  0  0  0  0  0  0  0  0  0  0  0
    7.4420   -5.2670  -50.1410 Cl  0  0  0  0  0  0  0  0  0  0  0  0
    7.3680   -4.2290  -52.6310 C   0  0  0  0  0  0  0  0  0  0  0  0
    7.4240   -3.1770  -53.5520 C   0  0  0  0  0  0  0  0  0  0  0  0
    8.7890   -0.2790  -54.7410 C   0  0  0  0  0  0  0  0  0  0  0  0
   10.1350   -0.9090  -54.8190 C   0  0  0  0  0  0  0  0  0  0  0  0
    9.1850    1.7490  -60.6050 C   0  0  0  0  0  0  0  0  0  0  0  0
    5.5580    2.3060  -62.0800 C   0  0  0  0  0  0  0  0  0  0  0  0
    5.7200    2.8600  -63.1540 O   0  0  0  0  0  0  0  0  0  0  0  0
    2.7892    0.2614  -62.4189 H   0  0  0  0  0  0  0  0  0  0  0  0
    3.3275    1.5820  -63.5112 H   0  0  0  0  0  0  0  0  0  0  0  0
    4.1925    0.0077  -63.5112 H   0  0  0  0  0  0  0  0  0  0  0  0
    4.0937    0.0980  -60.0463 H   0  0  0  0  0  0  0  0  0  0  0  0
    6.9905    4.4200  -61.2361 H   0  0  0  0  0  0  0  0  0  0  0  0
    7.3909    3.6374  -59.6373 H   0  0  0  0  0  0  0  0  0  0  0  0
    8.4355    2.8302  -62.3352 H   0  0  0  0  0  0  0  0  0  0  0  0
   10.1826    4.3890  -61.9647 H   0  0  0  0  0  0  0  0  0  0  0  0
    9.2846    4.9871  -60.5536 H   0  0  0  0  0  0  0  0  0  0  0  0
   11.6304    3.1073  -60.6787 H   0  0  0  0  0  0  0  0  0  0  0  0
   11.1372    4.1531  -59.3445 H   0  0  0  0  0  0  0  0  0  0  0  0
   10.7101    1.4789  -59.0444 H   0  0  0  0  0  0  0  0  0  0  0  0
    7.9930    1.1690  -57.8310 H   0  0  0  0  0  0  0  0  0  0  0  0
    5.5922   -0.1649  -54.0810 H   0  0  0  0  0  0  0  0  0  0  0  0
    7.9533   -0.5900  -51.3838 H   0  0  0  0  0  0  0  0  0  0  0  0
    7.8353   -2.4717  -49.7455 H   0  0  0  0  0  0  0  0  0  0  0  0
    7.2102   -5.2594  -52.9822 H   0  0  0  0  0  0  0  0  0  0  0  0
    7.3151   -3.3851  -54.6266 H   0  0  0  0  0  0  0  0  0  0  0  0
   10.5159   -1.0873  -53.8026 H   0  0  0  0  0  0  0  0  0  0  0  0
   10.0613   -1.8662  -55.3561 H   0  0  0  0  0  0  0  0  0  0  0  0
   10.8228   -0.2393  -55.3561 H   0  0  0  0  0  0  0  0  0  0  0  0
    9.7882    1.1683  -61.3184 H   0  0  0  0  0  0  0  0  0  0  0  0
    8.3837    1.0803  -60.2575 H   0  0  0  0  0  0  0  0  0  0  0  0
  1  2  1  0
  2  3  2  0
  3  4  1  0
  4  5  2  0
  4  6  1  0
  6  7  1  0
  7  8  1  0
  8  9  1  0
  9 10  1  0
 10 11  1  0
 11 12  1  0
 12 13  1  0
 13 14  1  0
 14 15  2  0
 14 16  1  0
 16 17  1  0
 17 18  2  0
 18 19  1  0
 19 20  1  0
 20 21  1  0
 21 22  2  0
 22 23  1  0
 23 24  1  0
 23 25  2  0
 25 26  1  0
 19 27  1  0
 27 28  1  0
 11 29  1  0
  6 30  1  0
 30 31  2  0
 30  2  1  0
 29  8  1  0
 27 16  2  0
 26 20  2  0
  1 32  1  0
  1 33  1  0
  1 34  1  0
  3 35  1  0
  7 36  1  0
  7 37  1  0
  8 38  1  6
  9 39  1  0
  9 40  1  0
 10 41  1  0
 10 42  1  0
 11 43  1  1
 13 44  1  0
 18 45  1  0
 21 46  1  0
 22 47  1  0
 25 48  1  0
 26 49  1  0
 28 50  1  0
 28 51  1  0
 28 52  1  0
 29 53  1  0
 29 54  1  0
M  END
>  <meeko>  (13) 
{"is_sidechain": false}

$$$$

     RDKit          3D

 55 58  0  0  0  0  0  0  0  0999 V2000
   12.2780   -5.3960  -58.1160 C   0  0  0  0  0  0  0  0  0  0  0  0
   11.9770   -4.1830  -57.3260 C   0  0  0  0  0  0  0  0  0  0  0  0
   11.8050   -2.9210  -57.7280 C   0  0  0  0  0  0  0  0  0  0  0  0
   11.5330   -2.1060  -56.5410 C   0  0  0  0  0  0  0  0  0  0  0  0
   11.3910   -0.8970  -56.5630 O   0  0  0  0  0  0  0  0  0  0  0  0
   11.5120   -2.9440  -55.4760 N   0  0  0  0  0  0  0  0  0  0  0  0
   11.2860   -2.5260  -54.1060 C   0  0  0  0  0  0  0  0  0  0  0  0
   10.0910   -3.2360  -53.4690 C   0  0  1  0  0  0  0  0  0  0  0  0
    9.8340   -2.7800  -52.0260 C   0  0  0  0  0  0  0  0  0  0  0  0
    8.3180   -2.8100  -51.8310 C   0  0  0  0  0  0  0  0  0  0  0  0
    7.7400   -3.3880  -53.1210 C   0  0  1  0  0  0  0  0  0  0  0  0
    6.4650   -2.8340  -53.4360 O   0  0  0  0  0  0  0  0  0  0  0  0
    6.5960   -1.9380  -54.5320 N   0  0  0  0  0  0  0  0  0  0  0  0
    6.1650   -0.6500  -54.2230 C   0  0  0  0  0  0  0  0  0  0  0  0
    5.5190   -0.3720  -53.2180 O   0  0  0  0  0  0  0  0  0  0  0  0
    6.6010    0.2700  -55.2480 C   0  0  0  0  0  0  0  0  0  0  0  0
    5.8670    0.8050  -56.3020 N   0  0  0  0  0  0  0  0  0  0  0  0
    6.6120    1.6480  -57.0180 C   0  0  0  0  0  0  0  0  0  0  0  0
    7.8290    1.7120  -56.4550 N   0  0  0  0  0  0  0  0  0  0  0  0
    8.8650    2.6220  -56.9500 C   0  0  0  0  0  0  0  0  0  0  0  0
    8.7100    3.9970  -56.7950 C   0  0  0  0  0  0  0  0  0  0  0  0
    9.6940    4.8550  -57.2960 C   0  0  0  0  0  0  0  0  0  0  0  0
   10.8120    4.3310  -57.9440 C   0  0  0  0  0  0  0  0  0  0  0  0
   12.0190    5.3880  -58.5570 Cl  0  0  0  0  0  0  0  0  0  0  0  0
   10.9540    2.9510  -58.1030 C   0  0  0  0  0  0  0  0  0  0  0  0
    9.9720    2.0870  -57.6080 C   0  0  0  0  0  0  0  0  0  0  0  0
    7.8750    0.8210  -55.3540 C   0  0  0  0  0  0  0  0  0  0  0  0
    9.0870    0.5220  -54.5530 C   0  0  0  0  0  0  0  0  0  0  0  0
    8.7610   -2.9750  -54.1730 C   0  0  0  0  0  0  0  0  0  0  0  0
   11.8190   -4.2080  -55.8630 C   0  0  0  0  0  0  0  0  0  0  0  0
   11.9710   -5.1970  -55.1680 O   0  0  0  0  0  0  0  0  0  0  0  0
   12.4861   -6.2346  -57.4353 H   0  0  0  0  0  0  0  0  0  0  0  0
   11.4142   -5.6442  -58.7502 H   0  0  0  0  0  0  0  0  0  0  0  0
   13.1576   -5.2116  -58.7502 H   0  0  0  0  0  0  0  0  0  0  0  0
   11.8581   -2.5582  -58.7651 H   0  0  0  0  0  0  0  0  0  0  0  0
   12.1863   -2.7506  -53.5152 H   0  0  0  0  0  0  0  0  0  0  0  0
   11.0688   -1.4477  -54.1161 H   0  0  0  0  0  0  0  0  0  0  0  0
   10.3824   -4.2943  -53.5400 H   0  0  0  0  0  0  0  0  0  0  0  0
   10.3229   -3.4646  -51.3173 H   0  0  0  0  0  0  0  0  0  0  0  0
   10.2408   -1.7740  -51.8458 H   0  0  0  0  0  0  0  0  0  0  0  0
    8.0552   -3.4483  -50.9746 H   0  0  0  0  0  0  0  0  0  0  0  0
    7.9181   -1.8064  -51.6240 H   0  0  0  0  0  0  0  0  0  0  0  0
    7.5786   -4.4738  -53.0509 H   0  0  0  0  0  0  0  0  0  0  0  0
    7.4960   -2.0390  -54.9910 H   0  0  0  0  0  0  0  0  0  0  0  0
    4.8740    0.6510  -56.4610 H   0  0  0  0  0  0  0  0  0  0  0  0
    6.2859    2.1959  -57.9144 H   0  0  0  0  0  0  0  0  0  0  0  0
    7.8243    4.4034  -56.2847 H   0  0  0  0  0  0  0  0  0  0  0  0
    9.5861    5.9434  -57.1789 H   0  0  0  0  0  0  0  0  0  0  0  0
   11.8372    2.5439  -58.6170 H   0  0  0  0  0  0  0  0  0  0  0  0
   10.0716    0.9990  -57.7361 H   0  0  0  0  0  0  0  0  0  0  0  0
    8.8428    0.5822  -53.4821 H   0  0  0  0  0  0  0  0  0  0  0  0
    9.4434   -0.4910  -54.7914 H   0  0  0  0  0  0  0  0  0  0  0  0
    9.8736    1.2530  -54.7914 H   0  0  0  0  0  0  0  0  0  0  0  0
    8.6655   -3.5885  -55.0810 H   0  0  0  0  0  0  0  0  0  0  0  0
    8.6428   -1.9353  -54.5122 H   0  0  0  0  0  0  0  0  0  0  0  0
  1  2  1  0
  2  3  2  0
  3  4  1  0
  4  5  2  0
  4  6  1  0
  6  7  1  0
  7  8  1  0
  8  9  1  0
  9 10  1  0
 10 11  1  0
 11 12  1  0
 12 13  1  0
 13 14  1  0
 14 15  2  0
 14 16  1  0
 16 17  1  0
 17 18  2  0
 18 19  1  0
 19 20  1  0
 20 21  1  0
 21 22  2  0
 22 23  1  0
 23 24  1  0
 23 25  2  0
 25 26  1  0
 19 27  1  0
 27 28  1  0
 11 29  1  0
  6 30  1  0
 30 31  2  0
 30  2  1  0
 29  8  1  0
 27 16  2  0
 26 20  2  0
  1 32  1  0
  1 33  1  0
  1 34  1  0
  3 35  1  0
  7 36  1  0
  7 37  1  0
  8 38  1  1
  9 39  1  0
  9 40  1  0
 10 41  1  0
 10 42  1  0
 11 43  1  1
 13 44  1  0
 17 45  1  0
 18 46  1  0
 21 47  1  0
 22 48  1  0
 25 49  1  0
 26 50  1  0
 28 51  1  0
 28 52  1  0
 28 53  1  0
 29 54  1  0
 29 55  1  0
M  CHG  1  17   1
M  END
>  <meeko>  (14) 
{"is_sidechain": false}

$$$$

     RDKit          3D

 61 65  0  0  0  0  0  0  0  0999 V2000
    6.1270    2.5010  -57.8990 C   0  0  0  0  0  0  0  0  0  0  0  0
    6.7460    1.7410  -56.8430 N   0  0  0  0  0  0  0  0  0  0  0  0
    5.9790    0.9590  -56.0560 N   0  0  0  0  0  0  0  0  0  0  0  0
    6.8760    0.5230  -55.1430 C   0  0  0  0  0  0  0  0  0  0  0  0
    6.5000   -0.3730  -54.0250 C   0  0  0  0  0  0  0  0  0  0  0  0
    5.3760   -0.4060  -53.5340 O   0  0  0  0  0  0  0  0  0  0  0  0
    7.5510   -1.1670  -53.6000 N   0  0  0  0  0  0  0  0  0  0  0  0
    7.5020   -2.1510  -52.5240 C   0  0  2  0  0  0  0  0  0  0  0  0
    6.3200   -3.1350  -52.7000 C   0  0  0  0  0  0  0  0  0  0  0  0
    6.3210   -4.1910  -51.5810 C   0  0  1  0  0  0  0  0  0  0  0  0
    7.6370   -4.9830  -51.6320 C   0  0  0  0  0  0  0  0  0  0  0  0
    8.8290   -4.0340  -51.4370 C   0  0  2  0  0  0  0  0  0  0  0  0
    8.7060   -3.3330  -50.0760 C   0  0  0  0  0  0  0  0  0  0  0  0
    7.3970   -2.5310  -50.0150 C   0  0  2  0  0  0  0  0  0  0  0  0
    6.2070   -3.4850  -50.2200 C   0  0  0  0  0  0  0  0  0  0  0  0
    7.3950   -1.4750  -51.1340 C   0  0  0  0  0  0  0  0  0  0  0  0
    8.8170   -2.9760  -52.5520 C   0  0  0  0  0  0  0  0  0  0  0  0
    8.1520    0.9990  -55.3560 N   0  0  0  0  0  0  0  0  0  0  0  0
    8.0610    1.7310  -56.4490 C   0  0  0  0  0  0  0  0  0  0  0  0
    9.1640    2.4470  -57.0850 C   0  0  0  0  0  0  0  0  0  0  0  0
    9.9430    3.3220  -56.3240 C   0  0  0  0  0  0  0  0  0  0  0  0
   11.0040    4.0240  -56.9050 C   0  0  0  0  0  0  0  0  0  0  0  0
   11.3340    3.8690  -58.2650 C   0  0  0  0  0  0  0  0  0  0  0  0
   12.5110    4.6550  -58.8680 C   0  0  0  0  0  0  0  0  0  0  0  0
   13.4310    3.8050  -59.7740 C   0  0  0  0  0  0  0  0  0  0  0  0
   13.3880    5.2270  -57.7330 C   0  0  0  0  0  0  0  0  0  0  0  0
   11.9740    5.8180  -59.7300 C   0  0  0  0  0  0  0  0  0  0  0  0
   10.5590    2.9680  -59.0120 C   0  0  0  0  0  0  0  0  0  0  0  0
    9.4940    2.2640  -58.4310 C   0  0  0  0  0  0  0  0  0  0  0  0
    5.4895    3.2838  -57.4622 H   0  0  0  0  0  0  0  0  0  0  0  0
    6.9059    2.9669  -58.5205 H   0  0  0  0  0  0  0  0  0  0  0  0
    5.5131    1.8325  -58.5205 H   0  0  0  0  0  0  0  0  0  0  0  0
    8.4170   -1.0200  -54.1120 H   0  0  0  0  0  0  0  0  0  0  0  0
    5.3746   -2.5737  -52.6661 H   0  0  0  0  0  0  0  0  0  0  0  0
    6.4258   -3.6456  -53.6686 H   0  0  0  0  0  0  0  0  0  0  0  0
    5.4712   -4.8762  -51.7167 H   0  0  0  0  0  0  0  0  0  0  0  0
    7.6385   -5.7388  -50.8328 H   0  0  0  0  0  0  0  0  0  0  0  0
    7.7242   -5.4758  -52.6116 H   0  0  0  0  0  0  0  0  0  0  0  0
    9.7676   -4.6065  -51.4737 H   0  0  0  0  0  0  0  0  0  0  0  0
    8.7085   -4.0878  -49.2758 H   0  0  0  0  0  0  0  0  0  0  0  0
    9.5562   -2.6475  -49.9445 H   0  0  0  0  0  0  0  0  0  0  0  0
    7.3128   -2.0357  -49.0364 H   0  0  0  0  0  0  0  0  0  0  0  0
    6.2033   -4.2387  -49.4188 H   0  0  0  0  0  0  0  0  0  0  0  0
    5.2730   -2.9046  -50.1938 H   0  0  0  0  0  0  0  0  0  0  0  0
    6.4601   -0.8976  -51.0841 H   0  0  0  0  0  0  0  0  0  0  0  0
    8.2610   -0.8110  -50.9957 H   0  0  0  0  0  0  0  0  0  0  0  0
    9.6707   -2.2966  -52.4120 H   0  0  0  0  0  0  0  0  0  0  0  0
    8.8873   -3.4894  -53.5223 H   0  0  0  0  0  0  0  0  0  0  0  0
    9.7194    3.4604  -55.2559 H   0  0  0  0  0  0  0  0  0  0  0  0
   11.5949    4.7138  -56.2845 H   0  0  0  0  0  0  0  0  0  0  0  0
   14.0956    3.1909  -59.1486 H   0  0  0  0  0  0  0  0  0  0  0  0
   12.8165    3.1499  -60.4090 H   0  0  0  0  0  0  0  0  0  0  0  0
   14.0355    4.4693  -60.4090 H   0  0  0  0  0  0  0  0  0  0  0  0
   12.9578    4.9464  -56.7603 H   0  0  0  0  0  0  0  0  0  0  0  0
   14.4061    4.8188  -57.8151 H   0  0  0  0  0  0  0  0  0  0  0  0
   13.4248    6.3233  -57.8151 H   0  0  0  0  0  0  0  0  0  0  0  0
   11.6038    6.6198  -59.0743 H   0  0  0  0  0  0  0  0  0  0  0  0
   12.7833    6.2079  -60.3649 H   0  0  0  0  0  0  0  0  0  0  0  0
   11.1524    5.4548  -60.3649 H   0  0  0  0  0  0  0  0  0  0  0  0
   10.7918    2.8107  -60.0755 H   0  0  0  0  0  0  0  0  0  0  0  0
    8.9112    1.5591  -59.0421 H   0  0  0  0  0  0  0  0  0  0  0  0
  1  2  1  0
  2  3  1  0
  3  4  2  0
  4  5  1  0
  5  6  2  0
  5  7  1  0
  8  7  1  6
  8  9  1  0
  9 10  1  0
 10 11  1  0
 11 12  1  0
 12 13  1  0
 13 14  1  0
 14 15  1  0
 14 16  1  0
 12 17  1  0
  4 18  1  0
 18 19  2  0
 19 20  1  0
 20 21  1  0
 21 22  2  0
 22 23  1  0
 23 24  1  0
 24 25  1  0
 24 26  1  0
 24 27  1  0
 23 28  2  0
 28 29  1  0
 19  2  1  0
 29 20  2  0
 16  8  1  0
 17  8  1  0
 15 10  1  0
  1 30  1  0
  1 31  1  0
  1 32  1  0
  7 33  1  0
  9 34  1  0
  9 35  1  0
 10 36  1  6
 11 37  1  0
 11 38  1  0
 12 39  1  1
 13 40  1  0
 13 41  1  0
 14 42  1  1
 15 43  1  0
 15 44  1  0
 16 45  1  0
 16 46  1  0
 17 47  1  0
 17 48  1  0
 21 49  1  0
 22 50  1  0
 25 51  1  0
 25 52  1  0
 25 53  1  0
 26 54  1  0
 26 55  1  0
 26 56  1  0
 27 57  1  0
 27 58  1  0
 27 59  1  0
 28 60  1  0
 29 61  1  0
M  END
>  <meeko>  (15) 
{"is_sidechain": false}

$$$$

     RDKit          3D

 61 66  0  0  0  0  0  0  0  0999 V2000
    6.9470    0.6630  -56.0170 O   0  0  0  0  0  0  0  0  0  0  0  0
    7.9410    0.7840  -55.3040 C   0  0  0  0  0  0  0  0  0  0  0  0
    8.9800    1.6520  -55.5350 N   0  0  0  0  0  0  0  0  0  0  0  0
    9.0530    2.5980  -56.6520 C   0  0  2  0  0  0  0  0  0  0  0  0
    9.7380    1.8900  -57.8530 C   0  0  0  0  0  0  0  0  0  0  0  0
    9.8460    2.8330  -59.0610 C   0  0  1  0  0  0  0  0  0  0  0  0
    8.4360    3.2800  -59.4800 C   0  0  0  0  0  0  0  0  0  0  0  0
    7.7500    4.0080  -58.3140 C   0  0  2  0  0  0  0  0  0  0  0  0
    8.5880    5.2350  -57.9160 C   0  0  0  0  0  0  0  0  0  0  0  0
   10.0020    4.7970  -57.4960 C   0  0  2  0  0  0  0  0  0  0  0  0
   10.6750    4.0650  -58.6670 C   0  0  0  0  0  0  0  0  0  0  0  0
    9.8990    3.8450  -56.2910 C   0  0  0  0  0  0  0  0  0  0  0  0
    7.6460    3.0550  -57.1090 C   0  0  0  0  0  0  0  0  0  0  0  0
    8.1000   -0.1080  -54.0990 C   0  0  0  0  0  0  0  0  0  0  0  0
    7.1800   -0.0090  -53.1210 C   0  0  0  0  0  0  0  0  0  0  0  0
    6.2170    0.9370  -53.1770 F   0  0  0  0  0  0  0  0  0  0  0  0
    7.0870   -0.9030  -51.9920 C   0  0  0  0  0  0  0  0  0  0  0  0
    6.8970   -2.2270  -52.0960 C   0  0  0  0  0  0  0  0  0  0  0  0
    6.7160   -2.9400  -50.9640 F   0  0  0  0  0  0  0  0  0  0  0  0
    6.7640   -2.9710  -53.3440 C   0  0  0  0  0  0  0  0  0  0  0  0
    7.6290   -2.9770  -54.3720 C   0  0  0  0  0  0  0  0  0  0  0  0
    8.9280   -2.2480  -54.3110 C   0  0  0  0  0  0  0  0  0  0  0  0
   10.0760   -3.1440  -54.5150 C   0  0  0  0  0  0  0  0  0  0  0  0
   11.1500   -3.1450  -53.7050 N   0  0  0  0  0  0  0  0  0  0  0  0
   11.9930   -4.1040  -54.2460 O   0  0  0  0  0  0  0  0  0  0  0  0
   11.3610   -4.5950  -55.3410 C   0  0  0  0  0  0  0  0  0  0  0  0
   12.0950   -5.6150  -56.1350 C   0  0  0  0  0  0  0  0  0  0  0  0
   12.6950   -5.0460  -57.3860 N   0  0  0  0  0  0  0  0  0  0  0  0
   11.6940   -4.9060  -58.4630 C   0  0  0  0  0  0  0  0  0  0  0  0
   12.3140   -3.5340  -58.7670 C   0  0  0  0  0  0  0  0  0  0  0  0
   12.8400   -3.5860  -57.3240 C   0  0  0  0  0  0  0  0  0  0  0  0
   10.1820   -4.0570  -55.5640 N   0  0  0  0  0  0  0  0  0  0  0  0
    9.1600   -0.9900  -54.1260 N   0  0  0  0  0  0  0  0  0  0  0  0
    9.7580    1.6390  -54.8870 H   0  0  0  0  0  0  0  0  0  0  0  0
   10.7476    1.5714  -57.5543 H   0  0  0  0  0  0  0  0  0  0  0  0
    9.1283    1.0209  -58.1410 H   0  0  0  0  0  0  0  0  0  0  0  0
   10.3330    2.3122  -59.8986 H   0  0  0  0  0  0  0  0  0  0  0  0
    8.5099    3.9599  -60.3415 H   0  0  0  0  0  0  0  0  0  0  0  0
    7.8423    2.3955  -59.7541 H   0  0  0  0  0  0  0  0  0  0  0  0
    6.7439    4.3294  -58.6215 H   0  0  0  0  0  0  0  0  0  0  0  0
    8.6592    5.9204  -58.7734 H   0  0  0  0  0  0  0  0  0  0  0  0
    8.1025    5.7429  -57.0696 H   0  0  0  0  0  0  0  0  0  0  0  0
   10.5985    5.6794  -57.2213 H   0  0  0  0  0  0  0  0  0  0  0  0
   10.7486    4.7454  -59.5282 H   0  0  0  0  0  0  0  0  0  0  0  0
   11.6808    3.7413  -58.3610 H   0  0  0  0  0  0  0  0  0  0  0  0
   10.9090    3.5238  -55.9967 H   0  0  0  0  0  0  0  0  0  0  0  0
    9.4114    4.3760  -55.4602 H   0  0  0  0  0  0  0  0  0  0  0  0
    7.1476    3.5759  -56.2782 H   0  0  0  0  0  0  0  0  0  0  0  0
    7.0650    2.1696  -57.4065 H   0  0  0  0  0  0  0  0  0  0  0  0
    7.1775   -0.4723  -50.9839 H   0  0  0  0  0  0  0  0  0  0  0  0
    5.8622   -3.5912  -53.4547 H   0  0  0  0  0  0  0  0  0  0  0  0
    7.3716   -3.5354  -55.2841 H   0  0  0  0  0  0  0  0  0  0  0  0
   12.9021   -6.0314  -55.5144 H   0  0  0  0  0  0  0  0  0  0  0  0
   11.3732   -6.3898  -56.4328 H   0  0  0  0  0  0  0  0  0  0  0  0
   13.5350   -5.5620  -57.6840 H   0  0  0  0  0  0  0  0  0  0  0  0
   11.7876   -5.6420  -59.2751 H   0  0  0  0  0  0  0  0  0  0  0  0
   10.6173   -5.0254  -58.2719 H   0  0  0  0  0  0  0  0  0  0  0  0
   13.0901   -3.5355  -59.5465 H   0  0  0  0  0  0  0  0  0  0  0  0
   11.7276   -2.6889  -59.1568 H   0  0  0  0  0  0  0  0  0  0  0  0
   13.8746   -3.2334  -57.2008 H   0  0  0  0  0  0  0  0  0  0  0  0
   12.3779   -2.9942  -56.5201 H   0  0  0  0  0  0  0  0  0  0  0  0
  1  2  2  0
  2  3  1  0
  4  3  1  1
  4  5  1  0
  5  6  1  0
  6  7  1  0
  7  8  1  0
  8  9  1  0
  9 10  1  0
 10 11  1  0
 10 12  1  0
  8 13  1  0
  2 14  1  0
 14 15  2  0
 15 16  1  0
 15 17  1  0
 17 18  2  0
 18 19  1  0
 18 20  1  0
 20 21  2  0
 21 22  1  0
 22 23  1  0
 23 24  2  0
 24 25  1  0
 25 26  1  0
 26 27  1  0
 27 28  1  0
 28 29  1  0
 29 30  1  0
 30 31  1  0
 26 32  2  0
 22 33  2  0
 12  4  1  0
 33 14  1  0
 13  4  1  0
 32 23  1  0
 11  6  1  0
 31 28  1  0
  3 34  1  0
  5 35  1  0
  5 36  1  0
  6 37  1  6
  7 38  1  0
  7 39  1  0
  8 40  1  6
  9 41  1  0
  9 42  1  0
 10 43  1  1
 11 44  1  0
 11 45  1  0
 12 46  1  0
 12 47  1  0
 13 48  1  0
 13 49  1  0
 17 50  1  0
 20 51  1  0
 21 52  1  0
 27 53  1  0
 27 54  1  0
 28 55  1  0
 29 56  1  0
 29 57  1  0
 30 58  1  0
 30 59  1  0
 31 60  1  0
 31 61  1  0
M  CHG  1  28   1
M  END
>  <meeko>  (16) 
{"is_sidechain": false}

$$$$

     RDKit          3D

 54 58  0  0  0  0  0  0  0  0999 V2000
    7.7790   -1.8450  -51.6250 C   0  0  0  0  0  0  0  0  0  0  0  0
    8.3390   -1.3910  -52.9410 C   0  0  0  0  0  0  0  0  0  0  0  0
    7.9740   -0.1690  -53.4640 C   0  0  0  0  0  0  0  0  0  0  0  0
    8.5340    0.1670  -54.6730 C   0  0  0  0  0  0  0  0  0  0  0  0
    8.2830    1.3620  -55.3520 N   0  0  0  0  0  0  0  0  0  0  0  0
    7.3470    1.6060  -56.3320 C   0  0  0  0  0  0  0  0  0  0  0  0
    6.5680    0.7840  -56.7980 O   0  0  0  0  0  0  0  0  0  0  0  0
    7.4050    3.0520  -56.8130 C   0  0  0  0  0  0  0  0  0  0  0  0
    8.7950    3.4750  -57.3270 C   0  0  2  0  0  0  0  0  0  0  0  0
    8.7620    4.8740  -57.9970 C   0  0  1  0  0  0  0  0  0  0  0  0
   10.2110    5.3100  -58.2980 C   0  0  0  0  0  0  0  0  0  0  0  0
   10.8770    4.3100  -59.2590 C   0  0  2  0  0  0  0  0  0  0  0  0
   10.0770    4.2690  -60.5720 C   0  0  0  0  0  0  0  0  0  0  0  0
    8.6300    3.8300  -60.2930 C   0  0  2  0  0  0  0  0  0  0  0  0
    7.9780    4.8290  -59.3230 C   0  0  0  0  0  0  0  0  0  0  0  0
    8.6460    2.4310  -59.6530 C   0  0  0  0  0  0  0  0  0  0  0  0
    9.4250    2.4630  -58.3230 C   0  0  1  0  0  0  0  0  0  0  0  0
   10.8720    2.9090  -58.6210 C   0  0  0  0  0  0  0  0  0  0  0  0
    9.3910   -0.6360  -55.3240 N   0  0  0  0  0  0  0  0  0  0  0  0
    9.6970   -1.8090  -54.7510 C   0  0  0  0  0  0  0  0  0  0  0  0
   10.6360   -2.7140  -55.4420 C   0  0  0  0  0  0  0  0  0  0  0  0
   10.7160   -4.0810  -55.0880 C   0  0  0  0  0  0  0  0  0  0  0  0
   11.5980   -4.9560  -55.7300 C   0  0  0  0  0  0  0  0  0  0  0  0
   12.4180   -4.4790  -56.7410 C   0  0  0  0  0  0  0  0  0  0  0  0
   13.2630   -5.3150  -57.3570 F   0  0  0  0  0  0  0  0  0  0  0  0
   12.3730   -3.1480  -57.1190 C   0  0  0  0  0  0  0  0  0  0  0  0
   11.4900   -2.2810  -56.4730 C   0  0  0  0  0  0  0  0  0  0  0  0
   11.4920   -1.0030  -56.8810 F   0  0  0  0  0  0  0  0  0  0  0  0
    9.1950   -2.2200  -53.5690 N   0  0  0  0  0  0  0  0  0  0  0  0
    8.3487   -1.3831  -50.8052 H   0  0  0  0  0  0  0  0  0  0  0  0
    6.7233   -1.5447  -51.5526 H   0  0  0  0  0  0  0  0  0  0  0  0
    7.8545   -2.9400  -51.5526 H   0  0  0  0  0  0  0  0  0  0  0  0
    7.2735    0.4999  -52.9426 H   0  0  0  0  0  0  0  0  0  0  0  0
    8.8930    2.1100  -55.0480 H   0  0  0  0  0  0  0  0  0  0  0  0
    6.6792    3.1762  -57.6302 H   0  0  0  0  0  0  0  0  0  0  0  0
    7.1729    3.6899  -55.9474 H   0  0  0  0  0  0  0  0  0  0  0  0
    9.4256    3.5045  -56.4262 H   0  0  0  0  0  0  0  0  0  0  0  0
    8.2684    5.5824  -57.3155 H   0  0  0  0  0  0  0  0  0  0  0  0
   10.2017    6.3078  -58.7608 H   0  0  0  0  0  0  0  0  0  0  0  0
   10.7805    5.3381  -57.3573 H   0  0  0  0  0  0  0  0  0  0  0  0
   11.9129    4.6206  -59.4598 H   0  0  0  0  0  0  0  0  0  0  0  0
   10.0725    5.2704  -61.0272 H   0  0  0  0  0  0  0  0  0  0  0  0
   10.5466    3.5491  -61.2585 H   0  0  0  0  0  0  0  0  0  0  0  0
    8.0578    3.8019  -61.2320 H   0  0  0  0  0  0  0  0  0  0  0  0
    7.9775    5.8301  -59.7788 H   0  0  0  0  0  0  0  0  0  0  0  0
    6.9458    4.5084  -59.1184 H   0  0  0  0  0  0  0  0  0  0  0  0
    7.6124    2.1074  -59.4610 H   0  0  0  0  0  0  0  0  0  0  0  0
    9.1382    1.7273  -60.3405 H   0  0  0  0  0  0  0  0  0  0  0  0
    9.3958    1.4605  -57.8711 H   0  0  0  0  0  0  0  0  0  0  0  0
   11.4445    2.9355  -57.6821 H   0  0  0  0  0  0  0  0  0  0  0  0
   11.3303    2.1948  -59.3209 H   0  0  0  0  0  0  0  0  0  0  0  0
   10.0677   -4.4659  -54.2870 H   0  0  0  0  0  0  0  0  0  0  0  0
   11.6408   -6.0148  -55.4350 H   0  0  0  0  0  0  0  0  0  0  0  0
   13.0274   -2.7768  -57.9215 H   0  0  0  0  0  0  0  0  0  0  0  0
  1  2  1  0
  2  3  1  0
  3  4  2  0
  4  5  1  0
  5  6  1  0
  6  7  2  0
  6  8  1  0
  8  9  1  0
  9 10  1  0
 10 11  1  0
 11 12  1  0
 12 13  1  0
 13 14  1  0
 14 15  1  0
 14 16  1  0
 16 17  1  0
 17 18  1  0
  4 19  1  0
 19 20  2  0
 20 21  1  0
 21 22  1  0
 22 23  2  0
 23 24  1  0
 24 25  1  0
 24 26  2  0
 26 27  1  0
 27 28  1  0
 20 29  1  0
 29  2  2  0
 17  9  1  0
 27 21  2  0
 15 10  1  0
 18 12  1  0
  1 30  1  0
  1 31  1  0
  1 32  1  0
  3 33  1  0
  5 34  1  0
  8 35  1  0
  8 36  1  0
  9 37  1  6
 10 38  1  6
 11 39  1  0
 11 40  1  0
 12 41  1  1
 13 42  1  0
 13 43  1  0
 14 44  1  1
 15 45  1  0
 15 46  1  0
 16 47  1  0
 16 48  1  0
 17 49  1  6
 18 50  1  0
 18 51  1  0
 22 52  1  0
 23 53  1  0
 26 54  1  0
M  END
>  <meeko>  (17) 
{"is_sidechain": false}

$$$$

     RDKit          3D

 37 40  0  0  0  0  0  0  0  0999 V2000
    6.4260    3.3860  -58.3170 C   0  0  0  0  0  0  0  0  0  0  0  0
    7.1040    2.4540  -57.3530 C   0  0  0  0  0  0  0  0  0  0  0  0
    6.2690    1.6090  -56.6920 N   0  0  0  0  0  0  0  0  0  0  0  0
    6.8990    0.7490  -55.8460 C   0  0  0  0  0  0  0  0  0  0  0  0
    6.2850   -0.2400  -55.0270 C   0  0  0  0  0  0  0  0  0  0  0  0
    7.2050   -0.9590  -54.2790 C   0  0  0  0  0  0  0  0  0  0  0  0
    7.0060   -2.0450  -53.3270 C   0  0  0  0  0  0  0  0  0  0  0  0
    6.2460   -2.9920  -53.5190 O   0  0  0  0  0  0  0  0  0  0  0  0
    7.7550   -1.9470  -52.1630 N   0  0  0  0  0  0  0  0  0  0  0  0
    7.6950   -2.9370  -51.1330 C   0  0  0  0  0  0  0  0  0  0  0  0
    7.7890   -2.5360  -49.6870 C   0  0  0  0  0  0  0  0  0  0  0  0
    8.9190   -3.2830  -50.3310 C   0  0  0  0  0  0  0  0  0  0  0  0
    8.8120   -0.4270  -54.6040 S   0  0  0  0  0  0  0  0  0  0  0  0
    8.2780    0.7520  -55.7010 C   0  0  0  0  0  0  0  0  0  0  0  0
    9.1290    1.5770  -56.3430 N   0  0  0  0  0  0  0  0  0  0  0  0
    8.5000    2.4530  -57.1700 C   0  0  0  0  0  0  0  0  0  0  0  0
    9.4230    3.3570  -57.8690 C   0  0  0  0  0  0  0  0  0  0  0  0
   10.2020    2.8880  -58.9440 C   0  0  0  0  0  0  0  0  0  0  0  0
   11.0920    3.7380  -59.6090 C   0  0  0  0  0  0  0  0  0  0  0  0
   11.2170    5.0590  -59.1950 C   0  0  0  0  0  0  0  0  0  0  0  0
   12.0690    5.8710  -59.8330 F   0  0  0  0  0  0  0  0  0  0  0  0
   10.4740    5.5470  -58.1310 C   0  0  0  0  0  0  0  0  0  0  0  0
    9.5920    4.6930  -57.4750 C   0  0  0  0  0  0  0  0  0  0  0  0
    8.8950    5.1800  -56.4380 F   0  0  0  0  0  0  0  0  0  0  0  0
    5.8691    4.1515  -57.7567 H   0  0  0  0  0  0  0  0  0  0  0  0
    7.1826    3.8728  -58.9500 H   0  0  0  0  0  0  0  0  0  0  0  0
    5.7300    2.8160  -58.9500 H   0  0  0  0  0  0  0  0  0  0  0  0
    5.1996   -0.4148  -54.9913 H   0  0  0  0  0  0  0  0  0  0  0  0
    8.4520   -1.2230  -52.0790 H   0  0  0  0  0  0  0  0  0  0  0  0
    6.9761   -3.5075  -51.7394 H   0  0  0  0  0  0  0  0  0  0  0  0
    7.9132   -1.4769  -49.4172 H   0  0  0  0  0  0  0  0  0  0  0  0
    7.1635   -2.6902  -48.7954 H   0  0  0  0  0  0  0  0  0  0  0  0
    9.8716   -2.7715  -50.5333 H   0  0  0  0  0  0  0  0  0  0  0  0
    9.4648   -4.2114  -50.1070 H   0  0  0  0  0  0  0  0  0  0  0  0
   10.1096    1.8399  -59.2650 H   0  0  0  0  0  0  0  0  0  0  0  0
   11.6888    3.3636  -60.4537 H   0  0  0  0  0  0  0  0  0  0  0  0
   10.5800    6.5938  -57.8099 H   0  0  0  0  0  0  0  0  0  0  0  0
  1  2  1  0
  2  3  2  0
  3  4  1  0
  4  5  1  0
  5  6  2  0
  6  7  1  0
  7  8  2  0
  7  9  1  0
  9 10  1  0
 10 11  1  0
 11 12  1  0
  6 13  1  0
 13 14  1  0
 14 15  1  0
 15 16  2  0
 16 17  1  0
 17 18  1  0
 18 19  2  0
 19 20  1  0
 20 21  1  0
 20 22  2  0
 22 23  1  0
 23 24  1  0
 16  2  1  0
 23 17  2  0
 14  4  2  0
 12 10  1  0
  1 25  1  0
  1 26  1  0
  1 27  1  0
  5 28  1  0
  9 29  1  0
 10 30  1  0
 11 31  1  0
 11 32  1  0
 12 33  1  0
 12 34  1  0
 18 35  1  0
 19 36  1  0
 22 37  1  0
M  END
>  <meeko>  (18) 
{"is_sidechain": false}

$$$$

     RDKit          3D

 33 35  0  0  0  0  0  0  0  0999 V2000
   11.0860    5.4050  -60.1010 C   0  0  0  0  0  0  0  0  0  0  0  0
    9.8900    4.4920  -59.8300 C   0  0  2  0  0  0  0  0  0  0  0  0
    8.8420    5.1340  -58.9160 C   0  0  1  0  0  0  0  0  0  0  0  0
    7.5660    4.2940  -58.9090 C   0  0  0  0  0  0  0  0  0  0  0  0
    7.7840    2.8460  -58.7250 N   0  0  0  0  0  0  0  0  0  0  0  0
    6.6360    2.0640  -58.5510 C   0  0  0  0  0  0  0  0  0  0  0  0
    6.3920    1.3960  -57.5540 O   0  0  0  0  0  0  0  0  0  0  0  0
    5.6080    2.0660  -59.6590 C   0  0  0  0  0  0  0  0  0  0  0  0
    5.9930    1.8840  -60.8880 N   0  0  0  0  0  0  0  0  0  0  0  0
    4.9940    1.8900  -61.8300 N   0  0  0  0  0  0  0  0  0  0  0  0
    3.6510    2.0540  -61.5830 C   0  0  0  0  0  0  0  0  0  0  0  0
    2.8020    2.0390  -62.4670 O   0  0  0  0  0  0  0  0  0  0  0  0
    3.2630    2.2730  -60.1790 C   0  0  0  0  0  0  0  0  0  0  0  0
    4.2130    2.2800  -59.2490 C   0  0  0  0  0  0  0  0  0  0  0  0
    3.9550    2.5030  -57.9490 F   0  0  0  0  0  0  0  0  0  0  0  0
    9.0990    2.2530  -59.0390 C   0  0  0  0  0  0  0  0  0  0  0  0
   10.2520    3.2640  -58.9780 C   0  0  2  0  0  0  0  0  0  0  0  0
   10.2840    3.8690  -57.6060 C   0  0  0  0  0  0  0  0  0  0  0  0
    9.4850    4.8980  -57.6100 N   0  0  0  0  0  0  0  0  0  0  0  0
    9.2910    5.6400  -56.6030 O   0  0  0  0  0  0  0  0  0  0  0  0
   11.5190    5.7355  -59.1453 H   0  0  0  0  0  0  0  0  0  0  0  0
   11.8448    4.8543  -60.6763 H   0  0  0  0  0  0  0  0  0  0  0  0
   10.7548    6.2821  -60.6763 H   0  0  0  0  0  0  0  0  0  0  0  0
    9.5413    4.2642  -60.8481 H   0  0  0  0  0  0  0  0  0  0  0  0
    8.5809    6.1682  -59.1848 H   0  0  0  0  0  0  0  0  0  0  0  0
    6.9247    4.6511  -58.0897 H   0  0  0  0  0  0  0  0  0  0  0  0
    7.1071    4.4163  -59.9012 H   0  0  0  0  0  0  0  0  0  0  0  0
    5.2760    1.7190  -62.7920 H   0  0  0  0  0  0  0  0  0  0  0  0
    2.2088    2.4276  -59.9056 H   0  0  0  0  0  0  0  0  0  0  0  0
    9.3010    1.4492  -58.3157 H   0  0  0  0  0  0  0  0  0  0  0  0
    9.0488    1.8786  -60.0721 H   0  0  0  0  0  0  0  0  0  0  0  0
   11.1728    2.7459  -59.2842 H   0  0  0  0  0  0  0  0  0  0  0  0
   10.8752    3.5090  -56.7510 H   0  0  0  0  0  0  0  0  0  0  0  0
  1  2  1  0
  2  3  1  0
  3  4  1  0
  4  5  1  0
  5  6  1  0
  6  7  2  0
  6  8  1  0
  8  9  2  0
  9 10  1  0
 10 11  1  0
 11 12  2  0
 11 13  1  0
 13 14  2  0
 14 15  1  0
  5 16  1  0
 16 17  1  0
 17 18  1  0
 18 19  2  0
 19 20  1  0
 17  2  1  0
 19  3  1  0
 14  8  1  0
  1 21  1  0
  1 22  1  0
  1 23  1  0
  2 24  1  6
  3 25  1  6
  4 26  1  0
  4 27  1  0
 10 28  1  0
 13 29  1  0
 16 30  1  0
 16 31  1  0
 17 32  1  6
 18 33  1  0
M  CHG  2  19   1  20  -1
M  END
>  <meeko>  (19) 
{"is_sidechain": false}

$$$$

     RDKit          3D

 33 35  0  0  0  0  0  0  0  0999 V2000
   11.1430    5.4800  -60.0260 C   0  0  0  0  0  0  0  0  0  0  0  0
    9.9430    4.5570  -59.8110 C   0  0  2  0  0  0  0  0  0  0  0  0
    8.8640    5.1750  -58.9180 C   0  0  1  0  0  0  0  0  0  0  0  0
    7.5920    4.3300  -58.9640 C   0  0  0  0  0  0  0  0  0  0  0  0
    7.8060    2.8760  -58.7940 N   0  0  0  0  0  0  0  0  0  0  0  0
    6.6500    2.1000  -58.5840 C   0  0  0  0  0  0  0  0  0  0  0  0
    6.4950    1.4350  -57.5600 O   0  0  0  0  0  0  0  0  0  0  0  0
    5.5700    2.0650  -59.6010 C   0  0  0  0  0  0  0  0  0  0  0  0
    5.9300    1.9030  -60.9000 N   0  0  0  0  0  0  0  0  0  0  0  0
    4.9660    1.9030  -61.8660 N   0  0  0  0  0  0  0  0  0  0  0  0
    3.6810    2.0850  -61.5070 C   0  0  0  0  0  0  0  0  0  0  0  0
    2.7790    2.0780  -62.5220 O   0  0  0  0  0  0  0  0  0  0  0  0
    3.2660    2.2620  -60.2110 C   0  0  0  0  0  0  0  0  0  0  0  0
    4.2480    2.2540  -59.2340 C   0  0  0  0  0  0  0  0  0  0  0  0
    3.8820    2.4000  -57.9520 F   0  0  0  0  0  0  0  0  0  0  0  0
    9.1360    2.3000  -59.0940 C   0  0  0  0  0  0  0  0  0  0  0  0
   10.2820    3.3130  -58.9740 C   0  0  2  0  0  0  0  0  0  0  0  0
   10.2700    3.8890  -57.5900 C   0  0  0  0  0  0  0  0  0  0  0  0
    9.4680    4.9150  -57.5980 N   0  0  0  0  0  0  0  0  0  0  0  0
    9.2430    5.6370  -56.5810 O   0  0  0  0  0  0  0  0  0  0  0  0
   11.5463    5.7902  -59.0508 H   0  0  0  0  0  0  0  0  0  0  0  0
   11.9205    4.9450  -60.5910 H   0  0  0  0  0  0  0  0  0  0  0  0
   10.8254    6.3688  -60.5910 H   0  0  0  0  0  0  0  0  0  0  0  0
    9.6284    4.3497  -60.8445 H   0  0  0  0  0  0  0  0  0  0  0  0
    8.6059    6.2127  -59.1759 H   0  0  0  0  0  0  0  0  0  0  0  0
    6.9238    4.6737  -58.1607 H   0  0  0  0  0  0  0  0  0  0  0  0
    7.1672    4.4647  -59.9697 H   0  0  0  0  0  0  0  0  0  0  0  0
    1.9930    2.4710  -62.1010 H   0  0  0  0  0  0  0  0  0  0  0  0
    2.2044    2.4035  -59.9600 H   0  0  0  0  0  0  0  0  0  0  0  0
    9.3250    1.4753  -58.3910 H   0  0  0  0  0  0  0  0  0  0  0  0
    9.1130    1.9593  -60.1397 H   0  0  0  0  0  0  0  0  0  0  0  0
   11.2138    2.8037  -59.2610 H   0  0  0  0  0  0  0  0  0  0  0  0
   10.8359    3.5132  -56.7248 H   0  0  0  0  0  0  0  0  0  0  0  0
  1  2  1  0
  2  3  1  0
  3  4  1  0
  4  5  1  0
  5  6  1  0
  6  7  2  0
  6  8  1  0
  8  9  1  0
  9 10  2  0
 10 11  1  0
 11 12  1  0
 11 13  2  0
 13 14  1  0
 14 15  1  0
  5 16  1  0
 16 17  1  0
 17 18  1  0
 18 19  2  0
 19 20  1  0
 17  2  1  0
 19  3  1  0
 14  8  2  0
  1 21  1  0
  1 22  1  0
  1 23  1  0
  2 24  1  6
  3 25  1  6
  4 26  1  0
  4 27  1  0
 12 28  1  0
 13 29  1  0
 16 30  1  0
 16 31  1  0
 17 32  1  6
 18 33  1  0
M  CHG  2  19   1  20  -1
M  END
>  <meeko>  (20) 
{"is_sidechain": false}

$$$$

     RDKit          3D

 64 67  0  0  0  0  0  0  0  0999 V2000
   12.1240    3.9480  -57.5310 C   0  0  0  0  0  0  0  0  0  0  0  0
   11.4780    2.5980  -57.4570 C   0  0  0  0  0  0  0  0  0  0  0  0
   11.9300    1.6500  -56.8350 O   0  0  0  0  0  0  0  0  0  0  0  0
   10.3240    2.6020  -58.1810 O   0  0  0  0  0  0  0  0  0  0  0  0
    9.3800    3.6740  -57.9370 C   0  0  2  0  0  0  0  0  0  0  0  0
    8.2490    3.1080  -57.0510 C   0  0  2  0  0  0  0  0  0  0  0  0
    8.8050    2.4780  -55.7590 C   0  0  0  0  0  0  0  0  0  0  0  0
    7.6340    1.6740  -55.2010 C   0  0  2  0  0  0  0  0  0  0  0  0
    8.0190    0.5740  -54.3510 N   0  0  0  0  0  0  0  0  0  0  0  0
    9.0390   -0.2750  -54.7160 C   0  0  0  0  0  0  0  0  0  0  0  0
    9.5600   -0.2260  -55.8270 O   0  0  0  0  0  0  0  0  0  0  0  0
    9.4670   -1.2190  -53.6800 C   0  0  0  0  0  0  0  0  0  0  0  0
   10.7590   -1.6640  -53.4250 C   0  0  0  0  0  0  0  0  0  0  0  0
   10.7340   -2.5300  -52.3600 N   0  0  0  0  0  0  0  0  0  0  0  0
   11.8900   -3.2030  -51.8100 C   0  0  0  0  0  0  0  0  0  0  0  0
    9.4500   -2.6470  -51.9080 C   0  0  0  0  0  0  0  0  0  0  0  0
    8.6400   -1.8600  -52.7050 C   0  0  0  0  0  0  0  0  0  0  0  0
    7.1650   -1.7440  -52.4830 C   0  0  0  0  0  0  0  0  0  0  0  0
    6.6500   -2.8650  -51.5610 C   0  0  0  0  0  0  0  0  0  0  0  0
    7.5690   -3.0890  -50.3490 C   0  0  0  0  0  0  0  0  0  0  0  0
    8.9930   -3.4980  -50.7700 C   0  0  0  0  0  0  0  0  0  0  0  0
    7.0060    1.1600  -56.4830 C   0  0  0  0  0  0  0  0  0  0  0  0
    6.2410    0.2010  -56.5330 O   0  0  0  0  0  0  0  0  0  0  0  0
    7.4610    1.9510  -57.6960 C   0  0  1  0  0  0  0  0  0  0  0  0
    6.2800    2.3640  -58.5610 C   0  0  0  0  0  0  0  0  0  0  0  0
    6.5990    3.1360  -59.8370 C   0  0  0  0  0  0  0  0  0  0  0  0
    8.0850    3.2750  -60.1770 C   0  0  0  0  0  0  0  0  0  0  0  0
    8.9120    4.2720  -59.3010 C   0  0  0  0  0  0  0  0  0  0  0  0
    8.1200    5.5770  -59.0520 C   0  0  0  0  0  0  0  0  0  0  0  0
   10.1530    4.6690  -60.1420 C   0  0  0  0  0  0  0  0  0  0  0  0
   12.3042    4.3245  -56.5133 H   0  0  0  0  0  0  0  0  0  0  0  0
   13.0812    3.8676  -58.0670 H   0  0  0  0  0  0  0  0  0  0  0  0
   11.4609    4.6429  -58.0670 H   0  0  0  0  0  0  0  0  0  0  0  0
    9.8246    4.5185  -57.3901 H   0  0  0  0  0  0  0  0  0  0  0  0
    7.6060    3.9841  -56.8809 H   0  0  0  0  0  0  0  0  0  0  0  0
    9.6587    1.8209  -55.9813 H   0  0  0  0  0  0  0  0  0  0  0  0
    9.1757    3.2314  -55.0484 H   0  0  0  0  0  0  0  0  0  0  0  0
    6.9837    2.2763  -54.5496 H   0  0  0  0  0  0  0  0  0  0  0  0
    7.8290    0.6750  -53.3610 H   0  0  0  0  0  0  0  0  0  0  0  0
   11.6577   -1.3694  -53.9867 H   0  0  0  0  0  0  0  0  0  0  0  0
   11.8422   -3.1752  -50.7114 H   0  0  0  0  0  0  0  0  0  0  0  0
   11.9016   -4.2490  -52.1502 H   0  0  0  0  0  0  0  0  0  0  0  0
   12.8054   -2.6966  -52.1502 H   0  0  0  0  0  0  0  0  0  0  0  0
    6.9475   -0.7703  -52.0198 H   0  0  0  0  0  0  0  0  0  0  0  0
    6.6586   -1.8330  -53.4555 H   0  0  0  0  0  0  0  0  0  0  0  0
    5.6471   -2.5936  -51.1996 H   0  0  0  0  0  0  0  0  0  0  0  0
    6.6270   -3.7975  -52.1440 H   0  0  0  0  0  0  0  0  0  0  0  0
    7.6247   -2.1561  -49.7688 H   0  0  0  0  0  0  0  0  0  0  0  0
    7.1448   -3.9073  -49.7487 H   0  0  0  0  0  0  0  0  0  0  0  0
    9.6770   -3.3667  -49.9186 H   0  0  0  0  0  0  0  0  0  0  0  0
    8.9892   -4.5521  -51.0845 H   0  0  0  0  0  0  0  0  0  0  0  0
    8.0852    1.3974  -58.4129 H   0  0  0  0  0  0  0  0  0  0  0  0
    5.7438    1.4484  -58.8512 H   0  0  0  0  0  0  0  0  0  0  0  0
    5.6986    3.0616  -57.9403 H   0  0  0  0  0  0  0  0  0  0  0  0
    6.1077    2.6204  -60.6753 H   0  0  0  0  0  0  0  0  0  0  0  0
    6.2343    4.1596  -59.6662 H   0  0  0  0  0  0  0  0  0  0  0  0
    8.5451    2.2809  -60.0762 H   0  0  0  0  0  0  0  0  0  0  0  0
    8.1126    3.6908  -61.1950 H   0  0  0  0  0  0  0  0  0  0  0  0
    8.0189    5.7436  -57.9694 H   0  0  0  0  0  0  0  0  0  0  0  0
    8.6567    6.4237  -59.5048 H   0  0  0  0  0  0  0  0  0  0  0  0
    7.1211    5.4918  -59.5048 H   0  0  0  0  0  0  0  0  0  0  0  0
   10.9821    4.9342  -59.4695 H   0  0  0  0  0  0  0  0  0  0  0  0
   10.4522    3.8217  -60.7765 H   0  0  0  0  0  0  0  0  0  0  0  0
    9.9049    5.5326  -60.7765 H   0  0  0  0  0  0  0  0  0  0  0  0
  1  2  1  0
  2  3  2  0
  2  4  1  0
  4  5  1  0
  5  6  1  0
  6  7  1  0
  7  8  1  0
  8  9  1  0
  9 10  1  0
 10 11  2  0
 10 12  1  0
 12 13  2  0
 13 14  1  0
 14 15  1  0
 14 16  1  0
 16 17  2  0
 17 18  1  0
 18 19  1  0
 19 20  1  0
 20 21  1  0
  8 22  1  0
 22 23  2  0
 22 24  1  0
 24 25  1  0
 25 26  1  0
 26 27  1  0
 27 28  1  0
 28 29  1  0
 28 30  1  0
 28  5  1  0
 24  6  1  0
 17 12  1  0
 21 16  1  0
  1 31  1  0
  1 32  1  0
  1 33  1  0
  5 34  1  1
  6 35  1  1
  7 36  1  0
  7 37  1  0
  8 38  1  1
  9 39  1  0
 13 40  1  0
 15 41  1  0
 15 42  1  0
 15 43  1  0
 18 44  1  0
 18 45  1  0
 19 46  1  0
 19 47  1  0
 20 48  1  0
 20 49  1  0
 21 50  1  0
 21 51  1  0
 24 52  1  6
 25 53  1  0
 25 54  1  0
 26 55  1  0
 26 56  1  0
 27 57  1  0
 27 58  1  0
 29 59  1  0
 29 60  1  0
 29 61  1  0
 30 62  1  0
 30 63  1  0
 30 64  1  0
M  END
>  <meeko>  (21) 
{"is_sidechain": false}

$$$$

     RDKit          3D

 52 56  0  0  0  0  0  0  0  0999 V2000
    6.2520   -0.0300  -53.6700 C   0  0  0  0  0  0  0  0  0  0  0  0
    7.6380   -0.4760  -53.9720 C   0  0  0  0  0  0  0  0  0  0  0  0
    8.5100    0.0900  -54.9530 C   0  0  0  0  0  0  0  0  0  0  0  0
    8.2290    1.1920  -55.8960 C   0  0  0  0  0  0  0  0  0  0  0  0
    7.0960    1.5900  -56.1420 O   0  0  0  0  0  0  0  0  0  0  0  0
    9.3760    1.7050  -56.4630 N   0  0  0  0  0  0  0  0  0  0  0  0
    9.4490    2.7870  -57.4380 C   0  0  2  0  0  0  0  0  0  0  0  0
    8.5610    2.5010  -58.6740 C   0  0  0  0  0  0  0  0  0  0  0  0
    8.6930    3.6320  -59.7090 C   0  0  1  0  0  0  0  0  0  0  0  0
    8.2670    4.9620  -59.0630 C   0  0  0  0  0  0  0  0  0  0  0  0
    9.1640    5.2750  -57.8550 C   0  0  2  0  0  0  0  0  0  0  0  0
   10.6260    5.3700  -58.3190 C   0  0  0  0  0  0  0  0  0  0  0  0
   11.0610    4.0410  -58.9580 C   0  0  2  0  0  0  0  0  0  0  0  0
   10.1580    3.7370  -60.1630 C   0  0  0  0  0  0  0  0  0  0  0  0
   10.9180    2.9140  -57.9230 C   0  0  0  0  0  0  0  0  0  0  0  0
    9.0330    4.1440  -56.8190 C   0  0  0  0  0  0  0  0  0  0  0  0
    9.7110   -0.5210  -54.9460 N   0  0  0  0  0  0  0  0  0  0  0  0
    9.6050   -1.4530  -53.9760 N   0  0  0  0  0  0  0  0  0  0  0  0
   10.7460   -2.3010  -53.7110 C   0  0  0  0  0  0  0  0  0  0  0  0
    8.3690   -1.5010  -53.3790 C   0  0  0  0  0  0  0  0  0  0  0  0
    8.0060   -2.4630  -52.3410 C   0  0  0  0  0  0  0  0  0  0  0  0
    8.1280   -2.1700  -50.9880 C   0  0  0  0  0  0  0  0  0  0  0  0
    7.7680   -3.1410  -50.0580 C   0  0  0  0  0  0  0  0  0  0  0  0
    7.2990   -4.3700  -50.5060 C   0  0  0  0  0  0  0  0  0  0  0  0
    7.2030   -4.5740  -51.8720 C   0  0  0  0  0  0  0  0  0  0  0  0
    7.5390   -3.6470  -52.7980 N   0  0  0  0  0  0  0  0  0  0  0  0
    6.1107    0.0155  -52.5801 H   0  0  0  0  0  0  0  0  0  0  0  0
    6.0851    0.9672  -54.1033 H   0  0  0  0  0  0  0  0  0  0  0  0
    5.5349   -0.7427  -54.1033 H   0  0  0  0  0  0  0  0  0  0  0  0
   10.2260    1.2400  -56.1490 H   0  0  0  0  0  0  0  0  0  0  0  0
    8.8754    1.5522  -59.1332 H   0  0  0  0  0  0  0  0  0  0  0  0
    7.5118    2.4376  -58.3498 H   0  0  0  0  0  0  0  0  0  0  0  0
    8.0510    3.4170  -60.5759 H   0  0  0  0  0  0  0  0  0  0  0  0
    8.3579    5.7711  -59.8027 H   0  0  0  0  0  0  0  0  0  0  0  0
    7.2237    4.8792  -58.7242 H   0  0  0  0  0  0  0  0  0  0  0  0
    8.8563    6.2295  -57.4031 H   0  0  0  0  0  0  0  0  0  0  0  0
   10.7219    6.1786  -59.0585 H   0  0  0  0  0  0  0  0  0  0  0  0
   11.2679    5.5810  -57.4510 H   0  0  0  0  0  0  0  0  0  0  0  0
   12.1076    4.1136  -59.2888 H   0  0  0  0  0  0  0  0  0  0  0  0
   10.2531    4.5456  -60.9026 H   0  0  0  0  0  0  0  0  0  0  0  0
   10.4659    2.7817  -60.6130 H   0  0  0  0  0  0  0  0  0  0  0  0
   11.2290    1.9635  -58.3810 H   0  0  0  0  0  0  0  0  0  0  0  0
   11.5536    3.1508  -57.0570 H   0  0  0  0  0  0  0  0  0  0  0  0
    9.6834    4.3639  -55.9596 H   0  0  0  0  0  0  0  0  0  0  0  0
    7.9837    4.0793  -56.4954 H   0  0  0  0  0  0  0  0  0  0  0  0
   10.8828   -2.4026  -52.6243 H   0  0  0  0  0  0  0  0  0  0  0  0
   10.5758   -3.2936  -54.1536 H   0  0  0  0  0  0  0  0  0  0  0  0
   11.6473   -1.8518  -54.1536 H   0  0  0  0  0  0  0  0  0  0  0  0
    8.5019   -1.1894  -50.6583 H   0  0  0  0  0  0  0  0  0  0  0  0
    7.8538   -2.9378  -48.9803 H   0  0  0  0  0  0  0  0  0  0  0  0
    7.0120   -5.1588  -49.7951 H   0  0  0  0  0  0  0  0  0  0  0  0
    6.8316   -5.5473  -52.2251 H   0  0  0  0  0  0  0  0  0  0  0  0
  1  2  1  0
  2  3  1  0
  3  4  1  0
  4  5  2  0
  4  6  1  0
  7  6  1  1
  7  8  1  0
  8  9  1  0
  9 10  1  0
 10 11  1  0
 11 12  1  0
 12 13  1  0
 13 14  1  0
 13 15  1  0
 11 16  1  0
  3 17  2  0
 17 18  1  0
 18 19  1  0
 18 20  1  0
 20 21  1  0
 21 22  2  0
 22 23  1  0
 23 24  2  0
 24 25  1  0
 25 26  2  0
 20  2  2  0
 26 21  1  0
 15  7  1  0
 16  7  1  0
 14  9  1  0
  1 27  1  0
  1 28  1  0
  1 29  1  0
  6 30  1  0
  8 31  1  0
  8 32  1  0
  9 33  1  6
 10 34  1  0
 10 35  1  0
 11 36  1  1
 12 37  1  0
 12 38  1  0
 13 39  1  6
 14 40  1  0
 14 41  1  0
 15 42  1  0
 15 43  1  0
 16 44  1  0
 16 45  1  0
 19 46  1  0
 19 47  1  0
 19 48  1  0
 22 49  1  0
 23 50  1  0
 24 51  1  0
 25 52  1  0
M  END
>  <meeko>  (22) 
{"is_sidechain": false}

$$$$

     RDKit          3D

 53 57  0  0  0  0  0  0  0  0999 V2000
   11.1930   -3.5010  -54.9290 C   0  0  0  0  0  0  0  0  0  0  0  0
   10.6520   -2.1740  -55.1350 N   0  0  0  0  0  0  0  0  0  0  0  0
   11.1660   -1.2650  -56.0290 C   0  0  0  0  0  0  0  0  0  0  0  0
   10.4430   -0.0840  -55.9300 C   0  0  0  0  0  0  0  0  0  0  0  0
   10.6310    1.1480  -56.7000 C   0  0  0  0  0  0  0  0  0  0  0  0
   11.7360    1.6630  -56.8390 O   0  0  0  0  0  0  0  0  0  0  0  0
    9.4770    1.6610  -57.2610 N   0  0  0  0  0  0  0  0  0  0  0  0
    9.4230    2.8300  -58.1430 C   0  0  2  0  0  0  0  0  0  0  0  0
    9.9970    2.5140  -59.5450 C   0  0  0  0  0  0  0  0  0  0  0  0
    9.8750    3.7390  -60.4680 C   0  0  1  0  0  0  0  0  0  0  0  0
    8.3930    4.1210  -60.6140 C   0  0  0  0  0  0  0  0  0  0  0  0
    7.8010    4.4610  -59.2370 C   0  0  2  0  0  0  0  0  0  0  0  0
    8.5750    5.6400  -58.6290 C   0  0  0  0  0  0  0  0  0  0  0  0
   10.0580    5.2670  -58.4700 C   0  0  2  0  0  0  0  0  0  0  0  0
   10.6430    4.9190  -59.8500 C   0  0  0  0  0  0  0  0  0  0  0  0
   10.1790    4.0440  -57.5450 C   0  0  0  0  0  0  0  0  0  0  0  0
    7.9340    3.2390  -58.3140 C   0  0  0  0  0  0  0  0  0  0  0  0
    9.4540   -0.3320  -54.9350 C   0  0  0  0  0  0  0  0  0  0  0  0
    8.5270    0.5520  -54.5170 N   0  0  0  0  0  0  0  0  0  0  0  0
    9.5790   -1.6260  -54.4620 C   0  0  0  0  0  0  0  0  0  0  0  0
    8.8040   -2.3300  -53.4410 C   0  0  0  0  0  0  0  0  0  0  0  0
    7.6010   -2.9650  -53.7690 C   0  0  0  0  0  0  0  0  0  0  0  0
    6.8650   -3.6340  -52.7870 C   0  0  0  0  0  0  0  0  0  0  0  0
    7.3310   -3.6640  -51.4730 C   0  0  0  0  0  0  0  0  0  0  0  0
    6.4260   -4.4890  -50.2650 Cl  0  0  0  0  0  0  0  0  0  0  0  0
    8.5220   -3.0270  -51.1320 C   0  0  0  0  0  0  0  0  0  0  0  0
    9.2560   -2.3580  -52.1150 C   0  0  0  0  0  0  0  0  0  0  0  0
   11.2743   -3.7004  -53.8503 H   0  0  0  0  0  0  0  0  0  0  0  0
   10.5262   -4.2445  -55.3901 H   0  0  0  0  0  0  0  0  0  0  0  0
   12.1896   -3.5663  -55.3901 H   0  0  0  0  0  0  0  0  0  0  0  0
   12.0108   -1.4439  -56.7104 H   0  0  0  0  0  0  0  0  0  0  0  0
    8.6690    1.0580  -57.2440 H   0  0  0  0  0  0  0  0  0  0  0  0
   11.0575    2.2385  -59.4479 H   0  0  0  0  0  0  0  0  0  0  0  0
    9.4265    1.6816  -59.9827 H   0  0  0  0  0  0  0  0  0  0  0  0
   10.2947    3.4995  -61.4562 H   0  0  0  0  0  0  0  0  0  0  0  0
    8.3055    4.9962  -61.2745 H   0  0  0  0  0  0  0  0  0  0  0  0
    7.8416    3.2724  -61.0451 H   0  0  0  0  0  0  0  0  0  0  0  0
    6.7403    4.7312  -59.3461 H   0  0  0  0  0  0  0  0  0  0  0  0
    8.4878    6.5138  -59.2915 H   0  0  0  0  0  0  0  0  0  0  0  0
    8.1539    5.8784  -57.6411 H   0  0  0  0  0  0  0  0  0  0  0  0
   10.6085    6.1146  -58.0358 H   0  0  0  0  0  0  0  0  0  0  0  0
   10.5594    5.7938  -60.5116 H   0  0  0  0  0  0  0  0  0  0  0  0
   11.7000    4.6381  -59.7322 H   0  0  0  0  0  0  0  0  0  0  0  0
   11.2414    3.7850  -57.4254 H   0  0  0  0  0  0  0  0  0  0  0  0
    9.7354    4.2922  -56.5695 H   0  0  0  0  0  0  0  0  0  0  0  0
    7.5131    3.4854  -57.3280 H   0  0  0  0  0  0  0  0  0  0  0  0
    7.3890    2.3973  -58.7662 H   0  0  0  0  0  0  0  0  0  0  0  0
    8.5280    1.5000  -54.8800 H   0  0  0  0  0  0  0  0  0  0  0  0
    8.2200    0.4990  -53.5420 H   0  0  0  0  0  0  0  0  0  0  0  0
    7.2326   -2.9375  -54.8051 H   0  0  0  0  0  0  0  0  0  0  0  0
    5.9216   -4.1350  -53.0497 H   0  0  0  0  0  0  0  0  0  0  0  0
    8.8832   -3.0505  -50.0932 H   0  0  0  0  0  0  0  0  0  0  0  0
   10.1941   -1.8504  -51.8463 H   0  0  0  0  0  0  0  0  0  0  0  0
  1  2  1  0
  2  3  1  0
  3  4  2  0
  4  5  1  0
  5  6  2  0
  5  7  1  0
  8  7  1  1
  8  9  1  0
  9 10  1  0
 10 11  1  0
 11 12  1  0
 12 13  1  0
 13 14  1  0
 14 15  1  0
 14 16  1  0
 12 17  1  0
  4 18  1  0
 18 19  1  0
 18 20  2  0
 20 21  1  0
 21 22  1  0
 22 23  2  0
 23 24  1  0
 24 25  1  0
 24 26  2  0
 26 27  1  0
 20  2  1  0
 27 21  2  0
 16  8  1  0
 17  8  1  0
 15 10  1  0
  1 28  1  0
  1 29  1  0
  1 30  1  0
  3 31  1  0
  7 32  1  0
  9 33  1  0
  9 34  1  0
 10 35  1  6
 11 36  1  0
 11 37  1  0
 12 38  1  6
 13 39  1  0
 13 40  1  0
 14 41  1  1
 15 42  1  0
 15 43  1  0
 16 44  1  0
 16 45  1  0
 17 46  1  0
 17 47  1  0
 19 48  1  0
 19 49  1  0
 22 50  1  0
 23 51  1  0
 26 52  1  0
 27 53  1  0
M  END
>  <meeko>  (23) 
{"is_sidechain": false}

$$$$

     RDKit          3D

 47 51  0  0  0  0  0  0  0  0999 V2000
    9.9080    2.1100  -55.4370 O   0  0  0  0  0  0  0  0  0  0  0  0
    8.8750    1.5680  -55.8090 C   0  0  0  0  0  0  0  0  0  0  0  0
    8.1770    1.9030  -56.9480 N   0  0  0  0  0  0  0  0  0  0  0  0
    8.5430    2.9400  -57.9090 C   0  0  2  0  0  0  0  0  0  0  0  0
    9.9080    2.6420  -58.5770 C   0  0  0  0  0  0  0  0  0  0  0  0
   10.2490    3.7230  -59.6180 C   0  0  1  0  0  0  0  0  0  0  0  0
    9.1600    3.7440  -60.7030 C   0  0  0  0  0  0  0  0  0  0  0  0
    7.7950    4.0590  -60.0700 C   0  0  2  0  0  0  0  0  0  0  0  0
    7.8580    5.4300  -59.3800 C   0  0  0  0  0  0  0  0  0  0  0  0
    8.9400    5.4190  -58.2880 C   0  0  2  0  0  0  0  0  0  0  0  0
   10.3020    5.0940  -58.9260 C   0  0  0  0  0  0  0  0  0  0  0  0
    8.6000    4.3390  -57.2460 C   0  0  0  0  0  0  0  0  0  0  0  0
    7.4640    2.9830  -59.0230 C   0  0  0  0  0  0  0  0  0  0  0  0
    8.2500    0.4650  -55.0610 C   0  0  0  0  0  0  0  0  0  0  0  0
    6.9820   -0.1060  -55.3020 C   0  0  0  0  0  0  0  0  0  0  0  0
    6.8630   -1.0980  -54.3700 C   0  0  0  0  0  0  0  0  0  0  0  0
    5.8550   -1.9800  -54.3390 F   0  0  0  0  0  0  0  0  0  0  0  0
    7.9810   -1.0660  -53.5670 N   0  0  0  0  0  0  0  0  0  0  0  0
    8.3180   -1.8740  -52.4470 C   0  0  0  0  0  0  0  0  0  0  0  0
    7.4320   -1.8570  -51.3490 C   0  0  0  0  0  0  0  0  0  0  0  0
    7.7140   -2.5740  -50.1840 C   0  0  0  0  0  0  0  0  0  0  0  0
    8.8750   -3.3320  -50.1040 C   0  0  0  0  0  0  0  0  0  0  0  0
    9.7400   -3.3920  -51.1960 C   0  0  0  0  0  0  0  0  0  0  0  0
    9.4650   -2.6780  -52.3740 C   0  0  0  0  0  0  0  0  0  0  0  0
   10.5150   -3.0230  -53.7030 Cl  0  0  0  0  0  0  0  0  0  0  0  0
    8.8820   -0.1490  -54.0380 N   0  0  0  0  0  0  0  0  0  0  0  0
    7.3460    1.3380  -57.1100 H   0  0  0  0  0  0  0  0  0  0  0  0
   10.6917    2.6232  -57.8053 H   0  0  0  0  0  0  0  0  0  0  0  0
    9.8496    1.6674  -59.0838 H   0  0  0  0  0  0  0  0  0  0  0  0
   11.2241    3.5015  -60.0764 H   0  0  0  0  0  0  0  0  0  0  0  0
    9.4029    4.5156  -61.4484 H   0  0  0  0  0  0  0  0  0  0  0  0
    9.1145    2.7581  -61.1888 H   0  0  0  0  0  0  0  0  0  0  0  0
    7.0198    4.0724  -60.8503 H   0  0  0  0  0  0  0  0  0  0  0  0
    8.1001    6.2022  -60.1251 H   0  0  0  0  0  0  0  0  0  0  0  0
    6.8828    5.6484  -58.9203 H   0  0  0  0  0  0  0  0  0  0  0  0
    8.9831    6.4044  -57.8009 H   0  0  0  0  0  0  0  0  0  0  0  0
   10.5492    5.8668  -59.6687 H   0  0  0  0  0  0  0  0  0  0  0  0
   11.0707    5.0701  -58.1396 H   0  0  0  0  0  0  0  0  0  0  0  0
    9.3723    4.3366  -56.4627 H   0  0  0  0  0  0  0  0  0  0  0  0
    7.6159    4.5648  -56.8095 H   0  0  0  0  0  0  0  0  0  0  0  0
    6.4879    3.2105  -58.5697 H   0  0  0  0  0  0  0  0  0  0  0  0
    7.4379    2.0037  -59.5233 H   0  0  0  0  0  0  0  0  0  0  0  0
    6.2506    0.1838  -56.0708 H   0  0  0  0  0  0  0  0  0  0  0  0
    6.5041   -1.2695  -51.4115 H   0  0  0  0  0  0  0  0  0  0  0  0
    7.0186   -2.5384  -49.3324 H   0  0  0  0  0  0  0  0  0  0  0  0
    9.1114   -3.8833  -49.1820 H   0  0  0  0  0  0  0  0  0  0  0  0
   10.6501   -4.0068  -51.1341 H   0  0  0  0  0  0  0  0  0  0  0  0
  1  2  2  0
  2  3  1  0
  4  3  1  1
  4  5  1  0
  5  6  1  0
  6  7  1  0
  7  8  1  0
  8  9  1  0
  9 10  1  0
 10 11  1  0
 10 12  1  0
  8 13  1  0
  2 14  1  0
 14 15  1  0
 15 16  2  0
 16 17  1  0
 16 18  1  0
 18 19  1  0
 19 20  2  0
 20 21  1  0
 21 22  2  0
 22 23  1  0
 23 24  2  0
 24 25  1  0
 18 26  1  0
 12  4  1  0
 26 14  2  0
 13  4  1  0
 24 19  1  0
 11  6  1  0
  3 27  1  0
  5 28  1  0
  5 29  1  0
  6 30  1  6
  7 31  1  0
  7 32  1  0
  8 33  1  6
  9 34  1  0
  9 35  1  0
 10 36  1  1
 11 37  1  0
 11 38  1  0
 12 39  1  0
 12 40  1  0
 13 41  1  0
 13 42  1  0
 15 43  1  0
 20 44  1  0
 21 45  1  0
 22 46  1  0
 23 47  1  0
M  END
>  <meeko>  (24) 
{"is_sidechain": false}

$$$$

     RDKit          3D

 53 57  0  0  0  0  0  0  0  0999 V2000
    6.5850    2.1400  -56.4130 O   0  0  0  0  0  0  0  0  0  0  0  0
    7.6550    1.5690  -56.2430 C   0  0  0  0  0  0  0  0  0  0  0  0
    8.8450    1.9170  -56.8380 N   0  0  0  0  0  0  0  0  0  0  0  0
    9.0010    3.0340  -57.7840 C   0  0  2  0  0  0  0  0  0  0  0  0
    7.8730    3.0420  -58.8460 C   0  0  0  0  0  0  0  0  0  0  0  0
    8.0880    4.1860  -59.8550 C   0  0  1  0  0  0  0  0  0  0  0  0
    8.1010    5.5280  -59.1030 C   0  0  0  0  0  0  0  0  0  0  0  0
    9.2410    5.5460  -58.0710 C   0  0  2  0  0  0  0  0  0  0  0  0
   10.5830    5.3430  -58.7930 C   0  0  0  0  0  0  0  0  0  0  0  0
   10.5780    3.9990  -59.5380 C   0  0  2  0  0  0  0  0  0  0  0  0
    9.4360    3.9890  -60.5650 C   0  0  0  0  0  0  0  0  0  0  0  0
   10.3550    2.8630  -58.5260 C   0  0  0  0  0  0  0  0  0  0  0  0
    9.0280    4.4050  -57.0610 C   0  0  0  0  0  0  0  0  0  0  0  0
    7.6550    0.3930  -55.3430 C   0  0  0  0  0  0  0  0  0  0  0  0
    6.5100   -0.1580  -54.7720 C   0  0  0  0  0  0  0  0  0  0  0  0
    6.6310   -1.2850  -53.9610 C   0  0  0  0  0  0  0  0  0  0  0  0
    7.8860   -1.8460  -53.7420 C   0  0  0  0  0  0  0  0  0  0  0  0
    8.9880   -1.3070  -54.3120 N   0  0  0  0  0  0  0  0  0  0  0  0
   10.3210   -1.9220  -54.0830 C   0  0  0  0  0  0  0  0  0  0  0  0
   10.7380   -2.7530  -55.2600 C   0  0  0  0  0  0  0  0  0  0  0  0
   10.3640   -4.0980  -55.3810 C   0  0  0  0  0  0  0  0  0  0  0  0
   10.7600   -4.8360  -56.5010 C   0  0  0  0  0  0  0  0  0  0  0  0
   11.5260   -4.2410  -57.5040 C   0  0  0  0  0  0  0  0  0  0  0  0
   11.9020   -2.9050  -57.3920 C   0  0  0  0  0  0  0  0  0  0  0  0
   11.5060   -2.1770  -56.2760 C   0  0  0  0  0  0  0  0  0  0  0  0
   11.8620   -0.8890  -56.1750 F   0  0  0  0  0  0  0  0  0  0  0  0
    8.8900   -0.2110  -55.1030 C   0  0  0  0  0  0  0  0  0  0  0  0
    9.6280    1.2800  -56.7880 H   0  0  0  0  0  0  0  0  0  0  0  0
    7.8743    2.0816  -59.3823 H   0  0  0  0  0  0  0  0  0  0  0  0
    6.9087    3.1925  -58.3387 H   0  0  0  0  0  0  0  0  0  0  0  0
    7.2758    4.1844  -60.5968 H   0  0  0  0  0  0  0  0  0  0  0  0
    8.2491    6.3466  -59.8227 H   0  0  0  0  0  0  0  0  0  0  0  0
    7.1414    5.6568  -58.5809 H   0  0  0  0  0  0  0  0  0  0  0  0
    9.2484    6.5110  -57.5431 H   0  0  0  0  0  0  0  0  0  0  0  0
   10.7363    6.1593  -59.5143 H   0  0  0  0  0  0  0  0  0  0  0  0
   11.3964    5.3436  -58.0525 H   0  0  0  0  0  0  0  0  0  0  0  0
   11.5397    3.8585  -60.0532 H   0  0  0  0  0  0  0  0  0  0  0  0
    9.5893    4.8038  -61.2879 H   0  0  0  0  0  0  0  0  0  0  0  0
    9.4300    3.0215  -61.0884 H   0  0  0  0  0  0  0  0  0  0  0  0
   10.3533    1.9012  -59.0599 H   0  0  0  0  0  0  0  0  0  0  0  0
   11.1665    2.8914  -57.7839 H   0  0  0  0  0  0  0  0  0  0  0  0
    9.8495    4.4118  -56.3295 H   0  0  0  0  0  0  0  0  0  0  0  0
    8.0644    4.5568  -56.5527 H   0  0  0  0  0  0  0  0  0  0  0  0
    5.5232    0.2906  -54.9588 H   0  0  0  0  0  0  0  0  0  0  0  0
    5.7386   -1.7293  -53.4960 H   0  0  0  0  0  0  0  0  0  0  0  0
    7.9823   -2.7344  -53.1005 H   0  0  0  0  0  0  0  0  0  0  0  0
   11.0625   -1.1251  -53.9243 H   0  0  0  0  0  0  0  0  0  0  0  0
   10.2598   -2.5727  -53.1982 H   0  0  0  0  0  0  0  0  0  0  0  0
    9.7589   -4.5734  -54.5950 H   0  0  0  0  0  0  0  0  0  0  0  0
   10.4658   -5.8920  -56.5917 H   0  0  0  0  0  0  0  0  0  0  0  0
   11.8327   -4.8271  -58.3829 H   0  0  0  0  0  0  0  0  0  0  0  0
   12.5065   -2.4303  -58.1789 H   0  0  0  0  0  0  0  0  0  0  0  0
    9.7970    0.2086  -55.5626 H   0  0  0  0  0  0  0  0  0  0  0  0
  1  2  2  0
  2  3  1  0
  4  3  1  1
  4  5  1  0
  5  6  1  0
  6  7  1  0
  7  8  1  0
  8  9  1  0
  9 10  1  0
 10 11  1  0
 10 12  1  0
  8 13  1  0
  2 14  1  0
 14 15  1  0
 15 16  2  0
 16 17  1  0
 17 18  2  0
 18 19  1  0
 19 20  1  0
 20 21  2  0
 21 22  1  0
 22 23  2  0
 23 24  1  0
 24 25  2  0
 25 26  1  0
 18 27  1  0
 12  4  1  0
 27 14  2  0
 13  4  1  0
 25 20  1  0
 11  6  1  0
  3 28  1  0
  5 29  1  0
  5 30  1  0
  6 31  1  6
  7 32  1  0
  7 33  1  0
  8 34  1  1
  9 35  1  0
  9 36  1  0
 10 37  1  6
 11 38  1  0
 11 39  1  0
 12 40  1  0
 12 41  1  0
 13 42  1  0
 13 43  1  0
 15 44  1  0
 16 45  1  0
 17 46  1  0
 19 47  1  0
 19 48  1  0
 21 49  1  0
 22 50  1  0
 23 51  1  0
 24 52  1  0
 27 53  1  0
M  CHG  1  18   1
M  END
>  <meeko>  (25) 
{"is_sidechain": false}

$$$$

     RDKit          3D

 48 51  0  0  0  0  0  0  0  0999 V2000
    7.5140    1.1120  -56.6320 O   0  0  0  0  0  0  0  0  0  0  0  0
    8.5760    1.5140  -56.1700 C   0  0  0  0  0  0  0  0  0  0  0  0
    9.2050    0.9840  -55.0630 N   0  0  0  0  0  0  0  0  0  0  0  0
    8.7570   -0.0760  -54.2550 C   0  0  0  0  0  0  0  0  0  0  0  0
    7.8300   -0.0050  -53.1930 C   0  0  0  0  0  0  0  0  0  0  0  0
    7.4320   -1.1440  -52.4160 C   0  0  0  0  0  0  0  0  0  0  0  0
    7.9180   -2.4520  -52.6210 C   0  0  0  0  0  0  0  0  0  0  0  0
    8.8270   -2.4810  -53.6690 C   0  0  0  0  0  0  0  0  0  0  0  0
    9.4810   -3.5900  -54.1250 C   0  0  0  0  0  0  0  0  0  0  0  0
   10.2730   -3.1570  -55.1690 N   0  0  0  0  0  0  0  0  0  0  0  0
   11.1490   -3.9390  -55.9780 C   0  0  0  0  0  0  0  0  0  0  0  0
   11.9980   -4.9030  -55.4140 C   0  0  0  0  0  0  0  0  0  0  0  0
   12.8450   -5.6550  -56.2320 C   0  0  0  0  0  0  0  0  0  0  0  0
   12.8520   -5.4530  -57.6120 C   0  0  0  0  0  0  0  0  0  0  0  0
   12.0120   -4.5000  -58.1800 C   0  0  0  0  0  0  0  0  0  0  0  0
   11.1620   -3.7440  -57.3690 C   0  0  0  0  0  0  0  0  0  0  0  0
   10.1490   -1.8150  -55.3870 N   0  0  0  0  0  0  0  0  0  0  0  0
    9.2590   -1.3800  -54.4770 C   0  0  0  0  0  0  0  0  0  0  0  0
    9.2580    2.6580  -56.8320 C   0  0  0  0  0  0  0  0  0  0  0  0
    8.5890    3.8360  -57.1610 C   0  0  0  0  0  0  0  0  0  0  0  0
    7.2810    3.9770  -56.8960 F   0  0  0  0  0  0  0  0  0  0  0  0
    9.2550    4.9060  -57.7680 C   0  0  0  0  0  0  0  0  0  0  0  0
    8.5440    6.0120  -58.0370 F   0  0  0  0  0  0  0  0  0  0  0  0
   10.6150    4.8350  -58.0960 C   0  0  0  0  0  0  0  0  0  0  0  0
   11.3700    5.8960  -58.6260 N   0  0  0  0  0  0  0  0  0  0  0  0
   11.8360    5.8260  -60.0150 C   0  0  0  0  0  0  0  0  0  0  0  0
   13.0330    6.7700  -60.1930 C   0  0  0  0  0  0  0  0  0  0  0  0
   12.6540    7.8780  -61.0130 O   0  0  0  0  0  0  0  0  0  0  0  0
   11.2790    3.6510  -57.7330 C   0  0  0  0  0  0  0  0  0  0  0  0
   12.5910    3.5350  -57.9990 F   0  0  0  0  0  0  0  0  0  0  0  0
   10.6190    2.5810  -57.1250 C   0  0  0  0  0  0  0  0  0  0  0  0
   11.3310    1.4760  -56.8570 F   0  0  0  0  0  0  0  0  0  0  0  0
   10.1120    1.3470  -54.7720 H   0  0  0  0  0  0  0  0  0  0  0  0
    7.3902    0.9732  -52.9485 H   0  0  0  0  0  0  0  0  0  0  0  0
    6.7012   -0.9868  -51.6090 H   0  0  0  0  0  0  0  0  0  0  0  0
    7.6173   -3.3299  -52.0303 H   0  0  0  0  0  0  0  0  0  0  0  0
    9.3943   -4.6166  -53.7396 H   0  0  0  0  0  0  0  0  0  0  0  0
   11.9968   -5.0670  -54.3263 H   0  0  0  0  0  0  0  0  0  0  0  0
   13.5093   -6.4097  -55.7857 H   0  0  0  0  0  0  0  0  0  0  0  0
   13.5215   -6.0470  -58.2514 H   0  0  0  0  0  0  0  0  0  0  0  0
   12.0173   -4.3418  -59.2685 H   0  0  0  0  0  0  0  0  0  0  0  0
   10.4993   -2.9920  -57.8222 H   0  0  0  0  0  0  0  0  0  0  0  0
   12.1410    6.1500  -57.9990 H   0  0  0  0  0  0  0  0  0  0  0  0
   12.1418    4.7956  -60.2491 H   0  0  0  0  0  0  0  0  0  0  0  0
   11.0238    6.1265  -60.6933 H   0  0  0  0  0  0  0  0  0  0  0  0
   13.3584    7.1378  -59.2087 H   0  0  0  0  0  0  0  0  0  0  0  0
   13.8584    6.2254  -60.6747 H   0  0  0  0  0  0  0  0  0  0  0  0
   12.9900    8.6800  -60.5740 H   0  0  0  0  0  0  0  0  0  0  0  0
  1  2  2  0
  2  3  1  0
  3  4  1  0
  4  5  2  0
  5  6  1  0
  6  7  2  0
  7  8  1  0
  8  9  2  0
  9 10  1  0
 10 11  1  0
 11 12  2  0
 12 13  1  0
 13 14  2  0
 14 15  1  0
 15 16  2  0
 10 17  1  0
 17 18  2  0
  2 19  1  0
 19 20  1  0
 20 21  1  0
 20 22  2  0
 22 23  1  0
 22 24  1  0
 24 25  1  0
 25 26  1  0
 26 27  1  0
 27 28  1  0
 24 29  2  0
 29 30  1  0
 29 31  1  0
 31 32  1  0
 18  4  1  0
 31 19  2  0
 18  8  1  0
 16 11  1  0
  3 33  1  0
  5 34  1  0
  6 35  1  0
  7 36  1  0
  9 37  1  0
 12 38  1  0
 13 39  1  0
 14 40  1  0
 15 41  1  0
 16 42  1  0
 25 43  1  0
 26 44  1  0
 26 45  1  0
 27 46  1  0
 27 47  1  0
 28 48  1  0
M  END
>  <meeko>  (26) 
{"is_sidechain": false}

$$$$

     RDKit          3D

 48 52  0  0  0  0  0  0  0  0999 V2000
    7.5430    1.0380  -56.6130 O   0  0  0  0  0  0  0  0  0  0  0  0
    8.5410    1.5090  -56.0810 C   0  0  0  0  0  0  0  0  0  0  0  0
    9.1000    1.0580  -54.9040 N   0  0  0  0  0  0  0  0  0  0  0  0
    8.6680   -0.0240  -54.1160 C   0  0  0  0  0  0  0  0  0  0  0  0
    7.7950    0.0250  -53.0090 C   0  0  0  0  0  0  0  0  0  0  0  0
    7.4050   -1.1360  -52.2610 C   0  0  0  0  0  0  0  0  0  0  0  0
    7.8450   -2.4460  -52.5440 C   0  0  0  0  0  0  0  0  0  0  0  0
    8.6990   -2.4530  -53.6380 C   0  0  0  0  0  0  0  0  0  0  0  0
    9.2990   -3.5570  -54.1710 C   0  0  0  0  0  0  0  0  0  0  0  0
   10.0520   -3.0990  -55.2330 N   0  0  0  0  0  0  0  0  0  0  0  0
   10.8720   -3.8650  -56.1140 C   0  0  0  0  0  0  0  0  0  0  0  0
   11.5230   -3.2240  -57.1830 C   0  0  0  0  0  0  0  0  0  0  0  0
   12.3310   -3.9540  -58.0570 C   0  0  0  0  0  0  0  0  0  0  0  0
   12.4880   -5.3200  -57.8650 C   0  0  0  0  0  0  0  0  0  0  0  0
   13.2620   -6.0220  -58.7030 F   0  0  0  0  0  0  0  0  0  0  0  0
   11.8530   -5.9720  -56.8130 C   0  0  0  0  0  0  0  0  0  0  0  0
   11.0420   -5.2470  -55.9330 C   0  0  0  0  0  0  0  0  0  0  0  0
    9.9470   -1.7480  -55.3940 N   0  0  0  0  0  0  0  0  0  0  0  0
    9.1210   -1.3290  -54.4190 C   0  0  0  0  0  0  0  0  0  0  0  0
    9.2170    2.6640  -56.7290 C   0  0  0  0  0  0  0  0  0  0  0  0
    8.5340    3.8280  -57.0690 C   0  0  0  0  0  0  0  0  0  0  0  0
    7.2260    3.9650  -56.7970 F   0  0  0  0  0  0  0  0  0  0  0  0
    9.1920    4.8830  -57.7000 C   0  0  0  0  0  0  0  0  0  0  0  0
    8.4980    5.9900  -58.0110 F   0  0  0  0  0  0  0  0  0  0  0  0
   10.5520    4.8170  -58.0340 C   0  0  0  0  0  0  0  0  0  0  0  0
   11.1640    5.9520  -58.6210 N   0  0  0  0  0  0  0  0  0  0  0  0
   11.9450    5.8520  -59.8510 C   0  0  0  0  0  0  0  0  0  0  0  0
   13.4350    6.0430  -59.8220 C   0  0  0  0  0  0  0  0  0  0  0  0
   12.5610    7.0670  -60.4840 C   0  0  0  0  0  0  0  0  0  0  0  0
   11.2360    3.6520  -57.6620 C   0  0  0  0  0  0  0  0  0  0  0  0
   12.5510    3.5260  -57.8940 F   0  0  0  0  0  0  0  0  0  0  0  0
   10.5790    2.5910  -57.0300 C   0  0  0  0  0  0  0  0  0  0  0  0
   11.3070    1.5170  -56.6910 F   0  0  0  0  0  0  0  0  0  0  0  0
    9.9020    1.5430  -54.5040 H   0  0  0  0  0  0  0  0  0  0  0  0
    7.3929    1.0023  -52.7038 H   0  0  0  0  0  0  0  0  0  0  0  0
    6.7190   -0.9953  -51.4127 H   0  0  0  0  0  0  0  0  0  0  0  0
    7.5512   -3.3404  -51.9750 H   0  0  0  0  0  0  0  0  0  0  0  0
    9.2024   -4.5969  -53.8255 H   0  0  0  0  0  0  0  0  0  0  0  0
   11.3950   -2.1416  -57.3315 H   0  0  0  0  0  0  0  0  0  0  0  0
   12.8397   -3.4502  -58.8921 H   0  0  0  0  0  0  0  0  0  0  0  0
   11.9881   -7.0547  -56.6733 H   0  0  0  0  0  0  0  0  0  0  0  0
   10.5381   -5.7592  -55.1001 H   0  0  0  0  0  0  0  0  0  0  0  0
   10.6000    6.7940  -58.4960 H   0  0  0  0  0  0  0  0  0  0  0  0
   11.2628    5.0616  -60.1973 H   0  0  0  0  0  0  0  0  0  0  0  0
   13.9405    6.2813  -58.8746 H   0  0  0  0  0  0  0  0  0  0  0  0
   14.3022    5.4423  -60.1338 H   0  0  0  0  0  0  0  0  0  0  0  0
   12.4259    8.0560  -60.0219 H   0  0  0  0  0  0  0  0  0  0  0  0
   12.5223    7.5278  -61.4821 H   0  0  0  0  0  0  0  0  0  0  0  0
  1  2  2  0
  2  3  1  0
  3  4  1  0
  4  5  2  0
  5  6  1  0
  6  7  2  0
  7  8  1  0
  8  9  2  0
  9 10  1  0
 10 11  1  0
 11 12  1  0
 12 13  2  0
 13 14  1  0
 14 15  1  0
 14 16  2  0
 16 17  1  0
 10 18  1  0
 18 19  2  0
  2 20  1  0
 20 21  1  0
 21 22  1  0
 21 23  2  0
 23 24  1  0
 23 25  1  0
 25 26  1  0
 26 27  1  0
 27 28  1  0
 28 29  1  0
 25 30  2  0
 30 31  1  0
 30 32  1  0
 32 33  1  0
 19  4  1  0
 32 20  2  0
 19  8  1  0
 29 27  1  0
 17 11  2  0
  3 34  1  0
  5 35  1  0
  6 36  1  0
  7 37  1  0
  9 38  1  0
 12 39  1  0
 13 40  1  0
 16 41  1  0
 17 42  1  0
 26 43  1  0
 27 44  1  0
 28 45  1  0
 28 46  1  0
 29 47  1  0
 29 48  1  0
M  END
>  <meeko>  (27) 
{"is_sidechain": false}

$$$$

     RDKit          3D

 43 45  0  0  0  0  0  0  0  0999 V2000
   13.1910    5.5560  -59.3540 C   0  0  0  0  0  0  0  0  0  0  0  0
   11.8780    5.8580  -60.0590 C   0  0  0  0  0  0  0  0  0  0  0  0
   10.6850    5.6940  -59.1150 C   0  0  0  0  0  0  0  0  0  0  0  0
    9.6830    4.7580  -59.6770 N   0  0  0  0  0  0  0  0  0  0  0  0
   10.1010    4.1300  -60.9380 C   0  0  0  0  0  0  0  0  0  0  0  0
    8.8170    2.9960  -61.4170 Cl  0  0  0  0  0  0  0  0  0  0  0  0
    9.2500    3.8050  -58.7160 C   0  0  0  0  0  0  0  0  0  0  0  0
   10.0820    2.8040  -58.1880 C   0  0  0  0  0  0  0  0  0  0  0  0
   11.3600    2.7270  -58.5910 F   0  0  0  0  0  0  0  0  0  0  0  0
    9.6180    1.8890  -57.2400 C   0  0  0  0  0  0  0  0  0  0  0  0
   10.4880    0.9840  -56.7680 F   0  0  0  0  0  0  0  0  0  0  0  0
    8.2990    1.9410  -56.7840 C   0  0  0  0  0  0  0  0  0  0  0  0
    7.8250    0.9470  -55.7890 C   0  0  0  0  0  0  0  0  0  0  0  0
    6.7400    0.4160  -55.9820 O   0  0  0  0  0  0  0  0  0  0  0  0
    8.6230    0.7770  -54.6710 N   0  0  0  0  0  0  0  0  0  0  0  0
    8.4740   -0.2430  -53.7070 C   0  0  0  0  0  0  0  0  0  0  0  0
    7.3410   -0.1850  -52.8730 C   0  0  0  0  0  0  0  0  0  0  0  0
    7.1030   -1.1570  -51.8960 C   0  0  0  0  0  0  0  0  0  0  0  0
    7.9930   -2.2130  -51.6930 C   0  0  0  0  0  0  0  0  0  0  0  0
    9.1410   -2.2270  -52.4890 C   0  0  0  0  0  0  0  0  0  0  0  0
   10.2160   -3.0800  -52.5240 N   0  0  0  0  0  0  0  0  0  0  0  0
   11.1020   -2.6040  -53.4430 C   0  0  0  0  0  0  0  0  0  0  0  0
   10.6630   -1.5070  -54.0110 N   0  0  0  0  0  0  0  0  0  0  0  0
    9.4130   -1.2760  -53.4730 C   0  0  0  0  0  0  0  0  0  0  0  0
    7.4630    2.9320  -57.2970 C   0  0  0  0  0  0  0  0  0  0  0  0
    6.1850    3.0240  -56.8940 F   0  0  0  0  0  0  0  0  0  0  0  0
    7.9300    3.8440  -58.2420 C   0  0  0  0  0  0  0  0  0  0  0  0
    7.0830    4.7780  -58.7040 F   0  0  0  0  0  0  0  0  0  0  0  0
   13.0390    5.5910  -58.2651 H   0  0  0  0  0  0  0  0  0  0  0  0
   13.5406    4.5540  -59.6434 H   0  0  0  0  0  0  0  0  0  0  0  0
   13.9432    6.3046  -59.6434 H   0  0  0  0  0  0  0  0  0  0  0  0
   11.9010    6.8934  -60.4296 H   0  0  0  0  0  0  0  0  0  0  0  0
   11.7609    5.1474  -60.8905 H   0  0  0  0  0  0  0  0  0  0  0  0
   11.0413    5.3021  -58.1509 H   0  0  0  0  0  0  0  0  0  0  0  0
   10.2083    6.6763  -58.9814 H   0  0  0  0  0  0  0  0  0  0  0  0
   10.2339    4.8976  -61.7146 H   0  0  0  0  0  0  0  0  0  0  0  0
   11.0581    3.6028  -60.8114 H   0  0  0  0  0  0  0  0  0  0  0  0
    9.2560    1.5300  -54.4260 H   0  0  0  0  0  0  0  0  0  0  0  0
    6.6271    0.6433  -52.9926 H   0  0  0  0  0  0  0  0  0  0  0  0
    6.1972   -1.0880  -51.2757 H   0  0  0  0  0  0  0  0  0  0  0  0
    7.8001   -2.9950  -50.9438 H   0  0  0  0  0  0  0  0  0  0  0  0
   10.3410   -3.9020  -51.9520 H   0  0  0  0  0  0  0  0  0  0  0  0
   12.0650   -3.0804  -53.6789 H   0  0  0  0  0  0  0  0  0  0  0  0
  1  2  1  0
  2  3  1  0
  3  4  1  0
  4  5  1  0
  5  6  1  0
  4  7  1  0
  7  8  1  0
  8  9  1  0
  8 10  2  0
 10 11  1  0
 10 12  1  0
 12 13  1  0
 13 14  2  0
 13 15  1  0
 15 16  1  0
 16 17  1  0
 17 18  2  0
 18 19  1  0
 19 20  2  0
 20 21  1  0
 21 22  1  0
 22 23  2  0
 23 24  1  0
 12 25  2  0
 25 26  1  0
 25 27  1  0
 27 28  1  0
 27  7  2  0
 24 16  2  0
 24 20  1  0
  1 29  1  0
  1 30  1  0
  1 31  1  0
  2 32  1  0
  2 33  1  0
  3 34  1  0
  3 35  1  0
  5 36  1  0
  5 37  1  0
 15 38  1  0
 17 39  1  0
 18 40  1  0
 19 41  1  0
 21 42  1  0
 22 43  1  0
M  END
>  <meeko>  (28) 
{"is_sidechain": false}

$$$$

     RDKit          3D

 43 45  0  0  0  0  0  0  0  0999 V2000
    5.4390   -4.4360  -50.4350 C   0  0  0  0  0  0  0  0  0  0  0  0
    5.7470   -4.4500  -51.9260 C   0  0  0  0  0  0  0  0  0  0  0  0
    7.1220   -3.8580  -52.2570 C   0  0  0  0  0  0  0  0  0  0  0  0
    7.2190   -2.4260  -51.9220 N   0  0  0  0  0  0  0  0  0  0  0  0
    7.8530   -2.0760  -50.6410 C   0  0  0  0  0  0  0  0  0  0  0  0
    8.9530   -3.3790  -50.1360 Cl  0  0  0  0  0  0  0  0  0  0  0  0
    7.4720   -1.5130  -52.9700 C   0  0  0  0  0  0  0  0  0  0  0  0
    6.5400   -0.5690  -53.4320 C   0  0  0  0  0  0  0  0  0  0  0  0
    5.3070   -0.5100  -52.9020 F   0  0  0  0  0  0  0  0  0  0  0  0
    6.8320    0.3160  -54.4760 C   0  0  0  0  0  0  0  0  0  0  0  0
    5.8750    1.1770  -54.8570 F   0  0  0  0  0  0  0  0  0  0  0  0
    8.0710    0.3060  -55.1110 C   0  0  0  0  0  0  0  0  0  0  0  0
    8.4140    1.2480  -56.2150 C   0  0  0  0  0  0  0  0  0  0  0  0
    7.6160    1.3860  -57.1350 O   0  0  0  0  0  0  0  0  0  0  0  0
    9.6310    1.9010  -56.1150 N   0  0  0  0  0  0  0  0  0  0  0  0
   10.1920    2.8480  -57.0010 C   0  0  0  0  0  0  0  0  0  0  0  0
   11.5770    2.7630  -57.2440 C   0  0  0  0  0  0  0  0  0  0  0  0
   12.2400    3.6480  -58.0990 C   0  0  0  0  0  0  0  0  0  0  0  0
   11.5370    4.6630  -58.7530 C   0  0  0  0  0  0  0  0  0  0  0  0
   10.1580    4.7730  -58.5320 C   0  0  0  0  0  0  0  0  0  0  0  0
    9.2690    5.6810  -59.0580 N   0  0  0  0  0  0  0  0  0  0  0  0
    8.1070    5.3580  -58.5400 C   0  0  0  0  0  0  0  0  0  0  0  0
    8.2120    4.2850  -57.7060 N   0  0  0  0  0  0  0  0  0  0  0  0
    9.5230    3.8770  -57.6730 C   0  0  0  0  0  0  0  0  0  0  0  0
    9.0130   -0.6220  -54.6690 C   0  0  0  0  0  0  0  0  0  0  0  0
   10.2260   -0.7100  -55.2350 F   0  0  0  0  0  0  0  0  0  0  0  0
    8.7180   -1.5060  -53.6260 C   0  0  0  0  0  0  0  0  0  0  0  0
    9.6800   -2.3560  -53.2320 F   0  0  0  0  0  0  0  0  0  0  0  0
    6.3794   -4.4787  -49.8659 H   0  0  0  0  0  0  0  0  0  0  0  0
    4.8983   -3.5124  -50.1809 H   0  0  0  0  0  0  0  0  0  0  0  0
    4.8168   -5.3068  -50.1809 H   0  0  0  0  0  0  0  0  0  0  0  0
    5.7185   -5.4909  -52.2805 H   0  0  0  0  0  0  0  0  0  0  0  0
    4.9905   -3.8266  -52.4251 H   0  0  0  0  0  0  0  0  0  0  0  0
    7.8875   -4.4055  -51.6875 H   0  0  0  0  0  0  0  0  0  0  0  0
    7.2746   -3.9571  -53.3419 H   0  0  0  0  0  0  0  0  0  0  0  0
    8.4228   -1.1425  -50.7588 H   0  0  0  0  0  0  0  0  0  0  0  0
    7.0744   -1.9416  -49.8757 H   0  0  0  0  0  0  0  0  0  0  0  0
   10.2190    1.6750  -55.3190 H   0  0  0  0  0  0  0  0  0  0  0  0
   12.1566    1.9731  -56.7438 H   0  0  0  0  0  0  0  0  0  0  0  0
   13.3235    3.5446  -58.2582 H   0  0  0  0  0  0  0  0  0  0  0  0
   12.0553    5.3609  -59.4271 H   0  0  0  0  0  0  0  0  0  0  0  0
    7.1662    5.8870  -58.7524 H   0  0  0  0  0  0  0  0  0  0  0  0
    7.4630    3.8370  -57.1880 H   0  0  0  0  0  0  0  0  0  0  0  0
  1  2  1  0
  2  3  1  0
  3  4  1  0
  4  5  1  0
  5  6  1  0
  4  7  1  0
  7  8  1  0
  8  9  1  0
  8 10  2  0
 10 11  1  0
 10 12  1  0
 12 13  1  0
 13 14  2  0
 13 15  1  0
 15 16  1  0
 16 17  1  0
 17 18  2  0
 18 19  1  0
 19 20  2  0
 20 21  1  0
 21 22  2  0
 22 23  1  0
 23 24  1  0
 12 25  2  0
 25 26  1  0
 25 27  1  0
 27 28  1  0
 27  7  2  0
 24 16  2  0
 24 20  1  0
  1 29  1  0
  1 30  1  0
  1 31  1  0
  2 32  1  0
  2 33  1  0
  3 34  1  0
  3 35  1  0
  5 36  1  0
  5 37  1  0
 15 38  1  0
 17 39  1  0
 18 40  1  0
 19 41  1  0
 22 42  1  0
 23 43  1  0
M  END
>  <meeko>  (29) 
{"is_sidechain": false}

$$$$

     RDKit          3D

 44 46  0  0  0  0  0  0  0  0999 V2000
    5.4670   -4.3890  -50.6240 C   0  0  0  0  0  0  0  0  0  0  0  0
    6.8710   -4.8280  -51.0120 C   0  0  0  0  0  0  0  0  0  0  0  0
    7.3610   -4.2250  -52.3340 C   0  0  0  0  0  0  0  0  0  0  0  0
    8.2420   -3.0620  -52.1350 N   0  0  0  0  0  0  0  0  0  0  0  0
    8.9380   -2.9980  -50.8470 C   0  0  0  0  0  0  0  0  0  0  0  0
    7.8840   -2.1910  -49.6650 Cl  0  0  0  0  0  0  0  0  0  0  0  0
    8.2540   -2.0010  -53.0470 C   0  0  0  0  0  0  0  0  0  0  0  0
    7.1870   -1.0850  -53.1670 C   0  0  0  0  0  0  0  0  0  0  0  0
    6.1000   -1.1880  -52.3870 F   0  0  0  0  0  0  0  0  0  0  0  0
    7.1770   -0.0470  -54.1060 C   0  0  0  0  0  0  0  0  0  0  0  0
    6.1050    0.7620  -54.1480 F   0  0  0  0  0  0  0  0  0  0  0  0
    8.2350    0.1490  -54.9840 C   0  0  0  0  0  0  0  0  0  0  0  0
    8.2510    1.2430  -55.9960 C   0  0  0  0  0  0  0  0  0  0  0  0
    7.3700    1.2890  -56.8520 O   0  0  0  0  0  0  0  0  0  0  0  0
    9.2810    2.1680  -55.9120 N   0  0  0  0  0  0  0  0  0  0  0  0
    9.4810    3.2940  -56.7440 C   0  0  0  0  0  0  0  0  0  0  0  0
    8.3820    4.1440  -56.9980 C   0  0  0  0  0  0  0  0  0  0  0  0
    8.4850    5.2890  -57.8210 C   0  0  0  0  0  0  0  0  0  0  0  0
    9.6890    5.6500  -58.4390 C   0  0  0  0  0  0  0  0  0  0  0  0
   10.7670    4.8120  -58.1880 C   0  0  0  0  0  0  0  0  0  0  0  0
   12.0780    4.8640  -58.6250 N   0  0  0  0  0  0  0  0  0  0  0  0
   12.7780    3.8380  -58.1280 C   0  0  0  0  0  0  0  0  0  0  0  0
   11.9390    3.1320  -57.3820 N   0  0  0  0  0  0  0  0  0  0  0  0
   10.6730    3.6790  -57.3740 C   0  0  0  0  0  0  0  0  0  0  0  0
    9.3120   -0.7250  -54.8840 C   0  0  0  0  0  0  0  0  0  0  0  0
   10.3780   -0.6010  -55.6890 F   0  0  0  0  0  0  0  0  0  0  0  0
    9.3200   -1.7650  -53.9430 C   0  0  0  0  0  0  0  0  0  0  0  0
   10.4250   -2.5260  -53.9080 F   0  0  0  0  0  0  0  0  0  0  0  0
    5.3811   -4.3621  -49.5277 H   0  0  0  0  0  0  0  0  0  0  0  0
    5.2704   -3.3865  -51.0319 H   0  0  0  0  0  0  0  0  0  0  0  0
    4.7344   -5.1009  -51.0319 H   0  0  0  0  0  0  0  0  0  0  0  0
    7.5634   -4.5235  -50.2134 H   0  0  0  0  0  0  0  0  0  0  0  0
    6.8412   -5.9192  -51.1474 H   0  0  0  0  0  0  0  0  0  0  0  0
    7.9158   -4.9962  -52.8885 H   0  0  0  0  0  0  0  0  0  0  0  0
    6.4768   -3.8812  -52.8908 H   0  0  0  0  0  0  0  0  0  0  0  0
    9.1696   -4.0162  -50.5011 H   0  0  0  0  0  0  0  0  0  0  0  0
    9.8761   -2.4342  -50.9570 H   0  0  0  0  0  0  0  0  0  0  0  0
    9.9790    2.0310  -55.1830 H   0  0  0  0  0  0  0  0  0  0  0  0
    7.4109    3.9066  -56.5390 H   0  0  0  0  0  0  0  0  0  0  0  0
    7.5941    5.9142  -57.9805 H   0  0  0  0  0  0  0  0  0  0  0  0
    9.7748    6.5391  -59.0810 H   0  0  0  0  0  0  0  0  0  0  0  0
   12.4630    5.5770  -59.2390 H   0  0  0  0  0  0  0  0  0  0  0  0
   13.8422    3.6220  -58.3038 H   0  0  0  0  0  0  0  0  0  0  0  0
   12.1590    2.2780  -56.8510 H   0  0  0  0  0  0  0  0  0  0  0  0
  1  2  1  0
  2  3  1  0
  3  4  1  0
  4  5  1  0
  5  6  1  0
  4  7  1  0
  7  8  1  0
  8  9  1  0
  8 10  2  0
 10 11  1  0
 10 12  1  0
 12 13  1  0
 13 14  2  0
 13 15  1  0
 15 16  1  0
 16 17  1  0
 17 18  2  0
 18 19  1  0
 19 20  2  0
 20 21  1  0
 21 22  1  0
 22 23  2  0
 23 24  1  0
 12 25  2  0
 25 26  1  0
 25 27  1  0
 27 28  1  0
 27  7  2  0
 24 16  2  0
 24 20  1  0
  1 29  1  0
  1 30  1  0
  1 31  1  0
  2 32  1  0
  2 33  1  0
  3 34  1  0
  3 35  1  0
  5 36  1  0
  5 37  1  0
 15 38  1  0
 17 39  1  0
 18 40  1  0
 19 41  1  0
 21 42  1  0
 22 43  1  0
 23 44  1  0
M  CHG  1  23   1
M  END
>  <meeko>  (30) 
{"is_sidechain": false}

$$$$

     RDKit          3D

 40 43  0  0  0  0  0  0  0  0999 V2000
    9.6950    3.3490  -61.6300 N   0  0  0  0  0  0  0  0  0  0  0  0
   10.2920    3.5530  -60.6530 C   0  0  0  0  0  0  0  0  0  0  0  0
   11.1120    3.8190  -59.4970 C   0  0  0  0  0  0  0  0  0  0  0  0
   12.4170    4.2780  -59.7650 C   0  0  0  0  0  0  0  0  0  0  0  0
   13.3120    4.5480  -58.7320 C   0  0  0  0  0  0  0  0  0  0  0  0
   12.9180    4.3620  -57.4130 C   0  0  0  0  0  0  0  0  0  0  0  0
   11.6290    3.9080  -57.1230 C   0  0  0  0  0  0  0  0  0  0  0  0
   10.7090    3.6330  -58.1540 C   0  0  0  0  0  0  0  0  0  0  0  0
    9.3960    3.1790  -57.8110 N   0  0  0  0  0  0  0  0  0  0  0  0
    8.1820    3.6120  -58.3150 C   0  0  0  0  0  0  0  0  0  0  0  0
    7.2240    2.8810  -57.6690 C   0  0  0  0  0  0  0  0  0  0  0  0
    5.8510    2.9900  -57.8460 C   0  0  0  0  0  0  0  0  0  0  0  0
    5.1670    2.0830  -57.0060 C   0  0  0  0  0  0  0  0  0  0  0  0
    5.8110    1.1760  -56.0960 C   0  0  0  0  0  0  0  0  0  0  0  0
    7.2110    1.0990  -55.9510 C   0  0  0  0  0  0  0  0  0  0  0  0
    7.9390    0.2520  -55.1010 N   0  0  0  0  0  0  0  0  0  0  0  0
    7.5330   -0.9570  -54.5830 C   0  0  0  0  0  0  0  0  0  0  0  0
    6.4550   -1.5040  -54.7710 O   0  0  0  0  0  0  0  0  0  0  0  0
    8.5200   -1.6240  -53.7130 C   0  0  0  0  0  0  0  0  0  0  0  0
    8.1950   -1.8970  -52.3850 C   0  0  0  0  0  0  0  0  0  0  0  0
    7.0230   -1.5110  -51.8640 F   0  0  0  0  0  0  0  0  0  0  0  0
    9.1120   -2.5520  -51.5640 C   0  0  0  0  0  0  0  0  0  0  0  0
    8.8040   -2.8030  -50.2840 F   0  0  0  0  0  0  0  0  0  0  0  0
   10.3520   -2.9490  -52.0500 C   0  0  0  0  0  0  0  0  0  0  0  0
   10.6680   -2.6790  -53.3750 C   0  0  0  0  0  0  0  0  0  0  0  0
   11.8560   -3.0670  -53.8540 F   0  0  0  0  0  0  0  0  0  0  0  0
    9.7620   -2.0230  -54.2060 C   0  0  0  0  0  0  0  0  0  0  0  0
   10.0980   -1.7960  -55.4840 F   0  0  0  0  0  0  0  0  0  0  0  0
    7.9110    1.9990  -56.7800 C   0  0  0  0  0  0  0  0  0  0  0  0
    9.2320    2.1990  -56.8920 N   0  0  0  0  0  0  0  0  0  0  0  0
   12.7346    4.4257  -60.8078 H   0  0  0  0  0  0  0  0  0  0  0  0
   14.3265    4.9070  -58.9599 H   0  0  0  0  0  0  0  0  0  0  0  0
   13.6226    4.5727  -56.5949 H   0  0  0  0  0  0  0  0  0  0  0  0
   11.3281    3.7632  -56.0749 H   0  0  0  0  0  0  0  0  0  0  0  0
    8.0207    4.3864  -59.0794 H   0  0  0  0  0  0  0  0  0  0  0  0
    5.3632    3.6864  -58.5439 H   0  0  0  0  0  0  0  0  0  0  0  0
    4.0680    2.0702  -57.0515 H   0  0  0  0  0  0  0  0  0  0  0  0
    5.1827    0.5115  -55.4847 H   0  0  0  0  0  0  0  0  0  0  0  0
    8.8660    0.6130  -54.8730 H   0  0  0  0  0  0  0  0  0  0  0  0
   11.0698   -3.4674  -51.3973 H   0  0  0  0  0  0  0  0  0  0  0  0
  1  2  3  0
  2  3  1  0
  3  4  2  0
  4  5  1  0
  5  6  2  0
  6  7  1  0
  7  8  2  0
  8  9  1  0
  9 10  1  0
 10 11  2  0
 11 12  1  0
 12 13  2  0
 13 14  1  0
 14 15  2  0
 15 16  1  0
 16 17  1  0
 17 18  2  0
 17 19  1  0
 19 20  2  0
 20 21  1  0
 20 22  1  0
 22 23  1  0
 22 24  2  0
 24 25  1  0
 25 26  1  0
 25 27  2  0
 27 28  1  0
 15 29  1  0
 29 30  2  0
  8  3  1  0
 30  9  1  0
 29 11  1  0
 27 19  1  0
  4 31  1  0
  5 32  1  0
  6 33  1  0
  7 34  1  0
 10 35  1  0
 12 36  1  0
 13 37  1  0
 14 38  1  0
 16 39  1  0
 24 40  1  0
M  END
>  <meeko>  (31) 
{"is_sidechain": false}

$$$$

     RDKit          3D

 51 55  0  0  0  0  0  0  0  0999 V2000
   11.5350   -0.3220  -56.4640 O   0  0  0  0  0  0  0  0  0  0  0  0
   10.4510    0.1060  -56.0870 C   0  0  0  0  0  0  0  0  0  0  0  0
    9.8510    1.2600  -56.5440 N   0  0  0  0  0  0  0  0  0  0  0  0
   10.3340    2.1390  -57.5290 C   0  0  0  0  0  0  0  0  0  0  0  0
   11.5840    2.7940  -57.5480 C   0  0  0  0  0  0  0  0  0  0  0  0
   11.9960    3.6760  -58.6020 C   0  0  0  0  0  0  0  0  0  0  0  0
   11.2080    3.9860  -59.7300 C   0  0  0  0  0  0  0  0  0  0  0  0
    9.9900    3.3230  -59.6770 C   0  0  0  0  0  0  0  0  0  0  0  0
    8.9980    3.4040  -60.6120 C   0  0  0  0  0  0  0  0  0  0  0  0
    7.9820    2.5890  -60.1540 N   0  0  0  0  0  0  0  0  0  0  0  0
    6.7230    2.3370  -60.7760 C   0  0  0  0  0  0  0  0  0  0  0  0
    6.4930    2.6720  -62.1180 C   0  0  0  0  0  0  0  0  0  0  0  0
    5.2480    2.4130  -62.7010 C   0  0  0  0  0  0  0  0  0  0  0  0
    4.2310    1.8210  -61.9540 C   0  0  0  0  0  0  0  0  0  0  0  0
    4.4530    1.4860  -60.6200 C   0  0  0  0  0  0  0  0  0  0  0  0
    5.6930    1.7420  -60.0310 C   0  0  0  0  0  0  0  0  0  0  0  0
    8.2950    1.9930  -58.9670 N   0  0  0  0  0  0  0  0  0  0  0  0
    9.5260    2.4340  -58.6530 C   0  0  0  0  0  0  0  0  0  0  0  0
    9.7060   -0.6560  -55.0520 C   0  0  0  0  0  0  0  0  0  0  0  0
    9.8640   -2.0330  -54.9510 C   0  0  0  0  0  0  0  0  0  0  0  0
   10.6490   -2.7070  -55.8040 F   0  0  0  0  0  0  0  0  0  0  0  0
    9.1900   -2.7670  -53.9650 C   0  0  0  0  0  0  0  0  0  0  0  0
    9.4130   -4.0910  -53.9470 F   0  0  0  0  0  0  0  0  0  0  0  0
    8.3200   -2.1760  -53.0260 C   0  0  0  0  0  0  0  0  0  0  0  0
    7.6430   -2.9000  -52.0600 N   0  0  0  0  0  0  0  0  0  0  0  0
    6.5780   -3.8620  -52.3670 C   0  0  0  0  0  0  0  0  0  0  0  0
    6.1690   -4.4430  -51.0160 C   0  0  0  0  0  0  0  0  0  0  0  0
    6.5000   -3.3240  -50.0450 C   0  0  0  0  0  0  0  0  0  0  0  0
    7.7920   -2.7340  -50.6130 C   0  0  1  0  0  0  0  0  0  0  0  0
    9.2000   -3.6970  -50.1030 Cl  0  0  0  0  0  0  0  0  0  0  0  0
    8.1870   -0.7780  -53.1600 C   0  0  0  0  0  0  0  0  0  0  0  0
    7.3990   -0.0850  -52.3210 F   0  0  0  0  0  0  0  0  0  0  0  0
    8.8570   -0.0390  -54.1430 C   0  0  0  0  0  0  0  0  0  0  0  0
    8.6600    1.2890  -54.1800 F   0  0  0  0  0  0  0  0  0  0  0  0
    8.9700    1.5700  -56.1350 H   0  0  0  0  0  0  0  0  0  0  0  0
   12.2776    2.6194  -56.7123 H   0  0  0  0  0  0  0  0  0  0  0  0
   12.9903    4.1403  -58.5254 H   0  0  0  0  0  0  0  0  0  0  0  0
   11.5169    4.6614  -60.5414 H   0  0  0  0  0  0  0  0  0  0  0  0
    9.0066    3.9964  -61.5388 H   0  0  0  0  0  0  0  0  0  0  0  0
    7.2920    3.1387  -62.7127 H   0  0  0  0  0  0  0  0  0  0  0  0
    5.0708    2.6778  -63.7539 H   0  0  0  0  0  0  0  0  0  0  0  0
    3.2541    1.6185  -62.4173 H   0  0  0  0  0  0  0  0  0  0  0  0
    3.6505    1.0193  -60.0300 H   0  0  0  0  0  0  0  0  0  0  0  0
    5.8635    1.4759  -58.9774 H   0  0  0  0  0  0  0  0  0  0  0  0
    5.7258   -3.3561  -52.8443 H   0  0  0  0  0  0  0  0  0  0  0  0
    6.9141   -4.6410  -53.0671 H   0  0  0  0  0  0  0  0  0  0  0  0
    5.0946   -4.6779  -50.9962 H   0  0  0  0  0  0  0  0  0  0  0  0
    6.6814   -5.3870  -50.7785 H   0  0  0  0  0  0  0  0  0  0  0  0
    5.6988   -2.5706  -50.0244 H   0  0  0  0  0  0  0  0  0  0  0  0
    6.6065   -3.6728  -49.0072 H   0  0  0  0  0  0  0  0  0  0  0  0
    7.9472   -1.6962  -50.2831 H   0  0  0  0  0  0  0  0  0  0  0  0
  1  2  2  0
  2  3  1  0
  3  4  1  0
  4  5  2  0
  5  6  1  0
  6  7  2  0
  7  8  1  0
  8  9  2  0
  9 10  1  0
 10 11  1  0
 11 12  2  0
 12 13  1  0
 13 14  2  0
 14 15  1  0
 15 16  2  0
 10 17  1  0
 17 18  2  0
  2 19  1  0
 19 20  1  0
 20 21  1  0
 20 22  2  0
 22 23  1  0
 22 24  1  0
 24 25  1  0
 25 26  1  0
 26 27  1  0
 27 28  1  0
 28 29  1  0
 29 30  1  0
 24 31  2  0
 31 32  1  0
 31 33  1  0
 33 34  1  0
 18  4  1  0
 33 19  2  0
 18  8  1  0
 29 25  1  0
 16 11  1  0
  3 35  1  0
  5 36  1  0
  6 37  1  0
  7 38  1  0
  9 39  1  0
 12 40  1  0
 13 41  1  0
 14 42  1  0
 15 43  1  0
 16 44  1  0
 26 45  1  0
 26 46  1  0
 27 47  1  0
 27 48  1  0
 28 49  1  0
 28 50  1  0
 29 51  1  6
M  END
>  <meeko>  (32) 
{"is_sidechain": false}

$$$$

     RDKit          3D

 58 62  0  0  0  0  0  0  0  0999 V2000
    6.3740    0.5810  -55.9030 O   0  0  0  0  0  0  0  0  0  0  0  0
    7.5340    0.9710  -55.8370 C   0  0  0  0  0  0  0  0  0  0  0  0
    8.4480    0.5730  -54.8840 N   0  0  0  0  0  0  0  0  0  0  0  0
    8.2310   -0.3120  -53.8140 C   0  0  0  0  0  0  0  0  0  0  0  0
    7.4790   -0.0690  -52.6450 C   0  0  0  0  0  0  0  0  0  0  0  0
    7.3130   -1.0370  -51.5990 C   0  0  0  0  0  0  0  0  0  0  0  0
    7.8770   -2.3290  -51.6170 C   0  0  0  0  0  0  0  0  0  0  0  0
    8.6090   -2.5310  -52.7790 C   0  0  0  0  0  0  0  0  0  0  0  0
    9.2810   -3.6720  -53.1090 C   0  0  0  0  0  0  0  0  0  0  0  0
    9.8570   -3.4270  -54.3380 N   0  0  0  0  0  0  0  0  0  0  0  0
   10.6620   -4.3140  -55.1150 C   0  0  0  0  0  0  0  0  0  0  0  0
   12.0300   -4.4760  -54.8510 C   0  0  0  0  0  0  0  0  0  0  0  0
   12.7920   -5.3530  -55.6300 C   0  0  0  0  0  0  0  0  0  0  0  0
   12.1920   -6.0610  -56.6640 C   0  0  0  0  0  0  0  0  0  0  0  0
   12.9290   -6.8990  -57.4050 F   0  0  0  0  0  0  0  0  0  0  0  0
   10.8390   -5.9130  -56.9390 C   0  0  0  0  0  0  0  0  0  0  0  0
   10.0710   -5.0380  -56.1660 C   0  0  0  0  0  0  0  0  0  0  0  0
    9.5800   -2.1730  -54.7970 N   0  0  0  0  0  0  0  0  0  0  0  0
    8.8080   -1.6040  -53.8540 C   0  0  0  0  0  0  0  0  0  0  0  0
    8.0190    1.9450  -56.8530 C   0  0  0  0  0  0  0  0  0  0  0  0
    7.2000    2.9390  -57.3820 C   0  0  0  0  0  0  0  0  0  0  0  0
    5.9180    3.0480  -56.9990 F   0  0  0  0  0  0  0  0  0  0  0  0
    7.6850    3.8560  -58.3210 C   0  0  0  0  0  0  0  0  0  0  0  0
    6.8360    4.8000  -58.7560 F   0  0  0  0  0  0  0  0  0  0  0  0
    9.0140    3.8250  -58.7780 C   0  0  0  0  0  0  0  0  0  0  0  0
    9.5480    4.7300  -59.7260 N   0  0  0  0  0  0  0  0  0  0  0  0
    9.8450    4.1170  -61.0320 C   0  0  0  0  0  0  0  0  0  0  0  0
    8.5550    2.9770  -61.4760 Cl  0  0  0  0  0  0  0  0  0  0  0  0
   10.4660    5.7770  -59.2410 C   0  0  0  0  0  0  0  0  0  0  0  0
   11.8170    5.7300  -59.9510 C   0  0  2  0  0  0  0  0  0  0  0  0
   12.9300    5.1480  -59.1010 C   0  0  0  0  0  0  0  0  0  0  0  0
   14.1630    5.6650  -59.8110 C   0  0  0  0  0  0  0  0  0  0  0  0
   13.8100    6.9300  -60.3860 O   0  0  0  0  0  0  0  0  0  0  0  0
   12.3870    7.0990  -60.2810 C   0  0  0  0  0  0  0  0  0  0  0  0
    9.8190    2.8060  -58.2340 C   0  0  0  0  0  0  0  0  0  0  0  0
   11.0920    2.6780  -58.6470 F   0  0  0  0  0  0  0  0  0  0  0  0
    9.3390    1.8890  -57.2950 C   0  0  0  0  0  0  0  0  0  0  0  0
   10.1820    0.9390  -56.8610 F   0  0  0  0  0  0  0  0  0  0  0  0
    9.4090    0.9090  -54.9320 H   0  0  0  0  0  0  0  0  0  0  0  0
    6.9955    0.9123  -52.5298 H   0  0  0  0  0  0  0  0  0  0  0  0
    6.7064   -0.7527  -50.7265 H   0  0  0  0  0  0  0  0  0  0  0  0
    7.7537   -3.0756  -50.8186 H   0  0  0  0  0  0  0  0  0  0  0  0
    9.3492   -4.5965  -52.5169 H   0  0  0  0  0  0  0  0  0  0  0  0
   12.5031   -3.9140  -54.0323 H   0  0  0  0  0  0  0  0  0  0  0  0
   13.8649   -5.4820  -55.4242 H   0  0  0  0  0  0  0  0  0  0  0  0
   10.3751   -6.4803  -57.7593 H   0  0  0  0  0  0  0  0  0  0  0  0
    8.9992   -4.9149  -56.3806 H   0  0  0  0  0  0  0  0  0  0  0  0
    9.9143    4.9046  -61.7968 H   0  0  0  0  0  0  0  0  0  0  0  0
   10.7998    3.5746  -60.9675 H   0  0  0  0  0  0  0  0  0  0  0  0
   10.0067    6.7609  -59.4172 H   0  0  0  0  0  0  0  0  0  0  0  0
   10.6406    5.6044  -58.1687 H   0  0  0  0  0  0  0  0  0  0  0  0
   11.5708    5.1282  -60.8383 H   0  0  0  0  0  0  0  0  0  0  0  0
   12.8790    5.5175  -58.0662 H   0  0  0  0  0  0  0  0  0  0  0  0
   12.8947    4.0524  -59.0094 H   0  0  0  0  0  0  0  0  0  0  0  0
   14.9876    5.7918  -59.0941 H   0  0  0  0  0  0  0  0  0  0  0  0
   14.4977    4.9591  -60.5854 H   0  0  0  0  0  0  0  0  0  0  0  0
   12.1466    7.8144  -59.4807 H   0  0  0  0  0  0  0  0  0  0  0  0
   11.9618    7.4939  -61.2155 H   0  0  0  0  0  0  0  0  0  0  0  0
  1  2  2  0
  2  3  1  0
  3  4  1  0
  4  5  2  0
  5  6  1  0
  6  7  2  0
  7  8  1  0
  8  9  2  0
  9 10  1  0
 10 11  1  0
 11 12  1  0
 12 13  2  0
 13 14  1  0
 14 15  1  0
 14 16  2  0
 16 17  1  0
 10 18  1  0
 18 19  2  0
  2 20  1  0
 20 21  1  0
 21 22  1  0
 21 23  2  0
 23 24  1  0
 23 25  1  0
 25 26  1  0
 26 27  1  0
 27 28  1  0
 26 29  1  0
 29 30  1  0
 30 31  1  0
 31 32  1  0
 32 33  1  0
 33 34  1  0
 25 35  2  0
 35 36  1  0
 35 37  1  0
 37 38  1  0
 19  4  1  0
 37 20  2  0
 19  8  1  0
 34 30  1  0
 17 11  2  0
  3 39  1  0
  5 40  1  0
  6 41  1  0
  7 42  1  0
  9 43  1  0
 12 44  1  0
 13 45  1  0
 16 46  1  0
 17 47  1  0
 27 48  1  0
 27 49  1  0
 29 50  1  0
 29 51  1  0
 30 52  1  6
 31 53  1  0
 31 54  1  0
 32 55  1  0
 32 56  1  0
 34 57  1  0
 34 58  1  0
M  END
>  <meeko>  (33) 
{"is_sidechain": false}

$$$$

     RDKit          3D

 58 62  0  0  0  0  0  0  0  0999 V2000
    6.0440   -0.3470  -55.4010 O   0  0  0  0  0  0  0  0  0  0  0  0
    7.0420    0.3640  -55.3850 C   0  0  0  0  0  0  0  0  0  0  0  0
    8.1150    0.2060  -54.5350 N   0  0  0  0  0  0  0  0  0  0  0  0
    8.2890   -0.7920  -53.5600 C   0  0  0  0  0  0  0  0  0  0  0  0
    7.6960   -0.8460  -52.2800 C   0  0  0  0  0  0  0  0  0  0  0  0
    7.9300   -1.9110  -51.3470 C   0  0  0  0  0  0  0  0  0  0  0  0
    8.7700   -3.0170  -51.5990 C   0  0  0  0  0  0  0  0  0  0  0  0
    9.3310   -2.9280  -52.8660 C   0  0  0  0  0  0  0  0  0  0  0  0
   10.1890   -3.8360  -53.4210 C   0  0  0  0  0  0  0  0  0  0  0  0
   10.4890   -3.3480  -54.6760 N   0  0  0  0  0  0  0  0  0  0  0  0
   11.3490   -3.9320  -55.6540 C   0  0  0  0  0  0  0  0  0  0  0  0
   11.4220   -3.3610  -56.9370 C   0  0  0  0  0  0  0  0  0  0  0  0
   12.2570   -3.9160  -57.9090 C   0  0  0  0  0  0  0  0  0  0  0  0
   13.0160   -5.0370  -57.6020 C   0  0  0  0  0  0  0  0  0  0  0  0
   13.8180   -5.5690  -58.5330 F   0  0  0  0  0  0  0  0  0  0  0  0
   12.9580   -5.6150  -56.3390 C   0  0  0  0  0  0  0  0  0  0  0  0
   12.1240   -5.0660  -55.3600 C   0  0  0  0  0  0  0  0  0  0  0  0
    9.8510   -2.1720  -54.9390 N   0  0  0  0  0  0  0  0  0  0  0  0
    9.1340   -1.8930  -53.8360 C   0  0  0  0  0  0  0  0  0  0  0  0
    7.1230    1.4960  -56.3440 C   0  0  0  0  0  0  0  0  0  0  0  0
    8.3650    2.0230  -56.6950 C   0  0  0  0  0  0  0  0  0  0  0  0
    9.4990    1.5560  -56.1510 F   0  0  0  0  0  0  0  0  0  0  0  0
    8.4690    3.0710  -57.6140 C   0  0  0  0  0  0  0  0  0  0  0  0
    9.7000    3.5050  -57.9310 F   0  0  0  0  0  0  0  0  0  0  0  0
    7.3420    3.6450  -58.2320 C   0  0  0  0  0  0  0  0  0  0  0  0
    7.4180    4.7070  -59.1570 N   0  0  0  0  0  0  0  0  0  0  0  0
    8.2130    5.8810  -58.7880 C   0  0  0  0  0  0  0  0  0  0  0  0
    9.8310    5.7310  -59.5100 Cl  0  0  0  0  0  0  0  0  0  0  0  0
    7.3940    4.3100  -60.5860 C   0  0  0  0  0  0  0  0  0  0  0  0
    7.2570    2.7830  -60.7760 C   0  0  1  0  0  0  0  0  0  0  0  0
    5.8780    2.4050  -61.2940 C   0  0  0  0  0  0  0  0  0  0  0  0
    5.9920    2.6630  -62.7810 C   0  0  0  0  0  0  0  0  0  0  0  0
    7.3680    2.4640  -63.1280 O   0  0  0  0  0  0  0  0  0  0  0  0
    8.1230    2.2780  -61.9220 C   0  0  0  0  0  0  0  0  0  0  0  0
    6.1020    3.0970  -57.8560 C   0  0  0  0  0  0  0  0  0  0  0  0
    4.9630    3.6030  -58.3620 F   0  0  0  0  0  0  0  0  0  0  0  0
    5.9930    2.0500  -56.9370 C   0  0  0  0  0  0  0  0  0  0  0  0
    4.7670    1.5930  -56.6390 F   0  0  0  0  0  0  0  0  0  0  0  0
    8.8820    0.8760  -54.5560 H   0  0  0  0  0  0  0  0  0  0  0  0
    7.0204   -0.0304  -51.9827 H   0  0  0  0  0  0  0  0  0  0  0  0
    7.4219   -1.8623  -50.3726 H   0  0  0  0  0  0  0  0  0  0  0  0
    8.9548   -3.8368  -50.8892 H   0  0  0  0  0  0  0  0  0  0  0  0
   10.5627   -4.7633  -52.9622 H   0  0  0  0  0  0  0  0  0  0  0  0
   10.8185   -2.4730  -57.1761 H   0  0  0  0  0  0  0  0  0  0  0  0
   12.3130   -3.4676  -58.9119 H   0  0  0  0  0  0  0  0  0  0  0  0
   13.5668   -6.5022  -56.1103 H   0  0  0  0  0  0  0  0  0  0  0  0
   12.0749   -5.5220  -54.3602 H   0  0  0  0  0  0  0  0  0  0  0  0
    7.7237    6.7915  -59.1643 H   0  0  0  0  0  0  0  0  0  0  0  0
    8.2979    5.9445  -57.6931 H   0  0  0  0  0  0  0  0  0  0  0  0
    6.5411    4.8038  -61.0746 H   0  0  0  0  0  0  0  0  0  0  0  0
    8.3510    4.6169  -61.0332 H   0  0  0  0  0  0  0  0  0  0  0  0
    7.5105    2.3679  -59.7894 H   0  0  0  0  0  0  0  0  0  0  0  0
    5.6559    1.3468  -61.0920 H   0  0  0  0  0  0  0  0  0  0  0  0
    5.0647    2.9711  -60.8163 H   0  0  0  0  0  0  0  0  0  0  0  0
    5.3549    1.9601  -63.3379 H   0  0  0  0  0  0  0  0  0  0  0  0
    5.6634    3.6822  -63.0326 H   0  0  0  0  0  0  0  0  0  0  0  0
    8.3535    1.2118  -61.7806 H   0  0  0  0  0  0  0  0  0  0  0  0
    9.0763    2.8250  -61.9659 H   0  0  0  0  0  0  0  0  0  0  0  0
  1  2  2  0
  2  3  1  0
  3  4  1  0
  4  5  2  0
  5  6  1  0
  6  7  2  0
  7  8  1  0
  8  9  2  0
  9 10  1  0
 10 11  1  0
 11 12  1  0
 12 13  2  0
 13 14  1  0
 14 15  1  0
 14 16  2  0
 16 17  1  0
 10 18  1  0
 18 19  2  0
  2 20  1  0
 20 21  1  0
 21 22  1  0
 21 23  2  0
 23 24  1  0
 23 25  1  0
 25 26  1  0
 26 27  1  0
 27 28  1  0
 26 29  1  0
 29 30  1  0
 30 31  1  0
 31 32  1  0
 32 33  1  0
 33 34  1  0
 25 35  2  0
 35 36  1  0
 35 37  1  0
 37 38  1  0
 19  4  1  0
 37 20  2  0
 19  8  1  0
 34 30  1  0
 17 11  2  0
  3 39  1  0
  5 40  1  0
  6 41  1  0
  7 42  1  0
  9 43  1  0
 12 44  1  0
 13 45  1  0
 16 46  1  0
 17 47  1  0
 27 48  1  0
 27 49  1  0
 29 50  1  0
 29 51  1  0
 30 52  1  1
 31 53  1  0
 31 54  1  0
 32 55  1  0
 32 56  1  0
 34 57  1  0
 34 58  1  0
M  END
>  <meeko>  (34) 
{"is_sidechain": false}

$$$$

     RDKit          3D

 48 51  0  0  0  0  0  0  0  0999 V2000
   12.7440    6.5870  -60.2350 C   0  0  0  0  0  0  0  0  0  0  0  0
   11.4040    6.0470  -59.7380 C   0  0  0  0  0  0  0  0  0  0  0  0
   10.9870    4.8440  -60.5780 C   0  0  0  0  0  0  0  0  0  0  0  0
   11.6030    5.6450  -58.3790 O   0  0  0  0  0  0  0  0  0  0  0  0
   10.7800    4.7180  -57.8060 C   0  0  0  0  0  0  0  0  0  0  0  0
   11.3750    3.4780  -57.5550 C   0  0  0  0  0  0  0  0  0  0  0  0
   12.6690    3.2900  -57.8640 F   0  0  0  0  0  0  0  0  0  0  0  0
   10.6640    2.4260  -56.9770 C   0  0  0  0  0  0  0  0  0  0  0  0
   11.3200    1.2800  -56.7410 F   0  0  0  0  0  0  0  0  0  0  0  0
    9.3210    2.5810  -56.6330 C   0  0  0  0  0  0  0  0  0  0  0  0
    8.5680    1.4420  -56.0390 C   0  0  0  0  0  0  0  0  0  0  0  0
    7.5070    1.1160  -56.5560 O   0  0  0  0  0  0  0  0  0  0  0  0
    9.1400    0.8520  -54.9350 N   0  0  0  0  0  0  0  0  0  0  0  0
    8.6170   -0.2380  -54.2340 C   0  0  0  0  0  0  0  0  0  0  0  0
    7.6450   -0.1560  -53.2730 N   0  0  0  0  0  0  0  0  0  0  0  0
    7.1770   -1.2870  -52.6230 C   0  0  0  0  0  0  0  0  0  0  0  0
    7.5710   -2.6180  -52.8090 C   0  0  0  0  0  0  0  0  0  0  0  0
    8.5500   -2.6550  -53.7870 C   0  0  0  0  0  0  0  0  0  0  0  0
    9.1820   -3.7760  -54.2440 C   0  0  0  0  0  0  0  0  0  0  0  0
   10.0740   -3.3470  -55.2050 N   0  0  0  0  0  0  0  0  0  0  0  0
   10.9810   -4.1200  -55.9870 C   0  0  0  0  0  0  0  0  0  0  0  0
   10.7740   -4.2250  -57.3750 C   0  0  0  0  0  0  0  0  0  0  0  0
   11.6460   -4.9760  -58.1690 C   0  0  0  0  0  0  0  0  0  0  0  0
   12.7310   -5.6280  -57.5920 C   0  0  0  0  0  0  0  0  0  0  0  0
   12.9440   -5.5300  -56.2180 C   0  0  0  0  0  0  0  0  0  0  0  0
   12.0740   -4.7810  -55.4240 C   0  0  0  0  0  0  0  0  0  0  0  0
   12.3410   -4.7330  -54.1120 F   0  0  0  0  0  0  0  0  0  0  0  0
   10.0240   -1.9900  -55.3750 N   0  0  0  0  0  0  0  0  0  0  0  0
    9.0940   -1.5470  -54.5080 C   0  0  0  0  0  0  0  0  0  0  0  0
    8.7230    3.8160  -56.8850 C   0  0  0  0  0  0  0  0  0  0  0  0
    7.4330    4.0280  -56.5760 F   0  0  0  0  0  0  0  0  0  0  0  0
    9.4390    4.8680  -57.4640 C   0  0  0  0  0  0  0  0  0  0  0  0
    8.7820    6.0140  -57.6860 F   0  0  0  0  0  0  0  0  0  0  0  0
   13.3785    6.8427  -59.3736 H   0  0  0  0  0  0  0  0  0  0  0  0
   13.2448    5.8205  -60.8446 H   0  0  0  0  0  0  0  0  0  0  0  0
   12.5734    7.4866  -60.8446 H   0  0  0  0  0  0  0  0  0  0  0  0
   10.6141    6.8086  -59.8163 H   0  0  0  0  0  0  0  0  0  0  0  0
   10.6997    4.0152  -59.9142 H   0  0  0  0  0  0  0  0  0  0  0  0
   10.1317    5.1188  -61.2128 H   0  0  0  0  0  0  0  0  0  0  0  0
   11.8289    4.5305  -61.2128 H   0  0  0  0  0  0  0  0  0  0  0  0
    9.9980    1.2160  -54.5350 H   0  0  0  0  0  0  0  0  0  0  0  0
    6.3977   -1.1179  -51.8653 H   0  0  0  0  0  0  0  0  0  0  0  0
    7.1698   -3.4881  -52.2686 H   0  0  0  0  0  0  0  0  0  0  0  0
    9.0139   -4.8114  -53.9129 H   0  0  0  0  0  0  0  0  0  0  0  0
    9.9189   -3.7119  -57.8392 H   0  0  0  0  0  0  0  0  0  0  0  0
   11.4737   -5.0515  -59.2528 H   0  0  0  0  0  0  0  0  0  0  0  0
   13.4175   -6.2180  -58.2170 H   0  0  0  0  0  0  0  0  0  0  0  0
   13.8005   -6.0446  -55.7579 H   0  0  0  0  0  0  0  0  0  0  0  0
  1  2  1  0
  2  3  1  0
  2  4  1  0
  4  5  1  0
  5  6  1  0
  6  7  1  0
  6  8  2  0
  8  9  1  0
  8 10  1  0
 10 11  1  0
 11 12  2  0
 11 13  1  0
 13 14  1  0
 14 15  2  0
 15 16  1  0
 16 17  2  0
 17 18  1  0
 18 19  2  0
 19 20  1  0
 20 21  1  0
 21 22  2  0
 22 23  1  0
 23 24  2  0
 24 25  1  0
 25 26  2  0
 26 27  1  0
 20 28  1  0
 28 29  2  0
 10 30  2  0
 30 31  1  0
 30 32  1  0
 32 33  1  0
 32  5  2  0
 29 14  1  0
 29 18  1  0
 26 21  1  0
  1 34  1  0
  1 35  1  0
  1 36  1  0
  2 37  1  0
  3 38  1  0
  3 39  1  0
  3 40  1  0
 13 41  1  0
 16 42  1  0
 17 43  1  0
 19 44  1  0
 22 45  1  0
 23 46  1  0
 24 47  1  0
 25 48  1  0
M  END
>  <meeko>  (35) 
{"is_sidechain": false}

$$$$

     RDKit          3D

 47 50  0  0  0  0  0  0  0  0999 V2000
   11.2880   -2.6700  -52.6530 N   0  0  0  0  0  0  0  0  0  0  0  0
   10.3960   -2.0750  -53.0930 C   0  0  0  0  0  0  0  0  0  0  0  0
    9.2860   -1.3400  -53.6350 C   0  0  0  0  0  0  0  0  0  0  0  0
    9.5480   -0.2870  -54.5290 C   0  0  0  0  0  0  0  0  0  0  0  0
    8.5030    0.4670  -55.0900 C   0  0  0  0  0  0  0  0  0  0  0  0
    8.8540    1.5720  -56.0330 C   0  0  0  0  0  0  0  0  0  0  0  0
    8.1070    2.5440  -56.0760 O   0  0  0  0  0  0  0  0  0  0  0  0
    9.9960    1.4090  -56.7830 N   0  0  0  0  0  0  0  0  0  0  0  0
   10.5300    2.3020  -57.7290 C   0  0  0  0  0  0  0  0  0  0  0  0
   11.7830    2.9490  -57.6780 C   0  0  0  0  0  0  0  0  0  0  0  0
   12.2460    3.8490  -58.6960 C   0  0  0  0  0  0  0  0  0  0  0  0
   11.5100    4.1870  -59.8520 C   0  0  0  0  0  0  0  0  0  0  0  0
   10.2870    3.5300  -59.8650 C   0  0  0  0  0  0  0  0  0  0  0  0
    9.3380    3.6350  -60.8400 C   0  0  0  0  0  0  0  0  0  0  0  0
    8.2950    2.8140  -60.4430 N   0  0  0  0  0  0  0  0  0  0  0  0
    7.0800    2.6210  -61.1740 C   0  0  0  0  0  0  0  0  0  0  0  0
    5.8430    2.2390  -60.6980 C   0  0  0  0  0  0  0  0  0  0  0  0
    5.0420    2.2030  -61.8070 N   0  0  0  0  0  0  0  0  0  0  0  0
    3.6420    1.8510  -61.8420 C   0  0  0  0  0  0  0  0  0  0  0  0
    3.2020    1.3730  -63.2190 C   0  0  0  0  0  0  0  0  0  0  0  0
    3.0710   -0.0440  -63.2100 O   0  0  0  0  0  0  0  0  0  0  0  0
    5.7980    2.5680  -62.8850 C   0  0  0  0  0  0  0  0  0  0  0  0
    7.0410    2.8160  -62.5370 N   0  0  0  0  0  0  0  0  0  0  0  0
    8.5550    2.2000  -59.2520 N   0  0  0  0  0  0  0  0  0  0  0  0
    9.7750    2.6240  -58.8800 C   0  0  0  0  0  0  0  0  0  0  0  0
    7.1930    0.1460  -54.7400 C   0  0  0  0  0  0  0  0  0  0  0  0
    6.1530    0.8270  -55.2400 F   0  0  0  0  0  0  0  0  0  0  0  0
    6.9180   -0.8970  -53.8540 C   0  0  0  0  0  0  0  0  0  0  0  0
    7.9590   -1.6530  -53.2890 C   0  0  0  0  0  0  0  0  0  0  0  0
    7.6470   -2.7790  -52.3320 C   0  0  0  0  0  0  0  0  0  0  0  0
    8.3340   -2.6730  -51.1650 F   0  0  0  0  0  0  0  0  0  0  0  0
    6.3290   -2.8330  -52.0070 F   0  0  0  0  0  0  0  0  0  0  0  0
    7.9550   -4.0070  -52.8340 F   0  0  0  0  0  0  0  0  0  0  0  0
   10.5888   -0.0492  -54.7939 H   0  0  0  0  0  0  0  0  0  0  0  0
   10.5560    0.5620  -56.6780 H   0  0  0  0  0  0  0  0  0  0  0  0
   12.4373    2.7541  -56.8155 H   0  0  0  0  0  0  0  0  0  0  0  0
   13.2388    4.3048  -58.5668 H   0  0  0  0  0  0  0  0  0  0  0  0
   11.8578    4.8765  -60.6353 H   0  0  0  0  0  0  0  0  0  0  0  0
    9.3904    4.2459  -61.7533 H   0  0  0  0  0  0  0  0  0  0  0  0
    5.5628    2.0135  -59.6585 H   0  0  0  0  0  0  0  0  0  0  0  0
    3.4608    1.0469  -61.1136 H   0  0  0  0  0  0  0  0  0  0  0  0
    3.0615    2.7526  -61.5967 H   0  0  0  0  0  0  0  0  0  0  0  0
    2.2339    1.8291  -63.4734 H   0  0  0  0  0  0  0  0  0  0  0  0
    3.9536    1.6669  -63.9665 H   0  0  0  0  0  0  0  0  0  0  0  0
    3.6870   -0.3960  -63.8770 H   0  0  0  0  0  0  0  0  0  0  0  0
    5.4151    2.6446  -63.9134 H   0  0  0  0  0  0  0  0  0  0  0  0
    5.8745   -1.1297  -53.5952 H   0  0  0  0  0  0  0  0  0  0  0  0
  1  2  3  0
  2  3  1  0
  3  4  2  0
  4  5  1  0
  5  6  1  0
  6  7  2  0
  6  8  1  0
  8  9  1  0
  9 10  2  0
 10 11  1  0
 11 12  2  0
 12 13  1  0
 13 14  2  0
 14 15  1  0
 15 16  1  0
 16 17  2  0
 17 18  1  0
 18 19  1  0
 19 20  1  0
 20 21  1  0
 18 22  1  0
 22 23  2  0
 15 24  1  0
 24 25  2  0
  5 26  2  0
 26 27  1  0
 26 28  1  0
 28 29  2  0
 29 30  1  0
 30 31  1  0
 30 32  1  0
 30 33  1  0
 29  3  1  0
 25  9  1  0
 25 13  1  0
 23 16  1  0
  4 34  1  0
  8 35  1  0
 10 36  1  0
 11 37  1  0
 12 38  1  0
 14 39  1  0
 17 40  1  0
 19 41  1  0
 19 42  1  0
 20 43  1  0
 20 44  1  0
 21 45  1  0
 22 46  1  0
 28 47  1  0
M  END
>  <meeko>  (36) 
{"is_sidechain": false}

$$$$

     RDKit          3D

 48 51  0  0  0  0  0  0  0  0999 V2000
   11.2730   -2.7730  -52.6910 N   0  0  0  0  0  0  0  0  0  0  0  0
   10.3840   -2.1550  -53.1040 C   0  0  0  0  0  0  0  0  0  0  0  0
    9.2790   -1.3900  -53.6130 C   0  0  0  0  0  0  0  0  0  0  0  0
    9.5410   -0.3470  -54.5170 C   0  0  0  0  0  0  0  0  0  0  0  0
    8.5000    0.4350  -55.0480 C   0  0  0  0  0  0  0  0  0  0  0  0
    8.8500    1.5280  -56.0040 C   0  0  0  0  0  0  0  0  0  0  0  0
    8.0670    2.4660  -56.1120 O   0  0  0  0  0  0  0  0  0  0  0  0
   10.0350    1.3980  -56.6980 N   0  0  0  0  0  0  0  0  0  0  0  0
   10.5650    2.2950  -57.6420 C   0  0  0  0  0  0  0  0  0  0  0  0
   11.8140    2.9510  -57.5780 C   0  0  0  0  0  0  0  0  0  0  0  0
   12.2870    3.8560  -58.5870 C   0  0  0  0  0  0  0  0  0  0  0  0
   11.5680    4.1940  -59.7510 C   0  0  0  0  0  0  0  0  0  0  0  0
   10.3480    3.5340  -59.7820 C   0  0  0  0  0  0  0  0  0  0  0  0
    9.4150    3.6430  -60.7740 C   0  0  0  0  0  0  0  0  0  0  0  0
    8.3850    2.8240  -60.3850 N   0  0  0  0  0  0  0  0  0  0  0  0
    7.1270    2.6220  -61.1760 C   0  0  0  0  0  0  0  0  0  0  0  0
    5.9000    2.2840  -60.6570 C   0  0  0  0  0  0  0  0  0  0  0  0
    5.0020    2.1960  -61.7160 N   0  0  0  0  0  0  0  0  0  0  0  0
    3.5700    1.8630  -61.5910 C   0  0  0  0  0  0  0  0  0  0  0  0
    2.9200    1.5760  -62.9500 C   0  0  0  0  0  0  0  0  0  0  0  0
    2.9440    0.1770  -63.2200 O   0  0  0  0  0  0  0  0  0  0  0  0
    5.6380    2.4710  -62.8600 C   0  0  0  0  0  0  0  0  0  0  0  0
    6.9130    2.7260  -62.5510 N   0  0  0  0  0  0  0  0  0  0  0  0
    8.6080    2.1950  -59.2060 N   0  0  0  0  0  0  0  0  0  0  0  0
    9.8240    2.6190  -58.8040 C   0  0  0  0  0  0  0  0  0  0  0  0
    7.1930    0.1520  -54.6550 C   0  0  0  0  0  0  0  0  0  0  0  0
    6.1560    0.8620  -55.1270 F   0  0  0  0  0  0  0  0  0  0  0  0
    6.9170   -0.8810  -53.7590 C   0  0  0  0  0  0  0  0  0  0  0  0
    7.9550   -1.6650  -53.2250 C   0  0  0  0  0  0  0  0  0  0  0  0
    7.6420   -2.7800  -52.2540 C   0  0  0  0  0  0  0  0  0  0  0  0
    6.3210   -2.8380  -51.9270 F   0  0  0  0  0  0  0  0  0  0  0  0
    8.3090   -2.6470  -51.0790 F   0  0  0  0  0  0  0  0  0  0  0  0
    7.9540   -4.0040  -52.7510 F   0  0  0  0  0  0  0  0  0  0  0  0
   10.5792   -0.1384  -54.8148 H   0  0  0  0  0  0  0  0  0  0  0  0
   10.6130    0.5780  -56.5360 H   0  0  0  0  0  0  0  0  0  0  0  0
   12.4591    2.7581  -56.7082 H   0  0  0  0  0  0  0  0  0  0  0  0
   13.2757    4.3159  -58.4421 H   0  0  0  0  0  0  0  0  0  0  0  0
   11.9250    4.8859  -60.5281 H   0  0  0  0  0  0  0  0  0  0  0  0
    9.4762    4.2545  -61.6863 H   0  0  0  0  0  0  0  0  0  0  0  0
    5.6694    2.1137  -59.5950 H   0  0  0  0  0  0  0  0  0  0  0  0
    3.4681    0.9717  -60.9545 H   0  0  0  0  0  0  0  0  0  0  0  0
    3.0592    2.7314  -61.1496 H   0  0  0  0  0  0  0  0  0  0  0  0
    1.8771    1.9256  -62.9353 H   0  0  0  0  0  0  0  0  0  0  0  0
    3.4812    2.1034  -63.7354 H   0  0  0  0  0  0  0  0  0  0  0  0
    3.8680   -0.0660  -63.4220 H   0  0  0  0  0  0  0  0  0  0  0  0
    5.1947    2.4847  -63.8666 H   0  0  0  0  0  0  0  0  0  0  0  0
    7.6280    2.9640  -63.2330 H   0  0  0  0  0  0  0  0  0  0  0  0
    5.8761   -1.0844  -53.4671 H   0  0  0  0  0  0  0  0  0  0  0  0
  1  2  3  0
  2  3  1  0
  3  4  2  0
  4  5  1  0
  5  6  1  0
  6  7  2  0
  6  8  1  0
  8  9  1  0
  9 10  2  0
 10 11  1  0
 11 12  2  0
 12 13  1  0
 13 14  2  0
 14 15  1  0
 15 16  1  0
 16 17  2  0
 17 18  1  0
 18 19  1  0
 19 20  1  0
 20 21  1  0
 18 22  1  0
 22 23  2  0
 15 24  1  0
 24 25  2  0
  5 26  2  0
 26 27  1  0
 26 28  1  0
 28 29  2  0
 29 30  1  0
 30 31  1  0
 30 32  1  0
 30 33  1  0
 29  3  1  0
 25  9  1  0
 25 13  1  0
 23 16  1  0
  4 34  1  0
  8 35  1  0
 10 36  1  0
 11 37  1  0
 12 38  1  0
 14 39  1  0
 17 40  1  0
 19 41  1  0
 19 42  1  0
 20 43  1  0
 20 44  1  0
 21 45  1  0
 22 46  1  0
 23 47  1  0
 28 48  1  0
M  CHG  1  23   1
M  END
>  <meeko>  (37) 
{"is_sidechain": false}

$$$$

     RDKit          3D

 53 56  0  0  0  0  0  0  0  0999 V2000
    4.8830   -4.4780  -50.3970 C   0  0  0  0  0  0  0  0  0  0  0  0
    6.2630   -4.4080  -51.0330 C   0  0  0  0  0  0  0  0  0  0  0  0
    6.3820   -3.3460  -52.1310 C   0  0  0  0  0  0  0  0  0  0  0  0
    7.3820   -2.3160  -51.8080 N   0  0  0  0  0  0  0  0  0  0  0  0
    7.8330   -2.2710  -50.4180 C   0  0  0  0  0  0  0  0  0  0  0  0
    9.1740   -3.4160  -50.2050 Cl  0  0  0  0  0  0  0  0  0  0  0  0
    8.0790   -1.6650  -52.8370 C   0  0  0  0  0  0  0  0  0  0  0  0
    7.8900   -0.3050  -53.1650 C   0  0  0  0  0  0  0  0  0  0  0  0
    7.0570    0.4680  -52.4510 F   0  0  0  0  0  0  0  0  0  0  0  0
    8.5700    0.3380  -54.2060 C   0  0  0  0  0  0  0  0  0  0  0  0
    9.4900   -0.3590  -54.9910 C   0  0  0  0  0  0  0  0  0  0  0  0
   10.1910    0.3740  -56.0860 C   0  0  0  0  0  0  0  0  0  0  0  0
   11.2540   -0.0840  -56.4930 O   0  0  0  0  0  0  0  0  0  0  0  0
    9.5830    1.5160  -56.5580 N   0  0  0  0  0  0  0  0  0  0  0  0
   10.0460    2.3710  -57.5740 C   0  0  0  0  0  0  0  0  0  0  0  0
   11.2580    3.0930  -57.5920 C   0  0  0  0  0  0  0  0  0  0  0  0
   11.6500    3.9470  -58.6760 C   0  0  0  0  0  0  0  0  0  0  0  0
   10.8780    4.1610  -59.8370 C   0  0  0  0  0  0  0  0  0  0  0  0
    9.6950    3.4360  -59.7820 C   0  0  0  0  0  0  0  0  0  0  0  0
    8.7250    3.4210  -60.7430 C   0  0  0  0  0  0  0  0  0  0  0  0
    7.7420    2.5740  -60.2720 N   0  0  0  0  0  0  0  0  0  0  0  0
    6.5170    2.2250  -60.9110 C   0  0  0  0  0  0  0  0  0  0  0  0
    6.2550    2.5950  -62.2370 C   0  0  0  0  0  0  0  0  0  0  0  0
    5.0420    2.2380  -62.8380 C   0  0  0  0  0  0  0  0  0  0  0  0
    4.0890    1.5140  -62.1230 C   0  0  0  0  0  0  0  0  0  0  0  0
    4.3430    1.1430  -60.8050 C   0  0  0  0  0  0  0  0  0  0  0  0
    5.5510    1.4960  -60.1980 C   0  0  0  0  0  0  0  0  0  0  0  0
    8.0550    2.0530  -59.0500 N   0  0  0  0  0  0  0  0  0  0  0  0
    9.2530    2.5710  -58.7290 C   0  0  0  0  0  0  0  0  0  0  0  0
    9.7050   -1.6980  -54.7010 C   0  0  0  0  0  0  0  0  0  0  0  0
   10.5790   -2.4260  -55.4160 F   0  0  0  0  0  0  0  0  0  0  0  0
    9.0200   -2.3300  -53.6560 C   0  0  0  0  0  0  0  0  0  0  0  0
    9.2890   -3.6330  -53.4700 F   0  0  0  0  0  0  0  0  0  0  0  0
    4.9834   -4.4729  -49.3016 H   0  0  0  0  0  0  0  0  0  0  0  0
    4.2883   -3.6089  -50.7147 H   0  0  0  0  0  0  0  0  0  0  0  0
    4.3793   -5.4028  -50.7147 H   0  0  0  0  0  0  0  0  0  0  0  0
    6.9967   -4.1779  -50.2464 H   0  0  0  0  0  0  0  0  0  0  0  0
    6.4481   -5.3830  -51.5074 H   0  0  0  0  0  0  0  0  0  0  0  0
    6.6735   -3.8395  -53.0699 H   0  0  0  0  0  0  0  0  0  0  0  0
    5.4054   -2.8484  -52.2240 H   0  0  0  0  0  0  0  0  0  0  0  0
    8.1746   -1.2542  -50.1743 H   0  0  0  0  0  0  0  0  0  0  0  0
    7.0028   -2.5440  -49.7499 H   0  0  0  0  0  0  0  0  0  0  0  0
    8.3776    1.4022  -54.4072 H   0  0  0  0  0  0  0  0  0  0  0  0
    8.6960    1.8170  -56.1560 H   0  0  0  0  0  0  0  0  0  0  0  0
   11.9365    2.9962  -56.7316 H   0  0  0  0  0  0  0  0  0  0  0  0
   12.6151    4.4687  -58.5967 H   0  0  0  0  0  0  0  0  0  0  0  0
   11.1729    4.8133  -60.6722 H   0  0  0  0  0  0  0  0  0  0  0  0
    8.7266    3.9705  -61.6959 H   0  0  0  0  0  0  0  0  0  0  0  0
    7.0031    3.1664  -62.8061 H   0  0  0  0  0  0  0  0  0  0  0  0
    4.8400    2.5301  -63.8791 H   0  0  0  0  0  0  0  0  0  0  0  0
    3.1373    1.2361  -62.5995 H   0  0  0  0  0  0  0  0  0  0  0  0
    3.5915    0.5712  -60.2409 H   0  0  0  0  0  0  0  0  0  0  0  0
    5.7465    1.2015  -59.1564 H   0  0  0  0  0  0  0  0  0  0  0  0
  1  2  1  0
  2  3  1  0
  3  4  1  0
  4  5  1  0
  5  6  1  0
  4  7  1  0
  7  8  1  0
  8  9  1  0
  8 10  2  0
 10 11  1  0
 11 12  1  0
 12 13  2  0
 12 14  1  0
 14 15  1  0
 15 16  2  0
 16 17  1  0
 17 18  2  0
 18 19  1  0
 19 20  2  0
 20 21  1  0
 21 22  1  0
 22 23  2  0
 23 24  1  0
 24 25  2  0
 25 26  1  0
 26 27  2  0
 21 28  1  0
 28 29  2  0
 11 30  2  0
 30 31  1  0
 30 32  1  0
 32 33  1  0
 32  7  2  0
 29 15  1  0
 29 19  1  0
 27 22  1  0
  1 34  1  0
  1 35  1  0
  1 36  1  0
  2 37  1  0
  2 38  1  0
  3 39  1  0
  3 40  1  0
  5 41  1  0
  5 42  1  0
 10 43  1  0
 14 44  1  0
 16 45  1  0
 17 46  1  0
 18 47  1  0
 20 48  1  0
 23 49  1  0
 24 50  1  0
 25 51  1  0
 26 52  1  0
 27 53  1  0
M  END
>  <meeko>  (38) 
{"is_sidechain": false}

$$$$

     RDKit          3D

 56 59  0  0  0  0  0  0  0  0999 V2000
    4.9780   -4.4940  -50.4050 C   0  0  0  0  0  0  0  0  0  0  0  0
    6.3540   -4.5290  -51.0510 C   0  0  0  0  0  0  0  0  0  0  0  0
    6.5300   -3.5170  -52.1880 C   0  0  0  0  0  0  0  0  0  0  0  0
    7.3830   -2.3790  -51.7890 N   0  0  0  0  0  0  0  0  0  0  0  0
    7.8900   -2.4130  -50.4080 C   0  0  0  0  0  0  0  0  0  0  0  0
    9.1630   -3.2430  -50.2980 C   0  0  0  0  0  0  0  0  0  0  0  0
    8.0690   -1.6900  -52.8070 C   0  0  0  0  0  0  0  0  0  0  0  0
    8.9870   -2.3440  -53.6620 C   0  0  0  0  0  0  0  0  0  0  0  0
    9.2320   -3.6570  -53.5260 F   0  0  0  0  0  0  0  0  0  0  0  0
    9.6700   -1.6950  -54.6950 C   0  0  0  0  0  0  0  0  0  0  0  0
    9.4510   -0.3420  -54.9350 C   0  0  0  0  0  0  0  0  0  0  0  0
   10.2000    0.3180  -56.0400 C   0  0  0  0  0  0  0  0  0  0  0  0
   11.2090   -0.2330  -56.4660 O   0  0  0  0  0  0  0  0  0  0  0  0
    9.6570    1.4950  -56.5000 N   0  0  0  0  0  0  0  0  0  0  0  0
   10.1710    2.3300  -57.5060 C   0  0  0  0  0  0  0  0  0  0  0  0
   11.4180    2.9900  -57.5080 C   0  0  0  0  0  0  0  0  0  0  0  0
   11.8610    3.8300  -58.5840 C   0  0  0  0  0  0  0  0  0  0  0  0
   11.1080    4.0910  -59.7480 C   0  0  0  0  0  0  0  0  0  0  0  0
    9.8890    3.4280  -59.7070 C   0  0  0  0  0  0  0  0  0  0  0  0
    8.9260    3.4700  -60.6730 C   0  0  0  0  0  0  0  0  0  0  0  0
    7.8980    2.6710  -60.2150 N   0  0  0  0  0  0  0  0  0  0  0  0
    6.6610    2.3890  -60.8660 C   0  0  0  0  0  0  0  0  0  0  0  0
    6.4780    2.6540  -62.2310 C   0  0  0  0  0  0  0  0  0  0  0  0
    5.2540    2.3680  -62.8430 C   0  0  0  0  0  0  0  0  0  0  0  0
    4.2080    1.8190  -62.1010 C   0  0  0  0  0  0  0  0  0  0  0  0
    4.3830    1.5530  -60.7460 C   0  0  0  0  0  0  0  0  0  0  0  0
    5.6030    1.8360  -60.1270 C   0  0  0  0  0  0  0  0  0  0  0  0
    8.1730    2.1270  -58.9930 N   0  0  0  0  0  0  0  0  0  0  0  0
    9.3970    2.5790  -58.6630 C   0  0  0  0  0  0  0  0  0  0  0  0
    8.5650    0.3520  -54.1170 C   0  0  0  0  0  0  0  0  0  0  0  0
    7.8930   -0.3170  -53.0860 C   0  0  0  0  0  0  0  0  0  0  0  0
    7.0760    0.4430  -52.3410 F   0  0  0  0  0  0  0  0  0  0  0  0
    5.0867   -4.4968  -49.3104 H   0  0  0  0  0  0  0  0  0  0  0  0
    4.4488   -3.5821  -50.7186 H   0  0  0  0  0  0  0  0  0  0  0  0
    4.4031   -5.3778  -50.7186 H   0  0  0  0  0  0  0  0  0  0  0  0
    7.1059   -4.3152  -50.2771 H   0  0  0  0  0  0  0  0  0  0  0  0
    6.4755   -5.5296  -51.4914 H   0  0  0  0  0  0  0  0  0  0  0  0
    6.9939   -4.0246  -53.0466 H   0  0  0  0  0  0  0  0  0  0  0  0
    5.5368   -3.1222  -52.4482 H   0  0  0  0  0  0  0  0  0  0  0  0
    8.1049   -1.3849  -50.0812 H   0  0  0  0  0  0  0  0  0  0  0  0
    7.1218   -2.8754  -49.7708 H   0  0  0  0  0  0  0  0  0  0  0  0
    9.4066   -3.4018  -49.2371 H   0  0  0  0  0  0  0  0  0  0  0  0
    9.0102   -4.2155  -50.7887 H   0  0  0  0  0  0  0  0  0  0  0  0
    9.9912   -2.7108  -50.7887 H   0  0  0  0  0  0  0  0  0  0  0  0
   10.3818   -2.2551  -55.3192 H   0  0  0  0  0  0  0  0  0  0  0  0
    8.7570    1.8090  -56.1480 H   0  0  0  0  0  0  0  0  0  0  0  0
   12.0832    2.8541  -56.6425 H   0  0  0  0  0  0  0  0  0  0  0  0
   12.8513    4.3005  -58.4954 H   0  0  0  0  0  0  0  0  0  0  0  0
   11.4417    4.7332  -60.5764 H   0  0  0  0  0  0  0  0  0  0  0  0
    8.9617    4.0261  -61.6214 H   0  0  0  0  0  0  0  0  0  0  0  0
    7.2989    3.0876  -62.8210 H   0  0  0  0  0  0  0  0  0  0  0  0
    5.1152    2.5767  -63.9141 H   0  0  0  0  0  0  0  0  0  0  0  0
    3.2461    1.5966  -62.5861 H   0  0  0  0  0  0  0  0  0  0  0  0
    3.5587    1.1189  -60.1611 H   0  0  0  0  0  0  0  0  0  0  0  0
    5.7353    1.6246  -59.0556 H   0  0  0  0  0  0  0  0  0  0  0  0
    8.3922    1.4261  -54.2799 H   0  0  0  0  0  0  0  0  0  0  0  0
  1  2  1  0
  2  3  1  0
  3  4  1  0
  4  5  1  0
  5  6  1  0
  4  7  1  0
  7  8  1  0
  8  9  1  0
  8 10  2  0
 10 11  1  0
 11 12  1  0
 12 13  2  0
 12 14  1  0
 14 15  1  0
 15 16  2  0
 16 17  1  0
 17 18  2  0
 18 19  1  0
 19 20  2  0
 20 21  1  0
 21 22  1  0
 22 23  2  0
 23 24  1  0
 24 25  2  0
 25 26  1  0
 26 27  2  0
 21 28  1  0
 28 29  2  0
 11 30  2  0
 30 31  1  0
 31 32  1  0
 31  7  2  0
 29 15  1  0
 29 19  1  0
 27 22  1  0
  1 33  1  0
  1 34  1  0
  1 35  1  0
  2 36  1  0
  2 37  1  0
  3 38  1  0
  3 39  1  0
  5 40  1  0
  5 41  1  0
  6 42  1  0
  6 43  1  0
  6 44  1  0
 10 45  1  0
 14 46  1  0
 16 47  1  0
 17 48  1  0
 18 49  1  0
 20 50  1  0
 23 51  1  0
 24 52  1  0
 25 53  1  0
 26 54  1  0
 27 55  1  0
 30 56  1  0
M  END
>  <meeko>  (39) 
{"is_sidechain": false}

$$$$

     RDKit          3D

 58 61  0  0  0  0  0  0  0  0999 V2000
    5.1360   -4.1180  -50.3810 C   0  0  0  0  0  0  0  0  0  0  0  0
    6.3210   -4.6490  -51.1780 C   0  0  0  0  0  0  0  0  0  0  0  0
    6.6960   -3.7420  -52.3550 C   0  0  0  0  0  0  0  0  0  0  0  0
    7.9840   -3.0460  -52.1350 N   0  0  0  0  0  0  0  0  0  0  0  0
    8.1900   -2.6560  -50.7310 C   0  0  0  0  0  0  0  0  0  0  0  0
    9.4790   -3.6540  -50.0240 Cl  0  0  0  0  0  0  0  0  0  0  0  0
    8.1840   -1.9730  -53.0460 C   0  0  0  0  0  0  0  0  0  0  0  0
    9.3950   -1.8840  -53.7520 C   0  0  0  0  0  0  0  0  0  0  0  0
   10.3400   -2.8220  -53.5790 F   0  0  0  0  0  0  0  0  0  0  0  0
    9.6460   -0.8440  -54.6460 C   0  0  0  0  0  0  0  0  0  0  0  0
   10.8260   -0.8240  -55.2870 F   0  0  0  0  0  0  0  0  0  0  0  0
    8.6970    0.1520  -54.8740 C   0  0  0  0  0  0  0  0  0  0  0  0
    8.9420    1.2800  -55.8110 C   0  0  0  0  0  0  0  0  0  0  0  0
    8.0350    2.0840  -55.9850 O   0  0  0  0  0  0  0  0  0  0  0  0
   10.2140    1.3580  -56.3510 N   0  0  0  0  0  0  0  0  0  0  0  0
   10.6420    2.2290  -57.3720 C   0  0  0  0  0  0  0  0  0  0  0  0
   11.9180    2.8400  -57.2540 C   0  0  0  0  0  0  0  0  0  0  0  0
   12.4690    3.7420  -58.2170 C   0  0  0  0  0  0  0  0  0  0  0  0
   11.8120    4.1140  -59.4050 C   0  0  0  0  0  0  0  0  0  0  0  0
   10.5850    3.4750  -59.5150 C   0  0  0  0  0  0  0  0  0  0  0  0
    9.7280    3.6130  -60.5720 C   0  0  0  0  0  0  0  0  0  0  0  0
    8.6500    2.8100  -60.2750 N   0  0  0  0  0  0  0  0  0  0  0  0
    7.4590    2.6280  -61.0380 C   0  0  0  0  0  0  0  0  0  0  0  0
    7.5370    2.6380  -62.4430 C   0  0  0  0  0  0  0  0  0  0  0  0
    6.3930    2.4460  -63.2220 C   0  0  0  0  0  0  0  0  0  0  0  0
    5.1580    2.2510  -62.6090 C   0  0  0  0  0  0  0  0  0  0  0  0
    5.0770    2.2560  -61.2130 C   0  0  0  0  0  0  0  0  0  0  0  0
    3.4960    2.0180  -60.4460 S   0  0  0  0  0  0  0  0  0  0  0  0
    3.1050    0.4620  -60.9570 N   0  0  0  0  0  0  0  0  0  0  0  0
    3.6820    1.9880  -59.0150 O   0  0  0  0  0  0  0  0  0  0  0  0
    2.5380    2.8850  -61.0900 O   0  0  0  0  0  0  0  0  0  0  0  0
    6.2190    2.4300  -60.4190 C   0  0  0  0  0  0  0  0  0  0  0  0
    8.8290    2.1220  -59.1230 N   0  0  0  0  0  0  0  0  0  0  0  0
    9.9760    2.5580  -58.5820 C   0  0  0  0  0  0  0  0  0  0  0  0
    7.4840    0.0740  -54.1850 C   0  0  0  0  0  0  0  0  0  0  0  0
    6.5080    0.9720  -54.3830 F   0  0  0  0  0  0  0  0  0  0  0  0
    7.2370   -0.9670  -53.2880 C   0  0  0  0  0  0  0  0  0  0  0  0
    6.0520   -1.0060  -52.6570 F   0  0  0  0  0  0  0  0  0  0  0  0
    5.3459   -4.2121  -49.3053 H   0  0  0  0  0  0  0  0  0  0  0  0
    4.9706   -3.0597  -50.6311 H   0  0  0  0  0  0  0  0  0  0  0  0
    4.2360   -4.6989  -50.6311 H   0  0  0  0  0  0  0  0  0  0  0  0
    7.1884   -4.7309  -50.5065 H   0  0  0  0  0  0  0  0  0  0  0  0
    6.0324   -5.6269  -51.5908 H   0  0  0  0  0  0  0  0  0  0  0  0
    6.7756   -4.3559  -53.2643 H   0  0  0  0  0  0  0  0  0  0  0  0
    5.9115   -2.9776  -52.4562 H   0  0  0  0  0  0  0  0  0  0  0  0
    8.4789   -1.5957  -50.6833 H   0  0  0  0  0  0  0  0  0  0  0  0
    7.2576   -2.8069  -50.1672 H   0  0  0  0  0  0  0  0  0  0  0  0
   10.9490    0.8270  -55.8970 H   0  0  0  0  0  0  0  0  0  0  0  0
   12.5214    2.6045  -56.3649 H   0  0  0  0  0  0  0  0  0  0  0  0
   13.4628    4.1695  -58.0181 H   0  0  0  0  0  0  0  0  0  0  0  0
   12.2172    4.8175  -60.1473 H   0  0  0  0  0  0  0  0  0  0  0  0
    9.8700    4.2338  -61.4689 H   0  0  0  0  0  0  0  0  0  0  0  0
    8.5086    2.7986  -62.9331 H   0  0  0  0  0  0  0  0  0  0  0  0
    6.4680    2.4489  -64.3194 H   0  0  0  0  0  0  0  0  0  0  0  0
    4.2548    2.0945  -63.2171 H   0  0  0  0  0  0  0  0  0  0  0  0
    2.3300    0.5160  -61.6180 H   0  0  0  0  0  0  0  0  0  0  0  0
    3.9000   -0.0520  -61.3380 H   0  0  0  0  0  0  0  0  0  0  0  0
    6.1417    2.4112  -59.3219 H   0  0  0  0  0  0  0  0  0  0  0  0
  1  2  1  0
  2  3  1  0
  3  4  1  0
  4  5  1  0
  5  6  1  0
  4  7  1  0
  7  8  1  0
  8  9  1  0
  8 10  2  0
 10 11  1  0
 10 12  1  0
 12 13  1  0
 13 14  2  0
 13 15  1  0
 15 16  1  0
 16 17  2  0
 17 18  1  0
 18 19  2  0
 19 20  1  0
 20 21  2  0
 21 22  1  0
 22 23  1  0
 23 24  1  0
 24 25  2  0
 25 26  1  0
 26 27  2  0
 27 28  1  0
 28 29  1  0
 28 30  2  0
 28 31  2  0
 27 32  1  0
 22 33  1  0
 33 34  2  0
 12 35  2  0
 35 36  1  0
 35 37  1  0
 37 38  1  0
 37  7  2  0
 34 16  1  0
 34 20  1  0
 32 23  2  0
  1 39  1  0
  1 40  1  0
  1 41  1  0
  2 42  1  0
  2 43  1  0
  3 44  1  0
  3 45  1  0
  5 46  1  0
  5 47  1  0
 15 48  1  0
 17 49  1  0
 18 50  1  0
 19 51  1  0
 21 52  1  0
 24 53  1  0
 25 54  1  0
 26 55  1  0
 29 56  1  0
 29 57  1  0
 32 58  1  0
M  END
>  <meeko>  (40) 
{"is_sidechain": false}

$$$$

     RDKit          3D

 55 58  0  0  0  0  0  0  0  0999 V2000
   10.3190    5.2790  -58.3270 C   0  0  0  0  0  0  0  0  0  0  0  0
    8.8380    5.6300  -58.3110 C   0  0  0  0  0  0  0  0  0  0  0  0
    8.1070    5.2230  -59.5940 C   0  0  0  0  0  0  0  0  0  0  0  0
    7.8520    3.7730  -59.6550 N   0  0  0  0  0  0  0  0  0  0  0  0
    8.1490    3.1410  -60.9520 C   0  0  0  0  0  0  0  0  0  0  0  0
    9.6050    3.3500  -61.3430 C   0  0  0  0  0  0  0  0  0  0  0  0
    7.2490    3.0720  -58.6060 C   0  0  0  0  0  0  0  0  0  0  0  0
    5.8460    2.9990  -58.4940 C   0  0  0  0  0  0  0  0  0  0  0  0
    5.2080    2.3030  -57.4610 C   0  0  0  0  0  0  0  0  0  0  0  0
    5.9580    1.6480  -56.4980 C   0  0  0  0  0  0  0  0  0  0  0  0
    5.2990    1.0240  -55.5120 F   0  0  0  0  0  0  0  0  0  0  0  0
    7.3460    1.6770  -56.5500 C   0  0  0  0  0  0  0  0  0  0  0  0
    8.1250    0.9500  -55.5120 C   0  0  0  0  0  0  0  0  0  0  0  0
    9.2780    1.3080  -55.3060 O   0  0  0  0  0  0  0  0  0  0  0  0
    7.4360   -0.0320  -54.8230 N   0  0  0  0  0  0  0  0  0  0  0  0
    7.9700   -0.9540  -53.9010 C   0  0  0  0  0  0  0  0  0  0  0  0
    7.4440   -0.9670  -52.5800 C   0  0  0  0  0  0  0  0  0  0  0  0
    7.8930   -1.8490  -51.5460 C   0  0  0  0  0  0  0  0  0  0  0  0
    8.8990   -2.8160  -51.7260 C   0  0  0  0  0  0  0  0  0  0  0  0
    9.3720   -2.8060  -53.0320 C   0  0  0  0  0  0  0  0  0  0  0  0
   10.3300   -3.6490  -53.5160 C   0  0  0  0  0  0  0  0  0  0  0  0
   10.4810   -3.3040  -54.8410 N   0  0  0  0  0  0  0  0  0  0  0  0
   11.4070   -3.8920  -55.7570 C   0  0  0  0  0  0  0  0  0  0  0  0
   11.5320   -3.3450  -57.0330 C   0  0  0  0  0  0  0  0  0  0  0  0
   12.4390   -3.9220  -57.9200 C   0  0  0  0  0  0  0  0  0  0  0  0
   13.1900   -5.0190  -57.5110 C   0  0  0  0  0  0  0  0  0  0  0  0
   13.0050   -5.4980  -56.2240 C   0  0  0  0  0  0  0  0  0  0  0  0
   12.1360   -4.9640  -55.3380 N   0  0  0  0  0  0  0  0  0  0  0  0
    9.6190   -2.3280  -55.2240 N   0  0  0  0  0  0  0  0  0  0  0  0
    8.9600   -1.9460  -54.1180 C   0  0  0  0  0  0  0  0  0  0  0  0
    7.9690    2.3820  -57.5930 C   0  0  0  0  0  0  0  0  0  0  0  0
    9.3130    2.3910  -57.6110 F   0  0  0  0  0  0  0  0  0  0  0  0
   10.6864    5.1919  -57.2938 H   0  0  0  0  0  0  0  0  0  0  0  0
   10.4633    4.3218  -58.8494 H   0  0  0  0  0  0  0  0  0  0  0  0
   10.8776    6.0696  -58.8494 H   0  0  0  0  0  0  0  0  0  0  0  0
    8.3659    5.1150  -57.4614 H   0  0  0  0  0  0  0  0  0  0  0  0
    8.7625    6.7240  -58.2251 H   0  0  0  0  0  0  0  0  0  0  0  0
    7.1445    5.7538  -59.6365 H   0  0  0  0  0  0  0  0  0  0  0  0
    8.7494    5.4884  -60.4466 H   0  0  0  0  0  0  0  0  0  0  0  0
    7.9476    2.0620  -60.8803 H   0  0  0  0  0  0  0  0  0  0  0  0
    7.5113    3.6032  -61.7199 H   0  0  0  0  0  0  0  0  0  0  0  0
   10.2195    3.4382  -60.4349 H   0  0  0  0  0  0  0  0  0  0  0  0
    9.9515    2.4924  -61.9383 H   0  0  0  0  0  0  0  0  0  0  0  0
    9.6963    4.2705  -61.9383 H   0  0  0  0  0  0  0  0  0  0  0  0
    5.2283    3.5090  -59.2479 H   0  0  0  0  0  0  0  0  0  0  0  0
    4.1093    2.2760  -57.4137 H   0  0  0  0  0  0  0  0  0  0  0  0
    6.4260   -0.0150  -54.8930 H   0  0  0  0  0  0  0  0  0  0  0  0
    6.6417   -0.2546  -52.3375 H   0  0  0  0  0  0  0  0  0  0  0  0
    7.4248   -1.7661  -50.5541 H   0  0  0  0  0  0  0  0  0  0  0  0
    9.2628   -3.4906  -50.9370 H   0  0  0  0  0  0  0  0  0  0  0  0
   10.8668   -4.4358  -52.9657 H   0  0  0  0  0  0  0  0  0  0  0  0
   10.9276   -2.4764  -57.3335 H   0  0  0  0  0  0  0  0  0  0  0  0
   12.5598   -3.5136  -58.9342 H   0  0  0  0  0  0  0  0  0  0  0  0
   13.9120   -5.4939  -58.1915 H   0  0  0  0  0  0  0  0  0  0  0  0
   13.6016   -6.3652  -55.9045 H   0  0  0  0  0  0  0  0  0  0  0  0
  1  2  1  0
  2  3  1  0
  3  4  1  0
  4  5  1  0
  5  6  1  0
  4  7  1  0
  7  8  1  0
  8  9  2  0
  9 10  1  0
 10 11  1  0
 10 12  2  0
 12 13  1  0
 13 14  2  0
 13 15  1  0
 15 16  1  0
 16 17  2  0
 17 18  1  0
 18 19  2  0
 19 20  1  0
 20 21  2  0
 21 22  1  0
 22 23  1  0
 23 24  2  0
 24 25  1  0
 25 26  2  0
 26 27  1  0
 27 28  2  0
 22 29  1  0
 29 30  2  0
 12 31  1  0
 31 32  1  0
 31  7  2  0
 30 16  1  0
 30 20  1  0
 28 23  1  0
  1 33  1  0
  1 34  1  0
  1 35  1  0
  2 36  1  0
  2 37  1  0
  3 38  1  0
  3 39  1  0
  5 40  1  0
  5 41  1  0
  6 42  1  0
  6 43  1  0
  6 44  1  0
  8 45  1  0
  9 46  1  0
 15 47  1  0
 17 48  1  0
 18 49  1  0
 19 50  1  0
 21 51  1  0
 24 52  1  0
 25 53  1  0
 26 54  1  0
 27 55  1  0
M  END
>  <meeko>  (41) 
{"is_sidechain": false}

$$$$

     RDKit          3D

 60 64  0  0  0  0  0  0  0  0999 V2000
    7.0110   -4.8050  -52.2770 C   0  0  0  0  0  0  0  0  0  0  0  0
    6.8800   -4.8170  -50.7760 N   0  0  0  0  0  0  0  0  0  0  0  0
    5.6420   -4.0710  -50.3410 C   0  0  0  0  0  0  0  0  0  0  0  0
    8.1160   -4.2970  -50.0580 C   0  0  0  0  0  0  0  0  0  0  0  0
    8.5840   -2.9360  -50.5250 C   0  0  0  0  0  0  0  0  0  0  0  0
    8.9410   -2.8610  -52.0220 C   0  0  0  0  0  0  0  0  0  0  0  0
    8.2830   -1.5860  -52.0270 N   0  0  0  0  0  0  0  0  0  0  0  0
    7.8960   -0.8270  -53.1530 C   0  0  0  0  0  0  0  0  0  0  0  0
    8.8480   -0.1190  -53.8930 C   0  0  0  0  0  0  0  0  0  0  0  0
    8.4760    0.6300  -55.0140 C   0  0  0  0  0  0  0  0  0  0  0  0
    9.4560    1.2640  -55.6730 F   0  0  0  0  0  0  0  0  0  0  0  0
    7.1480    0.6960  -55.4390 C   0  0  0  0  0  0  0  0  0  0  0  0
    6.7870    1.5350  -56.6110 C   0  0  0  0  0  0  0  0  0  0  0  0
    6.2630    2.6240  -56.4090 O   0  0  0  0  0  0  0  0  0  0  0  0
    7.0720    1.0060  -57.8510 N   0  0  0  0  0  0  0  0  0  0  0  0
    6.8520    1.6050  -59.1030 C   0  0  0  0  0  0  0  0  0  0  0  0
    5.7190    1.4580  -59.9300 C   0  0  0  0  0  0  0  0  0  0  0  0
    5.5800    2.1130  -61.1990 C   0  0  0  0  0  0  0  0  0  0  0  0
    6.5480    2.9720  -61.7590 C   0  0  0  0  0  0  0  0  0  0  0  0
    7.6450    3.0930  -60.9160 C   0  0  0  0  0  0  0  0  0  0  0  0
    8.7560    3.8480  -61.1590 C   0  0  0  0  0  0  0  0  0  0  0  0
    9.5790    3.6710  -60.0650 N   0  0  0  0  0  0  0  0  0  0  0  0
   10.8620    4.2490  -59.8400 C   0  0  0  0  0  0  0  0  0  0  0  0
   11.0640    5.6120  -60.1130 C   0  0  0  0  0  0  0  0  0  0  0  0
   12.3140    6.1980  -59.8990 C   0  0  0  0  0  0  0  0  0  0  0  0
   13.3700    5.4310  -59.4120 C   0  0  0  0  0  0  0  0  0  0  0  0
   13.1780    4.0780  -59.1380 C   0  0  0  0  0  0  0  0  0  0  0  0
   11.9310    3.4850  -59.3500 C   0  0  0  0  0  0  0  0  0  0  0  0
    9.0280    2.8330  -59.1370 N   0  0  0  0  0  0  0  0  0  0  0  0
    7.8380    2.4640  -59.6440 C   0  0  0  0  0  0  0  0  0  0  0  0
    6.1980   -0.0230  -54.7170 C   0  0  0  0  0  0  0  0  0  0  0  0
    4.9050   -0.0070  -55.0740 F   0  0  0  0  0  0  0  0  0  0  0  0
    6.5650   -0.7720  -53.5970 C   0  0  0  0  0  0  0  0  0  0  0  0
    5.6090   -1.4400  -52.9330 F   0  0  0  0  0  0  0  0  0  0  0  0
    7.5040   -1.8920  -50.8670 C   0  0  0  0  0  0  0  0  0  0  0  0
    8.0717   -4.7078  -52.5517 H   0  0  0  0  0  0  0  0  0  0  0  0
    6.6104   -5.7436  -52.6875 H   0  0  0  0  0  0  0  0  0  0  0  0
    6.4465   -3.9548  -52.6875 H   0  0  0  0  0  0  0  0  0  0  0  0
    6.7370   -5.7960  -50.4950 H   0  0  0  0  0  0  0  0  0  0  0  0
    5.5973   -4.0440  -49.2422 H   0  0  0  0  0  0  0  0  0  0  0  0
    5.6768   -3.0434  -50.7319 H   0  0  0  0  0  0  0  0  0  0  0  0
    4.7497   -4.5819  -50.7319 H   0  0  0  0  0  0  0  0  0  0  0  0
    7.8882   -4.2325  -48.9838 H   0  0  0  0  0  0  0  0  0  0  0  0
    8.9295   -5.0027  -50.2823 H   0  0  0  0  0  0  0  0  0  0  0  0
    9.3029   -2.7761  -49.7079 H   0  0  0  0  0  0  0  0  0  0  0  0
   10.0188   -2.8258  -52.2390 H   0  0  0  0  0  0  0  0  0  0  0  0
    8.6754   -3.6608  -52.7290 H   0  0  0  0  0  0  0  0  0  0  0  0
    9.9047   -0.1516  -53.5891 H   0  0  0  0  0  0  0  0  0  0  0  0
    7.4650    0.0680  -57.9260 H   0  0  0  0  0  0  0  0  0  0  0  0
    4.9009    0.8087  -59.5848 H   0  0  0  0  0  0  0  0  0  0  0  0
    4.6585    1.9334  -61.7723 H   0  0  0  0  0  0  0  0  0  0  0  0
    6.4479    3.4773  -62.7309 H   0  0  0  0  0  0  0  0  0  0  0  0
    8.9546    4.4696  -62.0445 H   0  0  0  0  0  0  0  0  0  0  0  0
   10.2330    6.2216  -60.4976 H   0  0  0  0  0  0  0  0  0  0  0  0
   12.4645    7.2660  -60.1152 H   0  0  0  0  0  0  0  0  0  0  0  0
   14.3542    5.8926  -59.2439 H   0  0  0  0  0  0  0  0  0  0  0  0
   14.0127    3.4739  -58.7528 H   0  0  0  0  0  0  0  0  0  0  0  0
   11.7873    2.4164  -59.1321 H   0  0  0  0  0  0  0  0  0  0  0  0
    7.4115   -1.0692  -50.1428 H   0  0  0  0  0  0  0  0  0  0  0  0
    6.4373   -2.1530  -50.9307 H   0  0  0  0  0  0  0  0  0  0  0  0
  1  2  1  0
  2  3  1  0
  2  4  1  0
  4  5  1  0
  5  6  1  0
  6  7  1  0
  7  8  1  0
  8  9  1  0
  9 10  2  0
 10 11  1  0
 10 12  1  0
 12 13  1  0
 13 14  2  0
 13 15  1  0
 15 16  1  0
 16 17  2  0
 17 18  1  0
 18 19  2  0
 19 20  1  0
 20 21  2  0
 21 22  1  0
 22 23  1  0
 23 24  2  0
 24 25  1  0
 25 26  2  0
 26 27  1  0
 27 28  2  0
 22 29  1  0
 29 30  2  0
 12 31  2  0
 31 32  1  0
 31 33  1  0
 33 34  1  0
  7 35  1  0
 35  5  1  0
 33  8  2  0
 30 16  1  0
 30 20  1  0
 28 23  1  0
  1 36  1  0
  1 37  1  0
  1 38  1  0
  2 39  1  0
  3 40  1  0
  3 41  1  0
  3 42  1  0
  4 43  1  0
  4 44  1  0
  5 45  1  0
  6 46  1  0
  6 47  1  0
  9 48  1  0
 15 49  1  0
 17 50  1  0
 18 51  1  0
 19 52  1  0
 21 53  1  0
 24 54  1  0
 25 55  1  0
 26 56  1  0
 27 57  1  0
 28 58  1  0
 35 59  1  0
 35 60  1  0
M  CHG  1   2   1
M  END
>  <meeko>  (42) 
{"is_sidechain": false}

$$$$

     RDKit          3D

 71 75  0  0  0  0  0  0  0  0999 V2000
   11.4990   -2.3050  -56.4600 C   0  0  0  0  0  0  0  0  0  0  0  0
   10.7690   -1.2850  -55.5980 C   0  0  0  0  0  0  0  0  0  0  0  0
   10.1830   -1.9200  -54.3590 N   0  0  0  0  0  0  0  0  0  0  0  0
   10.9950   -1.5150  -53.1500 C   0  0  0  0  0  0  0  0  0  0  0  0
   11.5600   -2.6880  -52.3620 C   0  0  0  0  0  0  0  0  0  0  0  0
    8.8230   -1.4010  -54.2690 C   0  0  0  0  0  0  0  0  0  0  0  0
    8.3260   -0.5130  -55.2570 C   0  0  0  0  0  0  0  0  0  0  0  0
    7.0400    0.0490  -55.1870 C   0  0  0  0  0  0  0  0  0  0  0  0
    6.6190    0.9860  -56.2710 C   0  0  0  0  0  0  0  0  0  0  0  0
    5.9300    1.9500  -55.9540 O   0  0  0  0  0  0  0  0  0  0  0  0
    7.0390    0.6880  -57.5460 N   0  0  0  0  0  0  0  0  0  0  0  0
    6.7760    1.4110  -58.7220 C   0  0  0  0  0  0  0  0  0  0  0  0
    5.6180    1.3390  -59.5240 C   0  0  0  0  0  0  0  0  0  0  0  0
    5.4340    2.1180  -60.7150 C   0  0  0  0  0  0  0  0  0  0  0  0
    6.3810    3.0370  -61.2140 C   0  0  0  0  0  0  0  0  0  0  0  0
    7.5040    3.0810  -60.4000 C   0  0  0  0  0  0  0  0  0  0  0  0
    8.6030    3.8660  -60.6000 C   0  0  0  0  0  0  0  0  0  0  0  0
    9.4610    3.5860  -59.5550 N   0  0  0  0  0  0  0  0  0  0  0  0
   10.7480    4.1500  -59.3130 C   0  0  0  0  0  0  0  0  0  0  0  0
   11.6820    3.5070  -58.4880 C   0  0  0  0  0  0  0  0  0  0  0  0
   12.9360    4.0840  -58.2690 C   0  0  0  0  0  0  0  0  0  0  0  0
   13.2670    5.2990  -58.8680 C   0  0  0  0  0  0  0  0  0  0  0  0
   12.3450    5.9430  -59.6890 C   0  0  0  0  0  0  0  0  0  0  0  0
   11.0890    5.3720  -59.9120 C   0  0  0  0  0  0  0  0  0  0  0  0
    8.9460    2.6510  -58.7030 N   0  0  0  0  0  0  0  0  0  0  0  0
    7.7410    2.3280  -59.2040 C   0  0  0  0  0  0  0  0  0  0  0  0
    6.2350   -0.2920  -54.1100 C   0  0  0  0  0  0  0  0  0  0  0  0
    5.0000    0.2120  -53.9760 F   0  0  0  0  0  0  0  0  0  0  0  0
    6.6850   -1.1780  -53.1350 C   0  0  0  0  0  0  0  0  0  0  0  0
    7.9640   -1.7640  -53.1950 C   0  0  0  0  0  0  0  0  0  0  0  0
    8.2720   -2.6540  -52.1690 N   0  0  0  0  0  0  0  0  0  0  0  0
    8.1380   -4.0860  -52.4710 C   0  0  0  0  0  0  0  0  0  0  0  0
    6.8370   -4.6830  -51.8930 C   0  0  0  0  0  0  0  0  0  0  0  0
    6.1450   -3.7020  -50.9620 N   0  0  0  0  0  0  0  0  0  0  0  0
    4.9130   -4.2370  -50.3360 C   0  0  0  0  0  0  0  0  0  0  0  0
    7.1360   -3.1010  -49.9900 C   0  0  0  0  0  0  0  0  0  0  0  0
    8.1540   -2.2380  -50.7630 C   0  0  0  0  0  0  0  0  0  0  0  0
   12.0167   -3.0284  -55.8130 H   0  0  0  0  0  0  0  0  0  0  0  0
   10.7736   -2.8346  -57.0950 H   0  0  0  0  0  0  0  0  0  0  0  0
   12.2343   -1.7892  -57.0950 H   0  0  0  0  0  0  0  0  0  0  0  0
   11.4784   -0.5007  -55.2954 H   0  0  0  0  0  0  0  0  0  0  0  0
    9.9441   -0.8622  -56.1903 H   0  0  0  0  0  0  0  0  0  0  0  0
   11.8343   -0.8908  -53.4904 H   0  0  0  0  0  0  0  0  0  0  0  0
   10.3134   -0.9771  -52.4747 H   0  0  0  0  0  0  0  0  0  0  0  0
   11.4631   -2.4868  -51.2849 H   0  0  0  0  0  0  0  0  0  0  0  0
   11.0035   -3.6023  -52.6158 H   0  0  0  0  0  0  0  0  0  0  0  0
   12.6218   -2.8228  -52.6158 H   0  0  0  0  0  0  0  0  0  0  0  0
    8.9712   -0.2547  -56.1097 H   0  0  0  0  0  0  0  0  0  0  0  0
    7.6090   -0.1420  -57.7090 H   0  0  0  0  0  0  0  0  0  0  0  0
    4.8152    0.6507  -59.2211 H   0  0  0  0  0  0  0  0  0  0  0  0
    4.4953    1.9906  -61.2742 H   0  0  0  0  0  0  0  0  0  0  0  0
    6.2472    3.6378  -62.1257 H   0  0  0  0  0  0  0  0  0  0  0  0
    8.7704    4.5754  -61.4239 H   0  0  0  0  0  0  0  0  0  0  0  0
   11.4276    2.5480  -58.0130 H   0  0  0  0  0  0  0  0  0  0  0  0
   13.6658    3.5770  -57.6206 H   0  0  0  0  0  0  0  0  0  0  0  0
   14.2555    5.7483  -58.6921 H   0  0  0  0  0  0  0  0  0  0  0  0
   12.6052    6.9013  -60.1621 H   0  0  0  0  0  0  0  0  0  0  0  0
   10.3633    5.8839  -60.5612 H   0  0  0  0  0  0  0  0  0  0  0  0
    6.0222   -1.4275  -52.2933 H   0  0  0  0  0  0  0  0  0  0  0  0
    8.1347   -4.2193  -53.5629 H   0  0  0  0  0  0  0  0  0  0  0  0
    8.9863   -4.6105  -52.0070 H   0  0  0  0  0  0  0  0  0  0  0  0
    6.1574   -4.9307  -52.7217 H   0  0  0  0  0  0  0  0  0  0  0  0
    7.0945   -5.5846  -51.3178 H   0  0  0  0  0  0  0  0  0  0  0  0
    5.8980   -2.8880  -51.5780 H   0  0  0  0  0  0  0  0  0  0  0  0
    5.0100   -4.1949  -49.2411 H   0  0  0  0  0  0  0  0  0  0  0  0
    4.0495   -3.6328  -50.6511 H   0  0  0  0  0  0  0  0  0  0  0  0
    4.7650   -5.2805  -50.6511 H   0  0  0  0  0  0  0  0  0  0  0  0
    6.6012   -2.4735  -49.2618 H   0  0  0  0  0  0  0  0  0  0  0  0
    7.6652   -3.9067  -49.4602 H   0  0  0  0  0  0  0  0  0  0  0  0
    7.8279   -1.1880  -50.7292 H   0  0  0  0  0  0  0  0  0  0  0  0
    9.1377   -2.3639  -50.2871 H   0  0  0  0  0  0  0  0  0  0  0  0
  1  2  1  0
  2  3  1  0
  3  4  1  0
  4  5  1  0
  3  6  1  0
  6  7  1  0
  7  8  2  0
  8  9  1  0
  9 10  2  0
  9 11  1  0
 11 12  1  0
 12 13  2  0
 13 14  1  0
 14 15  2  0
 15 16  1  0
 16 17  2  0
 17 18  1  0
 18 19  1  0
 19 20  2  0
 20 21  1  0
 21 22  2  0
 22 23  1  0
 23 24  2  0
 18 25  1  0
 25 26  2  0
  8 27  1  0
 27 28  1  0
 27 29  2  0
 29 30  1  0
 30 31  1  0
 31 32  1  0
 32 33  1  0
 33 34  1  0
 34 35  1  0
 34 36  1  0
 36 37  1  0
 30  6  2  0
 37 31  1  0
 26 12  1  0
 26 16  1  0
 24 19  1  0
  1 38  1  0
  1 39  1  0
  1 40  1  0
  2 41  1  0
  2 42  1  0
  4 43  1  0
  4 44  1  0
  5 45  1  0
  5 46  1  0
  5 47  1  0
  7 48  1  0
 11 49  1  0
 13 50  1  0
 14 51  1  0
 15 52  1  0
 17 53  1  0
 20 54  1  0
 21 55  1  0
 22 56  1  0
 23 57  1  0
 24 58  1  0
 29 59  1  0
 32 60  1  0
 32 61  1  0
 33 62  1  0
 33 63  1  0
 34 64  1  0
 35 65  1  0
 35 66  1  0
 35 67  1  0
 36 68  1  0
 36 69  1  0
 37 70  1  0
 37 71  1  0
M  CHG  1  34   1
M  END
>  <meeko>  (43) 
{"is_sidechain": false}

$$$$

     RDKit          3D

 54 57  0  0  0  0  0  0  0  0999 V2000
   10.6090    4.9500  -57.4310 O   0  0  0  0  0  0  0  0  0  0  0  0
   11.0840    4.2850  -58.6550 C   0  0  0  0  0  0  0  0  0  0  0  0
   10.2460    3.0040  -58.8100 C   0  0  0  0  0  0  0  0  0  0  0  0
    8.8240    3.1510  -58.5060 N   0  0  0  0  0  0  0  0  0  0  0  0
    8.2490    2.4340  -57.4340 C   0  0  0  0  0  0  0  0  0  0  0  0
    6.8680    2.1640  -57.4820 C   0  0  0  0  0  0  0  0  0  0  0  0
    6.1440    2.6760  -58.4930 F   0  0  0  0  0  0  0  0  0  0  0  0
    6.2240    1.3960  -56.5100 C   0  0  0  0  0  0  0  0  0  0  0  0
    4.9050    1.1790  -56.6120 F   0  0  0  0  0  0  0  0  0  0  0  0
    6.9360    0.8440  -55.4510 C   0  0  0  0  0  0  0  0  0  0  0  0
    6.2420    0.0750  -54.3650 C   0  0  0  0  0  0  0  0  0  0  0  0
    6.4260   -1.3420  -54.4970 O   0  0  0  0  0  0  0  0  0  0  0  0
    7.2730   -1.8230  -53.5330 C   0  0  0  0  0  0  0  0  0  0  0  0
    6.9640   -1.6890  -52.1640 C   0  0  0  0  0  0  0  0  0  0  0  0
    7.8250   -2.1600  -51.1230 C   0  0  0  0  0  0  0  0  0  0  0  0
    9.0680   -2.7890  -51.3530 C   0  0  0  0  0  0  0  0  0  0  0  0
    9.3470   -2.8740  -52.7120 C   0  0  0  0  0  0  0  0  0  0  0  0
   10.4700   -3.4240  -53.2600 C   0  0  0  0  0  0  0  0  0  0  0  0
   10.3280   -3.2810  -54.6250 N   0  0  0  0  0  0  0  0  0  0  0  0
   11.2260   -3.7090  -55.6450 C   0  0  0  0  0  0  0  0  0  0  0  0
   11.3930   -2.9730  -56.8250 C   0  0  0  0  0  0  0  0  0  0  0  0
   12.2930   -3.4130  -57.8010 C   0  0  0  0  0  0  0  0  0  0  0  0
   13.0200   -4.5860  -57.6090 C   0  0  0  0  0  0  0  0  0  0  0  0
   12.8520   -5.3280  -56.4420 C   0  0  0  0  0  0  0  0  0  0  0  0
   11.9610   -4.8920  -55.4610 C   0  0  0  0  0  0  0  0  0  0  0  0
    9.1590   -2.6680  -54.9580 N   0  0  0  0  0  0  0  0  0  0  0  0
    8.5280   -2.4170  -53.8000 C   0  0  0  0  0  0  0  0  0  0  0  0
    8.3100    1.0710  -55.4050 C   0  0  0  0  0  0  0  0  0  0  0  0
    9.0370    0.5410  -54.4100 F   0  0  0  0  0  0  0  0  0  0  0  0
    8.9560    1.8460  -56.3760 C   0  0  0  0  0  0  0  0  0  0  0  0
   10.2840    2.0070  -56.2620 F   0  0  0  0  0  0  0  0  0  0  0  0
   10.9130    5.1880  -59.8560 C   0  0  0  0  0  0  0  0  0  0  0  0
    9.8380    6.0020  -59.7080 F   0  0  0  0  0  0  0  0  0  0  0  0
   11.9790    5.9910  -60.0620 F   0  0  0  0  0  0  0  0  0  0  0  0
   10.7070    4.4920  -60.9980 F   0  0  0  0  0  0  0  0  0  0  0  0
   12.5660    3.9820  -58.5530 C   0  0  0  0  0  0  0  0  0  0  0  0
   13.1250    3.5550  -59.7010 F   0  0  0  0  0  0  0  0  0  0  0  0
   13.2690    5.0620  -58.1420 F   0  0  0  0  0  0  0  0  0  0  0  0
   12.7730    3.0230  -57.6120 F   0  0  0  0  0  0  0  0  0  0  0  0
   10.1950    4.2700  -56.8630 H   0  0  0  0  0  0  0  0  0  0  0  0
   10.3379    2.6609  -59.8511 H   0  0  0  0  0  0  0  0  0  0  0  0
   10.6432    2.2882  -58.0753 H   0  0  0  0  0  0  0  0  0  0  0  0
    8.4620    4.1130  -58.5080 H   0  0  0  0  0  0  0  0  0  0  0  0
    6.6447    0.3948  -53.3926 H   0  0  0  0  0  0  0  0  0  0  0  0
    5.1645    0.2826  -54.4420 H   0  0  0  0  0  0  0  0  0  0  0  0
    6.0190   -1.2007  -51.8838 H   0  0  0  0  0  0  0  0  0  0  0  0
    7.4992   -2.0240  -50.0812 H   0  0  0  0  0  0  0  0  0  0  0  0
    9.7304   -3.1636  -50.5588 H   0  0  0  0  0  0  0  0  0  0  0  0
   11.3129   -3.8853  -52.7246 H   0  0  0  0  0  0  0  0  0  0  0  0
   10.8167   -2.0496  -56.9840 H   0  0  0  0  0  0  0  0  0  0  0  0
   12.4275   -2.8304  -58.7243 H   0  0  0  0  0  0  0  0  0  0  0  0
   13.7273   -4.9265  -58.3796 H   0  0  0  0  0  0  0  0  0  0  0  0
   13.4216   -6.2573  -56.2941 H   0  0  0  0  0  0  0  0  0  0  0  0
   11.8333   -5.4776  -54.5386 H   0  0  0  0  0  0  0  0  0  0  0  0
  1  2  1  0
  2  3  1  0
  3  4  1  0
  4  5  1  0
  5  6  1  0
  6  7  1  0
  6  8  2  0
  8  9  1  0
  8 10  1  0
 10 11  1  0
 11 12  1  0
 12 13  1  0
 13 14  2  0
 14 15  1  0
 15 16  2  0
 16 17  1  0
 17 18  2  0
 18 19  1  0
 19 20  1  0
 20 21  2  0
 21 22  1  0
 22 23  2  0
 23 24  1  0
 24 25  2  0
 19 26  1  0
 26 27  2  0
 10 28  2  0
 28 29  1  0
 28 30  1  0
 30 31  1  0
  2 32  1  0
 32 33  1  0
 32 34  1  0
 32 35  1  0
  2 36  1  0
 36 37  1  0
 36 38  1  0
 36 39  1  0
 30  5  2  0
 27 13  1  0
 27 17  1  0
 25 20  1  0
  1 40  1  0
  3 41  1  0
  3 42  1  0
  4 43  1  0
 11 44  1  0
 11 45  1  0
 14 46  1  0
 15 47  1  0
 16 48  1  0
 18 49  1  0
 21 50  1  0
 22 51  1  0
 23 52  1  0
 24 53  1  0
 25 54  1  0
M  END
>  <meeko>  (44) 
{"is_sidechain": false}

$$$$

     RDKit          3D

 56 59  0  0  0  0  0  0  0  0999 V2000
    5.0410   -4.5110  -50.1640 C   0  0  0  0  0  0  0  0  0  0  0  0
    6.3300   -4.3660  -49.8200 C   0  0  0  0  0  0  0  0  0  0  0  0
    7.3380   -3.3680  -50.3810 C   0  0  0  0  0  0  0  0  0  0  0  0
    7.3780   -2.0000  -49.6650 C   0  0  0  0  0  0  0  0  0  0  0  0
    8.7150   -4.0370  -50.1370 C   0  0  0  0  0  0  0  0  0  0  0  0
    7.0210   -3.2010  -51.8320 N   0  0  0  0  0  0  0  0  0  0  0  0
    6.9550   -4.3750  -52.6810 C   0  0  0  0  0  0  0  0  0  0  0  0
    6.2050   -4.0330  -53.9280 C   0  0  0  0  0  0  0  0  0  0  0  0
    6.3070   -2.8880  -54.5160 N   0  0  0  0  0  0  0  0  0  0  0  0
    7.0830   -1.9520  -53.8700 N   0  0  0  0  0  0  0  0  0  0  0  0
    7.3960   -0.8030  -54.6580 C   0  0  0  0  0  0  0  0  0  0  0  0
    8.7100   -0.5410  -55.0590 C   0  0  0  0  0  0  0  0  0  0  0  0
    9.6940   -1.4190  -54.8090 F   0  0  0  0  0  0  0  0  0  0  0  0
    9.0150    0.5810  -55.8300 C   0  0  0  0  0  0  0  0  0  0  0  0
   10.2890    0.7830  -56.2080 F   0  0  0  0  0  0  0  0  0  0  0  0
    8.0310    1.4840  -56.2470 C   0  0  0  0  0  0  0  0  0  0  0  0
    8.4820    2.5730  -57.0230 N   0  0  0  0  0  0  0  0  0  0  0  0
    7.8880    3.2100  -58.0890 C   0  0  0  0  0  0  0  0  0  0  0  0
    6.8170    2.9500  -58.6170 O   0  0  0  0  0  0  0  0  0  0  0  0
    8.7330    4.3070  -58.5750 C   0  0  0  0  0  0  0  0  0  0  0  0
   10.0850    4.2600  -58.8410 C   0  0  0  0  0  0  0  0  0  0  0  0
   10.4460    5.5090  -59.3050 N   0  0  0  0  0  0  0  0  0  0  0  0
   11.7570    5.9170  -59.6860 C   0  0  0  0  0  0  0  0  0  0  0  0
   11.8820    7.0850  -60.4670 C   0  0  0  0  0  0  0  0  0  0  0  0
   13.1300    7.5220  -60.9160 C   0  0  0  0  0  0  0  0  0  0  0  0
   14.2760    6.8100  -60.5880 C   0  0  0  0  0  0  0  0  0  0  0  0
   14.1740    5.6670  -59.7980 C   0  0  0  0  0  0  0  0  0  0  0  0
   12.9270    5.2160  -59.3370 C   0  0  0  0  0  0  0  0  0  0  0  0
   12.9910    3.8800  -58.2410 Cl  0  0  0  0  0  0  0  0  0  0  0  0
    9.2920    6.2620  -59.2430 C   0  0  0  0  0  0  0  0  0  0  0  0
    8.2490    5.5740  -58.8280 N   0  0  0  0  0  0  0  0  0  0  0  0
    6.7160    1.2140  -55.8670 C   0  0  0  0  0  0  0  0  0  0  0  0
    5.7020    2.0190  -56.2030 F   0  0  0  0  0  0  0  0  0  0  0  0
    6.4040    0.0870  -55.0940 C   0  0  0  0  0  0  0  0  0  0  0  0
    5.1220   -0.0800  -54.7330 F   0  0  0  0  0  0  0  0  0  0  0  0
    7.3780   -1.9930  -52.4800 C   0  0  0  0  0  0  0  0  0  0  0  0
    7.8380   -1.0270  -51.8720 O   0  0  0  0  0  0  0  0  0  0  0  0
    4.4239   -5.2784  -49.6738 H   0  0  0  0  0  0  0  0  0  0  0  0
    4.6015   -3.8625  -50.9362 H   0  0  0  0  0  0  0  0  0  0  0  0
    6.7038   -5.0473  -49.0415 H   0  0  0  0  0  0  0  0  0  0  0  0
    7.3734   -2.1558  -48.5761 H   0  0  0  0  0  0  0  0  0  0  0  0
    8.2923   -1.4612  -49.9545 H   0  0  0  0  0  0  0  0  0  0  0  0
    6.4968   -1.4087  -49.9545 H   0  0  0  0  0  0  0  0  0  0  0  0
    8.8939   -4.1239  -49.0551 H   0  0  0  0  0  0  0  0  0  0  0  0
    8.7216   -5.0388  -50.5914 H   0  0  0  0  0  0  0  0  0  0  0  0
    9.5066   -3.4231  -50.5914 H   0  0  0  0  0  0  0  0  0  0  0  0
    7.9733   -4.7000  -52.9406 H   0  0  0  0  0  0  0  0  0  0  0  0
    6.4404   -5.1891  -52.1496 H   0  0  0  0  0  0  0  0  0  0  0  0
    5.5367   -4.7902  -54.3639 H   0  0  0  0  0  0  0  0  0  0  0  0
    9.3970    2.9590  -56.7770 H   0  0  0  0  0  0  0  0  0  0  0  0
   10.7490    3.3931  -58.7088 H   0  0  0  0  0  0  0  0  0  0  0  0
   10.9816    7.6611  -60.7266 H   0  0  0  0  0  0  0  0  0  0  0  0
   13.2052    8.4314  -61.5303 H   0  0  0  0  0  0  0  0  0  0  0  0
   15.2588    7.1465  -60.9498 H   0  0  0  0  0  0  0  0  0  0  0  0
   15.0841    5.1096  -59.5315 H   0  0  0  0  0  0  0  0  0  0  0  0
    9.2477    7.3275  -59.5125 H   0  0  0  0  0  0  0  0  0  0  0  0
  1  2  2  0
  2  3  1  0
  3  4  1  0
  3  5  1  0
  3  6  1  0
  6  7  1  0
  7  8  1  0
  8  9  2  0
  9 10  1  0
 10 11  1  0
 11 12  1  0
 12 13  1  0
 12 14  2  0
 14 15  1  0
 14 16  1  0
 16 17  1  0
 17 18  1  0
 18 19  2  0
 18 20  1  0
 20 21  2  0
 21 22  1  0
 22 23  1  0
 23 24  2  0
 24 25  1  0
 25 26  2  0
 26 27  1  0
 27 28  2  0
 28 29  1  0
 22 30  1  0
 30 31  2  0
 16 32  2  0
 32 33  1  0
 32 34  1  0
 34 35  1  0
 10 36  1  0
 36 37  2  0
 36  6  1  0
 34 11  2  0
 31 20  1  0
 28 23  1  0
  1 38  1  0
  1 39  1  0
  2 40  1  0
  4 41  1  0
  4 42  1  0
  4 43  1  0
  5 44  1  0
  5 45  1  0
  5 46  1  0
  7 47  1  0
  7 48  1  0
  8 49  1  0
 17 50  1  0
 21 51  1  0
 24 52  1  0
 25 53  1  0
 26 54  1  0
 27 55  1  0
 30 56  1  0
M  END
>  <meeko>  (45) 
{"is_sidechain": false}

$$$$

     RDKit          3D

 56 59  0  0  0  0  0  0  0  0999 V2000
    4.9140   -4.4730  -50.1160 C   0  0  0  0  0  0  0  0  0  0  0  0
    6.2100   -4.4410  -49.7730 C   0  0  0  0  0  0  0  0  0  0  0  0
    7.3340   -3.5700  -50.3390 C   0  0  0  0  0  0  0  0  0  0  0  0
    7.4710   -2.2440  -49.5360 C   0  0  0  0  0  0  0  0  0  0  0  0
    8.6950   -4.2850  -50.1300 C   0  0  0  0  0  0  0  0  0  0  0  0
    7.0410   -3.3660  -51.8050 N   0  0  0  0  0  0  0  0  0  0  0  0
    6.5780   -4.4220  -52.5860 C   0  0  0  0  0  0  0  0  0  0  0  0
    6.2180   -4.2210  -53.8540 C   0  0  0  0  0  0  0  0  0  0  0  0
    6.2810   -2.9870  -54.4270 N   0  0  0  0  0  0  0  0  0  0  0  0
    7.0890   -2.0110  -53.8120 N   0  0  0  0  0  0  0  0  0  0  0  0
    7.4620   -0.8750  -54.6000 C   0  0  0  0  0  0  0  0  0  0  0  0
    6.5170    0.0530  -55.0630 C   0  0  0  0  0  0  0  0  0  0  0  0
    5.2080   -0.1300  -54.8240 F   0  0  0  0  0  0  0  0  0  0  0  0
    6.8850    1.1830  -55.8050 C   0  0  0  0  0  0  0  0  0  0  0  0
    5.9000    1.9540  -56.2820 F   0  0  0  0  0  0  0  0  0  0  0  0
    8.2200    1.4280  -56.1200 C   0  0  0  0  0  0  0  0  0  0  0  0
    8.7110    2.5360  -56.8520 N   0  0  0  0  0  0  0  0  0  0  0  0
    8.3490    2.9130  -58.1350 C   0  0  0  0  0  0  0  0  0  0  0  0
    7.4470    2.3910  -58.7800 O   0  0  0  0  0  0  0  0  0  0  0  0
    9.1010    4.0720  -58.6560 C   0  0  0  0  0  0  0  0  0  0  0  0
   10.4370    4.1420  -59.0170 C   0  0  0  0  0  0  0  0  0  0  0  0
   10.6720    5.4280  -59.4590 N   0  0  0  0  0  0  0  0  0  0  0  0
   11.8930    6.0030  -59.9160 C   0  0  0  0  0  0  0  0  0  0  0  0
   11.8260    7.2480  -60.5740 C   0  0  0  0  0  0  0  0  0  0  0  0
   12.9850    7.8950  -61.0120 C   0  0  0  0  0  0  0  0  0  0  0  0
   14.2270    7.3070  -60.8090 C   0  0  0  0  0  0  0  0  0  0  0  0
   14.3100    6.0680  -60.1790 C   0  0  0  0  0  0  0  0  0  0  0  0
   13.1540    5.4060  -59.7360 C   0  0  0  0  0  0  0  0  0  0  0  0
   13.4160    3.8090  -59.1210 Cl  0  0  0  0  0  0  0  0  0  0  0  0
    9.4700    6.0850  -59.3100 C   0  0  0  0  0  0  0  0  0  0  0  0
    8.5200    5.3080  -58.8480 N   0  0  0  0  0  0  0  0  0  0  0  0
    9.1550    0.4650  -55.7360 C   0  0  0  0  0  0  0  0  0  0  0  0
   10.4370    0.6230  -56.1060 F   0  0  0  0  0  0  0  0  0  0  0  0
    8.7900   -0.6630  -54.9990 C   0  0  0  0  0  0  0  0  0  0  0  0
    9.7350   -1.5920  -54.7940 F   0  0  0  0  0  0  0  0  0  0  0  0
    7.2890   -2.0870  -52.4020 C   0  0  0  0  0  0  0  0  0  0  0  0
    7.6470   -1.1070  -51.7440 O   0  0  0  0  0  0  0  0  0  0  0  0
    4.2272   -5.1649  -49.6066 H   0  0  0  0  0  0  0  0  0  0  0  0
    4.5377   -3.8073  -50.9068 H   0  0  0  0  0  0  0  0  0  0  0  0
    6.5062   -5.1370  -48.9744 H   0  0  0  0  0  0  0  0  0  0  0  0
    7.4483   -2.4639  -48.4584 H   0  0  0  0  0  0  0  0  0  0  0  0
    8.4242   -1.7577  -49.7910 H   0  0  0  0  0  0  0  0  0  0  0  0
    6.6374   -1.5731  -49.7910 H   0  0  0  0  0  0  0  0  0  0  0  0
    8.8930   -4.3890  -49.0530 H   0  0  0  0  0  0  0  0  0  0  0  0
    8.6608   -5.2816  -50.5944 H   0  0  0  0  0  0  0  0  0  0  0  0
    9.4962   -3.6914  -50.5944 H   0  0  0  0  0  0  0  0  0  0  0  0
    6.5087   -5.4308  -52.1530 H   0  0  0  0  0  0  0  0  0  0  0  0
    5.8614   -5.0726  -54.4519 H   0  0  0  0  0  0  0  0  0  0  0  0
    6.2560   -2.9730  -55.4460 H   0  0  0  0  0  0  0  0  0  0  0  0
    9.2250    3.2200  -56.3070 H   0  0  0  0  0  0  0  0  0  0  0  0
   11.1722    3.3257  -58.9616 H   0  0  0  0  0  0  0  0  0  0  0  0
   10.8462    7.7177  -60.7454 H   0  0  0  0  0  0  0  0  0  0  0  0
   12.9136    8.8695  -61.5173 H   0  0  0  0  0  0  0  0  0  0  0  0
   15.1414    7.8181  -61.1446 H   0  0  0  0  0  0  0  0  0  0  0  0
   15.2945    5.6017  -60.0264 H   0  0  0  0  0  0  0  0  0  0  0  0
    9.3230    7.1478  -59.5527 H   0  0  0  0  0  0  0  0  0  0  0  0
  1  2  2  0
  2  3  1  0
  3  4  1  0
  3  5  1  0
  3  6  1  0
  6  7  1  0
  7  8  2  0
  8  9  1  0
  9 10  1  0
 10 11  1  0
 11 12  1  0
 12 13  1  0
 12 14  2  0
 14 15  1  0
 14 16  1  0
 16 17  1  0
 17 18  1  0
 18 19  2  0
 18 20  1  0
 20 21  2  0
 21 22  1  0
 22 23  1  0
 23 24  2  0
 24 25  1  0
 25 26  2  0
 26 27  1  0
 27 28  2  0
 28 29  1  0
 22 30  1  0
 30 31  2  0
 16 32  2  0
 32 33  1  0
 32 34  1  0
 34 35  1  0
 10 36  1  0
 36 37  2  0
 36  6  1  0
 34 11  2  0
 31 20  1  0
 28 23  1  0
  1 38  1  0
  1 39  1  0
  2 40  1  0
  4 41  1  0
  4 42  1  0
  4 43  1  0
  5 44  1  0
  5 45  1  0
  5 46  1  0
  7 47  1  0
  8 48  1  0
  9 49  1  0
 17 50  1  0
 21 51  1  0
 24 52  1  0
 25 53  1  0
 26 54  1  0
 27 55  1  0
 30 56  1  0
M  END
>  <meeko>  (46) 
{"is_sidechain": false}

$$$$

     RDKit          3D

 57 60  0  0  0  0  0  0  0  0999 V2000
    4.9990   -4.4710  -50.1150 C   0  0  0  0  0  0  0  0  0  0  0  0
    6.3070   -4.4120  -49.8260 C   0  0  0  0  0  0  0  0  0  0  0  0
    7.3380   -3.4200  -50.3570 C   0  0  0  0  0  0  0  0  0  0  0  0
    8.7030   -4.1030  -50.0900 C   0  0  0  0  0  0  0  0  0  0  0  0
    7.3710   -2.0570  -49.6300 C   0  0  0  0  0  0  0  0  0  0  0  0
    7.0600   -3.2510  -51.8160 N   0  0  0  0  0  0  0  0  0  0  0  0
    6.8950   -4.4400  -52.6300 C   0  0  0  0  0  0  0  0  0  0  0  0
    6.2960   -4.0880  -53.9550 C   0  0  0  0  0  0  0  0  0  0  0  0
    6.4790   -2.9530  -54.5440 N   0  0  0  0  0  0  0  0  0  0  0  0
    7.2160   -2.0190  -53.8520 N   0  0  0  0  0  0  0  0  0  0  0  0
    7.4850   -0.8390  -54.6070 C   0  0  0  0  0  0  0  0  0  0  0  0
    6.4660    0.0540  -54.9690 C   0  0  0  0  0  0  0  0  0  0  0  0
    5.1780   -0.2460  -54.7370 F   0  0  0  0  0  0  0  0  0  0  0  0
    6.7380    1.2130  -55.7030 C   0  0  0  0  0  0  0  0  0  0  0  0
    5.7070    1.9550  -56.1280 F   0  0  0  0  0  0  0  0  0  0  0  0
    8.0420    1.5220  -56.0930 C   0  0  0  0  0  0  0  0  0  0  0  0
    8.4200    2.6740  -56.8350 N   0  0  0  0  0  0  0  0  0  0  0  0
    8.0910    2.9090  -58.1640 C   0  0  0  0  0  0  0  0  0  0  0  0
    7.2710    2.2550  -58.7940 O   0  0  0  0  0  0  0  0  0  0  0  0
    8.7890    4.0730  -58.6530 C   0  0  0  0  0  0  0  0  0  0  0  0
   10.1290    4.1070  -58.9590 C   0  0  0  0  0  0  0  0  0  0  0  0
   10.4520    5.4040  -59.3600 N   0  0  0  0  0  0  0  0  0  0  0  0
   11.7780    5.8920  -59.7800 C   0  0  0  0  0  0  0  0  0  0  0  0
   11.8010    7.0530  -60.5580 C   0  0  0  0  0  0  0  0  0  0  0  0
   13.0260    7.5860  -60.9650 C   0  0  0  0  0  0  0  0  0  0  0  0
   14.2170    6.9580  -60.6030 C   0  0  0  0  0  0  0  0  0  0  0  0
   14.1910    5.7890  -59.8400 C   0  0  0  0  0  0  0  0  0  0  0  0
   12.9710    5.2440  -59.4260 C   0  0  0  0  0  0  0  0  0  0  0  0
   13.0320    3.7310  -58.5970 Cl  0  0  0  0  0  0  0  0  0  0  0  0
    9.3360    6.1490  -59.3170 C   0  0  0  0  0  0  0  0  0  0  0  0
    8.3380    5.3700  -58.8760 N   0  0  0  0  0  0  0  0  0  0  0  0
    9.0460    0.6040  -55.7850 C   0  0  0  0  0  0  0  0  0  0  0  0
   10.3010    0.8640  -56.1930 F   0  0  0  0  0  0  0  0  0  0  0  0
    8.7810   -0.5540  -55.0550 C   0  0  0  0  0  0  0  0  0  0  0  0
    9.8170   -1.3490  -54.7460 F   0  0  0  0  0  0  0  0  0  0  0  0
    7.6020   -2.1350  -52.4930 C   0  0  0  0  0  0  0  0  0  0  0  0
    8.3580   -1.3250  -51.9550 O   0  0  0  0  0  0  0  0  0  0  0  0
    4.3685   -5.2462  -49.6550 H   0  0  0  0  0  0  0  0  0  0  0  0
    4.5564   -3.7442  -50.8121 H   0  0  0  0  0  0  0  0  0  0  0  0
    6.6818   -5.1694  -49.1218 H   0  0  0  0  0  0  0  0  0  0  0  0
    8.8662   -4.1847  -49.0052 H   0  0  0  0  0  0  0  0  0  0  0  0
    8.7040   -5.1078  -50.5376 H   0  0  0  0  0  0  0  0  0  0  0  0
    9.5078   -3.5014  -50.5376 H   0  0  0  0  0  0  0  0  0  0  0  0
    7.3670   -2.2214  -48.5424 H   0  0  0  0  0  0  0  0  0  0  0  0
    8.2826   -1.5114  -49.9150 H   0  0  0  0  0  0  0  0  0  0  0  0
    6.4869   -1.4679  -49.9150 H   0  0  0  0  0  0  0  0  0  0  0  0
    7.8772   -4.9087  -52.7897 H   0  0  0  0  0  0  0  0  0  0  0  0
    6.2225   -5.1376  -52.1092 H   0  0  0  0  0  0  0  0  0  0  0  0
    5.6648   -4.8372  -54.4553 H   0  0  0  0  0  0  0  0  0  0  0  0
    8.6930    3.4670  -56.2610 H   0  0  0  0  0  0  0  0  0  0  0  0
   10.8261    3.2583  -58.8982 H   0  0  0  0  0  0  0  0  0  0  0  0
   10.8602    7.5438  -60.8479 H   0  0  0  0  0  0  0  0  0  0  0  0
   13.0513    8.5029  -61.5722 H   0  0  0  0  0  0  0  0  0  0  0  0
   15.1801    7.3849  -60.9195 H   0  0  0  0  0  0  0  0  0  0  0  0
   15.1338    5.2945  -59.5633 H   0  0  0  0  0  0  0  0  0  0  0  0
    9.2548    7.2103  -59.5944 H   0  0  0  0  0  0  0  0  0  0  0  0
    7.4030    5.7180  -58.6810 H   0  0  0  0  0  0  0  0  0  0  0  0
  1  2  2  0
  2  3  1  0
  3  4  1  0
  3  5  1  0
  3  6  1  0
  6  7  1  0
  7  8  1  0
  8  9  2  0
  9 10  1  0
 10 11  1  0
 11 12  1  0
 12 13  1  0
 12 14  2  0
 14 15  1  0
 14 16  1  0
 16 17  1  0
 17 18  1  0
 18 19  2  0
 18 20  1  0
 20 21  2  0
 21 22  1  0
 22 23  1  0
 23 24  2  0
 24 25  1  0
 25 26  2  0
 26 27  1  0
 27 28  2  0
 28 29  1  0
 22 30  1  0
 30 31  2  0
 16 32  2  0
 32 33  1  0
 32 34  1  0
 34 35  1  0
 10 36  1  0
 36 37  2  0
 36  6  1  0
 34 11  2  0
 31 20  1  0
 28 23  1  0
  1 38  1  0
  1 39  1  0
  2 40  1  0
  4 41  1  0
  4 42  1  0
  4 43  1  0
  5 44  1  0
  5 45  1  0
  5 46  1  0
  7 47  1  0
  7 48  1  0
  8 49  1  0
 17 50  1  0
 21 51  1  0
 24 52  1  0
 25 53  1  0
 26 54  1  0
 27 55  1  0
 30 56  1  0
 31 57  1  0
M  CHG  1  31   1
M  END
>  <meeko>  (47) 
{"is_sidechain": false}

$$$$

     RDKit          3D

 57 60  0  0  0  0  0  0  0  0999 V2000
    9.6750   -3.6930  -50.0500 C   0  0  0  0  0  0  0  0  0  0  0  0
    8.5210   -4.3280  -50.3030 C   0  0  0  0  0  0  0  0  0  0  0  0
    7.1020   -3.7420  -50.3630 C   0  0  0  0  0  0  0  0  0  0  0  0
    6.2220   -4.8520  -49.7350 C   0  0  0  0  0  0  0  0  0  0  0  0
    6.9520   -2.4560  -49.5230 C   0  0  0  0  0  0  0  0  0  0  0  0
    6.7250   -3.4410  -51.7930 N   0  0  0  0  0  0  0  0  0  0  0  0
    6.1450   -4.4270  -52.5900 C   0  0  0  0  0  0  0  0  0  0  0  0
    5.7660   -4.1500  -53.8370 C   0  0  0  0  0  0  0  0  0  0  0  0
    5.9360   -2.9080  -54.3790 N   0  0  0  0  0  0  0  0  0  0  0  0
    6.8820   -2.0570  -53.7710 N   0  0  0  0  0  0  0  0  0  0  0  0
    7.3340   -0.9300  -54.5260 C   0  0  0  0  0  0  0  0  0  0  0  0
    8.6880   -0.7310  -54.8260 C   0  0  0  0  0  0  0  0  0  0  0  0
    9.6310   -1.5700  -54.3710 F   0  0  0  0  0  0  0  0  0  0  0  0
    9.1070    0.3420  -55.6170 C   0  0  0  0  0  0  0  0  0  0  0  0
   10.4120    0.4940  -55.8940 F   0  0  0  0  0  0  0  0  0  0  0  0
    8.2000    1.2640  -56.1370 C   0  0  0  0  0  0  0  0  0  0  0  0
    8.7190    2.3090  -56.9480 N   0  0  0  0  0  0  0  0  0  0  0  0
    8.1350    2.7500  -58.1310 C   0  0  0  0  0  0  0  0  0  0  0  0
    7.2170    2.1710  -58.6990 O   0  0  0  0  0  0  0  0  0  0  0  0
    8.8150    3.9270  -58.6120 C   0  0  0  0  0  0  0  0  0  0  0  0
   10.1610    3.9980  -58.8870 C   0  0  0  0  0  0  0  0  0  0  0  0
   10.4400    5.2840  -59.3460 N   0  0  0  0  0  0  0  0  0  0  0  0
   11.7460    5.8390  -59.7330 C   0  0  0  0  0  0  0  0  0  0  0  0
   11.7290    6.9990  -60.5120 C   0  0  0  0  0  0  0  0  0  0  0  0
   12.9360    7.5600  -60.9350 C   0  0  0  0  0  0  0  0  0  0  0  0
   14.1460    6.9690  -60.5750 C   0  0  0  0  0  0  0  0  0  0  0  0
   14.1590    5.8170  -59.7840 C   0  0  0  0  0  0  0  0  0  0  0  0
   12.9590    5.2440  -59.3530 C   0  0  0  0  0  0  0  0  0  0  0  0
   13.0710    3.9040  -58.2740 Cl  0  0  0  0  0  0  0  0  0  0  0  0
    9.2880    5.9700  -59.4140 C   0  0  0  0  0  0  0  0  0  0  0  0
    8.3100    5.1760  -58.9640 N   0  0  0  0  0  0  0  0  0  0  0  0
    6.8630    1.1330  -55.7640 C   0  0  0  0  0  0  0  0  0  0  0  0
    5.9810    2.1010  -56.0500 F   0  0  0  0  0  0  0  0  0  0  0  0
    6.4400    0.0590  -54.9730 C   0  0  0  0  0  0  0  0  0  0  0  0
    5.1720    0.0840  -54.5330 F   0  0  0  0  0  0  0  0  0  0  0  0
    7.1470   -2.2100  -52.3780 C   0  0  0  0  0  0  0  0  0  0  0  0
    7.6990   -1.3210  -51.7250 O   0  0  0  0  0  0  0  0  0  0  0  0
   10.6211   -4.2541  -50.0413 H   0  0  0  0  0  0  0  0  0  0  0  0
    9.6753   -2.6111  -49.8512 H   0  0  0  0  0  0  0  0  0  0  0  0
    8.6009   -5.4087  -50.4921 H   0  0  0  0  0  0  0  0  0  0  0  0
    6.2749   -4.7853  -48.6383 H   0  0  0  0  0  0  0  0  0  0  0  0
    5.1794   -4.7214  -50.0604 H   0  0  0  0  0  0  0  0  0  0  0  0
    6.5870   -5.8373  -50.0604 H   0  0  0  0  0  0  0  0  0  0  0  0
    6.9818   -2.7111  -48.4534 H   0  0  0  0  0  0  0  0  0  0  0  0
    7.7758   -1.7661  -49.7584 H   0  0  0  0  0  0  0  0  0  0  0  0
    5.9916   -1.9742  -49.7584 H   0  0  0  0  0  0  0  0  0  0  0  0
    5.9994   -5.4400  -52.1868 H   0  0  0  0  0  0  0  0  0  0  0  0
    5.3045   -4.9418  -54.4454 H   0  0  0  0  0  0  0  0  0  0  0  0
    5.9140   -2.8900  -55.3970 H   0  0  0  0  0  0  0  0  0  0  0  0
    9.7080    2.4970  -56.8100 H   0  0  0  0  0  0  0  0  0  0  0  0
   10.8894    3.1827  -58.7659 H   0  0  0  0  0  0  0  0  0  0  0  0
   10.7728    7.4664  -60.7898 H   0  0  0  0  0  0  0  0  0  0  0  0
   12.9318    8.4698  -61.5533 H   0  0  0  0  0  0  0  0  0  0  0  0
   15.0942    7.4111  -60.9148 H   0  0  0  0  0  0  0  0  0  0  0  0
   15.1178    5.3591  -59.4993 H   0  0  0  0  0  0  0  0  0  0  0  0
    9.1693    7.0021  -59.7757 H   0  0  0  0  0  0  0  0  0  0  0  0
    7.3270    5.4370  -58.9570 H   0  0  0  0  0  0  0  0  0  0  0  0
  1  2  2  0
  2  3  1  0
  3  4  1  0
  3  5  1  0
  3  6  1  0
  6  7  1  0
  7  8  2  0
  8  9  1  0
  9 10  1  0
 10 11  1  0
 11 12  1  0
 12 13  1  0
 12 14  2  0
 14 15  1  0
 14 16  1  0
 16 17  1  0
 17 18  1  0
 18 19  2  0
 18 20  1  0
 20 21  2  0
 21 22  1  0
 22 23  1  0
 23 24  2  0
 24 25  1  0
 25 26  2  0
 26 27  1  0
 27 28  2  0
 28 29  1  0
 22 30  1  0
 30 31  2  0
 16 32  2  0
 32 33  1  0
 32 34  1  0
 34 35  1  0
 10 36  1  0
 36 37  2  0
 36  6  1  0
 34 11  2  0
 31 20  1  0
 28 23  1  0
  1 38  1  0
  1 39  1  0
  2 40  1  0
  4 41  1  0
  4 42  1  0
  4 43  1  0
  5 44  1  0
  5 45  1  0
  5 46  1  0
  7 47  1  0
  8 48  1  0
  9 49  1  0
 17 50  1  0
 21 51  1  0
 24 52  1  0
 25 53  1  0
 26 54  1  0
 27 55  1  0
 30 56  1  0
 31 57  1  0
M  CHG  1  31   1
M  END
>  <meeko>  (48) 
{"is_sidechain": false}

$$$$

     RDKit          3D

 39 42  0  0  0  0  0  0  0  0999 V2000
    7.2890    1.2270  -56.6640 O   0  0  0  0  0  0  0  0  0  0  0  0
    8.2860    1.6520  -56.0950 C   0  0  0  0  0  0  0  0  0  0  0  0
    8.8860    1.1440  -54.9650 N   0  0  0  0  0  0  0  0  0  0  0  0
    8.4700    0.0350  -54.2120 C   0  0  0  0  0  0  0  0  0  0  0  0
    7.4800    0.0180  -53.2060 C   0  0  0  0  0  0  0  0  0  0  0  0
    7.1150   -1.1660  -52.4830 C   0  0  0  0  0  0  0  0  0  0  0  0
    7.6960   -2.4340  -52.6920 C   0  0  0  0  0  0  0  0  0  0  0  0
    8.6620   -2.3760  -53.6870 C   0  0  0  0  0  0  0  0  0  0  0  0
    9.4110   -3.4270  -54.1310 C   0  0  0  0  0  0  0  0  0  0  0  0
   10.2330   -2.9150  -55.1150 N   0  0  0  0  0  0  0  0  0  0  0  0
   11.2050   -3.6170  -55.8860 C   0  0  0  0  0  0  0  0  0  0  0  0
   11.6020   -3.1600  -57.1510 C   0  0  0  0  0  0  0  0  0  0  0  0
   12.5560   -3.8700  -57.8860 C   0  0  0  0  0  0  0  0  0  0  0  0
   13.1190   -5.0350  -57.3670 C   0  0  0  0  0  0  0  0  0  0  0  0
   12.7300   -5.4960  -56.1110 C   0  0  0  0  0  0  0  0  0  0  0  0
   11.7770   -4.7920  -55.3710 C   0  0  0  0  0  0  0  0  0  0  0  0
   10.0280   -1.5800  -55.3130 N   0  0  0  0  0  0  0  0  0  0  0  0
    9.0680   -1.2270  -54.4410 C   0  0  0  0  0  0  0  0  0  0  0  0
    8.9880    2.8230  -56.6610 C   0  0  0  0  0  0  0  0  0  0  0  0
    8.2570    4.0050  -56.8500 C   0  0  0  0  0  0  0  0  0  0  0  0
    8.8870    5.1360  -57.3700 C   0  0  0  0  0  0  0  0  0  0  0  0
   10.2410    5.0900  -57.6970 C   0  0  0  0  0  0  0  0  0  0  0  0
   10.9690    3.9120  -57.5080 C   0  0  0  0  0  0  0  0  0  0  0  0
   10.3470    2.7740  -56.9870 C   0  0  0  0  0  0  0  0  0  0  0  0
   11.2940    1.3390  -56.8260 Cl  0  0  0  0  0  0  0  0  0  0  0  0
    9.7080    1.6090  -54.5880 H   0  0  0  0  0  0  0  0  0  0  0  0
    6.9632    0.9586  -52.9647 H   0  0  0  0  0  0  0  0  0  0  0  0
    6.3313   -1.0793  -51.7160 H   0  0  0  0  0  0  0  0  0  0  0  0
    7.4209   -3.3455  -52.1411 H   0  0  0  0  0  0  0  0  0  0  0  0
    9.3685   -4.4678  -53.7776 H   0  0  0  0  0  0  0  0  0  0  0  0
   11.1619   -2.2411  -57.5657 H   0  0  0  0  0  0  0  0  0  0  0  0
   12.8637   -3.5079  -58.8781 H   0  0  0  0  0  0  0  0  0  0  0  0
   13.8698   -5.5899  -57.9487 H   0  0  0  0  0  0  0  0  0  0  0  0
   13.1739   -6.4154  -55.7016 H   0  0  0  0  0  0  0  0  0  0  0  0
   11.4729   -5.1597  -54.3799 H   0  0  0  0  0  0  0  0  0  0  0  0
    7.1891    4.0402  -56.5887 H   0  0  0  0  0  0  0  0  0  0  0  0
    8.3154    6.0635  -57.5218 H   0  0  0  0  0  0  0  0  0  0  0  0
   10.7378    5.9827  -58.1047 H   0  0  0  0  0  0  0  0  0  0  0  0
   12.0367    3.8804  -57.7706 H   0  0  0  0  0  0  0  0  0  0  0  0
  1  2  2  0
  2  3  1  0
  3  4  1  0
  4  5  2  0
  5  6  1  0
  6  7  2  0
  7  8  1  0
  8  9  2  0
  9 10  1  0
 10 11  1  0
 11 12  2  0
 12 13  1  0
 13 14  2  0
 14 15  1  0
 15 16  2  0
 10 17  1  0
 17 18  2  0
  2 19  1  0
 19 20  2  0
 20 21  1  0
 21 22  2  0
 22 23  1  0
 23 24  2  0
 24 25  1  0
 18  4  1  0
 24 19  1  0
 18  8  1  0
 16 11  1  0
  3 26  1  0
  5 27  1  0
  6 28  1  0
  7 29  1  0
  9 30  1  0
 12 31  1  0
 13 32  1  0
 14 33  1  0
 15 34  1  0
 16 35  1  0
 20 36  1  0
 21 37  1  0
 22 38  1  0
 23 39  1  0
M  END
>  <meeko>  (49) 
{"is_sidechain": false}

$$$$

     RDKit          3D

 41 43  0  0  0  0  0  0  0  0999 V2000
   10.0290    3.2930  -56.1460 C   0  0  0  0  0  0  0  0  0  0  0  0
    8.8500    2.7330  -56.9580 C   0  0  0  0  0  0  0  0  0  0  0  0
    7.8190    3.8390  -57.2260 C   0  0  0  0  0  0  0  0  0  0  0  0
    9.3850    2.2240  -58.3090 C   0  0  0  0  0  0  0  0  0  0  0  0
    8.1870    1.5640  -56.1920 C   0  0  0  0  0  0  0  0  0  0  0  0
    7.0780    1.1380  -56.5070 O   0  0  0  0  0  0  0  0  0  0  0  0
    8.9500    1.0700  -55.1550 N   0  0  0  0  0  0  0  0  0  0  0  0
    8.6290    0.0200  -54.2790 C   0  0  0  0  0  0  0  0  0  0  0  0
    7.7520    0.0680  -53.1760 C   0  0  0  0  0  0  0  0  0  0  0  0
    7.4840   -1.0630  -52.3340 C   0  0  0  0  0  0  0  0  0  0  0  0
    8.0590   -2.3380  -52.5110 C   0  0  0  0  0  0  0  0  0  0  0  0
    8.9140   -2.3450  -53.6050 C   0  0  0  0  0  0  0  0  0  0  0  0
    9.6290   -3.4200  -54.0480 C   0  0  0  0  0  0  0  0  0  0  0  0
   10.3340   -2.9740  -55.1490 N   0  0  0  0  0  0  0  0  0  0  0  0
   11.2300   -3.7230  -55.9680 C   0  0  0  0  0  0  0  0  0  0  0  0
   11.8670   -4.8560  -55.4380 C   0  0  0  0  0  0  0  0  0  0  0  0
   12.7480   -5.6030  -56.2230 C   0  0  0  0  0  0  0  0  0  0  0  0
   13.0010   -5.2260  -57.5390 C   0  0  0  0  0  0  0  0  0  0  0  0
   12.3730   -4.1020  -58.0740 C   0  0  0  0  0  0  0  0  0  0  0  0
   11.4890   -3.3490  -57.2950 C   0  0  0  0  0  0  0  0  0  0  0  0
   10.0920   -1.6570  -55.4170 N   0  0  0  0  0  0  0  0  0  0  0  0
    9.2190   -1.2510  -54.4770 C   0  0  0  0  0  0  0  0  0  0  0  0
    9.8154    3.1915  -55.0717 H   0  0  0  0  0  0  0  0  0  0  0  0
   10.9430    2.7328  -56.3926 H   0  0  0  0  0  0  0  0  0  0  0  0
   10.1723    4.3554  -56.3926 H   0  0  0  0  0  0  0  0  0  0  0  0
    7.4494    4.2355  -56.2688 H   0  0  0  0  0  0  0  0  0  0  0  0
    8.2915    4.6493  -57.8006 H   0  0  0  0  0  0  0  0  0  0  0  0
    6.9776    3.4245  -57.8006 H   0  0  0  0  0  0  0  0  0  0  0  0
   10.1717    1.4755  -58.1333 H   0  0  0  0  0  0  0  0  0  0  0  0
    8.5637    1.7657  -58.8794 H   0  0  0  0  0  0  0  0  0  0  0  0
    9.8018    3.0671  -58.8794 H   0  0  0  0  0  0  0  0  0  0  0  0
    9.8580    1.4840  -54.9650 H   0  0  0  0  0  0  0  0  0  0  0  0
    7.2483    1.0193  -52.9496 H   0  0  0  0  0  0  0  0  0  0  0  0
    6.7845   -0.9261  -51.4961 H   0  0  0  0  0  0  0  0  0  0  0  0
    7.8577   -3.2087  -51.8697 H   0  0  0  0  0  0  0  0  0  0  0  0
    9.6413   -4.4321  -53.6173 H   0  0  0  0  0  0  0  0  0  0  0  0
   11.6711   -5.1572  -54.3983 H   0  0  0  0  0  0  0  0  0  0  0  0
   13.2426   -6.4903  -55.8010 H   0  0  0  0  0  0  0  0  0  0  0  0
   13.6958   -5.8144  -58.1563 H   0  0  0  0  0  0  0  0  0  0  0  0
   12.5740   -3.8061  -59.1142 H   0  0  0  0  0  0  0  0  0  0  0  0
   10.9966   -2.4633  -57.7228 H   0  0  0  0  0  0  0  0  0  0  0  0
  1  2  1  0
  2  3  1  0
  2  4  1  0
  2  5  1  0
  5  6  2  0
  5  7  1  0
  7  8  1  0
  8  9  2  0
  9 10  1  0
 10 11  2  0
 11 12  1  0
 12 13  2  0
 13 14  1  0
 14 15  1  0
 15 16  2  0
 16 17  1  0
 17 18  2  0
 18 19  1  0
 19 20  2  0
 14 21  1  0
 21 22  2  0
 22  8  1  0
 22 12  1  0
 20 15  1  0
  1 23  1  0
  1 24  1  0
  1 25  1  0
  3 26  1  0
  3 27  1  0
  3 28  1  0
  4 29  1  0
  4 30  1  0
  4 31  1  0
  7 32  1  0
  9 33  1  0
 10 34  1  0
 11 35  1  0
 13 36  1  0
 16 37  1  0
 17 38  1  0
 18 39  1  0
 19 40  1  0
 20 41  1  0
M  END
>  <meeko>  (50) 
{"is_sidechain": false}

$$$$

     RDKit          3D

 59 62  0  0  0  0  0  0  0  0999 V2000
    5.9410   -4.0470  -50.3590 C   0  0  0  0  0  0  0  0  0  0  0  0
    7.2990   -3.4540  -50.0090 C   0  0  0  0  0  0  0  0  0  0  0  0
    7.4810   -2.0220  -50.5240 C   0  0  0  0  0  0  0  0  0  0  0  0
    8.2540   -1.9740  -51.7800 N   0  0  0  0  0  0  0  0  0  0  0  0
    9.4450   -2.8410  -51.8270 C   0  0  0  0  0  0  0  0  0  0  0  0
    9.7400   -3.3570  -53.2380 C   0  0  0  0  0  0  0  0  0  0  0  0
   11.1530   -3.0460  -53.7110 C   0  0  0  0  0  0  0  0  0  0  0  0
    7.8570   -1.1850  -52.8620 C   0  0  0  0  0  0  0  0  0  0  0  0
    8.7660   -0.3330  -53.5150 C   0  0  0  0  0  0  0  0  0  0  0  0
    8.3950    0.4710  -54.6010 C   0  0  0  0  0  0  0  0  0  0  0  0
    9.3440    1.2460  -55.1510 F   0  0  0  0  0  0  0  0  0  0  0  0
    7.1000    0.4720  -55.1000 C   0  0  0  0  0  0  0  0  0  0  0  0
    6.6920    1.3030  -56.2620 C   0  0  0  0  0  0  0  0  0  0  0  0
    5.9380    2.2450  -56.0600 O   0  0  0  0  0  0  0  0  0  0  0  0
    7.1460    0.8760  -57.4980 N   0  0  0  0  0  0  0  0  0  0  0  0
    7.0380    1.5750  -58.7160 C   0  0  0  0  0  0  0  0  0  0  0  0
    5.8760    1.3810  -59.5110 C   0  0  0  0  0  0  0  0  0  0  0  0
    5.6460    2.0290  -60.7640 C   0  0  0  0  0  0  0  0  0  0  0  0
    6.5570    2.9200  -61.3630 C   0  0  0  0  0  0  0  0  0  0  0  0
    7.6990    3.0600  -60.5860 C   0  0  0  0  0  0  0  0  0  0  0  0
    8.7770    3.8310  -60.9210 C   0  0  0  0  0  0  0  0  0  0  0  0
    9.6800    3.6670  -59.8920 N   0  0  0  0  0  0  0  0  0  0  0  0
   10.9570    4.2830  -59.7460 C   0  0  0  0  0  0  0  0  0  0  0  0
   11.0860    5.6600  -59.9870 C   0  0  0  0  0  0  0  0  0  0  0  0
   12.3270    6.2860  -59.8530 C   0  0  0  0  0  0  0  0  0  0  0  0
   13.4460    5.5450  -59.4780 C   0  0  0  0  0  0  0  0  0  0  0  0
   13.3260    4.1770  -59.2400 C   0  0  0  0  0  0  0  0  0  0  0  0
   12.0870    3.5410  -59.3730 C   0  0  0  0  0  0  0  0  0  0  0  0
    9.2370    2.7840  -58.9650 N   0  0  0  0  0  0  0  0  0  0  0  0
    7.9900    2.4370  -59.3190 C   0  0  0  0  0  0  0  0  0  0  0  0
    6.1740   -0.3550  -54.4750 C   0  0  0  0  0  0  0  0  0  0  0  0
    4.8930   -0.3890  -54.8710 F   0  0  0  0  0  0  0  0  0  0  0  0
    6.5440   -1.1590  -53.3870 C   0  0  0  0  0  0  0  0  0  0  0  0
    5.5720   -1.9160  -52.8530 F   0  0  0  0  0  0  0  0  0  0  0  0
    5.3955   -4.2852  -49.4340 H   0  0  0  0  0  0  0  0  0  0  0  0
    5.3638   -3.3190  -50.9479 H   0  0  0  0  0  0  0  0  0  0  0  0
    6.0826   -4.9652  -50.9479 H   0  0  0  0  0  0  0  0  0  0  0  0
    7.4069   -3.4486  -48.9143 H   0  0  0  0  0  0  0  0  0  0  0  0
    8.0640   -4.0770  -50.4955 H   0  0  0  0  0  0  0  0  0  0  0  0
    6.4891   -1.5810  -50.7017 H   0  0  0  0  0  0  0  0  0  0  0  0
    8.0399   -1.4584  -49.7625 H   0  0  0  0  0  0  0  0  0  0  0  0
   10.3136   -2.2665  -51.4728 H   0  0  0  0  0  0  0  0  0  0  0  0
    9.2484   -3.7135  -51.1866 H   0  0  0  0  0  0  0  0  0  0  0  0
    9.6015   -4.4482  -53.2465 H   0  0  0  0  0  0  0  0  0  0  0  0
    9.0478   -2.8453  -53.9228 H   0  0  0  0  0  0  0  0  0  0  0  0
   11.8081   -2.9018  -52.8392 H   0  0  0  0  0  0  0  0  0  0  0  0
   11.5291   -3.8829  -54.3178 H   0  0  0  0  0  0  0  0  0  0  0  0
   11.1429   -2.1286  -54.3178 H   0  0  0  0  0  0  0  0  0  0  0  0
    9.8065   -0.2965  -53.1600 H   0  0  0  0  0  0  0  0  0  0  0  0
    7.4810   -0.0780  -57.5670 H   0  0  0  0  0  0  0  0  0  0  0  0
    5.1059    0.6893  -59.1389 H   0  0  0  0  0  0  0  0  0  0  0  0
    4.7032    1.8196  -61.2906 H   0  0  0  0  0  0  0  0  0  0  0  0
    6.3866    3.4364  -62.3192 H   0  0  0  0  0  0  0  0  0  0  0  0
    8.8984    4.4512  -61.8213 H   0  0  0  0  0  0  0  0  0  0  0  0
   10.2052    6.2487  -60.2828 H   0  0  0  0  0  0  0  0  0  0  0  0
   12.4214    7.3652  -60.0437 H   0  0  0  0  0  0  0  0  0  0  0  0
   14.4228    6.0392  -59.3700 H   0  0  0  0  0  0  0  0  0  0  0  0
   14.2110    3.5937  -58.9458 H   0  0  0  0  0  0  0  0  0  0  0  0
   11.9993    2.4607  -59.1853 H   0  0  0  0  0  0  0  0  0  0  0  0
  1  2  1  0
  2  3  1  0
  3  4  1  0
  4  5  1  0
  5  6  1  0
  6  7  1  0
  4  8  1  0
  8  9  1  0
  9 10  2  0
 10 11  1  0
 10 12  1  0
 12 13  1  0
 13 14  2  0
 13 15  1  0
 15 16  1  0
 16 17  2  0
 17 18  1  0
 18 19  2  0
 19 20  1  0
 20 21  2  0
 21 22  1  0
 22 23  1  0
 23 24  2  0
 24 25  1  0
 25 26  2  0
 26 27  1  0
 27 28  2  0
 22 29  1  0
 29 30  2  0
 12 31  2  0
 31 32  1  0
 31 33  1  0
 33 34  1  0
 33  8  2  0
 30 16  1  0
 30 20  1  0
 28 23  1  0
  1 35  1  0
  1 36  1  0
  1 37  1  0
  2 38  1  0
  2 39  1  0
  3 40  1  0
  3 41  1  0
  5 42  1  0
  5 43  1  0
  6 44  1  0
  6 45  1  0
  7 46  1  0
  7 47  1  0
  7 48  1  0
  9 49  1  0
 15 50  1  0
 17 51  1  0
 18 52  1  0
 19 53  1  0
 21 54  1  0
 24 55  1  0
 25 56  1  0
 26 57  1  0
 27 58  1  0
 28 59  1  0
M  END
>  <meeko>  (51) 
{"is_sidechain": false}

$$$$

     RDKit          3D

 48 52  0  0  0  0  0  0  0  0999 V2000
    7.6500    1.1750  -56.8260 O   0  0  0  0  0  0  0  0  0  0  0  0
    8.7030    1.5110  -56.3000 C   0  0  0  0  0  0  0  0  0  0  0  0
    9.2820    0.9800  -55.1720 N   0  0  0  0  0  0  0  0  0  0  0  0
    8.7710   -0.0530  -54.3680 C   0  0  0  0  0  0  0  0  0  0  0  0
    7.8080    0.0660  -53.3440 C   0  0  0  0  0  0  0  0  0  0  0  0
    7.3440   -1.0480  -52.5680 C   0  0  0  0  0  0  0  0  0  0  0  0
    7.7930   -2.3750  -52.7390 C   0  0  0  0  0  0  0  0  0  0  0  0
    8.7380   -2.4500  -53.7530 C   0  0  0  0  0  0  0  0  0  0  0  0
    9.3720   -3.5860  -54.1680 C   0  0  0  0  0  0  0  0  0  0  0  0
   10.2180   -3.1940  -55.1870 N   0  0  0  0  0  0  0  0  0  0  0  0
   11.0970   -4.0160  -55.9510 C   0  0  0  0  0  0  0  0  0  0  0  0
   11.9950   -4.8960  -55.3300 C   0  0  0  0  0  0  0  0  0  0  0  0
   12.8460   -5.6910  -56.1050 C   0  0  0  0  0  0  0  0  0  0  0  0
   12.8070   -5.6140  -57.4960 C   0  0  0  0  0  0  0  0  0  0  0  0
   11.9170   -4.7420  -58.1200 C   0  0  0  0  0  0  0  0  0  0  0  0
   11.0650   -3.9460  -57.3530 C   0  0  0  0  0  0  0  0  0  0  0  0
   10.1460   -1.8510  -55.4280 N   0  0  0  0  0  0  0  0  0  0  0  0
    9.2380   -1.3750  -54.5560 C   0  0  0  0  0  0  0  0  0  0  0  0
    9.4660    2.6030  -56.9260 C   0  0  0  0  0  0  0  0  0  0  0  0
   10.8220    2.4150  -57.1720 C   0  0  0  0  0  0  0  0  0  0  0  0
   11.4300    1.2790  -56.7990 F   0  0  0  0  0  0  0  0  0  0  0  0
   11.5710    3.4030  -57.8070 C   0  0  0  0  0  0  0  0  0  0  0  0
   12.8780    3.1760  -58.0110 F   0  0  0  0  0  0  0  0  0  0  0  0
   10.9880    4.6080  -58.2260 C   0  0  0  0  0  0  0  0  0  0  0  0
   11.7530    5.6180  -58.8540 N   0  0  0  0  0  0  0  0  0  0  0  0
   13.1680    5.8390  -58.7360 C   0  0  0  0  0  0  0  0  0  0  0  0
   13.0490    6.7310  -59.9730 C   0  0  0  0  0  0  0  0  0  0  0  0
   11.7460    5.9760  -60.2470 C   0  0  0  0  0  0  0  0  0  0  0  0
    9.6180    4.7820  -57.9570 C   0  0  0  0  0  0  0  0  0  0  0  0
    9.0210    5.9320  -58.3140 F   0  0  0  0  0  0  0  0  0  0  0  0
    8.8530    3.7950  -57.3180 C   0  0  0  0  0  0  0  0  0  0  0  0
    7.1890    4.1290  -56.9910 Cl  0  0  0  0  0  0  0  0  0  0  0  0
   10.1840    1.3250  -54.8530 H   0  0  0  0  0  0  0  0  0  0  0  0
    7.3925    1.0618  -53.1300 H   0  0  0  0  0  0  0  0  0  0  0  0
    6.5903   -0.8555  -51.7902 H   0  0  0  0  0  0  0  0  0  0  0  0
    7.4415   -3.2339  -52.1485 H   0  0  0  0  0  0  0  0  0  0  0  0
    9.2368   -4.6034  -53.7724 H   0  0  0  0  0  0  0  0  0  0  0  0
   12.0303   -4.9612  -54.2325 H   0  0  0  0  0  0  0  0  0  0  0  0
   13.5492   -6.3800  -55.6143 H   0  0  0  0  0  0  0  0  0  0  0  0
   13.4783   -6.2412  -58.1009 H   0  0  0  0  0  0  0  0  0  0  0  0
   11.8860   -4.6810  -59.2179 H   0  0  0  0  0  0  0  0  0  0  0  0
   10.3639   -3.2594  -57.8500 H   0  0  0  0  0  0  0  0  0  0  0  0
   13.4780    6.3616  -57.8190 H   0  0  0  0  0  0  0  0  0  0  0  0
   13.8860    5.0073  -58.6834 H   0  0  0  0  0  0  0  0  0  0  0  0
   12.9304    7.8044  -59.7638 H   0  0  0  0  0  0  0  0  0  0  0  0
   13.8516    6.8226  -60.7196 H   0  0  0  0  0  0  0  0  0  0  0  0
   10.9019    6.6100  -60.5560 H   0  0  0  0  0  0  0  0  0  0  0  0
   11.6644    5.2217  -61.0435 H   0  0  0  0  0  0  0  0  0  0  0  0
  1  2  2  0
  2  3  1  0
  3  4  1  0
  4  5  2  0
  5  6  1  0
  6  7  2  0
  7  8  1  0
  8  9  2  0
  9 10  1  0
 10 11  1  0
 11 12  2  0
 12 13  1  0
 13 14  2  0
 14 15  1  0
 15 16  2  0
 10 17  1  0
 17 18  2  0
  2 19  1  0
 19 20  1  0
 20 21  1  0
 20 22  2  0
 22 23  1  0
 22 24  1  0
 24 25  1  0
 25 26  1  0
 26 27  1  0
 27 28  1  0
 24 29  2  0
 29 30  1  0
 29 31  1  0
 31 32  1  0
 18  4  1  0
 31 19  2  0
 18  8  1  0
 28 25  1  0
 16 11  1  0
  3 33  1  0
  5 34  1  0
  6 35  1  0
  7 36  1  0
  9 37  1  0
 12 38  1  0
 13 39  1  0
 14 40  1  0
 15 41  1  0
 16 42  1  0
 26 43  1  0
 26 44  1  0
 27 45  1  0
 27 46  1  0
 28 47  1  0
 28 48  1  0
M  END
>  <meeko>  (52) 
{"is_sidechain": false}

$$$$

     RDKit          3D

 39 42  0  0  0  0  0  0  0  0999 V2000
    6.3100    2.1130  -56.6010 O   0  0  0  0  0  0  0  0  0  0  0  0
    7.3350    1.5170  -56.2760 C   0  0  0  0  0  0  0  0  0  0  0  0
    8.5680    1.8560  -56.8200 N   0  0  0  0  0  0  0  0  0  0  0  0
    8.8010    2.9170  -57.8060 C   0  0  2  0  0  0  0  0  0  0  0  0
    8.6030    4.3260  -57.1930 C   0  0  0  0  0  0  0  0  0  0  0  0
    8.9060    5.4160  -58.2350 C   0  0  1  0  0  0  0  0  0  0  0  0
   10.3650    5.2830  -58.7000 C   0  0  0  0  0  0  0  0  0  0  0  0
   10.5890    3.9000  -59.3330 C   0  0  2  0  0  0  0  0  0  0  0  0
    9.6500    3.7330  -60.5370 C   0  0  0  0  0  0  0  0  0  0  0  0
    8.1880    3.8580  -60.0830 C   0  0  2  0  0  0  0  0  0  0  0  0
    7.9700    5.2400  -59.4430 C   0  0  0  0  0  0  0  0  0  0  0  0
    7.8820    2.7640  -59.0430 C   0  0  0  0  0  0  0  0  0  0  0  0
   10.2730    2.8140  -58.2920 C   0  0  0  0  0  0  0  0  0  0  0  0
    7.3500    0.4150  -55.3020 C   0  0  0  0  0  0  0  0  0  0  0  0
    6.2790   -0.3000  -55.0100 N   0  0  0  0  0  0  0  0  0  0  0  0
    6.5870   -1.2600  -54.0680 C   0  0  0  0  0  0  0  0  0  0  0  0
    7.8970   -1.2770  -53.6430 C   0  0  0  0  0  0  0  0  0  0  0  0
    8.5430   -2.1700  -52.6540 C   0  0  0  0  0  0  0  0  0  0  0  0
    8.1560   -1.8890  -51.3840 F   0  0  0  0  0  0  0  0  0  0  0  0
    9.8960   -2.0660  -52.6820 F   0  0  0  0  0  0  0  0  0  0  0  0
    8.2480   -3.4770  -52.8770 F   0  0  0  0  0  0  0  0  0  0  0  0
    8.7750   -0.0450  -54.4500 S   0  0  0  0  0  0  0  0  0  0  0  0
    9.3690    1.3220  -56.5060 H   0  0  0  0  0  0  0  0  0  0  0  0
    7.5619    4.4297  -56.8534 H   0  0  0  0  0  0  0  0  0  0  0  0
    9.2930    4.4443  -56.3445 H   0  0  0  0  0  0  0  0  0  0  0  0
    8.7492    6.4085  -57.7873 H   0  0  0  0  0  0  0  0  0  0  0  0
   10.5834    6.0639  -59.4433 H   0  0  0  0  0  0  0  0  0  0  0  0
   11.0329    5.3969  -57.8334 H   0  0  0  0  0  0  0  0  0  0  0  0
   11.6340    3.8084  -59.6642 H   0  0  0  0  0  0  0  0  0  0  0  0
    9.8687    4.5134  -61.2807 H   0  0  0  0  0  0  0  0  0  0  0  0
    9.8065    2.7395  -60.9824 H   0  0  0  0  0  0  0  0  0  0  0  0
    7.5215    3.7418  -60.9503 H   0  0  0  0  0  0  0  0  0  0  0  0
    8.1833    6.0228  -60.1858 H   0  0  0  0  0  0  0  0  0  0  0  0
    6.9263    5.3198  -59.1048 H   0  0  0  0  0  0  0  0  0  0  0  0
    6.8320    2.8495  -58.7263 H   0  0  0  0  0  0  0  0  0  0  0  0
    8.0622    1.7796  -59.4996 H   0  0  0  0  0  0  0  0  0  0  0  0
   10.4334    1.8245  -58.7450 H   0  0  0  0  0  0  0  0  0  0  0  0
   10.9374    2.9553  -57.4268 H   0  0  0  0  0  0  0  0  0  0  0  0
    5.8361   -1.9651  -53.6820 H   0  0  0  0  0  0  0  0  0  0  0  0
  1  2  2  0
  2  3  1  0
  4  3  1  1
  4  5  1  0
  5  6  1  0
  6  7  1  0
  7  8  1  0
  8  9  1  0
  9 10  1  0
 10 11  1  0
 10 12  1  0
  8 13  1  0
  2 14  1  0
 14 15  2  0
 15 16  1  0
 16 17  2  0
 17 18  1  0
 18 19  1  0
 18 20  1  0
 18 21  1  0
 17 22  1  0
 12  4  1  0
 22 14  1  0
 13  4  1  0
 11  6  1  0
  3 23  1  0
  5 24  1  0
  5 25  1  0
  6 26  1  1
  7 27  1  0
  7 28  1  0
  8 29  1  6
  9 30  1  0
  9 31  1  0
 10 32  1  6
 11 33  1  0
 11 34  1  0
 12 35  1  0
 12 36  1  0
 13 37  1  0
 13 38  1  0
 16 39  1  0
M  END
>  <meeko>  (53) 
{"is_sidechain": false}

$$$$

     RDKit          3D

 49 53  0  0  0  0  0  0  0  0999 V2000
   11.1440    1.3460  -56.8400 O   0  0  0  0  0  0  0  0  0  0  0  0
   10.0070    1.1790  -56.4040 C   0  0  0  0  0  0  0  0  0  0  0  0
    8.9130    1.8840  -56.8740 N   0  0  0  0  0  0  0  0  0  0  0  0
    8.9280    2.9110  -57.9150 C   0  0  2  0  0  0  0  0  0  0  0  0
    9.6870    4.1800  -57.4550 C   0  0  0  0  0  0  0  0  0  0  0  0
    9.6450    5.2610  -58.5490 C   0  0  1  0  0  0  0  0  0  0  0  0
   10.2920    4.7100  -59.8310 C   0  0  0  0  0  0  0  0  0  0  0  0
    9.5240    3.4680  -60.3180 C   0  0  2  0  0  0  0  0  0  0  0  0
    8.0630    3.8530  -60.5980 C   0  0  0  0  0  0  0  0  0  0  0  0
    7.4100    4.3970  -59.3180 C   0  0  2  0  0  0  0  0  0  0  0  0
    8.1830    5.6350  -58.8380 C   0  0  0  0  0  0  0  0  0  0  0  0
    7.4640    3.3160  -58.2260 C   0  0  0  0  0  0  0  0  0  0  0  0
    9.5660    2.3860  -59.2250 C   0  0  0  0  0  0  0  0  0  0  0  0
    9.6520    0.2300  -55.3490 C   0  0  0  0  0  0  0  0  0  0  0  0
    8.6230    0.4160  -54.5390 N   0  0  0  0  0  0  0  0  0  0  0  0
    8.5520   -0.6400  -53.6500 C   0  0  0  0  0  0  0  0  0  0  0  0
    9.5160   -1.6180  -53.7940 C   0  0  0  0  0  0  0  0  0  0  0  0
    9.7120   -2.8820  -53.0150 C   0  0  0  0  0  0  0  0  0  0  0  0
    8.5480   -3.1920  -52.1000 C   0  0  0  0  0  0  0  0  0  0  0  0
    8.5350   -2.7290  -50.7770 C   0  0  0  0  0  0  0  0  0  0  0  0
    7.4660   -3.0290  -49.9330 C   0  0  0  0  0  0  0  0  0  0  0  0
    6.4000   -3.7960  -50.4010 C   0  0  0  0  0  0  0  0  0  0  0  0
    6.4030   -4.2650  -51.7130 C   0  0  0  0  0  0  0  0  0  0  0  0
    7.4710   -3.9660  -52.5600 C   0  0  0  0  0  0  0  0  0  0  0  0
   10.5580   -1.1990  -55.0930 S   0  0  0  0  0  0  0  0  0  0  0  0
    8.0340    1.6530  -56.4180 H   0  0  0  0  0  0  0  0  0  0  0  0
    9.2163    4.5717  -56.5412 H   0  0  0  0  0  0  0  0  0  0  0  0
   10.7362    3.9145  -57.2582 H   0  0  0  0  0  0  0  0  0  0  0  0
   10.1939    6.1521  -58.2105 H   0  0  0  0  0  0  0  0  0  0  0  0
   10.2668    5.4833  -60.6129 H   0  0  0  0  0  0  0  0  0  0  0  0
   11.3337    4.4288  -59.6170 H   0  0  0  0  0  0  0  0  0  0  0  0
    9.9867    3.0821  -61.2383 H   0  0  0  0  0  0  0  0  0  0  0  0
    8.0332    4.6265  -61.3795 H   0  0  0  0  0  0  0  0  0  0  0  0
    7.5123    2.9622  -60.9346 H   0  0  0  0  0  0  0  0  0  0  0  0
    6.3644    4.6699  -59.5238 H   0  0  0  0  0  0  0  0  0  0  0  0
    8.1524    6.4092  -59.6188 H   0  0  0  0  0  0  0  0  0  0  0  0
    7.7185    6.0164  -57.9167 H   0  0  0  0  0  0  0  0  0  0  0  0
    6.9968    3.7067  -57.3100 H   0  0  0  0  0  0  0  0  0  0  0  0
    6.9242    2.4277  -58.5860 H   0  0  0  0  0  0  0  0  0  0  0  0
    9.0093    1.5020  -59.5695 H   0  0  0  0  0  0  0  0  0  0  0  0
   10.6152    2.1211  -59.0277 H   0  0  0  0  0  0  0  0  0  0  0  0
    7.7742   -0.6978  -52.8743 H   0  0  0  0  0  0  0  0  0  0  0  0
    9.8350   -3.7155  -53.7223 H   0  0  0  0  0  0  0  0  0  0  0  0
   10.6031   -2.7479  -52.3842 H   0  0  0  0  0  0  0  0  0  0  0  0
    9.3740   -2.1247  -50.4017 H   0  0  0  0  0  0  0  0  0  0  0  0
    7.4639   -2.6600  -48.8967 H   0  0  0  0  0  0  0  0  0  0  0  0
    5.5569   -4.0308  -49.7347 H   0  0  0  0  0  0  0  0  0  0  0  0
    5.5626   -4.8716  -52.0816 H   0  0  0  0  0  0  0  0  0  0  0  0
    7.4689   -4.3392  -53.5948 H   0  0  0  0  0  0  0  0  0  0  0  0
  1  2  2  0
  2  3  1  0
  4  3  1  1
  4  5  1  0
  5  6  1  0
  6  7  1  0
  7  8  1  0
  8  9  1  0
  9 10  1  0
 10 11  1  0
 10 12  1  0
  8 13  1  0
  2 14  1  0
 14 15  2  0
 15 16  1  0
 16 17  2  0
 17 18  1  0
 18 19  1  0
 19 20  2  0
 20 21  1  0
 21 22  2  0
 22 23  1  0
 23 24  2  0
 17 25  1  0
 12  4  1  0
 25 14  1  0
 13  4  1  0
 24 19  1  0
 11  6  1  0
  3 26  1  0
  5 27  1  0
  5 28  1  0
  6 29  1  1
  7 30  1  0
  7 31  1  0
  8 32  1  6
  9 33  1  0
  9 34  1  0
 10 35  1  6
 11 36  1  0
 11 37  1  0
 12 38  1  0
 12 39  1  0
 13 40  1  0
 13 41  1  0
 16 42  1  0
 18 43  1  0
 18 44  1  0
 20 45  1  0
 21 46  1  0
 22 47  1  0
 23 48  1  0
 24 49  1  0
M  END
>  <meeko>  (54) 
{"is_sidechain": false}

$$$$

     RDKit          3D

 36 39  0  0  0  0  0  0  0  0999 V2000
    6.7910    2.6310  -58.6630 O   0  0  0  0  0  0  0  0  0  0  0  0
    6.9880    2.7450  -59.8710 C   0  0  0  0  0  0  0  0  0  0  0  0
    8.1680    3.2440  -60.3950 N   0  0  0  0  0  0  0  0  0  0  0  0
    9.3270    3.6970  -59.6280 C   0  0  2  0  0  0  0  0  0  0  0  0
    8.9620    4.8620  -58.6750 C   0  0  0  0  0  0  0  0  0  0  0  0
   10.2100    5.3530  -57.9180 C   0  0  1  0  0  0  0  0  0  0  0  0
   10.8020    4.1870  -57.1080 C   0  0  0  0  0  0  0  0  0  0  0  0
   11.2020    3.0380  -58.0490 C   0  0  2  0  0  0  0  0  0  0  0  0
   12.2410    3.5480  -59.0600 C   0  0  0  0  0  0  0  0  0  0  0  0
   11.6520    4.7070  -59.8780 C   0  0  2  0  0  0  0  0  0  0  0  0
   11.2550    5.8490  -58.9300 C   0  0  0  0  0  0  0  0  0  0  0  0
   10.4010    4.2130  -60.6230 C   0  0  0  0  0  0  0  0  0  0  0  0
    9.9560    2.5450  -58.8050 C   0  0  0  0  0  0  0  0  0  0  0  0
    6.0230    2.3780  -60.9070 C   0  0  0  0  0  0  0  0  0  0  0  0
    6.2140    2.6460  -62.1910 N   0  0  0  0  0  0  0  0  0  0  0  0
    5.1290    2.1770  -62.9130 C   0  0  0  0  0  0  0  0  0  0  0  0
    4.1520    1.5700  -62.1630 C   0  0  0  0  0  0  0  0  0  0  0  0
    2.5490    0.8270  -62.8710 Br  0  0  0  0  0  0  0  0  0  0  0  0
    4.5620    1.5670  -60.5160 S   0  0  0  0  0  0  0  0  0  0  0  0
    8.1990    3.2840  -61.4100 H   0  0  0  0  0  0  0  0  0  0  0  0
    8.5453    5.6931  -59.2628 H   0  0  0  0  0  0  0  0  0  0  0  0
    8.2214    4.5044  -57.9445 H   0  0  0  0  0  0  0  0  0  0  0  0
    9.9332    6.1735  -57.2397 H   0  0  0  0  0  0  0  0  0  0  0  0
   11.6911    4.5371  -56.5632 H   0  0  0  0  0  0  0  0  0  0  0  0
   10.0460    3.8228  -56.3967 H   0  0  0  0  0  0  0  0  0  0  0  0
   11.6311    2.2116  -57.4634 H   0  0  0  0  0  0  0  0  0  0  0  0
   13.1328    3.8992  -58.5203 H   0  0  0  0  0  0  0  0  0  0  0  0
   12.5158    2.7285  -59.7404 H   0  0  0  0  0  0  0  0  0  0  0  0
   12.3994    5.0680  -60.5999 H   0  0  0  0  0  0  0  0  0  0  0  0
   12.1465    6.2008  -58.3902 H   0  0  0  0  0  0  0  0  0  0  0  0
   10.8253    6.6734  -59.5180 H   0  0  0  0  0  0  0  0  0  0  0  0
    9.9795    5.0437  -61.2080 H   0  0  0  0  0  0  0  0  0  0  0  0
   10.6923    3.3838  -61.2845 H   0  0  0  0  0  0  0  0  0  0  0  0
   10.2446    1.7303  -59.4853 H   0  0  0  0  0  0  0  0  0  0  0  0
    9.2164    2.1860  -58.0742 H   0  0  0  0  0  0  0  0  0  0  0  0
    5.0555    2.2829  -64.0054 H   0  0  0  0  0  0  0  0  0  0  0  0
  1  2  2  0
  2  3  1  0
  4  3  1  6
  4  5  1  0
  5  6  1  0
  6  7  1  0
  7  8  1  0
  8  9  1  0
  9 10  1  0
 10 11  1  0
 10 12  1  0
  8 13  1  0
  2 14  1  0
 14 15  2  0
 15 16  1  0
 16 17  2  0
 17 18  1  0
 17 19  1  0
 12  4  1  0
 19 14  1  0
 13  4  1  0
 11  6  1  0
  3 20  1  0
  5 21  1  0
  5 22  1  0
  6 23  1  1
  7 24  1  0
  7 25  1  0
  8 26  1  1
  9 27  1  0
  9 28  1  0
 10 29  1  6
 11 30  1  0
 11 31  1  0
 12 32  1  0
 12 33  1  0
 13 34  1  0
 13 35  1  0
 16 36  1  0
M  END
>  <meeko>  (55) 
{"is_sidechain": false}

$$$$

     RDKit          3D

 34 37  0  0  0  0  0  0  0  0999 V2000
    5.8890    2.6100  -62.6610 C   0  0  0  0  0  0  0  0  0  0  0  0
    4.6780    2.1710  -62.1780 C   0  0  0  0  0  0  0  0  0  0  0  0
    4.8370    1.7680  -60.5230 S   0  0  0  0  0  0  0  0  0  0  0  0
    6.5090    2.2040  -60.5760 C   0  0  0  0  0  0  0  0  0  0  0  0
    7.2540    2.0900  -59.4530 N   0  0  0  0  0  0  0  0  0  0  0  0
    8.2690    3.0650  -59.0560 C   0  0  2  0  0  0  0  0  0  0  0  0
    7.7970    4.5180  -59.2940 C   0  0  0  0  0  0  0  0  0  0  0  0
    8.8620    5.5150  -58.7980 C   0  0  1  0  0  0  0  0  0  0  0  0
    9.0840    5.3130  -57.2920 C   0  0  0  0  0  0  0  0  0  0  0  0
    9.5680    3.8790  -57.0200 C   0  0  2  0  0  0  0  0  0  0  0  0
   10.8880    3.6380  -57.7670 C   0  0  0  0  0  0  0  0  0  0  0  0
   10.6770    3.8270  -59.2770 C   0  0  2  0  0  0  0  0  0  0  0  0
   10.1820    5.2600  -59.5450 C   0  0  0  0  0  0  0  0  0  0  0  0
    9.6180    2.8250  -59.7740 C   0  0  0  0  0  0  0  0  0  0  0  0
    8.5110    2.8860  -57.5300 C   0  0  0  0  0  0  0  0  0  0  0  0
    6.9220    2.6280  -61.7470 N   0  0  0  0  0  0  0  0  0  0  0  0
    6.0245    2.9255  -63.7060 H   0  0  0  0  0  0  0  0  0  0  0  0
    3.7511    2.0914  -62.7650 H   0  0  0  0  0  0  0  0  0  0  0  0
    6.8110    1.5920  -58.6880 H   0  0  0  0  0  0  0  0  0  0  0  0
    7.6282    4.6729  -60.3699 H   0  0  0  0  0  0  0  0  0  0  0  0
    6.8631    4.6862  -58.7376 H   0  0  0  0  0  0  0  0  0  0  0  0
    8.5224    6.5441  -58.9867 H   0  0  0  0  0  0  0  0  0  0  0  0
    9.8416    6.0269  -56.9364 H   0  0  0  0  0  0  0  0  0  0  0  0
    8.1353    5.4809  -56.7612 H   0  0  0  0  0  0  0  0  0  0  0  0
    9.7230    3.7382  -55.9401 H   0  0  0  0  0  0  0  0  0  0  0  0
   11.6438    4.3540  -57.4120 H   0  0  0  0  0  0  0  0  0  0  0  0
   11.2300    2.6102  -57.5752 H   0  0  0  0  0  0  0  0  0  0  0  0
   11.6260    3.6558  -59.8062 H   0  0  0  0  0  0  0  0  0  0  0  0
   10.9403    5.9772  -59.1977 H   0  0  0  0  0  0  0  0  0  0  0  0
   10.0131    5.3851  -60.6247 H   0  0  0  0  0  0  0  0  0  0  0  0
    9.4793    2.9521  -60.8578 H   0  0  0  0  0  0  0  0  0  0  0  0
    9.9624    1.8037  -59.5540 H   0  0  0  0  0  0  0  0  0  0  0  0
    8.8591    1.8602  -57.3388 H   0  0  0  0  0  0  0  0  0  0  0  0
    7.5660    3.0770  -57.0004 H   0  0  0  0  0  0  0  0  0  0  0  0
  1  2  2  0
  2  3  1  0
  3  4  1  0
  4  5  1  0
  6  5  1  6
  6  7  1  0
  7  8  1  0
  8  9  1  0
  9 10  1  0
 10 11  1  0
 11 12  1  0
 12 13  1  0
 12 14  1  0
 10 15  1  0
  4 16  2  0
 16  1  1  0
 14  6  1  0
 15  6  1  0
 13  8  1  0
  1 17  1  0
  2 18  1  0
  5 19  1  0
  7 20  1  0
  7 21  1  0
  8 22  1  1
  9 23  1  0
  9 24  1  0
 10 25  1  1
 11 26  1  0
 11 27  1  0
 12 28  1  6
 13 29  1  0
 13 30  1  0
 14 31  1  0
 14 32  1  0
 15 33  1  0
 15 34  1  0
M  END
>  <meeko>  (56) 
{"is_sidechain": false}

$$$$

     RDKit          3D

 34 37  0  0  0  0  0  0  0  0999 V2000
    5.8410    2.6420  -62.7000 C   0  0  0  0  0  0  0  0  0  0  0  0
    4.7730    1.8980  -62.3820 C   0  0  0  0  0  0  0  0  0  0  0  0
    4.7440    1.5510  -60.6650 S   0  0  0  0  0  0  0  0  0  0  0  0
    6.2650    2.4750  -60.4150 C   0  0  0  0  0  0  0  0  0  0  0  0
    6.7330    2.5500  -59.2360 N   0  0  0  0  0  0  0  0  0  0  0  0
    7.9560    3.2650  -58.8830 C   0  0  2  0  0  0  0  0  0  0  0  0
    7.8270    4.7870  -59.1060 C   0  0  0  0  0  0  0  0  0  0  0  0
    9.1060    5.5020  -58.6340 C   0  0  1  0  0  0  0  0  0  0  0  0
    9.3050    5.2470  -57.1320 C   0  0  0  0  0  0  0  0  0  0  0  0
    9.4390    3.7380  -56.8700 C   0  0  2  0  0  0  0  0  0  0  0  0
   10.6520    3.1950  -57.6430 C   0  0  0  0  0  0  0  0  0  0  0  0
   10.4640    3.4340  -59.1490 C   0  0  2  0  0  0  0  0  0  0  0  0
   10.3140    4.9440  -59.4080 C   0  0  0  0  0  0  0  0  0  0  0  0
    9.1910    2.7100  -59.6230 C   0  0  0  0  0  0  0  0  0  0  0  0
    8.1700    3.0260  -57.3630 C   0  0  0  0  0  0  0  0  0  0  0  0
    6.6510    2.9560  -61.6400 N   0  0  0  0  0  0  0  0  0  0  0  0
    6.0505    2.9736  -63.7277 H   0  0  0  0  0  0  0  0  0  0  0  0
    4.0166    1.5518  -63.1017 H   0  0  0  0  0  0  0  0  0  0  0  0
    7.6733    4.9859  -60.1769 H   0  0  0  0  0  0  0  0  0  0  0  0
    6.9702    5.1638  -58.5281 H   0  0  0  0  0  0  0  0  0  0  0  0
    9.0152    6.5828  -58.8171 H   0  0  0  0  0  0  0  0  0  0  0  0
   10.2181    5.7584  -56.7932 H   0  0  0  0  0  0  0  0  0  0  0  0
    8.4353    5.6341  -56.5809 H   0  0  0  0  0  0  0  0  0  0  0  0
    9.5735    3.5594  -55.7930 H   0  0  0  0  0  0  0  0  0  0  0  0
   11.5618    3.7113  -57.3028 H   0  0  0  0  0  0  0  0  0  0  0  0
   10.7450    2.1148  -57.4572 H   0  0  0  0  0  0  0  0  0  0  0  0
   11.3361    3.0480  -59.6971 H   0  0  0  0  0  0  0  0  0  0  0  0
   11.2269    5.4612  -59.0776 H   0  0  0  0  0  0  0  0  0  0  0  0
   10.1560    5.1083  -60.4841 H   0  0  0  0  0  0  0  0  0  0  0  0
    9.0664    2.8648  -60.7049 H   0  0  0  0  0  0  0  0  0  0  0  0
    9.2869    1.6359  -59.4061 H   0  0  0  0  0  0  0  0  0  0  0  0
    8.2681    1.9460  -57.1784 H   0  0  0  0  0  0  0  0  0  0  0  0
    7.3049    3.4316  -56.8180 H   0  0  0  0  0  0  0  0  0  0  0  0
    7.4790    3.5130  -61.7710 H   0  0  0  0  0  0  0  0  0  0  0  0
  1  2  2  0
  2  3  1  0
  3  4  1  0
  4  5  2  0
  6  5  1  6
  6  7  1  0
  7  8  1  0
  8  9  1  0
  9 10  1  0
 10 11  1  0
 11 12  1  0
 12 13  1  0
 12 14  1  0
 10 15  1  0
  4 16  1  0
 16  1  1  0
 14  6  1  0
 15  6  1  0
 13  8  1  0
  1 17  1  0
  2 18  1  0
  7 19  1  0
  7 20  1  0
  8 21  1  1
  9 22  1  0
  9 23  1  0
 10 24  1  1
 11 25  1  0
 11 26  1  0
 12 27  1  6
 13 28  1  0
 13 29  1  0
 14 30  1  0
 14 31  1  0
 15 32  1  0
 15 33  1  0
 16 34  1  0
M  END
>  <meeko>  (57) 
{"is_sidechain": false}

$$$$

     RDKit          3D

 34 37  0  0  0  0  0  0  0  0999 V2000
    4.2010    1.7920  -61.9350 C   0  0  0  0  0  0  0  0  0  0  0  0
    3.9630    1.7240  -60.6200 C   0  0  0  0  0  0  0  0  0  0  0  0
    5.3560    2.2760  -59.7070 S   0  0  0  0  0  0  0  0  0  0  0  0
    6.2660    2.5990  -61.2030 C   0  0  0  0  0  0  0  0  0  0  0  0
    7.4500    3.0530  -61.3480 N   0  0  0  0  0  0  0  0  0  0  0  0
    8.4030    3.4370  -60.3120 C   0  0  2  0  0  0  0  0  0  0  0  0
    8.7230    2.2870  -59.3360 C   0  0  0  0  0  0  0  0  0  0  0  0
    9.8180    2.7190  -58.3430 C   0  0  1  0  0  0  0  0  0  0  0  0
   11.1010    3.0590  -59.1170 C   0  0  0  0  0  0  0  0  0  0  0  0
   10.8280    4.2050  -60.1030 C   0  0  2  0  0  0  0  0  0  0  0  0
   10.3630    5.4460  -59.3250 C   0  0  0  0  0  0  0  0  0  0  0  0
    9.0750    5.1250  -58.5520 C   0  0  2  0  0  0  0  0  0  0  0  0
    9.3430    3.9660  -57.5750 C   0  0  0  0  0  0  0  0  0  0  0  0
    7.9750    4.7060  -59.5470 C   0  0  0  0  0  0  0  0  0  0  0  0
    9.7180    3.7770  -61.0750 C   0  0  0  0  0  0  0  0  0  0  0  0
    5.4460    2.2660  -62.2510 N   0  0  0  0  0  0  0  0  0  0  0  0
    3.4627    1.4939  -62.6940 H   0  0  0  0  0  0  0  0  0  0  0  0
    3.0225    1.3703  -60.1725 H   0  0  0  0  0  0  0  0  0  0  0  0
    7.8129    2.0197  -58.7791 H   0  0  0  0  0  0  0  0  0  0  0  0
    9.0817    1.4197  -59.9097 H   0  0  0  0  0  0  0  0  0  0  0  0
   10.0190    1.9013  -57.6353 H   0  0  0  0  0  0  0  0  0  0  0  0
   11.8841    3.3663  -58.4082 H   0  0  0  0  0  0  0  0  0  0  0  0
   11.4331    2.1716  -59.6758 H   0  0  0  0  0  0  0  0  0  0  0  0
   11.7461    4.4401  -60.6614 H   0  0  0  0  0  0  0  0  0  0  0  0
   11.1483    5.7478  -58.6163 H   0  0  0  0  0  0  0  0  0  0  0  0
   10.1666    6.2650  -60.0326 H   0  0  0  0  0  0  0  0  0  0  0  0
    8.7493    6.0139  -57.9918 H   0  0  0  0  0  0  0  0  0  0  0  0
   10.1202    4.2684  -56.8577 H   0  0  0  0  0  0  0  0  0  0  0  0
    8.4116    3.7247  -57.0418 H   0  0  0  0  0  0  0  0  0  0  0  0
    7.0453    4.5016  -58.9958 H   0  0  0  0  0  0  0  0  0  0  0  0
    7.8134    5.5215  -60.2673 H   0  0  0  0  0  0  0  0  0  0  0  0
    9.5219    4.5982  -61.7801 H   0  0  0  0  0  0  0  0  0  0  0  0
   10.0524    2.8771  -61.6120 H   0  0  0  0  0  0  0  0  0  0  0  0
    5.7640    2.3710  -63.2020 H   0  0  0  0  0  0  0  0  0  0  0  0
  1  2  2  0
  2  3  1  0
  3  4  1  0
  4  5  2  0
  6  5  1  6
  6  7  1  0
  7  8  1  0
  8  9  1  0
  9 10  1  0
 10 11  1  0
 11 12  1  0
 12 13  1  0
 12 14  1  0
 10 15  1  0
  4 16  1  0
 16  1  1  0
 14  6  1  0
 15  6  1  0
 13  8  1  0
  1 17  1  0
  2 18  1  0
  7 19  1  0
  7 20  1  0
  8 21  1  1
  9 22  1  0
  9 23  1  0
 10 24  1  6
 11 25  1  0
 11 26  1  0
 12 27  1  1
 13 28  1  0
 13 29  1  0
 14 30  1  0
 14 31  1  0
 15 32  1  0
 15 33  1  0
 16 34  1  0
M  END
>  <meeko>  (58) 
{"is_sidechain": false}

$$$$

     RDKit          3D

 30 31  0  0  0  0  0  0  0  0999 V2000
    5.8410   -4.1190  -50.4730 C   0  0  0  0  0  0  0  0  0  0  0  0
    7.3210   -4.4720  -50.4730 C   0  0  0  0  0  0  0  0  0  0  0  0
    8.1880   -3.2430  -50.1900 C   0  0  0  0  0  0  0  0  0  0  0  0
    8.1530   -2.2310  -51.3320 C   0  0  0  0  0  0  0  0  0  0  0  0
    9.0230   -2.6070  -52.4210 N   0  0  0  0  0  0  0  0  0  0  0  0
    9.2890   -1.7540  -53.4790 C   0  0  0  0  0  0  0  0  0  0  0  0
    8.9290   -0.5790  -53.4730 O   0  0  0  0  0  0  0  0  0  0  0  0
   10.0130   -2.4040  -54.5690 C   0  0  0  0  0  0  0  0  0  0  0  0
    9.9180   -3.7000  -54.8100 N   0  0  0  0  0  0  0  0  0  0  0  0
   10.7120   -4.0220  -55.9000 C   0  0  0  0  0  0  0  0  0  0  0  0
   10.8710   -5.3090  -56.4530 C   0  0  0  0  0  0  0  0  0  0  0  0
   11.7060   -5.4930  -57.5600 C   0  0  0  0  0  0  0  0  0  0  0  0
   12.3830   -4.4140  -58.1190 C   0  0  0  0  0  0  0  0  0  0  0  0
   12.2420   -3.1270  -57.5900 C   0  0  0  0  0  0  0  0  0  0  0  0
   11.4010   -2.9540  -56.4780 C   0  0  0  0  0  0  0  0  0  0  0  0
   11.0300   -1.5110  -55.6140 S   0  0  0  0  0  0  0  0  0  0  0  0
    5.4843   -4.0339  -49.4359 H   0  0  0  0  0  0  0  0  0  0  0  0
    5.6927   -3.1603  -50.9915 H   0  0  0  0  0  0  0  0  0  0  0  0
    5.2760   -4.9076  -50.9915 H   0  0  0  0  0  0  0  0  0  0  0  0
    7.5085   -5.2287  -49.6969 H   0  0  0  0  0  0  0  0  0  0  0  0
    7.5845   -4.8599  -51.4680 H   0  0  0  0  0  0  0  0  0  0  0  0
    7.8217   -2.7554  -49.2745 H   0  0  0  0  0  0  0  0  0  0  0  0
    9.2274   -3.5847  -50.0763 H   0  0  0  0  0  0  0  0  0  0  0  0
    7.1226   -2.1594  -51.7104 H   0  0  0  0  0  0  0  0  0  0  0  0
    8.5030   -1.2654  -50.9382 H   0  0  0  0  0  0  0  0  0  0  0  0
    9.2250   -3.5880  -52.5960 H   0  0  0  0  0  0  0  0  0  0  0  0
   10.3395   -6.1667  -56.0149 H   0  0  0  0  0  0  0  0  0  0  0  0
   11.8281   -6.4975  -57.9913 H   0  0  0  0  0  0  0  0  0  0  0  0
   13.0376   -4.5751  -58.9882 H   0  0  0  0  0  0  0  0  0  0  0  0
   12.7754   -2.2730  -58.0328 H   0  0  0  0  0  0  0  0  0  0  0  0
  1  2  1  0
  2  3  1  0
  3  4  1  0
  4  5  1  0
  5  6  1  0
  6  7  2  0
  6  8  1  0
  8  9  2  0
  9 10  1  0
 10 11  2  0
 11 12  1  0
 12 13  2  0
 13 14  1  0
 14 15  2  0
 15 16  1  0
 16  8  1  0
 15 10  1  0
  1 17  1  0
  1 18  1  0
  1 19  1  0
  2 20  1  0
  2 21  1  0
  3 22  1  0
  3 23  1  0
  4 24  1  0
  4 25  1  0
  5 26  1  0
 11 27  1  0
 12 28  1  0
 13 29  1  0
 14 30  1  0
M  END
>  <meeko>  (59) 
{"is_sidechain": false}

$$$$

     RDKit          3D

 44 47  0  0  0  0  0  0  0  0999 V2000
    8.4760   -0.3250  -54.1190 C   0  0  0  0  0  0  0  0  0  0  0  0
    8.4040   -1.3470  -53.1030 N   0  0  0  0  0  0  0  0  0  0  0  0
    7.4600   -1.4280  -52.1190 C   0  0  0  0  0  0  0  0  0  0  0  0
    7.7850   -2.5560  -51.4060 C   0  0  0  0  0  0  0  0  0  0  0  0
    7.0600   -2.9460  -50.3450 O   0  0  0  0  0  0  0  0  0  0  0  0
    6.2410   -4.0530  -50.6580 C   0  0  0  0  0  0  0  0  0  0  0  0
    6.8040   -5.1450  -50.0750 F   0  0  0  0  0  0  0  0  0  0  0  0
    5.0300   -3.8910  -50.0650 F   0  0  0  0  0  0  0  0  0  0  0  0
    8.9050   -3.1550  -51.9140 N   0  0  0  0  0  0  0  0  0  0  0  0
    9.2650   -2.4110  -52.9550 C   0  0  0  0  0  0  0  0  0  0  0  0
   10.4160   -2.7210  -53.7950 C   0  0  0  0  0  0  0  0  0  0  0  0
   11.5240   -2.2180  -53.6430 O   0  0  0  0  0  0  0  0  0  0  0  0
   10.1200   -3.6380  -54.7790 N   0  0  0  0  0  0  0  0  0  0  0  0
   11.0340   -4.1240  -55.8100 C   0  0  2  0  0  0  0  0  0  0  0  0
   10.2620   -5.1100  -56.7280 C   0  0  0  0  0  0  0  0  0  0  0  0
   11.1720   -5.6560  -57.8390 C   0  0  1  0  0  0  0  0  0  0  0  0
   11.6930   -4.4840  -58.6850 C   0  0  0  0  0  0  0  0  0  0  0  0
   12.4840   -3.5080  -57.8010 C   0  0  2  0  0  0  0  0  0  0  0  0
   13.6680   -4.2510  -57.1580 C   0  0  0  0  0  0  0  0  0  0  0  0
   13.1560   -5.4260  -56.3070 C   0  0  2  0  0  0  0  0  0  0  0  0
   12.3610   -6.3910  -57.2010 C   0  0  0  0  0  0  0  0  0  0  0  0
   12.2360   -4.8850  -55.1980 C   0  0  0  0  0  0  0  0  0  0  0  0
   11.5640   -2.9660  -56.6930 C   0  0  0  0  0  0  0  0  0  0  0  0
    8.5456    0.6632  -53.6408 H   0  0  0  0  0  0  0  0  0  0  0  0
    9.3646   -0.4926  -54.7454 H   0  0  0  0  0  0  0  0  0  0  0  0
    7.5727   -0.3664  -54.7454 H   0  0  0  0  0  0  0  0  0  0  0  0
    6.6217   -0.7394  -51.9372 H   0  0  0  0  0  0  0  0  0  0  0  0
    6.1384   -4.1535  -51.7486 H   0  0  0  0  0  0  0  0  0  0  0  0
    9.1460   -3.9280  -54.8040 H   0  0  0  0  0  0  0  0  0  0  0  0
    9.8907   -5.9497  -56.1221 H   0  0  0  0  0  0  0  0  0  0  0  0
    9.4243   -4.5711  -57.1947 H   0  0  0  0  0  0  0  0  0  0  0  0
   10.6066   -6.3509  -58.4773 H   0  0  0  0  0  0  0  0  0  0  0  0
   12.3497   -4.8710  -59.4781 H   0  0  0  0  0  0  0  0  0  0  0  0
   10.8391   -3.9544  -59.1326 H   0  0  0  0  0  0  0  0  0  0  0  0
   12.8577   -2.6741  -58.4133 H   0  0  0  0  0  0  0  0  0  0  0  0
   14.3289   -4.6355  -57.9488 H   0  0  0  0  0  0  0  0  0  0  0  0
   14.2225   -3.5540  -56.5125 H   0  0  0  0  0  0  0  0  0  0  0  0
   14.0075   -5.9566  -55.8560 H   0  0  0  0  0  0  0  0  0  0  0  0
   13.0179   -6.7783  -57.9937 H   0  0  0  0  0  0  0  0  0  0  0  0
   11.9848   -7.2239  -56.5888 H   0  0  0  0  0  0  0  0  0  0  0  0
   11.8625   -5.7263  -54.5957 H   0  0  0  0  0  0  0  0  0  0  0  0
   12.8111   -4.1912  -54.5672 H   0  0  0  0  0  0  0  0  0  0  0  0
   12.1301   -2.2623  -56.0650 H   0  0  0  0  0  0  0  0  0  0  0  0
   10.7087   -2.4557  -57.1599 H   0  0  0  0  0  0  0  0  0  0  0  0
  1  2  1  0
  2  3  1  0
  3  4  2  0
  4  5  1  0
  5  6  1  0
  6  7  1  0
  6  8  1  0
  4  9  1  0
  9 10  2  0
 10 11  1  0
 11 12  2  0
 11 13  1  0
 14 13  1  1
 14 15  1  0
 15 16  1  0
 16 17  1  0
 17 18  1  0
 18 19  1  0
 19 20  1  0
 20 21  1  0
 20 22  1  0
 18 23  1  0
 10  2  1  0
 22 14  1  0
 23 14  1  0
 21 16  1  0
  1 24  1  0
  1 25  1  0
  1 26  1  0
  3 27  1  0
  6 28  1  0
 13 29  1  0
 15 30  1  0
 15 31  1  0
 16 32  1  6
 17 33  1  0
 17 34  1  0
 18 35  1  6
 19 36  1  0
 19 37  1  0
 20 38  1  1
 21 39  1  0
 21 40  1  0
 22 41  1  0
 22 42  1  0
 23 43  1  0
 23 44  1  0
M  END
>  <meeko>  (60) 
{"is_sidechain": false}

$$$$

     RDKit          3D

 45 48  0  0  0  0  0  0  0  0999 V2000
    8.6530   -0.1350  -54.0520 C   0  0  0  0  0  0  0  0  0  0  0  0
    8.4740   -1.2320  -53.0960 N   0  0  0  0  0  0  0  0  0  0  0  0
    7.5340   -1.2700  -52.0760 C   0  0  0  0  0  0  0  0  0  0  0  0
    7.6800   -2.4770  -51.4450 C   0  0  0  0  0  0  0  0  0  0  0  0
    7.0230   -3.0330  -50.3490 O   0  0  0  0  0  0  0  0  0  0  0  0
    6.2880   -4.2030  -50.6500 C   0  0  0  0  0  0  0  0  0  0  0  0
    5.0960   -4.1470  -50.0110 F   0  0  0  0  0  0  0  0  0  0  0  0
    6.9680   -5.2490  -50.1320 F   0  0  0  0  0  0  0  0  0  0  0  0
    8.7260   -3.1010  -52.0700 N   0  0  0  0  0  0  0  0  0  0  0  0
    9.2370   -2.3590  -53.0750 C   0  0  0  0  0  0  0  0  0  0  0  0
   10.3270   -2.7060  -53.9280 C   0  0  0  0  0  0  0  0  0  0  0  0
   11.4470   -2.2550  -53.7180 O   0  0  0  0  0  0  0  0  0  0  0  0
   10.0090   -3.5770  -54.9620 N   0  0  0  0  0  0  0  0  0  0  0  0
   10.9950   -4.0960  -55.9280 C   0  0  2  0  0  0  0  0  0  0  0  0
   12.1360   -4.8650  -55.2180 C   0  0  0  0  0  0  0  0  0  0  0  0
   13.1190   -5.4450  -56.2500 C   0  0  1  0  0  0  0  0  0  0  0  0
   12.3700   -6.4160  -57.1770 C   0  0  0  0  0  0  0  0  0  0  0  0
   11.2430   -5.6740  -57.9120 C   0  0  2  0  0  0  0  0  0  0  0  0
   11.8450   -4.5320  -58.7450 C   0  0  0  0  0  0  0  0  0  0  0  0
   12.5890   -3.5510  -57.8280 C   0  0  2  0  0  0  0  0  0  0  0  0
   13.7110   -4.2990  -57.0880 C   0  0  0  0  0  0  0  0  0  0  0  0
   11.6050   -2.9670  -56.8000 C   0  0  0  0  0  0  0  0  0  0  0  0
   10.2690   -5.0850  -56.8790 C   0  0  0  0  0  0  0  0  0  0  0  0
    8.8067    0.8068  -53.5048 H   0  0  0  0  0  0  0  0  0  0  0  0
    9.5297   -0.3390  -54.6842 H   0  0  0  0  0  0  0  0  0  0  0  0
    7.7569   -0.0497  -54.6842 H   0  0  0  0  0  0  0  0  0  0  0  0
    6.8100   -0.4816  -51.8226 H   0  0  0  0  0  0  0  0  0  0  0  0
    6.1431   -4.2990  -51.7362 H   0  0  0  0  0  0  0  0  0  0  0  0
    9.0470   -4.0330  -51.8320 H   0  0  0  0  0  0  0  0  0  0  0  0
    9.1650   -4.1300  -54.8780 H   0  0  0  0  0  0  0  0  0  0  0  0
   12.6758   -4.1768  -54.5509 H   0  0  0  0  0  0  0  0  0  0  0  0
   11.7003   -5.6919  -54.6380 H   0  0  0  0  0  0  0  0  0  0  0  0
   13.9273   -5.9797  -55.7297 H   0  0  0  0  0  0  0  0  0  0  0  0
   13.0730   -6.8326  -57.9133 H   0  0  0  0  0  0  0  0  0  0  0  0
   11.9362   -7.2285  -56.5756 H   0  0  0  0  0  0  0  0  0  0  0  0
   10.7090   -6.3730  -58.5726 H   0  0  0  0  0  0  0  0  0  0  0  0
   12.5489   -4.9490  -59.4803 H   0  0  0  0  0  0  0  0  0  0  0  0
   11.0359   -3.9983  -59.2651 H   0  0  0  0  0  0  0  0  0  0  0  0
   13.0198   -2.7376  -58.4303 H   0  0  0  0  0  0  0  0  0  0  0  0
   14.4181   -4.7127  -57.8221 H   0  0  0  0  0  0  0  0  0  0  0  0
   14.2323   -3.5970  -56.4206 H   0  0  0  0  0  0  0  0  0  0  0  0
   12.1387   -2.2570  -56.1511 H   0  0  0  0  0  0  0  0  0  0  0  0
   10.7930   -2.4545  -57.3367 H   0  0  0  0  0  0  0  0  0  0  0  0
    9.4648   -4.5513  -57.4067 H   0  0  0  0  0  0  0  0  0  0  0  0
    9.8563   -5.9088  -56.2781 H   0  0  0  0  0  0  0  0  0  0  0  0
  1  2  1  0
  2  3  1  0
  3  4  2  0
  4  5  1  0
  5  6  1  0
  6  7  1  0
  6  8  1  0
  4  9  1  0
  9 10  2  0
 10 11  1  0
 11 12  2  0
 11 13  1  0
 14 13  1  1
 14 15  1  0
 15 16  1  0
 16 17  1  0
 17 18  1  0
 18 19  1  0
 19 20  1  0
 20 21  1  0
 20 22  1  0
 18 23  1  0
 10  2  1  0
 22 14  1  0
 23 14  1  0
 21 16  1  0
  1 24  1  0
  1 25  1  0
  1 26  1  0
  3 27  1  0
  6 28  1  0
  9 29  1  0
 13 30  1  0
 15 31  1  0
 15 32  1  0
 16 33  1  1
 17 34  1  0
 17 35  1  0
 18 36  1  6
 19 37  1  0
 19 38  1  0
 20 39  1  6
 21 40  1  0
 21 41  1  0
 22 42  1  0
 22 43  1  0
 23 44  1  0
 23 45  1  0
M  CHG  1   9   1
M  END
>  <meeko>  (61) 
{"is_sidechain": false}

$$$$

     RDKit          3D

 45 48  0  0  0  0  0  0  0  0999 V2000
    8.1690   -2.9260  -50.0830 C   0  0  0  0  0  0  0  0  0  0  0  0
    8.3410   -2.8840  -51.5910 C   0  0  0  0  0  0  0  0  0  0  0  0
    7.1220   -1.7870  -52.3730 S   0  0  0  0  0  0  0  0  0  0  0  0
    8.0360   -0.9810  -53.5910 C   0  0  0  0  0  0  0  0  0  0  0  0
    9.3200   -1.0430  -54.0670 C   0  0  0  0  0  0  0  0  0  0  0  0
    9.4970   -0.1440  -55.0910 N   0  0  0  0  0  0  0  0  0  0  0  0
    8.3360    0.4720  -55.2450 C   0  0  0  0  0  0  0  0  0  0  0  0
    8.0750    1.5040  -56.2380 C   0  0  0  0  0  0  0  0  0  0  0  0
    6.9610    1.9610  -56.4720 O   0  0  0  0  0  0  0  0  0  0  0  0
    9.2100    1.9270  -56.9230 N   0  0  0  0  0  0  0  0  0  0  0  0
    9.1840    2.8980  -58.0270 C   0  0  1  0  0  0  0  0  0  0  0  0
   10.6050    2.9540  -58.6540 C   0  0  0  0  0  0  0  0  0  0  0  0
   10.6560    3.9500  -59.8240 C   0  0  2  0  0  0  0  0  0  0  0  0
   10.2830    5.3500  -59.3110 C   0  0  0  0  0  0  0  0  0  0  0  0
    8.8710    5.3290  -58.7060 C   0  0  1  0  0  0  0  0  0  0  0  0
    7.8640    4.8860  -59.7800 C   0  0  0  0  0  0  0  0  0  0  0  0
    8.2290    3.4850  -60.2980 C   0  0  1  0  0  0  0  0  0  0  0  0
    7.3150    3.0890  -61.3120 O   0  0  0  0  0  0  0  0  0  0  0  0
    9.6450    3.5170  -60.8950 C   0  0  0  0  0  0  0  0  0  0  0  0
    8.1900    2.4790  -59.1350 C   0  0  0  0  0  0  0  0  0  0  0  0
    8.8330    4.3270  -57.5370 C   0  0  0  0  0  0  0  0  0  0  0  0
    7.4180   -0.0310  -54.3520 N   0  0  0  0  0  0  0  0  0  0  0  0
    9.1281   -2.6918  -49.5979 H   0  0  0  0  0  0  0  0  0  0  0  0
    7.4141   -2.1858  -49.7793 H   0  0  0  0  0  0  0  0  0  0  0  0
    7.8402   -3.9308  -49.7793 H   0  0  0  0  0  0  0  0  0  0  0  0
    9.3518   -2.5187  -51.8249 H   0  0  0  0  0  0  0  0  0  0  0  0
    8.1902   -3.9007  -51.9829 H   0  0  0  0  0  0  0  0  0  0  0  0
   10.0993   -1.7178  -53.6831 H   0  0  0  0  0  0  0  0  0  0  0  0
    9.9810    1.2740  -56.9320 H   0  0  0  0  0  0  0  0  0  0  0  0
   11.3252    3.2675  -57.8839 H   0  0  0  0  0  0  0  0  0  0  0  0
   10.8575    1.9538  -59.0359 H   0  0  0  0  0  0  0  0  0  0  0  0
   11.6682    3.9706  -60.2542 H   0  0  0  0  0  0  0  0  0  0  0  0
   11.0047    5.6600  -58.5409 H   0  0  0  0  0  0  0  0  0  0  0  0
   10.3055    6.0601  -60.1508 H   0  0  0  0  0  0  0  0  0  0  0  0
    8.6107    6.3345  -58.3437 H   0  0  0  0  0  0  0  0  0  0  0  0
    6.8542    4.8616  -59.3444 H   0  0  0  0  0  0  0  0  0  0  0  0
    7.8923    5.5990  -60.6172 H   0  0  0  0  0  0  0  0  0  0  0  0
    6.8100    2.3270  -60.9780 H   0  0  0  0  0  0  0  0  0  0  0  0
    9.9090    2.5138  -61.2609 H   0  0  0  0  0  0  0  0  0  0  0  0
    9.6701    4.2358  -61.7273 H   0  0  0  0  0  0  0  0  0  0  0  0
    7.1731    2.4475  -58.7168 H   0  0  0  0  0  0  0  0  0  0  0  0
    8.4741    1.4856  -59.5125 H   0  0  0  0  0  0  0  0  0  0  0  0
    9.5618    4.6358  -56.7731 H   0  0  0  0  0  0  0  0  0  0  0  0
    7.8176    4.3160  -57.1140 H   0  0  0  0  0  0  0  0  0  0  0  0
    6.4440    0.2240  -54.2950 H   0  0  0  0  0  0  0  0  0  0  0  0
  1  2  1  0
  2  3  1  0
  3  4  1  0
  4  5  2  0
  5  6  1  0
  6  7  2  0
  7  8  1  0
  8  9  2  0
  8 10  1  0
 11 10  1  1
 11 12  1  0
 12 13  1  0
 13 14  1  0
 14 15  1  0
 15 16  1  0
 16 17  1  0
 17 18  1  6
 17 19  1  0
 17 20  1  0
 15 21  1  0
  7 22  1  0
 22  4  1  0
 20 11  1  0
 21 11  1  0
 19 13  1  0
  1 23  1  0
  1 24  1  0
  1 25  1  0
  2 26  1  0
  2 27  1  0
  5 28  1  0
 10 29  1  0
 12 30  1  0
 12 31  1  0
 13 32  1  6
 14 33  1  0
 14 34  1  0
 15 35  1  1
 16 36  1  0
 16 37  1  0
 18 38  1  0
 19 39  1  0
 19 40  1  0
 20 41  1  0
 20 42  1  0
 21 43  1  0
 21 44  1  0
 22 45  1  0
M  END
>  <meeko>  (62) 
{"is_sidechain": false}

$$$$

     RDKit          3D

 45 48  0  0  0  0  0  0  0  0999 V2000
    8.1510   -2.9910  -50.1130 C   0  0  0  0  0  0  0  0  0  0  0  0
    8.4840   -2.6440  -51.5540 C   0  0  0  0  0  0  0  0  0  0  0  0
    7.0710   -1.8820  -52.4070 S   0  0  0  0  0  0  0  0  0  0  0  0
    7.8700   -0.9590  -53.6490 C   0  0  0  0  0  0  0  0  0  0  0  0
    9.1920   -1.0770  -54.0000 C   0  0  0  0  0  0  0  0  0  0  0  0
    9.3730   -0.1650  -55.0000 N   0  0  0  0  0  0  0  0  0  0  0  0
    8.1700    0.4600  -55.2370 C   0  0  0  0  0  0  0  0  0  0  0  0
    7.9360    1.5070  -56.2220 C   0  0  0  0  0  0  0  0  0  0  0  0
    6.8330    1.9960  -56.4460 O   0  0  0  0  0  0  0  0  0  0  0  0
    9.0820    1.9050  -56.9030 N   0  0  0  0  0  0  0  0  0  0  0  0
    9.0820    2.8740  -58.0090 C   0  0  1  0  0  0  0  0  0  0  0  0
   10.5030    2.8770  -58.6390 C   0  0  0  0  0  0  0  0  0  0  0  0
   10.5870    3.8630  -59.8150 C   0  0  2  0  0  0  0  0  0  0  0  0
   10.2640    5.2780  -59.3110 C   0  0  0  0  0  0  0  0  0  0  0  0
    8.8540    5.3100  -58.7020 C   0  0  1  0  0  0  0  0  0  0  0  0
    7.8290    4.8960  -59.7710 C   0  0  0  0  0  0  0  0  0  0  0  0
    8.1460    3.4810  -60.2840 C   0  0  1  0  0  0  0  0  0  0  0  0
    7.2070    3.0950  -61.2770 O   0  0  0  0  0  0  0  0  0  0  0  0
    9.5610    3.4580  -60.8830 C   0  0  0  0  0  0  0  0  0  0  0  0
    8.0700    2.4860  -59.1120 C   0  0  0  0  0  0  0  0  0  0  0  0
    8.7850    4.3190  -57.5270 C   0  0  0  0  0  0  0  0  0  0  0  0
    7.2500   -0.0080  -54.4120 N   0  0  0  0  0  0  0  0  0  0  0  0
    8.7518   -2.3650  -49.4369 H   0  0  0  0  0  0  0  0  0  0  0  0
    7.0820   -2.8078  -49.9294 H   0  0  0  0  0  0  0  0  0  0  0  0
    8.3781   -4.0515  -49.9294 H   0  0  0  0  0  0  0  0  0  0  0  0
    9.3288   -1.9396  -51.5648 H   0  0  0  0  0  0  0  0  0  0  0  0
    8.7400   -3.5754  -52.0802 H   0  0  0  0  0  0  0  0  0  0  0  0
    9.9415   -1.7575  -53.5697 H   0  0  0  0  0  0  0  0  0  0  0  0
   10.2440    0.0560  -55.4630 H   0  0  0  0  0  0  0  0  0  0  0  0
    9.8170    1.2130  -56.9340 H   0  0  0  0  0  0  0  0  0  0  0  0
   11.2350    3.1700  -57.8720 H   0  0  0  0  0  0  0  0  0  0  0  0
   10.7195    1.8663  -59.0154 H   0  0  0  0  0  0  0  0  0  0  0  0
   11.5989    3.8460  -60.2461 H   0  0  0  0  0  0  0  0  0  0  0  0
   10.9982    5.5683  -58.5451 H   0  0  0  0  0  0  0  0  0  0  0  0
   10.3083    5.9810  -60.1559 H   0  0  0  0  0  0  0  0  0  0  0  0
    8.6295    6.3260  -58.3453 H   0  0  0  0  0  0  0  0  0  0  0  0
    6.8204    4.9069  -59.3321 H   0  0  0  0  0  0  0  0  0  0  0  0
    7.8779    5.6040  -60.6114 H   0  0  0  0  0  0  0  0  0  0  0  0
    6.4990    3.7620  -61.3030 H   0  0  0  0  0  0  0  0  0  0  0  0
    9.7889    2.4433  -61.2415 H   0  0  0  0  0  0  0  0  0  0  0  0
    9.6111    4.1685  -61.7213 H   0  0  0  0  0  0  0  0  0  0  0  0
    7.0535    2.4980  -58.6917 H   0  0  0  0  0  0  0  0  0  0  0  0
    8.3142    1.4793  -59.4822 H   0  0  0  0  0  0  0  0  0  0  0  0
    9.5279    4.6063  -56.7684 H   0  0  0  0  0  0  0  0  0  0  0  0
    7.7718    4.3477  -57.0996 H   0  0  0  0  0  0  0  0  0  0  0  0
  1  2  1  0
  2  3  1  0
  3  4  1  0
  4  5  2  0
  5  6  1  0
  6  7  1  0
  7  8  1  0
  8  9  2  0
  8 10  1  0
 11 10  1  1
 11 12  1  0
 12 13  1  0
 13 14  1  0
 14 15  1  0
 15 16  1  0
 16 17  1  0
 17 18  1  6
 17 19  1  0
 17 20  1  0
 15 21  1  0
  7 22  2  0
 22  4  1  0
 20 11  1  0
 21 11  1  0
 19 13  1  0
  1 23  1  0
  1 24  1  0
  1 25  1  0
  2 26  1  0
  2 27  1  0
  5 28  1  0
  6 29  1  0
 10 30  1  0
 12 31  1  0
 12 32  1  0
 13 33  1  6
 14 34  1  0
 14 35  1  0
 15 36  1  1
 16 37  1  0
 16 38  1  0
 18 39  1  0
 19 40  1  0
 19 41  1  0
 20 42  1  0
 20 43  1  0
 21 44  1  0
 21 45  1  0
M  END
>  <meeko>  (63) 
{"is_sidechain": false}

$$$$

     RDKit          3D

 46 49  0  0  0  0  0  0  0  0999 V2000
    8.4810   -3.0890  -50.2020 C   0  0  0  0  0  0  0  0  0  0  0  0
    7.8170   -2.2290  -51.2640 C   0  0  0  0  0  0  0  0  0  0  0  0
    8.7880   -2.1890  -52.7990 S   0  0  0  0  0  0  0  0  0  0  0  0
    7.8130   -1.1890  -53.8860 C   0  0  0  0  0  0  0  0  0  0  0  0
    6.4750   -1.2100  -54.1630 C   0  0  0  0  0  0  0  0  0  0  0  0
    6.2560   -0.2070  -55.0750 N   0  0  0  0  0  0  0  0  0  0  0  0
    7.3960    0.4610  -55.3600 C   0  0  0  0  0  0  0  0  0  0  0  0
    7.5050    1.5570  -56.2550 C   0  0  0  0  0  0  0  0  0  0  0  0
    6.5050    2.2250  -56.4840 O   0  0  0  0  0  0  0  0  0  0  0  0
    8.7640    1.7900  -56.7870 N   0  0  0  0  0  0  0  0  0  0  0  0
    9.0810    2.9460  -57.6470 C   0  0  1  0  0  0  0  0  0  0  0  0
    8.8680    4.2970  -56.9160 C   0  0  0  0  0  0  0  0  0  0  0  0
    9.1660    5.4770  -57.8600 C   0  0  2  0  0  0  0  0  0  0  0  0
    8.2160    5.4150  -59.0660 C   0  0  0  0  0  0  0  0  0  0  0  0
    8.4130    4.0930  -59.8240 C   0  0  1  0  0  0  0  0  0  0  0  0
    9.8650    4.0000  -60.3130 C   0  0  0  0  0  0  0  0  0  0  0  0
   10.8250    4.0560  -59.1140 C   0  0  1  0  0  0  0  0  0  0  0  0
   12.1670    3.9490  -59.5630 O   0  0  0  0  0  0  0  0  0  0  0  0
   10.6190    5.3760  -58.3520 C   0  0  0  0  0  0  0  0  0  0  0  0
   10.5320    2.8750  -58.1710 C   0  0  0  0  0  0  0  0  0  0  0  0
    8.1260    2.9190  -58.8730 C   0  0  0  0  0  0  0  0  0  0  0  0
    8.3420   -0.1600  -54.6290 N   0  0  0  0  0  0  0  0  0  0  0  0
    8.1982   -2.7227  -49.2041 H   0  0  0  0  0  0  0  0  0  0  0  0
    8.1519   -4.1323  -50.3165 H   0  0  0  0  0  0  0  0  0  0  0  0
    9.5737   -3.0346  -50.3165 H   0  0  0  0  0  0  0  0  0  0  0  0
    6.8202   -2.6393  -51.4832 H   0  0  0  0  0  0  0  0  0  0  0  0
    7.7438   -1.2018  -50.8774 H   0  0  0  0  0  0  0  0  0  0  0  0
    5.7239   -1.8934  -53.7401 H   0  0  0  0  0  0  0  0  0  0  0  0
    5.3720    0.0540  -55.5140 H   0  0  0  0  0  0  0  0  0  0  0  0
    9.5640    1.3420  -56.3620 H   0  0  0  0  0  0  0  0  0  0  0  0
    7.8246    4.3623  -56.5738 H   0  0  0  0  0  0  0  0  0  0  0  0
    9.5538    4.3477  -56.0575 H   0  0  0  0  0  0  0  0  0  0  0  0
    9.0208    6.4267  -57.3242 H   0  0  0  0  0  0  0  0  0  0  0  0
    7.1760    5.4814  -58.7140 H   0  0  0  0  0  0  0  0  0  0  0  0
    8.4359    6.2545  -59.7419 H   0  0  0  0  0  0  0  0  0  0  0  0
    7.7285    4.0535  -60.6842 H   0  0  0  0  0  0  0  0  0  0  0  0
   10.0086    3.0515  -60.8513 H   0  0  0  0  0  0  0  0  0  0  0  0
   10.0756    4.8446  -60.9855 H   0  0  0  0  0  0  0  0  0  0  0  0
   12.3540    4.7020  -60.1510 H   0  0  0  0  0  0  0  0  0  0  0  0
   11.2993    5.4081  -57.4882 H   0  0  0  0  0  0  0  0  0  0  0  0
   10.8319    6.2192  -59.0256 H   0  0  0  0  0  0  0  0  0  0  0  0
   10.6730    1.9314  -58.7185 H   0  0  0  0  0  0  0  0  0  0  0  0
   11.2213    2.9246  -57.3152 H   0  0  0  0  0  0  0  0  0  0  0  0
    7.0864    2.9882  -58.5202 H   0  0  0  0  0  0  0  0  0  0  0  0
    8.2866    1.9785  -59.4204 H   0  0  0  0  0  0  0  0  0  0  0  0
    9.3320    0.0590  -54.6390 H   0  0  0  0  0  0  0  0  0  0  0  0
  1  2  1  0
  2  3  1  0
  3  4  1  0
  4  5  2  0
  5  6  1  0
  6  7  2  0
  7  8  1  0
  8  9  2  0
  8 10  1  0
 11 10  1  1
 11 12  1  0
 12 13  1  0
 13 14  1  0
 14 15  1  0
 15 16  1  0
 16 17  1  0
 17 18  1  6
 17 19  1  0
 17 20  1  0
 15 21  1  0
  7 22  1  0
 22  4  1  0
 20 11  1  0
 21 11  1  0
 19 13  1  0
  1 23  1  0
  1 24  1  0
  1 25  1  0
  2 26  1  0
  2 27  1  0
  5 28  1  0
  6 29  1  0
 10 30  1  0
 12 31  1  0
 12 32  1  0
 13 33  1  1
 14 34  1  0
 14 35  1  0
 15 36  1  6
 16 37  1  0
 16 38  1  0
 18 39  1  0
 19 40  1  0
 19 41  1  0
 20 42  1  0
 20 43  1  0
 21 44  1  0
 21 45  1  0
 22 46  1  0
M  CHG  1   6   1
M  END
>  <meeko>  (64) 
{"is_sidechain": false}

$$$$

     RDKit          3D

 51 53  0  0  0  0  0  0  0  0999 V2000
   12.9810    7.7920  -61.2400 C   0  0  0  0  0  0  0  0  0  0  0  0
   12.9840    7.2310  -59.8270 C   0  0  0  0  0  0  0  0  0  0  0  0
   13.3890    5.7550  -59.8130 C   0  0  0  0  0  0  0  0  0  0  0  0
   12.3530    4.9080  -59.1470 C   0  0  0  0  0  0  0  0  0  0  0  0
   12.5150    3.7680  -58.3880 C   0  0  0  0  0  0  0  0  0  0  0  0
   11.3550    3.2020  -57.9010 N   0  0  0  0  0  0  0  0  0  0  0  0
   10.3080    3.9160  -58.2770 C   0  0  0  0  0  0  0  0  0  0  0  0
    8.9360    3.5650  -57.9130 C   0  0  0  0  0  0  0  0  0  0  0  0
    8.5880    3.4690  -56.6630 N   0  0  0  0  0  0  0  0  0  0  0  0
    7.2350    3.0980  -56.4690 O   0  0  0  0  0  0  0  0  0  0  0  0
    7.0970    1.8200  -56.8700 C   0  0  0  0  0  0  0  0  0  0  0  0
    6.7810    0.8730  -55.7210 C   0  0  0  0  0  0  0  0  0  0  0  0
    5.6210    0.6470  -55.4200 O   0  0  0  0  0  0  0  0  0  0  0  0
    7.9230    0.3580  -55.1670 N   0  0  0  0  0  0  0  0  0  0  0  0
    7.9770   -0.5360  -54.1150 C   0  0  0  0  0  0  0  0  0  0  0  0
    8.6080   -1.6880  -54.4020 N   0  0  0  0  0  0  0  0  0  0  0  0
    8.6760   -2.5800  -53.3850 C   0  0  0  0  0  0  0  0  0  0  0  0
    8.1450   -2.3470  -52.1370 C   0  0  0  0  0  0  0  0  0  0  0  0
    8.2630   -3.3220  -51.1770 O   0  0  0  0  0  0  0  0  0  0  0  0
    7.2720   -3.2690  -50.1460 C   0  0  0  0  0  0  0  0  0  0  0  0
    6.0880   -4.1560  -50.4900 C   0  0  0  0  0  0  0  0  0  0  0  0
    7.5200   -1.1850  -51.8980 N   0  0  0  0  0  0  0  0  0  0  0  0
    7.4380   -0.2640  -52.9090 N   0  0  0  0  0  0  0  0  0  0  0  0
    7.2450    1.3910  -58.0840 N   0  0  0  0  0  0  0  0  0  0  0  0
    7.3100    2.3570  -59.0510 C   0  0  0  0  0  0  0  0  0  0  0  0
    6.5040    2.1930  -60.1660 N   0  0  0  0  0  0  0  0  0  0  0  0
    5.8640    0.9140  -60.4360 C   0  0  0  0  0  0  0  0  0  0  0  0
    6.6880    3.0610  -61.3240 C   0  0  0  0  0  0  0  0  0  0  0  0
    8.0880    3.3890  -58.9690 N   0  0  0  0  0  0  0  0  0  0  0  0
   10.6850    5.2890  -59.2490 S   0  0  0  0  0  0  0  0  0  0  0  0
   12.9751    8.8912  -61.1981 H   0  0  0  0  0  0  0  0  0  0  0  0
   13.8810    7.4502  -61.7721 H   0  0  0  0  0  0  0  0  0  0  0  0
   12.0847    7.4406  -61.7721 H   0  0  0  0  0  0  0  0  0  0  0  0
   13.6973    7.8037  -59.2161 H   0  0  0  0  0  0  0  0  0  0  0  0
   11.9658    7.3145  -59.4192 H   0  0  0  0  0  0  0  0  0  0  0  0
   13.5197    5.4106  -60.8495 H   0  0  0  0  0  0  0  0  0  0  0  0
   14.3275    5.6604  -59.2471 H   0  0  0  0  0  0  0  0  0  0  0  0
   13.5064    3.3373  -58.1839 H   0  0  0  0  0  0  0  0  0  0  0  0
    8.8180    0.6180  -55.5560 H   0  0  0  0  0  0  0  0  0  0  0  0
    9.1817   -3.5400  -53.5659 H   0  0  0  0  0  0  0  0  0  0  0  0
    7.7168   -3.6120  -49.2002 H   0  0  0  0  0  0  0  0  0  0  0  0
    6.9191   -2.2317  -50.0491 H   0  0  0  0  0  0  0  0  0  0  0  0
    5.6142   -4.5110  -49.5629 H   0  0  0  0  0  0  0  0  0  0  0  0
    5.3577   -3.5809  -51.0781 H   0  0  0  0  0  0  0  0  0  0  0  0
    6.4347   -5.0185  -51.0781 H   0  0  0  0  0  0  0  0  0  0  0  0
    5.6167    0.4197  -59.4849 H   0  0  0  0  0  0  0  0  0  0  0  0
    4.9426    1.0797  -61.0136 H   0  0  0  0  0  0  0  0  0  0  0  0
    6.5490    0.2759  -61.0136 H   0  0  0  0  0  0  0  0  0  0  0  0
    6.9050    4.0845  -60.9843 H   0  0  0  0  0  0  0  0  0  0  0  0
    7.5275    2.6903  -61.9304 H   0  0  0  0  0  0  0  0  0  0  0  0
    5.7703    3.0628  -61.9304 H   0  0  0  0  0  0  0  0  0  0  0  0
  1  2  1  0
  2  3  1  0
  3  4  1  0
  4  5  2  0
  5  6  1  0
  6  7  2  0
  7  8  1  0
  8  9  2  0
  9 10  1  0
 10 11  1  0
 11 12  1  0
 12 13  2  0
 12 14  1  0
 14 15  1  0
 15 16  2  0
 16 17  1  0
 17 18  2  0
 18 19  1  0
 19 20  1  0
 20 21  1  0
 18 22  1  0
 22 23  2  0
 11 24  2  0
 24 25  1  0
 25 26  1  0
 26 27  1  0
 26 28  1  0
 25 29  2  0
  7 30  1  0
 30  4  1  0
 29  8  1  0
 23 15  1  0
  1 31  1  0
  1 32  1  0
  1 33  1  0
  2 34  1  0
  2 35  1  0
  3 36  1  0
  3 37  1  0
  5 38  1  0
 14 39  1  0
 17 40  1  0
 20 41  1  0
 20 42  1  0
 21 43  1  0
 21 44  1  0
 21 45  1  0
 27 46  1  0
 27 47  1  0
 27 48  1  0
 28 49  1  0
 28 50  1  0
 28 51  1  0
M  END
>  <meeko>  (65) 
{"is_sidechain": false}

$$$$

     RDKit          3D

 51 53  0  0  0  0  0  0  0  0999 V2000
   12.7090    7.8950  -60.6830 C   0  0  0  0  0  0  0  0  0  0  0  0
   13.8120    6.9680  -60.1920 C   0  0  0  0  0  0  0  0  0  0  0  0
   13.2770    5.9450  -59.2350 C   0  0  0  0  0  0  0  0  0  0  0  0
   12.1240    5.2710  -59.3320 C   0  0  0  0  0  0  0  0  0  0  0  0
   11.0990    5.3860  -60.3890 C   0  0  0  0  0  0  0  0  0  0  0  0
   10.0340    4.6500  -60.3200 N   0  0  0  0  0  0  0  0  0  0  0  0
   10.1210    3.8730  -59.1720 C   0  0  0  0  0  0  0  0  0  0  0  0
    9.1530    2.9810  -58.7940 C   0  0  0  0  0  0  0  0  0  0  0  0
    8.0770    2.8480  -59.6350 N   0  0  0  0  0  0  0  0  0  0  0  0
    6.8810    2.4960  -59.2660 C   0  0  0  0  0  0  0  0  0  0  0  0
    5.8880    2.4340  -60.2380 N   0  0  0  0  0  0  0  0  0  0  0  0
    6.2550    2.5760  -61.6420 C   0  0  0  0  0  0  0  0  0  0  0  0
    4.6260    1.7650  -59.9770 C   0  0  0  0  0  0  0  0  0  0  0  0
    6.4880    2.2040  -57.9880 N   0  0  0  0  0  0  0  0  0  0  0  0
    7.2410    1.4800  -57.2250 C   0  0  0  0  0  0  0  0  0  0  0  0
    6.7140    0.9680  -55.8850 C   0  0  0  0  0  0  0  0  0  0  0  0
    5.7350    1.4860  -55.3760 O   0  0  0  0  0  0  0  0  0  0  0  0
    7.4810   -0.0670  -55.4180 N   0  0  0  0  0  0  0  0  0  0  0  0
    7.2940   -0.7590  -54.2360 C   0  0  0  0  0  0  0  0  0  0  0  0
    7.4790   -0.1720  -53.0470 N   0  0  0  0  0  0  0  0  0  0  0  0
    7.2650   -0.9540  -51.9650 C   0  0  0  0  0  0  0  0  0  0  0  0
    6.8850   -2.2720  -52.0530 C   0  0  0  0  0  0  0  0  0  0  0  0
    6.6860   -2.9810  -50.8930 O   0  0  0  0  0  0  0  0  0  0  0  0
    7.6020   -4.0580  -50.6820 C   0  0  0  0  0  0  0  0  0  0  0  0
    8.9360   -3.5430  -50.1710 C   0  0  0  0  0  0  0  0  0  0  0  0
    6.7120   -2.8270  -53.2630 N   0  0  0  0  0  0  0  0  0  0  0  0
    6.9210   -2.0520  -54.3730 N   0  0  0  0  0  0  0  0  0  0  0  0
    8.5130    1.0970  -57.4420 O   0  0  0  0  0  0  0  0  0  0  0  0
    9.3190    2.2140  -57.6480 N   0  0  0  0  0  0  0  0  0  0  0  0
   11.5870    4.0920  -58.1870 S   0  0  0  0  0  0  0  0  0  0  0  0
   12.1872    8.3335  -59.8196 H   0  0  0  0  0  0  0  0  0  0  0  0
   13.1492    8.6983  -61.2921 H   0  0  0  0  0  0  0  0  0  0  0  0
   11.9935    7.3231  -61.2921 H   0  0  0  0  0  0  0  0  0  0  0  0
   14.2579    6.4526  -61.0554 H   0  0  0  0  0  0  0  0  0  0  0  0
   14.5668    7.5729  -59.6681 H   0  0  0  0  0  0  0  0  0  0  0  0
   13.9006    5.7238  -58.3562 H   0  0  0  0  0  0  0  0  0  0  0  0
   11.2375    6.0877  -61.2247 H   0  0  0  0  0  0  0  0  0  0  0  0
    7.2786    2.9721  -61.7152 H   0  0  0  0  0  0  0  0  0  0  0  0
    6.2057    1.5939  -62.1350 H   0  0  0  0  0  0  0  0  0  0  0  0
    5.5575    3.2692  -62.1350 H   0  0  0  0  0  0  0  0  0  0  0  0
    4.4720    1.6834  -58.8909 H   0  0  0  0  0  0  0  0  0  0  0  0
    3.8043    2.3459  -60.4212 H   0  0  0  0  0  0  0  0  0  0  0  0
    4.6456    0.7589  -60.4212 H   0  0  0  0  0  0  0  0  0  0  0  0
    8.2710   -0.3600  -55.9800 H   0  0  0  0  0  0  0  0  0  0  0  0
    7.4016   -0.5142  -50.9660 H   0  0  0  0  0  0  0  0  0  0  0  0
    7.1770   -4.7526  -49.9424 H   0  0  0  0  0  0  0  0  0  0  0  0
    7.7675   -4.5713  -51.6407 H   0  0  0  0  0  0  0  0  0  0  0  0
    8.9325   -3.5443  -49.0710 H   0  0  0  0  0  0  0  0  0  0  0  0
    9.7444   -4.1937  -50.5359 H   0  0  0  0  0  0  0  0  0  0  0  0
    9.0974   -2.5179  -50.5359 H   0  0  0  0  0  0  0  0  0  0  0  0
   10.2930    2.0860  -57.3830 H   0  0  0  0  0  0  0  0  0  0  0  0
  1  2  1  0
  2  3  1  0
  3  4  2  0
  4  5  1  0
  5  6  2  0
  6  7  1  0
  7  8  2  0
  8  9  1  0
  9 10  2  0
 10 11  1  0
 11 12  1  0
 11 13  1  0
 10 14  1  0
 14 15  2  0
 15 16  1  0
 16 17  2  0
 16 18  1  0
 18 19  1  0
 19 20  2  0
 20 21  1  0
 21 22  2  0
 22 23  1  0
 23 24  1  0
 24 25  1  0
 22 26  1  0
 26 27  2  0
 15 28  1  0
 28 29  1  0
  7 30  1  0
 30  4  1  0
 29  8  1  0
 27 19  1  0
  1 31  1  0
  1 32  1  0
  1 33  1  0
  2 34  1  0
  2 35  1  0
  3 36  1  0
  5 37  1  0
 12 38  1  0
 12 39  1  0
 12 40  1  0
 13 41  1  0
 13 42  1  0
 13 43  1  0
 18 44  1  0
 21 45  1  0
 24 46  1  0
 24 47  1  0
 25 48  1  0
 25 49  1  0
 25 50  1  0
 29 51  1  0
M  END
>  <meeko>  (66) 
{"is_sidechain": false}

$$$$

     RDKit          3D

 51 53  0  0  0  0  0  0  0  0999 V2000
   13.5050    5.0590  -57.4890 C   0  0  0  0  0  0  0  0  0  0  0  0
   13.4430    6.1490  -58.5470 C   0  0  0  0  0  0  0  0  0  0  0  0
   12.6330    5.7100  -59.7350 C   0  0  0  0  0  0  0  0  0  0  0  0
   11.4440    5.0980  -59.7140 C   0  0  0  0  0  0  0  0  0  0  0  0
   10.7270    4.6990  -60.9420 C   0  0  0  0  0  0  0  0  0  0  0  0
    9.5760    4.1130  -60.8380 N   0  0  0  0  0  0  0  0  0  0  0  0
    9.2780    3.9940  -59.4860 C   0  0  0  0  0  0  0  0  0  0  0  0
    8.1300    3.4130  -59.0180 C   0  0  0  0  0  0  0  0  0  0  0  0
    7.2360    2.9710  -59.9610 N   0  0  0  0  0  0  0  0  0  0  0  0
    6.3970    1.9930  -59.7920 C   0  0  0  0  0  0  0  0  0  0  0  0
    5.5730    1.6470  -60.8580 N   0  0  0  0  0  0  0  0  0  0  0  0
    4.4150    0.7910  -60.6620 C   0  0  0  0  0  0  0  0  0  0  0  0
    5.5410    2.4990  -62.0410 C   0  0  0  0  0  0  0  0  0  0  0  0
    6.2620    1.2370  -58.6590 N   0  0  0  0  0  0  0  0  0  0  0  0
    6.2720    1.8000  -57.4960 C   0  0  0  0  0  0  0  0  0  0  0  0
    5.9030    0.9960  -56.2490 C   0  0  0  0  0  0  0  0  0  0  0  0
    4.7460    0.9680  -55.8620 O   0  0  0  0  0  0  0  0  0  0  0  0
    7.0050    0.3780  -55.7190 N   0  0  0  0  0  0  0  0  0  0  0  0
    7.0310   -0.4300  -54.5980 C   0  0  0  0  0  0  0  0  0  0  0  0
    7.3790    0.0500  -53.3980 N   0  0  0  0  0  0  0  0  0  0  0  0
    7.3640   -0.8400  -52.3800 C   0  0  0  0  0  0  0  0  0  0  0  0
    7.0160   -2.1600  -52.5410 C   0  0  0  0  0  0  0  0  0  0  0  0
    7.0250   -2.9850  -51.4420 O   0  0  0  0  0  0  0  0  0  0  0  0
    7.8950   -2.5690  -50.3850 C   0  0  0  0  0  0  0  0  0  0  0  0
    8.9930   -3.5940  -50.1540 C   0  0  0  0  0  0  0  0  0  0  0  0
    6.6680   -2.6050  -53.7600 N   0  0  0  0  0  0  0  0  0  0  0  0
    6.6770   -1.7210  -54.8040 N   0  0  0  0  0  0  0  0  0  0  0  0
    6.5990    3.0710  -57.1940 O   0  0  0  0  0  0  0  0  0  0  0  0
    7.8820    3.3540  -57.6530 N   0  0  0  0  0  0  0  0  0  0  0  0
   10.4870    4.6510  -58.3550 S   0  0  0  0  0  0  0  0  0  0  0  0
   13.4790    5.5167  -56.4891 H   0  0  0  0  0  0  0  0  0  0  0  0
   12.6438    4.3848  -57.6062 H   0  0  0  0  0  0  0  0  0  0  0  0
   14.4371    4.4868  -57.6062 H   0  0  0  0  0  0  0  0  0  0  0  0
   12.9813    7.0468  -58.1102 H   0  0  0  0  0  0  0  0  0  0  0  0
   14.4674    6.3642  -58.8850 H   0  0  0  0  0  0  0  0  0  0  0  0
   13.0638    5.9137  -60.7264 H   0  0  0  0  0  0  0  0  0  0  0  0
   11.1643    4.8967  -61.9318 H   0  0  0  0  0  0  0  0  0  0  0  0
    4.2353    0.6582  -59.5849 H   0  0  0  0  0  0  0  0  0  0  0  0
    3.5327    1.2557  -61.1264 H   0  0  0  0  0  0  0  0  0  0  0  0
    4.6005   -0.1888  -61.1264 H   0  0  0  0  0  0  0  0  0  0  0  0
    5.5014    3.5540  -61.7321 H   0  0  0  0  0  0  0  0  0  0  0  0
    6.4463    2.3266  -62.6416 H   0  0  0  0  0  0  0  0  0  0  0  0
    4.6512    2.2591  -62.6416 H   0  0  0  0  0  0  0  0  0  0  0  0
    7.8920    0.5120  -56.1860 H   0  0  0  0  0  0  0  0  0  0  0  0
    7.6437   -0.4909  -51.3750 H   0  0  0  0  0  0  0  0  0  0  0  0
    8.3522   -1.6050  -50.6527 H   0  0  0  0  0  0  0  0  0  0  0  0
    7.3054   -2.4702  -49.4617 H   0  0  0  0  0  0  0  0  0  0  0  0
    9.1427   -3.7337  -49.0732 H   0  0  0  0  0  0  0  0  0  0  0  0
    8.7026   -4.5516  -50.6108 H   0  0  0  0  0  0  0  0  0  0  0  0
    9.9284   -3.2386  -50.6108 H   0  0  0  0  0  0  0  0  0  0  0  0
    8.3710    4.0710  -57.1200 H   0  0  0  0  0  0  0  0  0  0  0  0
  1  2  1  0
  2  3  1  0
  3  4  2  0
  4  5  1  0
  5  6  2  0
  6  7  1  0
  7  8  2  0
  8  9  1  0
  9 10  2  0
 10 11  1  0
 11 12  1  0
 11 13  1  0
 10 14  1  0
 14 15  2  0
 15 16  1  0
 16 17  2  0
 16 18  1  0
 18 19  1  0
 19 20  2  0
 20 21  1  0
 21 22  2  0
 22 23  1  0
 23 24  1  0
 24 25  1  0
 22 26  1  0
 26 27  2  0
 15 28  1  0
 28 29  1  0
  7 30  1  0
 30  4  1  0
 29  8  1  0
 27 19  1  0
  1 31  1  0
  1 32  1  0
  1 33  1  0
  2 34  1  0
  2 35  1  0
  3 36  1  0
  5 37  1  0
 12 38  1  0
 12 39  1  0
 12 40  1  0
 13 41  1  0
 13 42  1  0
 13 43  1  0
 18 44  1  0
 21 45  1  0
 24 46  1  0
 24 47  1  0
 25 48  1  0
 25 49  1  0
 25 50  1  0
 29 51  1  0
M  END
>  <meeko>  (67) 
{"is_sidechain": false}

$$$$

     RDKit          3D

 51 53  0  0  0  0  0  0  0  0999 V2000
   13.5270    7.8950  -61.1230 C   0  0  0  0  0  0  0  0  0  0  0  0
   13.2330    6.7750  -60.1380 C   0  0  0  0  0  0  0  0  0  0  0  0
   11.9980    6.0160  -60.5260 C   0  0  0  0  0  0  0  0  0  0  0  0
   11.1640    5.3560  -59.7140 C   0  0  0  0  0  0  0  0  0  0  0  0
   11.2680    5.2010  -58.2480 C   0  0  0  0  0  0  0  0  0  0  0  0
   10.3620    4.5180  -57.6160 N   0  0  0  0  0  0  0  0  0  0  0  0
    9.4450    4.0630  -58.5620 C   0  0  0  0  0  0  0  0  0  0  0  0
    8.3650    3.3170  -58.1870 C   0  0  0  0  0  0  0  0  0  0  0  0
    7.4530    2.9460  -59.1400 N   0  0  0  0  0  0  0  0  0  0  0  0
    6.6380    1.9380  -59.0390 C   0  0  0  0  0  0  0  0  0  0  0  0
    5.7730    1.6940  -60.1030 N   0  0  0  0  0  0  0  0  0  0  0  0
    5.9470    2.4330  -61.3480 C   0  0  0  0  0  0  0  0  0  0  0  0
    5.0940    0.4130  -60.2260 C   0  0  0  0  0  0  0  0  0  0  0  0
    6.5570    1.0600  -57.9920 N   0  0  0  0  0  0  0  0  0  0  0  0
    6.6210    1.4810  -56.7700 C   0  0  0  0  0  0  0  0  0  0  0  0
    6.2910    0.5390  -55.6130 C   0  0  0  0  0  0  0  0  0  0  0  0
    5.1380    0.3880  -55.2460 O   0  0  0  0  0  0  0  0  0  0  0  0
    7.4230   -0.0540  -55.1170 N   0  0  0  0  0  0  0  0  0  0  0  0
    7.4760   -0.9610  -54.0770 C   0  0  0  0  0  0  0  0  0  0  0  0
    7.5270   -2.2470  -54.4650 N   0  0  0  0  0  0  0  0  0  0  0  0
    7.5820   -3.1540  -53.4610 C   0  0  0  0  0  0  0  0  0  0  0  0
    7.5820   -2.8080  -52.1290 C   0  0  0  0  0  0  0  0  0  0  0  0
    7.6460   -3.8080  -51.1870 O   0  0  0  0  0  0  0  0  0  0  0  0
    6.6760   -3.7070  -50.1420 C   0  0  0  0  0  0  0  0  0  0  0  0
    5.3910   -4.4230  -50.5240 C   0  0  0  0  0  0  0  0  0  0  0  0
    7.5290   -1.5130  -51.7870 N   0  0  0  0  0  0  0  0  0  0  0  0
    7.4750   -0.5740  -52.7850 N   0  0  0  0  0  0  0  0  0  0  0  0
    6.9800    2.7010  -56.3280 O   0  0  0  0  0  0  0  0  0  0  0  0
    8.2290    3.0410  -56.8330 N   0  0  0  0  0  0  0  0  0  0  0  0
    9.7500    4.5160  -60.2460 S   0  0  0  0  0  0  0  0  0  0  0  0
   13.7685    8.8151  -60.5706 H   0  0  0  0  0  0  0  0  0  0  0  0
   14.3813    7.6121  -61.7556 H   0  0  0  0  0  0  0  0  0  0  0  0
   12.6439    8.0682  -61.7556 H   0  0  0  0  0  0  0  0  0  0  0  0
   14.0874    6.0824  -60.1179 H   0  0  0  0  0  0  0  0  0  0  0  0
   13.0687    7.2204  -59.1457 H   0  0  0  0  0  0  0  0  0  0  0  0
   11.7507    6.0005  -61.5977 H   0  0  0  0  0  0  0  0  0  0  0  0
   12.1035    5.6590  -57.6982 H   0  0  0  0  0  0  0  0  0  0  0  0
    6.1937    3.4807  -61.1211 H   0  0  0  0  0  0  0  0  0  0  0  0
    6.7635    1.9820  -61.9310 H   0  0  0  0  0  0  0  0  0  0  0  0
    5.0150    2.3937  -61.9310 H   0  0  0  0  0  0  0  0  0  0  0  0
    4.8818    0.0127  -59.2236 H   0  0  0  0  0  0  0  0  0  0  0  0
    4.1499    0.5495  -60.7737 H   0  0  0  0  0  0  0  0  0  0  0  0
    5.7370   -0.2917  -60.7737 H   0  0  0  0  0  0  0  0  0  0  0  0
    8.3100    0.1740  -55.5450 H   0  0  0  0  0  0  0  0  0  0  0  0
    7.6291   -4.2212  -53.7233 H   0  0  0  0  0  0  0  0  0  0  0  0
    7.0835   -4.1619  -49.2271 H   0  0  0  0  0  0  0  0  0  0  0  0
    6.4494   -2.6437  -49.9742 H   0  0  0  0  0  0  0  0  0  0  0  0
    4.8533   -4.7226  -49.6124 H   0  0  0  0  0  0  0  0  0  0  0  0
    4.7577   -3.7477  -51.1181 H   0  0  0  0  0  0  0  0  0  0  0  0
    5.6320   -5.3169  -51.1181 H   0  0  0  0  0  0  0  0  0  0  0  0
    8.7710    3.6880  -56.2580 H   0  0  0  0  0  0  0  0  0  0  0  0
  1  2  1  0
  2  3  1  0
  3  4  2  0
  4  5  1  0
  5  6  2  0
  6  7  1  0
  7  8  2  0
  8  9  1  0
  9 10  2  0
 10 11  1  0
 11 12  1  0
 11 13  1  0
 10 14  1  0
 14 15  2  0
 15 16  1  0
 16 17  2  0
 16 18  1  0
 18 19  1  0
 19 20  2  0
 20 21  1  0
 21 22  2  0
 22 23  1  0
 23 24  1  0
 24 25  1  0
 22 26  1  0
 26 27  2  0
 15 28  1  0
 28 29  1  0
  7 30  1  0
 30  4  1  0
 29  8  1  0
 27 19  1  0
  1 31  1  0
  1 32  1  0
  1 33  1  0
  2 34  1  0
  2 35  1  0
  3 36  1  0
  5 37  1  0
 12 38  1  0
 12 39  1  0
 12 40  1  0
 13 41  1  0
 13 42  1  0
 13 43  1  0
 18 44  1  0
 21 45  1  0
 24 46  1  0
 24 47  1  0
 25 48  1  0
 25 49  1  0
 25 50  1  0
 29 51  1  0
M  END
>  <meeko>  (68) 
{"is_sidechain": false}

$$$$

     RDKit          3D

 51 53  0  0  0  0  0  0  0  0999 V2000
   12.7830    7.8950  -60.9380 C   0  0  0  0  0  0  0  0  0  0  0  0
   13.4060    6.5100  -60.8650 C   0  0  0  0  0  0  0  0  0  0  0  0
   13.4220    5.9930  -59.4530 C   0  0  0  0  0  0  0  0  0  0  0  0
   12.4590    5.2920  -58.8450 C   0  0  0  0  0  0  0  0  0  0  0  0
   12.5720    4.8230  -57.4470 C   0  0  0  0  0  0  0  0  0  0  0  0
   11.5930    4.1520  -56.9250 N   0  0  0  0  0  0  0  0  0  0  0  0
   10.6040    4.0320  -57.9010 C   0  0  0  0  0  0  0  0  0  0  0  0
    9.4370    3.3730  -57.6390 C   0  0  0  0  0  0  0  0  0  0  0  0
    8.4650    3.3380  -58.6040 N   0  0  0  0  0  0  0  0  0  0  0  0
    7.5190    2.4490  -58.6770 C   0  0  0  0  0  0  0  0  0  0  0  0
    6.6100    2.5530  -59.7260 N   0  0  0  0  0  0  0  0  0  0  0  0
    5.7570    1.4290  -60.0820 C   0  0  0  0  0  0  0  0  0  0  0  0
    6.8640    3.5100  -60.7960 C   0  0  0  0  0  0  0  0  0  0  0  0
    7.3360    1.3860  -57.8320 N   0  0  0  0  0  0  0  0  0  0  0  0
    7.4800    1.5270  -56.5540 C   0  0  0  0  0  0  0  0  0  0  0  0
    7.0420    0.4090  -55.6050 C   0  0  0  0  0  0  0  0  0  0  0  0
    5.8610    0.1220  -55.4980 O   0  0  0  0  0  0  0  0  0  0  0  0
    8.1230   -0.1510  -54.9760 N   0  0  0  0  0  0  0  0  0  0  0  0
    8.0950   -1.1880  -54.0630 C   0  0  0  0  0  0  0  0  0  0  0  0
    8.3220   -2.4530  -54.4350 N   0  0  0  0  0  0  0  0  0  0  0  0
    8.2680   -3.3750  -53.4480 C   0  0  0  0  0  0  0  0  0  0  0  0
    7.9990   -3.0600  -52.1380 C   0  0  0  0  0  0  0  0  0  0  0  0
    7.9740   -4.0710  -51.2060 O   0  0  0  0  0  0  0  0  0  0  0  0
    7.0890   -3.8500  -50.1040 C   0  0  0  0  0  0  0  0  0  0  0  0
    5.6560   -4.1800  -50.4870 C   0  0  0  0  0  0  0  0  0  0  0  0
    7.7800   -1.7780  -51.8000 N   0  0  0  0  0  0  0  0  0  0  0  0
    7.8290   -0.8280  -52.7850 N   0  0  0  0  0  0  0  0  0  0  0  0
    8.0140    2.5650  -55.8850 O   0  0  0  0  0  0  0  0  0  0  0  0
    9.2890    2.8370  -56.3680 N   0  0  0  0  0  0  0  0  0  0  0  0
   10.9370    4.7890  -59.4680 S   0  0  0  0  0  0  0  0  0  0  0  0
   12.6123    8.2744  -59.9197 H   0  0  0  0  0  0  0  0  0  0  0  0
   13.4621    8.5747  -61.4736 H   0  0  0  0  0  0  0  0  0  0  0  0
   11.8239    7.8379  -61.4736 H   0  0  0  0  0  0  0  0  0  0  0  0
   12.8221    5.8207  -61.4926 H   0  0  0  0  0  0  0  0  0  0  0  0
   14.4441    6.5764  -61.2227 H   0  0  0  0  0  0  0  0  0  0  0  0
   14.3201    6.2147  -58.8577 H   0  0  0  0  0  0  0  0  0  0  0  0
   13.4749    5.0406  -56.8576 H   0  0  0  0  0  0  0  0  0  0  0  0
    5.3887    0.9437  -59.1661 H   0  0  0  0  0  0  0  0  0  0  0  0
    4.9033    1.7898  -60.6745 H   0  0  0  0  0  0  0  0  0  0  0  0
    6.3342    0.7039  -60.6745 H   0  0  0  0  0  0  0  0  0  0  0  0
    7.1232    4.4864  -60.3607 H   0  0  0  0  0  0  0  0  0  0  0  0
    7.6983    3.1524  -61.4173 H   0  0  0  0  0  0  0  0  0  0  0  0
    5.9622    3.6132  -61.4173 H   0  0  0  0  0  0  0  0  0  0  0  0
    9.0400    0.2140  -55.2000 H   0  0  0  0  0  0  0  0  0  0  0  0
    8.4482   -4.4290  -53.7062 H   0  0  0  0  0  0  0  0  0  0  0  0
    7.3938   -4.4900  -49.2629 H   0  0  0  0  0  0  0  0  0  0  0  0
    7.1416   -2.7893  -49.8173 H   0  0  0  0  0  0  0  0  0  0  0  0
    5.0555   -4.3183  -49.5758 H   0  0  0  0  0  0  0  0  0  0  0  0
    5.2360   -3.3551  -51.0812 H   0  0  0  0  0  0  0  0  0  0  0  0
    5.6391   -5.1055  -51.0812 H   0  0  0  0  0  0  0  0  0  0  0  0
    9.9250    3.2690  -55.6960 H   0  0  0  0  0  0  0  0  0  0  0  0
  1  2  1  0
  2  3  1  0
  3  4  2  0
  4  5  1  0
  5  6  2  0
  6  7  1  0
  7  8  2  0
  8  9  1  0
  9 10  2  0
 10 11  1  0
 11 12  1  0
 11 13  1  0
 10 14  1  0
 14 15  2  0
 15 16  1  0
 16 17  2  0
 16 18  1  0
 18 19  1  0
 19 20  2  0
 20 21  1  0
 21 22  2  0
 22 23  1  0
 23 24  1  0
 24 25  1  0
 22 26  1  0
 26 27  2  0
 15 28  1  0
 28 29  1  0
  7 30  1  0
 30  4  1  0
 29  8  1  0
 27 19  1  0
  1 31  1  0
  1 32  1  0
  1 33  1  0
  2 34  1  0
  2 35  1  0
  3 36  1  0
  5 37  1  0
 12 38  1  0
 12 39  1  0
 12 40  1  0
 13 41  1  0
 13 42  1  0
 13 43  1  0
 18 44  1  0
 21 45  1  0
 24 46  1  0
 24 47  1  0
 25 48  1  0
 25 49  1  0
 25 50  1  0
 29 51  1  0
M  END
>  <meeko>  (69) 
{"is_sidechain": false}

$$$$

     RDKit          3D

 37 40  0  0  0  0  0  0  0  0999 V2000
    5.5420    2.3750  -59.0510 O   0  0  0  0  0  0  0  0  0  0  0  0
    5.7830    2.2940  -60.2530 C   0  0  0  0  0  0  0  0  0  0  0  0
    6.9940    2.7000  -60.7890 N   0  0  0  0  0  0  0  0  0  0  0  0
    8.1090    3.2620  -60.0200 C   0  0  2  0  0  0  0  0  0  0  0  0
    9.3270    3.4190  -60.9710 C   0  0  0  0  0  0  0  0  0  0  0  0
   10.5380    4.0050  -60.2300 C   0  0  1  0  0  0  0  0  0  0  0  0
   10.1630    5.3830  -59.6630 C   0  0  0  0  0  0  0  0  0  0  0  0
    8.9770    5.2480  -58.6960 C   0  0  2  0  0  0  0  0  0  0  0  0
    9.3640    4.3010  -57.5470 C   0  0  0  0  0  0  0  0  0  0  0  0
    9.7420    2.9170  -58.1060 C   0  0  2  0  0  0  0  0  0  0  0  0
   10.9230    3.0670  -59.0750 C   0  0  0  0  0  0  0  0  0  0  0  0
    8.5360    2.3280  -58.8590 C   0  0  0  0  0  0  0  0  0  0  0  0
    7.7700    4.6620  -59.4510 C   0  0  0  0  0  0  0  0  0  0  0  0
    4.8310    1.7690  -61.2210 C   0  0  0  0  0  0  0  0  0  0  0  0
    3.8210    0.8220  -61.1530 C   0  0  0  0  0  0  0  0  0  0  0  0
    3.2360    0.7460  -62.4420 C   0  0  0  0  0  0  0  0  0  0  0  0
    3.9180    1.6460  -63.2230 C   0  0  0  0  0  0  0  0  0  0  0  0
    4.8810    2.2670  -62.4990 O   0  0  0  0  0  0  0  0  0  0  0  0
    7.1230    2.6040  -61.7840 H   0  0  0  0  0  0  0  0  0  0  0  0
    9.5966    2.4319  -61.3748 H   0  0  0  0  0  0  0  0  0  0  0  0
    9.0488    4.1072  -61.7828 H   0  0  0  0  0  0  0  0  0  0  0  0
   11.3865    4.1081  -60.9223 H   0  0  0  0  0  0  0  0  0  0  0  0
   11.0258    5.8026  -59.1250 H   0  0  0  0  0  0  0  0  0  0  0  0
    9.8798    6.0494  -60.4911 H   0  0  0  0  0  0  0  0  0  0  0  0
    8.7162    6.2365  -58.2900 H   0  0  0  0  0  0  0  0  0  0  0  0
   10.2232    4.7208  -57.0034 H   0  0  0  0  0  0  0  0  0  0  0  0
    8.5069    4.1923  -56.8661 H   0  0  0  0  0  0  0  0  0  0  0  0
   10.0252    2.2478  -57.2802 H   0  0  0  0  0  0  0  0  0  0  0  0
   11.7853    3.4870  -58.5364 H   0  0  0  0  0  0  0  0  0  0  0  0
   11.1836    2.0793  -59.4830 H   0  0  0  0  0  0  0  0  0  0  0  0
    8.8105    1.3446  -59.2684 H   0  0  0  0  0  0  0  0  0  0  0  0
    7.6948    2.2266  -58.1575 H   0  0  0  0  0  0  0  0  0  0  0  0
    6.9190    4.5746  -58.7595 H   0  0  0  0  0  0  0  0  0  0  0  0
    7.5154    5.3315  -60.2858 H   0  0  0  0  0  0  0  0  0  0  0  0
    3.5288    0.2398  -60.2667 H   0  0  0  0  0  0  0  0  0  0  0  0
    2.4040    0.0973  -62.7535 H   0  0  0  0  0  0  0  0  0  0  0  0
    3.7119    1.8363  -64.2866 H   0  0  0  0  0  0  0  0  0  0  0  0
  1  2  2  0
  2  3  1  0
  4  3  1  6
  4  5  1  0
  5  6  1  0
  6  7  1  0
  7  8  1  0
  8  9  1  0
  9 10  1  0
 10 11  1  0
 10 12  1  0
  8 13  1  0
  2 14  1  0
 14 15  2  0
 15 16  1  0
 16 17  2  0
 17 18  1  0
 12  4  1  0
 18 14  1  0
 13  4  1  0
 11  6  1  0
  3 19  1  0
  5 20  1  0
  5 21  1  0
  6 22  1  6
  7 23  1  0
  7 24  1  0
  8 25  1  1
  9 26  1  0
  9 27  1  0
 10 28  1  1
 11 29  1  0
 11 30  1  0
 12 31  1  0
 12 32  1  0
 13 33  1  0
 13 34  1  0
 15 35  1  0
 16 36  1  0
 17 37  1  0
M  END
>  <meeko>  (70) 
{"is_sidechain": false}

$$$$

     RDKit          3D

 38 41  0  0  0  0  0  0  0  0999 V2000
    7.7840   -2.5320  -50.9130 C   0  0  0  0  0  0  0  0  0  0  0  0
    8.0060   -1.8900  -51.9030 C   0  0  0  0  0  0  0  0  0  0  0  0
    8.2700   -1.1300  -53.0770 C   0  0  0  0  0  0  0  0  0  0  0  0
    9.3980   -1.2200  -53.8630 C   0  0  0  0  0  0  0  0  0  0  0  0
    9.4310   -0.3770  -54.9570 N   0  0  0  0  0  0  0  0  0  0  0  0
    8.3300    0.3490  -54.9990 C   0  0  0  0  0  0  0  0  0  0  0  0
    8.0680    1.3440  -56.0490 C   0  0  0  0  0  0  0  0  0  0  0  0
    6.9370    1.7220  -56.3500 O   0  0  0  0  0  0  0  0  0  0  0  0
    9.1910    1.8430  -56.6990 N   0  0  0  0  0  0  0  0  0  0  0  0
    9.1800    2.8380  -57.7750 C   0  0  2  0  0  0  0  0  0  0  0  0
    8.8750    4.2600  -57.2420 C   0  0  0  0  0  0  0  0  0  0  0  0
    8.9250    5.2900  -58.3850 C   0  0  1  0  0  0  0  0  0  0  0  0
   10.3280    5.2890  -59.0080 C   0  0  0  0  0  0  0  0  0  0  0  0
   10.6530    3.8950  -59.5660 C   0  0  2  0  0  0  0  0  0  0  0  0
    9.6180    3.5200  -60.6380 C   0  0  0  0  0  0  0  0  0  0  0  0
    8.2090    3.5110  -60.0230 C   0  0  2  0  0  0  0  0  0  0  0  0
    7.8920    4.9060  -59.4580 C   0  0  0  0  0  0  0  0  0  0  0  0
    8.1580    2.4780  -58.8820 C   0  0  0  0  0  0  0  0  0  0  0  0
   10.5910    2.8680  -58.4240 C   0  0  0  0  0  0  0  0  0  0  0  0
    7.2110    0.0470  -53.7230 S   0  0  0  0  0  0  0  0  0  0  0  0
    7.5806   -3.1202  -50.0060 H   0  0  0  0  0  0  0  0  0  0  0  0
   10.2179   -1.9168  -53.6346 H   0  0  0  0  0  0  0  0  0  0  0  0
   10.0880    1.4840  -56.3980 H   0  0  0  0  0  0  0  0  0  0  0  0
    7.8719    4.2693  -56.7907 H   0  0  0  0  0  0  0  0  0  0  0  0
    9.6330    4.5271  -56.4909 H   0  0  0  0  0  0  0  0  0  0  0  0
    8.6964    6.2916  -57.9918 H   0  0  0  0  0  0  0  0  0  0  0  0
   10.3650    6.0259  -59.8239 H   0  0  0  0  0  0  0  0  0  0  0  0
   11.0666    5.5506  -58.2359 H   0  0  0  0  0  0  0  0  0  0  0  0
   11.6593    3.9002  -60.0102 H   0  0  0  0  0  0  0  0  0  0  0  0
    9.6551    4.2562  -61.4544 H   0  0  0  0  0  0  0  0  0  0  0  0
    9.8488    2.5186  -61.0303 H   0  0  0  0  0  0  0  0  0  0  0  0
    7.4709    3.2472  -60.7948 H   0  0  0  0  0  0  0  0  0  0  0  0
    7.9228    5.6441  -60.2731 H   0  0  0  0  0  0  0  0  0  0  0  0
    6.8903    4.8909  -59.0037 H   0  0  0  0  0  0  0  0  0  0  0  0
    7.1464    2.4660  -58.4501 H   0  0  0  0  0  0  0  0  0  0  0  0
    8.4097    1.4874  -59.2887 H   0  0  0  0  0  0  0  0  0  0  0  0
   10.8233    1.8704  -58.8250 H   0  0  0  0  0  0  0  0  0  0  0  0
   11.3232    3.1557  -57.6552 H   0  0  0  0  0  0  0  0  0  0  0  0
  1  2  3  0
  2  3  1  0
  3  4  2  0
  4  5  1  0
  5  6  2  0
  6  7  1  0
  7  8  2  0
  7  9  1  0
 10  9  1  1
 10 11  1  0
 11 12  1  0
 12 13  1  0
 13 14  1  0
 14 15  1  0
 15 16  1  0
 16 17  1  0
 16 18  1  0
 14 19  1  0
  6 20  1  0
 20  3  1  0
 18 10  1  0
 19 10  1  0
 17 12  1  0
  1 21  1  0
  4 22  1  0
  9 23  1  0
 11 24  1  0
 11 25  1  0
 12 26  1  1
 13 27  1  0
 13 28  1  0
 14 29  1  6
 15 30  1  0
 15 31  1  0
 16 32  1  6
 17 33  1  0
 17 34  1  0
 18 35  1  0
 18 36  1  0
 19 37  1  0
 19 38  1  0
M  END
>  <meeko>  (71) 
{"is_sidechain": false}

$$$$

     RDKit          3D

 45 48  0  0  0  0  0  0  0  0999 V2000
    8.1730   -2.9240  -50.0820 C   0  0  0  0  0  0  0  0  0  0  0  0
    8.5180   -2.5690  -51.5210 C   0  0  0  0  0  0  0  0  0  0  0  0
    7.4360   -1.7350  -52.2070 C   0  0  0  0  0  0  0  0  0  0  0  0
    7.9250   -0.9570  -53.3230 N   0  0  0  0  0  0  0  0  0  0  0  0
    7.2730    0.0190  -54.0180 C   0  0  0  0  0  0  0  0  0  0  0  0
    8.1820    0.4110  -54.9850 C   0  0  0  0  0  0  0  0  0  0  0  0
    8.0550    1.4260  -56.0330 C   0  0  0  0  0  0  0  0  0  0  0  0
    6.9640    1.8030  -56.4470 O   0  0  0  0  0  0  0  0  0  0  0  0
    9.2550    1.9160  -56.5220 N   0  0  0  0  0  0  0  0  0  0  0  0
    9.3780    2.9020  -57.6010 C   0  0  2  0  0  0  0  0  0  0  0  0
   10.8610    2.9350  -58.0630 C   0  0  0  0  0  0  0  0  0  0  0  0
   11.0640    3.9480  -59.2000 C   0  0  1  0  0  0  0  0  0  0  0  0
   10.1750    3.5550  -60.3900 C   0  0  0  0  0  0  0  0  0  0  0  0
    8.7010    3.5430  -59.9610 C   0  0  2  0  0  0  0  0  0  0  0  0
    8.3070    4.9430  -59.4580 C   0  0  0  0  0  0  0  0  0  0  0  0
    9.1920    5.3460  -58.2670 C   0  0  2  0  0  0  0  0  0  0  0  0
   10.6650    5.3470  -58.7060 C   0  0  0  0  0  0  0  0  0  0  0  0
    9.0000    4.3280  -57.1280 C   0  0  0  0  0  0  0  0  0  0  0  0
    8.5080    2.5230  -58.8250 C   0  0  0  0  0  0  0  0  0  0  0  0
    9.3230   -0.3470  -54.8340 N   0  0  0  0  0  0  0  0  0  0  0  0
    9.1500   -1.1780  -53.8160 N   0  0  0  0  0  0  0  0  0  0  0  0
    8.7733   -2.3063  -49.3979 H   0  0  0  0  0  0  0  0  0  0  0  0
    7.1040   -2.7352  -49.9040 H   0  0  0  0  0  0  0  0  0  0  0  0
    8.3922   -3.9871  -49.9040 H   0  0  0  0  0  0  0  0  0  0  0  0
    9.4571   -1.9963  -51.5251 H   0  0  0  0  0  0  0  0  0  0  0  0
    8.6094   -3.5123  -52.0794 H   0  0  0  0  0  0  0  0  0  0  0  0
    6.6531   -2.4151  -52.5738 H   0  0  0  0  0  0  0  0  0  0  0  0
    7.0555   -1.0230  -51.4598 H   0  0  0  0  0  0  0  0  0  0  0  0
    6.2573    0.4059  -53.8486 H   0  0  0  0  0  0  0  0  0  0  0  0
   10.1060    1.4820  -56.1960 H   0  0  0  0  0  0  0  0  0  0  0  0
   11.4964    3.2190  -57.2112 H   0  0  0  0  0  0  0  0  0  0  0  0
   11.1339    1.9356  -58.4328 H   0  0  0  0  0  0  0  0  0  0  0  0
   12.1188    3.9530  -59.5121 H   0  0  0  0  0  0  0  0  0  0  0  0
   10.3120    4.2828  -61.2034 H   0  0  0  0  0  0  0  0  0  0  0  0
   10.4588    2.5506  -60.7373 H   0  0  0  0  0  0  0  0  0  0  0  0
    8.0698    3.2651  -60.8179 H   0  0  0  0  0  0  0  0  0  0  0  0
    8.4380    5.6718  -60.2714 H   0  0  0  0  0  0  0  0  0  0  0  0
    7.2555    4.9265  -59.1353 H   0  0  0  0  0  0  0  0  0  0  0  0
    8.9110    6.3506  -57.9181 H   0  0  0  0  0  0  0  0  0  0  0  0
   10.8026    6.0742  -59.5198 H   0  0  0  0  0  0  0  0  0  0  0  0
   11.2980    5.6231  -57.8498 H   0  0  0  0  0  0  0  0  0  0  0  0
    9.6415    4.6094  -56.2799 H   0  0  0  0  0  0  0  0  0  0  0  0
    7.9429    4.3319  -56.8237 H   0  0  0  0  0  0  0  0  0  0  0  0
    7.4494    2.5100  -58.5264 H   0  0  0  0  0  0  0  0  0  0  0  0
    8.8134    1.5291  -59.1841 H   0  0  0  0  0  0  0  0  0  0  0  0
  1  2  1  0
  2  3  1  0
  3  4  1  0
  4  5  1  0
  5  6  2  0
  6  7  1  0
  7  8  2  0
  7  9  1  0
 10  9  1  1
 10 11  1  0
 11 12  1  0
 12 13  1  0
 13 14  1  0
 14 15  1  0
 15 16  1  0
 16 17  1  0
 16 18  1  0
 14 19  1  0
  6 20  1  0
 20 21  2  0
 21  4  1  0
 18 10  1  0
 19 10  1  0
 17 12  1  0
  1 22  1  0
  1 23  1  0
  1 24  1  0
  2 25  1  0
  2 26  1  0
  3 27  1  0
  3 28  1  0
  5 29  1  0
  9 30  1  0
 11 31  1  0
 11 32  1  0
 12 33  1  6
 13 34  1  0
 13 35  1  0
 14 36  1  6
 15 37  1  0
 15 38  1  0
 16 39  1  1
 17 40  1  0
 17 41  1  0
 18 42  1  0
 18 43  1  0
 19 44  1  0
 19 45  1  0
M  END
>  <meeko>  (72) 
{"is_sidechain": false}

$$$$

     RDKit          3D

 50 54  0  0  0  0  0  0  0  0999 V2000
    6.2130    2.2510  -56.3480 O   0  0  0  0  0  0  0  0  0  0  0  0
    7.2340    1.5830  -56.2080 C   0  0  0  0  0  0  0  0  0  0  0  0
    8.4260    1.8930  -56.8400 N   0  0  0  0  0  0  0  0  0  0  0  0
    8.6570    3.0240  -57.7360 C   0  0  2  0  0  0  0  0  0  0  0  0
    8.6240    4.3730  -56.9730 C   0  0  0  0  0  0  0  0  0  0  0  0
    8.9220    5.5420  -57.9290 C   0  0  1  0  0  0  0  0  0  0  0  0
   10.3180    5.3540  -58.5440 C   0  0  0  0  0  0  0  0  0  0  0  0
   10.3730    4.0330  -59.3250 C   0  0  2  0  0  0  0  0  0  0  0  0
    9.3200    4.0570  -60.4440 C   0  0  0  0  0  0  0  0  0  0  0  0
    7.9180    4.2370  -59.8410 C   0  0  2  0  0  0  0  0  0  0  0  0
    7.8710    5.5570  -59.0520 C   0  0  0  0  0  0  0  0  0  0  0  0
    7.6200    3.0670  -58.8870 C   0  0  0  0  0  0  0  0  0  0  0  0
   10.0660    2.8680  -58.3690 C   0  0  0  0  0  0  0  0  0  0  0  0
    7.3360    0.3890  -55.3690 C   0  0  0  0  0  0  0  0  0  0  0  0
    6.3090   -0.4120  -55.1420 N   0  0  0  0  0  0  0  0  0  0  0  0
    6.7230   -1.4460  -54.3230 C   0  0  0  0  0  0  0  0  0  0  0  0
    8.0490   -1.4280  -53.9240 C   0  0  0  0  0  0  0  0  0  0  0  0
    8.7860   -2.2390  -53.1530 O   0  0  0  0  0  0  0  0  0  0  0  0
   10.2040   -2.1930  -53.3110 C   0  0  0  0  0  0  0  0  0  0  0  0
   10.6590   -2.6920  -54.6640 C   0  0  0  0  0  0  0  0  0  0  0  0
   11.2080   -1.8150  -55.6100 C   0  0  0  0  0  0  0  0  0  0  0  0
   11.6460   -2.2880  -56.8500 C   0  0  0  0  0  0  0  0  0  0  0  0
   11.5520   -3.6480  -57.1570 C   0  0  0  0  0  0  0  0  0  0  0  0
   12.1110   -4.1640  -58.7080 Cl  0  0  0  0  0  0  0  0  0  0  0  0
   11.0210   -4.5350  -56.2160 C   0  0  0  0  0  0  0  0  0  0  0  0
   10.8790   -6.2310  -56.5170 Cl  0  0  0  0  0  0  0  0  0  0  0  0
   10.5830   -4.0590  -54.9740 C   0  0  0  0  0  0  0  0  0  0  0  0
    8.8080   -0.0510  -54.6230 S   0  0  0  0  0  0  0  0  0  0  0  0
    9.1940    1.2610  -56.6320 H   0  0  0  0  0  0  0  0  0  0  0  0
    7.6272    4.5135  -56.5295 H   0  0  0  0  0  0  0  0  0  0  0  0
    9.3912    4.3542  -56.1849 H   0  0  0  0  0  0  0  0  0  0  0  0
    8.8878    6.4915  -57.3746 H   0  0  0  0  0  0  0  0  0  0  0  0
   10.5313    6.1900  -59.2264 H   0  0  0  0  0  0  0  0  0  0  0  0
   11.0674    5.3296  -57.7391 H   0  0  0  0  0  0  0  0  0  0  0  0
   11.3741    3.9043  -59.7622 H   0  0  0  0  0  0  0  0  0  0  0  0
    9.5330    4.8925  -61.1271 H   0  0  0  0  0  0  0  0  0  0  0  0
    9.3569    3.1061  -60.9957 H   0  0  0  0  0  0  0  0  0  0  0  0
    7.1693    4.2582  -60.6466 H   0  0  0  0  0  0  0  0  0  0  0  0
    8.0791    6.3952  -59.7333 H   0  0  0  0  0  0  0  0  0  0  0  0
    6.8718    5.6740  -58.6071 H   0  0  0  0  0  0  0  0  0  0  0  0
    6.6134    3.1944  -58.4621 H   0  0  0  0  0  0  0  0  0  0  0  0
    7.6781    2.1250  -59.4521 H   0  0  0  0  0  0  0  0  0  0  0  0
   10.1057    1.9225  -58.9298 H   0  0  0  0  0  0  0  0  0  0  0  0
   10.8144    2.8697  -57.5629 H   0  0  0  0  0  0  0  0  0  0  0  0
    6.0343   -2.2424  -54.0045 H   0  0  0  0  0  0  0  0  0  0  0  0
   10.5376   -1.1518  -53.1899 H   0  0  0  0  0  0  0  0  0  0  0  0
   10.6439   -2.8534  -52.5492 H   0  0  0  0  0  0  0  0  0  0  0  0
   11.2949   -0.7441  -55.3740 H   0  0  0  0  0  0  0  0  0  0  0  0
   12.0661   -1.5874  -57.5867 H   0  0  0  0  0  0  0  0  0  0  0  0
   10.1753   -4.7633  -54.2339 H   0  0  0  0  0  0  0  0  0  0  0  0
  1  2  2  0
  2  3  1  0
  4  3  1  1
  4  5  1  0
  5  6  1  0
  6  7  1  0
  7  8  1  0
  8  9  1  0
  9 10  1  0
 10 11  1  0
 10 12  1  0
  8 13  1  0
  2 14  1  0
 14 15  2  0
 15 16  1  0
 16 17  2  0
 17 18  1  0
 18 19  1  0
 19 20  1  0
 20 21  1  0
 21 22  2  0
 22 23  1  0
 23 24  1  0
 23 25  2  0
 25 26  1  0
 25 27  1  0
 17 28  1  0
 12  4  1  0
 28 14  1  0
 13  4  1  0
 27 20  2  0
 11  6  1  0
  3 29  1  0
  5 30  1  0
  5 31  1  0
  6 32  1  1
  7 33  1  0
  7 34  1  0
  8 35  1  6
  9 36  1  0
  9 37  1  0
 10 38  1  6
 11 39  1  0
 11 40  1  0
 12 41  1  0
 12 42  1  0
 13 43  1  0
 13 44  1  0
 16 45  1  0
 19 46  1  0
 19 47  1  0
 21 48  1  0
 22 49  1  0
 27 50  1  0
M  END
>  <meeko>  (73) 
{"is_sidechain": false}

$$$$

     RDKit          3D

 37 39  0  0  0  0  0  0  0  0999 V2000
    8.4870   -2.5900  -51.8330 C   0  0  0  0  0  0  0  0  0  0  0  0
    9.0730   -1.8290  -52.8810 O   0  0  0  0  0  0  0  0  0  0  0  0
    8.2300   -1.0900  -53.6640 C   0  0  0  0  0  0  0  0  0  0  0  0
    6.8420   -1.1960  -53.6960 C   0  0  0  0  0  0  0  0  0  0  0  0
    6.0730   -0.3840  -54.5410 C   0  0  0  0  0  0  0  0  0  0  0  0
    6.7380    0.5430  -55.3590 C   0  0  0  0  0  0  0  0  0  0  0  0
    6.0810    1.6640  -56.4880 S   0  0  0  0  0  0  0  0  0  0  0  0
    7.6630    2.2180  -56.8650 C   0  0  0  0  0  0  0  0  0  0  0  0
    7.9040    3.2800  -57.8500 C   0  0  0  0  0  0  0  0  0  0  0  0
    8.1320    4.4510  -57.5520 O   0  0  0  0  0  0  0  0  0  0  0  0
    7.8560    2.8990  -59.1890 N   0  0  0  0  0  0  0  0  0  0  0  0
    8.2410    3.7950  -60.2610 C   0  0  0  0  0  0  0  0  0  0  0  0
    9.6880    3.6340  -60.7220 C   0  0  0  0  0  0  0  0  0  0  0  0
   10.5720    4.7920  -60.2720 C   0  0  0  0  0  0  0  0  0  0  0  0
   11.4520    4.4100  -59.1890 N   0  0  0  0  0  0  0  0  0  0  0  0
   12.5270    5.0880  -58.7080 C   0  0  0  0  0  0  0  0  0  0  0  0
   13.0740    4.4010  -57.7300 N   0  0  0  0  0  0  0  0  0  0  0  0
   12.2770    3.2950  -57.6510 C   0  0  0  0  0  0  0  0  0  0  0  0
   11.2690    3.2530  -58.5270 N   0  0  0  0  0  0  0  0  0  0  0  0
    8.6390    1.6250  -56.2070 N   0  0  0  0  0  0  0  0  0  0  0  0
    8.1260    0.6700  -55.3480 C   0  0  0  0  0  0  0  0  0  0  0  0
    8.8740   -0.1590  -54.4880 C   0  0  0  0  0  0  0  0  0  0  0  0
    8.8023   -2.1805  -50.8620 H   0  0  0  0  0  0  0  0  0  0  0  0
    7.3910   -2.5412  -51.9130 H   0  0  0  0  0  0  0  0  0  0  0  0
    8.8142   -3.6371  -51.9130 H   0  0  0  0  0  0  0  0  0  0  0  0
    6.3406   -1.9293  -53.0473 H   0  0  0  0  0  0  0  0  0  0  0  0
    4.9767   -0.4709  -54.5626 H   0  0  0  0  0  0  0  0  0  0  0  0
    7.8070    1.9070  -59.3860 H   0  0  0  0  0  0  0  0  0  0  0  0
    7.5819    3.6069  -61.1213 H   0  0  0  0  0  0  0  0  0  0  0  0
    8.1465    4.8178  -59.8674 H   0  0  0  0  0  0  0  0  0  0  0  0
   10.0902    2.6992  -60.3044 H   0  0  0  0  0  0  0  0  0  0  0  0
    9.6904    3.6171  -61.8219 H   0  0  0  0  0  0  0  0  0  0  0  0
   11.1816    5.1261  -61.1245 H   0  0  0  0  0  0  0  0  0  0  0  0
    9.9182    5.5996  -59.9111 H   0  0  0  0  0  0  0  0  0  0  0  0
   12.8837    6.0601  -59.0792 H   0  0  0  0  0  0  0  0  0  0  0  0
   12.4526    2.4945  -56.9173 H   0  0  0  0  0  0  0  0  0  0  0  0
    9.9705   -0.0741  -54.4640 H   0  0  0  0  0  0  0  0  0  0  0  0
  1  2  1  0
  2  3  1  0
  3  4  2  0
  4  5  1  0
  5  6  2  0
  6  7  1  0
  7  8  1  0
  8  9  1  0
  9 10  2  0
  9 11  1  0
 11 12  1  0
 12 13  1  0
 13 14  1  0
 14 15  1  0
 15 16  1  0
 16 17  2  0
 17 18  1  0
 18 19  2  0
  8 20  2  0
 20 21  1  0
 21 22  2  0
 22  3  1  0
 21  6  1  0
 19 15  1  0
  1 23  1  0
  1 24  1  0
  1 25  1  0
  4 26  1  0
  5 27  1  0
 11 28  1  0
 12 29  1  0
 12 30  1  0
 13 31  1  0
 13 32  1  0
 14 33  1  0
 14 34  1  0
 16 35  1  0
 18 36  1  0
 22 37  1  0
M  END
>  <meeko>  (74) 
{"is_sidechain": false}

$$$$

     RDKit          3D

 40 42  0  0  0  0  0  0  0  0999 V2000
    4.2650    2.1940  -59.1420 O   0  0  0  0  0  0  0  0  0  0  0  0
    4.7360    2.1190  -60.2720 C   0  0  0  0  0  0  0  0  0  0  0  0
    6.0720    2.3590  -60.5380 N   0  0  0  0  0  0  0  0  0  0  0  0
    7.0160    2.6320  -59.4540 C   0  0  2  0  0  0  0  0  0  0  0  0
    7.0880    4.1430  -59.1570 C   0  0  0  0  0  0  0  0  0  0  0  0
    8.5070    4.6270  -58.8700 C   0  0  0  0  0  0  0  0  0  0  0  0
    9.4290    4.3550  -60.0730 C   0  0  1  0  0  0  0  0  0  0  0  0
   10.8750    4.6690  -59.7360 C   0  0  0  0  0  0  0  0  0  0  0  0
   11.4630    5.8510  -60.2130 C   0  0  0  0  0  0  0  0  0  0  0  0
   12.7890    6.1510  -59.9040 C   0  0  0  0  0  0  0  0  0  0  0  0
   13.3340    7.2820  -60.3700 F   0  0  0  0  0  0  0  0  0  0  0  0
   13.5570    5.2960  -59.1200 C   0  0  0  0  0  0  0  0  0  0  0  0
   12.9860    4.1220  -58.6360 C   0  0  0  0  0  0  0  0  0  0  0  0
   11.6590    3.8190  -58.9440 C   0  0  0  0  0  0  0  0  0  0  0  0
   11.1410    2.6830  -58.4600 F   0  0  0  0  0  0  0  0  0  0  0  0
    9.2350    2.9430  -60.6680 C   0  0  0  0  0  0  0  0  0  0  0  0
    8.3920    2.0290  -59.7790 C   0  0  0  0  0  0  0  0  0  0  0  0
    3.9560    1.7390  -61.4310 C   0  0  0  0  0  0  0  0  0  0  0  0
    3.7660    0.4660  -61.9470 C   0  0  0  0  0  0  0  0  0  0  0  0
    2.9240    0.5660  -63.0800 C   0  0  0  0  0  0  0  0  0  0  0  0
    2.5930    1.8940  -63.2230 C   0  0  0  0  0  0  0  0  0  0  0  0
    3.2050    2.5910  -62.2140 N   0  0  0  0  0  0  0  0  0  0  0  0
    6.4400    1.9060  -61.3620 H   0  0  0  0  0  0  0  0  0  0  0  0
    6.6569    2.1464  -58.5346 H   0  0  0  0  0  0  0  0  0  0  0  0
    6.7004    4.6905  -60.0288 H   0  0  0  0  0  0  0  0  0  0  0  0
    6.4875    4.3302  -58.2546 H   0  0  0  0  0  0  0  0  0  0  0  0
    8.4859    5.7082  -58.6685 H   0  0  0  0  0  0  0  0  0  0  0  0
    8.8960    4.0834  -57.9964 H   0  0  0  0  0  0  0  0  0  0  0  0
    9.1319    5.0450  -60.8766 H   0  0  0  0  0  0  0  0  0  0  0  0
   10.8751    6.5435  -60.8333 H   0  0  0  0  0  0  0  0  0  0  0  0
   14.6026    5.5445  -58.8854 H   0  0  0  0  0  0  0  0  0  0  0  0
   13.5787    3.4358  -58.0131 H   0  0  0  0  0  0  0  0  0  0  0  0
    8.7363    3.0396  -61.6437 H   0  0  0  0  0  0  0  0  0  0  0  0
   10.2311    2.4852  -60.7585 H   0  0  0  0  0  0  0  0  0  0  0  0
    8.2437    1.0706  -60.2981 H   0  0  0  0  0  0  0  0  0  0  0  0
    8.9314    1.8949  -58.8298 H   0  0  0  0  0  0  0  0  0  0  0  0
    4.1963   -0.4629  -61.5444 H   0  0  0  0  0  0  0  0  0  0  0  0
    2.5958   -0.2623  -63.7252 H   0  0  0  0  0  0  0  0  0  0  0  0
    1.9511    2.3205  -64.0079 H   0  0  0  0  0  0  0  0  0  0  0  0
    3.0910    3.5800  -62.0410 H   0  0  0  0  0  0  0  0  0  0  0  0
  1  2  2  0
  2  3  1  0
  3  4  1  0
  4  5  1  0
  5  6  1  0
  6  7  1  0
  7  8  1  0
  8  9  1  0
  9 10  2  0
 10 11  1  0
 10 12  1  0
 12 13  2  0
 13 14  1  0
 14 15  1  0
  7 16  1  0
 16 17  1  0
  2 18  1  0
 18 19  2  0
 19 20  1  0
 20 21  2  0
 21 22  1  0
 17  4  1  0
 22 18  1  0
 14  8  2  0
  3 23  1  0
  4 24  1  6
  5 25  1  0
  5 26  1  0
  6 27  1  0
  6 28  1  0
  7 29  1  1
  9 30  1  0
 12 31  1  0
 13 32  1  0
 16 33  1  0
 16 34  1  0
 17 35  1  0
 17 36  1  0
 19 37  1  0
 20 38  1  0
 21 39  1  0
 22 40  1  0
M  END
>  <meeko>  (75) 
{"is_sidechain": false}

$$$$

     RDKit          3D

 37 40  0  0  0  0  0  0  0  0999 V2000
    5.8930    2.5350  -58.9400 O   0  0  0  0  0  0  0  0  0  0  0  0
    6.1010    2.4780  -60.1480 C   0  0  0  0  0  0  0  0  0  0  0  0
    7.2920    2.9160  -60.7070 N   0  0  0  0  0  0  0  0  0  0  0  0
    8.4350    3.4340  -59.9470 C   0  0  2  0  0  0  0  0  0  0  0  0
    9.5890    3.7250  -60.9450 C   0  0  0  0  0  0  0  0  0  0  0  0
   10.8290    4.2670  -60.2160 C   0  0  1  0  0  0  0  0  0  0  0  0
   10.4570    5.5690  -59.4900 C   0  0  0  0  0  0  0  0  0  0  0  0
    9.3330    5.3020  -58.4780 C   0  0  2  0  0  0  0  0  0  0  0  0
    9.8090    4.2550  -57.4560 C   0  0  0  0  0  0  0  0  0  0  0  0
   10.1840    2.9470  -58.1720 C   0  0  2  0  0  0  0  0  0  0  0  0
   11.3030    3.2280  -59.1880 C   0  0  0  0  0  0  0  0  0  0  0  0
    8.9500    2.4020  -58.9130 C   0  0  0  0  0  0  0  0  0  0  0  0
    8.0970    4.7610  -59.2190 C   0  0  0  0  0  0  0  0  0  0  0  0
    5.1470    1.9340  -61.1100 C   0  0  0  0  0  0  0  0  0  0  0  0
    4.0390    1.1230  -60.9160 C   0  0  0  0  0  0  0  0  0  0  0  0
    3.3630    0.8140  -62.1330 C   0  0  0  0  0  0  0  0  0  0  0  0
    3.9740    1.3890  -63.2230 C   0  0  0  0  0  0  0  0  0  0  0  0
    5.3580    2.2880  -62.7800 S   0  0  0  0  0  0  0  0  0  0  0  0
    7.4680    2.6520  -61.6650 H   0  0  0  0  0  0  0  0  0  0  0  0
    9.8570    2.7937  -61.4655 H   0  0  0  0  0  0  0  0  0  0  0  0
    9.2463    4.4849  -61.6628 H   0  0  0  0  0  0  0  0  0  0  0  0
   11.6329    4.4640  -60.9406 H   0  0  0  0  0  0  0  0  0  0  0  0
   11.3400    5.9561  -58.9603 H   0  0  0  0  0  0  0  0  0  0  0  0
   10.1114    6.3082  -60.2276 H   0  0  0  0  0  0  0  0  0  0  0  0
    9.0735    6.2367  -57.9594 H   0  0  0  0  0  0  0  0  0  0  0  0
   10.6893    4.6423  -56.9221 H   0  0  0  0  0  0  0  0  0  0  0  0
    8.9960    4.0537  -56.7429 H   0  0  0  0  0  0  0  0  0  0  0  0
   10.5300    2.2072  -57.4351 H   0  0  0  0  0  0  0  0  0  0  0  0
   12.1866    3.6151  -58.6593 H   0  0  0  0  0  0  0  0  0  0  0  0
   11.5605    2.2945  -59.7098 H   0  0  0  0  0  0  0  0  0  0  0  0
    9.2228    1.4728  -59.4347 H   0  0  0  0  0  0  0  0  0  0  0  0
    8.1536    2.2070  -58.1797 H   0  0  0  0  0  0  0  0  0  0  0  0
    7.2907    4.5799  -58.4930 H   0  0  0  0  0  0  0  0  0  0  0  0
    7.7774    5.5035  -59.9650 H   0  0  0  0  0  0  0  0  0  0  0  0
    3.7164    0.7575  -59.9299 H   0  0  0  0  0  0  0  0  0  0  0  0
    2.4595    0.1895  -62.1930 H   0  0  0  0  0  0  0  0  0  0  0  0
    3.6144    1.2827  -64.2571 H   0  0  0  0  0  0  0  0  0  0  0  0
  1  2  2  0
  2  3  1  0
  4  3  1  6
  4  5  1  0
  5  6  1  0
  6  7  1  0
  7  8  1  0
  8  9  1  0
  9 10  1  0
 10 11  1  0
 10 12  1  0
  8 13  1  0
  2 14  1  0
 14 15  2  0
 15 16  1  0
 16 17  2  0
 17 18  1  0
 12  4  1  0
 18 14  1  0
 13  4  1  0
 11  6  1  0
  3 19  1  0
  5 20  1  0
  5 21  1  0
  6 22  1  6
  7 23  1  0
  7 24  1  0
  8 25  1  1
  9 26  1  0
  9 27  1  0
 10 28  1  1
 11 29  1  0
 11 30  1  0
 12 31  1  0
 12 32  1  0
 13 33  1  0
 13 34  1  0
 15 35  1  0
 16 36  1  0
 17 37  1  0
M  END
>  <meeko>  (76) 
{"is_sidechain": false}

$$$$

     RDKit          3D

 46 50  0  0  0  0  0  0  0  0999 V2000
    6.6730    1.8930  -56.3090 O   0  0  0  0  0  0  0  0  0  0  0  0
    7.7830    1.4050  -56.1160 C   0  0  0  0  0  0  0  0  0  0  0  0
    8.9090    1.8050  -56.8160 N   0  0  0  0  0  0  0  0  0  0  0  0
    8.9600    2.8330  -57.8530 C   0  0  2  0  0  0  0  0  0  0  0  0
   10.3760    2.8210  -58.4880 C   0  0  0  0  0  0  0  0  0  0  0  0
   10.4950    3.8830  -59.5920 C   0  0  1  0  0  0  0  0  0  0  0  0
    9.4540    3.5930  -60.6850 C   0  0  0  0  0  0  0  0  0  0  0  0
    8.0410    3.6270  -60.0840 C   0  0  2  0  0  0  0  0  0  0  0  0
    7.7810    5.0140  -59.4730 C   0  0  0  0  0  0  0  0  0  0  0  0
    8.8180    5.3130  -58.3770 C   0  0  2  0  0  0  0  0  0  0  0  0
   10.2280    5.2700  -58.9880 C   0  0  0  0  0  0  0  0  0  0  0  0
    8.7100    4.2470  -57.2730 C   0  0  0  0  0  0  0  0  0  0  0  0
    7.9320    2.5590  -58.9810 C   0  0  0  0  0  0  0  0  0  0  0  0
    8.0740    0.3540  -55.1400 C   0  0  0  0  0  0  0  0  0  0  0  0
    9.2890   -0.1370  -54.9610 N   0  0  0  0  0  0  0  0  0  0  0  0
    9.2380   -1.1070  -53.9770 C   0  0  0  0  0  0  0  0  0  0  0  0
    7.9960   -1.3460  -53.4110 C   0  0  0  0  0  0  0  0  0  0  0  0
    7.6120   -2.3090  -52.3750 C   0  0  0  0  0  0  0  0  0  0  0  0
    8.1220   -2.2300  -51.0700 C   0  0  0  0  0  0  0  0  0  0  0  0
    7.7530   -3.1660  -50.0980 C   0  0  0  0  0  0  0  0  0  0  0  0
    6.8700   -4.1940  -50.4200 C   0  0  0  0  0  0  0  0  0  0  0  0
    6.3560   -4.2890  -51.7110 C   0  0  0  0  0  0  0  0  0  0  0  0
    6.7260   -3.3540  -52.6810 C   0  0  0  0  0  0  0  0  0  0  0  0
    6.8420   -0.3130  -54.1600 S   0  0  0  0  0  0  0  0  0  0  0  0
    9.7650    1.3210  -56.5540 H   0  0  0  0  0  0  0  0  0  0  0  0
   11.1220    3.0293  -57.7069 H   0  0  0  0  0  0  0  0  0  0  0  0
   10.5507    1.8310  -58.9346 H   0  0  0  0  0  0  0  0  0  0  0  0
   11.5048    3.8580  -60.0276 H   0  0  0  0  0  0  0  0  0  0  0  0
    9.5327    4.3546  -61.4748 H   0  0  0  0  0  0  0  0  0  0  0  0
    9.6429    2.5959  -61.1094 H   0  0  0  0  0  0  0  0  0  0  0  0
    7.3000    3.4244  -60.8713 H   0  0  0  0  0  0  0  0  0  0  0  0
    7.8542    5.7780  -60.2610 H   0  0  0  0  0  0  0  0  0  0  0  0
    6.7746    5.0284  -59.0292 H   0  0  0  0  0  0  0  0  0  0  0  0
    8.6299    6.3091  -57.9500 H   0  0  0  0  0  0  0  0  0  0  0  0
   10.3069    6.0325  -59.7769 H   0  0  0  0  0  0  0  0  0  0  0  0
   10.9697    5.4707  -58.2008 H   0  0  0  0  0  0  0  0  0  0  0  0
    9.4587    4.4558  -56.4946 H   0  0  0  0  0  0  0  0  0  0  0  0
    7.6968    4.2807  -56.8460 H   0  0  0  0  0  0  0  0  0  0  0  0
    6.9169    2.5787  -58.5577 H   0  0  0  0  0  0  0  0  0  0  0  0
    8.1418    1.5726  -59.4203 H   0  0  0  0  0  0  0  0  0  0  0  0
   10.1351   -1.6593  -53.6605 H   0  0  0  0  0  0  0  0  0  0  0  0
    8.8208   -1.4218  -50.8081 H   0  0  0  0  0  0  0  0  0  0  0  0
    8.1603   -3.0901  -49.0790 H   0  0  0  0  0  0  0  0  0  0  0  0
    6.5790   -4.9297  -49.6558 H   0  0  0  0  0  0  0  0  0  0  0  0
    5.6586   -5.1003  -51.9669 H   0  0  0  0  0  0  0  0  0  0  0  0
    6.3173   -3.4379  -53.6988 H   0  0  0  0  0  0  0  0  0  0  0  0
  1  2  2  0
  2  3  1  0
  4  3  1  1
  4  5  1  0
  5  6  1  0
  6  7  1  0
  7  8  1  0
  8  9  1  0
  9 10  1  0
 10 11  1  0
 10 12  1  0
  8 13  1  0
  2 14  1  0
 14 15  2  0
 15 16  1  0
 16 17  2  0
 17 18  1  0
 18 19  2  0
 19 20  1  0
 20 21  2  0
 21 22  1  0
 22 23  2  0
 17 24  1  0
 12  4  1  0
 24 14  1  0
 13  4  1  0
 23 18  1  0
 11  6  1  0
  3 25  1  0
  5 26  1  0
  5 27  1  0
  6 28  1  6
  7 29  1  0
  7 30  1  0
  8 31  1  6
  9 32  1  0
  9 33  1  0
 10 34  1  1
 11 35  1  0
 11 36  1  0
 12 37  1  0
 12 38  1  0
 13 39  1  0
 13 40  1  0
 16 41  1  0
 19 42  1  0
 20 43  1  0
 21 44  1  0
 22 45  1  0
 23 46  1  0
M  END
>  <meeko>  (77) 
{"is_sidechain": false}

$$$$

     RDKit          3D

 42 44  0  0  0  0  0  0  0  0999 V2000
    7.8130   -3.2190  -53.5990 C   0  0  0  0  0  0  0  0  0  0  0  0
    9.0340   -2.4200  -53.1090 C   0  0  0  0  0  0  0  0  0  0  0  0
    8.7280   -0.9210  -53.2470 C   0  0  0  0  0  0  0  0  0  0  0  0
    9.2920   -2.7740  -51.6360 C   0  0  0  0  0  0  0  0  0  0  0  0
   10.2650   -2.7880  -53.9630 C   0  0  0  0  0  0  0  0  0  0  0  0
   11.3890   -2.3680  -53.7070 O   0  0  0  0  0  0  0  0  0  0  0  0
   10.0000   -3.6220  -55.0300 N   0  0  0  0  0  0  0  0  0  0  0  0
   11.0000   -4.1120  -55.9850 C   0  0  2  0  0  0  0  0  0  0  0  0
   12.1240   -4.9110  -55.2810 C   0  0  0  0  0  0  0  0  0  0  0  0
   13.1280   -5.4560  -56.3120 C   0  0  1  0  0  0  0  0  0  0  0  0
   12.3970   -6.3890  -57.2900 C   0  0  0  0  0  0  0  0  0  0  0  0
   11.2870   -5.6190  -58.0210 C   0  0  2  0  0  0  0  0  0  0  0  0
   11.9080   -4.4470  -58.7980 C   0  0  0  0  0  0  0  0  0  0  0  0
   12.6360   -3.5020  -57.8290 C   0  0  2  0  0  0  0  0  0  0  0  0
   13.7400   -4.2810  -57.0940 C   0  0  0  0  0  0  0  0  0  0  0  0
   11.6310   -2.9540  -56.8010 C   0  0  0  0  0  0  0  0  0  0  0  0
   10.2930   -5.0660  -56.9860 C   0  0  0  0  0  0  0  0  0  0  0  0
    7.2459   -3.5901  -52.7326 H   0  0  0  0  0  0  0  0  0  0  0  0
    7.1685   -2.5674  -54.2073 H   0  0  0  0  0  0  0  0  0  0  0  0
    8.1521   -4.0705  -54.2073 H   0  0  0  0  0  0  0  0  0  0  0  0
    8.6363   -0.4719  -52.2470 H   0  0  0  0  0  0  0  0  0  0  0  0
    9.5443   -0.4292  -53.7964 H   0  0  0  0  0  0  0  0  0  0  0  0
    7.7843   -0.7885  -53.7964 H   0  0  0  0  0  0  0  0  0  0  0  0
    8.7681   -2.0551  -50.9889 H   0  0  0  0  0  0  0  0  0  0  0  0
    8.9205   -3.7891  -51.4324 H   0  0  0  0  0  0  0  0  0  0  0  0
   10.3721   -2.7311  -51.4324 H   0  0  0  0  0  0  0  0  0  0  0  0
    9.0450   -3.9230  -55.1710 H   0  0  0  0  0  0  0  0  0  0  0  0
   12.6512   -4.2500  -54.5773 H   0  0  0  0  0  0  0  0  0  0  0  0
   11.6735   -5.7578  -54.7426 H   0  0  0  0  0  0  0  0  0  0  0  0
   13.9236   -6.0124  -55.7948 H   0  0  0  0  0  0  0  0  0  0  0  0
   13.1149   -6.7796  -58.0263 H   0  0  0  0  0  0  0  0  0  0  0  0
   11.9487   -7.2215  -56.7278 H   0  0  0  0  0  0  0  0  0  0  0  0
   10.7664   -6.2918  -58.7184 H   0  0  0  0  0  0  0  0  0  0  0  0
   12.6258   -4.8375  -59.5344 H   0  0  0  0  0  0  0  0  0  0  0  0
   11.1103   -3.8919  -59.3133 H   0  0  0  0  0  0  0  0  0  0  0  0
   13.0819   -2.6681  -58.3908 H   0  0  0  0  0  0  0  0  0  0  0  0
   14.4615   -4.6692  -57.8280 H   0  0  0  0  0  0  0  0  0  0  0  0
   14.2484   -3.6061  -56.3897 H   0  0  0  0  0  0  0  0  0  0  0  0
   12.1521   -2.2701  -56.1149 H   0  0  0  0  0  0  0  0  0  0  0  0
   10.8318   -2.4199  -57.3358 H   0  0  0  0  0  0  0  0  0  0  0  0
    9.4995   -4.5129  -57.5099 H   0  0  0  0  0  0  0  0  0  0  0  0
    9.8690   -5.9107  -56.4232 H   0  0  0  0  0  0  0  0  0  0  0  0
  1  2  1  0
  2  3  1  0
  2  4  1  0
  2  5  1  0
  5  6  2  0
  5  7  1  0
  8  7  1  1
  8  9  1  0
  9 10  1  0
 10 11  1  0
 11 12  1  0
 12 13  1  0
 13 14  1  0
 14 15  1  0
 14 16  1  0
 12 17  1  0
 16  8  1  0
 17  8  1  0
 15 10  1  0
  1 18  1  0
  1 19  1  0
  1 20  1  0
  3 21  1  0
  3 22  1  0
  3 23  1  0
  4 24  1  0
  4 25  1  0
  4 26  1  0
  7 27  1  0
  9 28  1  0
  9 29  1  0
 10 30  1  1
 11 31  1  0
 11 32  1  0
 12 33  1  6
 13 34  1  0
 13 35  1  0
 14 36  1  6
 15 37  1  0
 15 38  1  0
 16 39  1  0
 16 40  1  0
 17 41  1  0
 17 42  1  0
M  END
>  <meeko>  (78) 
{"is_sidechain": false}

$$$$

     RDKit          3D

 41 45  0  0  0  0  0  0  0  0999 V2000
    6.5570    2.1090  -56.4910 O   0  0  0  0  0  0  0  0  0  0  0  0
    7.6170    1.5460  -56.2260 C   0  0  0  0  0  0  0  0  0  0  0  0
    8.8050    1.9180  -56.8430 N   0  0  0  0  0  0  0  0  0  0  0  0
    8.9480    2.9800  -57.8440 C   0  0  2  0  0  0  0  0  0  0  0  0
   10.3860    2.9060  -58.4290 C   0  0  0  0  0  0  0  0  0  0  0  0
   10.6080    3.9960  -59.4890 C   0  0  1  0  0  0  0  0  0  0  0  0
    9.5930    3.8050  -60.6270 C   0  0  0  0  0  0  0  0  0  0  0  0
    8.1630    3.9020  -60.0750 C   0  0  2  0  0  0  0  0  0  0  0  0
    7.9610    5.2810  -59.4240 C   0  0  0  0  0  0  0  0  0  0  0  0
    8.9730    5.4810  -58.2830 C   0  0  2  0  0  0  0  0  0  0  0  0
   10.3990    5.3750  -58.8460 C   0  0  0  0  0  0  0  0  0  0  0  0
    8.7630    4.3860  -57.2210 C   0  0  0  0  0  0  0  0  0  0  0  0
    7.9510    2.8050  -59.0160 C   0  0  0  0  0  0  0  0  0  0  0  0
    7.7180    0.4490  -55.2520 C   0  0  0  0  0  0  0  0  0  0  0  0
    8.8770    0.0080  -54.7950 N   0  0  0  0  0  0  0  0  0  0  0  0
    8.6600   -1.0220  -53.9000 C   0  0  0  0  0  0  0  0  0  0  0  0
    9.6190   -1.7620  -53.1910 C   0  0  0  0  0  0  0  0  0  0  0  0
    9.1690   -2.7650  -52.3340 C   0  0  0  0  0  0  0  0  0  0  0  0
    7.8030   -2.9870  -52.2200 C   0  0  0  0  0  0  0  0  0  0  0  0
    6.8360   -2.3070  -52.8770 N   0  0  0  0  0  0  0  0  0  0  0  0
    7.3240   -1.3480  -53.6920 C   0  0  0  0  0  0  0  0  0  0  0  0
    6.3210   -0.3490  -54.6330 S   0  0  0  0  0  0  0  0  0  0  0  0
    9.6380    1.4090  -56.5750 H   0  0  0  0  0  0  0  0  0  0  0  0
   11.1127    3.0432  -57.6147 H   0  0  0  0  0  0  0  0  0  0  0  0
   10.5198    1.9232  -58.9047 H   0  0  0  0  0  0  0  0  0  0  0  0
   11.6304    3.9262  -59.8888 H   0  0  0  0  0  0  0  0  0  0  0  0
    9.7447    4.5868  -61.3858 H   0  0  0  0  0  0  0  0  0  0  0  0
    9.7395    2.8133  -61.0798 H   0  0  0  0  0  0  0  0  0  0  0  0
    7.4412    3.7704  -60.8946 H   0  0  0  0  0  0  0  0  0  0  0  0
    8.1068    6.0655  -60.1812 H   0  0  0  0  0  0  0  0  0  0  0  0
    6.9415    5.3399  -59.0151 H   0  0  0  0  0  0  0  0  0  0  0  0
    8.8276    6.4717  -57.8275 H   0  0  0  0  0  0  0  0  0  0  0  0
   10.5505    6.1574  -59.6043 H   0  0  0  0  0  0  0  0  0  0  0  0
   11.1215    5.5050  -58.0268 H   0  0  0  0  0  0  0  0  0  0  0  0
    9.4954    4.5221  -56.4117 H   0  0  0  0  0  0  0  0  0  0  0  0
    7.7397    4.4669  -56.8256 H   0  0  0  0  0  0  0  0  0  0  0  0
    6.9233    2.8695  -58.6292 H   0  0  0  0  0  0  0  0  0  0  0  0
    8.1206    1.8235  -59.4828 H   0  0  0  0  0  0  0  0  0  0  0  0
   10.6933   -1.5566  -53.3081 H   0  0  0  0  0  0  0  0  0  0  0  0
    9.8840   -3.3705  -51.7577 H   0  0  0  0  0  0  0  0  0  0  0  0
    7.4793   -3.7853  -51.5359 H   0  0  0  0  0  0  0  0  0  0  0  0
  1  2  2  0
  2  3  1  0
  4  3  1  1
  4  5  1  0
  5  6  1  0
  6  7  1  0
  7  8  1  0
  8  9  1  0
  9 10  1  0
 10 11  1  0
 10 12  1  0
  8 13  1  0
  2 14  1  0
 14 15  2  0
 15 16  1  0
 16 17  1  0
 17 18  2  0
 18 19  1  0
 19 20  2  0
 20 21  1  0
 21 22  1  0
 12  4  1  0
 22 14  1  0
 13  4  1  0
 21 16  2  0
 11  6  1  0
  3 23  1  0
  5 24  1  0
  5 25  1  0
  6 26  1  6
  7 27  1  0
  7 28  1  0
  8 29  1  6
  9 30  1  0
  9 31  1  0
 10 32  1  1
 11 33  1  0
 11 34  1  0
 12 35  1  0
 12 36  1  0
 13 37  1  0
 13 38  1  0
 17 39  1  0
 18 40  1  0
 19 41  1  0
M  END
>  <meeko>  (79) 
{"is_sidechain": false}

$$$$

     RDKit          3D

 59 63  0  0  0  0  0  0  0  0999 V2000
    9.5520   -3.7650  -50.0560 C   0  0  0  0  0  0  0  0  0  0  0  0
    8.8970   -2.9510  -51.1320 C   0  0  0  0  0  0  0  0  0  0  0  0
    9.4550   -2.8920  -52.4150 C   0  0  0  0  0  0  0  0  0  0  0  0
    8.8650   -2.1050  -53.4090 C   0  0  0  0  0  0  0  0  0  0  0  0
    7.7120   -1.3630  -53.1310 C   0  0  0  0  0  0  0  0  0  0  0  0
    7.0870   -0.5390  -54.1630 C   0  0  0  0  0  0  0  0  0  0  0  0
    5.7640   -0.6060  -54.3640 N   0  0  0  0  0  0  0  0  0  0  0  0
    5.5320    0.2940  -55.3240 N   0  0  0  0  0  0  0  0  0  0  0  0
    6.6530    0.8980  -55.8250 C   0  0  0  0  0  0  0  0  0  0  0  0
    6.5200    1.8510  -56.9000 C   0  0  0  0  0  0  0  0  0  0  0  0
    6.2610    3.0320  -56.6830 O   0  0  0  0  0  0  0  0  0  0  0  0
    6.6580    1.3550  -58.1750 N   0  0  0  0  0  0  0  0  0  0  0  0
    6.4540    2.1870  -59.3460 C   0  0  0  0  0  0  0  0  0  0  0  0
    7.7100    2.2340  -60.2190 C   0  0  0  0  0  0  0  0  0  0  0  0
    8.8700    3.1080  -59.6850 C   0  0  2  0  0  0  0  0  0  0  0  0
    9.8130    3.5730  -60.8230 C   0  0  0  0  0  0  0  0  0  0  0  0
   10.9900    4.3900  -60.2580 C   0  0  1  0  0  0  0  0  0  0  0  0
   10.4410    5.6220  -59.5200 C   0  0  0  0  0  0  0  0  0  0  0  0
    9.5260    5.1810  -58.3660 C   0  0  2  0  0  0  0  0  0  0  0  0
   10.3280    4.3090  -57.3880 C   0  0  0  0  0  0  0  0  0  0  0  0
   10.8780    3.0730  -58.1160 C   0  0  2  0  0  0  0  0  0  0  0  0
   11.7860    3.5210  -59.2710 C   0  0  0  0  0  0  0  0  0  0  0  0
    9.7040    2.2600  -58.6840 C   0  0  0  0  0  0  0  0  0  0  0  0
    8.3520    4.3620  -58.9360 C   0  0  0  0  0  0  0  0  0  0  0  0
    7.7030    0.3890  -55.0690 C   0  0  0  0  0  0  0  0  0  0  0  0
    9.1520    0.7130  -55.1610 C   0  0  0  0  0  0  0  0  0  0  0  0
    7.1710   -1.3970  -51.8410 C   0  0  0  0  0  0  0  0  0  0  0  0
    7.7600   -2.1860  -50.8490 C   0  0  0  0  0  0  0  0  0  0  0  0
    9.2457   -3.3843  -49.0705 H   0  0  0  0  0  0  0  0  0  0  0  0
    9.2456   -4.8169  -50.1542 H   0  0  0  0  0  0  0  0  0  0  0  0
   10.6451   -3.6908  -50.1542 H   0  0  0  0  0  0  0  0  0  0  0  0
   10.3637   -3.4687  -52.6425 H   0  0  0  0  0  0  0  0  0  0  0  0
    9.3097   -2.0692  -54.4145 H   0  0  0  0  0  0  0  0  0  0  0  0
    4.5740    0.4530  -55.6270 H   0  0  0  0  0  0  0  0  0  0  0  0
    6.6630    0.3570  -58.3060 H   0  0  0  0  0  0  0  0  0  0  0  0
    5.6219    1.7766  -59.9368 H   0  0  0  0  0  0  0  0  0  0  0  0
    6.2253    3.2093  -59.0105 H   0  0  0  0  0  0  0  0  0  0  0  0
    8.0846    1.2054  -60.3268 H   0  0  0  0  0  0  0  0  0  0  0  0
    7.3979    2.6985  -61.1660 H   0  0  0  0  0  0  0  0  0  0  0  0
   10.2061    2.6905  -61.3490 H   0  0  0  0  0  0  0  0  0  0  0  0
    9.2426    4.2090  -61.5160 H   0  0  0  0  0  0  0  0  0  0  0  0
   11.6469    4.7105  -61.0801 H   0  0  0  0  0  0  0  0  0  0  0  0
   11.2797    6.2080  -59.1160 H   0  0  0  0  0  0  0  0  0  0  0  0
    9.8614    6.2359  -60.2251 H   0  0  0  0  0  0  0  0  0  0  0  0
    9.1391    6.0656  -57.8389 H   0  0  0  0  0  0  0  0  0  0  0  0
   11.1654    4.8944  -56.9805 H   0  0  0  0  0  0  0  0  0  0  0  0
    9.6682    3.9828  -56.5705 H   0  0  0  0  0  0  0  0  0  0  0  0
   11.4553    2.4561  -57.4116 H   0  0  0  0  0  0  0  0  0  0  0  0
   12.6270    4.1044  -58.8681 H   0  0  0  0  0  0  0  0  0  0  0  0
   12.1664    2.6329  -59.7969 H   0  0  0  0  0  0  0  0  0  0  0  0
   10.0983    1.3746  -59.2043 H   0  0  0  0  0  0  0  0  0  0  0  0
    9.0511    1.9595  -57.8512 H   0  0  0  0  0  0  0  0  0  0  0  0
    7.6987    4.0447  -58.1099 H   0  0  0  0  0  0  0  0  0  0  0  0
    7.7937    4.9912  -59.6448 H   0  0  0  0  0  0  0  0  0  0  0  0
    9.5717    0.8069  -54.1486 H   0  0  0  0  0  0  0  0  0  0  0  0
    9.6738   -0.0906  -55.7012 H   0  0  0  0  0  0  0  0  0  0  0  0
    9.2819    1.6624  -55.7012 H   0  0  0  0  0  0  0  0  0  0  0  0
    6.2776   -0.7997  -51.6064 H   0  0  0  0  0  0  0  0  0  0  0  0
    7.3265   -2.2057  -49.8382 H   0  0  0  0  0  0  0  0  0  0  0  0
  1  2  1  0
  2  3  1  0
  3  4  2  0
  4  5  1  0
  5  6  1  0
  6  7  2  0
  7  8  1  0
  8  9  1  0
  9 10  1  0
 10 11  2  0
 10 12  1  0
 12 13  1  0
 13 14  1  0
 15 14  1  6
 15 16  1  0
 16 17  1  0
 17 18  1  0
 18 19  1  0
 19 20  1  0
 20 21  1  0
 21 22  1  0
 21 23  1  0
 19 24  1  0
  9 25  2  0
 25 26  1  0
  5 27  2  0
 27 28  1  0
 28  2  2  0
 25  6  1  0
 23 15  1  0
 24 15  1  0
 22 17  1  0
  1 29  1  0
  1 30  1  0
  1 31  1  0
  3 32  1  0
  4 33  1  0
  8 34  1  0
 12 35  1  0
 13 36  1  0
 13 37  1  0
 14 38  1  0
 14 39  1  0
 16 40  1  0
 16 41  1  0
 17 42  1  6
 18 43  1  0
 18 44  1  0
 19 45  1  1
 20 46  1  0
 20 47  1  0
 21 48  1  1
 22 49  1  0
 22 50  1  0
 23 51  1  0
 23 52  1  0
 24 53  1  0
 24 54  1  0
 26 55  1  0
 26 56  1  0
 26 57  1  0
 27 58  1  0
 28 59  1  0
M  END
>  <meeko>  (80) 
{"is_sidechain": false}

$$$$

     RDKit          3D

 59 63  0  0  0  0  0  0  0  0999 V2000
    9.5220   -3.7590  -50.0420 C   0  0  0  0  0  0  0  0  0  0  0  0
    8.9160   -2.9250  -51.1320 C   0  0  0  0  0  0  0  0  0  0  0  0
    9.5460   -2.8160  -52.3760 C   0  0  0  0  0  0  0  0  0  0  0  0
    8.9990   -2.0120  -53.3810 C   0  0  0  0  0  0  0  0  0  0  0  0
    7.8190   -1.2950  -53.1530 C   0  0  0  0  0  0  0  0  0  0  0  0
    7.2390   -0.4660  -54.2020 C   0  0  0  0  0  0  0  0  0  0  0  0
    5.8960   -0.4480  -54.4620 N   0  0  0  0  0  0  0  0  0  0  0  0
    5.5290    0.3890  -55.4420 N   0  0  0  0  0  0  0  0  0  0  0  0
    6.6900    0.9470  -55.8450 C   0  0  0  0  0  0  0  0  0  0  0  0
    6.7140    1.9550  -56.9240 C   0  0  0  0  0  0  0  0  0  0  0  0
    6.6410    3.1640  -56.7230 O   0  0  0  0  0  0  0  0  0  0  0  0
    6.8100    1.3940  -58.1790 N   0  0  0  0  0  0  0  0  0  0  0  0
    6.6540    2.1620  -59.3880 C   0  0  0  0  0  0  0  0  0  0  0  0
    7.9460    2.2540  -60.2020 C   0  0  0  0  0  0  0  0  0  0  0  0
    9.0730    3.1720  -59.6570 C   0  0  2  0  0  0  0  0  0  0  0  0
   10.0320    3.6360  -60.7840 C   0  0  0  0  0  0  0  0  0  0  0  0
   11.1870    4.4770  -60.2080 C   0  0  1  0  0  0  0  0  0  0  0  0
   10.6090    5.7100  -59.4950 C   0  0  0  0  0  0  0  0  0  0  0  0
    9.6790    5.2700  -58.3520 C   0  0  2  0  0  0  0  0  0  0  0  0
   10.4760    4.4230  -57.3490 C   0  0  0  0  0  0  0  0  0  0  0  0
   11.0550    3.1860  -58.0520 C   0  0  2  0  0  0  0  0  0  0  0  0
   11.9780    3.6330  -59.1970 C   0  0  0  0  0  0  0  0  0  0  0  0
    9.9040    2.3500  -58.6300 C   0  0  0  0  0  0  0  0  0  0  0  0
    8.5270    4.4300  -58.9350 C   0  0  0  0  0  0  0  0  0  0  0  0
    7.7960    0.4360  -55.0960 C   0  0  0  0  0  0  0  0  0  0  0  0
    9.2260    0.8030  -55.2680 C   0  0  0  0  0  0  0  0  0  0  0  0
    7.1980   -1.3910  -51.9030 C   0  0  0  0  0  0  0  0  0  0  0  0
    7.7440   -2.1960  -50.8980 C   0  0  0  0  0  0  0  0  0  0  0  0
    9.2272   -3.3533  -49.0630 H   0  0  0  0  0  0  0  0  0  0  0  0
    9.1650   -4.7956  -50.1319 H   0  0  0  0  0  0  0  0  0  0  0  0
   10.6181   -3.7396  -50.1319 H   0  0  0  0  0  0  0  0  0  0  0  0
   10.4790   -3.3670  -52.5653 H   0  0  0  0  0  0  0  0  0  0  0  0
    9.4999   -1.9427  -54.3579 H   0  0  0  0  0  0  0  0  0  0  0  0
    5.1750   -0.9790  -53.9850 H   0  0  0  0  0  0  0  0  0  0  0  0
    6.7050    0.3810  -58.1880 H   0  0  0  0  0  0  0  0  0  0  0  0
    5.8803    1.6868  -60.0090 H   0  0  0  0  0  0  0  0  0  0  0  0
    6.3721    3.1847  -59.0970 H   0  0  0  0  0  0  0  0  0  0  0  0
    8.3586    1.2374  -60.2811 H   0  0  0  0  0  0  0  0  0  0  0  0
    7.6449    2.7153  -61.1542 H   0  0  0  0  0  0  0  0  0  0  0  0
   10.4472    2.7523  -61.2907 H   0  0  0  0  0  0  0  0  0  0  0  0
    9.4661    4.2550  -61.4957 H   0  0  0  0  0  0  0  0  0  0  0  0
   11.8528    4.7965  -61.0232 H   0  0  0  0  0  0  0  0  0  0  0  0
   11.4325    6.3118  -59.0831 H   0  0  0  0  0  0  0  0  0  0  0  0
   10.0344    6.3081  -60.2176 H   0  0  0  0  0  0  0  0  0  0  0  0
    9.2693    6.1538  -57.8411 H   0  0  0  0  0  0  0  0  0  0  0  0
   11.2981    5.0254  -56.9353 H   0  0  0  0  0  0  0  0  0  0  0  0
    9.8076    4.0985  -56.5379 H   0  0  0  0  0  0  0  0  0  0  0  0
   11.6275    2.5856  -57.3297 H   0  0  0  0  0  0  0  0  0  0  0  0
   12.8030    4.2339  -58.7868 H   0  0  0  0  0  0  0  0  0  0  0  0
   12.3814    2.7444  -59.7046 H   0  0  0  0  0  0  0  0  0  0  0  0
   10.3206    1.4644  -59.1321 H   0  0  0  0  0  0  0  0  0  0  0  0
    9.2412    2.0515  -57.8044 H   0  0  0  0  0  0  0  0  0  0  0  0
    7.8605    4.1161  -58.1182 H   0  0  0  0  0  0  0  0  0  0  0  0
    7.9772    5.0437  -59.6638 H   0  0  0  0  0  0  0  0  0  0  0  0
    9.6950    0.9234  -54.2803 H   0  0  0  0  0  0  0  0  0  0  0  0
    9.7439    0.0087  -55.8255 H   0  0  0  0  0  0  0  0  0  0  0  0
    9.2974    1.7486  -55.8255 H   0  0  0  0  0  0  0  0  0  0  0  0
    6.2727   -0.8287  -51.7090 H   0  0  0  0  0  0  0  0  0  0  0  0
    7.2493   -2.2567  -49.9174 H   0  0  0  0  0  0  0  0  0  0  0  0
  1  2  1  0
  2  3  1  0
  3  4  2  0
  4  5  1  0
  5  6  1  0
  6  7  1  0
  7  8  1  0
  8  9  2  0
  9 10  1  0
 10 11  2  0
 10 12  1  0
 12 13  1  0
 13 14  1  0
 15 14  1  6
 15 16  1  0
 16 17  1  0
 17 18  1  0
 18 19  1  0
 19 20  1  0
 20 21  1  0
 21 22  1  0
 21 23  1  0
 19 24  1  0
  9 25  1  0
 25 26  1  0
  5 27  2  0
 27 28  1  0
 28  2  2  0
 25  6  2  0
 23 15  1  0
 24 15  1  0
 22 17  1  0
  1 29  1  0
  1 30  1  0
  1 31  1  0
  3 32  1  0
  4 33  1  0
  7 34  1  0
 12 35  1  0
 13 36  1  0
 13 37  1  0
 14 38  1  0
 14 39  1  0
 16 40  1  0
 16 41  1  0
 17 42  1  6
 18 43  1  0
 18 44  1  0
 19 45  1  1
 20 46  1  0
 20 47  1  0
 21 48  1  1
 22 49  1  0
 22 50  1  0
 23 51  1  0
 23 52  1  0
 24 53  1  0
 24 54  1  0
 26 55  1  0
 26 56  1  0
 26 57  1  0
 27 58  1  0
 28 59  1  0
M  END
>  <meeko>  (81) 
{"is_sidechain": false}

$$$$

     RDKit          3D

 56 59  0  0  0  0  0  0  0  0999 V2000
    5.2990   -4.2880  -50.4940 C   0  0  0  0  0  0  0  0  0  0  0  0
    6.6020   -4.4780  -51.0320 O   0  0  0  0  0  0  0  0  0  0  0  0
    7.6390   -4.1100  -50.1160 C   0  0  0  0  0  0  0  0  0  0  0  0
    7.9940   -2.6340  -50.2450 C   0  0  0  0  0  0  0  0  0  0  0  0
    8.4970   -2.3120  -51.5650 N   0  0  0  0  0  0  0  0  0  0  0  0
    9.6150   -2.8060  -52.1600 C   0  0  0  0  0  0  0  0  0  0  0  0
    9.6670   -2.2380  -53.4210 C   0  0  0  0  0  0  0  0  0  0  0  0
   10.6570   -2.4700  -54.4950 C   0  0  0  0  0  0  0  0  0  0  0  0
   11.4630   -3.5220  -54.1960 F   0  0  0  0  0  0  0  0  0  0  0  0
   10.0720   -2.7540  -55.6860 F   0  0  0  0  0  0  0  0  0  0  0  0
   11.4600   -1.3980  -54.6950 F   0  0  0  0  0  0  0  0  0  0  0  0
    8.5220   -1.3840  -53.4850 C   0  0  0  0  0  0  0  0  0  0  0  0
    8.0650   -0.5280  -54.6010 C   0  0  0  0  0  0  0  0  0  0  0  0
    6.9840   -0.6870  -55.1610 O   0  0  0  0  0  0  0  0  0  0  0  0
    8.9350    0.4890  -54.9560 N   0  0  0  0  0  0  0  0  0  0  0  0
    8.5850    1.4580  -55.9770 C   0  0  0  0  0  0  0  0  0  0  0  0
    9.8180    1.8980  -56.7710 C   0  0  0  0  0  0  0  0  0  0  0  0
    9.5620    2.9290  -57.8960 C   0  0  2  0  0  0  0  0  0  0  0  0
   10.5150    4.1470  -57.7920 C   0  0  0  0  0  0  0  0  0  0  0  0
   10.1990    5.1810  -58.8870 C   0  0  1  0  0  0  0  0  0  0  0  0
   10.3670    4.5240  -60.2670 C   0  0  0  0  0  0  0  0  0  0  0  0
    9.4080    3.3300  -60.4020 C   0  0  2  0  0  0  0  0  0  0  0  0
    7.9610    3.8230  -60.2380 C   0  0  0  0  0  0  0  0  0  0  0  0
    7.7840    4.4780  -58.8600 C   0  0  2  0  0  0  0  0  0  0  0  0
    8.7490    5.6650  -58.7300 C   0  0  0  0  0  0  0  0  0  0  0  0
    8.1020    3.4470  -57.7660 C   0  0  0  0  0  0  0  0  0  0  0  0
    9.7250    2.2990  -59.3030 C   0  0  0  0  0  0  0  0  0  0  0  0
    7.8230   -1.4500  -52.3360 N   0  0  0  0  0  0  0  0  0  0  0  0
    5.3513   -4.2956  -49.3953 H   0  0  0  0  0  0  0  0  0  0  0  0
    4.8986   -3.3220  -50.8353 H   0  0  0  0  0  0  0  0  0  0  0  0
    4.6395   -5.0995  -50.8353 H   0  0  0  0  0  0  0  0  0  0  0  0
    7.2970   -4.3078  -49.0894 H   0  0  0  0  0  0  0  0  0  0  0  0
    8.5349   -4.7041  -50.3492 H   0  0  0  0  0  0  0  0  0  0  0  0
    7.0929   -2.0334  -50.0517 H   0  0  0  0  0  0  0  0  0  0  0  0
    8.7852   -2.4089  -49.5147 H   0  0  0  0  0  0  0  0  0  0  0  0
   10.3347   -3.5156  -51.7258 H   0  0  0  0  0  0  0  0  0  0  0  0
    9.7120    0.7180  -54.3470 H   0  0  0  0  0  0  0  0  0  0  0  0
    7.8573    1.0052  -56.6666 H   0  0  0  0  0  0  0  0  0  0  0  0
    8.1551    2.3424  -55.4841 H   0  0  0  0  0  0  0  0  0  0  0  0
   10.5344    2.3412  -56.0637 H   0  0  0  0  0  0  0  0  0  0  0  0
   10.1880    0.9925  -57.2742 H   0  0  0  0  0  0  0  0  0  0  0  0
   10.3930    4.6175  -56.8052 H   0  0  0  0  0  0  0  0  0  0  0  0
   11.5499    3.7981  -57.9236 H   0  0  0  0  0  0  0  0  0  0  0  0
   10.8848    6.0362  -58.7957 H   0  0  0  0  0  0  0  0  0  0  0  0
   10.1425    5.2618  -61.0513 H   0  0  0  0  0  0  0  0  0  0  0  0
   11.4026    4.1688  -60.3738 H   0  0  0  0  0  0  0  0  0  0  0  0
    9.5295    2.8641  -61.3910 H   0  0  0  0  0  0  0  0  0  0  0  0
    7.7355    4.5594  -61.0234 H   0  0  0  0  0  0  0  0  0  0  0  0
    7.2754    2.9670  -60.3225 H   0  0  0  0  0  0  0  0  0  0  0  0
    6.7481    4.8313  -58.7505 H   0  0  0  0  0  0  0  0  0  0  0  0
    8.5247    6.4046  -59.5128 H   0  0  0  0  0  0  0  0  0  0  0  0
    8.6262    6.1241  -57.7379 H   0  0  0  0  0  0  0  0  0  0  0  0
    7.9737    3.9176  -56.7800 H   0  0  0  0  0  0  0  0  0  0  0  0
    7.4163    2.5942  -57.8782 H   0  0  0  0  0  0  0  0  0  0  0  0
    9.0367    1.4463  -59.3986 H   0  0  0  0  0  0  0  0  0  0  0  0
   10.7662    1.9647  -59.4219 H   0  0  0  0  0  0  0  0  0  0  0  0
  1  2  1  0
  2  3  1  0
  3  4  1  0
  4  5  1  0
  5  6  1  0
  6  7  2  0
  7  8  1  0
  8  9  1  0
  8 10  1  0
  8 11  1  0
  7 12  1  0
 12 13  1  0
 13 14  2  0
 13 15  1  0
 15 16  1  0
 16 17  1  0
 18 17  1  1
 18 19  1  0
 19 20  1  0
 20 21  1  0
 21 22  1  0
 22 23  1  0
 23 24  1  0
 24 25  1  0
 24 26  1  0
 22 27  1  0
 12 28  2  0
 28  5  1  0
 26 18  1  0
 27 18  1  0
 25 20  1  0
  1 29  1  0
  1 30  1  0
  1 31  1  0
  3 32  1  0
  3 33  1  0
  4 34  1  0
  4 35  1  0
  6 36  1  0
 15 37  1  0
 16 38  1  0
 16 39  1  0
 17 40  1  0
 17 41  1  0
 19 42  1  0
 19 43  1  0
 20 44  1  6
 21 45  1  0
 21 46  1  0
 22 47  1  6
 23 48  1  0
 23 49  1  0
 24 50  1  1
 25 51  1  0
 25 52  1  0
 26 53  1  0
 26 54  1  0
 27 55  1  0
 27 56  1  0
M  END
>  <meeko>  (82) 
{"is_sidechain": false}

$$$$

     RDKit          3D

 70 75  0  0  0  0  0  0  0  0999 V2000
    3.1180    1.8880  -60.7460 C   0  0  0  0  0  0  0  0  0  0  0  0
    4.2590    1.9330  -59.8180 C   0  0  0  0  0  0  0  0  0  0  0  0
    4.4630    2.7010  -58.7730 N   0  0  0  0  0  0  0  0  0  0  0  0
    5.6810    2.2560  -58.3160 C   0  0  0  0  0  0  0  0  0  0  0  0
    6.3810    2.8390  -57.1480 C   0  0  0  0  0  0  0  0  0  0  0  0
    7.5330    2.0400  -56.7370 N   0  0  0  0  0  0  0  0  0  0  0  0
    7.3740    1.1470  -55.7390 N   0  0  0  0  0  0  0  0  0  0  0  0
    8.5930    0.6130  -55.5490 C   0  0  0  0  0  0  0  0  0  0  0  0
    8.8030   -0.4410  -54.5350 C   0  0  0  0  0  0  0  0  0  0  0  0
    8.8720   -0.2190  -53.3280 O   0  0  0  0  0  0  0  0  0  0  0  0
    8.9570   -1.7150  -55.0640 N   0  0  0  0  0  0  0  0  0  0  0  0
    9.3590   -2.8140  -54.2110 C   0  0  0  0  0  0  0  0  0  0  0  0
   10.8730   -3.0210  -54.2710 C   0  0  0  0  0  0  0  0  0  0  0  0
   11.4010   -3.7890  -55.5080 C   0  0  2  0  0  0  0  0  0  0  0  0
   10.2710   -4.5640  -56.2310 C   0  0  0  0  0  0  0  0  0  0  0  0
   10.8330   -5.3640  -57.4200 C   0  0  1  0  0  0  0  0  0  0  0  0
   11.4980   -4.3960  -58.4120 C   0  0  0  0  0  0  0  0  0  0  0  0
   12.6430   -3.6370  -57.7200 C   0  0  2  0  0  0  0  0  0  0  0  0
   13.6840   -4.6460  -57.2100 C   0  0  0  0  0  0  0  0  0  0  0  0
   13.0290   -5.6160  -56.2160 C   0  0  2  0  0  0  0  0  0  0  0  0
   11.8820   -6.3660  -56.9110 C   0  0  0  0  0  0  0  0  0  0  0  0
   12.4630   -4.8180  -55.0300 C   0  0  0  0  0  0  0  0  0  0  0  0
   12.0760   -2.8410  -56.5310 C   0  0  0  0  0  0  0  0  0  0  0  0
    9.5560    1.2280  -56.4130 C   0  0  0  0  0  0  0  0  0  0  0  0
   11.0070    0.9200  -56.5190 C   0  0  0  0  0  0  0  0  0  0  0  0
    8.8430    2.1680  -57.1440 C   0  0  0  0  0  0  0  0  0  0  0  0
    9.3010    3.1130  -58.1600 C   0  0  0  0  0  0  0  0  0  0  0  0
    9.5080    2.6390  -59.4660 C   0  0  0  0  0  0  0  0  0  0  0  0
    9.9400    3.4990  -60.4740 C   0  0  0  0  0  0  0  0  0  0  0  0
   10.1600    4.8430  -60.1910 C   0  0  0  0  0  0  0  0  0  0  0  0
    9.9490    5.3270  -58.8990 C   0  0  0  0  0  0  0  0  0  0  0  0
    9.5270    4.4720  -57.8680 C   0  0  0  0  0  0  0  0  0  0  0  0
    9.2800    5.0550  -56.5020 C   0  0  0  0  0  0  0  0  0  0  0  0
    6.2320    1.2840  -59.0620 N   0  0  0  0  0  0  0  0  0  0  0  0
    5.2770    1.0560  -60.0530 O   0  0  0  0  0  0  0  0  0  0  0  0
    2.1801    1.8510  -60.1724 H   0  0  0  0  0  0  0  0  0  0  0  0
    3.1251    2.7871  -61.3797 H   0  0  0  0  0  0  0  0  0  0  0  0
    3.1958    0.9922  -61.3797 H   0  0  0  0  0  0  0  0  0  0  0  0
    6.7270    3.8495  -57.4110 H   0  0  0  0  0  0  0  0  0  0  0  0
    5.6713    2.8636  -56.3079 H   0  0  0  0  0  0  0  0  0  0  0  0
    9.2210   -1.7530  -56.0400 H   0  0  0  0  0  0  0  0  0  0  0  0
    9.0660   -2.5919  -53.1743 H   0  0  0  0  0  0  0  0  0  0  0  0
    8.8631   -3.7317  -54.5603 H   0  0  0  0  0  0  0  0  0  0  0  0
   11.3496   -2.0297  -54.2608 H   0  0  0  0  0  0  0  0  0  0  0  0
   11.1230   -3.6474  -53.4020 H   0  0  0  0  0  0  0  0  0  0  0  0
    9.7976   -5.2578  -55.5207 H   0  0  0  0  0  0  0  0  0  0  0  0
    9.5328   -3.8413  -56.6089 H   0  0  0  0  0  0  0  0  0  0  0  0
   10.0162   -5.9060  -57.9191 H   0  0  0  0  0  0  0  0  0  0  0  0
   11.9005   -4.9658  -59.2625 H   0  0  0  0  0  0  0  0  0  0  0  0
   10.7491   -3.6731  -58.7678 H   0  0  0  0  0  0  0  0  0  0  0  0
   13.1176   -2.9472  -58.4334 H   0  0  0  0  0  0  0  0  0  0  0  0
   14.0888   -5.2138  -58.0607 H   0  0  0  0  0  0  0  0  0  0  0  0
   14.4965   -4.1035  -56.7044 H   0  0  0  0  0  0  0  0  0  0  0  0
   13.7783   -6.3376  -55.8586 H   0  0  0  0  0  0  0  0  0  0  0  0
   12.2826   -6.9378  -57.7611 H   0  0  0  0  0  0  0  0  0  0  0  0
   11.4091   -7.0506  -56.1915 H   0  0  0  0  0  0  0  0  0  0  0  0
   11.9948   -5.5142  -54.3186 H   0  0  0  0  0  0  0  0  0  0  0  0
   13.2881   -4.2725  -54.5486 H   0  0  0  0  0  0  0  0  0  0  0  0
   12.8954   -2.2998  -56.0354 H   0  0  0  0  0  0  0  0  0  0  0  0
   11.3227   -2.1330  -56.9069 H   0  0  0  0  0  0  0  0  0  0  0  0
   11.4371    0.8287  -55.5107 H   0  0  0  0  0  0  0  0  0  0  0  0
   11.1421   -0.0268  -57.0624 H   0  0  0  0  0  0  0  0  0  0  0  0
   11.5151    1.7303  -57.0624 H   0  0  0  0  0  0  0  0  0  0  0  0
    9.3273    1.5785  -59.6954 H   0  0  0  0  0  0  0  0  0  0  0  0
   10.1067    3.1157  -61.4915 H   0  0  0  0  0  0  0  0  0  0  0  0
   10.5001    5.5240  -60.9850 H   0  0  0  0  0  0  0  0  0  0  0  0
   10.1156    6.3931  -58.6853 H   0  0  0  0  0  0  0  0  0  0  0  0
    9.5869    4.3306  -55.7332 H   0  0  0  0  0  0  0  0  0  0  0  0
    9.8633    5.9805  -56.3874 H   0  0  0  0  0  0  0  0  0  0  0  0
    8.2093    5.2798  -56.3874 H   0  0  0  0  0  0  0  0  0  0  0  0
  1  2  1  0
  2  3  2  0
  3  4  1  0
  4  5  1  0
  5  6  1  0
  6  7  1  0
  7  8  2  0
  8  9  1  0
  9 10  2  0
  9 11  1  0
 11 12  1  0
 12 13  1  0
 14 13  1  1
 14 15  1  0
 15 16  1  0
 16 17  1  0
 17 18  1  0
 18 19  1  0
 19 20  1  0
 20 21  1  0
 20 22  1  0
 18 23  1  0
  8 24  1  0
 24 25  1  0
 24 26  2  0
 26 27  1  0
 27 28  2  0
 28 29  1  0
 29 30  2  0
 30 31  1  0
 31 32  2  0
 32 33  1  0
  4 34  2  0
 34 35  1  0
 35  2  1  0
 26  6  1  0
 32 27  1  0
 22 14  1  0
 23 14  1  0
 21 16  1  0
  1 36  1  0
  1 37  1  0
  1 38  1  0
  5 39  1  0
  5 40  1  0
 11 41  1  0
 12 42  1  0
 12 43  1  0
 13 44  1  0
 13 45  1  0
 15 46  1  0
 15 47  1  0
 16 48  1  6
 17 49  1  0
 17 50  1  0
 18 51  1  6
 19 52  1  0
 19 53  1  0
 20 54  1  1
 21 55  1  0
 21 56  1  0
 22 57  1  0
 22 58  1  0
 23 59  1  0
 23 60  1  0
 25 61  1  0
 25 62  1  0
 25 63  1  0
 28 64  1  0
 29 65  1  0
 30 66  1  0
 31 67  1  0
 33 68  1  0
 33 69  1  0
 33 70  1  0
M  END
>  <meeko>  (83) 
{"is_sidechain": false}

$$$$

     RDKit          3D

 65 69  0  0  0  0  0  0  0  0999 V2000
    5.2490   -4.3040  -50.3780 C   0  0  0  0  0  0  0  0  0  0  0  0
    6.7490   -4.5540  -50.4060 C   0  0  0  0  0  0  0  0  0  0  0  0
    7.5320   -3.2970  -50.0190 C   0  0  0  0  0  0  0  0  0  0  0  0
    8.9020   -3.2170  -50.6930 C   0  0  0  0  0  0  0  0  0  0  0  0
    8.8900   -2.4840  -51.9450 N   0  0  0  0  0  0  0  0  0  0  0  0
    7.8440   -1.7810  -52.4640 C   0  0  0  0  0  0  0  0  0  0  0  0
    8.2850   -1.2680  -53.6640 C   0  0  0  0  0  0  0  0  0  0  0  0
    7.5490   -0.4160  -54.5940 C   0  0  0  0  0  0  0  0  0  0  0  0
    6.2250   -0.5360  -54.7300 N   0  0  0  0  0  0  0  0  0  0  0  0
    5.9110    0.3880  -55.6430 N   0  0  0  0  0  0  0  0  0  0  0  0
    6.9710    1.1380  -56.0780 C   0  0  0  0  0  0  0  0  0  0  0  0
    6.7520    2.2060  -57.0210 C   0  0  0  0  0  0  0  0  0  0  0  0
    6.6530    3.3740  -56.6610 O   0  0  0  0  0  0  0  0  0  0  0  0
    6.7220    1.8340  -58.3450 N   0  0  0  0  0  0  0  0  0  0  0  0
    6.6180    2.8130  -59.4110 C   0  0  0  0  0  0  0  0  0  0  0  0
    7.8640    2.7990  -60.3010 C   0  0  0  0  0  0  0  0  0  0  0  0
    9.1120    3.5110  -59.7240 C   0  0  2  0  0  0  0  0  0  0  0  0
   10.0580    4.0140  -60.8440 C   0  0  0  0  0  0  0  0  0  0  0  0
   11.3170    4.6640  -60.2420 C   0  0  1  0  0  0  0  0  0  0  0  0
   10.9000    5.8520  -59.3600 C   0  0  0  0  0  0  0  0  0  0  0  0
    9.9820    5.3690  -58.2240 C   0  0  2  0  0  0  0  0  0  0  0  0
   10.7350    4.3340  -57.3720 C   0  0  0  0  0  0  0  0  0  0  0  0
   11.1530    3.1410  -58.2450 C   0  0  2  0  0  0  0  0  0  0  0  0
   12.0630    3.6330  -59.3810 C   0  0  0  0  0  0  0  0  0  0  0  0
    9.8970    2.4940  -58.8490 C   0  0  0  0  0  0  0  0  0  0  0  0
    8.7270    4.7170  -58.8310 C   0  0  0  0  0  0  0  0  0  0  0  0
    8.0890    0.5830  -55.4590 C   0  0  0  0  0  0  0  0  0  0  0  0
    9.5190    0.9190  -55.6830 C   0  0  0  0  0  0  0  0  0  0  0  0
    9.6180   -1.7090  -53.7650 C   0  0  0  0  0  0  0  0  0  0  0  0
    9.9870   -2.4730  -52.7310 N   0  0  0  0  0  0  0  0  0  0  0  0
    4.9062   -4.2469  -49.3343 H   0  0  0  0  0  0  0  0  0  0  0  0
    5.0256   -3.3562  -50.8897 H   0  0  0  0  0  0  0  0  0  0  0  0
    4.7303   -5.1281  -50.8897 H   0  0  0  0  0  0  0  0  0  0  0  0
    6.9910   -5.3590  -49.6965 H   0  0  0  0  0  0  0  0  0  0  0  0
    7.0336   -4.8376  -51.4300 H   0  0  0  0  0  0  0  0  0  0  0  0
    6.9449   -2.4140  -50.3118 H   0  0  0  0  0  0  0  0  0  0  0  0
    7.7008   -3.3353  -48.9327 H   0  0  0  0  0  0  0  0  0  0  0  0
    9.6000   -2.7183  -50.0044 H   0  0  0  0  0  0  0  0  0  0  0  0
    9.2088   -4.2476  -50.9248 H   0  0  0  0  0  0  0  0  0  0  0  0
    6.8484   -1.6497  -52.0151 H   0  0  0  0  0  0  0  0  0  0  0  0
    4.9420    0.4870  -55.9320 H   0  0  0  0  0  0  0  0  0  0  0  0
    7.0320    0.9060  -58.5870 H   0  0  0  0  0  0  0  0  0  0  0  0
    5.7357    2.5814  -60.0257 H   0  0  0  0  0  0  0  0  0  0  0  0
    6.5251    3.8113  -58.9585 H   0  0  0  0  0  0  0  0  0  0  0  0
    8.1318    1.7490  -60.4903 H   0  0  0  0  0  0  0  0  0  0  0  0
    7.5910    3.3612  -61.2062 H   0  0  0  0  0  0  0  0  0  0  0  0
   10.3569    3.1628  -61.4734 H   0  0  0  0  0  0  0  0  0  0  0  0
    9.5255    4.7653  -61.4457 H   0  0  0  0  0  0  0  0  0  0  0  0
   11.9747    5.0131  -61.0517 H   0  0  0  0  0  0  0  0  0  0  0  0
   11.7982    6.3182  -58.9289 H   0  0  0  0  0  0  0  0  0  0  0  0
   10.3572    6.5847  -59.9752 H   0  0  0  0  0  0  0  0  0  0  0  0
    9.6870    6.2211  -57.5940 H   0  0  0  0  0  0  0  0  0  0  0  0
   11.6320    4.8012  -56.9394 H   0  0  0  0  0  0  0  0  0  0  0  0
   10.0748    3.9792  -56.5668 H   0  0  0  0  0  0  0  0  0  0  0  0
   11.6940    2.4058  -57.6311 H   0  0  0  0  0  0  0  0  0  0  0  0
   12.9621    4.0991  -58.9517 H   0  0  0  0  0  0  0  0  0  0  0  0
   12.3506    2.7775  -60.0098 H   0  0  0  0  0  0  0  0  0  0  0  0
   10.1973    1.6393  -59.4729 H   0  0  0  0  0  0  0  0  0  0  0  0
    9.2448    2.1616  -58.0279 H   0  0  0  0  0  0  0  0  0  0  0  0
    8.0720    4.3697  -58.0184 H   0  0  0  0  0  0  0  0  0  0  0  0
    8.2062    5.4625  -59.4499 H   0  0  0  0  0  0  0  0  0  0  0  0
   10.0241    1.0377  -54.7130 H   0  0  0  0  0  0  0  0  0  0  0  0
   10.0012    0.1097  -56.2509 H   0  0  0  0  0  0  0  0  0  0  0  0
    9.5903    1.8584  -56.2509 H   0  0  0  0  0  0  0  0  0  0  0  0
   10.2834   -1.4532  -54.6027 H   0  0  0  0  0  0  0  0  0  0  0  0
  1  2  1  0
  2  3  1  0
  3  4  1  0
  4  5  1  0
  5  6  1  0
  6  7  2  0
  7  8  1  0
  8  9  2  0
  9 10  1  0
 10 11  1  0
 11 12  1  0
 12 13  2  0
 12 14  1  0
 14 15  1  0
 15 16  1  0
 17 16  1  6
 17 18  1  0
 18 19  1  0
 19 20  1  0
 20 21  1  0
 21 22  1  0
 22 23  1  0
 23 24  1  0
 23 25  1  0
 21 26  1  0
 11 27  2  0
 27 28  1  0
  7 29  1  0
 29 30  2  0
 30  5  1  0
 27  8  1  0
 25 17  1  0
 26 17  1  0
 24 19  1  0
  1 31  1  0
  1 32  1  0
  1 33  1  0
  2 34  1  0
  2 35  1  0
  3 36  1  0
  3 37  1  0
  4 38  1  0
  4 39  1  0
  6 40  1  0
 10 41  1  0
 14 42  1  0
 15 43  1  0
 15 44  1  0
 16 45  1  0
 16 46  1  0
 18 47  1  0
 18 48  1  0
 19 49  1  6
 20 50  1  0
 20 51  1  0
 21 52  1  1
 22 53  1  0
 22 54  1  0
 23 55  1  1
 24 56  1  0
 24 57  1  0
 25 58  1  0
 25 59  1  0
 26 60  1  0
 26 61  1  0
 28 62  1  0
 28 63  1  0
 28 64  1  0
 29 65  1  0
M  END
>  <meeko>  (84) 
{"is_sidechain": false}

$$$$

     RDKit          3D

 65 69  0  0  0  0  0  0  0  0999 V2000
    5.2030   -4.3260  -50.3410 C   0  0  0  0  0  0  0  0  0  0  0  0
    6.7010   -4.5860  -50.4070 C   0  0  0  0  0  0  0  0  0  0  0  0
    7.5510   -3.3600  -50.0580 C   0  0  0  0  0  0  0  0  0  0  0  0
    8.9290   -3.3120  -50.7200 C   0  0  0  0  0  0  0  0  0  0  0  0
    8.9520   -2.5490  -51.9530 N   0  0  0  0  0  0  0  0  0  0  0  0
    7.9290   -1.8030  -52.4710 C   0  0  0  0  0  0  0  0  0  0  0  0
    8.4080   -1.2710  -53.6460 C   0  0  0  0  0  0  0  0  0  0  0  0
    7.6100   -0.3450  -54.5950 C   0  0  0  0  0  0  0  0  0  0  0  0
    6.2590   -0.4070  -54.7640 N   0  0  0  0  0  0  0  0  0  0  0  0
    5.7790    0.4620  -55.6590 N   0  0  0  0  0  0  0  0  0  0  0  0
    6.8620    1.1420  -56.0770 C   0  0  0  0  0  0  0  0  0  0  0  0
    6.7420    2.1970  -57.1010 C   0  0  0  0  0  0  0  0  0  0  0  0
    6.5980    3.3850  -56.8330 O   0  0  0  0  0  0  0  0  0  0  0  0
    6.7890    1.7210  -58.4000 N   0  0  0  0  0  0  0  0  0  0  0  0
    6.6610    2.6010  -59.5420 C   0  0  0  0  0  0  0  0  0  0  0  0
    7.9440    2.6050  -60.3780 C   0  0  0  0  0  0  0  0  0  0  0  0
    9.1320    3.4000  -59.7860 C   0  0  2  0  0  0  0  0  0  0  0  0
    9.9560    2.4460  -58.8760 C   0  0  0  0  0  0  0  0  0  0  0  0
   11.1560    3.1770  -58.2530 C   0  0  1  0  0  0  0  0  0  0  0  0
   12.0610    3.7060  -59.3750 C   0  0  0  0  0  0  0  0  0  0  0  0
   11.2760    4.6780  -60.2690 C   0  0  2  0  0  0  0  0  0  0  0  0
   10.7650    5.8510  -59.4170 C   0  0  0  0  0  0  0  0  0  0  0  0
    9.8520    5.3300  -58.2950 C   0  0  2  0  0  0  0  0  0  0  0  0
   10.6440    4.3560  -57.4090 C   0  0  0  0  0  0  0  0  0  0  0  0
    8.6530    4.5930  -58.9210 C   0  0  0  0  0  0  0  0  0  0  0  0
   10.0740    3.9430  -60.8900 C   0  0  0  0  0  0  0  0  0  0  0  0
    8.0510    0.6790  -55.4110 C   0  0  0  0  0  0  0  0  0  0  0  0
    9.4270    1.2180  -55.5580 C   0  0  0  0  0  0  0  0  0  0  0  0
    9.7190   -1.7690  -53.7540 C   0  0  0  0  0  0  0  0  0  0  0  0
   10.0530   -2.5560  -52.7270 N   0  0  0  0  0  0  0  0  0  0  0  0
    4.8864   -4.2710  -49.2890 H   0  0  0  0  0  0  0  0  0  0  0  0
    4.9735   -3.3746  -50.8432 H   0  0  0  0  0  0  0  0  0  0  0  0
    4.6663   -5.1444  -50.8432 H   0  0  0  0  0  0  0  0  0  0  0  0
    6.9458   -5.3920  -49.6996 H   0  0  0  0  0  0  0  0  0  0  0  0
    6.9364   -4.8570  -51.4468 H   0  0  0  0  0  0  0  0  0  0  0  0
    6.9948   -2.4620  -50.3648 H   0  0  0  0  0  0  0  0  0  0  0  0
    7.7349   -3.4148  -48.9749 H   0  0  0  0  0  0  0  0  0  0  0  0
    9.6385   -2.8550  -50.0145 H   0  0  0  0  0  0  0  0  0  0  0  0
    9.2019   -4.3467  -50.9746 H   0  0  0  0  0  0  0  0  0  0  0  0
    6.9286   -1.6582  -52.0371 H   0  0  0  0  0  0  0  0  0  0  0  0
    5.6050   -1.0300  -54.3060 H   0  0  0  0  0  0  0  0  0  0  0  0
    6.7860    0.7200  -58.5460 H   0  0  0  0  0  0  0  0  0  0  0  0
    5.8244    2.2580  -60.1685 H   0  0  0  0  0  0  0  0  0  0  0  0
    6.4764    3.6226  -59.1784 H   0  0  0  0  0  0  0  0  0  0  0  0
    8.2668    1.5612  -60.5055 H   0  0  0  0  0  0  0  0  0  0  0  0
    7.6852    3.1120  -61.3193 H   0  0  0  0  0  0  0  0  0  0  0  0
    9.3081    2.0680  -58.0714 H   0  0  0  0  0  0  0  0  0  0  0  0
   10.3330    1.6152  -59.4905 H   0  0  0  0  0  0  0  0  0  0  0  0
   11.7260    2.4859  -57.6146 H   0  0  0  0  0  0  0  0  0  0  0  0
   12.9204    4.2311  -58.9327 H   0  0  0  0  0  0  0  0  0  0  0  0
   12.4135    2.8602  -59.9836 H   0  0  0  0  0  0  0  0  0  0  0  0
   11.9318    5.0559  -61.0672 H   0  0  0  0  0  0  0  0  0  0  0  0
   11.6220    6.3789  -58.9732 H   0  0  0  0  0  0  0  0  0  0  0  0
   10.1927    6.5387  -60.0570 H   0  0  0  0  0  0  0  0  0  0  0  0
    9.4918    6.1721  -57.6858 H   0  0  0  0  0  0  0  0  0  0  0  0
   11.4998    4.8833  -56.9623 H   0  0  0  0  0  0  0  0  0  0  0  0
    9.9863    3.9734  -56.6146 H   0  0  0  0  0  0  0  0  0  0  0  0
    8.0011    4.2178  -58.1184 H   0  0  0  0  0  0  0  0  0  0  0  0
    8.1028    5.2962  -59.5634 H   0  0  0  0  0  0  0  0  0  0  0  0
    9.5150    4.6418  -61.5297 H   0  0  0  0  0  0  0  0  0  0  0  0
   10.4469    3.0956  -61.4840 H   0  0  0  0  0  0  0  0  0  0  0  0
    9.8623    1.3885  -54.5623 H   0  0  0  0  0  0  0  0  0  0  0  0
   10.0465    0.4961  -56.1103 H   0  0  0  0  0  0  0  0  0  0  0  0
    9.3914    2.1686  -56.1103 H   0  0  0  0  0  0  0  0  0  0  0  0
   10.3942   -1.5365  -54.5907 H   0  0  0  0  0  0  0  0  0  0  0  0
  1  2  1  0
  2  3  1  0
  3  4  1  0
  4  5  1  0
  5  6  1  0
  6  7  2  0
  7  8  1  0
  8  9  1  0
  9 10  1  0
 10 11  2  0
 11 12  1  0
 12 13  2  0
 12 14  1  0
 14 15  1  0
 15 16  1  0
 17 16  1  6
 17 18  1  0
 18 19  1  0
 19 20  1  0
 20 21  1  0
 21 22  1  0
 22 23  1  0
 23 24  1  0
 23 25  1  0
 21 26  1  0
 11 27  1  0
 27 28  1  0
  7 29  1  0
 29 30  2  0
 30  5  1  0
 27  8  2  0
 25 17  1  0
 26 17  1  0
 24 19  1  0
  1 31  1  0
  1 32  1  0
  1 33  1  0
  2 34  1  0
  2 35  1  0
  3 36  1  0
  3 37  1  0
  4 38  1  0
  4 39  1  0
  6 40  1  0
  9 41  1  0
 14 42  1  0
 15 43  1  0
 15 44  1  0
 16 45  1  0
 16 46  1  0
 18 47  1  0
 18 48  1  0
 19 49  1  1
 20 50  1  0
 20 51  1  0
 21 52  1  6
 22 53  1  0
 22 54  1  0
 23 55  1  1
 24 56  1  0
 24 57  1  0
 25 58  1  0
 25 59  1  0
 26 60  1  0
 26 61  1  0
 28 62  1  0
 28 63  1  0
 28 64  1  0
 29 65  1  0
M  END
>  <meeko>  (85) 
{"is_sidechain": false}

$$$$

     RDKit          3D

 69 74  0  0  0  0  0  0  0  0999 V2000
    5.9000   -0.0540  -55.6170 C   0  0  0  0  0  0  0  0  0  0  0  0
    7.0540    0.6680  -56.2200 C   0  0  0  0  0  0  0  0  0  0  0  0
    8.3730    0.7790  -55.6840 C   0  0  0  0  0  0  0  0  0  0  0  0
    8.9350    0.1360  -54.4800 C   0  0  0  0  0  0  0  0  0  0  0  0
    8.5690    0.4030  -53.3390 O   0  0  0  0  0  0  0  0  0  0  0  0
    9.9410   -0.7790  -54.7460 N   0  0  0  0  0  0  0  0  0  0  0  0
   10.6930   -1.4060  -53.6790 C   0  0  0  0  0  0  0  0  0  0  0  0
   10.6380   -2.9310  -53.7770 C   0  0  0  0  0  0  0  0  0  0  0  0
    9.6360   -3.5940  -52.7960 C   0  0  1  0  0  0  0  0  0  0  0  0
    9.6810   -2.9350  -51.4050 C   0  0  0  0  0  0  0  0  0  0  0  0
    8.8190   -3.5750  -50.2870 C   0  0  1  0  0  0  0  0  0  0  0  0
    7.7650   -2.5910  -49.7240 C   0  0  0  0  0  0  0  0  0  0  0  0
    6.4340   -2.5910  -50.4990 C   0  0  2  0  0  0  0  0  0  0  0  0
    5.8640   -4.0070  -50.5480 C   0  0  0  0  0  0  0  0  0  0  0  0
    6.8750   -4.6860  -51.4800 C   0  0  2  0  0  0  0  0  0  0  0  0
    8.1620   -4.9050  -50.6810 C   0  0  0  0  0  0  0  0  0  0  0  0
    6.9830   -3.6520  -52.6230 C   0  0  1  0  0  0  0  0  0  0  0  0
    6.6440   -2.2860  -51.9830 C   0  0  0  0  0  0  0  0  0  0  0  0
    8.2450   -3.6200  -53.4700 C   0  0  0  0  0  0  0  0  0  0  0  0
    9.1100    1.6300  -56.4090 N   0  0  0  0  0  0  0  0  0  0  0  0
    8.3590    1.9340  -57.4920 N   0  0  0  0  0  0  0  0  0  0  0  0
    8.9360    2.7400  -58.5100 C   0  0  0  0  0  0  0  0  0  0  0  0
    9.0850    2.1530  -59.7810 C   0  0  0  0  0  0  0  0  0  0  0  0
    9.7080    2.8520  -60.8160 C   0  0  0  0  0  0  0  0  0  0  0  0
   10.1670    4.1470  -60.5980 C   0  0  0  0  0  0  0  0  0  0  0  0
    9.9720    4.7560  -59.3580 C   0  0  0  0  0  0  0  0  0  0  0  0
    9.3410    4.0660  -58.3130 C   0  0  0  0  0  0  0  0  0  0  0  0
    8.8830    5.1110  -56.7910 Br  0  0  0  0  0  0  0  0  0  0  0  0
    7.0530    1.4650  -57.3620 C   0  0  0  0  0  0  0  0  0  0  0  0
    5.9110    1.8780  -58.1870 C   0  0  0  0  0  0  0  0  0  0  0  0
    4.8720    2.6440  -57.6410 C   0  0  0  0  0  0  0  0  0  0  0  0
    3.7790    3.0230  -58.4240 C   0  0  0  0  0  0  0  0  0  0  0  0
    3.7080    2.6310  -59.7590 C   0  0  0  0  0  0  0  0  0  0  0  0
    4.7260    1.8560  -60.3110 C   0  0  0  0  0  0  0  0  0  0  0  0
    5.8180    1.4780  -59.5270 C   0  0  0  0  0  0  0  0  0  0  0  0
    5.9719   -0.0090  -54.5203 H   0  0  0  0  0  0  0  0  0  0  0  0
    4.9614    0.4182  -55.9426 H   0  0  0  0  0  0  0  0  0  0  0  0
    5.9141   -1.1046  -55.9426 H   0  0  0  0  0  0  0  0  0  0  0  0
   10.3340   -0.7850  -55.6770 H   0  0  0  0  0  0  0  0  0  0  0  0
   11.7421   -1.0812  -53.7422 H   0  0  0  0  0  0  0  0  0  0  0  0
   10.2475   -1.1052  -52.7193 H   0  0  0  0  0  0  0  0  0  0  0  0
   10.3466   -3.2007  -54.8028 H   0  0  0  0  0  0  0  0  0  0  0  0
   11.6378   -3.3020  -53.5073 H   0  0  0  0  0  0  0  0  0  0  0  0
    9.9156   -4.6378  -52.5905 H   0  0  0  0  0  0  0  0  0  0  0  0
   10.7272   -2.9508  -51.0655 H   0  0  0  0  0  0  0  0  0  0  0  0
    9.2524   -1.9328  -51.5533 H   0  0  0  0  0  0  0  0  0  0  0  0
    9.5376   -3.8116  -49.4885 H   0  0  0  0  0  0  0  0  0  0  0  0
    7.5575   -2.8662  -48.6794 H   0  0  0  0  0  0  0  0  0  0  0  0
    8.1893   -1.5805  -49.8184 H   0  0  0  0  0  0  0  0  0  0  0  0
    5.7961   -1.8520  -49.9921 H   0  0  0  0  0  0  0  0  0  0  0  0
    5.8526   -4.4744  -49.5523 H   0  0  0  0  0  0  0  0  0  0  0  0
    4.8187   -4.0679  -50.8850 H   0  0  0  0  0  0  0  0  0  0  0  0
    6.6175   -5.6781  -51.8793 H   0  0  0  0  0  0  0  0  0  0  0  0
    7.9227   -5.4688  -49.7673 H   0  0  0  0  0  0  0  0  0  0  0  0
    8.8682   -5.4619  -51.3144 H   0  0  0  0  0  0  0  0  0  0  0  0
    6.2737   -3.9605  -53.4051 H   0  0  0  0  0  0  0  0  0  0  0  0
    7.4744   -1.5775  -52.1192 H   0  0  0  0  0  0  0  0  0  0  0  0
    5.7582   -1.8215  -52.4408 H   0  0  0  0  0  0  0  0  0  0  0  0
    8.2199   -4.5152  -54.1087 H   0  0  0  0  0  0  0  0  0  0  0  0
    8.1889   -2.6391  -53.9646 H   0  0  0  0  0  0  0  0  0  0  0  0
    8.7074    1.1354  -59.9597 H   0  0  0  0  0  0  0  0  0  0  0  0
    9.8357    2.3802  -61.8014 H   0  0  0  0  0  0  0  0  0  0  0  0
   10.6834    4.6906  -61.4029 H   0  0  0  0  0  0  0  0  0  0  0  0
   10.3169    5.7883  -59.1984 H   0  0  0  0  0  0  0  0  0  0  0  0
    4.9177    2.9498  -56.5853 H   0  0  0  0  0  0  0  0  0  0  0  0
    2.9739    3.6313  -57.9862 H   0  0  0  0  0  0  0  0  0  0  0  0
    2.8493    2.9329  -60.3766 H   0  0  0  0  0  0  0  0  0  0  0  0
    4.6695    1.5421  -61.3638 H   0  0  0  0  0  0  0  0  0  0  0  0
    6.6144    0.8592  -59.9662 H   0  0  0  0  0  0  0  0  0  0  0  0
  1  2  1  0
  2  3  1  0
  3  4  1  0
  4  5  2  0
  4  6  1  0
  6  7  1  0
  7  8  1  0
  8  9  1  0
  9 10  1  0
 10 11  1  0
 11 12  1  0
 12 13  1  0
 13 14  1  0
 14 15  1  0
 15 16  1  0
 15 17  1  0
 17 18  1  0
 17 19  1  0
  3 20  2  0
 20 21  1  0
 21 22  1  0
 22 23  2  0
 23 24  1  0
 24 25  2  0
 25 26  1  0
 26 27  2  0
 27 28  1  0
 21 29  1  0
 29 30  1  0
 30 31  2  0
 31 32  1  0
 32 33  2  0
 33 34  1  0
 34 35  2  0
 29  2  2  0
 35 30  1  0
 19  9  1  0
 27 22  1  0
 16 11  1  0
 18 13  1  0
  1 36  1  0
  1 37  1  0
  1 38  1  0
  6 39  1  0
  7 40  1  0
  7 41  1  0
  8 42  1  0
  8 43  1  0
  9 44  1  1
 10 45  1  0
 10 46  1  0
 11 47  1  1
 12 48  1  0
 12 49  1  0
 13 50  1  1
 14 51  1  0
 14 52  1  0
 15 53  1  6
 16 54  1  0
 16 55  1  0
 17 56  1  6
 18 57  1  0
 18 58  1  0
 19 59  1  0
 19 60  1  0
 23 61  1  0
 24 62  1  0
 25 63  1  0
 26 64  1  0
 31 65  1  0
 32 66  1  0
 33 67  1  0
 34 68  1  0
 35 69  1  0
M  END
>  <meeko>  (86) 
{"is_sidechain": false}

$$$$

     RDKit          3D

 58 62  0  0  0  0  0  0  0  0999 V2000
    9.8980    2.7430  -56.0170 C   0  0  0  0  0  0  0  0  0  0  0  0
    8.9820    2.5420  -57.1740 C   0  0  0  0  0  0  0  0  0  0  0  0
    9.3960    2.8800  -58.4390 N   0  0  0  0  0  0  0  0  0  0  0  0
    8.3950    2.6690  -59.3550 C   0  0  0  0  0  0  0  0  0  0  0  0
    8.3680    2.8920  -60.7370 C   0  0  0  0  0  0  0  0  0  0  0  0
    9.7360    3.5290  -61.5590 Cl  0  0  0  0  0  0  0  0  0  0  0  0
    7.2030    2.5860  -61.4380 C   0  0  0  0  0  0  0  0  0  0  0  0
    6.1020    2.0710  -60.7640 C   0  0  0  0  0  0  0  0  0  0  0  0
    4.6700    1.6970  -61.6450 Cl  0  0  0  0  0  0  0  0  0  0  0  0
    6.1330    1.8490  -59.3820 C   0  0  0  0  0  0  0  0  0  0  0  0
    7.3050    2.1560  -58.6550 C   0  0  0  0  0  0  0  0  0  0  0  0
    7.6830    2.0500  -57.2690 C   0  0  0  0  0  0  0  0  0  0  0  0
    6.8250    1.5530  -56.1900 C   0  0  0  0  0  0  0  0  0  0  0  0
    5.8190    2.1620  -55.8210 O   0  0  0  0  0  0  0  0  0  0  0  0
    7.1260    0.2560  -55.4260 C   0  0  0  0  0  0  0  0  0  0  0  0
    6.2310   -0.4490  -54.9860 O   0  0  0  0  0  0  0  0  0  0  0  0
    8.4800    0.0160  -55.2700 N   0  0  0  0  0  0  0  0  0  0  0  0
    8.9520   -1.0230  -54.3810 C   0  0  0  0  0  0  0  0  0  0  0  0
   10.2440   -1.6470  -54.9010 C   0  0  0  0  0  0  0  0  0  0  0  0
   10.2460   -3.1790  -54.8140 C   0  0  0  0  0  0  0  0  0  0  0  0
   11.1130   -3.9410  -55.8510 C   0  0  2  0  0  0  0  0  0  0  0  0
   12.2400   -4.7730  -55.1930 C   0  0  0  0  0  0  0  0  0  0  0  0
   13.1050   -5.4660  -56.2630 C   0  0  1  0  0  0  0  0  0  0  0  0
   12.2170   -6.3980  -57.1030 C   0  0  0  0  0  0  0  0  0  0  0  0
   11.1080   -5.5870  -57.7930 C   0  0  2  0  0  0  0  0  0  0  0  0
   11.7470   -4.5250  -58.7010 C   0  0  0  0  0  0  0  0  0  0  0  0
   12.6330   -3.5880  -57.8680 C   0  0  2  0  0  0  0  0  0  0  0  0
   13.7340   -4.4050  -57.1770 C   0  0  0  0  0  0  0  0  0  0  0  0
   11.7710   -2.8970  -56.7970 C   0  0  0  0  0  0  0  0  0  0  0  0
   10.2480   -4.8910  -56.7220 C   0  0  0  0  0  0  0  0  0  0  0  0
    9.3366    2.6198  -55.0791 H   0  0  0  0  0  0  0  0  0  0  0  0
   10.7095    2.0016  -56.0587 H   0  0  0  0  0  0  0  0  0  0  0  0
   10.3245    3.7561  -56.0587 H   0  0  0  0  0  0  0  0  0  0  0  0
   10.3060    3.2530  -58.6770 H   0  0  0  0  0  0  0  0  0  0  0  0
    7.1549    2.7520  -62.5243 H   0  0  0  0  0  0  0  0  0  0  0  0
    5.2521    1.4389  -58.8664 H   0  0  0  0  0  0  0  0  0  0  0  0
    9.0750    0.8240  -55.4430 H   0  0  0  0  0  0  0  0  0  0  0  0
    9.1374   -0.5887  -53.3875 H   0  0  0  0  0  0  0  0  0  0  0  0
    8.1838   -1.8082  -54.3229 H   0  0  0  0  0  0  0  0  0  0  0  0
   10.3756   -1.3553  -55.9534 H   0  0  0  0  0  0  0  0  0  0  0  0
   11.0653   -1.2799  -54.2680 H   0  0  0  0  0  0  0  0  0  0  0  0
   10.6078   -3.4543  -53.8123 H   0  0  0  0  0  0  0  0  0  0  0  0
    9.2103   -3.4794  -55.0309 H   0  0  0  0  0  0  0  0  0  0  0  0
   12.8758   -4.1067  -54.5914 H   0  0  0  0  0  0  0  0  0  0  0  0
   11.7826   -5.5443  -54.5559 H   0  0  0  0  0  0  0  0  0  0  0  0
   13.9003   -6.0489  -55.7753 H   0  0  0  0  0  0  0  0  0  0  0  0
   12.8322   -6.8968  -57.8664 H   0  0  0  0  0  0  0  0  0  0  0  0
   11.7578   -7.1497  -56.4441 H   0  0  0  0  0  0  0  0  0  0  0  0
   10.4777   -6.2575  -58.3956 H   0  0  0  0  0  0  0  0  0  0  0  0
   12.3608   -5.0218  -59.4668 H   0  0  0  0  0  0  0  0  0  0  0  0
   10.9527   -3.9370  -59.1840 H   0  0  0  0  0  0  0  0  0  0  0  0
   13.0903   -2.8334  -58.5248 H   0  0  0  0  0  0  0  0  0  0  0  0
   14.3523   -4.9013  -57.9395 H   0  0  0  0  0  0  0  0  0  0  0  0
   14.3579   -3.7309  -56.5717 H   0  0  0  0  0  0  0  0  0  0  0  0
   12.4068   -2.2240  -56.2030 H   0  0  0  0  0  0  0  0  0  0  0  0
   10.9743   -2.3302  -57.3010 H   0  0  0  0  0  0  0  0  0  0  0  0
    9.4584   -4.3069  -57.2174 H   0  0  0  0  0  0  0  0  0  0  0  0
    9.8053   -5.6597  -56.0716 H   0  0  0  0  0  0  0  0  0  0  0  0
  1  2  1  0
  2  3  1  0
  3  4  1  0
  4  5  2  0
  5  6  1  0
  5  7  1  0
  7  8  2  0
  8  9  1  0
  8 10  1  0
 10 11  2  0
 11 12  1  0
 12 13  1  0
 13 14  2  0
 13 15  1  0
 15 16  2  0
 15 17  1  0
 17 18  1  0
 18 19  1  0
 19 20  1  0
 21 20  1  1
 21 22  1  0
 22 23  1  0
 23 24  1  0
 24 25  1  0
 25 26  1  0
 26 27  1  0
 27 28  1  0
 27 29  1  0
 25 30  1  0
 12  2  2  0
 29 21  1  0
 11  4  1  0
 30 21  1  0
 28 23  1  0
  1 31  1  0
  1 32  1  0
  1 33  1  0
  3 34  1  0
  7 35  1  0
 10 36  1  0
 17 37  1  0
 18 38  1  0
 18 39  1  0
 19 40  1  0
 19 41  1  0
 20 42  1  0
 20 43  1  0
 22 44  1  0
 22 45  1  0
 23 46  1  1
 24 47  1  0
 24 48  1  0
 25 49  1  6
 26 50  1  0
 26 51  1  0
 27 52  1  6
 28 53  1  0
 28 54  1  0
 29 55  1  0
 29 56  1  0
 30 57  1  0
 30 58  1  0
M  END
>  <meeko>  (87) 
{"is_sidechain": false}

$$$$

     RDKit          3D

 58 62  0  0  0  0  0  0  0  0999 V2000
    5.0650    1.8330  -56.9690 C   0  0  0  0  0  0  0  0  0  0  0  0
    6.3700    1.8030  -57.2630 C   0  0  0  0  0  0  0  0  0  0  0  0
    6.9260    2.3860  -58.3850 N   0  0  0  0  0  0  0  0  0  0  0  0
    8.2950    2.6300  -58.1410 C   0  0  0  0  0  0  0  0  0  0  0  0
    9.1880    3.2900  -58.9760 C   0  0  0  0  0  0  0  0  0  0  0  0
    8.6580    4.0440  -60.4290 Cl  0  0  0  0  0  0  0  0  0  0  0  0
   10.5330    3.3360  -58.6210 C   0  0  0  0  0  0  0  0  0  0  0  0
   10.9630    2.6970  -57.4520 C   0  0  0  0  0  0  0  0  0  0  0  0
   12.6380    2.7350  -57.0450 Cl  0  0  0  0  0  0  0  0  0  0  0  0
   10.0700    2.0140  -56.6170 C   0  0  0  0  0  0  0  0  0  0  0  0
    8.7250    1.9920  -56.9520 C   0  0  0  0  0  0  0  0  0  0  0  0
    7.4910    1.3600  -56.3850 C   0  0  0  0  0  0  0  0  0  0  0  0
    7.3980    0.4670  -55.3730 C   0  0  0  0  0  0  0  0  0  0  0  0
    6.2800   -0.3490  -55.1890 O   0  0  0  0  0  0  0  0  0  0  0  0
    8.5100    0.2290  -54.3910 C   0  0  0  0  0  0  0  0  0  0  0  0
    8.7540    0.9780  -53.4560 O   0  0  0  0  0  0  0  0  0  0  0  0
    9.1700   -0.9520  -54.6340 N   0  0  0  0  0  0  0  0  0  0  0  0
   10.2480   -1.4260  -53.7980 C   0  0  0  0  0  0  0  0  0  0  0  0
   10.3230   -2.9480  -53.7180 C   0  0  0  0  0  0  0  0  0  0  0  0
    9.8950   -3.7400  -54.9650 C   0  0  0  0  0  0  0  0  0  0  0  0
   10.9730   -4.2000  -55.9820 C   0  0  2  0  0  0  0  0  0  0  0  0
   11.5030   -3.0360  -56.8560 C   0  0  0  0  0  0  0  0  0  0  0  0
   12.5120   -3.5490  -57.8990 C   0  0  1  0  0  0  0  0  0  0  0  0
   13.6910   -4.2200  -57.1760 C   0  0  0  0  0  0  0  0  0  0  0  0
   13.1900   -5.4040  -56.3350 C   0  0  2  0  0  0  0  0  0  0  0  0
   12.5040   -6.4250  -57.2540 C   0  0  0  0  0  0  0  0  0  0  0  0
   11.3200   -5.7650  -57.9750 C   0  0  2  0  0  0  0  0  0  0  0  0
   11.8270   -4.5790  -58.8110 C   0  0  0  0  0  0  0  0  0  0  0  0
   10.3170   -5.2510  -56.9290 C   0  0  0  0  0  0  0  0  0  0  0  0
   12.1770   -4.8930  -55.2940 C   0  0  0  0  0  0  0  0  0  0  0  0
    4.6958    1.3449  -56.0550 H   0  0  0  0  0  0  0  0  0  0  0  0
    4.3614    2.3458  -57.6413 H   0  0  0  0  0  0  0  0  0  0  0  0
    6.4030    3.0950  -58.8850 H   0  0  0  0  0  0  0  0  0  0  0  0
   11.2543    3.8716  -59.2556 H   0  0  0  0  0  0  0  0  0  0  0  0
   10.4295    1.5039  -55.7112 H   0  0  0  0  0  0  0  0  0  0  0  0
    6.0660   -0.7490  -56.0490 H   0  0  0  0  0  0  0  0  0  0  0  0
    8.7770   -1.5630  -55.3400 H   0  0  0  0  0  0  0  0  0  0  0  0
   11.1979   -1.0503  -54.2061 H   0  0  0  0  0  0  0  0  0  0  0  0
   10.0594   -1.0544  -52.7800 H   0  0  0  0  0  0  0  0  0  0  0  0
   11.3667   -3.2166  -53.4976 H   0  0  0  0  0  0  0  0  0  0  0  0
    9.5953   -3.2270  -52.9417 H   0  0  0  0  0  0  0  0  0  0  0  0
    9.3829   -4.6461  -54.6090 H   0  0  0  0  0  0  0  0  0  0  0  0
    9.2907   -3.0193  -55.5355 H   0  0  0  0  0  0  0  0  0  0  0  0
   10.6574   -2.5616  -57.3756 H   0  0  0  0  0  0  0  0  0  0  0  0
   12.0096   -2.3090  -56.2042 H   0  0  0  0  0  0  0  0  0  0  0  0
   12.8766   -2.7056  -58.5037 H   0  0  0  0  0  0  0  0  0  0  0  0
   14.4151   -4.5830  -57.9202 H   0  0  0  0  0  0  0  0  0  0  0  0
   14.1718   -3.4856  -56.5131 H   0  0  0  0  0  0  0  0  0  0  0  0
   14.0386   -5.8810  -55.8228 H   0  0  0  0  0  0  0  0  0  0  0  0
   13.2272   -6.7897  -57.9983 H   0  0  0  0  0  0  0  0  0  0  0  0
   12.1365   -7.2673  -56.6495 H   0  0  0  0  0  0  0  0  0  0  0  0
   10.8326   -6.4993  -58.6332 H   0  0  0  0  0  0  0  0  0  0  0  0
   12.5487   -4.9416  -59.5577 H   0  0  0  0  0  0  0  0  0  0  0  0
   10.9744   -4.1030  -59.3174 H   0  0  0  0  0  0  0  0  0  0  0  0
    9.4664   -4.7843  -57.4474 H   0  0  0  0  0  0  0  0  0  0  0  0
    9.9822   -6.1044  -56.3210 H   0  0  0  0  0  0  0  0  0  0  0  0
   11.8110   -5.7439  -54.7007 H   0  0  0  0  0  0  0  0  0  0  0  0
   12.6801   -4.1593  -54.6471 H   0  0  0  0  0  0  0  0  0  0  0  0
  1  2  2  0
  2  3  1  0
  3  4  1  0
  4  5  2  0
  5  6  1  0
  5  7  1  0
  7  8  2  0
  8  9  1  0
  8 10  1  0
 10 11  2  0
 11 12  1  0
 12 13  2  0
 13 14  1  0
 13 15  1  0
 15 16  2  0
 15 17  1  0
 17 18  1  0
 18 19  1  0
 19 20  1  0
 21 20  1  1
 21 22  1  0
 22 23  1  0
 23 24  1  0
 24 25  1  0
 25 26  1  0
 26 27  1  0
 27 28  1  0
 27 29  1  0
 25 30  1  0
 12  2  1  0
 29 21  1  0
 11  4  1  0
 30 21  1  0
 28 23  1  0
  1 31  1  0
  1 32  1  0
  3 33  1  0
  7 34  1  0
 10 35  1  0
 14 36  1  0
 17 37  1  0
 18 38  1  0
 18 39  1  0
 19 40  1  0
 19 41  1  0
 20 42  1  0
 20 43  1  0
 22 44  1  0
 22 45  1  0
 23 46  1  6
 24 47  1  0
 24 48  1  0
 25 49  1  1
 26 50  1  0
 26 51  1  0
 27 52  1  6
 28 53  1  0
 28 54  1  0
 29 55  1  0
 29 56  1  0
 30 57  1  0
 30 58  1  0
M  END
>  <meeko>  (88) 
{"is_sidechain": false}

$$$$

     RDKit          3D

 58 62  0  0  0  0  0  0  0  0999 V2000
    6.4840    1.5280  -56.2570 C   0  0  0  0  0  0  0  0  0  0  0  0
    7.5690    2.2150  -56.6270 C   0  0  0  0  0  0  0  0  0  0  0  0
    7.5140    3.4330  -57.2860 N   0  0  0  0  0  0  0  0  0  0  0  0
    8.7490    3.6860  -57.9070 C   0  0  0  0  0  0  0  0  0  0  0  0
    9.0860    4.7430  -58.7400 C   0  0  0  0  0  0  0  0  0  0  0  0
    7.9140    5.9080  -59.2210 Cl  0  0  0  0  0  0  0  0  0  0  0  0
   10.3970    4.8460  -59.2020 C   0  0  0  0  0  0  0  0  0  0  0  0
   11.3530    3.8980  -58.8070 C   0  0  0  0  0  0  0  0  0  0  0  0
   12.9680    4.0410  -59.3890 Cl  0  0  0  0  0  0  0  0  0  0  0  0
   11.0250    2.8430  -57.9510 C   0  0  0  0  0  0  0  0  0  0  0  0
    9.7200    2.7470  -57.4950 C   0  0  0  0  0  0  0  0  0  0  0  0
    8.9980    1.8050  -56.5880 C   0  0  0  0  0  0  0  0  0  0  0  0
    9.6120    0.8420  -55.8710 C   0  0  0  0  0  0  0  0  0  0  0  0
   10.9720    0.5720  -56.0220 O   0  0  0  0  0  0  0  0  0  0  0  0
    8.9060   -0.0110  -54.8580 C   0  0  0  0  0  0  0  0  0  0  0  0
    8.2590    0.4280  -53.9210 O   0  0  0  0  0  0  0  0  0  0  0  0
    9.1570   -1.3530  -55.0780 N   0  0  0  0  0  0  0  0  0  0  0  0
    8.4590   -2.3590  -54.3040 C   0  0  0  0  0  0  0  0  0  0  0  0
    9.1970   -3.6980  -54.2830 C   0  0  0  0  0  0  0  0  0  0  0  0
   10.7190   -3.5330  -54.4030 C   0  0  0  0  0  0  0  0  0  0  0  0
   11.3650   -4.1230  -55.6830 C   0  0  2  0  0  0  0  0  0  0  0  0
   12.5500   -5.0350  -55.2550 C   0  0  0  0  0  0  0  0  0  0  0  0
   13.2380   -5.6580  -56.4810 C   0  0  1  0  0  0  0  0  0  0  0  0
   12.2150   -6.4990  -57.2600 C   0  0  0  0  0  0  0  0  0  0  0  0
   11.0480   -5.6110  -57.7210 C   0  0  2  0  0  0  0  0  0  0  0  0
   11.5910   -4.4890  -58.6200 C   0  0  0  0  0  0  0  0  0  0  0  0
   12.6100   -3.6390  -57.8450 C   0  0  2  0  0  0  0  0  0  0  0  0
   13.7700   -4.5350  -57.3850 C   0  0  0  0  0  0  0  0  0  0  0  0
   11.9220   -3.0190  -56.6150 C   0  0  0  0  0  0  0  0  0  0  0  0
   10.3630   -4.9870  -56.4900 C   0  0  0  0  0  0  0  0  0  0  0  0
    6.5937    0.5654  -55.7361 H   0  0  0  0  0  0  0  0  0  0  0  0
    5.4813    1.9252  -56.4734 H   0  0  0  0  0  0  0  0  0  0  0  0
    6.6580    3.7250  -57.7360 H   0  0  0  0  0  0  0  0  0  0  0  0
   10.6815    5.6685  -59.8747 H   0  0  0  0  0  0  0  0  0  0  0  0
   11.7839    2.1071  -57.6468 H   0  0  0  0  0  0  0  0  0  0  0  0
   11.3780    1.4050  -56.3320 H   0  0  0  0  0  0  0  0  0  0  0  0
    9.4850   -1.6000  -56.0050 H   0  0  0  0  0  0  0  0  0  0  0  0
    8.3533   -1.9982  -53.2702 H   0  0  0  0  0  0  0  0  0  0  0  0
    7.4797   -2.5245  -54.7768 H   0  0  0  0  0  0  0  0  0  0  0  0
    8.9714   -4.2103  -53.3361 H   0  0  0  0  0  0  0  0  0  0  0  0
    8.8548   -4.2817  -55.1503 H   0  0  0  0  0  0  0  0  0  0  0  0
   10.9445   -2.4567  -54.3770 H   0  0  0  0  0  0  0  0  0  0  0  0
   11.1472   -4.1014  -53.5642 H   0  0  0  0  0  0  0  0  0  0  0  0
   13.2836   -4.4336  -54.6980 H   0  0  0  0  0  0  0  0  0  0  0  0
   12.1573   -5.8461  -54.6242 H   0  0  0  0  0  0  0  0  0  0  0  0
   14.0720   -6.2979  -56.1570 H   0  0  0  0  0  0  0  0  0  0  0  0
   12.7034   -6.9445  -58.1392 H   0  0  0  0  0  0  0  0  0  0  0  0
   11.8278   -7.2942  -56.6060 H   0  0  0  0  0  0  0  0  0  0  0  0
   10.3208   -6.2178  -58.2805 H   0  0  0  0  0  0  0  0  0  0  0  0
   12.0808   -4.9322  -59.4996 H   0  0  0  0  0  0  0  0  0  0  0  0
   10.7564   -3.8480  -58.9402 H   0  0  0  0  0  0  0  0  0  0  0  0
   12.9971   -2.8387  -58.4929 H   0  0  0  0  0  0  0  0  0  0  0  0
   14.2605   -4.9768  -58.2649 H   0  0  0  0  0  0  0  0  0  0  0  0
   14.4937   -3.9286  -56.8207 H   0  0  0  0  0  0  0  0  0  0  0  0
   12.6532   -2.4131  -56.0598 H   0  0  0  0  0  0  0  0  0  0  0  0
   11.0862   -2.3911  -56.9572 H   0  0  0  0  0  0  0  0  0  0  0  0
    9.5279   -4.3537  -56.8241 H   0  0  0  0  0  0  0  0  0  0  0  0
    9.9940   -5.7965  -55.8431 H   0  0  0  0  0  0  0  0  0  0  0  0
  1  2  2  0
  2  3  1  0
  3  4  1  0
  4  5  2  0
  5  6  1  0
  5  7  1  0
  7  8  2  0
  8  9  1  0
  8 10  1  0
 10 11  2  0
 11 12  1  0
 12 13  2  0
 13 14  1  0
 13 15  1  0
 15 16  2  0
 15 17  1  0
 17 18  1  0
 18 19  1  0
 19 20  1  0
 21 20  1  1
 21 22  1  0
 22 23  1  0
 23 24  1  0
 24 25  1  0
 25 26  1  0
 26 27  1  0
 27 28  1  0
 27 29  1  0
 25 30  1  0
 12  2  1  0
 29 21  1  0
 11  4  1  0
 30 21  1  0
 28 23  1  0
  1 31  1  0
  1 32  1  0
  3 33  1  0
  7 34  1  0
 10 35  1  0
 14 36  1  0
 17 37  1  0
 18 38  1  0
 18 39  1  0
 19 40  1  0
 19 41  1  0
 20 42  1  0
 20 43  1  0
 22 44  1  0
 22 45  1  0
 23 46  1  1
 24 47  1  0
 24 48  1  0
 25 49  1  6
 26 50  1  0
 26 51  1  0
 27 52  1  6
 28 53  1  0
 28 54  1  0
 29 55  1  0
 29 56  1  0
 30 57  1  0
 30 58  1  0
M  END
>  <meeko>  (89) 
{"is_sidechain": false}

$$$$

     RDKit          3D

 56 60  0  0  0  0  0  0  0  0999 V2000
    9.4910    4.4630  -56.3470 C   0  0  0  0  0  0  0  0  0  0  0  0
    9.2250    3.5750  -57.5090 C   0  0  0  0  0  0  0  0  0  0  0  0
    9.9540    3.5410  -58.7460 C   0  0  0  0  0  0  0  0  0  0  0  0
   11.1540    4.2910  -59.1220 C   0  0  0  0  0  0  0  0  0  0  0  0
   12.4270    3.7180  -59.0080 C   0  0  0  0  0  0  0  0  0  0  0  0
   13.5650    4.4450  -59.3670 C   0  0  0  0  0  0  0  0  0  0  0  0
   13.4380    5.7470  -59.8490 C   0  0  0  0  0  0  0  0  0  0  0  0
   12.1750    6.3210  -59.9800 C   0  0  0  0  0  0  0  0  0  0  0  0
   11.0380    5.5950  -59.6210 C   0  0  0  0  0  0  0  0  0  0  0  0
    9.3800    2.7030  -59.6190 N   0  0  0  0  0  0  0  0  0  0  0  0
    8.3370    2.1960  -58.9570 N   0  0  0  0  0  0  0  0  0  0  0  0
    8.2100    2.6370  -57.6670 C   0  0  0  0  0  0  0  0  0  0  0  0
    7.1460    2.1220  -56.8420 C   0  0  0  0  0  0  0  0  0  0  0  0
    6.0000    2.5540  -56.9280 O   0  0  0  0  0  0  0  0  0  0  0  0
    7.4800    1.0870  -55.9990 N   0  0  0  0  0  0  0  0  0  0  0  0
    6.4890    0.4120  -55.1860 C   0  0  0  0  0  0  0  0  0  0  0  0
    6.9230    0.2200  -53.7280 C   0  0  0  0  0  0  0  0  0  0  0  0
    7.7100   -1.0730  -53.3830 C   0  0  2  0  0  0  0  0  0  0  0  0
    7.1370   -2.2310  -54.2500 C   0  0  0  0  0  0  0  0  0  0  0  0
    7.8800   -3.5480  -53.9760 C   0  0  1  0  0  0  0  0  0  0  0  0
    9.3690   -3.3660  -54.3110 C   0  0  0  0  0  0  0  0  0  0  0  0
    9.9670   -2.2480  -53.4430 C   0  0  2  0  0  0  0  0  0  0  0  0
    9.8100   -2.6190  -51.9590 C   0  0  0  0  0  0  0  0  0  0  0  0
    8.3220   -2.7980  -51.6170 C   0  0  2  0  0  0  0  0  0  0  0  0
    7.7290   -3.9120  -52.4920 C   0  0  0  0  0  0  0  0  0  0  0  0
    7.5810   -1.4760  -51.8960 C   0  0  0  0  0  0  0  0  0  0  0  0
    9.2180   -0.9300  -53.7180 C   0  0  0  0  0  0  0  0  0  0  0  0
    9.3240    3.9054  -55.4136 H   0  0  0  0  0  0  0  0  0  0  0  0
   10.5333    4.8126  -56.3837 H   0  0  0  0  0  0  0  0  0  0  0  0
    8.8126    5.3281  -56.3837 H   0  0  0  0  0  0  0  0  0  0  0  0
   12.5315    2.6890  -58.6334 H   0  0  0  0  0  0  0  0  0  0  0  0
   14.5616    3.9898  -59.2693 H   0  0  0  0  0  0  0  0  0  0  0  0
   14.3346    6.3210  -60.1258 H   0  0  0  0  0  0  0  0  0  0  0  0
   12.0740    7.3460  -60.3662 H   0  0  0  0  0  0  0  0  0  0  0  0
   10.0428    6.0505  -59.7308 H   0  0  0  0  0  0  0  0  0  0  0  0
    7.7330    1.5280  -59.4270 H   0  0  0  0  0  0  0  0  0  0  0  0
    8.3850    0.6570  -56.0990 H   0  0  0  0  0  0  0  0  0  0  0  0
    5.5640    1.0072  -55.1986 H   0  0  0  0  0  0  0  0  0  0  0  0
    6.3455   -0.5903  -55.6159 H   0  0  0  0  0  0  0  0  0  0  0  0
    7.5588    1.0758  -53.4572 H   0  0  0  0  0  0  0  0  0  0  0  0
    5.9831    0.1375  -53.1625 H   0  0  0  0  0  0  0  0  0  0  0  0
    6.0712   -2.3639  -54.0127 H   0  0  0  0  0  0  0  0  0  0  0  0
    7.2677   -1.9706  -55.3107 H   0  0  0  0  0  0  0  0  0  0  0  0
    7.4586   -4.3522  -54.5971 H   0  0  0  0  0  0  0  0  0  0  0  0
    9.9047   -4.3064  -54.1146 H   0  0  0  0  0  0  0  0  0  0  0  0
    9.4711   -3.0948  -55.3721 H   0  0  0  0  0  0  0  0  0  0  0  0
   11.0330   -2.1243  -53.6848 H   0  0  0  0  0  0  0  0  0  0  0  0
   10.3453   -3.5591  -51.7598 H   0  0  0  0  0  0  0  0  0  0  0  0
   10.2289   -1.8129  -51.3387 H   0  0  0  0  0  0  0  0  0  0  0  0
    8.2120   -3.0692  -50.5566 H   0  0  0  0  0  0  0  0  0  0  0  0
    8.2599   -4.8544  -52.2919 H   0  0  0  0  0  0  0  0  0  0  0  0
    6.6612   -4.0288  -52.2549 H   0  0  0  0  0  0  0  0  0  0  0  0
    6.5166   -1.6007  -51.6479 H   0  0  0  0  0  0  0  0  0  0  0  0
    8.0301   -0.6847  -51.2777 H   0  0  0  0  0  0  0  0  0  0  0  0
    9.6514   -0.1325  -53.0966 H   0  0  0  0  0  0  0  0  0  0  0  0
    9.3202   -0.6824  -54.7849 H   0  0  0  0  0  0  0  0  0  0  0  0
  1  2  1  0
  2  3  1  0
  3  4  1  0
  4  5  2  0
  5  6  1  0
  6  7  2  0
  7  8  1  0
  8  9  2  0
  3 10  2  0
 10 11  1  0
 11 12  1  0
 12 13  1  0
 13 14  2  0
 13 15  1  0
 15 16  1  0
 16 17  1  0
 18 17  1  1
 18 19  1  0
 19 20  1  0
 20 21  1  0
 21 22  1  0
 22 23  1  0
 23 24  1  0
 24 25  1  0
 24 26  1  0
 22 27  1  0
 12  2  2  0
 26 18  1  0
  9  4  1  0
 27 18  1  0
 25 20  1  0
  1 28  1  0
  1 29  1  0
  1 30  1  0
  5 31  1  0
  6 32  1  0
  7 33  1  0
  8 34  1  0
  9 35  1  0
 11 36  1  0
 15 37  1  0
 16 38  1  0
 16 39  1  0
 17 40  1  0
 17 41  1  0
 19 42  1  0
 19 43  1  0
 20 44  1  6
 21 45  1  0
 21 46  1  0
 22 47  1  6
 23 48  1  0
 23 49  1  0
 24 50  1  1
 25 51  1  0
 25 52  1  0
 26 53  1  0
 26 54  1  0
 27 55  1  0
 27 56  1  0
M  END
>  <meeko>  (90) 
{"is_sidechain": false}

$$$$

     RDKit          3D

 56 60  0  0  0  0  0  0  0  0999 V2000
    9.7610    3.6280  -56.0870 C   0  0  0  0  0  0  0  0  0  0  0  0
    9.2210    3.3130  -57.4340 C   0  0  0  0  0  0  0  0  0  0  0  0
    8.0060    2.6120  -57.7490 C   0  0  0  0  0  0  0  0  0  0  0  0
    6.9760    2.0970  -56.8230 C   0  0  0  0  0  0  0  0  0  0  0  0
    5.8990    2.6550  -56.6310 O   0  0  0  0  0  0  0  0  0  0  0  0
    7.3430    0.9380  -56.1560 N   0  0  0  0  0  0  0  0  0  0  0  0
    6.5110    0.3730  -55.1130 C   0  0  0  0  0  0  0  0  0  0  0  0
    7.2670    0.2800  -53.7860 C   0  0  0  0  0  0  0  0  0  0  0  0
    7.8810   -1.1020  -53.4560 C   0  0  2  0  0  0  0  0  0  0  0  0
    7.2290   -2.2380  -54.2840 C   0  0  0  0  0  0  0  0  0  0  0  0
    7.8990   -3.5910  -53.9780 C   0  0  1  0  0  0  0  0  0  0  0  0
    9.3920   -3.5100  -54.3280 C   0  0  0  0  0  0  0  0  0  0  0  0
   10.0690   -2.4090  -53.4980 C   0  0  2  0  0  0  0  0  0  0  0  0
    9.9060   -2.7240  -52.0030 C   0  0  0  0  0  0  0  0  0  0  0  0
    8.4140   -2.8000  -51.6410 C   0  0  2  0  0  0  0  0  0  0  0  0
    7.7460   -3.9020  -52.4800 C   0  0  0  0  0  0  0  0  0  0  0  0
    7.7440   -1.4500  -51.9530 C   0  0  0  0  0  0  0  0  0  0  0  0
    9.3960   -1.0620  -53.8050 C   0  0  0  0  0  0  0  0  0  0  0  0
    7.8770    2.4560  -59.0770 N   0  0  0  0  0  0  0  0  0  0  0  0
    8.9630    3.0410  -59.5920 N   0  0  0  0  0  0  0  0  0  0  0  0
    9.8060    3.5870  -58.6620 C   0  0  0  0  0  0  0  0  0  0  0  0
   11.0340    4.2820  -59.0310 C   0  0  0  0  0  0  0  0  0  0  0  0
   10.9870    5.5620  -59.5970 C   0  0  0  0  0  0  0  0  0  0  0  0
   12.1660    6.2280  -59.9420 C   0  0  0  0  0  0  0  0  0  0  0  0
   13.4000    5.6200  -59.7210 C   0  0  0  0  0  0  0  0  0  0  0  0
   13.4580    4.3460  -59.1600 C   0  0  0  0  0  0  0  0  0  0  0  0
   12.2800    3.6800  -58.8160 C   0  0  0  0  0  0  0  0  0  0  0  0
    9.0818    3.2318  -55.3178 H   0  0  0  0  0  0  0  0  0  0  0  0
   10.7532    3.1670  -55.9727 H   0  0  0  0  0  0  0  0  0  0  0  0
    9.8481    4.7186  -55.9727 H   0  0  0  0  0  0  0  0  0  0  0  0
    8.3160    0.6720  -56.1910 H   0  0  0  0  0  0  0  0  0  0  0  0
    5.6253    1.0109  -54.9766 H   0  0  0  0  0  0  0  0  0  0  0  0
    6.2170   -0.6427  -55.4163 H   0  0  0  0  0  0  0  0  0  0  0  0
    8.0847    1.0153  -53.8112 H   0  0  0  0  0  0  0  0  0  0  0  0
    6.5190    0.4695  -53.0021 H   0  0  0  0  0  0  0  0  0  0  0  0
    6.1599   -2.2998  -54.0325 H   0  0  0  0  0  0  0  0  0  0  0  0
    7.3582   -2.0141  -55.3532 H   0  0  0  0  0  0  0  0  0  0  0  0
    7.4228   -4.3837  -54.5737 H   0  0  0  0  0  0  0  0  0  0  0  0
    9.8700   -4.4763  -54.1096 H   0  0  0  0  0  0  0  0  0  0  0  0
    9.4992   -3.2729  -55.3968 H   0  0  0  0  0  0  0  0  0  0  0  0
   11.1384   -2.3598  -53.7509 H   0  0  0  0  0  0  0  0  0  0  0  0
   10.3845   -3.6890  -51.7798 H   0  0  0  0  0  0  0  0  0  0  0  0
   10.3806   -1.9266  -51.4123 H   0  0  0  0  0  0  0  0  0  0  0  0
    8.3042   -3.0284  -50.5706 H   0  0  0  0  0  0  0  0  0  0  0  0
    8.2233   -4.8679  -52.2583 H   0  0  0  0  0  0  0  0  0  0  0  0
    6.6760   -3.9471  -52.2290 H   0  0  0  0  0  0  0  0  0  0  0  0
    6.6770   -1.5082  -51.6922 H   0  0  0  0  0  0  0  0  0  0  0  0
    8.2403   -0.6655  -51.3629 H   0  0  0  0  0  0  0  0  0  0  0  0
    9.8812   -0.2740  -53.2104 H   0  0  0  0  0  0  0  0  0  0  0  0
    9.5020   -0.8549  -54.8801 H   0  0  0  0  0  0  0  0  0  0  0  0
    9.0710    3.0480  -60.6010 H   0  0  0  0  0  0  0  0  0  0  0  0
   10.0150    6.0467  -59.7713 H   0  0  0  0  0  0  0  0  0  0  0  0
   12.1199    7.2324  -60.3881 H   0  0  0  0  0  0  0  0  0  0  0  0
   14.3282    6.1457  -59.9894 H   0  0  0  0  0  0  0  0  0  0  0  0
   14.4321    3.8647  -58.9880 H   0  0  0  0  0  0  0  0  0  0  0  0
   12.3311    2.6746  -58.3727 H   0  0  0  0  0  0  0  0  0  0  0  0
  1  2  1  0
  2  3  1  0
  3  4  1  0
  4  5  2  0
  4  6  1  0
  6  7  1  0
  7  8  1  0
  9  8  1  1
  9 10  1  0
 10 11  1  0
 11 12  1  0
 12 13  1  0
 13 14  1  0
 14 15  1  0
 15 16  1  0
 15 17  1  0
 13 18  1  0
  3 19  2  0
 19 20  1  0
 20 21  1  0
 21 22  1  0
 22 23  2  0
 23 24  1  0
 24 25  2  0
 25 26  1  0
 26 27  2  0
 21  2  2  0
 27 22  1  0
 17  9  1  0
 18  9  1  0
 16 11  1  0
  1 28  1  0
  1 29  1  0
  1 30  1  0
  6 31  1  0
  7 32  1  0
  7 33  1  0
  8 34  1  0
  8 35  1  0
 10 36  1  0
 10 37  1  0
 11 38  1  6
 12 39  1  0
 12 40  1  0
 13 41  1  6
 14 42  1  0
 14 43  1  0
 15 44  1  1
 16 45  1  0
 16 46  1  0
 17 47  1  0
 17 48  1  0
 18 49  1  0
 18 50  1  0
 20 51  1  0
 23 52  1  0
 24 53  1  0
 25 54  1  0
 26 55  1  0
 27 56  1  0
M  END
>  <meeko>  (91) 
{"is_sidechain": false}

$$$$

     RDKit          3D

 62 66  0  0  0  0  0  0  0  0999 V2000
    6.1700    2.3710  -58.1210 C   0  0  0  0  0  0  0  0  0  0  0  0
    6.8700    2.8560  -56.8630 C   0  0  0  0  0  0  0  0  0  0  0  0
    7.8860    1.9250  -56.4070 N   0  0  0  0  0  0  0  0  0  0  0  0
    7.5150    0.9200  -55.5960 N   0  0  0  0  0  0  0  0  0  0  0  0
    8.6420    0.2290  -55.3600 C   0  0  0  0  0  0  0  0  0  0  0  0
    8.6290   -0.9620  -54.4870 C   0  0  0  0  0  0  0  0  0  0  0  0
    8.2380   -0.9430  -53.3230 O   0  0  0  0  0  0  0  0  0  0  0  0
    9.1310   -2.1070  -55.0840 N   0  0  0  0  0  0  0  0  0  0  0  0
    9.3170   -3.3310  -54.3310 C   0  0  0  0  0  0  0  0  0  0  0  0
   10.7950   -3.7250  -54.2650 C   0  0  0  0  0  0  0  0  0  0  0  0
   11.4190   -4.2230  -55.5900 C   0  0  2  0  0  0  0  0  0  0  0  0
   11.9160   -3.0500  -56.4730 C   0  0  0  0  0  0  0  0  0  0  0  0
   12.5840   -3.5780  -57.7570 C   0  0  1  0  0  0  0  0  0  0  0  0
   13.7810   -4.4640  -57.3810 C   0  0  0  0  0  0  0  0  0  0  0  0
   13.3090   -5.6520  -56.5300 C   0  0  2  0  0  0  0  0  0  0  0  0
   12.2860   -6.4780  -57.3260 C   0  0  0  0  0  0  0  0  0  0  0  0
   11.0820   -5.6010  -57.7010 C   0  0  2  0  0  0  0  0  0  0  0  0
   11.5640   -4.4130  -58.5500 C   0  0  0  0  0  0  0  0  0  0  0  0
   10.4170   -5.0690  -56.4190 C   0  0  0  0  0  0  0  0  0  0  0  0
   12.6410   -5.1220  -55.2510 C   0  0  0  0  0  0  0  0  0  0  0  0
    9.7520    0.8190  -56.0500 C   0  0  0  0  0  0  0  0  0  0  0  0
   11.1580    0.3400  -56.0880 C   0  0  0  0  0  0  0  0  0  0  0  0
    9.2270    1.9250  -56.7020 C   0  0  0  0  0  0  0  0  0  0  0  0
    9.8810    2.9100  -57.5540 C   0  0  0  0  0  0  0  0  0  0  0  0
    9.9310    2.7190  -58.9400 C   0  0  0  0  0  0  0  0  0  0  0  0
   10.5590    3.6610  -59.7570 C   0  0  0  0  0  0  0  0  0  0  0  0
   11.1430    4.7910  -59.1850 C   0  0  0  0  0  0  0  0  0  0  0  0
   11.9940    6.0660  -60.2910 Br  0  0  0  0  0  0  0  0  0  0  0  0
   11.1050    4.9870  -57.8060 C   0  0  0  0  0  0  0  0  0  0  0  0
   10.4760    4.0440  -56.9900 C   0  0  0  0  0  0  0  0  0  0  0  0
    5.2951    1.7648  -57.8433 H   0  0  0  0  0  0  0  0  0  0  0  0
    5.8425    3.2367  -58.7153 H   0  0  0  0  0  0  0  0  0  0  0  0
    6.8655    1.7602  -58.7153 H   0  0  0  0  0  0  0  0  0  0  0  0
    7.3464    3.8248  -57.0739 H   0  0  0  0  0  0  0  0  0  0  0  0
    6.1138    2.9459  -56.0692 H   0  0  0  0  0  0  0  0  0  0  0  0
    9.6400   -1.9950  -55.9490 H   0  0  0  0  0  0  0  0  0  0  0  0
    8.9396   -3.1833  -53.3084 H   0  0  0  0  0  0  0  0  0  0  0  0
    8.7653   -4.1369  -54.8371 H   0  0  0  0  0  0  0  0  0  0  0  0
   11.3646   -2.8441  -53.9338 H   0  0  0  0  0  0  0  0  0  0  0  0
   10.8462   -4.5776  -53.5718 H   0  0  0  0  0  0  0  0  0  0  0  0
   11.0596   -2.4161  -56.7463 H   0  0  0  0  0  0  0  0  0  0  0  0
   12.6560   -2.4684  -55.9036 H   0  0  0  0  0  0  0  0  0  0  0  0
   12.9294   -2.7322  -58.3696 H   0  0  0  0  0  0  0  0  0  0  0  0
   14.2582   -4.8398  -58.2981 H   0  0  0  0  0  0  0  0  0  0  0  0
   14.5024   -3.8691  -56.8016 H   0  0  0  0  0  0  0  0  0  0  0  0
   14.1709   -6.2837  -56.2691 H   0  0  0  0  0  0  0  0  0  0  0  0
   12.7593   -6.8587  -58.2431 H   0  0  0  0  0  0  0  0  0  0  0  0
   11.9414   -7.3199  -56.7076 H   0  0  0  0  0  0  0  0  0  0  0  0
   10.3566   -6.1978  -58.2734 H   0  0  0  0  0  0  0  0  0  0  0  0
   12.0376   -4.7902  -59.4684 H   0  0  0  0  0  0  0  0  0  0  0  0
   10.7018   -3.7801  -58.8072 H   0  0  0  0  0  0  0  0  0  0  0  0
    9.5556   -4.4421  -56.6928 H   0  0  0  0  0  0  0  0  0  0  0  0
   10.0892   -5.9246  -55.8103 H   0  0  0  0  0  0  0  0  0  0  0  0
   12.3028   -5.9738  -54.6427 H   0  0  0  0  0  0  0  0  0  0  0  0
   13.3756   -4.5192  -54.6969 H   0  0  0  0  0  0  0  0  0  0  0  0
   11.5301    0.2132  -55.0606 H   0  0  0  0  0  0  0  0  0  0  0  0
   11.2028   -0.6241  -56.6158 H   0  0  0  0  0  0  0  0  0  0  0  0
   11.7820    1.0762  -56.6158 H   0  0  0  0  0  0  0  0  0  0  0  0
    9.4740    1.8237  -59.3868 H   0  0  0  0  0  0  0  0  0  0  0  0
   10.5930    3.5127  -60.8464 H   0  0  0  0  0  0  0  0  0  0  0  0
   11.5683    5.8804  -57.3620 H   0  0  0  0  0  0  0  0  0  0  0  0
   10.4483    4.1932  -55.9005 H   0  0  0  0  0  0  0  0  0  0  0  0
  1  2  1  0
  2  3  1  0
  3  4  1  0
  4  5  2  0
  5  6  1  0
  6  7  2  0
  6  8  1  0
  8  9  1  0
  9 10  1  0
 11 10  1  1
 11 12  1  0
 12 13  1  0
 13 14  1  0
 14 15  1  0
 15 16  1  0
 16 17  1  0
 17 18  1  0
 17 19  1  0
 15 20  1  0
  5 21  1  0
 21 22  1  0
 21 23  2  0
 23 24  1  0
 24 25  1  0
 25 26  2  0
 26 27  1  0
 27 28  1  0
 27 29  2  0
 29 30  1  0
 23  3  1  0
 30 24  2  0
 19 11  1  0
 20 11  1  0
 18 13  1  0
  1 31  1  0
  1 32  1  0
  1 33  1  0
  2 34  1  0
  2 35  1  0
  8 36  1  0
  9 37  1  0
  9 38  1  0
 10 39  1  0
 10 40  1  0
 12 41  1  0
 12 42  1  0
 13 43  1  6
 14 44  1  0
 14 45  1  0
 15 46  1  1
 16 47  1  0
 16 48  1  0
 17 49  1  6
 18 50  1  0
 18 51  1  0
 19 52  1  0
 19 53  1  0
 20 54  1  0
 20 55  1  0
 22 56  1  0
 22 57  1  0
 22 58  1  0
 25 59  1  0
 26 60  1  0
 29 61  1  0
 30 62  1  0
M  END
>  <meeko>  (92) 
{"is_sidechain": false}

$$$$

     RDKit          3D

 55 58  0  0  0  0  0  0  0  0999 V2000
   11.1900   -5.7600  -56.6720 C   0  0  0  0  0  0  0  0  0  0  0  0
   11.1240   -4.2670  -56.4900 C   0  0  0  0  0  0  0  0  0  0  0  0
   11.7710   -3.4820  -57.5990 C   0  0  0  0  0  0  0  0  0  0  0  0
   10.5260   -3.7340  -55.4050 C   0  0  0  0  0  0  0  0  0  0  0  0
   10.3740   -2.2800  -55.0390 C   0  0  0  0  0  0  0  0  0  0  0  0
    9.4560   -2.1060  -53.9210 N   0  0  0  0  0  0  0  0  0  0  0  0
    9.6320   -2.8450  -52.8050 N   0  0  0  0  0  0  0  0  0  0  0  0
    8.7070   -2.4800  -51.9300 N   0  0  0  0  0  0  0  0  0  0  0  0
    7.9540   -1.5000  -52.5050 C   0  0  0  0  0  0  0  0  0  0  0  0
    8.4110   -1.2230  -53.7790 C   0  0  0  0  0  0  0  0  0  0  0  0
    7.9520   -0.2880  -54.7680 C   0  0  0  0  0  0  0  0  0  0  0  0
    6.8530   -0.3610  -55.3070 O   0  0  0  0  0  0  0  0  0  0  0  0
    8.8540    0.7090  -55.0840 N   0  0  0  0  0  0  0  0  0  0  0  0
    8.5850    1.6290  -56.1740 C   0  0  0  0  0  0  0  0  0  0  0  0
    9.8640    1.9430  -56.9500 C   0  0  0  0  0  0  0  0  0  0  0  0
    9.7260    2.9950  -58.0770 C   0  0  2  0  0  0  0  0  0  0  0  0
    8.5600    2.5660  -59.0110 C   0  0  0  0  0  0  0  0  0  0  0  0
    8.3700    3.5720  -60.1560 C   0  0  1  0  0  0  0  0  0  0  0  0
    8.0550    4.9550  -59.5650 C   0  0  0  0  0  0  0  0  0  0  0  0
    9.2110    5.4150  -58.6630 C   0  0  2  0  0  0  0  0  0  0  0  0
   10.5040    5.4870  -59.4920 C   0  0  0  0  0  0  0  0  0  0  0  0
   10.8290    4.1040  -60.0820 C   0  0  2  0  0  0  0  0  0  0  0  0
    9.6660    3.6500  -60.9780 C   0  0  0  0  0  0  0  0  0  0  0  0
   11.0140    3.0960  -58.9340 C   0  0  0  0  0  0  0  0  0  0  0  0
    9.4010    4.4030  -57.5180 C   0  0  0  0  0  0  0  0  0  0  0  0
   11.2116   -6.2489  -55.6868 H   0  0  0  0  0  0  0  0  0  0  0  0
   10.3060   -6.1007  -57.2311 H   0  0  0  0  0  0  0  0  0  0  0  0
   12.1006   -6.0213  -57.2311 H   0  0  0  0  0  0  0  0  0  0  0  0
   12.4147   -2.7010  -57.1682 H   0  0  0  0  0  0  0  0  0  0  0  0
   12.3787   -4.1569  -58.2197 H   0  0  0  0  0  0  0  0  0  0  0  0
   10.9925   -3.0144  -58.2197 H   0  0  0  0  0  0  0  0  0  0  0  0
   10.0930   -4.4540  -54.6950 H   0  0  0  0  0  0  0  0  0  0  0  0
   11.3585   -1.8765  -54.7598 H   0  0  0  0  0  0  0  0  0  0  0  0
    9.9652   -1.7451  -55.9089 H   0  0  0  0  0  0  0  0  0  0  0  0
    7.1016   -0.9997  -52.0222 H   0  0  0  0  0  0  0  0  0  0  0  0
    9.8200    0.5620  -54.8250 H   0  0  0  0  0  0  0  0  0  0  0  0
    7.8519    1.1744  -56.8566 H   0  0  0  0  0  0  0  0  0  0  0  0
    8.1893    2.5656  -55.7542 H   0  0  0  0  0  0  0  0  0  0  0  0
   10.6119    2.3125  -56.2330 H   0  0  0  0  0  0  0  0  0  0  0  0
   10.1487    1.0052  -57.4494 H   0  0  0  0  0  0  0  0  0  0  0  0
    8.7853    1.5766  -59.4357 H   0  0  0  0  0  0  0  0  0  0  0  0
    7.6333    2.5308  -58.4194 H   0  0  0  0  0  0  0  0  0  0  0  0
    7.5410    3.2502  -60.8034 H   0  0  0  0  0  0  0  0  0  0  0  0
    7.9202    5.6787  -60.3824 H   0  0  0  0  0  0  0  0  0  0  0  0
    7.1333    4.8919  -58.9679 H   0  0  0  0  0  0  0  0  0  0  0  0
    8.9799    6.4064  -58.2461 H   0  0  0  0  0  0  0  0  0  0  0  0
   10.3722    6.2102  -60.3103 H   0  0  0  0  0  0  0  0  0  0  0  0
   11.3322    5.8057  -58.8419 H   0  0  0  0  0  0  0  0  0  0  0  0
   11.7524    4.1600  -60.6772 H   0  0  0  0  0  0  0  0  0  0  0  0
    9.5346    4.3713  -61.7980 H   0  0  0  0  0  0  0  0  0  0  0  0
    9.8935    2.6555  -61.3894 H   0  0  0  0  0  0  0  0  0  0  0  0
   11.2446    2.1068  -59.3563 H   0  0  0  0  0  0  0  0  0  0  0  0
   11.8384    3.4401  -58.2922 H   0  0  0  0  0  0  0  0  0  0  0  0
   10.2296    4.7362  -56.8759 H   0  0  0  0  0  0  0  0  0  0  0  0
    8.4674    4.3459  -56.9392 H   0  0  0  0  0  0  0  0  0  0  0  0
  1  2  1  0
  2  3  1  0
  2  4  2  3
  4  5  1  0
  5  6  1  0
  6  7  1  0
  7  8  2  0
  8  9  1  0
  9 10  2  0
 10 11  1  0
 11 12  2  0
 11 13  1  0
 13 14  1  0
 14 15  1  0
 16 15  1  1
 16 17  1  0
 17 18  1  0
 18 19  1  0
 19 20  1  0
 20 21  1  0
 21 22  1  0
 22 23  1  0
 22 24  1  0
 20 25  1  0
 10  6  1  0
 24 16  1  0
 25 16  1  0
 23 18  1  0
  1 26  1  0
  1 27  1  0
  1 28  1  0
  3 29  1  0
  3 30  1  0
  3 31  1  0
  4 32  1  0
  5 33  1  0
  5 34  1  0
  9 35  1  0
 13 36  1  0
 14 37  1  0
 14 38  1  0
 15 39  1  0
 15 40  1  0
 17 41  1  0
 17 42  1  0
 18 43  1  6
 19 44  1  0
 19 45  1  0
 20 46  1  1
 21 47  1  0
 21 48  1  0
 22 49  1  6
 23 50  1  0
 23 51  1  0
 24 52  1  0
 24 53  1  0
 25 54  1  0
 25 55  1  0
M  END
>  <meeko>  (93) 
{"is_sidechain": false}

$$$$

     RDKit          3D

 63 67  0  0  0  0  0  0  0  0999 V2000
    9.2580    4.4460  -56.2370 C   0  0  0  0  0  0  0  0  0  0  0  0
    9.0750    3.5030  -57.3720 C   0  0  0  0  0  0  0  0  0  0  0  0
    8.0570    2.5060  -57.5310 C   0  0  0  0  0  0  0  0  0  0  0  0
    6.9730    2.1420  -56.5970 C   0  0  0  0  0  0  0  0  0  0  0  0
    5.9320    2.7840  -56.4880 O   0  0  0  0  0  0  0  0  0  0  0  0
    7.2200    0.9950  -55.8610 N   0  0  0  0  0  0  0  0  0  0  0  0
    6.2480    0.4650  -54.9280 C   0  0  0  0  0  0  0  0  0  0  0  0
    6.8720    0.2440  -53.5480 C   0  0  0  0  0  0  0  0  0  0  0  0
    7.7680   -1.0110  -53.4080 C   0  0  2  0  0  0  0  0  0  0  0  0
    7.7250   -1.5960  -51.9730 C   0  0  0  0  0  0  0  0  0  0  0  0
    8.5780   -2.8740  -51.8800 C   0  0  2  0  0  0  0  0  0  0  0  0
   10.0330   -2.5380  -52.2460 C   0  0  0  0  0  0  0  0  0  0  0  0
   10.1010   -1.9840  -53.6810 C   0  0  2  0  0  0  0  0  0  0  0  0
    9.2450   -0.7060  -53.7680 C   0  0  0  0  0  0  0  0  0  0  0  0
    9.5490   -3.0220  -54.6760 C   0  0  1  0  0  0  0  0  0  0  0  0
   10.3470   -4.2020  -54.6640 O   0  0  0  0  0  0  0  0  0  0  0  0
    8.0990   -3.3750  -54.3010 C   0  0  1  0  0  0  0  0  0  0  0  0
    8.0360   -3.9220  -52.8640 C   0  0  0  0  0  0  0  0  0  0  0  0
    7.2440   -2.1010  -54.3870 C   0  0  0  0  0  0  0  0  0  0  0  0
    8.1840    1.8820  -58.7150 N   0  0  0  0  0  0  0  0  0  0  0  0
    9.2600    2.4430  -59.2880 N   0  0  0  0  0  0  0  0  0  0  0  0
    9.6570    1.9810  -60.6020 C   0  0  0  0  0  0  0  0  0  0  0  0
    9.0820    2.8530  -61.6950 C   0  0  0  0  0  0  0  0  0  0  0  0
   10.0460    3.7180  -62.1190 F   0  0  0  0  0  0  0  0  0  0  0  0
    9.8420    3.4240  -58.5250 C   0  0  0  0  0  0  0  0  0  0  0  0
   11.0080    4.1970  -58.9300 C   0  0  0  0  0  0  0  0  0  0  0  0
   10.8490    5.4470  -59.5390 C   0  0  0  0  0  0  0  0  0  0  0  0
   11.9670    6.1840  -59.9320 C   0  0  0  0  0  0  0  0  0  0  0  0
   13.2480    5.6770  -59.7140 C   0  0  0  0  0  0  0  0  0  0  0  0
   13.4120    4.4350  -59.1010 C   0  0  0  0  0  0  0  0  0  0  0  0
   12.2950    3.6960  -58.7080 C   0  0  0  0  0  0  0  0  0  0  0  0
    9.1523    3.9014  -55.2871 H   0  0  0  0  0  0  0  0  0  0  0  0
   10.2602    4.8960  -56.2921 H   0  0  0  0  0  0  0  0  0  0  0  0
    8.4968    5.2382  -56.2921 H   0  0  0  0  0  0  0  0  0  0  0  0
    8.0200    0.4290  -56.1070 H   0  0  0  0  0  0  0  0  0  0  0  0
    5.4140    1.1763  -54.8354 H   0  0  0  0  0  0  0  0  0  0  0  0
    5.8902   -0.5031  -55.3086 H   0  0  0  0  0  0  0  0  0  0  0  0
    7.4856    1.1253  -53.3098 H   0  0  0  0  0  0  0  0  0  0  0  0
    6.0283    0.0877  -52.8597 H   0  0  0  0  0  0  0  0  0  0  0  0
    8.1160   -0.8488  -51.2667 H   0  0  0  0  0  0  0  0  0  0  0  0
    6.6833   -1.8476  -51.7250 H   0  0  0  0  0  0  0  0  0  0  0  0
    8.5350   -3.2738  -50.8561 H   0  0  0  0  0  0  0  0  0  0  0  0
   10.4198   -1.7832  -51.5455 H   0  0  0  0  0  0  0  0  0  0  0  0
   10.6414   -3.4523  -52.1829 H   0  0  0  0  0  0  0  0  0  0  0  0
   11.1485   -1.7607  -53.9319 H   0  0  0  0  0  0  0  0  0  0  0  0
    9.6408    0.0424  -53.0657 H   0  0  0  0  0  0  0  0  0  0  0  0
    9.2862   -0.3218  -54.7979 H   0  0  0  0  0  0  0  0  0  0  0  0
    9.5757   -2.5899  -55.6872 H   0  0  0  0  0  0  0  0  0  0  0  0
   10.1330   -4.6890  -53.8500 H   0  0  0  0  0  0  0  0  0  0  0  0
    7.7224   -4.1424  -54.9932 H   0  0  0  0  0  0  0  0  0  0  0  0
    6.9920   -4.1562  -52.6086 H   0  0  0  0  0  0  0  0  0  0  0  0
    8.6493   -4.8327  -52.7965 H   0  0  0  0  0  0  0  0  0  0  0  0
    7.2828   -1.7103  -55.4146 H   0  0  0  0  0  0  0  0  0  0  0  0
    6.2099   -2.3534  -54.1097 H   0  0  0  0  0  0  0  0  0  0  0  0
   10.7547    1.9998  -60.6706 H   0  0  0  0  0  0  0  0  0  0  0  0
    9.2726    0.9594  -60.7385 H   0  0  0  0  0  0  0  0  0  0  0  0
    8.7539    2.2240  -62.5357 H   0  0  0  0  0  0  0  0  0  0  0  0
    8.2186    3.4151  -61.3096 H   0  0  0  0  0  0  0  0  0  0  0  0
    9.8395    5.8499  -59.7084 H   0  0  0  0  0  0  0  0  0  0  0  0
   11.8380    7.1645  -60.4136 H   0  0  0  0  0  0  0  0  0  0  0  0
   14.1292    6.2569  -60.0257 H   0  0  0  0  0  0  0  0  0  0  0  0
   14.4228    4.0374  -58.9271 H   0  0  0  0  0  0  0  0  0  0  0  0
   12.4271    2.7177  -58.2227 H   0  0  0  0  0  0  0  0  0  0  0  0
  1  2  1  0
  2  3  1  0
  3  4  1  0
  4  5  2  0
  4  6  1  0
  6  7  1  0
  7  8  1  0
  9  8  1  1
  9 10  1  0
 10 11  1  0
 11 12  1  0
 12 13  1  0
 13 14  1  0
 13 15  1  0
 15 16  1  0
 15 17  1  0
 17 18  1  0
 17 19  1  0
  3 20  2  0
 20 21  1  0
 21 22  1  0
 22 23  1  0
 23 24  1  0
 21 25  1  0
 25 26  1  0
 26 27  2  0
 27 28  1  0
 28 29  2  0
 29 30  1  0
 30 31  2  0
 25  2  2  0
 31 26  1  0
 14  9  1  0
 19  9  1  0
 18 11  1  0
  1 32  1  0
  1 33  1  0
  1 34  1  0
  6 35  1  0
  7 36  1  0
  7 37  1  0
  8 38  1  0
  8 39  1  0
 10 40  1  0
 10 41  1  0
 11 42  1  1
 12 43  1  0
 12 44  1  0
 13 45  1  6
 14 46  1  0
 14 47  1  0
 15 48  1  6
 16 49  1  0
 17 50  1  6
 18 51  1  0
 18 52  1  0
 19 53  1  0
 19 54  1  0
 22 55  1  0
 22 56  1  0
 23 57  1  0
 23 58  1  0
 27 59  1  0
 28 60  1  0
 29 61  1  0
 30 62  1  0
 31 63  1  0
M  END
>  <meeko>  (94) 
{"is_sidechain": false}

$$$$

     RDKit          3D

 46 50  0  0  0  0  0  0  0  0999 V2000
    5.1480    2.2760  -58.9480 C   0  0  0  0  0  0  0  0  0  0  0  0
    5.3120    1.9130  -60.3320 N   0  0  0  0  0  0  0  0  0  0  0  0
    6.3120    2.3480  -61.1980 C   0  0  0  0  0  0  0  0  0  0  0  0
    7.5260    2.6670  -60.6730 N   0  0  0  0  0  0  0  0  0  0  0  0
    8.6630    2.9970  -61.5230 C   0  0  0  0  0  0  0  0  0  0  0  0
    9.9550    2.4410  -60.9150 C   0  0  0  0  0  0  0  0  0  0  0  0
   10.5740    3.2750  -59.7670 C   0  0  2  0  0  0  0  0  0  0  0  0
   10.0750    4.7420  -59.9030 C   0  0  0  0  0  0  0  0  0  0  0  0
   10.6570    5.6290  -58.7910 C   0  0  1  0  0  0  0  0  0  0  0  0
   10.2200    5.0750  -57.4250 C   0  0  0  0  0  0  0  0  0  0  0  0
   10.7310    3.6360  -57.2560 C   0  0  2  0  0  0  0  0  0  0  0  0
   12.2650    3.6270  -57.3520 C   0  0  0  0  0  0  0  0  0  0  0  0
   12.7090    4.1740  -58.7200 C   0  0  2  0  0  0  0  0  0  0  0  0
   12.1910    5.6110  -58.8840 C   0  0  0  0  0  0  0  0  0  0  0  0
   12.1220    3.2880  -59.8340 C   0  0  0  0  0  0  0  0  0  0  0  0
   10.1470    2.7500  -58.3730 C   0  0  0  0  0  0  0  0  0  0  0  0
    5.9580    2.4120  -62.4710 N   0  0  0  0  0  0  0  0  0  0  0  0
    4.6520    2.0310  -62.3710 N   0  0  0  0  0  0  0  0  0  0  0  0
    3.5770    1.8990  -63.1780 C   0  0  0  0  0  0  0  0  0  0  0  0
    2.5310    1.5690  -62.4330 N   0  0  0  0  0  0  0  0  0  0  0  0
    2.9490    1.4950  -61.0970 N   0  0  0  0  0  0  0  0  0  0  0  0
    4.2270    1.7530  -61.1140 C   0  0  0  0  0  0  0  0  0  0  0  0
    5.5166    1.4602  -58.3088 H   0  0  0  0  0  0  0  0  0  0  0  0
    5.7196    3.1923  -58.7391 H   0  0  0  0  0  0  0  0  0  0  0  0
    4.0826    2.4528  -58.7391 H   0  0  0  0  0  0  0  0  0  0  0  0
    7.7820    2.1110  -59.8640 H   0  0  0  0  0  0  0  0  0  0  0  0
    8.5116    2.5573  -62.5198 H   0  0  0  0  0  0  0  0  0  0  0  0
    8.7456    4.0909  -61.6046 H   0  0  0  0  0  0  0  0  0  0  0  0
    9.7382    1.4363  -60.5231 H   0  0  0  0  0  0  0  0  0  0  0  0
   10.6968    2.4547  -61.7271 H   0  0  0  0  0  0  0  0  0  0  0  0
   10.3878    5.1389  -60.8800 H   0  0  0  0  0  0  0  0  0  0  0  0
    8.9784    4.7477  -59.8169 H   0  0  0  0  0  0  0  0  0  0  0  0
   10.2927    6.6607  -58.9045 H   0  0  0  0  0  0  0  0  0  0  0  0
   10.6360    5.7059  -56.6257 H   0  0  0  0  0  0  0  0  0  0  0  0
    9.1215    5.0780  -57.3678 H   0  0  0  0  0  0  0  0  0  0  0  0
   10.4182    3.2474  -56.2756 H   0  0  0  0  0  0  0  0  0  0  0  0
   12.6838    4.2577  -56.5540 H   0  0  0  0  0  0  0  0  0  0  0  0
   12.6281    2.5947  -57.2404 H   0  0  0  0  0  0  0  0  0  0  0  0
   13.8071    4.1692  -58.7841 H   0  0  0  0  0  0  0  0  0  0  0  0
   12.6119    6.2433  -58.0883 H   0  0  0  0  0  0  0  0  0  0  0  0
   12.4983    5.9962  -59.8674 H   0  0  0  0  0  0  0  0  0  0  0  0
   12.4376    3.6812  -60.8117 H   0  0  0  0  0  0  0  0  0  0  0  0
   12.4899    2.2602  -59.6984 H   0  0  0  0  0  0  0  0  0  0  0  0
   10.5139    1.7207  -58.2467 H   0  0  0  0  0  0  0  0  0  0  0  0
    9.0493    2.7743  -58.3066 H   0  0  0  0  0  0  0  0  0  0  0  0
    3.5704    2.0412  -64.2688 H   0  0  0  0  0  0  0  0  0  0  0  0
  1  2  1  0
  2  3  1  0
  3  4  1  0
  4  5  1  0
  5  6  1  0
  7  6  1  6
  7  8  1  0
  8  9  1  0
  9 10  1  0
 10 11  1  0
 11 12  1  0
 12 13  1  0
 13 14  1  0
 13 15  1  0
 11 16  1  0
  3 17  2  0
 17 18  1  0
 18 19  1  0
 19 20  2  0
 20 21  1  0
 21 22  2  0
 22  2  1  0
 15  7  1  0
 22 18  1  0
 16  7  1  0
 14  9  1  0
  1 23  1  0
  1 24  1  0
  1 25  1  0
  4 26  1  0
  5 27  1  0
  5 28  1  0
  6 29  1  0
  6 30  1  0
  8 31  1  0
  8 32  1  0
  9 33  1  6
 10 34  1  0
 10 35  1  0
 11 36  1  1
 12 37  1  0
 12 38  1  0
 13 39  1  1
 14 40  1  0
 14 41  1  0
 15 42  1  0
 15 43  1  0
 16 44  1  0
 16 45  1  0
 19 46  1  0
M  END
>  <meeko>  (95) 
{"is_sidechain": false}

$$$$

     RDKit          3D

 46 50  0  0  0  0  0  0  0  0999 V2000
    5.1940    2.0980  -58.8290 C   0  0  0  0  0  0  0  0  0  0  0  0
    5.3020    1.9390  -60.2540 N   0  0  0  0  0  0  0  0  0  0  0  0
    6.4450    2.2330  -61.0120 C   0  0  0  0  0  0  0  0  0  0  0  0
    7.5920    2.5160  -60.5090 N   0  0  0  0  0  0  0  0  0  0  0  0
    8.7050    2.8090  -61.4140 C   0  0  0  0  0  0  0  0  0  0  0  0
   10.0040    2.2950  -60.7890 C   0  0  0  0  0  0  0  0  0  0  0  0
   10.6760    3.2320  -59.7560 C   0  0  2  0  0  0  0  0  0  0  0  0
   10.2790    2.8740  -58.3030 C   0  0  0  0  0  0  0  0  0  0  0  0
   10.9180    3.8570  -57.3050 C   0  0  1  0  0  0  0  0  0  0  0  0
   12.4480    3.7920  -57.4410 C   0  0  0  0  0  0  0  0  0  0  0  0
   12.8660    4.1740  -58.8710 C   0  0  2  0  0  0  0  0  0  0  0  0
   12.3810    5.5990  -59.1760 C   0  0  0  0  0  0  0  0  0  0  0  0
   10.8510    5.6730  -59.0460 C   0  0  2  0  0  0  0  0  0  0  0  0
   10.4410    5.2840  -57.6180 C   0  0  0  0  0  0  0  0  0  0  0  0
   10.2130    4.6880  -60.0400 C   0  0  0  0  0  0  0  0  0  0  0  0
   12.2220    3.1910  -59.8660 C   0  0  0  0  0  0  0  0  0  0  0  0
    6.0590    2.2470  -62.3740 N   0  0  0  0  0  0  0  0  0  0  0  0
    4.6910    2.1280  -62.3000 N   0  0  0  0  0  0  0  0  0  0  0  0
    3.6240    2.1590  -63.1250 C   0  0  0  0  0  0  0  0  0  0  0  0
    2.5310    2.0280  -62.3870 N   0  0  0  0  0  0  0  0  0  0  0  0
    2.9180    1.9000  -61.0460 N   0  0  0  0  0  0  0  0  0  0  0  0
    4.2210    1.9500  -61.0470 C   0  0  0  0  0  0  0  0  0  0  0  0
    5.7440    1.2883  -58.3270 H   0  0  0  0  0  0  0  0  0  0  0  0
    5.6207    3.0683  -58.5349 H   0  0  0  0  0  0  0  0  0  0  0  0
    4.1348    2.0590  -58.5349 H   0  0  0  0  0  0  0  0  0  0  0  0
    8.5370    2.3088  -62.3792 H   0  0  0  0  0  0  0  0  0  0  0  0
    8.7753    3.8945  -61.5773 H   0  0  0  0  0  0  0  0  0  0  0  0
    9.7816    1.3428  -60.2853 H   0  0  0  0  0  0  0  0  0  0  0  0
   10.7192    2.2075  -61.6201 H   0  0  0  0  0  0  0  0  0  0  0  0
    9.1843    2.9217  -58.2058 H   0  0  0  0  0  0  0  0  0  0  0  0
   10.6388    1.8591  -58.0785 H   0  0  0  0  0  0  0  0  0  0  0  0
   10.6239    3.5869  -56.2800 H   0  0  0  0  0  0  0  0  0  0  0  0
   12.9071    4.4925  -56.7279 H   0  0  0  0  0  0  0  0  0  0  0  0
   12.7861    2.7672  -57.2277 H   0  0  0  0  0  0  0  0  0  0  0  0
   13.9612    4.1293  -58.9635 H   0  0  0  0  0  0  0  0  0  0  0  0
   12.8413    6.3005  -58.4647 H   0  0  0  0  0  0  0  0  0  0  0  0
   12.6694    5.8663  -60.2033 H   0  0  0  0  0  0  0  0  0  0  0  0
   10.5104    6.6964  -59.2622 H   0  0  0  0  0  0  0  0  0  0  0  0
   10.8972    5.9855  -56.9041 H   0  0  0  0  0  0  0  0  0  0  0  0
    9.3451    5.3254  -57.5328 H   0  0  0  0  0  0  0  0  0  0  0  0
    9.1182    4.7419  -59.9473 H   0  0  0  0  0  0  0  0  0  0  0  0
   10.5276    4.9637  -61.0574 H   0  0  0  0  0  0  0  0  0  0  0  0
   12.5184    3.4668  -60.8888 H   0  0  0  0  0  0  0  0  0  0  0  0
   12.5660    2.1733  -59.6296 H   0  0  0  0  0  0  0  0  0  0  0  0
    6.3650    3.0910  -62.8410 H   0  0  0  0  0  0  0  0  0  0  0  0
    3.6557    2.2730  -64.2186 H   0  0  0  0  0  0  0  0  0  0  0  0
  1  2  1  0
  2  3  1  0
  3  4  2  0
  4  5  1  0
  5  6  1  0
  7  6  1  6
  7  8  1  0
  8  9  1  0
  9 10  1  0
 10 11  1  0
 11 12  1  0
 12 13  1  0
 13 14  1  0
 13 15  1  0
 11 16  1  0
  3 17  1  0
 17 18  1  0
 18 19  1  0
 19 20  2  0
 20 21  1  0
 21 22  2  0
 22  2  1  0
 15  7  1  0
 22 18  1  0
 16  7  1  0
 14  9  1  0
  1 23  1  0
  1 24  1  0
  1 25  1  0
  5 26  1  0
  5 27  1  0
  6 28  1  0
  6 29  1  0
  8 30  1  0
  8 31  1  0
  9 32  1  1
 10 33  1  0
 10 34  1  0
 11 35  1  1
 12 36  1  0
 12 37  1  0
 13 38  1  6
 14 39  1  0
 14 40  1  0
 15 41  1  0
 15 42  1  0
 16 43  1  0
 16 44  1  0
 17 45  1  0
 19 46  1  0
M  END
>  <meeko>  (96) 
{"is_sidechain": false}

$$$$

     RDKit          3D

 46 50  0  0  0  0  0  0  0  0999 V2000
    7.0010    1.4890  -60.2600 C   0  0  0  0  0  0  0  0  0  0  0  0
    5.7050    2.0110  -59.9230 N   0  0  0  0  0  0  0  0  0  0  0  0
    5.1770    2.3440  -58.6610 C   0  0  0  0  0  0  0  0  0  0  0  0
    5.6360    2.3910  -57.4680 N   0  0  0  0  0  0  0  0  0  0  0  0
    7.0190    2.1090  -57.1280 C   0  0  0  0  0  0  0  0  0  0  0  0
    7.7990    3.4030  -56.8690 C   0  0  0  0  0  0  0  0  0  0  0  0
    9.0430    3.6780  -57.7570 C   0  0  2  0  0  0  0  0  0  0  0  0
   10.1570    4.4490  -57.0090 C   0  0  0  0  0  0  0  0  0  0  0  0
   11.3380    4.7570  -57.9480 C   0  0  1  0  0  0  0  0  0  0  0  0
   11.9140    3.4360  -58.4830 C   0  0  0  0  0  0  0  0  0  0  0  0
   10.8310    2.6660  -59.2580 C   0  0  2  0  0  0  0  0  0  0  0  0
   10.3420    3.5280  -60.4330 C   0  0  0  0  0  0  0  0  0  0  0  0
    9.7620    4.8500  -59.9060 C   0  0  2  0  0  0  0  0  0  0  0  0
   10.8460    5.6100  -59.1260 C   0  0  0  0  0  0  0  0  0  0  0  0
    8.5870    4.5460  -58.9660 C   0  0  0  0  0  0  0  0  0  0  0  0
    9.6500    2.3660  -58.3170 C   0  0  0  0  0  0  0  0  0  0  0  0
    3.8020    2.6140  -58.8440 N   0  0  0  0  0  0  0  0  0  0  0  0
    3.5690    2.2110  -60.1250 N   0  0  0  0  0  0  0  0  0  0  0  0
    2.5340    2.0670  -60.9760 C   0  0  0  0  0  0  0  0  0  0  0  0
    3.0080    1.6130  -62.1270 N   0  0  0  0  0  0  0  0  0  0  0  0
    4.3980    1.4790  -62.0060 N   0  0  0  0  0  0  0  0  0  0  0  0
    4.6880    1.8650  -60.7940 C   0  0  0  0  0  0  0  0  0  0  0  0
    7.5572    1.2650  -59.3378 H   0  0  0  0  0  0  0  0  0  0  0  0
    6.8833    0.5681  -60.8501 H   0  0  0  0  0  0  0  0  0  0  0  0
    7.5544    2.2344  -60.8501 H   0  0  0  0  0  0  0  0  0  0  0  0
    7.0462    1.4857  -56.2220 H   0  0  0  0  0  0  0  0  0  0  0  0
    7.4862    1.5830  -57.9736 H   0  0  0  0  0  0  0  0  0  0  0  0
    7.1017    4.2421  -57.0091 H   0  0  0  0  0  0  0  0  0  0  0  0
    8.1998    3.2906  -55.8508 H   0  0  0  0  0  0  0  0  0  0  0  0
    9.7456    5.3944  -56.6258 H   0  0  0  0  0  0  0  0  0  0  0  0
   10.5209    3.8242  -56.1800 H   0  0  0  0  0  0  0  0  0  0  0  0
   12.1153    5.3065  -57.3967 H   0  0  0  0  0  0  0  0  0  0  0  0
   12.7583    3.6520  -59.1542 H   0  0  0  0  0  0  0  0  0  0  0  0
   12.2577    2.8228  -57.6369 H   0  0  0  0  0  0  0  0  0  0  0  0
   11.2464    1.7218  -59.6400 H   0  0  0  0  0  0  0  0  0  0  0  0
   11.1865    3.7422  -61.1045 H   0  0  0  0  0  0  0  0  0  0  0  0
    9.5599    2.9825  -60.9815 H   0  0  0  0  0  0  0  0  0  0  0  0
    9.4166    5.4632  -60.7514 H   0  0  0  0  0  0  0  0  0  0  0  0
   11.6909    5.8292  -59.7954 H   0  0  0  0  0  0  0  0  0  0  0  0
   10.4231    6.5495  -58.7407 H   0  0  0  0  0  0  0  0  0  0  0  0
    8.1728    5.4937  -58.5913 H   0  0  0  0  0  0  0  0  0  0  0  0
    7.8262    3.9859  -59.5295 H   0  0  0  0  0  0  0  0  0  0  0  0
    8.8749    1.8196  -58.8744 H   0  0  0  0  0  0  0  0  0  0  0  0
   10.0161    1.7602  -57.4750 H   0  0  0  0  0  0  0  0  0  0  0  0
    3.2430    2.1780  -58.1220 H   0  0  0  0  0  0  0  0  0  0  0  0
    1.4796    2.2879  -60.7538 H   0  0  0  0  0  0  0  0  0  0  0  0
  1  2  1  0
  2  3  1  0
  3  4  2  0
  4  5  1  0
  5  6  1  0
  7  6  1  1
  7  8  1  0
  8  9  1  0
  9 10  1  0
 10 11  1  0
 11 12  1  0
 12 13  1  0
 13 14  1  0
 13 15  1  0
 11 16  1  0
  3 17  1  0
 17 18  1  0
 18 19  1  0
 19 20  2  0
 20 21  1  0
 21 22  2  0
 22  2  1  0
 15  7  1  0
 22 18  1  0
 16  7  1  0
 14  9  1  0
  1 23  1  0
  1 24  1  0
  1 25  1  0
  5 26  1  0
  5 27  1  0
  6 28  1  0
  6 29  1  0
  8 30  1  0
  8 31  1  0
  9 32  1  1
 10 33  1  0
 10 34  1  0
 11 35  1  6
 12 36  1  0
 12 37  1  0
 13 38  1  6
 14 39  1  0
 14 40  1  0
 15 41  1  0
 15 42  1  0
 16 43  1  0
 16 44  1  0
 17 45  1  0
 19 46  1  0
M  END
>  <meeko>  (97) 
{"is_sidechain": false}

$$$$

     RDKit          3D

 24 25  0  0  0  0  0  0  0  0999 V2000
    6.6750   -0.3220  -55.2440 O   0  0  0  0  0  0  0  0  0  0  0  0
    7.7040   -0.3890  -54.5630 C   0  0  0  0  0  0  0  0  0  0  0  0
    8.8760    0.3080  -54.9030 N   0  0  0  0  0  0  0  0  0  0  0  0
    9.1430    1.1470  -55.9580 C   0  0  0  0  0  0  0  0  0  0  0  0
   10.3350    1.3430  -56.5400 C   0  0  0  0  0  0  0  0  0  0  0  0
   10.6220    2.2450  -57.6740 C   0  0  0  0  0  0  0  0  0  0  0  0
    9.7530    2.2130  -58.7770 C   0  0  0  0  0  0  0  0  0  0  0  0
    9.9700    3.0410  -59.8810 C   0  0  0  0  0  0  0  0  0  0  0  0
    8.7820    2.9740  -61.3520 Br  0  0  0  0  0  0  0  0  0  0  0  0
   11.0510    3.9150  -59.9110 C   0  0  0  0  0  0  0  0  0  0  0  0
   11.9150    3.9530  -58.8220 C   0  0  0  0  0  0  0  0  0  0  0  0
   13.3920    5.1380  -58.8460 Br  0  0  0  0  0  0  0  0  0  0  0  0
   11.7090    3.1300  -57.7110 C   0  0  0  0  0  0  0  0  0  0  0  0
    7.9650   -1.1460  -53.3240 C   0  0  0  0  0  0  0  0  0  0  0  0
    8.9760   -2.0630  -53.2080 N   0  0  0  0  0  0  0  0  0  0  0  0
    8.8780   -2.5250  -51.9440 N   0  0  0  0  0  0  0  0  0  0  0  0
    7.8490   -1.9130  -51.3210 N   0  0  0  0  0  0  0  0  0  0  0  0
    7.2570   -1.0400  -52.1700 N   0  0  0  0  0  0  0  0  0  0  0  0
    9.6300    0.1380  -54.2300 H   0  0  0  0  0  0  0  0  0  0  0  0
    8.2938    1.7147  -56.3660 H   0  0  0  0  0  0  0  0  0  0  0  0
   11.1842    0.7752  -56.1321 H   0  0  0  0  0  0  0  0  0  0  0  0
    8.8920    1.5284  -58.7714 H   0  0  0  0  0  0  0  0  0  0  0  0
   11.2200    4.5656  -60.7817 H   0  0  0  0  0  0  0  0  0  0  0  0
   12.4044    3.1770  -56.8600 H   0  0  0  0  0  0  0  0  0  0  0  0
  1  2  2  0
  2  3  1  0
  3  4  1  0
  4  5  2  0
  5  6  1  0
  6  7  2  0
  7  8  1  0
  8  9  1  0
  8 10  2  0
 10 11  1  0
 11 12  1  0
 11 13  2  0
  2 14  1  0
 14 15  2  0
 15 16  1  0
 16 17  2  0
 17 18  1  0
 13  6  1  0
 18 14  1  0
  3 19  1  0
  4 20  1  0
  5 21  1  0
  7 22  1  0
 10 23  1  0
 13 24  1  0
M  CHG  1  18  -1
M  END
>  <meeko>  (98) 
{"is_sidechain": false}

$$$$

     RDKit          3D

 24 25  0  0  0  0  0  0  0  0999 V2000
    5.1670    2.0850  -61.8190 O   0  0  0  0  0  0  0  0  0  0  0  0
    5.7450    2.2730  -60.7400 C   0  0  0  0  0  0  0  0  0  0  0  0
    7.1230    2.5330  -60.7040 N   0  0  0  0  0  0  0  0  0  0  0  0
    7.9390    2.6040  -61.8010 C   0  0  0  0  0  0  0  0  0  0  0  0
    9.2300    2.9600  -61.7640 C   0  0  0  0  0  0  0  0  0  0  0  0
   10.0000    3.3050  -60.5640 C   0  0  0  0  0  0  0  0  0  0  0  0
    9.9590    2.5040  -59.4150 C   0  0  0  0  0  0  0  0  0  0  0  0
   10.7220    2.8460  -58.2980 C   0  0  0  0  0  0  0  0  0  0  0  0
   10.6700    1.7510  -56.7580 Br  0  0  0  0  0  0  0  0  0  0  0  0
   11.5340    3.9770  -58.3100 C   0  0  0  0  0  0  0  0  0  0  0  0
   11.5800    4.7670  -59.4580 C   0  0  0  0  0  0  0  0  0  0  0  0
   12.6870    6.3010  -59.4930 Br  0  0  0  0  0  0  0  0  0  0  0  0
   10.8240    4.4360  -60.5820 C   0  0  0  0  0  0  0  0  0  0  0  0
    5.2250    2.2770  -59.3630 C   0  0  0  0  0  0  0  0  0  0  0  0
    3.9250    2.4520  -59.0150 N   0  0  0  0  0  0  0  0  0  0  0  0
    3.9170    2.3770  -57.6630 N   0  0  0  0  0  0  0  0  0  0  0  0
    5.1710    2.1620  -57.2130 N   0  0  0  0  0  0  0  0  0  0  0  0
    6.0180    2.0940  -58.2630 N   0  0  0  0  0  0  0  0  0  0  0  0
    7.4910    2.6890  -59.7640 H   0  0  0  0  0  0  0  0  0  0  0  0
    7.5049    2.3515  -62.7797 H   0  0  0  0  0  0  0  0  0  0  0  0
    9.7636    2.9972  -62.7252 H   0  0  0  0  0  0  0  0  0  0  0  0
    9.3251    1.6053  -59.3936 H   0  0  0  0  0  0  0  0  0  0  0  0
   12.1312    4.2437  -57.4256 H   0  0  0  0  0  0  0  0  0  0  0  0
   10.8754    5.0643  -61.4834 H   0  0  0  0  0  0  0  0  0  0  0  0
  1  2  2  0
  2  3  1  0
  3  4  1  0
  4  5  2  0
  5  6  1  0
  6  7  2  0
  7  8  1  0
  8  9  1  0
  8 10  2  0
 10 11  1  0
 11 12  1  0
 11 13  2  0
  2 14  1  0
 14 15  2  0
 15 16  1  0
 16 17  2  0
 17 18  1  0
 13  6  1  0
 18 14  1  0
  3 19  1  0
  4 20  1  0
  5 21  1  0
  7 22  1  0
 10 23  1  0
 13 24  1  0
M  CHG  1  18  -1
M  END
>  <meeko>  (99) 
{"is_sidechain": false}

$$$$

     RDKit          3D

 71 77  0  0  0  0  0  0  0  0999 V2000
    5.8160    0.1950  -55.4790 C   0  0  0  0  0  0  0  0  0  0  0  0
    6.9860    0.7990  -56.1700 C   0  0  0  0  0  0  0  0  0  0  0  0
    8.3410    0.8520  -55.7170 C   0  0  0  0  0  0  0  0  0  0  0  0
    8.9310    0.2750  -54.4920 C   0  0  0  0  0  0  0  0  0  0  0  0
    9.2710    0.9540  -53.5270 O   0  0  0  0  0  0  0  0  0  0  0  0
    9.1070   -1.0970  -54.5420 N   0  0  0  0  0  0  0  0  0  0  0  0
    9.7820   -1.8300  -53.4900 C   0  0  0  0  0  0  0  0  0  0  0  0
    8.8270   -2.4990  -52.4750 C   0  0  2  0  0  0  0  0  0  0  0  0
    9.6600   -2.9710  -51.2510 C   0  0  0  0  0  0  0  0  0  0  0  0
    8.7590   -3.6380  -50.1990 C   0  0  1  0  0  0  0  0  0  0  0  0
    7.7000   -2.6290  -49.7280 C   0  0  0  0  0  0  0  0  0  0  0  0
    6.8440   -2.1720  -50.9190 C   0  0  2  0  0  0  0  0  0  0  0  0
    6.1540   -3.3940  -51.5470 C   0  0  0  0  0  0  0  0  0  0  0  0
    7.2070   -4.4070  -52.0250 C   0  0  2  0  0  0  0  0  0  0  0  0
    8.0620   -4.8530  -50.8290 C   0  0  0  0  0  0  0  0  0  0  0  0
    8.1120   -3.7360  -53.0760 C   0  0  0  0  0  0  0  0  0  0  0  0
    7.7490   -1.5050  -51.9710 C   0  0  0  0  0  0  0  0  0  0  0  0
    9.1040    1.5350  -56.5830 N   0  0  0  0  0  0  0  0  0  0  0  0
    8.2880    1.8680  -57.5970 N   0  0  0  0  0  0  0  0  0  0  0  0
    8.7920    2.6240  -58.7380 C   0  0  2  0  0  0  0  0  0  0  0  0
   10.2370    2.2910  -59.1110 C   0  0  0  0  0  0  0  0  0  0  0  0
   10.8300    3.4330  -59.5340 C   0  0  0  0  0  0  0  0  0  0  0  0
    9.7840    4.4750  -59.8410 C   0  0  0  0  0  0  0  0  0  0  0  0
    8.9110    4.1950  -58.6020 C   0  0  1  0  0  0  0  0  0  0  0  0
    7.5700    4.9160  -58.6860 C   0  0  0  0  0  0  0  0  0  0  0  0
    9.7570    4.6870  -57.3870 C   0  0  0  0  0  0  0  0  0  0  0  0
   11.1050    4.5830  -57.3550 C   0  0  0  0  0  0  0  0  0  0  0  0
   11.8070    3.9140  -58.5050 C   0  0  0  0  0  0  0  0  0  0  0  0
   13.0130    3.7650  -58.5770 O   0  0  0  0  0  0  0  0  0  0  0  0
    6.9840    1.4710  -57.3840 C   0  0  0  0  0  0  0  0  0  0  0  0
    5.8770    1.7470  -58.2920 C   0  0  0  0  0  0  0  0  0  0  0  0
    5.8820    1.2180  -59.5880 C   0  0  0  0  0  0  0  0  0  0  0  0
    4.8240    1.4830  -60.4580 C   0  0  0  0  0  0  0  0  0  0  0  0
    3.7540    2.2720  -60.0370 C   0  0  0  0  0  0  0  0  0  0  0  0
    3.7380    2.7920  -58.7440 C   0  0  0  0  0  0  0  0  0  0  0  0
    4.7960    2.5290  -57.8720 C   0  0  0  0  0  0  0  0  0  0  0  0
    5.9557    0.2671  -54.3903 H   0  0  0  0  0  0  0  0  0  0  0  0
    4.9014    0.7336  -55.7678 H   0  0  0  0  0  0  0  0  0  0  0  0
    5.7254   -0.8625  -55.7678 H   0  0  0  0  0  0  0  0  0  0  0  0
    8.9540   -1.5600  -55.4260 H   0  0  0  0  0  0  0  0  0  0  0  0
   10.3967   -2.6147  -53.9552 H   0  0  0  0  0  0  0  0  0  0  0  0
   10.3813   -1.0988  -52.9277 H   0  0  0  0  0  0  0  0  0  0  0  0
   10.4170   -3.6946  -51.5879 H   0  0  0  0  0  0  0  0  0  0  0  0
   10.1430   -2.0941  -50.7952 H   0  0  0  0  0  0  0  0  0  0  0  0
    9.3653   -3.9640  -49.3410 H   0  0  0  0  0  0  0  0  0  0  0  0
    7.0534   -3.1040  -48.9755 H   0  0  0  0  0  0  0  0  0  0  0  0
    8.2036   -1.7553  -49.2887 H   0  0  0  0  0  0  0  0  0  0  0  0
    6.0854   -1.4539  -50.5742 H   0  0  0  0  0  0  0  0  0  0  0  0
    5.5047   -3.8703  -50.7977 H   0  0  0  0  0  0  0  0  0  0  0  0
    5.5532   -3.0656  -52.4079 H   0  0  0  0  0  0  0  0  0  0  0  0
    6.7079   -5.2815  -52.4679 H   0  0  0  0  0  0  0  0  0  0  0  0
    7.4164   -5.3323  -50.0783 H   0  0  0  0  0  0  0  0  0  0  0  0
    8.8240   -5.5664  -51.1761 H   0  0  0  0  0  0  0  0  0  0  0  0
    8.8674   -4.4595  -53.4165 H   0  0  0  0  0  0  0  0  0  0  0  0
    7.4889   -3.4080  -53.9210 H   0  0  0  0  0  0  0  0  0  0  0  0
    7.1333   -1.1778  -52.8218 H   0  0  0  0  0  0  0  0  0  0  0  0
    8.2514   -0.6420  -51.5097 H   0  0  0  0  0  0  0  0  0  0  0  0
    8.0145    2.3275  -59.4574 H   0  0  0  0  0  0  0  0  0  0  0  0
   10.7107    1.3003  -59.0472 H   0  0  0  0  0  0  0  0  0  0  0  0
   10.1918    5.4965  -59.8517 H   0  0  0  0  0  0  0  0  0  0  0  0
    9.2934    4.4198  -60.8240 H   0  0  0  0  0  0  0  0  0  0  0  0
    7.1972    5.1164  -57.6707 H   0  0  0  0  0  0  0  0  0  0  0  0
    7.6980    5.8669  -59.2240 H   0  0  0  0  0  0  0  0  0  0  0  0
    6.8474    4.2848  -59.2240 H   0  0  0  0  0  0  0  0  0  0  0  0
    9.2388    5.1343  -56.5260 H   0  0  0  0  0  0  0  0  0  0  0  0
   11.6775    4.9802  -56.5038 H   0  0  0  0  0  0  0  0  0  0  0  0
    6.7225    0.5916  -59.9214 H   0  0  0  0  0  0  0  0  0  0  0  0
    4.8339    1.0691  -61.4771 H   0  0  0  0  0  0  0  0  0  0  0  0
    2.9226    2.4840  -60.7254 H   0  0  0  0  0  0  0  0  0  0  0  0
    2.8913    3.4099  -58.4104 H   0  0  0  0  0  0  0  0  0  0  0  0
    4.7795    2.9382  -56.8511 H   0  0  0  0  0  0  0  0  0  0  0  0
  1  2  1  0
  2  3  1  0
  3  4  1  0
  4  5  2  0
  4  6  1  0
  6  7  1  0
  8  7  1  6
  8  9  1  0
  9 10  1  0
 10 11  1  0
 11 12  1  0
 12 13  1  0
 13 14  1  0
 14 15  1  0
 14 16  1  0
 12 17  1  0
  3 18  2  0
 18 19  1  0
 19 20  1  0
 20 21  1  0
 21 22  2  0
 22 23  1  0
 23 24  1  0
 24 25  1  6
 24 26  1  0
 26 27  2  0
 27 28  1  0
 28 29  2  0
 19 30  1  0
 30 31  1  0
 31 32  2  0
 32 33  1  0
 33 34  2  0
 34 35  1  0
 35 36  2  0
 30  2  2  0
 36 31  1  0
 16  8  1  0
 24 20  1  0
 17  8  1  0
 28 22  1  0
 15 10  1  0
  1 37  1  0
  1 38  1  0
  1 39  1  0
  6 40  1  0
  7 41  1  0
  7 42  1  0
  9 43  1  0
  9 44  1  0
 10 45  1  1
 11 46  1  0
 11 47  1  0
 12 48  1  1
 13 49  1  0
 13 50  1  0
 14 51  1  6
 15 52  1  0
 15 53  1  0
 16 54  1  0
 16 55  1  0
 17 56  1  0
 17 57  1  0
 20 58  1  6
 21 59  1  0
 23 60  1  0
 23 61  1  0
 25 62  1  0
 25 63  1  0
 25 64  1  0
 26 65  1  0
 27 66  1  0
 32 67  1  0
 33 68  1  0
 34 69  1  0
 35 70  1  0
 36 71  1  0
M  END
>  <meeko>  (100) 
{"is_sidechain": false}

$$$$

     RDKit          3D

 71 77  0  0  0  0  0  0  0  0999 V2000
    6.1270    0.1660  -52.8480 C   0  0  0  0  0  0  0  0  0  0  0  0
    7.1440   -0.5030  -53.7010 C   0  0  0  0  0  0  0  0  0  0  0  0
    7.6710   -0.0480  -54.9520 C   0  0  0  0  0  0  0  0  0  0  0  0
    7.3130    1.1650  -55.7150 C   0  0  0  0  0  0  0  0  0  0  0  0
    6.1530    1.5160  -55.9150 O   0  0  0  0  0  0  0  0  0  0  0  0
    8.4050    1.8950  -56.1570 N   0  0  0  0  0  0  0  0  0  0  0  0
    8.2170    3.2010  -56.7550 C   0  0  0  0  0  0  0  0  0  0  0  0
    9.3470    3.6060  -57.7270 C   0  0  2  0  0  0  0  0  0  0  0  0
    9.6620    2.4670  -58.7290 C   0  0  0  0  0  0  0  0  0  0  0  0
   10.7560    2.9040  -59.7200 C   0  0  1  0  0  0  0  0  0  0  0  0
   10.2720    4.1380  -60.4980 C   0  0  0  0  0  0  0  0  0  0  0  0
    9.9770    5.2910  -59.5260 C   0  0  2  0  0  0  0  0  0  0  0  0
   11.2560    5.6400  -58.7490 C   0  0  0  0  0  0  0  0  0  0  0  0
   11.7440    4.4140  -57.9620 C   0  0  2  0  0  0  0  0  0  0  0  0
   12.0320    3.2640  -58.9410 C   0  0  0  0  0  0  0  0  0  0  0  0
   10.6500    3.9750  -56.9730 C   0  0  0  0  0  0  0  0  0  0  0  0
    8.8880    4.8500  -58.5340 C   0  0  0  0  0  0  0  0  0  0  0  0
    8.5950   -0.9030  -55.4180 N   0  0  0  0  0  0  0  0  0  0  0  0
    8.6770   -1.8770  -54.4950 N   0  0  0  0  0  0  0  0  0  0  0  0
    9.6120   -2.9810  -54.6710 C   0  0  1  0  0  0  0  0  0  0  0  0
    9.7230   -3.4150  -56.1340 C   0  0  0  0  0  0  0  0  0  0  0  0
   10.9870   -3.1640  -56.5570 C   0  0  0  0  0  0  0  0  0  0  0  0
   11.6570   -2.1560  -55.6510 C   0  0  0  0  0  0  0  0  0  0  0  0
   11.1320   -2.7440  -54.3320 C   0  0  1  0  0  0  0  0  0  0  0  0
   11.4190   -1.8610  -53.1220 C   0  0  0  0  0  0  0  0  0  0  0  0
   11.8580   -4.1220  -54.1630 C   0  0  0  0  0  0  0  0  0  0  0  0
   12.1820   -4.8920  -55.2280 C   0  0  0  0  0  0  0  0  0  0  0  0
   11.7590   -4.4490  -56.6040 C   0  0  0  0  0  0  0  0  0  0  0  0
   11.9900   -5.0820  -57.6190 O   0  0  0  0  0  0  0  0  0  0  0  0
    7.7980   -1.7000  -53.4480 C   0  0  0  0  0  0  0  0  0  0  0  0
    7.6590   -2.6230  -52.3290 C   0  0  0  0  0  0  0  0  0  0  0  0
    8.4980   -2.5110  -51.2150 C   0  0  0  0  0  0  0  0  0  0  0  0
    8.3550   -3.3870  -50.1380 C   0  0  0  0  0  0  0  0  0  0  0  0
    7.3760   -4.3800  -50.1720 C   0  0  0  0  0  0  0  0  0  0  0  0
    6.5420   -4.5010  -51.2820 C   0  0  0  0  0  0  0  0  0  0  0  0
    6.6830   -3.6260  -52.3610 C   0  0  0  0  0  0  0  0  0  0  0  0
    6.3733    0.0040  -51.7883 H   0  0  0  0  0  0  0  0  0  0  0  0
    6.1211    1.2449  -53.0622 H   0  0  0  0  0  0  0  0  0  0  0  0
    5.1339   -0.2558  -53.0622 H   0  0  0  0  0  0  0  0  0  0  0  0
    9.2690    1.7150  -55.6660 H   0  0  0  0  0  0  0  0  0  0  0  0
    7.2670    3.1958  -57.3094 H   0  0  0  0  0  0  0  0  0  0  0  0
    8.2196    3.9341  -55.9349 H   0  0  0  0  0  0  0  0  0  0  0  0
   10.0092    1.5831  -58.1740 H   0  0  0  0  0  0  0  0  0  0  0  0
    8.7481    2.2278  -59.2926 H   0  0  0  0  0  0  0  0  0  0  0  0
   10.9692    2.0839  -60.4214 H   0  0  0  0  0  0  0  0  0  0  0  0
   11.0526    4.4504  -61.2073 H   0  0  0  0  0  0  0  0  0  0  0  0
    9.3519    3.8821  -61.0439 H   0  0  0  0  0  0  0  0  0  0  0  0
    9.6335    6.1713  -60.0891 H   0  0  0  0  0  0  0  0  0  0  0  0
   12.0378    5.9536  -59.4564 H   0  0  0  0  0  0  0  0  0  0  0  0
   11.0394    6.4576  -58.0457 H   0  0  0  0  0  0  0  0  0  0  0  0
   12.6606    4.6704  -57.4105 H   0  0  0  0  0  0  0  0  0  0  0  0
   12.8149    3.5752  -59.6483 H   0  0  0  0  0  0  0  0  0  0  0  0
   12.3694    2.3836  -58.3744 H   0  0  0  0  0  0  0  0  0  0  0  0
   11.0025    3.0980  -56.4104 H   0  0  0  0  0  0  0  0  0  0  0  0
   10.4381    4.8082  -56.2868 H   0  0  0  0  0  0  0  0  0  0  0  0
    8.6799    5.6751  -57.8370 H   0  0  0  0  0  0  0  0  0  0  0  0
    7.9817    4.5880  -59.0996 H   0  0  0  0  0  0  0  0  0  0  0  0
    9.1607   -3.6927  -53.9640 H   0  0  0  0  0  0  0  0  0  0  0  0
    8.9163   -3.8550  -56.7388 H   0  0  0  0  0  0  0  0  0  0  0  0
   12.7543   -2.1857  -55.7216 H   0  0  0  0  0  0  0  0  0  0  0  0
   11.4470   -1.0935  -55.8434 H   0  0  0  0  0  0  0  0  0  0  0  0
   11.2337   -2.4312  -52.1998 H   0  0  0  0  0  0  0  0  0  0  0  0
   12.4693   -1.5351  -53.1468 H   0  0  0  0  0  0  0  0  0  0  0  0
   10.7610   -0.9798  -53.1468 H   0  0  0  0  0  0  0  0  0  0  0  0
   12.1112   -4.4732  -53.1518 H   0  0  0  0  0  0  0  0  0  0  0  0
   12.7454   -5.8267  -55.0907 H   0  0  0  0  0  0  0  0  0  0  0  0
    9.2725   -1.7303  -51.1879 H   0  0  0  0  0  0  0  0  0  0  0  0
    9.0143   -3.2944  -49.2624 H   0  0  0  0  0  0  0  0  0  0  0  0
    7.2621   -5.0684  -49.3217 H   0  0  0  0  0  0  0  0  0  0  0  0
    5.7722   -5.2863  -51.3081 H   0  0  0  0  0  0  0  0  0  0  0  0
    6.0260   -3.7250  -53.2377 H   0  0  0  0  0  0  0  0  0  0  0  0
  1  2  1  0
  2  3  1  0
  3  4  1  0
  4  5  2  0
  4  6  1  0
  6  7  1  0
  8  7  1  1
  8  9  1  0
  9 10  1  0
 10 11  1  0
 11 12  1  0
 12 13  1  0
 13 14  1  0
 14 15  1  0
 14 16  1  0
 12 17  1  0
  3 18  2  0
 18 19  1  0
 19 20  1  0
 20 21  1  0
 21 22  2  0
 22 23  1  0
 23 24  1  0
 24 25  1  1
 24 26  1  0
 26 27  2  0
 27 28  1  0
 28 29  2  0
 19 30  1  0
 30 31  1  0
 31 32  2  0
 32 33  1  0
 33 34  2  0
 34 35  1  0
 35 36  2  0
 30  2  2  0
 36 31  1  0
 16  8  1  0
 24 20  1  0
 17  8  1  0
 28 22  1  0
 15 10  1  0
  1 37  1  0
  1 38  1  0
  1 39  1  0
  6 40  1  0
  7 41  1  0
  7 42  1  0
  9 43  1  0
  9 44  1  0
 10 45  1  6
 11 46  1  0
 11 47  1  0
 12 48  1  6
 13 49  1  0
 13 50  1  0
 14 51  1  1
 15 52  1  0
 15 53  1  0
 16 54  1  0
 16 55  1  0
 17 56  1  0
 17 57  1  0
 20 58  1  1
 21 59  1  0
 23 60  1  0
 23 61  1  0
 25 62  1  0
 25 63  1  0
 25 64  1  0
 26 65  1  0
 27 66  1  0
 32 67  1  0
 33 68  1  0
 34 69  1  0
 35 70  1  0
 36 71  1  0
M  END
>  <meeko>  (101) 
{"is_sidechain": false}

$$$$

     RDKit          3D

 71 77  0  0  0  0  0  0  0  0999 V2000
    5.9110    0.1050  -55.5260 C   0  0  0  0  0  0  0  0  0  0  0  0
    7.1340    0.7610  -56.0590 C   0  0  0  0  0  0  0  0  0  0  0  0
    8.4300    0.8070  -55.4630 C   0  0  0  0  0  0  0  0  0  0  0  0
    8.9030    0.1690  -54.2180 C   0  0  0  0  0  0  0  0  0  0  0  0
    9.0250    0.7730  -53.1570 O   0  0  0  0  0  0  0  0  0  0  0  0
    9.2410   -1.1670  -54.3590 N   0  0  0  0  0  0  0  0  0  0  0  0
    9.8300   -1.9340  -53.2810 C   0  0  0  0  0  0  0  0  0  0  0  0
    8.7960   -2.6200  -52.3590 C   0  0  2  0  0  0  0  0  0  0  0  0
    8.1660   -3.8720  -53.0210 C   0  0  0  0  0  0  0  0  0  0  0  0
    7.1780   -4.5570  -52.0610 C   0  0  1  0  0  0  0  0  0  0  0  0
    7.9210   -4.9860  -50.7850 C   0  0  0  0  0  0  0  0  0  0  0  0
    8.5320   -3.7560  -50.0960 C   0  0  2  0  0  0  0  0  0  0  0  0
    7.4120   -2.7670  -49.7330 C   0  0  0  0  0  0  0  0  0  0  0  0
    6.6650   -2.3290  -51.0030 C   0  0  2  0  0  0  0  0  0  0  0  0
    6.0630   -3.5660  -51.6900 C   0  0  0  0  0  0  0  0  0  0  0  0
    7.6550   -1.6470  -51.9650 C   0  0  0  0  0  0  0  0  0  0  0  0
    9.5150   -3.0730  -51.0590 C   0  0  0  0  0  0  0  0  0  0  0  0
    9.2620    1.5510  -56.2070 N   0  0  0  0  0  0  0  0  0  0  0  0
    8.5450    1.9420  -57.2830 N   0  0  0  0  0  0  0  0  0  0  0  0
    9.2690    2.7690  -58.2490 C   0  0  2  0  0  0  0  0  0  0  0  0
   10.7480    2.4660  -58.4550 C   0  0  0  0  0  0  0  0  0  0  0  0
   11.4700    3.5250  -58.0130 C   0  0  0  0  0  0  0  0  0  0  0  0
   10.6320    4.3780  -57.0970 C   0  0  0  0  0  0  0  0  0  0  0  0
    9.3470    4.3140  -57.9350 C   0  0  2  0  0  0  0  0  0  0  0  0
    8.1630    4.9320  -57.1980 C   0  0  0  0  0  0  0  0  0  0  0  0
    9.6440    5.1200  -59.2410 C   0  0  0  0  0  0  0  0  0  0  0  0
   10.8770    5.1480  -59.7990 C   0  0  0  0  0  0  0  0  0  0  0  0
   11.9720    4.3140  -59.1850 C   0  0  0  0  0  0  0  0  0  0  0  0
   13.1130    4.2770  -59.6070 O   0  0  0  0  0  0  0  0  0  0  0  0
    7.2420    1.4980  -57.2340 C   0  0  0  0  0  0  0  0  0  0  0  0
    6.1880    1.7820  -58.2030 C   0  0  0  0  0  0  0  0  0  0  0  0
    6.2660    1.2650  -59.5010 C   0  0  0  0  0  0  0  0  0  0  0  0
    5.2460    1.5170  -60.4210 C   0  0  0  0  0  0  0  0  0  0  0  0
    4.1360    2.2710  -60.0420 C   0  0  0  0  0  0  0  0  0  0  0  0
    4.0400    2.7680  -58.7430 C   0  0  0  0  0  0  0  0  0  0  0  0
    5.0590    2.5180  -57.8220 C   0  0  0  0  0  0  0  0  0  0  0  0
    5.9370    0.1190  -54.4264 H   0  0  0  0  0  0  0  0  0  0  0  0
    5.0210    0.6468  -55.8786 H   0  0  0  0  0  0  0  0  0  0  0  0
    5.8701   -0.9361  -55.8786 H   0  0  0  0  0  0  0  0  0  0  0  0
    9.2620   -1.5540  -55.2910 H   0  0  0  0  0  0  0  0  0  0  0  0
   10.4714   -2.7121  -53.7205 H   0  0  0  0  0  0  0  0  0  0  0  0
   10.3922   -1.2245  -52.6560 H   0  0  0  0  0  0  0  0  0  0  0  0
    7.6311   -3.5676  -53.9327 H   0  0  0  0  0  0  0  0  0  0  0  0
    8.9686   -4.5825  -53.2680 H   0  0  0  0  0  0  0  0  0  0  0  0
    6.7418   -5.4412  -52.5487 H   0  0  0  0  0  0  0  0  0  0  0  0
    7.2141   -5.4749  -50.0985 H   0  0  0  0  0  0  0  0  0  0  0  0
    8.7250   -5.6872  -51.0530 H   0  0  0  0  0  0  0  0  0  0  0  0
    9.0607   -4.0684  -49.1834 H   0  0  0  0  0  0  0  0  0  0  0  0
    6.7055   -3.2535  -49.0444 H   0  0  0  0  0  0  0  0  0  0  0  0
    7.8538   -1.8825  -49.2509 H   0  0  0  0  0  0  0  0  0  0  0  0
    5.8625   -1.6256  -50.7360 H   0  0  0  0  0  0  0  0  0  0  0  0
    5.3547   -4.0546  -51.0047 H   0  0  0  0  0  0  0  0  0  0  0  0
    5.5403   -3.2517  -52.6054 H   0  0  0  0  0  0  0  0  0  0  0  0
    7.1184   -1.3335  -52.8726 H   0  0  0  0  0  0  0  0  0  0  0  0
    8.0939   -0.7739  -51.4599 H   0  0  0  0  0  0  0  0  0  0  0  0
    9.9511   -2.1929  -50.5637 H   0  0  0  0  0  0  0  0  0  0  0  0
   10.3018   -3.7938  -51.3264 H   0  0  0  0  0  0  0  0  0  0  0  0
    8.6408    2.5122  -59.1147 H   0  0  0  0  0  0  0  0  0  0  0  0
   11.1605    1.5434  -58.8892 H   0  0  0  0  0  0  0  0  0  0  0  0
   10.5092    3.9332  -56.0985 H   0  0  0  0  0  0  0  0  0  0  0  0
   11.0195    5.3783  -56.8538 H   0  0  0  0  0  0  0  0  0  0  0  0
    8.3226    4.8487  -56.1128 H   0  0  0  0  0  0  0  0  0  0  0  0
    8.0719    5.9927  -57.4749 H   0  0  0  0  0  0  0  0  0  0  0  0
    7.2407    4.4003  -57.4749 H   0  0  0  0  0  0  0  0  0  0  0  0
    8.8278    5.6804  -59.7203 H   0  0  0  0  0  0  0  0  0  0  0  0
   11.0763    5.7686  -60.6851 H   0  0  0  0  0  0  0  0  0  0  0  0
    7.1339    0.6579  -59.7978 H   0  0  0  0  0  0  0  0  0  0  0  0
    5.3182    1.1207  -61.4446 H   0  0  0  0  0  0  0  0  0  0  0  0
    3.3354    2.4739  -60.7686 H   0  0  0  0  0  0  0  0  0  0  0  0
    3.1609    3.3575  -58.4436 H   0  0  0  0  0  0  0  0  0  0  0  0
    4.9749    2.9002  -56.7940 H   0  0  0  0  0  0  0  0  0  0  0  0
  1  2  1  0
  2  3  1  0
  3  4  1  0
  4  5  2  0
  4  6  1  0
  6  7  1  0
  8  7  1  6
  8  9  1  0
  9 10  1  0
 10 11  1  0
 11 12  1  0
 12 13  1  0
 13 14  1  0
 14 15  1  0
 14 16  1  0
 12 17  1  0
  3 18  2  0
 18 19  1  0
 19 20  1  0
 20 21  1  0
 21 22  2  0
 22 23  1  0
 23 24  1  0
 24 25  1  1
 24 26  1  0
 26 27  2  0
 27 28  1  0
 28 29  2  0
 19 30  1  0
 30 31  1  0
 31 32  2  0
 32 33  1  0
 33 34  2  0
 34 35  1  0
 35 36  2  0
 30  2  2  0
 36 31  1  0
 16  8  1  0
 24 20  1  0
 17  8  1  0
 28 22  1  0
 15 10  1  0
  1 37  1  0
  1 38  1  0
  1 39  1  0
  6 40  1  0
  7 41  1  0
  7 42  1  0
  9 43  1  0
  9 44  1  0
 10 45  1  6
 11 46  1  0
 11 47  1  0
 12 48  1  1
 13 49  1  0
 13 50  1  0
 14 51  1  1
 15 52  1  0
 15 53  1  0
 16 54  1  0
 16 55  1  0
 17 56  1  0
 17 57  1  0
 20 58  1  6
 21 59  1  0
 23 60  1  0
 23 61  1  0
 25 62  1  0
 25 63  1  0
 25 64  1  0
 26 65  1  0
 27 66  1  0
 32 67  1  0
 33 68  1  0
 34 69  1  0
 35 70  1  0
 36 71  1  0
M  END
>  <meeko>  (102) 
{"is_sidechain": false}

$$$$

     RDKit          3D

 71 77  0  0  0  0  0  0  0  0999 V2000
    5.5400   -0.0310  -53.1470 C   0  0  0  0  0  0  0  0  0  0  0  0
    6.7260   -0.6540  -53.7960 C   0  0  0  0  0  0  0  0  0  0  0  0
    7.3680   -0.2490  -55.0030 C   0  0  0  0  0  0  0  0  0  0  0  0
    7.0550    0.8950  -55.8810 C   0  0  0  0  0  0  0  0  0  0  0  0
    5.9570    1.4460  -55.8980 O   0  0  0  0  0  0  0  0  0  0  0  0
    8.0960    1.2760  -56.7080 N   0  0  0  0  0  0  0  0  0  0  0  0
    7.9550    2.3150  -57.7070 C   0  0  0  0  0  0  0  0  0  0  0  0
    9.2720    3.0500  -58.0450 C   0  0  2  0  0  0  0  0  0  0  0  0
   10.5110    2.3230  -57.4640 C   0  0  0  0  0  0  0  0  0  0  0  0
   11.8070    3.0530  -57.8590 C   0  0  1  0  0  0  0  0  0  0  0  0
   11.9230    3.0950  -59.3900 C   0  0  0  0  0  0  0  0  0  0  0  0
   10.7180    3.8380  -59.9870 C   0  0  2  0  0  0  0  0  0  0  0  0
   10.6770    5.2710  -59.4330 C   0  0  0  0  0  0  0  0  0  0  0  0
   10.5550    5.2400  -57.9010 C   0  0  2  0  0  0  0  0  0  0  0  0
   11.7620    4.4900  -57.3130 C   0  0  0  0  0  0  0  0  0  0  0  0
    9.2610    4.5060  -57.5080 C   0  0  0  0  0  0  0  0  0  0  0  0
    9.4250    3.1070  -59.5890 C   0  0  0  0  0  0  0  0  0  0  0  0
    8.3880   -1.0680  -55.2890 N   0  0  0  0  0  0  0  0  0  0  0  0
    8.3970   -2.0060  -54.3120 N   0  0  0  0  0  0  0  0  0  0  0  0
    9.4280   -3.0390  -54.4700 C   0  0  1  0  0  0  0  0  0  0  0  0
    9.6710   -3.6930  -55.8230 C   0  0  0  0  0  0  0  0  0  0  0  0
   11.0060   -3.8810  -55.9600 C   0  0  0  0  0  0  0  0  0  0  0  0
   11.6840   -3.7680  -54.6190 C   0  0  0  0  0  0  0  0  0  0  0  0
   10.8880   -2.5420  -54.1380 C   0  0  2  0  0  0  0  0  0  0  0  0
   11.1560   -2.2680  -52.6610 C   0  0  0  0  0  0  0  0  0  0  0  0
   11.3580   -1.3540  -55.0280 C   0  0  0  0  0  0  0  0  0  0  0  0
   11.7220   -1.5320  -56.3200 C   0  0  0  0  0  0  0  0  0  0  0  0
   11.5720   -2.8980  -56.9380 C   0  0  0  0  0  0  0  0  0  0  0  0
   11.8720   -3.1600  -58.0890 O   0  0  0  0  0  0  0  0  0  0  0  0
    7.4350   -1.7660  -53.3540 C   0  0  0  0  0  0  0  0  0  0  0  0
    7.2010   -2.5220  -52.1310 C   0  0  0  0  0  0  0  0  0  0  0  0
    6.2930   -3.5890  -52.1320 C   0  0  0  0  0  0  0  0  0  0  0  0
    6.0780   -4.3290  -50.9680 C   0  0  0  0  0  0  0  0  0  0  0  0
    6.7810   -4.0180  -49.8050 C   0  0  0  0  0  0  0  0  0  0  0  0
    7.7080   -2.9770  -49.8070 C   0  0  0  0  0  0  0  0  0  0  0  0
    7.9270   -2.2380  -50.9710 C   0  0  0  0  0  0  0  0  0  0  0  0
    5.6482   -0.0878  -52.0538 H   0  0  0  0  0  0  0  0  0  0  0  0
    5.4654    1.0227  -53.4538 H   0  0  0  0  0  0  0  0  0  0  0  0
    4.6301   -0.5675  -53.4538 H   0  0  0  0  0  0  0  0  0  0  0  0
    8.9100    0.6780  -56.7490 H   0  0  0  0  0  0  0  0  0  0  0  0
    7.5688    1.8568  -58.6295 H   0  0  0  0  0  0  0  0  0  0  0  0
    7.2712    3.0674  -57.2871 H   0  0  0  0  0  0  0  0  0  0  0  0
   10.4321    2.2960  -56.3672 H   0  0  0  0  0  0  0  0  0  0  0  0
   10.5435    1.3013  -57.8704 H   0  0  0  0  0  0  0  0  0  0  0  0
   12.6741    2.5219  -57.4394 H   0  0  0  0  0  0  0  0  0  0  0  0
   12.8492    3.6176  -59.6711 H   0  0  0  0  0  0  0  0  0  0  0  0
   11.9427    2.0664  -59.7794 H   0  0  0  0  0  0  0  0  0  0  0  0
   10.8085    3.8669  -61.0829 H   0  0  0  0  0  0  0  0  0  0  0  0
   11.6015    5.7966  -59.7141 H   0  0  0  0  0  0  0  0  0  0  0  0
    9.8064    5.7956  -59.8536 H   0  0  0  0  0  0  0  0  0  0  0  0
   10.5297    6.2680  -57.5104 H   0  0  0  0  0  0  0  0  0  0  0  0
   12.6877    5.0146  -57.5920 H   0  0  0  0  0  0  0  0  0  0  0  0
   11.6670    4.4566  -56.2176 H   0  0  0  0  0  0  0  0  0  0  0  0
    9.1760    4.4859  -56.4115 H   0  0  0  0  0  0  0  0  0  0  0  0
    8.4047    5.0387  -57.9473 H   0  0  0  0  0  0  0  0  0  0  0  0
    8.5635    3.6409  -60.0166 H   0  0  0  0  0  0  0  0  0  0  0  0
    9.4705    2.0781  -59.9753 H   0  0  0  0  0  0  0  0  0  0  0  0
    8.9628   -3.7549  -53.7764 H   0  0  0  0  0  0  0  0  0  0  0  0
    8.8998   -3.9647  -56.5588 H   0  0  0  0  0  0  0  0  0  0  0  0
   11.5240   -4.6534  -53.9861 H   0  0  0  0  0  0  0  0  0  0  0  0
   12.7809   -3.6860  -54.6170 H   0  0  0  0  0  0  0  0  0  0  0  0
   10.5185   -2.9198  -52.0456 H   0  0  0  0  0  0  0  0  0  0  0  0
   12.2134   -2.4714  -52.4363 H   0  0  0  0  0  0  0  0  0  0  0  0
   10.9293   -1.2153  -52.4363 H   0  0  0  0  0  0  0  0  0  0  0  0
   11.3953   -0.3432  -54.5957 H   0  0  0  0  0  0  0  0  0  0  0  0
   12.1208   -0.6929  -56.9089 H   0  0  0  0  0  0  0  0  0  0  0  0
    5.7479   -3.8444  -53.0527 H   0  0  0  0  0  0  0  0  0  0  0  0
    5.3541   -5.1572  -50.9684 H   0  0  0  0  0  0  0  0  0  0  0  0
    6.6040   -4.5945  -48.8851 H   0  0  0  0  0  0  0  0  0  0  0  0
    8.2674   -2.7376  -48.8906 H   0  0  0  0  0  0  0  0  0  0  0  0
    8.6732   -1.4298  -50.9752 H   0  0  0  0  0  0  0  0  0  0  0  0
  1  2  1  0
  2  3  1  0
  3  4  1  0
  4  5  2  0
  4  6  1  0
  6  7  1  0
  8  7  1  6
  8  9  1  0
  9 10  1  0
 10 11  1  0
 11 12  1  0
 12 13  1  0
 13 14  1  0
 14 15  1  0
 14 16  1  0
 12 17  1  0
  3 18  2  0
 18 19  1  0
 19 20  1  0
 20 21  1  0
 21 22  2  0
 22 23  1  0
 23 24  1  0
 24 25  1  1
 24 26  1  0
 26 27  2  0
 27 28  1  0
 28 29  2  0
 19 30  1  0
 30 31  1  0
 31 32  2  0
 32 33  1  0
 33 34  2  0
 34 35  1  0
 35 36  2  0
 30  2  2  0
 36 31  1  0
 16  8  1  0
 24 20  1  0
 17  8  1  0
 28 22  1  0
 15 10  1  0
  1 37  1  0
  1 38  1  0
  1 39  1  0
  6 40  1  0
  7 41  1  0
  7 42  1  0
  9 43  1  0
  9 44  1  0
 10 45  1  1
 11 46  1  0
 11 47  1  0
 12 48  1  6
 13 49  1  0
 13 50  1  0
 14 51  1  1
 15 52  1  0
 15 53  1  0
 16 54  1  0
 16 55  1  0
 17 56  1  0
 17 57  1  0
 20 58  1  1
 21 59  1  0
 23 60  1  0
 23 61  1  0
 25 62  1  0
 25 63  1  0
 25 64  1  0
 26 65  1  0
 27 66  1  0
 32 67  1  0
 33 68  1  0
 34 69  1  0
 35 70  1  0
 36 71  1  0
M  END
>  <meeko>  (103) 
{"is_sidechain": false}

$$$$

     RDKit          3D

 43 45  0  0  0  0  0  0  0  0999 V2000
   12.0020    3.3600  -59.4680 C   0  0  0  0  0  0  0  0  0  0  0  0
   11.9230    4.6320  -58.6100 C   0  0  0  0  0  0  0  0  0  0  0  0
   11.5200    5.8060  -59.5150 C   0  0  0  0  0  0  0  0  0  0  0  0
   13.2920    4.8680  -57.9600 C   0  0  0  0  0  0  0  0  0  0  0  0
   10.9190    4.3430  -57.6150 O   0  0  0  0  0  0  0  0  0  0  0  0
    9.6130    4.3090  -58.0180 C   0  0  0  0  0  0  0  0  0  0  0  0
    8.7860    3.3340  -57.6350 C   0  0  0  0  0  0  0  0  0  0  0  0
    9.0390    2.2290  -56.7950 N   0  0  0  0  0  0  0  0  0  0  0  0
    7.7820    1.7300  -56.4970 N   0  0  0  0  0  0  0  0  0  0  0  0
    7.2340    0.8080  -55.6660 C   0  0  0  0  0  0  0  0  0  0  0  0
    7.9250   -0.0020  -54.6930 C   0  0  0  0  0  0  0  0  0  0  0  0
    8.9720    0.3290  -54.1420 O   0  0  0  0  0  0  0  0  0  0  0  0
    7.3430   -1.2360  -54.4430 N   0  0  0  0  0  0  0  0  0  0  0  0
    8.1850   -2.3680  -54.1170 C   0  0  0  0  0  0  0  0  0  0  0  0
    7.8940   -2.8640  -52.7080 C   0  0  0  0  0  0  0  0  0  0  0  0
    8.8390   -2.6600  -51.7050 C   0  0  0  0  0  0  0  0  0  0  0  0
    8.5440   -3.0720  -50.4090 C   0  0  0  0  0  0  0  0  0  0  0  0
    7.3140   -3.6610  -50.1420 C   0  0  0  0  0  0  0  0  0  0  0  0
    6.4240   -3.8230  -51.1890 C   0  0  0  0  0  0  0  0  0  0  0  0
    6.6790   -3.4480  -52.4670 N   0  0  0  0  0  0  0  0  0  0  0  0
    5.9150    0.8500  -55.8530 N   0  0  0  0  0  0  0  0  0  0  0  0
    5.6220    1.8180  -56.8270 N   0  0  0  0  0  0  0  0  0  0  0  0
    6.7740    2.3270  -57.1670 C   0  0  0  0  0  0  0  0  0  0  0  0
    7.2900    3.3730  -57.9870 C   0  0  0  0  0  0  0  0  0  0  0  0
    6.7410    4.1510  -58.7490 O   0  0  0  0  0  0  0  0  0  0  0  0
   12.0568    2.4784  -58.8125 H   0  0  0  0  0  0  0  0  0  0  0  0
   11.1065    3.2898  -60.1029 H   0  0  0  0  0  0  0  0  0  0  0  0
   12.8993    3.4011  -60.1029 H   0  0  0  0  0  0  0  0  0  0  0  0
   11.2254    6.6641  -58.8930 H   0  0  0  0  0  0  0  0  0  0  0  0
   12.3725    6.0889  -60.1500 H   0  0  0  0  0  0  0  0  0  0  0  0
   10.6735    5.5057  -60.1500 H   0  0  0  0  0  0  0  0  0  0  0  0
   13.1861    4.8498  -56.8653 H   0  0  0  0  0  0  0  0  0  0  0  0
   13.9884    4.0767  -58.2743 H   0  0  0  0  0  0  0  0  0  0  0  0
   13.6833    5.8468  -58.2743 H   0  0  0  0  0  0  0  0  0  0  0  0
    9.2341    5.1058  -58.6749 H   0  0  0  0  0  0  0  0  0  0  0  0
    9.6090    2.4880  -55.9790 H   0  0  0  0  0  0  0  0  0  0  0  0
    6.5190   -1.4920  -54.9730 H   0  0  0  0  0  0  0  0  0  0  0  0
    7.9919   -3.1802  -54.8332 H   0  0  0  0  0  0  0  0  0  0  0  0
    9.2379   -2.0543  -54.1721 H   0  0  0  0  0  0  0  0  0  0  0  0
    9.8025   -2.1811  -51.9337 H   0  0  0  0  0  0  0  0  0  0  0  0
    9.2786   -2.9325  -49.6022 H   0  0  0  0  0  0  0  0  0  0  0  0
    7.0547   -3.9899  -49.1248 H   0  0  0  0  0  0  0  0  0  0  0  0
    5.4495   -4.2844  -50.9712 H   0  0  0  0  0  0  0  0  0  0  0  0
  1  2  1  0
  2  3  1  0
  2  4  1  0
  2  5  1  0
  5  6  1  0
  6  7  2  0
  7  8  1  0
  8  9  1  0
  9 10  1  0
 10 11  1  0
 11 12  2  0
 11 13  1  0
 13 14  1  0
 14 15  1  0
 15 16  2  0
 16 17  1  0
 17 18  2  0
 18 19  1  0
 19 20  2  0
 10 21  2  0
 21 22  1  0
 22 23  2  0
 23 24  1  0
 24 25  2  0
 24  7  1  0
 23  9  1  0
 20 15  1  0
  1 26  1  0
  1 27  1  0
  1 28  1  0
  3 29  1  0
  3 30  1  0
  3 31  1  0
  4 32  1  0
  4 33  1  0
  4 34  1  0
  6 35  1  0
  8 36  1  0
 13 37  1  0
 14 38  1  0
 14 39  1  0
 16 40  1  0
 17 41  1  0
 18 42  1  0
 19 43  1  0
M  END
>  <meeko>  (104) 
{"is_sidechain": false}

$$$$

     RDKit          3D

 43 45  0  0  0  0  0  0  0  0999 V2000
   12.4980    3.7930  -59.3510 C   0  0  0  0  0  0  0  0  0  0  0  0
   11.3550    4.8080  -59.4990 C   0  0  0  0  0  0  0  0  0  0  0  0
   11.9580    6.1770  -59.8480 C   0  0  0  0  0  0  0  0  0  0  0  0
   10.4060    4.3200  -60.6000 C   0  0  0  0  0  0  0  0  0  0  0  0
   10.6960    4.8150  -58.2170 O   0  0  0  0  0  0  0  0  0  0  0  0
   10.7570    3.6870  -57.4560 C   0  0  0  0  0  0  0  0  0  0  0  0
    9.6910    2.9440  -57.1400 C   0  0  0  0  0  0  0  0  0  0  0  0
    9.6680    1.8090  -56.2920 N   0  0  0  0  0  0  0  0  0  0  0  0
    8.3160    1.5200  -56.1450 N   0  0  0  0  0  0  0  0  0  0  0  0
    7.5460    0.6770  -55.4110 C   0  0  0  0  0  0  0  0  0  0  0  0
    8.0010   -0.2570  -54.4110 C   0  0  0  0  0  0  0  0  0  0  0  0
    8.8920   -0.0170  -53.5990 O   0  0  0  0  0  0  0  0  0  0  0  0
    7.3920   -1.5040  -54.4580 N   0  0  0  0  0  0  0  0  0  0  0  0
    8.1730   -2.6760  -54.1260 C   0  0  0  0  0  0  0  0  0  0  0  0
    7.8990   -3.1220  -52.6960 C   0  0  0  0  0  0  0  0  0  0  0  0
    8.9020   -2.9730  -51.7400 C   0  0  0  0  0  0  0  0  0  0  0  0
    8.6440   -3.3550  -50.4270 C   0  0  0  0  0  0  0  0  0  0  0  0
    7.3960   -3.8670  -50.0980 C   0  0  0  0  0  0  0  0  0  0  0  0
    6.4480   -3.9760  -51.1010 C   0  0  0  0  0  0  0  0  0  0  0  0
    6.6560   -3.6160  -52.3910 N   0  0  0  0  0  0  0  0  0  0  0  0
    6.2780    0.9400  -55.7210 N   0  0  0  0  0  0  0  0  0  0  0  0
    6.2460    1.9700  -56.6740 N   0  0  0  0  0  0  0  0  0  0  0  0
    7.4930    2.2940  -56.8800 C   0  0  0  0  0  0  0  0  0  0  0  0
    8.2500    3.2520  -57.6160 C   0  0  0  0  0  0  0  0  0  0  0  0
    7.8850    4.1050  -58.4050 O   0  0  0  0  0  0  0  0  0  0  0  0
   12.6962    3.6170  -58.2834 H   0  0  0  0  0  0  0  0  0  0  0  0
   12.2119    2.8459  -59.8318 H   0  0  0  0  0  0  0  0  0  0  0  0
   13.4046    4.1891  -59.8318 H   0  0  0  0  0  0  0  0  0  0  0  0
   12.1969    6.7194  -58.9213 H   0  0  0  0  0  0  0  0  0  0  0  0
   12.8764    6.0339  -60.4363 H   0  0  0  0  0  0  0  0  0  0  0  0
   11.2325    6.7580  -60.4363 H   0  0  0  0  0  0  0  0  0  0  0  0
    9.5168    3.8627  -60.1415 H   0  0  0  0  0  0  0  0  0  0  0  0
   10.0995    5.1723  -61.2242 H   0  0  0  0  0  0  0  0  0  0  0  0
   10.9209    3.5748  -61.2242 H   0  0  0  0  0  0  0  0  0  0  0  0
   11.7403    3.3687  -57.0795 H   0  0  0  0  0  0  0  0  0  0  0  0
   10.1270    1.9970  -55.3900 H   0  0  0  0  0  0  0  0  0  0  0  0
    6.7040   -1.6690  -55.1810 H   0  0  0  0  0  0  0  0  0  0  0  0
    7.9093   -3.4920  -54.8149 H   0  0  0  0  0  0  0  0  0  0  0  0
    9.2402   -2.4260  -54.2187 H   0  0  0  0  0  0  0  0  0  0  0  0
    9.8825   -2.5598  -52.0190 H   0  0  0  0  0  0  0  0  0  0  0  0
    9.4221   -3.2522  -49.6563 H   0  0  0  0  0  0  0  0  0  0  0  0
    7.1667   -4.1777  -49.0680 H   0  0  0  0  0  0  0  0  0  0  0  0
    5.4611   -4.3814  -50.8334 H   0  0  0  0  0  0  0  0  0  0  0  0
  1  2  1  0
  2  3  1  0
  2  4  1  0
  2  5  1  0
  5  6  1  0
  6  7  2  0
  7  8  1  0
  8  9  1  0
  9 10  1  0
 10 11  1  0
 11 12  2  0
 11 13  1  0
 13 14  1  0
 14 15  1  0
 15 16  2  0
 16 17  1  0
 17 18  2  0
 18 19  1  0
 19 20  2  0
 10 21  2  0
 21 22  1  0
 22 23  2  0
 23 24  1  0
 24 25  2  0
 24  7  1  0
 23  9  1  0
 20 15  1  0
  1 26  1  0
  1 27  1  0
  1 28  1  0
  3 29  1  0
  3 30  1  0
  3 31  1  0
  4 32  1  0
  4 33  1  0
  4 34  1  0
  6 35  1  0
  8 36  1  0
 13 37  1  0
 14 38  1  0
 14 39  1  0
 16 40  1  0
 17 41  1  0
 18 42  1  0
 19 43  1  0
M  END
>  <meeko>  (105) 
{"is_sidechain": false}

$$$$

     RDKit          3D

 56 60  0  0  0  0  0  0  0  0999 V2000
    5.6880   -0.3570  -54.4220 O   0  0  0  0  0  0  0  0  0  0  0  0
    6.8260   -0.3950  -54.8810 C   0  0  0  0  0  0  0  0  0  0  0  0
    7.3400    0.5520  -55.7400 N   0  0  0  0  0  0  0  0  0  0  0  0
    6.5590    1.6420  -56.2760 C   0  0  0  0  0  0  0  0  0  0  0  0
    6.8010    1.8090  -57.7780 C   0  0  0  0  0  0  0  0  0  0  0  0
    7.8500    2.8740  -58.1780 C   0  0  2  0  0  0  0  0  0  0  0  0
    8.0750    3.9130  -57.0510 C   0  0  0  0  0  0  0  0  0  0  0  0
    9.0770    4.9950  -57.4970 C   0  0  1  0  0  0  0  0  0  0  0  0
   10.4170    4.3270  -57.8450 C   0  0  0  0  0  0  0  0  0  0  0  0
   10.2200    3.3120  -58.9840 C   0  0  2  0  0  0  0  0  0  0  0  0
    9.6700    4.0400  -60.2210 C   0  0  0  0  0  0  0  0  0  0  0  0
    8.3280    4.7070  -59.8830 C   0  0  2  0  0  0  0  0  0  0  0  0
    8.5310    5.7140  -58.7400 C   0  0  0  0  0  0  0  0  0  0  0  0
    7.3290    3.6290  -59.4330 C   0  0  0  0  0  0  0  0  0  0  0  0
    9.2160    2.2360  -58.5340 C   0  0  0  0  0  0  0  0  0  0  0  0
    7.7790   -1.4720  -54.5720 C   0  0  0  0  0  0  0  0  0  0  0  0
    7.4750   -2.7560  -54.0510 C   0  0  0  0  0  0  0  0  0  0  0  0
    8.6830   -3.4000  -53.9360 C   0  0  0  0  0  0  0  0  0  0  0  0
    9.6240   -2.5210  -54.3880 N   0  0  0  0  0  0  0  0  0  0  0  0
   11.0660   -2.7410  -54.4340 C   0  0  0  0  0  0  0  0  0  0  0  0
   11.4700   -3.5700  -55.6270 C   0  0  0  0  0  0  0  0  0  0  0  0
   11.8540   -4.9110  -55.4660 C   0  0  0  0  0  0  0  0  0  0  0  0
   12.2260   -5.6790  -56.5680 C   0  0  0  0  0  0  0  0  0  0  0  0
   12.2160   -5.1200  -57.8430 C   0  0  0  0  0  0  0  0  0  0  0  0
   11.8360   -3.7910  -58.0180 C   0  0  0  0  0  0  0  0  0  0  0  0
   11.4640   -3.0190  -56.9170 C   0  0  0  0  0  0  0  0  0  0  0  0
    9.1080   -1.3310  -54.7670 N   0  0  0  0  0  0  0  0  0  0  0  0
    8.2730    0.3510  -56.0930 H   0  0  0  0  0  0  0  0  0  0  0  0
    5.4919    1.4371  -56.1050 H   0  0  0  0  0  0  0  0  0  0  0  0
    6.8615    2.5700  -55.7688 H   0  0  0  0  0  0  0  0  0  0  0  0
    7.1361    0.8396  -58.1755 H   0  0  0  0  0  0  0  0  0  0  0  0
    5.8460    2.1590  -58.1968 H   0  0  0  0  0  0  0  0  0  0  0  0
    7.1153    4.3902  -56.8035 H   0  0  0  0  0  0  0  0  0  0  0  0
    8.4834    3.3954  -56.1705 H   0  0  0  0  0  0  0  0  0  0  0  0
    9.2229    5.7228  -56.6852 H   0  0  0  0  0  0  0  0  0  0  0  0
   11.1356    5.0966  -58.1634 H   0  0  0  0  0  0  0  0  0  0  0  0
   10.8000    3.8028  -56.9570 H   0  0  0  0  0  0  0  0  0  0  0  0
   11.1814    2.8387  -59.2326 H   0  0  0  0  0  0  0  0  0  0  0  0
   10.3887    4.8087  -60.5411 H   0  0  0  0  0  0  0  0  0  0  0  0
    9.5180    3.3118  -61.0313 H   0  0  0  0  0  0  0  0  0  0  0  0
    7.9413    5.2291  -60.7706 H   0  0  0  0  0  0  0  0  0  0  0  0
    9.2468    6.4864  -59.0579 H   0  0  0  0  0  0  0  0  0  0  0  0
    7.5653    6.1793  -58.4929 H   0  0  0  0  0  0  0  0  0  0  0  0
    6.3683    4.1074  -59.1917 H   0  0  0  0  0  0  0  0  0  0  0  0
    7.2045    2.9040  -60.2509 H   0  0  0  0  0  0  0  0  0  0  0  0
    9.0742    1.5113  -59.3493 H   0  0  0  0  0  0  0  0  0  0  0  0
    9.6143    1.7332  -57.6404 H   0  0  0  0  0  0  0  0  0  0  0  0
    6.4817   -3.1523  -53.7935 H   0  0  0  0  0  0  0  0  0  0  0  0
    8.8566   -4.4178  -53.5565 H   0  0  0  0  0  0  0  0  0  0  0  0
   11.5729   -1.7664  -54.4900 H   0  0  0  0  0  0  0  0  0  0  0  0
   11.3569   -3.2873  -53.5247 H   0  0  0  0  0  0  0  0  0  0  0  0
   11.8613   -5.3593  -54.4615 H   0  0  0  0  0  0  0  0  0  0  0  0
   12.5278   -6.7278  -56.4302 H   0  0  0  0  0  0  0  0  0  0  0  0
   12.5081   -5.7276  -58.7122 H   0  0  0  0  0  0  0  0  0  0  0  0
   11.8293   -3.3498  -59.0256 H   0  0  0  0  0  0  0  0  0  0  0  0
   11.1638   -1.9707  -57.0616 H   0  0  0  0  0  0  0  0  0  0  0  0
  1  2  2  0
  2  3  1  0
  3  4  1  0
  4  5  1  0
  6  5  1  1
  6  7  1  0
  7  8  1  0
  8  9  1  0
  9 10  1  0
 10 11  1  0
 11 12  1  0
 12 13  1  0
 12 14  1  0
 10 15  1  0
  2 16  1  0
 16 17  1  0
 17 18  2  0
 18 19  1  0
 19 20  1  0
 20 21  1  0
 21 22  2  0
 22 23  1  0
 23 24  2  0
 24 25  1  0
 25 26  2  0
 19 27  1  0
 14  6  1  0
 27 16  2  0
 15  6  1  0
 26 21  1  0
 13  8  1  0
  3 28  1  0
  4 29  1  0
  4 30  1  0
  5 31  1  0
  5 32  1  0
  7 33  1  0
  7 34  1  0
  8 35  1  1
  9 36  1  0
  9 37  1  0
 10 38  1  6
 11 39  1  0
 11 40  1  0
 12 41  1  6
 13 42  1  0
 13 43  1  0
 14 44  1  0
 14 45  1  0
 15 46  1  0
 15 47  1  0
 17 48  1  0
 18 49  1  0
 20 50  1  0
 20 51  1  0
 22 52  1  0
 23 53  1  0
 24 54  1  0
 25 55  1  0
 26 56  1  0
M  END
>  <meeko>  (106) 
{"is_sidechain": false}

$$$$

     RDKit          3D

 52 56  0  0  0  0  0  0  0  0999 V2000
    8.5290   -0.0010  -53.4790 O   0  0  0  0  0  0  0  0  0  0  0  0
    9.2720   -0.3680  -54.3870 C   0  0  0  0  0  0  0  0  0  0  0  0
    9.4360    0.3700  -55.5490 N   0  0  0  0  0  0  0  0  0  0  0  0
    8.6910    1.5800  -55.8220 C   0  0  0  0  0  0  0  0  0  0  0  0
    9.6220    2.7210  -56.2370 C   0  0  0  0  0  0  0  0  0  0  0  0
    9.2870    3.4070  -57.5840 C   0  0  2  0  0  0  0  0  0  0  0  0
    9.6790    2.5240  -58.7970 C   0  0  0  0  0  0  0  0  0  0  0  0
    9.2820    3.2060  -60.1190 C   0  0  1  0  0  0  0  0  0  0  0  0
    7.7620    3.4340  -60.1380 C   0  0  0  0  0  0  0  0  0  0  0  0
    7.3530    4.3330  -58.9600 C   0  0  2  0  0  0  0  0  0  0  0  0
    8.0790    5.6820  -59.0700 C   0  0  0  0  0  0  0  0  0  0  0  0
    9.6000    5.4620  -59.0460 C   0  0  2  0  0  0  0  0  0  0  0  0
   10.0000    4.5610  -60.2250 C   0  0  0  0  0  0  0  0  0  0  0  0
    9.9970    4.7770  -57.7260 C   0  0  0  0  0  0  0  0  0  0  0  0
    7.7530    3.6500  -57.6430 C   0  0  0  0  0  0  0  0  0  0  0  0
   10.0550   -1.5970  -54.3710 C   0  0  0  0  0  0  0  0  0  0  0  0
   10.5470   -2.1850  -53.2910 N   0  0  0  0  0  0  0  0  0  0  0  0
   11.1960   -3.2850  -53.7970 C   0  0  0  0  0  0  0  0  0  0  0  0
   11.0780   -3.3320  -55.1710 C   0  0  0  0  0  0  0  0  0  0  0  0
   11.5340   -4.2240  -56.2280 C   0  0  0  0  0  0  0  0  0  0  0  0
   11.9580   -5.5320  -55.9430 C   0  0  0  0  0  0  0  0  0  0  0  0
   12.3940   -6.3840  -56.9620 C   0  0  0  0  0  0  0  0  0  0  0  0
   12.4130   -5.9400  -58.2820 C   0  0  0  0  0  0  0  0  0  0  0  0
   11.9950   -4.6470  -58.5830 C   0  0  0  0  0  0  0  0  0  0  0  0
   11.5590   -3.7940  -57.5630 C   0  0  0  0  0  0  0  0  0  0  0  0
   10.3400   -2.2390  -55.5450 O   0  0  0  0  0  0  0  0  0  0  0  0
   10.0190   -0.0440  -56.2710 H   0  0  0  0  0  0  0  0  0  0  0  0
    7.9767    1.3857  -56.6356 H   0  0  0  0  0  0  0  0  0  0  0  0
    8.1622    1.8780  -54.9046 H   0  0  0  0  0  0  0  0  0  0  0  0
    9.5875    3.4883  -55.4496 H   0  0  0  0  0  0  0  0  0  0  0  0
   10.6133    2.2639  -56.3726 H   0  0  0  0  0  0  0  0  0  0  0  0
   10.7667    2.3604  -58.7878 H   0  0  0  0  0  0  0  0  0  0  0  0
    9.1474    1.5639  -58.7214 H   0  0  0  0  0  0  0  0  0  0  0  0
    9.5697    2.5663  -60.9663 H   0  0  0  0  0  0  0  0  0  0  0  0
    7.4778    3.9196  -61.0832 H   0  0  0  0  0  0  0  0  0  0  0  0
    7.2493    2.4649  -60.0490 H   0  0  0  0  0  0  0  0  0  0  0  0
    6.2655    4.4974  -58.9809 H   0  0  0  0  0  0  0  0  0  0  0  0
    7.7964    6.1723  -60.0133 H   0  0  0  0  0  0  0  0  0  0  0  0
    7.7919    6.3177  -58.2195 H   0  0  0  0  0  0  0  0  0  0  0  0
   10.1143    6.4310  -59.1276 H   0  0  0  0  0  0  0  0  0  0  0  0
    9.7177    5.0499  -61.1691 H   0  0  0  0  0  0  0  0  0  0  0  0
   11.0873    4.3961  -60.2005 H   0  0  0  0  0  0  0  0  0  0  0  0
   11.0860    4.6223  -57.7129 H   0  0  0  0  0  0  0  0  0  0  0  0
    9.6926    5.4213  -56.8880 H   0  0  0  0  0  0  0  0  0  0  0  0
    7.4581    4.2929  -56.8005 H   0  0  0  0  0  0  0  0  0  0  0  0
    7.2420    2.6777  -57.5836 H   0  0  0  0  0  0  0  0  0  0  0  0
   11.7358   -4.0267  -53.1900 H   0  0  0  0  0  0  0  0  0  0  0  0
   11.9469   -5.8913  -54.9034 H   0  0  0  0  0  0  0  0  0  0  0  0
   12.7223   -7.4059  -56.7211 H   0  0  0  0  0  0  0  0  0  0  0  0
   12.7573   -6.6092  -59.0842 H   0  0  0  0  0  0  0  0  0  0  0  0
   12.0074   -4.2949  -59.6250 H   0  0  0  0  0  0  0  0  0  0  0  0
   11.2318   -2.7735  -57.8111 H   0  0  0  0  0  0  0  0  0  0  0  0
  1  2  2  0
  2  3  1  0
  3  4  1  0
  4  5  1  0
  6  5  1  1
  6  7  1  0
  7  8  1  0
  8  9  1  0
  9 10  1  0
 10 11  1  0
 11 12  1  0
 12 13  1  0
 12 14  1  0
 10 15  1  0
  2 16  1  0
 16 17  2  0
 17 18  1  0
 18 19  2  0
 19 20  1  0
 20 21  2  0
 21 22  1  0
 22 23  2  0
 23 24  1  0
 24 25  2  0
 19 26  1  0
 14  6  1  0
 26 16  1  0
 15  6  1  0
 25 20  1  0
 13  8  1  0
  3 27  1  0
  4 28  1  0
  4 29  1  0
  5 30  1  0
  5 31  1  0
  7 32  1  0
  7 33  1  0
  8 34  1  6
  9 35  1  0
  9 36  1  0
 10 37  1  1
 11 38  1  0
 11 39  1  0
 12 40  1  6
 13 41  1  0
 13 42  1  0
 14 43  1  0
 14 44  1  0
 15 45  1  0
 15 46  1  0
 18 47  1  0
 21 48  1  0
 22 49  1  0
 23 50  1  0
 24 51  1  0
 25 52  1  0
M  END
>  <meeko>  (107) 
{"is_sidechain": false}

$$$$

     RDKit          3D

 56 60  0  0  0  0  0  0  0  0999 V2000
    6.1480   -0.0810  -53.9680 O   0  0  0  0  0  0  0  0  0  0  0  0
    7.1380   -0.2680  -54.6690 C   0  0  0  0  0  0  0  0  0  0  0  0
    7.4750    0.5780  -55.7160 N   0  0  0  0  0  0  0  0  0  0  0  0
    6.5690    1.6370  -56.1180 C   0  0  0  0  0  0  0  0  0  0  0  0
    6.6660    1.8910  -57.6220 C   0  0  0  0  0  0  0  0  0  0  0  0
    7.7450    2.9080  -58.0660 C   0  0  2  0  0  0  0  0  0  0  0  0
    8.0150    3.9760  -56.9750 C   0  0  0  0  0  0  0  0  0  0  0  0
    9.0480    5.0080  -57.4650 C   0  0  1  0  0  0  0  0  0  0  0  0
   10.3630    4.2850  -57.8020 C   0  0  0  0  0  0  0  0  0  0  0  0
   10.1220    3.2410  -58.9050 C   0  0  2  0  0  0  0  0  0  0  0  0
    9.5850    3.9450  -60.1600 C   0  0  0  0  0  0  0  0  0  0  0  0
    8.2680    4.6670  -59.8340 C   0  0  2  0  0  0  0  0  0  0  0  0
    8.5150    5.7040  -58.7270 C   0  0  0  0  0  0  0  0  0  0  0  0
    7.2380    3.6390  -59.3400 C   0  0  0  0  0  0  0  0  0  0  0  0
    9.0860    2.2130  -58.4120 C   0  0  0  0  0  0  0  0  0  0  0  0
    8.0450   -1.4120  -54.4880 C   0  0  0  0  0  0  0  0  0  0  0  0
    9.4240   -1.4410  -54.6370 C   0  0  0  0  0  0  0  0  0  0  0  0
    9.7980   -2.7310  -54.3680 N   0  0  0  0  0  0  0  0  0  0  0  0
   11.1530   -3.2550  -54.3580 C   0  0  0  0  0  0  0  0  0  0  0  0
   11.5210   -3.8860  -55.6770 C   0  0  0  0  0  0  0  0  0  0  0  0
   11.8870   -5.2390  -55.7490 C   0  0  0  0  0  0  0  0  0  0  0  0
   12.2250   -5.8180  -56.9720 C   0  0  0  0  0  0  0  0  0  0  0  0
   12.2070   -5.0530  -58.1360 C   0  0  0  0  0  0  0  0  0  0  0  0
   11.8490   -3.7070  -58.0780 C   0  0  0  0  0  0  0  0  0  0  0  0
   11.5080   -3.1250  -56.8570 C   0  0  0  0  0  0  0  0  0  0  0  0
    8.6730   -3.4310  -54.0490 C   0  0  0  0  0  0  0  0  0  0  0  0
    7.6050   -2.6720  -54.1110 N   0  0  0  0  0  0  0  0  0  0  0  0
    8.1050    0.2040  -56.4100 H   0  0  0  0  0  0  0  0  0  0  0  0
    5.5386    1.3449  -55.8671 H   0  0  0  0  0  0  0  0  0  0  0  0
    6.8454    2.5591  -55.5857 H   0  0  0  0  0  0  0  0  0  0  0  0
    6.8848    0.9312  -58.1128 H   0  0  0  0  0  0  0  0  0  0  0  0
    5.7016    2.3331  -57.9128 H   0  0  0  0  0  0  0  0  0  0  0  0
    7.0741    4.4930  -56.7355 H   0  0  0  0  0  0  0  0  0  0  0  0
    8.4139    3.4743  -56.0810 H   0  0  0  0  0  0  0  0  0  0  0  0
    9.2250    5.7563  -56.6785 H   0  0  0  0  0  0  0  0  0  0  0  0
   11.1033    5.0197  -58.1514 H   0  0  0  0  0  0  0  0  0  0  0  0
   10.7372    3.7777  -56.9005 H   0  0  0  0  0  0  0  0  0  0  0  0
   11.0654    2.7287  -59.1450 H   0  0  0  0  0  0  0  0  0  0  0  0
   10.3255    4.6787  -60.5112 H   0  0  0  0  0  0  0  0  0  0  0  0
    9.4018    3.1957  -60.9442 H   0  0  0  0  0  0  0  0  0  0  0  0
    7.8904    5.1713  -60.7357 H   0  0  0  0  0  0  0  0  0  0  0  0
    9.2534    6.4408  -59.0761 H   0  0  0  0  0  0  0  0  0  0  0  0
    7.5679    6.2098  -58.4879 H   0  0  0  0  0  0  0  0  0  0  0  0
    6.2965    4.1575  -59.1061 H   0  0  0  0  0  0  0  0  0  0  0  0
    7.0813    2.8924  -60.1325 H   0  0  0  0  0  0  0  0  0  0  0  0
    8.9128    1.4677  -59.2023 H   0  0  0  0  0  0  0  0  0  0  0  0
    9.4754    1.7258  -57.5059 H   0  0  0  0  0  0  0  0  0  0  0  0
   10.0803   -0.6027  -54.9136 H   0  0  0  0  0  0  0  0  0  0  0  0
   11.8515   -2.4309  -54.1507 H   0  0  0  0  0  0  0  0  0  0  0  0
   11.2131   -4.0306  -53.5803 H   0  0  0  0  0  0  0  0  0  0  0  0
   11.9075   -5.8479  -54.8331 H   0  0  0  0  0  0  0  0  0  0  0  0
   12.5062   -6.8805  -57.0175 H   0  0  0  0  0  0  0  0  0  0  0  0
   12.4750   -5.5105  -59.0998 H   0  0  0  0  0  0  0  0  0  0  0  0
   11.8354   -3.1026  -58.9970 H   0  0  0  0  0  0  0  0  0  0  0  0
   11.2269   -2.0622  -56.8183 H   0  0  0  0  0  0  0  0  0  0  0  0
    8.6620   -4.4962  -53.7746 H   0  0  0  0  0  0  0  0  0  0  0  0
  1  2  2  0
  2  3  1  0
  3  4  1  0
  4  5  1  0
  6  5  1  1
  6  7  1  0
  7  8  1  0
  8  9  1  0
  9 10  1  0
 10 11  1  0
 11 12  1  0
 12 13  1  0
 12 14  1  0
 10 15  1  0
  2 16  1  0
 16 17  2  0
 17 18  1  0
 18 19  1  0
 19 20  1  0
 20 21  2  0
 21 22  1  0
 22 23  2  0
 23 24  1  0
 24 25  2  0
 18 26  1  0
 26 27  2  0
 14  6  1  0
 27 16  1  0
 15  6  1  0
 25 20  1  0
 13  8  1  0
  3 28  1  0
  4 29  1  0
  4 30  1  0
  5 31  1  0
  5 32  1  0
  7 33  1  0
  7 34  1  0
  8 35  1  1
  9 36  1  0
  9 37  1  0
 10 38  1  6
 11 39  1  0
 11 40  1  0
 12 41  1  6
 13 42  1  0
 13 43  1  0
 14 44  1  0
 14 45  1  0
 15 46  1  0
 15 47  1  0
 17 48  1  0
 19 49  1  0
 19 50  1  0
 21 51  1  0
 22 52  1  0
 23 53  1  0
 24 54  1  0
 25 55  1  0
 26 56  1  0
M  END
>  <meeko>  (108) 
{"is_sidechain": false}

$$$$

     RDKit          3D

 57 61  0  0  0  0  0  0  0  0999 V2000
    6.2860    0.3780  -53.7010 O   0  0  0  0  0  0  0  0  0  0  0  0
    6.9760   -0.1230  -54.5830 C   0  0  0  0  0  0  0  0  0  0  0  0
    7.0420    0.4120  -55.8590 N   0  0  0  0  0  0  0  0  0  0  0  0
    6.3170    1.6210  -56.2040 C   0  0  0  0  0  0  0  0  0  0  0  0
    6.4620    2.0520  -57.6690 C   0  0  0  0  0  0  0  0  0  0  0  0
    7.6730    2.9440  -58.0590 C   0  0  2  0  0  0  0  0  0  0  0  0
    7.1510    4.0670  -59.0040 C   0  0  0  0  0  0  0  0  0  0  0  0
    8.2900    4.9990  -59.4440 C   0  0  1  0  0  0  0  0  0  0  0  0
    8.9140    5.6510  -58.2030 C   0  0  0  0  0  0  0  0  0  0  0  0
    9.4670    4.5680  -57.2660 C   0  0  2  0  0  0  0  0  0  0  0  0
   10.5330    3.7480  -58.0110 C   0  0  0  0  0  0  0  0  0  0  0  0
    9.9140    3.0850  -59.2530 C   0  0  2  0  0  0  0  0  0  0  0  0
    9.3570    4.1750  -60.1810 C   0  0  0  0  0  0  0  0  0  0  0  0
    8.7700    2.1530  -58.8130 C   0  0  0  0  0  0  0  0  0  0  0  0
    8.3220    3.6320  -56.8300 C   0  0  0  0  0  0  0  0  0  0  0  0
    7.8190   -1.2850  -54.4550 C   0  0  0  0  0  0  0  0  0  0  0  0
    9.1930   -1.2580  -54.5070 C   0  0  0  0  0  0  0  0  0  0  0  0
    9.6490   -2.5580  -54.3300 N   0  0  0  0  0  0  0  0  0  0  0  0
   11.0540   -2.9840  -54.3240 C   0  0  0  0  0  0  0  0  0  0  0  0
   11.3790   -3.6330  -55.6420 C   0  0  0  0  0  0  0  0  0  0  0  0
   11.6030   -2.8500  -56.7850 C   0  0  0  0  0  0  0  0  0  0  0  0
   11.9260   -3.4500  -58.0030 C   0  0  0  0  0  0  0  0  0  0  0  0
   12.0270   -4.8370  -58.0910 C   0  0  0  0  0  0  0  0  0  0  0  0
   11.8000   -5.6260  -56.9660 C   0  0  0  0  0  0  0  0  0  0  0  0
   11.4760   -5.0300  -55.7460 C   0  0  0  0  0  0  0  0  0  0  0  0
    8.5990   -3.3730  -54.1560 C   0  0  0  0  0  0  0  0  0  0  0  0
    7.4950   -2.6220  -54.2280 N   0  0  0  0  0  0  0  0  0  0  0  0
    7.7260    0.1000  -56.5310 H   0  0  0  0  0  0  0  0  0  0  0  0
    5.2495    1.4520  -55.9994 H   0  0  0  0  0  0  0  0  0  0  0  0
    6.7482    2.4295  -55.5953 H   0  0  0  0  0  0  0  0  0  0  0  0
    6.5252    1.1350  -58.2733 H   0  0  0  0  0  0  0  0  0  0  0  0
    5.5851    2.6905  -57.8517 H   0  0  0  0  0  0  0  0  0  0  0  0
    6.7011    3.6052  -59.8953 H   0  0  0  0  0  0  0  0  0  0  0  0
    6.4057    4.6631  -58.4570 H   0  0  0  0  0  0  0  0  0  0  0  0
    7.8991    5.7797  -60.1131 H   0  0  0  0  0  0  0  0  0  0  0  0
    9.7324    6.3172  -58.5135 H   0  0  0  0  0  0  0  0  0  0  0  0
    8.1440    6.2302  -57.6724 H   0  0  0  0  0  0  0  0  0  0  0  0
    9.9138    5.0426  -56.3799 H   0  0  0  0  0  0  0  0  0  0  0  0
   11.3518    4.4130  -58.3230 H   0  0  0  0  0  0  0  0  0  0  0  0
   10.9214    2.9671  -57.3407 H   0  0  0  0  0  0  0  0  0  0  0  0
   10.6797    2.5019  -59.7857 H   0  0  0  0  0  0  0  0  0  0  0  0
   10.1760    4.8384  -60.4961 H   0  0  0  0  0  0  0  0  0  0  0  0
    8.9010    3.7001  -61.0622 H   0  0  0  0  0  0  0  0  0  0  0  0
    8.3271    1.6814  -59.7026 H   0  0  0  0  0  0  0  0  0  0  0  0
    9.1797    1.3881  -58.1369 H   0  0  0  0  0  0  0  0  0  0  0  0
    8.7236    2.8612  -56.1558 H   0  0  0  0  0  0  0  0  0  0  0  0
    7.5552    4.2298  -56.3156 H   0  0  0  0  0  0  0  0  0  0  0  0
    9.8188   -0.3666  -54.6611 H   0  0  0  0  0  0  0  0  0  0  0  0
   11.7033   -2.1088  -54.1747 H   0  0  0  0  0  0  0  0  0  0  0  0
   11.2193   -3.7021  -53.5073 H   0  0  0  0  0  0  0  0  0  0  0  0
   11.5234   -1.7548  -56.7204 H   0  0  0  0  0  0  0  0  0  0  0  0
   12.1008   -2.8281  -58.8933 H   0  0  0  0  0  0  0  0  0  0  0  0
   12.2863   -5.3092  -59.0500 H   0  0  0  0  0  0  0  0  0  0  0  0
   11.8762   -6.7209  -57.0390 H   0  0  0  0  0  0  0  0  0  0  0  0
   11.2957   -5.6582  -54.8612 H   0  0  0  0  0  0  0  0  0  0  0  0
    8.6383   -4.4590  -53.9855 H   0  0  0  0  0  0  0  0  0  0  0  0
    6.5610   -2.9830  -54.0670 H   0  0  0  0  0  0  0  0  0  0  0  0
  1  2  2  0
  2  3  1  0
  3  4  1  0
  4  5  1  0
  6  5  1  1
  6  7  1  0
  7  8  1  0
  8  9  1  0
  9 10  1  0
 10 11  1  0
 11 12  1  0
 12 13  1  0
 12 14  1  0
 10 15  1  0
  2 16  1  0
 16 17  2  0
 17 18  1  0
 18 19  1  0
 19 20  1  0
 20 21  2  0
 21 22  1  0
 22 23  2  0
 23 24  1  0
 24 25  2  0
 18 26  1  0
 26 27  2  0
 14  6  1  0
 27 16  1  0
 15  6  1  0
 25 20  1  0
 13  8  1  0
  3 28  1  0
  4 29  1  0
  4 30  1  0
  5 31  1  0
  5 32  1  0
  7 33  1  0
  7 34  1  0
  8 35  1  6
  9 36  1  0
  9 37  1  0
 10 38  1  1
 11 39  1  0
 11 40  1  0
 12 41  1  6
 13 42  1  0
 13 43  1  0
 14 44  1  0
 14 45  1  0
 15 46  1  0
 15 47  1  0
 17 48  1  0
 19 49  1  0
 19 50  1  0
 21 51  1  0
 22 52  1  0
 23 53  1  0
 24 54  1  0
 25 55  1  0
 26 56  1  0
 27 57  1  0
M  CHG  1  27   1
M  END
>  <meeko>  (109) 
{"is_sidechain": false}

$$$$

     RDKit          3D

 58 61  0  0  0  0  0  0  0  0999 V2000
   11.0040    5.2900  -59.9420 C   0  0  0  0  0  0  0  0  0  0  0  0
   10.5590    4.9890  -58.5220 C   0  0  0  0  0  0  0  0  0  0  0  0
   10.2680    3.5900  -58.3860 O   0  0  0  0  0  0  0  0  0  0  0  0
    8.9810    3.2190  -58.6350 C   0  0  0  0  0  0  0  0  0  0  0  0
    8.6160    2.6270  -59.6460 O   0  0  0  0  0  0  0  0  0  0  0  0
    8.0650    3.4930  -57.4750 C   0  0  0  0  0  0  0  0  0  0  0  0
    7.7080    2.3000  -56.7290 N   0  0  0  0  0  0  0  0  0  0  0  0
    8.6680    1.6610  -56.0380 N   0  0  0  0  0  0  0  0  0  0  0  0
    8.0460    0.6380  -55.4250 C   0  0  0  0  0  0  0  0  0  0  0  0
    8.7860   -0.3140  -54.5670 C   0  0  0  0  0  0  0  0  0  0  0  0
    8.4900   -0.5390  -53.3950 O   0  0  0  0  0  0  0  0  0  0  0  0
    9.8640   -0.9360  -55.1800 N   0  0  0  0  0  0  0  0  0  0  0  0
   10.7460   -1.8190  -54.4420 C   0  0  0  0  0  0  0  0  0  0  0  0
   10.3980   -3.2890  -54.6950 C   0  0  0  0  0  0  0  0  0  0  0  0
   11.1900   -3.9830  -55.8300 C   0  0  2  0  0  0  0  0  0  0  0  0
   11.8790   -2.9560  -56.7650 C   0  0  0  0  0  0  0  0  0  0  0  0
   12.7050   -3.6740  -57.8480 C   0  0  1  0  0  0  0  0  0  0  0  0
   13.7810   -4.5420  -57.1770 C   0  0  0  0  0  0  0  0  0  0  0  0
   13.1200   -5.5880  -56.2670 C   0  0  2  0  0  0  0  0  0  0  0  0
   12.1900   -6.4780  -57.1030 C   0  0  0  0  0  0  0  0  0  0  0  0
   11.1050   -5.6190  -57.7730 C   0  0  2  0  0  0  0  0  0  0  0  0
   11.7760   -4.5740  -58.6800 C   0  0  0  0  0  0  0  0  0  0  0  0
   10.2820   -4.8980  -56.6910 C   0  0  0  0  0  0  0  0  0  0  0  0
   12.2960   -4.8670  -55.1880 C   0  0  0  0  0  0  0  0  0  0  0  0
    6.6570    0.6630  -55.7320 C   0  0  0  0  0  0  0  0  0  0  0  0
    6.4650    1.7440  -56.5650 C   0  0  0  0  0  0  0  0  0  0  0  0
    5.2290    2.2670  -57.1970 C   0  0  0  0  0  0  0  0  0  0  0  0
   11.9149    5.9062  -59.9180 H   0  0  0  0  0  0  0  0  0  0  0  0
   11.2130    4.3470  -60.4684 H   0  0  0  0  0  0  0  0  0  0  0  0
   10.2065    5.8349  -60.4684 H   0  0  0  0  0  0  0  0  0  0  0  0
   11.3621    5.2639  -57.8224 H   0  0  0  0  0  0  0  0  0  0  0  0
    9.6529    5.5704  -58.2961 H   0  0  0  0  0  0  0  0  0  0  0  0
    8.5670    4.1942  -56.7922 H   0  0  0  0  0  0  0  0  0  0  0  0
    7.1340    3.9094  -57.8872 H   0  0  0  0  0  0  0  0  0  0  0  0
   10.1760   -0.5930  -56.0760 H   0  0  0  0  0  0  0  0  0  0  0  0
   11.7835   -1.6364  -54.7588 H   0  0  0  0  0  0  0  0  0  0  0  0
   10.6259   -1.6128  -53.3682 H   0  0  0  0  0  0  0  0  0  0  0  0
   10.5846   -3.8450  -53.7644 H   0  0  0  0  0  0  0  0  0  0  0  0
    9.3462   -3.2960  -55.0170 H   0  0  0  0  0  0  0  0  0  0  0  0
   11.1101   -2.3360  -57.2492 H   0  0  0  0  0  0  0  0  0  0  0  0
   12.5534   -2.3280  -56.1644 H   0  0  0  0  0  0  0  0  0  0  0  0
   13.1845   -2.9294  -58.5004 H   0  0  0  0  0  0  0  0  0  0  0  0
   14.3713   -5.0538  -57.9514 H   0  0  0  0  0  0  0  0  0  0  0  0
   14.4372   -3.8996  -56.5714 H   0  0  0  0  0  0  0  0  0  0  0  0
   13.8947   -6.2088  -55.7932 H   0  0  0  0  0  0  0  0  0  0  0  0
   12.7773   -6.9929  -57.8776 H   0  0  0  0  0  0  0  0  0  0  0  0
   11.7106   -7.2184  -56.4457 H   0  0  0  0  0  0  0  0  0  0  0  0
   10.4429   -6.2617  -58.3718 H   0  0  0  0  0  0  0  0  0  0  0  0
   12.3644   -5.0879  -59.4544 H   0  0  0  0  0  0  0  0  0  0  0  0
   10.9997   -3.9536  -59.1516 H   0  0  0  0  0  0  0  0  0  0  0  0
    9.5073   -4.2852  -57.1752 H   0  0  0  0  0  0  0  0  0  0  0  0
    9.8193   -5.6524  -56.0377 H   0  0  0  0  0  0  0  0  0  0  0  0
   11.8240   -5.6161  -54.5353 H   0  0  0  0  0  0  0  0  0  0  0  0
   12.9692   -4.2194  -54.6072 H   0  0  0  0  0  0  0  0  0  0  0  0
    5.8897   -0.0400  -55.3757 H   0  0  0  0  0  0  0  0  0  0  0  0
    4.5166    2.5684  -56.4149 H   0  0  0  0  0  0  0  0  0  0  0  0
    5.4769    3.1373  -57.8223 H   0  0  0  0  0  0  0  0  0  0  0  0
    4.7770    1.4830  -57.8223 H   0  0  0  0  0  0  0  0  0  0  0  0
  1  2  1  0
  2  3  1  0
  3  4  1  0
  4  5  2  0
  4  6  1  0
  6  7  1  0
  7  8  1  0
  8  9  2  0
  9 10  1  0
 10 11  2  0
 10 12  1  0
 12 13  1  0
 13 14  1  0
 15 14  1  1
 15 16  1  0
 16 17  1  0
 17 18  1  0
 18 19  1  0
 19 20  1  0
 20 21  1  0
 21 22  1  0
 21 23  1  0
 19 24  1  0
  9 25  1  0
 25 26  2  0
 26 27  1  0
 26  7  1  0
 23 15  1  0
 24 15  1  0
 22 17  1  0
  1 28  1  0
  1 29  1  0
  1 30  1  0
  2 31  1  0
  2 32  1  0
  6 33  1  0
  6 34  1  0
 12 35  1  0
 13 36  1  0
 13 37  1  0
 14 38  1  0
 14 39  1  0
 16 40  1  0
 16 41  1  0
 17 42  1  6
 18 43  1  0
 18 44  1  0
 19 45  1  1
 20 46  1  0
 20 47  1  0
 21 48  1  6
 22 49  1  0
 22 50  1  0
 23 51  1  0
 23 52  1  0
 24 53  1  0
 24 54  1  0
 25 55  1  0
 27 56  1  0
 27 57  1  0
 27 58  1  0
M  END
>  <meeko>  (110) 
{"is_sidechain": false}

$$$$

     RDKit          3D

 49 52  0  0  0  0  0  0  0  0999 V2000
   13.6060    6.5930  -60.3250 N   0  0  0  0  0  0  0  0  0  0  0  0
   12.8480    5.8920  -59.2540 C   0  0  2  0  0  0  0  0  0  0  0  0
   13.3060    4.4360  -59.1960 C   0  0  0  0  0  0  0  0  0  0  0  0
   12.4680    3.6300  -58.2010 C   0  0  0  0  0  0  0  0  0  0  0  0
   10.9710    3.7290  -58.5190 C   0  0  1  0  0  0  0  0  0  0  0  0
   10.1850    2.9730  -57.5620 N   0  0  0  0  0  0  0  0  0  0  0  0
    8.8230    2.8030  -57.7580 C   0  0  0  0  0  0  0  0  0  0  0  0
    8.2220    3.3140  -58.6960 O   0  0  0  0  0  0  0  0  0  0  0  0
    8.1180    1.9200  -56.7910 C   0  0  0  0  0  0  0  0  0  0  0  0
    6.7200    1.8600  -56.7330 C   0  0  0  0  0  0  0  0  0  0  0  0
    6.0720    1.0240  -55.8150 C   0  0  0  0  0  0  0  0  0  0  0  0
    6.8720    0.2510  -54.9670 C   0  0  0  0  0  0  0  0  0  0  0  0
    6.5200   -0.6480  -53.9860 N   0  0  0  0  0  0  0  0  0  0  0  0
    7.6350   -1.1960  -53.3900 C   0  0  0  0  0  0  0  0  0  0  0  0
    7.5610   -2.1930  -52.3210 C   0  0  0  0  0  0  0  0  0  0  0  0
    7.8810   -1.8590  -50.9970 C   0  0  0  0  0  0  0  0  0  0  0  0
    7.8040   -2.8180  -49.9830 C   0  0  0  0  0  0  0  0  0  0  0  0
    7.4080   -4.1200  -50.2810 C   0  0  0  0  0  0  0  0  0  0  0  0
    7.0930   -4.4660  -51.5930 C   0  0  0  0  0  0  0  0  0  0  0  0
    7.1710   -3.5070  -52.6070 C   0  0  0  0  0  0  0  0  0  0  0  0
    8.7300   -0.6380  -54.0290 C   0  0  0  0  0  0  0  0  0  0  0  0
    8.2640    0.2760  -55.0120 C   0  0  0  0  0  0  0  0  0  0  0  0
    8.9000    1.1190  -55.9430 C   0  0  0  0  0  0  0  0  0  0  0  0
   10.5310    5.2030  -58.5540 C   0  0  0  0  0  0  0  0  0  0  0  0
   11.3570    6.0130  -59.5510 C   0  0  0  0  0  0  0  0  0  0  0  0
   13.0520    6.6620  -61.1910 H   0  0  0  0  0  0  0  0  0  0  0  0
   13.8530    7.5530  -60.0490 H   0  0  0  0  0  0  0  0  0  0  0  0
   14.4810    6.1050  -60.5630 H   0  0  0  0  0  0  0  0  0  0  0  0
   13.0370    6.3443  -58.2693 H   0  0  0  0  0  0  0  0  0  0  0  0
   13.2046    3.9882  -60.1956 H   0  0  0  0  0  0  0  0  0  0  0  0
   14.3548    4.4143  -58.8650 H   0  0  0  0  0  0  0  0  0  0  0  0
   12.7745    2.5746  -58.2477 H   0  0  0  0  0  0  0  0  0  0  0  0
   12.6356    4.0417  -57.1948 H   0  0  0  0  0  0  0  0  0  0  0  0
   10.7963    3.2907  -59.5127 H   0  0  0  0  0  0  0  0  0  0  0  0
   10.6500    2.3400  -56.9220 H   0  0  0  0  0  0  0  0  0  0  0  0
    6.1221    2.4786  -57.4185 H   0  0  0  0  0  0  0  0  0  0  0  0
    4.9742    0.9770  -55.7628 H   0  0  0  0  0  0  0  0  0  0  0  0
    5.5690   -0.8950  -53.7520 H   0  0  0  0  0  0  0  0  0  0  0  0
    8.1954   -0.8332  -50.7544 H   0  0  0  0  0  0  0  0  0  0  0  0
    8.0565   -2.5442  -48.9480 H   0  0  0  0  0  0  0  0  0  0  0  0
    7.3442   -4.8732  -49.4819 H   0  0  0  0  0  0  0  0  0  0  0  0
    6.7828   -5.4941  -51.8312 H   0  0  0  0  0  0  0  0  0  0  0  0
    6.9232   -3.7878  -53.6413 H   0  0  0  0  0  0  0  0  0  0  0  0
    9.7842   -0.8646  -53.8117 H   0  0  0  0  0  0  0  0  0  0  0  0
    9.9978    1.1500  -56.0056 H   0  0  0  0  0  0  0  0  0  0  0  0
    9.4714    5.2524  -58.8450 H   0  0  0  0  0  0  0  0  0  0  0  0
   10.6838    5.6314  -57.5525 H   0  0  0  0  0  0  0  0  0  0  0  0
   11.1615    5.6395  -60.5670 H   0  0  0  0  0  0  0  0  0  0  0  0
   11.0683    7.0710  -59.4662 H   0  0  0  0  0  0  0  0  0  0  0  0
  1  2  1  0
  2  3  1  0
  3  4  1  0
  4  5  1  0
  5  6  1  0
  6  7  1  0
  7  8  2  0
  7  9  1  0
  9 10  2  0
 10 11  1  0
 11 12  2  0
 12 13  1  0
 13 14  1  0
 14 15  1  0
 15 16  2  0
 16 17  1  0
 17 18  2  0
 18 19  1  0
 19 20  2  0
 14 21  2  0
 21 22  1  0
 22 23  2  0
  5 24  1  0
 24 25  1  0
 25  2  1  0
 23  9  1  0
 22 12  1  0
 20 15  1  0
  1 26  1  0
  1 27  1  0
  1 28  1  0
  2 29  1  6
  3 30  1  0
  3 31  1  0
  4 32  1  0
  4 33  1  0
  5 34  1  1
  6 35  1  0
 10 36  1  0
 11 37  1  0
 13 38  1  0
 16 39  1  0
 17 40  1  0
 18 41  1  0
 19 42  1  0
 20 43  1  0
 21 44  1  0
 23 45  1  0
 24 46  1  0
 24 47  1  0
 25 48  1  0
 25 49  1  0
M  CHG  1   1   1
M  END
>  <meeko>  (111) 
{"is_sidechain": false}

$$$$

     RDKit          3D

 45 49  0  0  0  0  0  0  0  0999 V2000
    7.8980   -3.1050  -50.1800 C   0  0  0  0  0  0  0  0  0  0  0  0
    8.1320   -2.3290  -51.4160 C   0  0  0  0  0  0  0  0  0  0  0  0
    7.3680   -1.3240  -51.9700 C   0  0  0  0  0  0  0  0  0  0  0  0
    8.0230   -0.9420  -53.1070 N   0  0  0  0  0  0  0  0  0  0  0  0
    7.6080    0.0330  -53.9640 N   0  0  0  0  0  0  0  0  0  0  0  0
    8.4240    0.1930  -54.9700 C   0  0  0  0  0  0  0  0  0  0  0  0
    8.0740    1.2630  -56.0130 C   0  0  0  0  0  0  0  0  0  0  0  0
    6.9100    1.5590  -56.2260 O   0  0  0  0  0  0  0  0  0  0  0  0
    9.1840    1.8000  -56.6230 N   0  0  0  0  0  0  0  0  0  0  0  0
    9.1750    2.8350  -57.6530 C   0  0  2  0  0  0  0  0  0  0  0  0
   10.6070    2.9650  -58.2360 C   0  0  0  0  0  0  0  0  0  0  0  0
   10.6600    4.0430  -59.3300 C   0  0  1  0  0  0  0  0  0  0  0  0
    9.6890    3.6650  -60.4600 C   0  0  0  0  0  0  0  0  0  0  0  0
    8.2590    3.5560  -59.9080 C   0  0  2  0  0  0  0  0  0  0  0  0
    7.8460    4.9070  -59.3000 C   0  0  0  0  0  0  0  0  0  0  0  0
    8.8110    5.2940  -58.1660 C   0  0  2  0  0  0  0  0  0  0  0  0
   10.2390    5.3930  -58.7280 C   0  0  0  0  0  0  0  0  0  0  0  0
    8.7690    4.2120  -57.0730 C   0  0  0  0  0  0  0  0  0  0  0  0
    8.2170    2.4740  -58.8150 C   0  0  0  0  0  0  0  0  0  0  0  0
    9.6810   -0.5730  -55.2060 C   0  0  0  0  0  0  0  0  0  0  0  0
   10.0050   -1.5120  -54.3080 C   0  0  0  0  0  0  0  0  0  0  0  0
    9.1590   -1.7280  -53.1990 C   0  0  0  0  0  0  0  0  0  0  0  0
    9.2450   -2.5700  -52.1920 N   0  0  0  0  0  0  0  0  0  0  0  0
    8.0903   -2.4672  -49.3047 H   0  0  0  0  0  0  0  0  0  0  0  0
    6.8549   -3.4534  -50.1577 H   0  0  0  0  0  0  0  0  0  0  0  0
    8.5747   -3.9720  -50.1577 H   0  0  0  0  0  0  0  0  0  0  0  0
    6.4256   -0.9141  -51.5778 H   0  0  0  0  0  0  0  0  0  0  0  0
   10.0720    1.4190  -56.3040 H   0  0  0  0  0  0  0  0  0  0  0  0
   11.3011    3.2383  -57.4276 H   0  0  0  0  0  0  0  0  0  0  0  0
   10.8937    2.0003  -58.6801 H   0  0  0  0  0  0  0  0  0  0  0  0
   11.6818    4.1180  -59.7304 H   0  0  0  0  0  0  0  0  0  0  0  0
    9.7201    4.4387  -61.2413 H   0  0  0  0  0  0  0  0  0  0  0  0
    9.9878    2.6950  -60.8841 H   0  0  0  0  0  0  0  0  0  0  0  0
    7.5679    3.2881  -60.7208 H   0  0  0  0  0  0  0  0  0  0  0  0
    7.8736    5.6810  -60.0811 H   0  0  0  0  0  0  0  0  0  0  0  0
    6.8277    4.8221  -58.8927 H   0  0  0  0  0  0  0  0  0  0  0  0
    8.5128    6.2630  -57.7393 H   0  0  0  0  0  0  0  0  0  0  0  0
   10.2704    6.1664  -59.5096 H   0  0  0  0  0  0  0  0  0  0  0  0
   10.9304    5.6577  -57.9144 H   0  0  0  0  0  0  0  0  0  0  0  0
    9.4665    4.4848  -56.2674 H   0  0  0  0  0  0  0  0  0  0  0  0
    7.7434    4.1433  -56.6814 H   0  0  0  0  0  0  0  0  0  0  0  0
    7.1913    2.3929  -58.4259 H   0  0  0  0  0  0  0  0  0  0  0  0
    8.5352    1.5160  -59.2521 H   0  0  0  0  0  0  0  0  0  0  0  0
   10.3163   -0.3750  -56.0819 H   0  0  0  0  0  0  0  0  0  0  0  0
   10.9206   -2.1086  -54.4332 H   0  0  0  0  0  0  0  0  0  0  0  0
  1  2  1  0
  2  3  2  0
  3  4  1  0
  4  5  1  0
  5  6  2  0
  6  7  1  0
  7  8  2  0
  7  9  1  0
 10  9  1  1
 10 11  1  0
 11 12  1  0
 12 13  1  0
 13 14  1  0
 14 15  1  0
 15 16  1  0
 16 17  1  0
 16 18  1  0
 14 19  1  0
  6 20  1  0
 20 21  2  0
 21 22  1  0
 22 23  2  0
 23  2  1  0
 22  4  1  0
 18 10  1  0
 19 10  1  0
 17 12  1  0
  1 24  1  0
  1 25  1  0
  1 26  1  0
  3 27  1  0
  9 28  1  0
 11 29  1  0
 11 30  1  0
 12 31  1  6
 13 32  1  0
 13 33  1  0
 14 34  1  6
 15 35  1  0
 15 36  1  0
 16 37  1  1
 17 38  1  0
 17 39  1  0
 18 40  1  0
 18 41  1  0
 19 42  1  0
 19 43  1  0
 20 44  1  0
 21 45  1  0
M  END
>  <meeko>  (112) 
{"is_sidechain": false}

$$$$

     RDKit          3D

 46 50  0  0  0  0  0  0  0  0999 V2000
    7.8780   -3.0880  -50.2650 C   0  0  0  0  0  0  0  0  0  0  0  0
    8.1540   -2.3080  -51.4820 C   0  0  0  0  0  0  0  0  0  0  0  0
    7.4700   -1.2740  -52.0850 C   0  0  0  0  0  0  0  0  0  0  0  0
    8.1840   -0.9160  -53.2070 N   0  0  0  0  0  0  0  0  0  0  0  0
    7.8330    0.1180  -54.1080 N   0  0  0  0  0  0  0  0  0  0  0  0
    8.7010    0.2520  -55.0740 C   0  0  0  0  0  0  0  0  0  0  0  0
    8.4200    1.3560  -56.0960 C   0  0  0  0  0  0  0  0  0  0  0  0
    7.2640    1.7070  -56.2700 O   0  0  0  0  0  0  0  0  0  0  0  0
    9.5380    1.8550  -56.7250 N   0  0  0  0  0  0  0  0  0  0  0  0
    9.5150    2.8770  -57.7790 C   0  0  2  0  0  0  0  0  0  0  0  0
    9.0870    4.2600  -57.2280 C   0  0  0  0  0  0  0  0  0  0  0  0
    9.1170    5.3200  -58.3440 C   0  0  1  0  0  0  0  0  0  0  0  0
   10.5450    5.4300  -58.9010 C   0  0  0  0  0  0  0  0  0  0  0  0
   10.9900    4.0750  -59.4730 C   0  0  2  0  0  0  0  0  0  0  0  0
   10.0310    3.6570  -60.6000 C   0  0  0  0  0  0  0  0  0  0  0  0
    8.5990    3.5370  -60.0520 C   0  0  2  0  0  0  0  0  0  0  0  0
    8.1630    4.8940  -59.4730 C   0  0  0  0  0  0  0  0  0  0  0  0
    8.5680    2.4770  -58.9370 C   0  0  0  0  0  0  0  0  0  0  0  0
   10.9490    3.0200  -58.3580 C   0  0  0  0  0  0  0  0  0  0  0  0
    9.9570   -0.5300  -55.3370 C   0  0  0  0  0  0  0  0  0  0  0  0
   10.2640   -1.4990  -54.4680 C   0  0  0  0  0  0  0  0  0  0  0  0
    9.2760   -1.6830  -53.3110 C   0  0  0  0  0  0  0  0  0  0  0  0
    9.2710   -2.5290  -52.2830 N   0  0  0  0  0  0  0  0  0  0  0  0
    8.0953   -2.4738  -49.3787 H   0  0  0  0  0  0  0  0  0  0  0  0
    6.8195   -3.3870  -50.2533 H   0  0  0  0  0  0  0  0  0  0  0  0
    8.5129   -3.9862  -50.2533 H   0  0  0  0  0  0  0  0  0  0  0  0
    6.5308   -0.8203  -51.7357 H   0  0  0  0  0  0  0  0  0  0  0  0
   10.4200    1.3880  -56.5490 H   0  0  0  0  0  0  0  0  0  0  0  0
    8.0662    4.1884  -56.8246 H   0  0  0  0  0  0  0  0  0  0  0  0
    9.7888    4.5590  -56.4355 H   0  0  0  0  0  0  0  0  0  0  0  0
    8.8017    6.2932  -57.9396 H   0  0  0  0  0  0  0  0  0  0  0  0
   10.5680    6.1876  -59.6982 H   0  0  0  0  0  0  0  0  0  0  0  0
   11.2282    5.7223  -58.0899 H   0  0  0  0  0  0  0  0  0  0  0  0
   12.0123    4.1588  -59.8705 H   0  0  0  0  0  0  0  0  0  0  0  0
   10.0539    4.4140  -61.3977 H   0  0  0  0  0  0  0  0  0  0  0  0
   10.3475    2.6832  -61.0019 H   0  0  0  0  0  0  0  0  0  0  0  0
    7.9161    3.2419  -60.8623 H   0  0  0  0  0  0  0  0  0  0  0  0
    8.1814    5.6520  -60.2699 H   0  0  0  0  0  0  0  0  0  0  0  0
    7.1448    4.8011  -59.0672 H   0  0  0  0  0  0  0  0  0  0  0  0
    7.5419    2.3884  -58.5508 H   0  0  0  0  0  0  0  0  0  0  0  0
    8.9023    1.5150  -59.3526 H   0  0  0  0  0  0  0  0  0  0  0  0
   11.2697    2.0509  -58.7679 H   0  0  0  0  0  0  0  0  0  0  0  0
   11.6231    3.3387  -57.5493 H   0  0  0  0  0  0  0  0  0  0  0  0
   10.5959   -0.3148  -56.2062 H   0  0  0  0  0  0  0  0  0  0  0  0
   11.1644   -2.1216  -54.5763 H   0  0  0  0  0  0  0  0  0  0  0  0
    9.9880   -3.2290  -52.1120 H   0  0  0  0  0  0  0  0  0  0  0  0
  1  2  1  0
  2  3  2  0
  3  4  1  0
  4  5  1  0
  5  6  2  0
  6  7  1  0
  7  8  2  0
  7  9  1  0
 10  9  1  1
 10 11  1  0
 11 12  1  0
 12 13  1  0
 13 14  1  0
 14 15  1  0
 15 16  1  0
 16 17  1  0
 16 18  1  0
 14 19  1  0
  6 20  1  0
 20 21  2  0
 21 22  1  0
 22 23  2  0
 23  2  1  0
 22  4  1  0
 18 10  1  0
 19 10  1  0
 17 12  1  0
  1 24  1  0
  1 25  1  0
  1 26  1  0
  3 27  1  0
  9 28  1  0
 11 29  1  0
 11 30  1  0
 12 31  1  1
 13 32  1  0
 13 33  1  0
 14 34  1  6
 15 35  1  0
 15 36  1  0
 16 37  1  6
 17 38  1  0
 17 39  1  0
 18 40  1  0
 18 41  1  0
 19 42  1  0
 19 43  1  0
 20 44  1  0
 21 45  1  0
 23 46  1  0
M  CHG  1  23   1
M  END
>  <meeko>  (113) 
{"is_sidechain": false}

$$$$

     RDKit          3D

 58 63  0  0  0  0  0  0  0  0999 V2000
    9.5930   -0.5190  -53.4640 O   0  0  0  0  0  0  0  0  0  0  0  0
    8.5040   -0.5360  -54.0230 C   0  0  0  0  0  0  0  0  0  0  0  0
    7.4480   -1.3470  -53.6580 N   0  0  0  0  0  0  0  0  0  0  0  0
    7.4650   -2.2660  -52.5140 C   0  0  2  0  0  0  0  0  0  0  0  0
    8.7180   -3.1780  -52.5210 C   0  0  0  0  0  0  0  0  0  0  0  0
    8.6790   -4.1630  -51.3390 C   0  0  1  0  0  0  0  0  0  0  0  0
    8.6220   -3.3700  -50.0220 C   0  0  0  0  0  0  0  0  0  0  0  0
    7.3600   -2.4890  -49.9880 C   0  0  2  0  0  0  0  0  0  0  0  0
    6.1160   -3.3830  -50.1120 C   0  0  0  0  0  0  0  0  0  0  0  0
    6.1660   -4.1710  -51.4310 C   0  0  2  0  0  0  0  0  0  0  0  0
    7.4280   -5.0460  -51.4550 C   0  0  0  0  0  0  0  0  0  0  0  0
    6.2150   -3.1840  -52.6070 C   0  0  0  0  0  0  0  0  0  0  0  0
    7.3990   -1.5020  -51.1680 C   0  0  0  0  0  0  0  0  0  0  0  0
    8.2430    0.3940  -55.1570 C   0  0  0  0  0  0  0  0  0  0  0  0
    6.9450    0.6340  -55.6230 C   0  0  0  0  0  0  0  0  0  0  0  0
    6.7130    1.5130  -56.6860 C   0  0  0  0  0  0  0  0  0  0  0  0
    7.8240    2.1320  -57.2690 C   0  0  0  0  0  0  0  0  0  0  0  0
    7.8950    3.0250  -58.3140 N   0  0  0  0  0  0  0  0  0  0  0  0
    9.2040    3.3740  -58.5620 C   0  0  0  0  0  0  0  0  0  0  0  0
    9.5650    4.3280  -59.6520 C   0  0  1  0  0  0  0  0  0  0  0  0
    8.7150    5.4550  -59.4570 O   0  0  0  0  0  0  0  0  0  0  0  0
   11.0310    4.7240  -59.6400 C   0  0  0  0  0  0  0  0  0  0  0  0
   12.0570    3.7870  -59.4390 C   0  0  0  0  0  0  0  0  0  0  0  0
   13.3960    4.1820  -59.4330 C   0  0  0  0  0  0  0  0  0  0  0  0
   13.7310    5.5200  -59.6250 C   0  0  0  0  0  0  0  0  0  0  0  0
   12.7270    6.4660  -59.8220 C   0  0  0  0  0  0  0  0  0  0  0  0
   11.3870    6.0720  -59.8260 C   0  0  0  0  0  0  0  0  0  0  0  0
    9.9880    2.6850  -57.6580 C   0  0  0  0  0  0  0  0  0  0  0  0
    9.1300    1.9010  -56.8380 C   0  0  0  0  0  0  0  0  0  0  0  0
    9.3450    1.0130  -55.7680 C   0  0  0  0  0  0  0  0  0  0  0  0
    6.5380   -1.0960  -54.0210 H   0  0  0  0  0  0  0  0  0  0  0  0
    8.7469   -3.7451  -53.4631 H   0  0  0  0  0  0  0  0  0  0  0  0
    9.6150   -2.5482  -52.4277 H   0  0  0  0  0  0  0  0  0  0  0  0
    9.5791   -4.7952  -51.3527 H   0  0  0  0  0  0  0  0  0  0  0  0
    8.5983   -4.0721  -49.1755 H   0  0  0  0  0  0  0  0  0  0  0  0
    9.5116   -2.7269  -49.9507 H   0  0  0  0  0  0  0  0  0  0  0  0
    7.3211   -1.9308  -49.0410 H   0  0  0  0  0  0  0  0  0  0  0  0
    6.0876   -4.0873  -49.2675 H   0  0  0  0  0  0  0  0  0  0  0  0
    5.2148   -2.7523  -50.1014 H   0  0  0  0  0  0  0  0  0  0  0  0
    5.2729   -4.8078  -51.5145 H   0  0  0  0  0  0  0  0  0  0  0  0
    7.3994   -5.7505  -50.6107 H   0  0  0  0  0  0  0  0  0  0  0  0
    7.4645   -5.6027  -52.4030 H   0  0  0  0  0  0  0  0  0  0  0  0
    6.2539   -3.7497  -53.5496 H   0  0  0  0  0  0  0  0  0  0  0  0
    5.3145   -2.5532  -52.5719 H   0  0  0  0  0  0  0  0  0  0  0  0
    6.4921   -0.8798  -51.1493 H   0  0  0  0  0  0  0  0  0  0  0  0
    8.2948   -0.8706  -51.0736 H   0  0  0  0  0  0  0  0  0  0  0  0
    6.0950    0.1239  -55.1462 H   0  0  0  0  0  0  0  0  0  0  0  0
    5.6940    1.7104  -57.0504 H   0  0  0  0  0  0  0  0  0  0  0  0
    7.1030    3.3800  -58.8330 H   0  0  0  0  0  0  0  0  0  0  0  0
    9.4217    3.8628  -60.6384 H   0  0  0  0  0  0  0  0  0  0  0  0
    9.2850    6.1540  -59.0920 H   0  0  0  0  0  0  0  0  0  0  0  0
   11.8026    2.7281  -59.2843 H   0  0  0  0  0  0  0  0  0  0  0  0
   14.1880    3.4349  -59.2763 H   0  0  0  0  0  0  0  0  0  0  0  0
   14.7865    5.8296  -59.6212 H   0  0  0  0  0  0  0  0  0  0  0  0
   12.9898    7.5232  -59.9744 H   0  0  0  0  0  0  0  0  0  0  0  0
   10.6000    6.8256  -59.9765 H   0  0  0  0  0  0  0  0  0  0  0  0
   11.0845    2.7339  -57.5848 H   0  0  0  0  0  0  0  0  0  0  0  0
   10.3657    0.8060  -55.4140 H   0  0  0  0  0  0  0  0  0  0  0  0
  1  2  2  0
  2  3  1  0
  4  3  1  6
  4  5  1  0
  5  6  1  0
  6  7  1  0
  7  8  1  0
  8  9  1  0
  9 10  1  0
 10 11  1  0
 10 12  1  0
  8 13  1  0
  2 14  1  0
 14 15  2  0
 15 16  1  0
 16 17  2  0
 17 18  1  0
 18 19  1  0
 19 20  1  0
 20 21  1  0
 20 22  1  0
 22 23  2  0
 23 24  1  0
 24 25  2  0
 25 26  1  0
 26 27  2  0
 19 28  2  0
 28 29  1  0
 29 30  2  0
 12  4  1  0
 30 14  1  0
 13  4  1  0
 29 17  1  0
 11  6  1  0
 27 22  1  0
  3 31  1  0
  5 32  1  0
  5 33  1  0
  6 34  1  1
  7 35  1  0
  7 36  1  0
  8 37  1  1
  9 38  1  0
  9 39  1  0
 10 40  1  6
 11 41  1  0
 11 42  1  0
 12 43  1  0
 12 44  1  0
 13 45  1  0
 13 46  1  0
 15 47  1  0
 16 48  1  0
 18 49  1  0
 20 50  1  6
 21 51  1  0
 23 52  1  0
 24 53  1  0
 25 54  1  0
 26 55  1  0
 27 56  1  0
 28 57  1  0
 30 58  1  0
M  END
>  <meeko>  (114) 
{"is_sidechain": false}

$$$$

     RDKit          3D

 58 63  0  0  0  0  0  0  0  0999 V2000
    6.2420    0.4950  -53.1750 O   0  0  0  0  0  0  0  0  0  0  0  0
    6.9640    0.0360  -54.0510 C   0  0  0  0  0  0  0  0  0  0  0  0
    7.6580   -1.1530  -53.9520 N   0  0  0  0  0  0  0  0  0  0  0  0
    7.5960   -2.0550  -52.7960 C   0  0  2  0  0  0  0  0  0  0  0  0
    6.2970   -2.9000  -52.8020 C   0  0  0  0  0  0  0  0  0  0  0  0
    6.2830   -3.8770  -51.6130 C   0  0  1  0  0  0  0  0  0  0  0  0
    7.4900   -4.8230  -51.7180 C   0  0  0  0  0  0  0  0  0  0  0  0
    8.7950   -4.0140  -51.6930 C   0  0  2  0  0  0  0  0  0  0  0  0
    8.8790   -3.2220  -50.3790 C   0  0  0  0  0  0  0  0  0  0  0  0
    7.6810   -2.2660  -50.2660 C   0  0  2  0  0  0  0  0  0  0  0  0
    6.3760   -3.0810  -50.3010 C   0  0  0  0  0  0  0  0  0  0  0  0
    7.6970   -1.2870  -51.4530 C   0  0  0  0  0  0  0  0  0  0  0  0
    8.8020   -3.0310  -52.8740 C   0  0  0  0  0  0  0  0  0  0  0  0
    7.0970    0.7600  -55.3470 C   0  0  0  0  0  0  0  0  0  0  0  0
    5.9290    1.1510  -56.0110 C   0  0  0  0  0  0  0  0  0  0  0  0
    5.9800    1.8320  -57.2310 C   0  0  0  0  0  0  0  0  0  0  0  0
    7.2440    2.1150  -57.7580 C   0  0  0  0  0  0  0  0  0  0  0  0
    7.5940    2.7690  -58.9180 N   0  0  0  0  0  0  0  0  0  0  0  0
    8.9620    2.8310  -59.0440 C   0  0  0  0  0  0  0  0  0  0  0  0
    9.6190    3.4860  -60.2160 C   0  0  2  0  0  0  0  0  0  0  0  0
    9.8060    2.4630  -61.1920 O   0  0  0  0  0  0  0  0  0  0  0  0
   10.9280    4.1610  -59.8600 C   0  0  0  0  0  0  0  0  0  0  0  0
   12.0500    3.4310  -59.4340 C   0  0  0  0  0  0  0  0  0  0  0  0
   13.2410    4.0780  -59.1000 C   0  0  0  0  0  0  0  0  0  0  0  0
   13.3290    5.4670  -59.1820 C   0  0  0  0  0  0  0  0  0  0  0  0
   12.2240    6.2080  -59.5960 C   0  0  0  0  0  0  0  0  0  0  0  0
   11.0330    5.5600  -59.9320 C   0  0  0  0  0  0  0  0  0  0  0  0
    9.4990    2.2110  -57.9300 C   0  0  0  0  0  0  0  0  0  0  0  0
    8.4280    1.7520  -57.1170 C   0  0  0  0  0  0  0  0  0  0  0  0
    8.3570    1.0700  -55.8870 C   0  0  0  0  0  0  0  0  0  0  0  0
    8.0180   -1.5440  -54.8110 H   0  0  0  0  0  0  0  0  0  0  0  0
    5.4285   -2.2289  -52.7291 H   0  0  0  0  0  0  0  0  0  0  0  0
    6.2531   -3.4776  -53.7371 H   0  0  0  0  0  0  0  0  0  0  0  0
    5.3517   -4.4622  -51.6266 H   0  0  0  0  0  0  0  0  0  0  0  0
    7.4791   -5.5230  -50.8696 H   0  0  0  0  0  0  0  0  0  0  0  0
    7.4296   -5.3818  -52.6635 H   0  0  0  0  0  0  0  0  0  0  0  0
    9.6541   -4.6968  -51.7694 H   0  0  0  0  0  0  0  0  0  0  0  0
    8.8684   -3.9217  -49.5303 H   0  0  0  0  0  0  0  0  0  0  0  0
    9.8107   -2.6374  -50.3679 H   0  0  0  0  0  0  0  0  0  0  0  0
    7.7442   -1.7052  -49.3218 H   0  0  0  0  0  0  0  0  0  0  0  0
    6.3602   -3.7787  -49.4507 H   0  0  0  0  0  0  0  0  0  0  0  0
    5.5206   -2.3924  -50.2372 H   0  0  0  0  0  0  0  0  0  0  0  0
    6.8435   -0.5987  -51.3653 H   0  0  0  0  0  0  0  0  0  0  0  0
    8.6426   -0.7252  -51.4363 H   0  0  0  0  0  0  0  0  0  0  0  0
    9.7361   -2.4504  -52.8527 H   0  0  0  0  0  0  0  0  0  0  0  0
    8.7259   -3.6066  -53.8083 H   0  0  0  0  0  0  0  0  0  0  0  0
    4.9512    0.9179  -55.5642 H   0  0  0  0  0  0  0  0  0  0  0  0
    5.0615    2.1335  -57.7559 H   0  0  0  0  0  0  0  0  0  0  0  0
    6.9270    3.1540  -59.5740 H   0  0  0  0  0  0  0  0  0  0  0  0
    8.9836    4.2982  -60.5989 H   0  0  0  0  0  0  0  0  0  0  0  0
   10.5430    2.7470  -61.7560 H   0  0  0  0  0  0  0  0  0  0  0  0
   11.9893    2.3350  -59.3627 H   0  0  0  0  0  0  0  0  0  0  0  0
   14.1114    3.4910  -58.7716 H   0  0  0  0  0  0  0  0  0  0  0  0
   14.2682    5.9765  -58.9206 H   0  0  0  0  0  0  0  0  0  0  0  0
   12.2896    7.3043  -59.6583 H   0  0  0  0  0  0  0  0  0  0  0  0
   10.1657    6.1532  -60.2573 H   0  0  0  0  0  0  0  0  0  0  0  0
   10.5706    2.0936  -57.7113 H   0  0  0  0  0  0  0  0  0  0  0  0
    9.2764    0.7834  -55.3554 H   0  0  0  0  0  0  0  0  0  0  0  0
  1  2  2  0
  2  3  1  0
  4  3  1  6
  4  5  1  0
  5  6  1  0
  6  7  1  0
  7  8  1  0
  8  9  1  0
  9 10  1  0
 10 11  1  0
 10 12  1  0
  8 13  1  0
  2 14  1  0
 14 15  2  0
 15 16  1  0
 16 17  2  0
 17 18  1  0
 18 19  1  0
 19 20  1  0
 20 21  1  0
 20 22  1  0
 22 23  2  0
 23 24  1  0
 24 25  2  0
 25 26  1  0
 26 27  2  0
 19 28  2  0
 28 29  1  0
 29 30  2  0
 12  4  1  0
 30 14  1  0
 13  4  1  0
 29 17  1  0
 11  6  1  0
 27 22  1  0
  3 31  1  0
  5 32  1  0
  5 33  1  0
  6 34  1  1
  7 35  1  0
  7 36  1  0
  8 37  1  6
  9 38  1  0
  9 39  1  0
 10 40  1  1
 11 41  1  0
 11 42  1  0
 12 43  1  0
 12 44  1  0
 13 45  1  0
 13 46  1  0
 15 47  1  0
 16 48  1  0
 18 49  1  0
 20 50  1  6
 21 51  1  0
 23 52  1  0
 24 53  1  0
 25 54  1  0
 26 55  1  0
 27 56  1  0
 28 57  1  0
 30 58  1  0
M  END
>  <meeko>  (115) 
{"is_sidechain": false}

$$$$

     RDKit          3D

 56 61  0  0  0  0  0  0  0  0999 V2000
    6.6520    3.5910  -58.6120 O   0  0  0  0  0  0  0  0  0  0  0  0
    7.3510    3.3570  -57.6400 C   0  0  0  0  0  0  0  0  0  0  0  0
    8.4270    4.0680  -57.2290 O   0  0  0  0  0  0  0  0  0  0  0  0
    9.6030    4.1700  -58.0600 C   0  0  2  0  0  0  0  0  0  0  0  0
    9.3770    5.4220  -58.9440 C   0  0  0  0  0  0  0  0  0  0  0  0
   10.5650    5.6500  -59.8880 C   0  0  1  0  0  0  0  0  0  0  0  0
   11.8410    5.8460  -59.0520 C   0  0  0  0  0  0  0  0  0  0  0  0
   12.0910    4.6060  -58.1790 C   0  0  2  0  0  0  0  0  0  0  0  0
   12.2450    3.3700  -59.0850 C   0  0  0  0  0  0  0  0  0  0  0  0
   10.9760    3.1670  -59.9320 C   0  0  2  0  0  0  0  0  0  0  0  0
   10.7340    4.4190  -60.7920 C   0  0  0  0  0  0  0  0  0  0  0  0
    9.7720    2.9540  -58.9980 C   0  0  0  0  0  0  0  0  0  0  0  0
   10.8920    4.3970  -57.2390 C   0  0  0  0  0  0  0  0  0  0  0  0
    7.1130    2.2080  -56.7220 C   0  0  0  0  0  0  0  0  0  0  0  0
    5.9110    1.4870  -56.7190 C   0  0  0  0  0  0  0  0  0  0  0  0
    5.7110    0.4130  -55.8450 C   0  0  0  0  0  0  0  0  0  0  0  0
    6.7550    0.0850  -54.9740 C   0  0  0  0  0  0  0  0  0  0  0  0
    6.8380   -0.9040  -54.0200 N   0  0  0  0  0  0  0  0  0  0  0  0
    8.0660   -0.8840  -53.3950 C   0  0  0  0  0  0  0  0  0  0  0  0
    8.4410   -1.8000  -52.3160 C   0  0  0  0  0  0  0  0  0  0  0  0
    7.6030   -1.8570  -51.1890 C   0  0  0  0  0  0  0  0  0  0  0  0
    7.8890   -2.7050  -50.1180 C   0  0  0  0  0  0  0  0  0  0  0  0
    9.0210   -3.5080  -50.1570 C   0  0  0  0  0  0  0  0  0  0  0  0
    9.8670   -3.4610  -51.2640 C   0  0  0  0  0  0  0  0  0  0  0  0
    9.5950   -2.6080  -52.3550 C   0  0  0  0  0  0  0  0  0  0  0  0
   10.5540   -2.5830  -53.5190 C   0  0  0  0  0  0  0  0  0  0  0  0
   11.3410   -1.4680  -53.5510 F   0  0  0  0  0  0  0  0  0  0  0  0
   11.4300   -3.6330  -53.4900 F   0  0  0  0  0  0  0  0  0  0  0  0
    9.9440   -2.6300  -54.7340 F   0  0  0  0  0  0  0  0  0  0  0  0
    8.7710    0.1680  -53.9540 C   0  0  0  0  0  0  0  0  0  0  0  0
    7.9620    0.7770  -54.9500 C   0  0  0  0  0  0  0  0  0  0  0  0
    8.1460    1.8560  -55.8360 C   0  0  0  0  0  0  0  0  0  0  0  0
    8.4645    5.2804  -59.5418 H   0  0  0  0  0  0  0  0  0  0  0  0
    9.2761    6.3000  -58.2891 H   0  0  0  0  0  0  0  0  0  0  0  0
   10.3856    6.5417  -60.5066 H   0  0  0  0  0  0  0  0  0  0  0  0
   12.6981    5.9970  -59.7248 H   0  0  0  0  0  0  0  0  0  0  0  0
   11.7172    6.7259  -58.4036 H   0  0  0  0  0  0  0  0  0  0  0  0
   13.0067    4.7491  -57.5866 H   0  0  0  0  0  0  0  0  0  0  0  0
   13.1074    3.5145  -59.7523 H   0  0  0  0  0  0  0  0  0  0  0  0
   12.4006    2.4818  -58.4550 H   0  0  0  0  0  0  0  0  0  0  0  0
   11.1015    2.2889  -60.5825 H   0  0  0  0  0  0  0  0  0  0  0  0
   11.5931    4.5733  -61.4614 H   0  0  0  0  0  0  0  0  0  0  0  0
    9.8195    4.2784  -61.3869 H   0  0  0  0  0  0  0  0  0  0  0  0
    8.8608    2.8315  -59.6019 H   0  0  0  0  0  0  0  0  0  0  0  0
    9.9438    2.0531  -58.3906 H   0  0  0  0  0  0  0  0  0  0  0  0
   11.0774    3.5185  -56.6035 H   0  0  0  0  0  0  0  0  0  0  0  0
   10.7659    5.2932  -56.6137 H   0  0  0  0  0  0  0  0  0  0  0  0
    5.1097    1.7710  -57.4171 H   0  0  0  0  0  0  0  0  0  0  0  0
    4.7675   -0.1526  -55.8429 H   0  0  0  0  0  0  0  0  0  0  0  0
    6.0990   -1.5670  -53.8220 H   0  0  0  0  0  0  0  0  0  0  0  0
    6.7057   -1.2219  -51.1504 H   0  0  0  0  0  0  0  0  0  0  0  0
    7.2196   -2.7371  -49.2457 H   0  0  0  0  0  0  0  0  0  0  0  0
    9.2497   -4.1797  -49.3164 H   0  0  0  0  0  0  0  0  0  0  0  0
   10.7621   -4.0999  -51.2876 H   0  0  0  0  0  0  0  0  0  0  0  0
    9.7878    0.4802  -53.6737 H   0  0  0  0  0  0  0  0  0  0  0  0
    9.0909    2.4191  -55.8348 H   0  0  0  0  0  0  0  0  0  0  0  0
  1  2  2  0
  2  3  1  0
  4  3  1  1
  4  5  1  0
  5  6  1  0
  6  7  1  0
  7  8  1  0
  8  9  1  0
  9 10  1  0
 10 11  1  0
 10 12  1  0
  8 13  1  0
  2 14  1  0
 14 15  2  0
 15 16  1  0
 16 17  2  0
 17 18  1  0
 18 19  1  0
 19 20  1  0
 20 21  2  0
 21 22  1  0
 22 23  2  0
 23 24  1  0
 24 25  2  0
 25 26  1  0
 26 27  1  0
 26 28  1  0
 26 29  1  0
 19 30  2  0
 30 31  1  0
 31 32  2  0
 12  4  1  0
 32 14  1  0
 13  4  1  0
 31 17  1  0
 11  6  1  0
 25 20  1  0
  5 33  1  0
  5 34  1  0
  6 35  1  6
  7 36  1  0
  7 37  1  0
  8 38  1  1
  9 39  1  0
  9 40  1  0
 10 41  1  6
 11 42  1  0
 11 43  1  0
 12 44  1  0
 12 45  1  0
 13 46  1  0
 13 47  1  0
 15 48  1  0
 16 49  1  0
 18 50  1  0
 21 51  1  0
 22 52  1  0
 23 53  1  0
 24 54  1  0
 30 55  1  0
 32 56  1  0
M  END
>  <meeko>  (116) 
{"is_sidechain": false}

$$$$

     RDKit          3D

 53 58  0  0  0  0  0  0  0  0999 V2000
    6.2780    0.7230  -53.2900 C   0  0  0  0  0  0  0  0  0  0  0  0
    6.7760   -0.1650  -54.3500 N   0  0  0  0  0  0  0  0  0  0  0  0
    7.2710    0.6750  -55.3820 C   0  0  0  0  0  0  0  0  0  0  0  0
    6.3680    1.0330  -56.3930 C   0  0  0  0  0  0  0  0  0  0  0  0
    6.7560    1.8680  -57.4390 C   0  0  0  0  0  0  0  0  0  0  0  0
    8.0740    2.3060  -57.3890 C   0  0  0  0  0  0  0  0  0  0  0  0
    8.8010    3.1170  -58.2250 N   0  0  0  0  0  0  0  0  0  0  0  0
   10.0910    3.2750  -57.7590 C   0  0  0  0  0  0  0  0  0  0  0  0
   11.0990    4.0780  -58.4540 C   0  0  0  0  0  0  0  0  0  0  0  0
   10.7400    5.2240  -59.1790 C   0  0  0  0  0  0  0  0  0  0  0  0
   11.7120    5.9810  -59.8400 C   0  0  0  0  0  0  0  0  0  0  0  0
   13.0520    5.6030  -59.7840 C   0  0  0  0  0  0  0  0  0  0  0  0
   13.4220    4.4700  -59.0640 C   0  0  0  0  0  0  0  0  0  0  0  0
   12.4510    3.7130  -58.4000 C   0  0  0  0  0  0  0  0  0  0  0  0
   10.1790    2.5250  -56.5970 C   0  0  0  0  0  0  0  0  0  0  0  0
    8.9210    1.9230  -56.3600 C   0  0  0  0  0  0  0  0  0  0  0  0
    8.5430    1.1140  -55.3450 N   0  0  0  0  0  0  0  0  0  0  0  0
    7.6560   -1.2990  -53.9420 C   0  0  2  0  0  0  0  0  0  0  0  0
    9.0710   -1.2690  -54.5770 C   0  0  0  0  0  0  0  0  0  0  0  0
    9.9280   -2.4420  -54.0640 C   0  0  2  0  0  0  0  0  0  0  0  0
    9.2410   -3.7760  -54.4110 C   0  0  0  0  0  0  0  0  0  0  0  0
    7.8540   -3.8420  -53.7630 C   0  0  2  0  0  0  0  0  0  0  0  0
    6.9820   -2.6780  -54.2450 C   0  0  0  0  0  0  0  0  0  0  0  0
    8.0390   -3.6790  -52.2670 C   0  0  0  0  0  0  0  0  0  0  0  0
    7.6900   -4.5270  -51.4530 O   0  0  0  0  0  0  0  0  0  0  0  0
    8.7030   -2.3760  -51.8670 C   0  0  1  0  0  0  0  0  0  0  0  0
   10.0800   -2.3370  -52.5360 C   0  0  0  0  0  0  0  0  0  0  0  0
    7.8220   -1.2340  -52.3860 C   0  0  0  0  0  0  0  0  0  0  0  0
    6.5196    0.2922  -52.3072 H   0  0  0  0  0  0  0  0  0  0  0  0
    6.7542    1.7100  -53.3848 H   0  0  0  0  0  0  0  0  0  0  0  0
    5.1875    0.8314  -53.3848 H   0  0  0  0  0  0  0  0  0  0  0  0
    5.3377    0.6490  -56.3600 H   0  0  0  0  0  0  0  0  0  0  0  0
    6.0683    2.1596  -58.2465 H   0  0  0  0  0  0  0  0  0  0  0  0
    8.4470    3.5230  -59.0800 H   0  0  0  0  0  0  0  0  0  0  0  0
    9.6845    5.5297  -59.2279 H   0  0  0  0  0  0  0  0  0  0  0  0
   11.4181    6.8774  -60.4058 H   0  0  0  0  0  0  0  0  0  0  0  0
   13.8153    6.1979  -60.3070 H   0  0  0  0  0  0  0  0  0  0  0  0
   14.4792    4.1699  -59.0173 H   0  0  0  0  0  0  0  0  0  0  0  0
   12.7518    2.8219  -57.8295 H   0  0  0  0  0  0  0  0  0  0  0  0
   11.0740    2.4164  -55.9668 H   0  0  0  0  0  0  0  0  0  0  0  0
    8.9768   -1.3428  -55.6705 H   0  0  0  0  0  0  0  0  0  0  0  0
    9.5623   -0.3255  -54.2969 H   0  0  0  0  0  0  0  0  0  0  0  0
   10.9187   -2.4019  -54.5404 H   0  0  0  0  0  0  0  0  0  0  0  0
    9.1360   -3.8572  -55.5030 H   0  0  0  0  0  0  0  0  0  0  0  0
    9.8548   -4.6053  -54.0297 H   0  0  0  0  0  0  0  0  0  0  0  0
    7.3737   -4.7965  -54.0243 H   0  0  0  0  0  0  0  0  0  0  0  0
    6.8283   -2.7709  -55.3302 H   0  0  0  0  0  0  0  0  0  0  0  0
    6.0213   -2.7196  -53.7108 H   0  0  0  0  0  0  0  0  0  0  0  0
    8.8220   -2.2828  -50.7774 H   0  0  0  0  0  0  0  0  0  0  0  0
   10.5803   -1.3903  -52.2842 H   0  0  0  0  0  0  0  0  0  0  0  0
   10.6804   -3.1848  -52.1745 H   0  0  0  0  0  0  0  0  0  0  0  0
    6.8295   -1.3068  -51.9173 H   0  0  0  0  0  0  0  0  0  0  0  0
    8.3068   -0.2803  -52.1301 H   0  0  0  0  0  0  0  0  0  0  0  0
  1  2  1  0
  2  3  1  0
  3  4  1  0
  4  5  2  0
  5  6  1  0
  6  7  1  0
  7  8  1  0
  8  9  1  0
  9 10  2  0
 10 11  1  0
 11 12  2  0
 12 13  1  0
 13 14  2  0
  8 15  2  0
 15 16  1  0
 16 17  1  0
 18  2  1  6
 18 19  1  0
 19 20  1  0
 20 21  1  0
 21 22  1  0
 22 23  1  0
 22 24  1  0
 24 25  2  0
 24 26  1  0
 26 27  1  0
 26 28  1  0
 17  3  2  0
 23 18  1  0
 16  6  2  0
 28 18  1  0
 14  9  1  0
 27 20  1  0
  1 29  1  0
  1 30  1  0
  1 31  1  0
  4 32  1  0
  5 33  1  0
  7 34  1  0
 10 35  1  0
 11 36  1  0
 12 37  1  0
 13 38  1  0
 14 39  1  0
 15 40  1  0
 19 41  1  0
 19 42  1  0
 20 43  1  6
 21 44  1  0
 21 45  1  0
 22 46  1  1
 23 47  1  0
 23 48  1  0
 26 49  1  1
 27 50  1  0
 27 51  1  0
 28 52  1  0
 28 53  1  0
M  END
>  <meeko>  (117) 
{"is_sidechain": false}

$$$$

     RDKit          3D

 53 58  0  0  0  0  0  0  0  0999 V2000
    5.9650    0.3490  -53.2900 C   0  0  0  0  0  0  0  0  0  0  0  0
    7.1560   -0.0480  -54.0540 N   0  0  0  0  0  0  0  0  0  0  0  0
    7.5310    0.7320  -55.1480 C   0  0  0  0  0  0  0  0  0  0  0  0
    6.6310    1.0670  -56.1130 C   0  0  0  0  0  0  0  0  0  0  0  0
    7.0120    1.8980  -57.2500 C   0  0  0  0  0  0  0  0  0  0  0  0
    8.2680    2.3560  -57.3200 C   0  0  0  0  0  0  0  0  0  0  0  0
    8.8470    3.1590  -58.2610 N   0  0  0  0  0  0  0  0  0  0  0  0
   10.0720    3.3260  -57.8300 C   0  0  0  0  0  0  0  0  0  0  0  0
   11.0800    4.1440  -58.5460 C   0  0  0  0  0  0  0  0  0  0  0  0
   10.7410    5.2740  -59.3010 C   0  0  0  0  0  0  0  0  0  0  0  0
   11.7360    6.0080  -59.9550 C   0  0  0  0  0  0  0  0  0  0  0  0
   13.0720    5.6190  -59.8620 C   0  0  0  0  0  0  0  0  0  0  0  0
   13.4170    4.4960  -59.1140 C   0  0  0  0  0  0  0  0  0  0  0  0
   12.4260    3.7620  -58.4600 C   0  0  0  0  0  0  0  0  0  0  0  0
   10.3890    2.6300  -56.5640 C   0  0  0  0  0  0  0  0  0  0  0  0
    9.2330    2.0280  -56.2920 C   0  0  0  0  0  0  0  0  0  0  0  0
    8.8280    1.2130  -55.2690 N   0  0  0  0  0  0  0  0  0  0  0  0
    7.8760   -1.2830  -53.6280 C   0  0  2  0  0  0  0  0  0  0  0  0
    9.3870   -1.2480  -54.0110 C   0  0  0  0  0  0  0  0  0  0  0  0
   10.1120   -2.5260  -53.5530 C   0  0  2  0  0  0  0  0  0  0  0  0
    9.4790   -3.7490  -54.2330 C   0  0  0  0  0  0  0  0  0  0  0  0
    7.9920   -3.8250  -53.8820 C   0  0  2  0  0  0  0  0  0  0  0  0
    7.2670   -2.5460  -54.3190 C   0  0  0  0  0  0  0  0  0  0  0  0
    7.8770   -3.9050  -52.3690 C   0  0  0  0  0  0  0  0  0  0  0  0
    7.3160   -4.8310  -51.7910 O   0  0  0  0  0  0  0  0  0  0  0  0
    8.4940   -2.7270  -51.6330 C   0  0  1  0  0  0  0  0  0  0  0  0
    9.9750   -2.6670  -52.0260 C   0  0  0  0  0  0  0  0  0  0  0  0
    7.7570   -1.4610  -52.0900 C   0  0  0  0  0  0  0  0  0  0  0  0
    6.1793    0.2776  -52.2135 H   0  0  0  0  0  0  0  0  0  0  0  0
    5.6961    1.3854  -53.5424 H   0  0  0  0  0  0  0  0  0  0  0  0
    5.1281   -0.3188  -53.5424 H   0  0  0  0  0  0  0  0  0  0  0  0
    5.5957    0.7038  -56.0338 H   0  0  0  0  0  0  0  0  0  0  0  0
    6.2813    2.1435  -58.0347 H   0  0  0  0  0  0  0  0  0  0  0  0
    9.6889    5.5852  -59.3799 H   0  0  0  0  0  0  0  0  0  0  0  0
   11.4636    6.8955  -60.5450 H   0  0  0  0  0  0  0  0  0  0  0  0
   13.8518    6.1980  -60.3784 H   0  0  0  0  0  0  0  0  0  0  0  0
   14.4702    4.1875  -59.0386 H   0  0  0  0  0  0  0  0  0  0  0  0
   12.7040    2.8752  -57.8714 H   0  0  0  0  0  0  0  0  0  0  0  0
   11.3313    2.6140  -55.9968 H   0  0  0  0  0  0  0  0  0  0  0  0
    9.4320    1.0850  -54.4730 H   0  0  0  0  0  0  0  0  0  0  0  0
    9.4773   -1.1573  -55.1035 H   0  0  0  0  0  0  0  0  0  0  0  0
    9.8518   -0.3871  -53.5082 H   0  0  0  0  0  0  0  0  0  0  0  0
   11.1752   -2.4631  -53.8280 H   0  0  0  0  0  0  0  0  0  0  0  0
    9.5928   -3.6602  -55.3235 H   0  0  0  0  0  0  0  0  0  0  0  0
    9.9824   -4.6615  -53.8810 H   0  0  0  0  0  0  0  0  0  0  0  0
    7.5480   -4.6958  -54.3865 H   0  0  0  0  0  0  0  0  0  0  0  0
    7.3589   -2.4370  -55.4097 H   0  0  0  0  0  0  0  0  0  0  0  0
    6.2106   -2.6278  -54.0235 H   0  0  0  0  0  0  0  0  0  0  0  0
    8.4102   -2.8208  -50.5402 H   0  0  0  0  0  0  0  0  0  0  0  0
   10.4464   -1.8017  -51.5370 H   0  0  0  0  0  0  0  0  0  0  0  0
   10.4707   -3.5948  -51.7042 H   0  0  0  0  0  0  0  0  0  0  0  0
    6.6946   -1.5430  -51.8169 H   0  0  0  0  0  0  0  0  0  0  0  0
    8.2112   -0.5892  -51.5964 H   0  0  0  0  0  0  0  0  0  0  0  0
  1  2  1  0
  2  3  1  0
  3  4  2  0
  4  5  1  0
  5  6  2  0
  6  7  1  0
  7  8  2  0
  8  9  1  0
  9 10  2  0
 10 11  1  0
 11 12  2  0
 12 13  1  0
 13 14  2  0
  8 15  1  0
 15 16  2  0
 16 17  1  0
 18  2  1  6
 18 19  1  0
 19 20  1  0
 20 21  1  0
 21 22  1  0
 22 23  1  0
 22 24  1  0
 24 25  2  0
 24 26  1  0
 26 27  1  0
 26 28  1  0
 17  3  1  0
 23 18  1  0
 16  6  1  0
 28 18  1  0
 14  9  1  0
 27 20  1  0
  1 29  1  0
  1 30  1  0
  1 31  1  0
  4 32  1  0
  5 33  1  0
 10 34  1  0
 11 35  1  0
 12 36  1  0
 13 37  1  0
 14 38  1  0
 15 39  1  0
 17 40  1  0
 19 41  1  0
 19 42  1  0
 20 43  1  1
 21 44  1  0
 21 45  1  0
 22 46  1  6
 23 47  1  0
 23 48  1  0
 26 49  1  1
 27 50  1  0
 27 51  1  0
 28 52  1  0
 28 53  1  0
M  END
>  <meeko>  (118) 
{"is_sidechain": false}

$$$$

     RDKit          3D

 48 51  0  0  0  0  0  0  0  0999 V2000
   11.5310   -3.3560  -53.7040 O   0  0  0  0  0  0  0  0  0  0  0  0
   10.7460   -3.7030  -54.5860 C   0  0  0  0  0  0  0  0  0  0  0  0
    9.2530   -3.7160  -54.3650 C   0  0  0  0  0  0  0  0  0  0  0  0
    8.6920   -2.3480  -54.1070 C   0  0  0  0  0  0  0  0  0  0  0  0
    7.5290   -2.0230  -54.5630 N   0  0  0  0  0  0  0  0  0  0  0  0
    7.1130   -0.6640  -54.1970 C   0  0  2  0  0  0  0  0  0  0  0  0
    5.7400   -0.5730  -53.8420 O   0  0  0  0  0  0  0  0  0  0  0  0
    7.4950    0.3740  -55.2430 C   0  0  0  0  0  0  0  0  0  0  0  0
    6.5490    0.9490  -56.1040 C   0  0  0  0  0  0  0  0  0  0  0  0
    6.9070    1.9000  -57.0670 C   0  0  0  0  0  0  0  0  0  0  0  0
    8.2550    2.2640  -57.1450 C   0  0  0  0  0  0  0  0  0  0  0  0
    8.8880    3.1570  -57.9780 N   0  0  0  0  0  0  0  0  0  0  0  0
   10.2390    3.2130  -57.7120 C   0  0  0  0  0  0  0  0  0  0  0  0
   11.1640    4.0730  -58.4530 C   0  0  0  0  0  0  0  0  0  0  0  0
   10.7040    5.1860  -59.1680 C   0  0  0  0  0  0  0  0  0  0  0  0
   11.5950    5.9990  -59.8740 C   0  0  0  0  0  0  0  0  0  0  0  0
   12.9570    5.7070  -59.8720 C   0  0  0  0  0  0  0  0  0  0  0  0
   13.4290    4.6070  -59.1610 C   0  0  0  0  0  0  0  0  0  0  0  0
   12.5380    3.7950  -58.4530 C   0  0  0  0  0  0  0  0  0  0  0  0
   10.4670    2.3170  -56.6820 C   0  0  0  0  0  0  0  0  0  0  0  0
    9.2300    1.7220  -56.3140 C   0  0  0  0  0  0  0  0  0  0  0  0
    8.8450    0.7690  -55.3510 C   0  0  0  0  0  0  0  0  0  0  0  0
   11.2810   -4.1420  -55.9110 C   0  0  0  0  0  0  0  0  0  0  0  0
   11.4400   -3.2570  -56.9860 C   0  0  0  0  0  0  0  0  0  0  0  0
   11.9430   -3.7190  -58.2060 C   0  0  0  0  0  0  0  0  0  0  0  0
   12.2870   -5.0610  -58.3610 C   0  0  0  0  0  0  0  0  0  0  0  0
   12.1310   -5.9460  -57.2980 C   0  0  0  0  0  0  0  0  0  0  0  0
   11.6290   -5.4900  -56.0780 C   0  0  0  0  0  0  0  0  0  0  0  0
    8.7686   -4.1314  -55.2610 H   0  0  0  0  0  0  0  0  0  0  0  0
    9.0552   -4.3290  -53.4733 H   0  0  0  0  0  0  0  0  0  0  0  0
    9.2752   -1.6183  -53.5261 H   0  0  0  0  0  0  0  0  0  0  0  0
    7.6846   -0.4256  -53.2879 H   0  0  0  0  0  0  0  0  0  0  0  0
    5.5780    0.3850  -53.8020 H   0  0  0  0  0  0  0  0  0  0  0  0
    5.4955    0.6440  -56.0203 H   0  0  0  0  0  0  0  0  0  0  0  0
    6.1562    2.3442  -57.7371 H   0  0  0  0  0  0  0  0  0  0  0  0
    8.4230    3.6830  -58.7040 H   0  0  0  0  0  0  0  0  0  0  0  0
    9.6298    5.4228  -59.1740 H   0  0  0  0  0  0  0  0  0  0  0  0
   11.2205    6.8701  -60.4316 H   0  0  0  0  0  0  0  0  0  0  0  0
   13.6581    6.3441  -60.4310 H   0  0  0  0  0  0  0  0  0  0  0  0
   14.5046    4.3765  -59.1563 H   0  0  0  0  0  0  0  0  0  0  0  0
   12.9187    2.9297  -57.8906 H   0  0  0  0  0  0  0  0  0  0  0  0
   11.4437    2.1012  -56.2242 H   0  0  0  0  0  0  0  0  0  0  0  0
    9.5995    0.3312  -54.6809 H   0  0  0  0  0  0  0  0  0  0  0  0
   11.1687   -2.1973  -56.8698 H   0  0  0  0  0  0  0  0  0  0  0  0
   12.0678   -3.0208  -59.0468 H   0  0  0  0  0  0  0  0  0  0  0  0
   12.6815   -5.4204  -59.3229 H   0  0  0  0  0  0  0  0  0  0  0  0
   12.4033   -7.0048  -57.4194 H   0  0  0  0  0  0  0  0  0  0  0  0
   11.5055   -6.1934  -55.2413 H   0  0  0  0  0  0  0  0  0  0  0  0
  1  2  2  0
  2  3  1  0
  3  4  1  0
  4  5  2  0
  5  6  1  0
  6  7  1  0
  6  8  1  0
  8  9  2  0
  9 10  1  0
 10 11  2  0
 11 12  1  0
 12 13  1  0
 13 14  1  0
 14 15  2  0
 15 16  1  0
 16 17  2  0
 17 18  1  0
 18 19  2  0
 13 20  2  0
 20 21  1  0
 21 22  2  0
  2 23  1  0
 23 24  2  0
 24 25  1  0
 25 26  2  0
 26 27  1  0
 27 28  2  0
 22  8  1  0
 28 23  1  0
 21 11  1  0
 19 14  1  0
  3 29  1  0
  3 30  1  0
  4 31  1  0
  6 32  1  1
  7 33  1  0
  9 34  1  0
 10 35  1  0
 12 36  1  0
 15 37  1  0
 16 38  1  0
 17 39  1  0
 18 40  1  0
 19 41  1  0
 20 42  1  0
 22 43  1  0
 24 44  1  0
 25 45  1  0
 26 46  1  0
 27 47  1  0
 28 48  1  0
M  END
>  <meeko>  (119) 
{"is_sidechain": false}

$$$$

     RDKit          3D

 48 51  0  0  0  0  0  0  0  0999 V2000
   11.1590   -2.6120  -53.5000 O   0  0  0  0  0  0  0  0  0  0  0  0
   10.4230   -3.2320  -54.2670 C   0  0  0  0  0  0  0  0  0  0  0  0
    9.0250   -3.6090  -53.8480 C   0  0  0  0  0  0  0  0  0  0  0  0
    8.0090   -2.6120  -54.3130 C   0  0  0  0  0  0  0  0  0  0  0  0
    7.9520   -1.4390  -53.7790 N   0  0  0  0  0  0  0  0  0  0  0  0
    6.8630   -0.6090  -54.3120 C   0  0  1  0  0  0  0  0  0  0  0  0
    6.0380   -0.0600  -53.2950 O   0  0  0  0  0  0  0  0  0  0  0  0
    7.3540    0.4570  -55.2830 C   0  0  0  0  0  0  0  0  0  0  0  0
    6.4200    1.1450  -56.0750 C   0  0  0  0  0  0  0  0  0  0  0  0
    6.8090    2.1120  -57.0080 C   0  0  0  0  0  0  0  0  0  0  0  0
    8.1760    2.3810  -57.1220 C   0  0  0  0  0  0  0  0  0  0  0  0
    8.8430    3.2640  -57.9390 N   0  0  0  0  0  0  0  0  0  0  0  0
   10.2030    3.2070  -57.7270 C   0  0  0  0  0  0  0  0  0  0  0  0
   11.1610    4.0460  -58.4500 C   0  0  0  0  0  0  0  0  0  0  0  0
   10.7400    5.1780  -59.1600 C   0  0  0  0  0  0  0  0  0  0  0  0
   11.6630    5.9740  -59.8450 C   0  0  0  0  0  0  0  0  0  0  0  0
   13.0170    5.6460  -59.8270 C   0  0  0  0  0  0  0  0  0  0  0  0
   13.4480    4.5210  -59.1280 C   0  0  0  0  0  0  0  0  0  0  0  0
   12.5250    3.7250  -58.4450 C   0  0  0  0  0  0  0  0  0  0  0  0
   10.4000    2.2640  -56.7320 C   0  0  0  0  0  0  0  0  0  0  0  0
    9.1370    1.7350  -56.3520 C   0  0  0  0  0  0  0  0  0  0  0  0
    8.7210    0.7610  -55.4210 C   0  0  0  0  0  0  0  0  0  0  0  0
   10.9150   -3.5930  -55.6330 C   0  0  0  0  0  0  0  0  0  0  0  0
   10.7730   -4.9210  -56.0590 C   0  0  0  0  0  0  0  0  0  0  0  0
   11.2180   -5.3130  -57.3220 C   0  0  0  0  0  0  0  0  0  0  0  0
   11.8060   -4.3800  -58.1720 C   0  0  0  0  0  0  0  0  0  0  0  0
   11.9480   -3.0560  -57.7620 C   0  0  0  0  0  0  0  0  0  0  0  0
   11.5040   -2.6600  -56.4960 C   0  0  0  0  0  0  0  0  0  0  0  0
    8.7793   -4.5919  -54.2765 H   0  0  0  0  0  0  0  0  0  0  0  0
    8.9962   -3.6341  -52.7487 H   0  0  0  0  0  0  0  0  0  0  0  0
    7.3065   -2.8816  -55.1154 H   0  0  0  0  0  0  0  0  0  0  0  0
    6.2285   -1.2948  -54.8926 H   0  0  0  0  0  0  0  0  0  0  0  0
    5.6040    0.6900  -53.7310 H   0  0  0  0  0  0  0  0  0  0  0  0
    5.3504    0.9165  -55.9581 H   0  0  0  0  0  0  0  0  0  0  0  0
    6.0687    2.6397  -57.6273 H   0  0  0  0  0  0  0  0  0  0  0  0
    8.3910    3.8870  -58.5920 H   0  0  0  0  0  0  0  0  0  0  0  0
    9.6726    5.4432  -59.1787 H   0  0  0  0  0  0  0  0  0  0  0  0
   11.3198    6.8603  -60.3988 H   0  0  0  0  0  0  0  0  0  0  0  0
   13.7437    6.2739  -60.3634 H   0  0  0  0  0  0  0  0  0  0  0  0
   14.5162    4.2589  -59.1137 H   0  0  0  0  0  0  0  0  0  0  0  0
   12.8728    2.8367  -57.8974 H   0  0  0  0  0  0  0  0  0  0  0  0
   11.3719    1.9731  -56.3068 H   0  0  0  0  0  0  0  0  0  0  0  0
    9.4655    0.2386  -54.8023 H   0  0  0  0  0  0  0  0  0  0  0  0
   10.3066   -5.6606  -55.3916 H   0  0  0  0  0  0  0  0  0  0  0  0
   11.1044   -6.3581  -57.6459 H   0  0  0  0  0  0  0  0  0  0  0  0
   12.1585   -4.6883  -59.1674 H   0  0  0  0  0  0  0  0  0  0  0  0
   12.4106   -2.3199  -58.4359 H   0  0  0  0  0  0  0  0  0  0  0  0
   11.6177   -1.6133  -56.1773 H   0  0  0  0  0  0  0  0  0  0  0  0
  1  2  2  0
  2  3  1  0
  3  4  1  0
  4  5  2  0
  5  6  1  0
  6  7  1  0
  6  8  1  0
  8  9  2  0
  9 10  1  0
 10 11  2  0
 11 12  1  0
 12 13  1  0
 13 14  1  0
 14 15  2  0
 15 16  1  0
 16 17  2  0
 17 18  1  0
 18 19  2  0
 13 20  2  0
 20 21  1  0
 21 22  2  0
  2 23  1  0
 23 24  2  0
 24 25  1  0
 25 26  2  0
 26 27  1  0
 27 28  2  0
 22  8  1  0
 28 23  1  0
 21 11  1  0
 19 14  1  0
  3 29  1  0
  3 30  1  0
  4 31  1  0
  6 32  1  6
  7 33  1  0
  9 34  1  0
 10 35  1  0
 12 36  1  0
 15 37  1  0
 16 38  1  0
 17 39  1  0
 18 40  1  0
 19 41  1  0
 20 42  1  0
 22 43  1  0
 24 44  1  0
 25 45  1  0
 26 46  1  0
 27 47  1  0
 28 48  1  0
M  END
>  <meeko>  (120) 
{"is_sidechain": false}

$$$$

     RDKit          3D

 48 51  0  0  0  0  0  0  0  0999 V2000
   11.4200   -2.7470  -52.2970 O   0  0  0  0  0  0  0  0  0  0  0  0
   10.5680   -2.6910  -53.1840 C   0  0  0  0  0  0  0  0  0  0  0  0
    9.1300   -2.3460  -52.8790 C   0  0  0  0  0  0  0  0  0  0  0  0
    8.1930   -2.7360  -53.9930 C   0  0  0  0  0  0  0  0  0  0  0  0
    7.2710   -2.0290  -54.5560 N   0  0  0  0  0  0  0  0  0  0  0  0
    7.0460   -0.6460  -54.1470 C   0  0  2  0  0  0  0  0  0  0  0  0
    5.7190   -0.4050  -53.7020 O   0  0  0  0  0  0  0  0  0  0  0  0
    7.4920    0.3810  -55.1810 C   0  0  0  0  0  0  0  0  0  0  0  0
    6.5480    0.9670  -56.0390 C   0  0  0  0  0  0  0  0  0  0  0  0
    6.9110    1.9080  -57.0110 C   0  0  0  0  0  0  0  0  0  0  0  0
    8.2640    2.2420  -57.1090 C   0  0  0  0  0  0  0  0  0  0  0  0
    8.9050    3.1190  -57.9540 N   0  0  0  0  0  0  0  0  0  0  0  0
   10.2620    3.1370  -57.7140 C   0  0  0  0  0  0  0  0  0  0  0  0
   11.1930    3.9880  -58.4580 C   0  0  0  0  0  0  0  0  0  0  0  0
   10.7440    5.1100  -59.1670 C   0  0  0  0  0  0  0  0  0  0  0  0
   11.6420    5.9160  -59.8720 C   0  0  0  0  0  0  0  0  0  0  0  0
   13.0010    5.6080  -59.8760 C   0  0  0  0  0  0  0  0  0  0  0  0
   13.4610    4.4930  -59.1800 C   0  0  0  0  0  0  0  0  0  0  0  0
   12.5620    3.6870  -58.4770 C   0  0  0  0  0  0  0  0  0  0  0  0
   10.4830    2.2470  -56.6770 C   0  0  0  0  0  0  0  0  0  0  0  0
    9.2390    1.6770  -56.2940 C   0  0  0  0  0  0  0  0  0  0  0  0
    8.8500    0.7300  -55.3260 C   0  0  0  0  0  0  0  0  0  0  0  0
   10.9640   -2.9480  -54.6020 C   0  0  0  0  0  0  0  0  0  0  0  0
   11.2380   -1.9120  -55.5060 C   0  0  0  0  0  0  0  0  0  0  0  0
   11.6060   -2.2080  -56.8210 C   0  0  0  0  0  0  0  0  0  0  0  0
   11.7050   -3.5330  -57.2420 C   0  0  0  0  0  0  0  0  0  0  0  0
   11.4370   -4.5680  -56.3500 C   0  0  0  0  0  0  0  0  0  0  0  0
   11.0680   -4.2770  -55.0340 C   0  0  0  0  0  0  0  0  0  0  0  0
    8.8275   -2.8741  -51.9627 H   0  0  0  0  0  0  0  0  0  0  0  0
    9.0673   -1.2546  -52.7569 H   0  0  0  0  0  0  0  0  0  0  0  0
    8.3103   -3.7598  -54.3779 H   0  0  0  0  0  0  0  0  0  0  0  0
    7.7037   -0.5058  -53.2765 H   0  0  0  0  0  0  0  0  0  0  0  0
    5.5060    0.4650  -54.0850 H   0  0  0  0  0  0  0  0  0  0  0  0
    5.4907    0.6783  -55.9451 H   0  0  0  0  0  0  0  0  0  0  0  0
    6.1600    2.3661  -57.6714 H   0  0  0  0  0  0  0  0  0  0  0  0
    8.4370    3.6860  -58.6440 H   0  0  0  0  0  0  0  0  0  0  0  0
    9.6726    5.3593  -59.1687 H   0  0  0  0  0  0  0  0  0  0  0  0
   11.2758    6.7941  -60.4241 H   0  0  0  0  0  0  0  0  0  0  0  0
   13.7088    6.2441  -60.4277 H   0  0  0  0  0  0  0  0  0  0  0  0
   14.5330    4.2466  -59.1837 H   0  0  0  0  0  0  0  0  0  0  0  0
   12.9327    2.8062  -57.9322 H   0  0  0  0  0  0  0  0  0  0  0  0
   11.4594    2.0189  -56.2246 H   0  0  0  0  0  0  0  0  0  0  0  0
    9.6084    0.2616  -54.6814 H   0  0  0  0  0  0  0  0  0  0  0  0
   11.1631   -0.8643  -55.1794 H   0  0  0  0  0  0  0  0  0  0  0  0
   11.8185   -1.3917  -57.5271 H   0  0  0  0  0  0  0  0  0  0  0  0
   11.9947   -3.7609  -58.2784 H   0  0  0  0  0  0  0  0  0  0  0  0
   11.5157   -5.6141  -56.6810 H   0  0  0  0  0  0  0  0  0  0  0  0
   10.8576   -5.0973  -54.3319 H   0  0  0  0  0  0  0  0  0  0  0  0
  1  2  2  0
  2  3  1  0
  3  4  1  0
  4  5  2  0
  5  6  1  0
  6  7  1  0
  6  8  1  0
  8  9  2  0
  9 10  1  0
 10 11  2  0
 11 12  1  0
 12 13  1  0
 13 14  1  0
 14 15  2  0
 15 16  1  0
 16 17  2  0
 17 18  1  0
 18 19  2  0
 13 20  2  0
 20 21  1  0
 21 22  2  0
  2 23  1  0
 23 24  2  0
 24 25  1  0
 25 26  2  0
 26 27  1  0
 27 28  2  0
 22  8  1  0
 28 23  1  0
 21 11  1  0
 19 14  1  0
  3 29  1  0
  3 30  1  0
  4 31  1  0
  6 32  1  1
  7 33  1  0
  9 34  1  0
 10 35  1  0
 12 36  1  0
 15 37  1  0
 16 38  1  0
 17 39  1  0
 18 40  1  0
 19 41  1  0
 20 42  1  0
 22 43  1  0
 24 44  1  0
 25 45  1  0
 26 46  1  0
 27 47  1  0
 28 48  1  0
M  END
>  <meeko>  (121) 
{"is_sidechain": false}

$$$$

     RDKit          3D

 48 51  0  0  0  0  0  0  0  0999 V2000
    8.9230    5.4900  -56.6510 O   0  0  0  0  0  0  0  0  0  0  0  0
    9.1550    5.3020  -57.8450 C   0  0  0  0  0  0  0  0  0  0  0  0
    8.0500    5.2830  -58.8740 C   0  0  0  0  0  0  0  0  0  0  0  0
    7.9350    3.9570  -59.5770 C   0  0  0  0  0  0  0  0  0  0  0  0
    7.2780    2.9070  -59.2150 N   0  0  0  0  0  0  0  0  0  0  0  0
    6.5340    2.8970  -57.9580 C   0  0  1  0  0  0  0  0  0  0  0  0
    5.1440    2.6640  -58.1330 O   0  0  0  0  0  0  0  0  0  0  0  0
    7.1320    1.9800  -56.8970 C   0  0  0  0  0  0  0  0  0  0  0  0
    8.5140    2.0080  -56.6450 C   0  0  0  0  0  0  0  0  0  0  0  0
    9.1080    1.1910  -55.6760 C   0  0  0  0  0  0  0  0  0  0  0  0
    8.2700    0.3440  -54.9460 C   0  0  0  0  0  0  0  0  0  0  0  0
    8.5640   -0.5540  -53.9470 N   0  0  0  0  0  0  0  0  0  0  0  0
    7.4240   -1.1810  -53.4910 C   0  0  0  0  0  0  0  0  0  0  0  0
    7.4380   -2.1960  -52.4350 C   0  0  0  0  0  0  0  0  0  0  0  0
    7.0560   -3.5150  -52.7190 C   0  0  0  0  0  0  0  0  0  0  0  0
    7.0690   -4.4930  -51.7210 C   0  0  0  0  0  0  0  0  0  0  0  0
    7.4610   -4.1630  -50.4250 C   0  0  0  0  0  0  0  0  0  0  0  0
    7.8370   -2.8550  -50.1270 C   0  0  0  0  0  0  0  0  0  0  0  0
    7.8250   -1.8770  -51.1260 C   0  0  0  0  0  0  0  0  0  0  0  0
    6.3760   -0.6670  -54.2350 C   0  0  0  0  0  0  0  0  0  0  0  0
    6.8940    0.2930  -55.1460 C   0  0  0  0  0  0  0  0  0  0  0  0
    6.3190    1.1270  -56.1250 C   0  0  0  0  0  0  0  0  0  0  0  0
   10.5610    5.0610  -58.2930 C   0  0  0  0  0  0  0  0  0  0  0  0
   11.3360    4.1340  -57.5810 C   0  0  0  0  0  0  0  0  0  0  0  0
   12.6540    3.8720  -57.9610 C   0  0  0  0  0  0  0  0  0  0  0  0
   13.2060    4.5330  -59.0570 C   0  0  0  0  0  0  0  0  0  0  0  0
   12.4430    5.4540  -59.7720 C   0  0  0  0  0  0  0  0  0  0  0  0
   11.1230    5.7190  -59.3940 C   0  0  0  0  0  0  0  0  0  0  0  0
    7.0961    5.4984  -58.3703 H   0  0  0  0  0  0  0  0  0  0  0  0
    8.2892    6.0424  -59.6331 H   0  0  0  0  0  0  0  0  0  0  0  0
    8.4844    3.8716  -60.5261 H   0  0  0  0  0  0  0  0  0  0  0  0
    6.6381    3.9209  -57.5696 H   0  0  0  0  0  0  0  0  0  0  0  0
    4.8600    3.4050  -58.6970 H   0  0  0  0  0  0  0  0  0  0  0  0
    9.1484    2.6928  -57.2269 H   0  0  0  0  0  0  0  0  0  0  0  0
   10.1929    1.2148  -55.4961 H   0  0  0  0  0  0  0  0  0  0  0  0
    9.4960   -0.7400  -53.6070 H   0  0  0  0  0  0  0  0  0  0  0  0
    6.7426   -3.7828  -53.7388 H   0  0  0  0  0  0  0  0  0  0  0  0
    6.7695   -5.5244  -51.9586 H   0  0  0  0  0  0  0  0  0  0  0  0
    7.4735   -4.9330  -49.6396 H   0  0  0  0  0  0  0  0  0  0  0  0
    8.1438   -2.5913  -49.1041 H   0  0  0  0  0  0  0  0  0  0  0  0
    8.1224   -0.8464  -50.8823 H   0  0  0  0  0  0  0  0  0  0  0  0
    5.3185   -0.9538  -54.1374 H   0  0  0  0  0  0  0  0  0  0  0  0
    5.2311    1.1121  -56.2872 H   0  0  0  0  0  0  0  0  0  0  0  0
   10.9025    3.6094  -56.7168 H   0  0  0  0  0  0  0  0  0  0  0  0
   13.2558    3.1449  -57.3961 H   0  0  0  0  0  0  0  0  0  0  0  0
   14.2440    4.3276  -59.3575 H   0  0  0  0  0  0  0  0  0  0  0  0
   12.8805    5.9744  -60.6367 H   0  0  0  0  0  0  0  0  0  0  0  0
   10.5247    6.4460  -59.9628 H   0  0  0  0  0  0  0  0  0  0  0  0
  1  2  2  0
  2  3  1  0
  3  4  1  0
  4  5  2  0
  5  6  1  0
  6  7  1  0
  6  8  1  0
  8  9  2  0
  9 10  1  0
 10 11  2  0
 11 12  1  0
 12 13  1  0
 13 14  1  0
 14 15  2  0
 15 16  1  0
 16 17  2  0
 17 18  1  0
 18 19  2  0
 13 20  2  0
 20 21  1  0
 21 22  2  0
  2 23  1  0
 23 24  2  0
 24 25  1  0
 25 26  2  0
 26 27  1  0
 27 28  2  0
 22  8  1  0
 28 23  1  0
 21 11  1  0
 19 14  1  0
  3 29  1  0
  3 30  1  0
  4 31  1  0
  6 32  1  1
  7 33  1  0
  9 34  1  0
 10 35  1  0
 12 36  1  0
 15 37  1  0
 16 38  1  0
 17 39  1  0
 18 40  1  0
 19 41  1  0
 20 42  1  0
 22 43  1  0
 24 44  1  0
 25 45  1  0
 26 46  1  0
 27 47  1  0
 28 48  1  0
M  END
>  <meeko>  (122) 
{"is_sidechain": false}

$$$$

     RDKit          3D

 49 54  0  0  0  0  0  0  0  0999 V2000
    8.5540    2.5310  -58.7080 O   0  0  0  0  0  0  0  0  0  0  0  0
    9.0760    2.4100  -57.6070 C   0  0  0  0  0  0  0  0  0  0  0  0
   10.2030    3.0890  -57.2030 N   0  0  0  0  0  0  0  0  0  0  0  0
   10.9470    3.9820  -58.0680 C   0  0  1  0  0  0  0  0  0  0  0  0
   12.3100    4.3820  -57.4650 C   0  0  0  0  0  0  0  0  0  0  0  0
   13.0260    4.7330  -58.7520 C   0  0  0  0  0  0  0  0  0  0  0  0
   12.8640    3.6640  -59.5600 C   0  0  0  0  0  0  0  0  0  0  0  0
   11.3570    3.3940  -59.4810 C   0  0  2  0  0  0  0  0  0  0  0  0
   10.7530    4.4110  -60.4790 C   0  0  0  0  0  0  0  0  0  0  0  0
   10.9150    5.7350  -59.6900 C   0  0  2  0  0  0  0  0  0  0  0  0
   12.4360    6.0150  -59.3800 C   0  0  0  0  0  0  0  0  0  0  0  0
   10.2070    5.3100  -58.3930 C   0  0  0  0  0  0  0  0  0  0  0  0
    8.4440    1.5330  -56.5900 C   0  0  0  0  0  0  0  0  0  0  0  0
    7.0700    1.7280  -56.3900 C   0  0  0  0  0  0  0  0  0  0  0  0
    6.3600    0.9820  -55.4470 C   0  0  0  0  0  0  0  0  0  0  0  0
    7.0710    0.0290  -54.7140 C   0  0  0  0  0  0  0  0  0  0  0  0
    6.6320   -0.8340  -53.7380 N   0  0  0  0  0  0  0  0  0  0  0  0
    7.6540   -1.6330  -53.2720 C   0  0  0  0  0  0  0  0  0  0  0  0
    7.4620   -2.6510  -52.2230 C   0  0  0  0  0  0  0  0  0  0  0  0
    6.1970   -3.2170  -52.0010 C   0  0  0  0  0  0  0  0  0  0  0  0
    6.0030   -4.1840  -51.0070 C   0  0  0  0  0  0  0  0  0  0  0  0
    7.0700   -4.6020  -50.2160 C   0  0  0  0  0  0  0  0  0  0  0  0
    8.3320   -4.0540  -50.4180 C   0  0  0  0  0  0  0  0  0  0  0  0
    8.5190   -3.0920  -51.4100 C   0  0  0  0  0  0  0  0  0  0  0  0
    9.7560   -2.5900  -51.5680 F   0  0  0  0  0  0  0  0  0  0  0  0
    8.7780   -1.2560  -53.9870 C   0  0  0  0  0  0  0  0  0  0  0  0
    8.4320   -0.2090  -54.8960 C   0  0  0  0  0  0  0  0  0  0  0  0
    9.1390    0.5520  -55.8600 C   0  0  0  0  0  0  0  0  0  0  0  0
   10.9780    0.1570  -56.1490 Br  0  0  0  0  0  0  0  0  0  0  0  0
   10.5680    2.9090  -56.2760 H   0  0  0  0  0  0  0  0  0  0  0  0
   12.2271    5.2447  -56.7876 H   0  0  0  0  0  0  0  0  0  0  0  0
   12.7979    3.6218  -56.8373 H   0  0  0  0  0  0  0  0  0  0  0  0
   13.6273    3.1193  -60.1350 H   0  0  0  0  0  0  0  0  0  0  0  0
   11.0666    2.3467  -59.6509 H   0  0  0  0  0  0  0  0  0  0  0  0
   11.3162    4.4326  -61.4237 H   0  0  0  0  0  0  0  0  0  0  0  0
    9.7193    4.1884  -60.7821 H   0  0  0  0  0  0  0  0  0  0  0  0
   10.5370    6.6374  -60.1927 H   0  0  0  0  0  0  0  0  0  0  0  0
   12.9704    6.2576  -60.3104 H   0  0  0  0  0  0  0  0  0  0  0  0
   12.5405    6.8668  -58.6918 H   0  0  0  0  0  0  0  0  0  0  0  0
   10.3455    6.0546  -57.5953 H   0  0  0  0  0  0  0  0  0  0  0  0
    9.1157    5.2082  -58.4862 H   0  0  0  0  0  0  0  0  0  0  0  0
    6.5405    2.4842  -56.9882 H   0  0  0  0  0  0  0  0  0  0  0  0
    5.2829    1.1387  -55.2876 H   0  0  0  0  0  0  0  0  0  0  0  0
    5.6790   -0.8830  -53.4020 H   0  0  0  0  0  0  0  0  0  0  0  0
    5.3445   -2.8959  -52.6176 H   0  0  0  0  0  0  0  0  0  0  0  0
    5.0033   -4.6153  -50.8503 H   0  0  0  0  0  0  0  0  0  0  0  0
    6.9155   -5.3616  -49.4355 H   0  0  0  0  0  0  0  0  0  0  0  0
    9.1801   -4.3784  -49.7972 H   0  0  0  0  0  0  0  0  0  0  0  0
    9.7806   -1.6939  -53.8732 H   0  0  0  0  0  0  0  0  0  0  0  0
  1  2  2  0
  2  3  1  0
  4  3  1  1
  4  5  1  0
  5  6  1  0
  6  7  2  0
  7  8  1  0
  8  9  1  0
  9 10  1  0
 10 11  1  0
 10 12  1  0
  2 13  1  0
 13 14  2  0
 14 15  1  0
 15 16  2  0
 16 17  1  0
 17 18  1  0
 18 19  1  0
 19 20  2  0
 20 21  1  0
 21 22  2  0
 22 23  1  0
 23 24  2  0
 24 25  1  0
 18 26  2  0
 26 27  1  0
 27 28  2  0
 28 29  1  0
  8  4  1  0
 28 13  1  0
 12  4  1  0
 27 16  1  0
 11  6  1  0
 24 19  1  0
  3 30  1  0
  5 31  1  0
  5 32  1  0
  7 33  1  0
  8 34  1  6
  9 35  1  0
  9 36  1  0
 10 37  1  6
 11 38  1  0
 11 39  1  0
 12 40  1  0
 12 41  1  0
 14 42  1  0
 15 43  1  0
 17 44  1  0
 20 45  1  0
 21 46  1  0
 22 47  1  0
 23 48  1  0
 26 49  1  0
M  END
>  <meeko>  (123) 
{"is_sidechain": false}

$$$$

     RDKit          3D

 25 28  0  0  0  0  0  0  0  0999 V2000
   13.1440    5.6530  -58.9580 C   0  0  0  0  0  0  0  0  0  0  0  0
   12.1440    5.9450  -59.8830 C   0  0  0  0  0  0  0  0  0  0  0  0
   11.0030    5.1380  -59.9860 C   0  0  0  0  0  0  0  0  0  0  0  0
   10.8680    4.0170  -59.1420 C   0  0  0  0  0  0  0  0  0  0  0  0
    9.9190    2.9750  -58.9190 C   0  0  0  0  0  0  0  0  0  0  0  0
    8.5400    2.7260  -59.6500 C   0  0  0  0  0  0  0  0  0  0  0  0
    8.3690    2.9290  -61.0220 C   0  0  0  0  0  0  0  0  0  0  0  0
    7.0550    2.6240  -61.3480 C   0  0  0  0  0  0  0  0  0  0  0  0
    6.2780    2.6170  -62.4900 C   0  0  0  0  0  0  0  0  0  0  0  0
    5.0250    2.2140  -62.1900 N   0  0  0  0  0  0  0  0  0  0  0  0
    5.0670    1.9790  -60.8430 N   0  0  0  0  0  0  0  0  0  0  0  0
    6.2910    2.2250  -60.3310 C   0  0  0  0  0  0  0  0  0  0  0  0
    7.0790    2.1780  -58.8760 S   0  0  0  0  0  0  0  0  0  0  0  0
   10.3160    2.1380  -57.9480 N   0  0  0  0  0  0  0  0  0  0  0  0
   11.4980    2.6340  -57.5570 N   0  0  0  0  0  0  0  0  0  0  0  0
   11.8890    3.7580  -58.2300 C   0  0  0  0  0  0  0  0  0  0  0  0
   13.0370    4.5500  -58.1090 C   0  0  0  0  0  0  0  0  0  0  0  0
   14.0307    6.3009  -58.8957 H   0  0  0  0  0  0  0  0  0  0  0  0
   12.2514    6.8201  -60.5408 H   0  0  0  0  0  0  0  0  0  0  0  0
   10.2190    5.3773  -60.7195 H   0  0  0  0  0  0  0  0  0  0  0  0
    9.1436    3.2720  -61.7237 H   0  0  0  0  0  0  0  0  0  0  0  0
    6.6281    2.8979  -63.4943 H   0  0  0  0  0  0  0  0  0  0  0  0
    4.2260    1.6600  -60.3750 H   0  0  0  0  0  0  0  0  0  0  0  0
   11.9980    2.1560  -56.8170 H   0  0  0  0  0  0  0  0  0  0  0  0
   13.8219    4.3131  -57.3756 H   0  0  0  0  0  0  0  0  0  0  0  0
  1  2  2  0
  2  3  1  0
  3  4  2  0
  4  5  1  0
  5  6  1  0
  6  7  2  0
  7  8  1  0
  8  9  1  0
  9 10  2  0
 10 11  1  0
 11 12  1  0
 12 13  1  0
  5 14  2  0
 14 15  1  0
 15 16  1  0
 16 17  2  0
 17  1  1  0
 16  4  1  0
 13  6  1  0
 12  8  2  0
  1 18  1  0
  2 19  1  0
  3 20  1  0
  7 21  1  0
  9 22  1  0
 11 23  1  0
 15 24  1  0
 17 25  1  0
M  END
>  <meeko>  (124) 
{"is_sidechain": false}

$$$$

     RDKit          3D

 25 28  0  0  0  0  0  0  0  0999 V2000
   12.1380   -4.7360  -58.0870 C   0  0  0  0  0  0  0  0  0  0  0  0
   11.4120   -5.5100  -57.1860 C   0  0  0  0  0  0  0  0  0  0  0  0
   10.7690   -4.9210  -56.0880 C   0  0  0  0  0  0  0  0  0  0  0  0
   10.8570   -3.5260  -55.8910 C   0  0  0  0  0  0  0  0  0  0  0  0
   10.3840   -2.5530  -54.9560 C   0  0  0  0  0  0  0  0  0  0  0  0
    9.4830   -2.7640  -53.6610 C   0  0  0  0  0  0  0  0  0  0  0  0
    9.9610   -2.8040  -52.3340 C   0  0  0  0  0  0  0  0  0  0  0  0
    8.9130   -3.0050  -51.4070 C   0  0  0  0  0  0  0  0  0  0  0  0
    8.5930   -3.1440  -50.1000 C   0  0  0  0  0  0  0  0  0  0  0  0
    7.2080   -3.3160  -50.1200 N   0  0  0  0  0  0  0  0  0  0  0  0
    6.6690   -3.2900  -51.3820 N   0  0  0  0  0  0  0  0  0  0  0  0
    7.7300   -3.1010  -52.1130 C   0  0  0  0  0  0  0  0  0  0  0  0
    7.7100   -2.9740  -53.8420 S   0  0  0  0  0  0  0  0  0  0  0  0
   10.7960   -1.3190  -55.2810 N   0  0  0  0  0  0  0  0  0  0  0  0
   11.5160   -1.4930  -56.3940 N   0  0  0  0  0  0  0  0  0  0  0  0
   11.5940   -2.7880  -56.8170 C   0  0  0  0  0  0  0  0  0  0  0  0
   12.2450   -3.3540  -57.9200 C   0  0  0  0  0  0  0  0  0  0  0  0
   12.6338   -5.2195  -58.9416 H   0  0  0  0  0  0  0  0  0  0  0  0
   11.3419   -6.5973  -57.3374 H   0  0  0  0  0  0  0  0  0  0  0  0
   10.1983   -5.5434  -55.3830 H   0  0  0  0  0  0  0  0  0  0  0  0
   11.0192   -2.6925  -52.0552 H   0  0  0  0  0  0  0  0  0  0  0  0
    9.2644   -3.1258  -49.2289 H   0  0  0  0  0  0  0  0  0  0  0  0
    6.5840   -3.4540  -49.3300 H   0  0  0  0  0  0  0  0  0  0  0  0
   11.9330   -0.6760  -56.8250 H   0  0  0  0  0  0  0  0  0  0  0  0
   12.8175   -2.7348  -58.6263 H   0  0  0  0  0  0  0  0  0  0  0  0
  1  2  2  0
  2  3  1  0
  3  4  2  0
  4  5  1  0
  5  6  1  0
  6  7  2  0
  7  8  1  0
  8  9  2  0
  9 10  1  0
 10 11  1  0
 11 12  2  0
 12 13  1  0
  5 14  2  0
 14 15  1  0
 15 16  1  0
 16 17  2  0
 17  1  1  0
 16  4  1  0
 13  6  1  0
 12  8  1  0
  1 18  1  0
  2 19  1  0
  3 20  1  0
  7 21  1  0
  9 22  1  0
 10 23  1  0
 15 24  1  0
 17 25  1  0
M  END
>  <meeko>  (125) 
{"is_sidechain": false}

$$$$

     RDKit          3D

 25 28  0  0  0  0  0  0  0  0999 V2000
   12.8540    5.2470  -58.8190 C   0  0  0  0  0  0  0  0  0  0  0  0
   11.9300    5.5970  -59.8460 C   0  0  0  0  0  0  0  0  0  0  0  0
   10.7350    4.8890  -60.1050 C   0  0  0  0  0  0  0  0  0  0  0  0
   10.5630    3.8060  -59.2390 C   0  0  0  0  0  0  0  0  0  0  0  0
    9.5210    2.9020  -59.2030 C   0  0  0  0  0  0  0  0  0  0  0  0
    8.3020    2.7060  -59.9510 C   0  0  0  0  0  0  0  0  0  0  0  0
    8.0400    2.9440  -61.3040 C   0  0  0  0  0  0  0  0  0  0  0  0
    6.7210    2.6070  -61.5820 C   0  0  0  0  0  0  0  0  0  0  0  0
    5.8970    2.6170  -62.6920 C   0  0  0  0  0  0  0  0  0  0  0  0
    4.6720    2.1630  -62.3570 N   0  0  0  0  0  0  0  0  0  0  0  0
    4.7760    1.8810  -61.0240 N   0  0  0  0  0  0  0  0  0  0  0  0
    6.0130    2.1480  -60.5530 C   0  0  0  0  0  0  0  0  0  0  0  0
    6.8580    2.0720  -59.1350 S   0  0  0  0  0  0  0  0  0  0  0  0
    9.8680    2.0640  -58.1670 N   0  0  0  0  0  0  0  0  0  0  0  0
   11.0230    2.3450  -57.5450 N   0  0  0  0  0  0  0  0  0  0  0  0
   11.4890    3.4270  -58.1850 C   0  0  0  0  0  0  0  0  0  0  0  0
   12.6700    4.1520  -57.9520 C   0  0  0  0  0  0  0  0  0  0  0  0
   13.7569    5.8633  -58.6971 H   0  0  0  0  0  0  0  0  0  0  0  0
   12.1608    6.4700  -60.4742 H   0  0  0  0  0  0  0  0  0  0  0  0
   10.0218    5.1594  -60.8976 H   0  0  0  0  0  0  0  0  0  0  0  0
    8.7641    3.3362  -62.0333 H   0  0  0  0  0  0  0  0  0  0  0  0
    6.1958    2.9461  -63.6982 H   0  0  0  0  0  0  0  0  0  0  0  0
    3.9650    1.5180  -60.5340 H   0  0  0  0  0  0  0  0  0  0  0  0
    9.3360    1.2660  -57.8380 H   0  0  0  0  0  0  0  0  0  0  0  0
   13.3880    3.8876  -57.1617 H   0  0  0  0  0  0  0  0  0  0  0  0
  1  2  1  0
  2  3  2  0
  3  4  1  0
  4  5  2  0
  5  6  1  0
  6  7  2  0
  7  8  1  0
  8  9  1  0
  9 10  2  0
 10 11  1  0
 11 12  1  0
 12 13  1  0
  5 14  1  0
 14 15  1  0
 15 16  2  0
 16 17  1  0
 17  1  2  0
 16  4  1  0
 13  6  1  0
 12  8  2  0
  1 18  1  0
  2 19  1  0
  3 20  1  0
  7 21  1  0
  9 22  1  0
 11 23  1  0
 14 24  1  0
 17 25  1  0
M  END
>  <meeko>  (126) 
{"is_sidechain": false}

$$$$

     RDKit          3D

 25 28  0  0  0  0  0  0  0  0999 V2000
   12.8900    5.2480  -58.8250 C   0  0  0  0  0  0  0  0  0  0  0  0
   11.9460    5.5970  -59.8330 C   0  0  0  0  0  0  0  0  0  0  0  0
   10.7450    4.8930  -60.0670 C   0  0  0  0  0  0  0  0  0  0  0  0
   10.5810    3.8090  -59.1970 C   0  0  0  0  0  0  0  0  0  0  0  0
    9.5350    2.9040  -59.1340 C   0  0  0  0  0  0  0  0  0  0  0  0
    8.2870    2.6860  -59.8460 C   0  0  0  0  0  0  0  0  0  0  0  0
    8.0740    2.9370  -61.2320 C   0  0  0  0  0  0  0  0  0  0  0  0
    6.7580    2.6300  -61.6450 C   0  0  0  0  0  0  0  0  0  0  0  0
    5.8910    2.6030  -62.6840 C   0  0  0  0  0  0  0  0  0  0  0  0
    4.7140    2.1140  -62.1120 N   0  0  0  0  0  0  0  0  0  0  0  0
    4.8270    1.8430  -60.7700 N   0  0  0  0  0  0  0  0  0  0  0  0
    6.0670    2.1700  -60.5460 C   0  0  0  0  0  0  0  0  0  0  0  0
    6.8370    2.0520  -59.0000 S   0  0  0  0  0  0  0  0  0  0  0  0
    9.9090    2.0730  -58.1030 N   0  0  0  0  0  0  0  0  0  0  0  0
   11.0770    2.3550  -57.5080 N   0  0  0  0  0  0  0  0  0  0  0  0
   11.5290    3.4320  -58.1610 C   0  0  0  0  0  0  0  0  0  0  0  0
   12.7170    4.1550  -57.9540 C   0  0  0  0  0  0  0  0  0  0  0  0
   13.7973    5.8614  -58.7220 H   0  0  0  0  0  0  0  0  0  0  0  0
   12.1662    6.4680  -60.4677 H   0  0  0  0  0  0  0  0  0  0  0  0
   10.0186    5.1661  -60.8466 H   0  0  0  0  0  0  0  0  0  0  0  0
    8.8496    3.3274  -61.9073 H   0  0  0  0  0  0  0  0  0  0  0  0
    6.0703    2.8960  -63.7290 H   0  0  0  0  0  0  0  0  0  0  0  0
    3.8210    1.9450  -62.5670 H   0  0  0  0  0  0  0  0  0  0  0  0
    9.3990    1.2750  -57.7460 H   0  0  0  0  0  0  0  0  0  0  0  0
   13.4493    3.8894  -57.1774 H   0  0  0  0  0  0  0  0  0  0  0  0
  1  2  1  0
  2  3  2  0
  3  4  1  0
  4  5  2  0
  5  6  1  0
  6  7  2  0
  7  8  1  0
  8  9  2  0
  9 10  1  0
 10 11  1  0
 11 12  2  0
 12 13  1  0
  5 14  1  0
 14 15  1  0
 15 16  2  0
 16 17  1  0
 17  1  2  0
 16  4  1  0
 13  6  1  0
 12  8  1  0
  1 18  1  0
  2 19  1  0
  3 20  1  0
  7 21  1  0
  9 22  1  0
 10 23  1  0
 14 24  1  0
 17 25  1  0
M  END
>  <meeko>  (127) 
{"is_sidechain": false}

$$$$

     RDKit          3D

 53 58  0  0  0  0  0  0  0  0999 V2000
    5.5790   -0.3810  -53.9270 O   0  0  0  0  0  0  0  0  0  0  0  0
    6.7560   -0.2830  -54.2510 C   0  0  0  0  0  0  0  0  0  0  0  0
    7.7910   -0.9990  -53.6870 N   0  0  0  0  0  0  0  0  0  0  0  0
    7.6710   -1.9910  -52.6210 C   0  0  2  0  0  0  0  0  0  0  0  0
    7.4060   -1.3230  -51.2490 C   0  0  0  0  0  0  0  0  0  0  0  0
    7.3290   -2.3840  -50.1370 C   0  0  1  0  0  0  0  0  0  0  0  0
    6.1960   -3.3740  -50.4570 C   0  0  0  0  0  0  0  0  0  0  0  0
    6.4660   -4.0690  -51.8030 C   0  0  2  0  0  0  0  0  0  0  0  0
    7.8040   -4.8210  -51.7250 C   0  0  0  0  0  0  0  0  0  0  0  0
    8.9420   -3.8370  -51.4130 C   0  0  2  0  0  0  0  0  0  0  0  0
    8.6630   -3.1460  -50.0690 C   0  0  0  0  0  0  0  0  0  0  0  0
    9.0070   -2.7740  -52.5210 C   0  0  0  0  0  0  0  0  0  0  0  0
    6.5410   -3.0090  -52.9150 C   0  0  0  0  0  0  0  0  0  0  0  0
    7.1900    0.6660  -55.3340 C   0  0  0  0  0  0  0  0  0  0  0  0
    6.2420    1.1290  -56.2450 C   0  0  0  0  0  0  0  0  0  0  0  0
    6.6390    2.0080  -57.2500 C   0  0  0  0  0  0  0  0  0  0  0  0
    7.9900    2.3530  -57.2540 C   0  0  0  0  0  0  0  0  0  0  0  0
    8.7150    3.1780  -58.0790 N   0  0  0  0  0  0  0  0  0  0  0  0
   10.0410    3.2130  -57.6980 C   0  0  0  0  0  0  0  0  0  0  0  0
   11.0490    4.0200  -58.3890 C   0  0  0  0  0  0  0  0  0  0  0  0
   10.6780    5.0750  -59.2350 C   0  0  0  0  0  0  0  0  0  0  0  0
   11.6480    5.8400  -59.8870 C   0  0  0  0  0  0  0  0  0  0  0  0
   12.9990    5.5600  -59.7020 C   0  0  0  0  0  0  0  0  0  0  0  0
   13.3830    4.5130  -58.8690 C   0  0  0  0  0  0  0  0  0  0  0  0
   12.4120    3.7460  -58.2180 C   0  0  0  0  0  0  0  0  0  0  0  0
   10.1500    2.3930  -56.5860 C   0  0  0  0  0  0  0  0  0  0  0  0
    8.8760    1.8500  -56.3090 C   0  0  0  0  0  0  0  0  0  0  0  0
    8.5120    0.9950  -55.3230 N   0  0  0  0  0  0  0  0  0  0  0  0
    8.7090   -0.7950  -54.0770 H   0  0  0  0  0  0  0  0  0  0  0  0
    8.2233   -0.6220  -51.0241 H   0  0  0  0  0  0  0  0  0  0  0  0
    6.4469   -0.7863  -51.2947 H   0  0  0  0  0  0  0  0  0  0  0  0
    7.1320   -1.8944  -49.1719 H   0  0  0  0  0  0  0  0  0  0  0  0
    6.1391   -4.1314  -49.6613 H   0  0  0  0  0  0  0  0  0  0  0  0
    5.2449   -2.8249  -50.5196 H   0  0  0  0  0  0  0  0  0  0  0  0
    5.6553   -4.7790  -52.0237 H   0  0  0  0  0  0  0  0  0  0  0  0
    7.7499   -5.5794  -50.9301 H   0  0  0  0  0  0  0  0  0  0  0  0
    8.0019   -5.3074  -52.6916 H   0  0  0  0  0  0  0  0  0  0  0  0
    9.8968   -4.3805  -51.3593 H   0  0  0  0  0  0  0  0  0  0  0  0
    8.6095   -3.9041  -49.2737 H   0  0  0  0  0  0  0  0  0  0  0  0
    9.4744   -2.4354  -49.8527 H   0  0  0  0  0  0  0  0  0  0  0  0
    9.8208   -2.0691  -52.2957 H   0  0  0  0  0  0  0  0  0  0  0  0
    9.1891   -3.2796  -53.4808 H   0  0  0  0  0  0  0  0  0  0  0  0
    6.7427   -3.5059  -53.8754 H   0  0  0  0  0  0  0  0  0  0  0  0
    5.5820   -2.4721  -52.9590 H   0  0  0  0  0  0  0  0  0  0  0  0
    5.1936    0.8043  -56.1712 H   0  0  0  0  0  0  0  0  0  0  0  0
    5.9317    2.4047  -57.9932 H   0  0  0  0  0  0  0  0  0  0  0  0
    8.3260    3.7050  -58.8480 H   0  0  0  0  0  0  0  0  0  0  0  0
    9.6125    5.3024  -59.3867 H   0  0  0  0  0  0  0  0  0  0  0  0
   11.3438    6.6651  -60.5478 H   0  0  0  0  0  0  0  0  0  0  0  0
   13.7620    6.1653  -60.2134 H   0  0  0  0  0  0  0  0  0  0  0  0
   14.4500    4.2891  -58.7229 H   0  0  0  0  0  0  0  0  0  0  0  0
   12.7221    2.9177  -57.5639 H   0  0  0  0  0  0  0  0  0  0  0  0
   11.0709    2.1984  -56.0167 H   0  0  0  0  0  0  0  0  0  0  0  0
  1  2  2  0
  2  3  1  0
  4  3  1  6
  4  5  1  0
  5  6  1  0
  6  7  1  0
  7  8  1  0
  8  9  1  0
  9 10  1  0
 10 11  1  0
 10 12  1  0
  8 13  1  0
  2 14  1  0
 14 15  1  0
 15 16  2  0
 16 17  1  0
 17 18  1  0
 18 19  1  0
 19 20  1  0
 20 21  2  0
 21 22  1  0
 22 23  2  0
 23 24  1  0
 24 25  2  0
 19 26  2  0
 26 27  1  0
 27 28  1  0
 12  4  1  0
 28 14  2  0
 13  4  1  0
 27 17  2  0
 11  6  1  0
 25 20  1  0
  3 29  1  0
  5 30  1  0
  5 31  1  0
  6 32  1  1
  7 33  1  0
  7 34  1  0
  8 35  1  6
  9 36  1  0
  9 37  1  0
 10 38  1  1
 11 39  1  0
 11 40  1  0
 12 41  1  0
 12 42  1  0
 13 43  1  0
 13 44  1  0
 15 45  1  0
 16 46  1  0
 18 47  1  0
 21 48  1  0
 22 49  1  0
 23 50  1  0
 24 51  1  0
 25 52  1  0
 26 53  1  0
M  END
>  <meeko>  (128) 
{"is_sidechain": false}

$$$$

     RDKit          3D

 53 58  0  0  0  0  0  0  0  0999 V2000
    5.6880   -0.2980  -53.8820 O   0  0  0  0  0  0  0  0  0  0  0  0
    6.8670   -0.2330  -54.2040 C   0  0  0  0  0  0  0  0  0  0  0  0
    7.8930   -0.9500  -53.6220 N   0  0  0  0  0  0  0  0  0  0  0  0
    7.7070   -1.9750  -52.5930 C   0  0  2  0  0  0  0  0  0  0  0  0
    6.5720   -2.9590  -52.9680 C   0  0  0  0  0  0  0  0  0  0  0  0
    6.4350   -4.0590  -51.9010 C   0  0  1  0  0  0  0  0  0  0  0  0
    7.7550   -4.8400  -51.8040 C   0  0  0  0  0  0  0  0  0  0  0  0
    8.9000   -3.8910  -51.4090 C   0  0  2  0  0  0  0  0  0  0  0  0
    8.5830   -3.2490  -50.0500 C   0  0  0  0  0  0  0  0  0  0  0  0
    7.2680   -2.4590  -50.1380 C   0  0  2  0  0  0  0  0  0  0  0  0
    6.1290   -3.4110  -50.5400 C   0  0  0  0  0  0  0  0  0  0  0  0
    7.4060   -1.3570  -51.2040 C   0  0  0  0  0  0  0  0  0  0  0  0
    9.0250   -2.7870  -52.4710 C   0  0  0  0  0  0  0  0  0  0  0  0
    7.3510    0.6410  -55.3290 C   0  0  0  0  0  0  0  0  0  0  0  0
    6.4530    1.0880  -56.2350 C   0  0  0  0  0  0  0  0  0  0  0  0
    6.9070    1.9430  -57.3290 C   0  0  0  0  0  0  0  0  0  0  0  0
    8.2000    2.2920  -57.3880 C   0  0  0  0  0  0  0  0  0  0  0  0
    8.8290    3.1130  -58.2800 N   0  0  0  0  0  0  0  0  0  0  0  0
   10.0640    3.1770  -57.8480 C   0  0  0  0  0  0  0  0  0  0  0  0
   11.1180    3.9750  -58.5190 C   0  0  0  0  0  0  0  0  0  0  0  0
   12.4730    3.6240  -58.4810 C   0  0  0  0  0  0  0  0  0  0  0  0
   13.4240    4.4160  -59.1320 C   0  0  0  0  0  0  0  0  0  0  0  0
   13.0290    5.5600  -59.8250 C   0  0  0  0  0  0  0  0  0  0  0  0
   11.6840    5.9170  -59.8660 C   0  0  0  0  0  0  0  0  0  0  0  0
   10.7330    5.1290  -59.2160 C   0  0  0  0  0  0  0  0  0  0  0  0
   10.3410    2.3830  -56.6300 C   0  0  0  0  0  0  0  0  0  0  0  0
    9.1520    1.8310  -56.3920 C   0  0  0  0  0  0  0  0  0  0  0  0
    8.7080    0.9700  -55.4190 N   0  0  0  0  0  0  0  0  0  0  0  0
    8.7360   -1.0090  -54.1820 H   0  0  0  0  0  0  0  0  0  0  0  0
    5.6238   -2.4063  -53.0413 H   0  0  0  0  0  0  0  0  0  0  0  0
    6.8140   -3.4287  -53.9328 H   0  0  0  0  0  0  0  0  0  0  0  0
    5.6193   -4.7430  -52.1781 H   0  0  0  0  0  0  0  0  0  0  0  0
    7.6567   -5.6286  -51.0434 H   0  0  0  0  0  0  0  0  0  0  0  0
    7.9806   -5.2908  -52.7817 H   0  0  0  0  0  0  0  0  0  0  0  0
    9.8424   -4.4543  -51.3407 H   0  0  0  0  0  0  0  0  0  0  0  0
    8.4848   -4.0368  -49.2886 H   0  0  0  0  0  0  0  0  0  0  0  0
    9.3986   -2.5644  -49.7742 H   0  0  0  0  0  0  0  0  0  0  0  0
    7.0449   -2.0045  -49.1614 H   0  0  0  0  0  0  0  0  0  0  0  0
    6.0265   -4.1974  -49.7778 H   0  0  0  0  0  0  0  0  0  0  0  0
    5.1927   -2.8388  -50.6169 H   0  0  0  0  0  0  0  0  0  0  0  0
    6.4668   -0.7869  -51.2580 H   0  0  0  0  0  0  0  0  0  0  0  0
    8.2381   -0.6947  -50.9231 H   0  0  0  0  0  0  0  0  0  0  0  0
    9.8411   -2.1063  -52.1869 H   0  0  0  0  0  0  0  0  0  0  0  0
    9.2349   -3.2592  -53.4420 H   0  0  0  0  0  0  0  0  0  0  0  0
    5.3919    0.8110  -56.1494 H   0  0  0  0  0  0  0  0  0  0  0  0
    6.1984    2.2952  -58.0931 H   0  0  0  0  0  0  0  0  0  0  0  0
   12.7905    2.7221  -57.9371 H   0  0  0  0  0  0  0  0  0  0  0  0
   14.4871    4.1358  -59.0974 H   0  0  0  0  0  0  0  0  0  0  0  0
   13.7791    6.1794  -60.3385 H   0  0  0  0  0  0  0  0  0  0  0  0
   11.3709    6.8200  -60.4106 H   0  0  0  0  0  0  0  0  0  0  0  0
    9.6717    5.4160  -59.2509 H   0  0  0  0  0  0  0  0  0  0  0  0
   11.2812    2.2766  -56.0689 H   0  0  0  0  0  0  0  0  0  0  0  0
    9.2530    0.8890  -54.5680 H   0  0  0  0  0  0  0  0  0  0  0  0
  1  2  2  0
  2  3  1  0
  4  3  1  6
  4  5  1  0
  5  6  1  0
  6  7  1  0
  7  8  1  0
  8  9  1  0
  9 10  1  0
 10 11  1  0
 10 12  1  0
  8 13  1  0
  2 14  1  0
 14 15  2  0
 15 16  1  0
 16 17  2  0
 17 18  1  0
 18 19  2  0
 19 20  1  0
 20 21  2  0
 21 22  1  0
 22 23  2  0
 23 24  1  0
 24 25  2  0
 19 26  1  0
 26 27  2  0
 27 28  1  0
 12  4  1  0
 28 14  1  0
 13  4  1  0
 27 17  1  0
 11  6  1  0
 25 20  1  0
  3 29  1  0
  5 30  1  0
  5 31  1  0
  6 32  1  6
  7 33  1  0
  7 34  1  0
  8 35  1  1
  9 36  1  0
  9 37  1  0
 10 38  1  1
 11 39  1  0
 11 40  1  0
 12 41  1  0
 12 42  1  0
 13 43  1  0
 13 44  1  0
 15 45  1  0
 16 46  1  0
 21 47  1  0
 22 48  1  0
 23 49  1  0
 24 50  1  0
 25 51  1  0
 26 52  1  0
 28 53  1  0
M  END
>  <meeko>  (129) 
{"is_sidechain": false}

$$$$

     RDKit          3D

 55 58  0  0  0  0  0  0  0  0999 V2000
   13.8380    4.5290  -59.6560 C   0  0  0  0  0  0  0  0  0  0  0  0
   13.0180    4.9720  -58.4460 C   0  0  0  0  0  0  0  0  0  0  0  0
   12.6650    3.7390  -57.6030 C   0  0  0  0  0  0  0  0  0  0  0  0
   11.7200    5.7190  -58.7990 C   0  0  0  0  0  0  0  0  0  0  0  0
   10.4480    4.9360  -58.6010 N   0  0  0  0  0  0  0  0  0  0  0  0
    9.6750    5.2200  -57.3250 C   0  0  0  0  0  0  0  0  0  0  0  0
    8.6810    4.0740  -57.0650 C   0  0  0  0  0  0  0  0  0  0  0  0
    8.0450    3.5720  -58.2930 N   0  0  0  0  0  0  0  0  0  0  0  0
    7.0380    2.6000  -58.2770 C   0  0  0  0  0  0  0  0  0  0  0  0
    6.2960    2.3980  -59.2310 O   0  0  0  0  0  0  0  0  0  0  0  0
    6.8530    1.7940  -57.0540 C   0  0  0  0  0  0  0  0  0  0  0  0
    5.5700    1.6740  -56.5180 C   0  0  0  0  0  0  0  0  0  0  0  0
    5.3550    0.9320  -55.3540 C   0  0  0  0  0  0  0  0  0  0  0  0
    6.4670    0.3140  -54.7670 C   0  0  0  0  0  0  0  0  0  0  0  0
    6.5500   -0.4750  -53.6410 N   0  0  0  0  0  0  0  0  0  0  0  0
    7.8470   -0.8840  -53.4200 C   0  0  0  0  0  0  0  0  0  0  0  0
    8.2310   -1.7400  -52.2960 C   0  0  0  0  0  0  0  0  0  0  0  0
    9.3890   -2.5290  -52.3490 C   0  0  0  0  0  0  0  0  0  0  0  0
    9.7470   -3.3410  -51.2700 C   0  0  0  0  0  0  0  0  0  0  0  0
    8.9520   -3.3740  -50.1260 C   0  0  0  0  0  0  0  0  0  0  0  0
    7.7980   -2.5980  -50.0610 C   0  0  0  0  0  0  0  0  0  0  0  0
    7.4390   -1.7860  -51.1400 C   0  0  0  0  0  0  0  0  0  0  0  0
    8.6020   -0.3650  -54.4570 C   0  0  0  0  0  0  0  0  0  0  0  0
    7.7510    0.3980  -55.3010 C   0  0  0  0  0  0  0  0  0  0  0  0
    7.9530    1.1430  -56.4760 C   0  0  0  0  0  0  0  0  0  0  0  0
    8.1140    4.4430  -59.4700 C   0  0  0  0  0  0  0  0  0  0  0  0
    9.5550    4.8280  -59.8360 C   0  0  0  0  0  0  0  0  0  0  0  0
   14.7577    4.0321  -59.3136 H   0  0  0  0  0  0  0  0  0  0  0  0
   13.2465    3.8277  -60.2629 H   0  0  0  0  0  0  0  0  0  0  0  0
   14.1003    5.4081  -60.2629 H   0  0  0  0  0  0  0  0  0  0  0  0
   13.6471    5.6845  -57.8923 H   0  0  0  0  0  0  0  0  0  0  0  0
   12.7375    3.9921  -56.5350 H   0  0  0  0  0  0  0  0  0  0  0  0
   11.6388    3.4178  -57.8349 H   0  0  0  0  0  0  0  0  0  0  0  0
   13.3657    2.9234  -57.8349 H   0  0  0  0  0  0  0  0  0  0  0  0
   11.6652    6.6197  -58.1699 H   0  0  0  0  0  0  0  0  0  0  0  0
   11.7782    5.9342  -59.8762 H   0  0  0  0  0  0  0  0  0  0  0  0
   10.7620    3.9620  -58.4750 H   0  0  0  0  0  0  0  0  0  0  0  0
   10.3757    5.2969  -56.4806 H   0  0  0  0  0  0  0  0  0  0  0  0
    9.1253    6.1669  -57.4309 H   0  0  0  0  0  0  0  0  0  0  0  0
    9.2211    3.2440  -56.5860 H   0  0  0  0  0  0  0  0  0  0  0  0
    7.8827    4.4719  -56.4212 H   0  0  0  0  0  0  0  0  0  0  0  0
    4.7220    2.1672  -57.0156 H   0  0  0  0  0  0  0  0  0  0  0  0
    4.3509    0.8366  -54.9151 H   0  0  0  0  0  0  0  0  0  0  0  0
    5.7600   -0.7430  -53.0700 H   0  0  0  0  0  0  0  0  0  0  0  0
   10.0215   -2.5084  -53.2487 H   0  0  0  0  0  0  0  0  0  0  0  0
   10.6579   -3.9553  -51.3236 H   0  0  0  0  0  0  0  0  0  0  0  0
    9.2357   -4.0119  -49.2760 H   0  0  0  0  0  0  0  0  0  0  0  0
    7.1683   -2.6241  -49.1595 H   0  0  0  0  0  0  0  0  0  0  0  0
    6.5252   -1.1763  -51.0818 H   0  0  0  0  0  0  0  0  0  0  0  0
    9.6814   -0.5177  -54.6035 H   0  0  0  0  0  0  0  0  0  0  0  0
    8.9515    1.2139  -56.9320 H   0  0  0  0  0  0  0  0  0  0  0  0
    7.6619    3.9175  -60.3241 H   0  0  0  0  0  0  0  0  0  0  0  0
    7.5720    5.3698  -59.2309 H   0  0  0  0  0  0  0  0  0  0  0  0
    9.9682    4.0609  -60.5075 H   0  0  0  0  0  0  0  0  0  0  0  0
    9.5305    5.8127  -60.3256 H   0  0  0  0  0  0  0  0  0  0  0  0
  1  2  1  0
  2  3  1  0
  2  4  1  0
  4  5  1  0
  5  6  1  0
  6  7  1  0
  7  8  1  0
  8  9  1  0
  9 10  2  0
  9 11  1  0
 11 12  2  0
 12 13  1  0
 13 14  2  0
 14 15  1  0
 15 16  1  0
 16 17  1  0
 17 18  2  0
 18 19  1  0
 19 20  2  0
 20 21  1  0
 21 22  2  0
 16 23  2  0
 23 24  1  0
 24 25  2  0
  8 26  1  0
 26 27  1  0
 27  5  1  0
 25 11  1  0
 24 14  1  0
 22 17  1  0
  1 28  1  0
  1 29  1  0
  1 30  1  0
  2 31  1  0
  3 32  1  0
  3 33  1  0
  3 34  1  0
  4 35  1  0
  4 36  1  0
  5 37  1  0
  6 38  1  0
  6 39  1  0
  7 40  1  0
  7 41  1  0
 12 42  1  0
 13 43  1  0
 15 44  1  0
 18 45  1  0
 19 46  1  0
 20 47  1  0
 21 48  1  0
 22 49  1  0
 23 50  1  0
 25 51  1  0
 26 52  1  0
 26 53  1  0
 27 54  1  0
 27 55  1  0
M  CHG  1   5   1
M  END
>  <meeko>  (130) 
{"is_sidechain": false}

$$$$

     RDKit          3D

 56 60  0  0  0  0  0  0  0  0999 V2000
    7.7800   -2.3810  -49.8000 C   0  0  0  0  0  0  0  0  0  0  0  0
    7.8640   -2.5850  -51.2910 N   0  0  2  0  0  0  0  0  0  0  0  0
    6.7700   -3.4910  -51.8200 C   0  0  0  0  0  0  0  0  0  0  0  0
    6.4260   -3.2100  -53.2740 C   0  0  0  0  0  0  0  0  0  0  0  0
    7.1170   -2.0120  -53.8910 C   0  0  0  0  0  0  0  0  0  0  0  0
    6.2930   -1.1080  -54.5930 C   0  0  0  0  0  0  0  0  0  0  0  0
    6.8160    0.0320  -55.2030 C   0  0  0  0  0  0  0  0  0  0  0  0
    8.1790    0.3020  -55.1140 C   0  0  0  0  0  0  0  0  0  0  0  0
    8.7090    1.5170  -55.7880 C   0  0  0  0  0  0  0  0  0  0  0  0
    9.6750    2.0910  -55.3050 O   0  0  0  0  0  0  0  0  0  0  0  0
    8.0630    1.8880  -56.9500 N   0  0  0  0  0  0  0  0  0  0  0  0
    8.4880    3.0060  -57.8050 C   0  0  2  0  0  0  0  0  0  0  0  0
    7.4200    3.2000  -58.9170 C   0  0  0  0  0  0  0  0  0  0  0  0
    7.8050    4.3530  -59.8570 C   0  0  1  0  0  0  0  0  0  0  0  0
    7.9170    5.6510  -59.0430 C   0  0  0  0  0  0  0  0  0  0  0  0
    8.9860    5.4930  -57.9510 C   0  0  2  0  0  0  0  0  0  0  0  0
   10.3400    5.1720  -58.6070 C   0  0  0  0  0  0  0  0  0  0  0  0
   10.2380    3.8730  -59.4260 C   0  0  2  0  0  0  0  0  0  0  0  0
    9.1610    4.0400  -60.5090 C   0  0  0  0  0  0  0  0  0  0  0  0
    9.8450    2.7150  -58.4910 C   0  0  0  0  0  0  0  0  0  0  0  0
    8.5910    4.3360  -57.0150 C   0  0  0  0  0  0  0  0  0  0  0  0
    9.0170   -0.6000  -54.4460 C   0  0  0  0  0  0  0  0  0  0  0  0
    8.5070   -1.7760  -53.8510 C   0  0  0  0  0  0  0  0  0  0  0  0
    9.5130   -2.6990  -53.1950 C   0  0  0  0  0  0  0  0  0  0  0  0
    9.2720   -2.9580  -51.7100 C   0  0  0  0  0  0  0  0  0  0  0  0
    8.1502   -3.2800  -49.2855 H   0  0  0  0  0  0  0  0  0  0  0  0
    8.3948   -1.5151  -49.5132 H   0  0  0  0  0  0  0  0  0  0  0  0
    6.7338   -2.1990  -49.5132 H   0  0  0  0  0  0  0  0  0  0  0  0
    7.6760   -1.6620  -51.7050 H   0  0  0  0  0  0  0  0  0  0  0  0
    7.1054   -4.5350  -51.7334 H   0  0  0  0  0  0  0  0  0  0  0  0
    5.8656   -3.3028  -51.2227 H   0  0  0  0  0  0  0  0  0  0  0  0
    6.6977   -4.0980  -53.8636 H   0  0  0  0  0  0  0  0  0  0  0  0
    5.3509   -2.9775  -53.2890 H   0  0  0  0  0  0  0  0  0  0  0  0
    5.2132   -1.3065  -54.6610 H   0  0  0  0  0  0  0  0  0  0  0  0
    6.1532    0.7162  -55.7531 H   0  0  0  0  0  0  0  0  0  0  0  0
    7.4700    1.1970  -57.3850 H   0  0  0  0  0  0  0  0  0  0  0  0
    7.3371    2.2719  -59.5017 H   0  0  0  0  0  0  0  0  0  0  0  0
    6.4589    3.4431  -58.4404 H   0  0  0  0  0  0  0  0  0  0  0  0
    7.0386    4.4716  -60.6371 H   0  0  0  0  0  0  0  0  0  0  0  0
    8.1983    6.4778  -59.7118 H   0  0  0  0  0  0  0  0  0  0  0  0
    6.9470    5.8675  -58.5715 H   0  0  0  0  0  0  0  0  0  0  0  0
    9.0647    6.4266  -57.3746 H   0  0  0  0  0  0  0  0  0  0  0  0
   10.6269    5.9997  -59.2723 H   0  0  0  0  0  0  0  0  0  0  0  0
   11.0985    5.0425  -57.8209 H   0  0  0  0  0  0  0  0  0  0  0  0
   11.2068    3.6548  -59.8992 H   0  0  0  0  0  0  0  0  0  0  0  0
    9.4426    4.8660  -61.1787 H   0  0  0  0  0  0  0  0  0  0  0  0
    9.0785    3.1057  -61.0837 H   0  0  0  0  0  0  0  0  0  0  0  0
    9.7621    1.7884  -59.0780 H   0  0  0  0  0  0  0  0  0  0  0  0
   10.6183    2.6063  -57.7162 H   0  0  0  0  0  0  0  0  0  0  0  0
    9.3527    4.2312  -56.2284 H   0  0  0  0  0  0  0  0  0  0  0  0
    7.6111    4.5600  -56.5683 H   0  0  0  0  0  0  0  0  0  0  0  0
   10.0947   -0.3885  -54.3832 H   0  0  0  0  0  0  0  0  0  0  0  0
    9.4838   -3.6652  -53.7199 H   0  0  0  0  0  0  0  0  0  0  0  0
   10.4881   -2.1949  -53.2668 H   0  0  0  0  0  0  0  0  0  0  0  0
    9.4324   -4.0268  -51.5051 H   0  0  0  0  0  0  0  0  0  0  0  0
    9.9740   -2.3340  -51.1374 H   0  0  0  0  0  0  0  0  0  0  0  0
  1  2  1  0
  2  3  1  0
  3  4  1  0
  4  5  1  0
  5  6  1  0
  6  7  2  0
  7  8  1  0
  8  9  1  0
  9 10  2  0
  9 11  1  0
 12 11  1  1
 12 13  1  0
 13 14  1  0
 14 15  1  0
 15 16  1  0
 16 17  1  0
 17 18  1  0
 18 19  1  0
 18 20  1  0
 16 21  1  0
  8 22  2  0
 22 23  1  0
 23 24  1  0
 24 25  1  0
 25  2  1  0
 23  5  2  0
 20 12  1  0
 21 12  1  0
 19 14  1  0
  1 26  1  0
  1 27  1  0
  1 28  1  0
  2 29  1  6
  3 30  1  0
  3 31  1  0
  4 32  1  0
  4 33  1  0
  6 34  1  0
  7 35  1  0
 11 36  1  0
 13 37  1  0
 13 38  1  0
 14 39  1  6
 15 40  1  0
 15 41  1  0
 16 42  1  1
 17 43  1  0
 17 44  1  0
 18 45  1  6
 19 46  1  0
 19 47  1  0
 20 48  1  0
 20 49  1  0
 21 50  1  0
 21 51  1  0
 22 52  1  0
 24 53  1  0
 24 54  1  0
 25 55  1  0
 25 56  1  0
M  CHG  1   2   1
M  END
>  <meeko>  (131) 
{"is_sidechain": false}

$$$$

     RDKit          3D

 56 60  0  0  0  0  0  0  0  0999 V2000
    8.5880   -3.3890  -50.7110 C   0  0  0  0  0  0  0  0  0  0  0  0
    8.2300   -3.6820  -52.1460 N   0  0  1  0  0  0  0  0  0  0  0  0
    6.7770   -3.4470  -52.4820 C   0  0  0  0  0  0  0  0  0  0  0  0
    6.3590   -1.9660  -52.5140 C   0  0  0  0  0  0  0  0  0  0  0  0
    6.9180   -1.0380  -53.5700 C   0  0  0  0  0  0  0  0  0  0  0  0
    5.9700   -0.3180  -54.3280 C   0  0  0  0  0  0  0  0  0  0  0  0
    6.3630    0.5860  -55.3140 C   0  0  0  0  0  0  0  0  0  0  0  0
    7.7160    0.7700  -55.5850 C   0  0  0  0  0  0  0  0  0  0  0  0
    8.1070    1.7620  -56.6180 C   0  0  0  0  0  0  0  0  0  0  0  0
    7.2470    2.2110  -57.3630 O   0  0  0  0  0  0  0  0  0  0  0  0
    9.4480    2.0850  -56.6590 N   0  0  0  0  0  0  0  0  0  0  0  0
   10.0490    2.9730  -57.6640 C   0  0  2  0  0  0  0  0  0  0  0  0
    9.8200    2.4450  -59.1010 C   0  0  0  0  0  0  0  0  0  0  0  0
   10.5090    3.3590  -60.1290 C   0  0  1  0  0  0  0  0  0  0  0  0
    9.9370    4.7830  -60.0050 C   0  0  0  0  0  0  0  0  0  0  0  0
   10.1920    5.3340  -58.5910 C   0  0  2  0  0  0  0  0  0  0  0  0
   11.7050    5.3570  -58.3210 C   0  0  0  0  0  0  0  0  0  0  0  0
   12.2790    3.9360  -58.4340 C   0  0  2  0  0  0  0  0  0  0  0  0
   12.0190    3.3940  -59.8490 C   0  0  0  0  0  0  0  0  0  0  0  0
   11.5810    3.0270  -57.4100 C   0  0  0  0  0  0  0  0  0  0  0  0
    9.5040    4.4210  -57.5610 C   0  0  0  0  0  0  0  0  0  0  0  0
    8.6720    0.0560  -54.8520 C   0  0  0  0  0  0  0  0  0  0  0  0
    8.2860   -0.8490  -53.8410 C   0  0  0  0  0  0  0  0  0  0  0  0
    9.3660   -1.5800  -53.0920 C   0  0  0  0  0  0  0  0  0  0  0  0
    9.2270   -3.1040  -53.1360 C   0  0  0  0  0  0  0  0  0  0  0  0
    7.9112   -3.9429  -50.0438 H   0  0  0  0  0  0  0  0  0  0  0  0
    9.6258   -3.7002  -50.5211 H   0  0  0  0  0  0  0  0  0  0  0  0
    8.4881   -2.3101  -50.5211 H   0  0  0  0  0  0  0  0  0  0  0  0
    8.3500   -4.7010  -52.2260 H   0  0  0  0  0  0  0  0  0  0  0  0
    6.5794   -3.8809  -53.4733 H   0  0  0  0  0  0  0  0  0  0  0  0
    6.1908   -3.9195  -51.6800 H   0  0  0  0  0  0  0  0  0  0  0  0
    5.2648   -1.9487  -52.6251 H   0  0  0  0  0  0  0  0  0  0  0  0
    6.7831   -1.5667  -51.5809 H   0  0  0  0  0  0  0  0  0  0  0  0
    4.8979   -0.4734  -54.1368 H   0  0  0  0  0  0  0  0  0  0  0  0
    5.6060    1.1523  -55.8763 H   0  0  0  0  0  0  0  0  0  0  0  0
   10.0820    1.4550  -56.1870 H   0  0  0  0  0  0  0  0  0  0  0  0
   10.2355    1.4299  -59.1838 H   0  0  0  0  0  0  0  0  0  0  0  0
    8.7394    2.4313  -59.3062 H   0  0  0  0  0  0  0  0  0  0  0  0
   10.3307    2.9736  -61.1437 H   0  0  0  0  0  0  0  0  0  0  0  0
   10.4244    5.4365  -60.7435 H   0  0  0  0  0  0  0  0  0  0  0  0
    8.8530    4.7529  -60.1896 H   0  0  0  0  0  0  0  0  0  0  0  0
    9.7874    6.3537  -58.5106 H   0  0  0  0  0  0  0  0  0  0  0  0
   12.1970    6.0086  -59.0581 H   0  0  0  0  0  0  0  0  0  0  0  0
   11.8856    5.7405  -57.3059 H   0  0  0  0  0  0  0  0  0  0  0  0
   13.3612    3.9569  -58.2380 H   0  0  0  0  0  0  0  0  0  0  0  0
   12.5110    4.0467  -60.5852 H   0  0  0  0  0  0  0  0  0  0  0  0
   12.4241    2.3741  -59.9251 H   0  0  0  0  0  0  0  0  0  0  0  0
   11.9947    2.0109  -57.4905 H   0  0  0  0  0  0  0  0  0  0  0  0
   11.7545    3.4360  -56.4037 H   0  0  0  0  0  0  0  0  0  0  0  0
    9.6961    4.8083  -56.5495 H   0  0  0  0  0  0  0  0  0  0  0  0
    8.4232    4.4081  -57.7651 H   0  0  0  0  0  0  0  0  0  0  0  0
    9.7405    0.2031  -55.0679 H   0  0  0  0  0  0  0  0  0  0  0  0
   10.3372   -1.3077  -53.5308 H   0  0  0  0  0  0  0  0  0  0  0  0
    9.2816   -1.2814  -52.0367 H   0  0  0  0  0  0  0  0  0  0  0  0
    8.9077   -3.3893  -54.1492 H   0  0  0  0  0  0  0  0  0  0  0  0
   10.2101   -3.5126  -52.8594 H   0  0  0  0  0  0  0  0  0  0  0  0
  1  2  1  0
  2  3  1  0
  3  4  1  0
  4  5  1  0
  5  6  1  0
  6  7  2  0
  7  8  1  0
  8  9  1  0
  9 10  2  0
  9 11  1  0
 12 11  1  1
 12 13  1  0
 13 14  1  0
 14 15  1  0
 15 16  1  0
 16 17  1  0
 17 18  1  0
 18 19  1  0
 18 20  1  0
 16 21  1  0
  8 22  2  0
 22 23  1  0
 23 24  1  0
 24 25  1  0
 25  2  1  0
 23  5  2  0
 20 12  1  0
 21 12  1  0
 19 14  1  0
  1 26  1  0
  1 27  1  0
  1 28  1  0
  2 29  1  1
  3 30  1  0
  3 31  1  0
  4 32  1  0
  4 33  1  0
  6 34  1  0
  7 35  1  0
 11 36  1  0
 13 37  1  0
 13 38  1  0
 14 39  1  6
 15 40  1  0
 15 41  1  0
 16 42  1  6
 17 43  1  0
 17 44  1  0
 18 45  1  1
 19 46  1  0
 19 47  1  0
 20 48  1  0
 20 49  1  0
 21 50  1  0
 21 51  1  0
 22 52  1  0
 24 53  1  0
 24 54  1  0
 25 55  1  0
 25 56  1  0
M  CHG  1   2   1
M  END
>  <meeko>  (132) 
{"is_sidechain": false}

$$$$

     RDKit          3D

 51 56  0  0  0  0  0  0  0  0999 V2000
    5.2860   -0.5510  -54.4190 O   0  0  0  0  0  0  0  0  0  0  0  0
    6.4660   -0.4950  -54.7460 C   0  0  0  0  0  0  0  0  0  0  0  0
    7.3960   -1.4640  -54.4270 N   0  0  0  0  0  0  0  0  0  0  0  0
    7.0160   -2.6570  -53.6980 C   0  0  1  0  0  0  0  0  0  0  0  0
    8.1630   -3.6700  -53.5610 C   0  0  0  0  0  0  0  0  0  0  0  0
    8.1830   -4.0940  -52.0910 C   0  0  1  0  0  0  0  0  0  0  0  0
    9.1070   -3.2150  -51.2180 C   0  0  0  0  0  0  0  0  0  0  0  0
    8.1100   -2.3470  -50.4380 C   0  0  2  0  0  0  0  0  0  0  0  0
    7.0140   -3.3580  -50.1030 C   0  0  0  0  0  0  0  0  0  0  0  0
    6.7810   -3.7390  -51.5550 C   0  0  1  0  0  0  0  0  0  0  0  0
    6.5310   -2.3930  -52.2650 C   0  0  1  0  0  0  0  0  0  0  0  0
    7.3910   -1.4160  -51.4270 C   0  0  0  0  0  0  0  0  0  0  0  0
    6.9640    0.6410  -55.5680 C   0  0  0  0  0  0  0  0  0  0  0  0
    6.0830    1.5300  -56.1970 C   0  0  0  0  0  0  0  0  0  0  0  0
    6.5630    2.5950  -56.9680 C   0  0  0  0  0  0  0  0  0  0  0  0
    7.9490    2.7310  -57.0900 C   0  0  0  0  0  0  0  0  0  0  0  0
    8.6950    3.6630  -57.7770 N   0  0  0  0  0  0  0  0  0  0  0  0
   10.0440    3.4230  -57.6350 C   0  0  0  0  0  0  0  0  0  0  0  0
   11.0730    4.2520  -58.2670 C   0  0  0  0  0  0  0  0  0  0  0  0
   12.4140    4.1250  -57.8840 C   0  0  0  0  0  0  0  0  0  0  0  0
   13.4050    4.9070  -58.4830 C   0  0  0  0  0  0  0  0  0  0  0  0
   13.0660    5.8280  -59.4700 C   0  0  0  0  0  0  0  0  0  0  0  0
   11.7340    5.9690  -59.8570 C   0  0  0  0  0  0  0  0  0  0  0  0
   10.7440    5.1850  -59.2590 C   0  0  0  0  0  0  0  0  0  0  0  0
   10.1550    2.2910  -56.8450 C   0  0  0  0  0  0  0  0  0  0  0  0
    8.8500    1.8530  -56.4940 C   0  0  0  0  0  0  0  0  0  0  0  0
    8.3510    0.7850  -55.7240 C   0  0  0  0  0  0  0  0  0  0  0  0
    8.2700   -1.4710  -54.9350 H   0  0  0  0  0  0  0  0  0  0  0  0
    6.1952   -3.0549  -54.3128 H   0  0  0  0  0  0  0  0  0  0  0  0
    7.9815   -4.5416  -54.2071 H   0  0  0  0  0  0  0  0  0  0  0  0
    9.1246   -3.2310  -53.8652 H   0  0  0  0  0  0  0  0  0  0  0  0
    8.5000   -5.1463  -52.0437 H   0  0  0  0  0  0  0  0  0  0  0  0
    9.7134   -3.8310  -50.5377 H   0  0  0  0  0  0  0  0  0  0  0  0
    9.8314   -2.6289  -51.8026 H   0  0  0  0  0  0  0  0  0  0  0  0
    8.5843   -1.7967  -49.6120 H   0  0  0  0  0  0  0  0  0  0  0  0
    7.3706   -4.1962  -49.4863 H   0  0  0  0  0  0  0  0  0  0  0  0
    6.1538   -3.0177  -49.5078 H   0  0  0  0  0  0  0  0  0  0  0  0
    6.0055   -4.5086  -51.6824 H   0  0  0  0  0  0  0  0  0  0  0  0
    5.5117   -1.9851  -52.3327 H   0  0  0  0  0  0  0  0  0  0  0  0
    8.1126   -0.8808  -52.0617 H   0  0  0  0  0  0  0  0  0  0  0  0
    6.7980   -0.6331  -50.9316 H   0  0  0  0  0  0  0  0  0  0  0  0
    4.9980    1.3891  -56.0833 H   0  0  0  0  0  0  0  0  0  0  0  0
    5.8753    3.2988  -57.4596 H   0  0  0  0  0  0  0  0  0  0  0  0
    8.3020    4.4080  -58.3330 H   0  0  0  0  0  0  0  0  0  0  0  0
   12.6903    3.4015  -57.1028 H   0  0  0  0  0  0  0  0  0  0  0  0
   14.4547    4.7946  -58.1741 H   0  0  0  0  0  0  0  0  0  0  0  0
   13.8462    6.4424  -59.9430 H   0  0  0  0  0  0  0  0  0  0  0  0
   11.4621    6.6984  -60.6342 H   0  0  0  0  0  0  0  0  0  0  0  0
    9.6954    5.3016  -59.5703 H   0  0  0  0  0  0  0  0  0  0  0  0
   11.0966    1.8110  -56.5401 H   0  0  0  0  0  0  0  0  0  0  0  0
    9.0409    0.0714  -55.2499 H   0  0  0  0  0  0  0  0  0  0  0  0
  1  2  2  0
  2  3  1  0
  3  4  1  0
  4  5  1  0
  5  6  1  0
  6  7  1  0
  7  8  1  0
  8  9  1  0
  9 10  1  0
 10 11  1  0
 11 12  1  0
  2 13  1  0
 13 14  2  0
 14 15  1  0
 15 16  2  0
 16 17  1  0
 17 18  1  0
 18 19  1  0
 19 20  2  0
 20 21  1  0
 21 22  2  0
 22 23  1  0
 23 24  2  0
 18 25  2  0
 25 26  1  0
 26 27  2  0
 11  4  1  0
 27 13  1  0
 10  6  1  0
 26 16  1  0
 12  8  1  0
 24 19  1  0
  3 28  1  0
  4 29  1  6
  5 30  1  0
  5 31  1  0
  6 32  1  6
  7 33  1  0
  7 34  1  0
  8 35  1  1
  9 36  1  0
  9 37  1  0
 10 38  1  1
 11 39  1  6
 12 40  1  0
 12 41  1  0
 14 42  1  0
 15 43  1  0
 17 44  1  0
 20 45  1  0
 21 46  1  0
 22 47  1  0
 23 48  1  0
 24 49  1  0
 25 50  1  0
 27 51  1  0
M  END
>  <meeko>  (133) 
{"is_sidechain": false}

$$$$

     RDKit          3D

 55 60  0  0  0  0  0  0  0  0999 V2000
    6.2750    2.4630  -56.4570 O   0  0  0  0  0  0  0  0  0  0  0  0
    7.2530    1.7340  -56.3630 C   0  0  0  0  0  0  0  0  0  0  0  0
    8.4500    1.9330  -57.0210 N   0  0  0  0  0  0  0  0  0  0  0  0
    8.7340    3.0770  -57.8950 C   0  0  2  0  0  0  0  0  0  0  0  0
   10.0940    2.8260  -58.6010 C   0  0  0  0  0  0  0  0  0  0  0  0
   10.4580    3.9940  -59.5310 C   0  0  1  0  0  0  0  0  0  0  0  0
    9.3650    4.1480  -60.5990 C   0  0  0  0  0  0  0  0  0  0  0  0
    8.0110    4.4220  -59.9260 C   0  0  2  0  0  0  0  0  0  0  0  0
    8.1100    5.7120  -59.0940 C   0  0  0  0  0  0  0  0  0  0  0  0
    9.2020    5.5690  -58.0210 C   0  0  2  0  0  0  0  0  0  0  0  0
   10.5500    5.2870  -58.7050 C   0  0  0  0  0  0  0  0  0  0  0  0
    8.8490    4.3950  -57.0900 C   0  0  0  0  0  0  0  0  0  0  0  0
    7.6560    3.2460  -58.9980 C   0  0  0  0  0  0  0  0  0  0  0  0
    7.1990    0.5570  -55.4500 C   0  0  0  0  0  0  0  0  0  0  0  0
    6.0470    0.2420  -54.7230 C   0  0  0  0  0  0  0  0  0  0  0  0
    6.0460   -0.8670  -53.8790 C   0  0  0  0  0  0  0  0  0  0  0  0
    7.1940   -1.6520  -53.7570 C   0  0  0  0  0  0  0  0  0  0  0  0
    8.3730   -1.3440  -54.4610 C   0  0  0  0  0  0  0  0  0  0  0  0
    9.5510   -2.2060  -54.2760 C   0  0  0  0  0  0  0  0  0  0  0  0
   10.0120   -3.0650  -55.1680 N   0  0  0  0  0  0  0  0  0  0  0  0
   11.1260   -3.7140  -54.6420 C   0  0  0  0  0  0  0  0  0  0  0  0
   11.8420   -4.7490  -55.4540 C   0  0  0  0  0  0  0  0  0  0  0  0
   11.3730   -5.0160  -56.8630 C   0  0  0  0  0  0  0  0  0  0  0  0
   11.8710   -4.2250  -58.0480 C   0  0  0  0  0  0  0  0  0  0  0  0
   12.2480   -5.6760  -57.9000 C   0  0  0  0  0  0  0  0  0  0  0  0
   11.5550   -3.3900  -53.4200 N   0  0  0  0  0  0  0  0  0  0  0  0
   10.5080   -2.2280  -52.8440 S   0  0  0  0  0  0  0  0  0  0  0  0
    8.3570   -0.2250  -55.3080 C   0  0  0  0  0  0  0  0  0  0  0  0
    9.2510    1.4170  -56.6830 H   0  0  0  0  0  0  0  0  0  0  0  0
   10.8794    2.7153  -57.8389 H   0  0  0  0  0  0  0  0  0  0  0  0
   10.0104    1.9108  -59.2055 H   0  0  0  0  0  0  0  0  0  0  0  0
   11.4247    3.7966  -60.0174 H   0  0  0  0  0  0  0  0  0  0  0  0
    9.6191    4.9878  -61.2625 H   0  0  0  0  0  0  0  0  0  0  0  0
    9.2971    3.2191  -61.1842 H   0  0  0  0  0  0  0  0  0  0  0  0
    7.2323    4.5348  -60.6947 H   0  0  0  0  0  0  0  0  0  0  0  0
    8.3598    6.5536  -59.7568 H   0  0  0  0  0  0  0  0  0  0  0  0
    7.1441    5.8963  -58.6010 H   0  0  0  0  0  0  0  0  0  0  0  0
    9.2704    6.4977  -57.4354 H   0  0  0  0  0  0  0  0  0  0  0  0
   10.8047    6.1264  -59.3688 H   0  0  0  0  0  0  0  0  0  0  0  0
   11.3284    5.1708  -57.9365 H   0  0  0  0  0  0  0  0  0  0  0  0
    9.6367    4.2869  -56.3299 H   0  0  0  0  0  0  0  0  0  0  0  0
    7.8819    4.6023  -56.6087 H   0  0  0  0  0  0  0  0  0  0  0  0
    6.6820    3.4398  -58.5250 H   0  0  0  0  0  0  0  0  0  0  0  0
    7.6117    2.3234  -59.5953 H   0  0  0  0  0  0  0  0  0  0  0  0
    5.1462    0.8663  -54.8167 H   0  0  0  0  0  0  0  0  0  0  0  0
    5.1409   -1.1238  -53.3091 H   0  0  0  0  0  0  0  0  0  0  0  0
    7.1766   -2.5309  -53.0958 H   0  0  0  0  0  0  0  0  0  0  0  0
   12.8957   -4.4396  -55.5166 H   0  0  0  0  0  0  0  0  0  0  0  0
   11.6418   -5.6911  -54.9226 H   0  0  0  0  0  0  0  0  0  0  0  0
   10.3857   -5.2292  -56.4274 H   0  0  0  0  0  0  0  0  0  0  0  0
   11.1697   -3.9168  -58.8374 H   0  0  0  0  0  0  0  0  0  0  0  0
   12.4290   -3.2859  -58.1770 H   0  0  0  0  0  0  0  0  0  0  0  0
   11.8219   -6.4270  -58.5815 H   0  0  0  0  0  0  0  0  0  0  0  0
   13.1953   -6.2346  -57.8763 H   0  0  0  0  0  0  0  0  0  0  0  0
    9.2645    0.0434  -55.8687 H   0  0  0  0  0  0  0  0  0  0  0  0
  1  2  2  0
  2  3  1  0
  4  3  1  1
  4  5  1  0
  5  6  1  0
  6  7  1  0
  7  8  1  0
  8  9  1  0
  9 10  1  0
 10 11  1  0
 10 12  1  0
  8 13  1  0
  2 14  1  0
 14 15  1  0
 15 16  2  0
 16 17  1  0
 17 18  2  0
 18 19  1  0
 19 20  2  0
 20 21  1  0
 21 22  1  0
 22 23  1  0
 23 24  1  0
 24 25  1  0
 21 26  2  0
 26 27  1  0
 18 28  1  0
 12  4  1  0
 28 14  2  0
 13  4  1  0
 27 19  1  0
 11  6  1  0
 25 23  1  0
  3 29  1  0
  5 30  1  0
  5 31  1  0
  6 32  1  6
  7 33  1  0
  7 34  1  0
  8 35  1  6
  9 36  1  0
  9 37  1  0
 10 38  1  1
 11 39  1  0
 11 40  1  0
 12 41  1  0
 12 42  1  0
 13 43  1  0
 13 44  1  0
 15 45  1  0
 16 46  1  0
 17 47  1  0
 22 48  1  0
 22 49  1  0
 23 50  1  0
 24 51  1  0
 24 52  1  0
 25 53  1  0
 25 54  1  0
 28 55  1  0
M  END
>  <meeko>  (134) 
{"is_sidechain": false}

$$$$

     RDKit          3D

 47 52  0  0  0  0  0  0  0  0999 V2000
    6.4730   -2.4020  -55.1180 O   0  0  0  0  0  0  0  0  0  0  0  0
    6.6280   -1.4720  -54.3620 C   0  0  0  0  0  0  0  0  0  0  0  0
    6.1720   -0.0100  -54.2990 C   0  0  2  0  0  0  0  0  0  0  0  0
    6.7050    0.9290  -55.4560 C   0  0  0  0  0  0  0  0  0  0  0  0
    5.8700    1.5170  -56.4280 C   0  0  0  0  0  0  0  0  0  0  0  0
    6.3440    2.3520  -57.4510 C   0  0  0  0  0  0  0  0  0  0  0  0
    7.7150    2.6080  -57.4890 C   0  0  0  0  0  0  0  0  0  0  0  0
    8.4570    3.3740  -58.3580 N   0  0  0  0  0  0  0  0  0  0  0  0
    9.7810    3.3430  -58.0080 C   0  0  0  0  0  0  0  0  0  0  0  0
   10.9120    4.0870  -58.7550 C   0  0  0  0  0  0  0  0  0  0  0  0
   12.2860    3.7540  -58.8080 C   0  0  0  0  0  0  0  0  0  0  0  0
   12.8790    4.7170  -59.5940 C   0  0  0  0  0  0  0  0  0  0  0  0
   11.9550    5.6160  -60.0240 O   0  0  0  0  0  0  0  0  0  0  0  0
   10.7590    5.2260  -59.5090 C   0  0  0  0  0  0  0  0  0  0  0  0
    9.9000    2.5440  -56.8920 C   0  0  0  0  0  0  0  0  0  0  0  0
    8.6000    2.0730  -56.5580 C   0  0  0  0  0  0  0  0  0  0  0  0
    8.0850    1.2410  -55.5430 C   0  0  0  0  0  0  0  0  0  0  0  0
    7.0240    0.1030  -53.0820 N   0  0  0  0  0  0  0  0  0  0  0  0
    7.2760   -1.2670  -53.2000 N   0  0  0  0  0  0  0  0  0  0  0  0
    8.0780   -2.0250  -52.3880 C   0  0  0  0  0  0  0  0  0  0  0  0
    7.8530   -2.3110  -51.0190 C   0  0  0  0  0  0  0  0  0  0  0  0
    8.8150   -3.0600  -50.4760 N   0  0  0  0  0  0  0  0  0  0  0  0
    9.6490   -3.2730  -51.5050 N   0  0  0  0  0  0  0  0  0  0  0  0
    9.2620   -2.6800  -52.6820 C   0  0  0  0  0  0  0  0  0  0  0  0
   10.0550   -2.8460  -53.8890 C   0  0  0  0  0  0  0  0  0  0  0  0
   10.7930   -1.7730  -54.4010 C   0  0  0  0  0  0  0  0  0  0  0  0
   11.5190   -1.9210  -55.5840 C   0  0  0  0  0  0  0  0  0  0  0  0
   11.5100   -3.1400  -56.2620 C   0  0  0  0  0  0  0  0  0  0  0  0
   10.7750   -4.2120  -55.7570 C   0  0  0  0  0  0  0  0  0  0  0  0
   10.0480   -4.0670  -54.5740 C   0  0  0  0  0  0  0  0  0  0  0  0
    5.1021    0.2425  -54.3386 H   0  0  0  0  0  0  0  0  0  0  0  0
    4.7906    1.3103  -56.3819 H   0  0  0  0  0  0  0  0  0  0  0  0
    5.6608    2.7882  -58.1947 H   0  0  0  0  0  0  0  0  0  0  0  0
    8.0760    3.8870  -59.1390 H   0  0  0  0  0  0  0  0  0  0  0  0
   12.7798    2.9003  -58.3209 H   0  0  0  0  0  0  0  0  0  0  0  0
   13.9507    4.7534  -59.8394 H   0  0  0  0  0  0  0  0  0  0  0  0
    9.8045    5.7477  -59.6724 H   0  0  0  0  0  0  0  0  0  0  0  0
   10.8321    2.3121  -56.3559 H   0  0  0  0  0  0  0  0  0  0  0  0
    8.7749    0.8213  -54.7961 H   0  0  0  0  0  0  0  0  0  0  0  0
    7.9100    0.5850  -53.2610 H   0  0  0  0  0  0  0  0  0  0  0  0
    6.9755   -1.9526  -50.4608 H   0  0  0  0  0  0  0  0  0  0  0  0
   10.4730   -3.8460  -51.3500 H   0  0  0  0  0  0  0  0  0  0  0  0
   10.8010   -0.8099  -53.8696 H   0  0  0  0  0  0  0  0  0  0  0  0
   12.0989   -1.0753  -55.9821 H   0  0  0  0  0  0  0  0  0  0  0  0
   12.0823   -3.2556  -57.1943 H   0  0  0  0  0  0  0  0  0  0  0  0
   10.7680   -5.1734  -56.2915 H   0  0  0  0  0  0  0  0  0  0  0  0
    9.4682   -4.9143  -54.1791 H   0  0  0  0  0  0  0  0  0  0  0  0
  1  2  2  0
  2  3  1  0
  3  4  1  0
  4  5  2  0
  5  6  1  0
  6  7  2  0
  7  8  1  0
  8  9  1  0
  9 10  1  0
 10 11  1  0
 11 12  2  0
 12 13  1  0
 13 14  1  0
  9 15  2  0
 15 16  1  0
 16 17  2  0
  3 18  1  0
 18 19  1  0
 19 20  1  0
 20 21  1  0
 21 22  2  0
 22 23  1  0
 23 24  1  0
 24 25  1  0
 25 26  2  0
 26 27  1  0
 27 28  2  0
 28 29  1  0
 29 30  2  0
 19  2  1  0
 24 20  2  0
 30 25  1  0
 17  4  1  0
 16  7  1  0
 14 10  2  0
  3 31  1  1
  5 32  1  0
  6 33  1  0
  8 34  1  0
 11 35  1  0
 12 36  1  0
 14 37  1  0
 15 38  1  0
 17 39  1  0
 18 40  1  0
 21 41  1  0
 23 42  1  0
 26 43  1  0
 27 44  1  0
 28 45  1  0
 29 46  1  0
 30 47  1  0
M  END
>  <meeko>  (135) 
{"is_sidechain": false}

$$$$

     RDKit          3D

 47 52  0  0  0  0  0  0  0  0999 V2000
    6.6700    0.7590  -52.3320 O   0  0  0  0  0  0  0  0  0  0  0  0
    6.6570   -0.0470  -53.2340 C   0  0  0  0  0  0  0  0  0  0  0  0
    6.1130   -0.1540  -54.6660 C   0  0  1  0  0  0  0  0  0  0  0  0
    6.7370    0.8570  -55.7090 C   0  0  0  0  0  0  0  0  0  0  0  0
    5.9750    1.5360  -56.6820 C   0  0  0  0  0  0  0  0  0  0  0  0
    6.5270    2.4310  -57.6120 C   0  0  0  0  0  0  0  0  0  0  0  0
    7.9050    2.6390  -57.5620 C   0  0  0  0  0  0  0  0  0  0  0  0
    8.7150    3.4420  -58.3320 N   0  0  0  0  0  0  0  0  0  0  0  0
   10.0190    3.3270  -57.9290 C   0  0  0  0  0  0  0  0  0  0  0  0
   11.2110    4.0820  -58.5620 C   0  0  0  0  0  0  0  0  0  0  0  0
   12.5820    3.7400  -58.5150 C   0  0  0  0  0  0  0  0  0  0  0  0
   13.2420    4.7200  -59.2240 C   0  0  0  0  0  0  0  0  0  0  0  0
   12.3610    5.6370  -59.7000 O   0  0  0  0  0  0  0  0  0  0  0  0
   11.1250    5.2440  -59.2930 C   0  0  0  0  0  0  0  0  0  0  0  0
   10.0560    2.4330  -56.8820 C   0  0  0  0  0  0  0  0  0  0  0  0
    8.7250    1.9950  -56.6420 C   0  0  0  0  0  0  0  0  0  0  0  0
    8.1330    1.1020  -55.7250 C   0  0  0  0  0  0  0  0  0  0  0  0
    6.7970   -1.4790  -54.7190 N   0  0  0  0  0  0  0  0  0  0  0  0
    7.1670   -1.2820  -53.3920 N   0  0  0  0  0  0  0  0  0  0  0  0
    8.0180   -2.0120  -52.6050 C   0  0  0  0  0  0  0  0  0  0  0  0
    7.8540   -2.3290  -51.2360 C   0  0  0  0  0  0  0  0  0  0  0  0
    8.8720   -3.0430  -50.7470 N   0  0  0  0  0  0  0  0  0  0  0  0
    9.6820   -3.1890  -51.8070 N   0  0  0  0  0  0  0  0  0  0  0  0
    9.2300   -2.5840  -52.9540 C   0  0  0  0  0  0  0  0  0  0  0  0
    9.9890   -2.6470  -54.1960 C   0  0  0  0  0  0  0  0  0  0  0  0
   10.5680   -1.4920  -54.7350 C   0  0  0  0  0  0  0  0  0  0  0  0
   11.2870   -1.5520  -55.9310 C   0  0  0  0  0  0  0  0  0  0  0  0
   11.4290   -2.7670  -56.5970 C   0  0  0  0  0  0  0  0  0  0  0  0
   10.8560   -3.9240  -56.0690 C   0  0  0  0  0  0  0  0  0  0  0  0
   10.1380   -3.8640  -54.8740 C   0  0  0  0  0  0  0  0  0  0  0  0
    5.0449    0.0042  -54.8759 H   0  0  0  0  0  0  0  0  0  0  0  0
    4.8905    1.3547  -56.7140 H   0  0  0  0  0  0  0  0  0  0  0  0
    5.8973    2.9479  -58.3511 H   0  0  0  0  0  0  0  0  0  0  0  0
    8.3900    4.0290  -59.0860 H   0  0  0  0  0  0  0  0  0  0  0  0
   13.0304    2.8691  -58.0145 H   0  0  0  0  0  0  0  0  0  0  0  0
   14.3300    4.7546  -59.3822 H   0  0  0  0  0  0  0  0  0  0  0  0
   10.1900    5.7787  -59.5163 H   0  0  0  0  0  0  0  0  0  0  0  0
   10.9534    2.1152  -56.3309 H   0  0  0  0  0  0  0  0  0  0  0  0
    8.7743    0.5796  -54.9999 H   0  0  0  0  0  0  0  0  0  0  0  0
    7.6580   -1.4840  -55.2720 H   0  0  0  0  0  0  0  0  0  0  0  0
    6.9829   -2.0211  -50.6390 H   0  0  0  0  0  0  0  0  0  0  0  0
   10.5350   -3.7250  -51.6880 H   0  0  0  0  0  0  0  0  0  0  0  0
   10.4559   -0.5303  -54.2129 H   0  0  0  0  0  0  0  0  0  0  0  0
   11.7408   -0.6402  -56.3466 H   0  0  0  0  0  0  0  0  0  0  0  0
   11.9934   -2.8142  -57.5400 H   0  0  0  0  0  0  0  0  0  0  0  0
   10.9701   -4.8836  -56.5946 H   0  0  0  0  0  0  0  0  0  0  0  0
    9.6860   -4.7781  -54.4616 H   0  0  0  0  0  0  0  0  0  0  0  0
  1  2  2  0
  2  3  1  0
  3  4  1  0
  4  5  2  0
  5  6  1  0
  6  7  2  0
  7  8  1  0
  8  9  1  0
  9 10  1  0
 10 11  1  0
 11 12  2  0
 12 13  1  0
 13 14  1  0
  9 15  2  0
 15 16  1  0
 16 17  2  0
  3 18  1  0
 18 19  1  0
 19 20  1  0
 20 21  1  0
 21 22  2  0
 22 23  1  0
 23 24  1  0
 24 25  1  0
 25 26  2  0
 26 27  1  0
 27 28  2  0
 28 29  1  0
 29 30  2  0
 19  2  1  0
 24 20  2  0
 30 25  1  0
 17  4  1  0
 16  7  1  0
 14 10  2  0
  3 31  1  1
  5 32  1  0
  6 33  1  0
  8 34  1  0
 11 35  1  0
 12 36  1  0
 14 37  1  0
 15 38  1  0
 17 39  1  0
 18 40  1  0
 21 41  1  0
 23 42  1  0
 26 43  1  0
 27 44  1  0
 28 45  1  0
 29 46  1  0
 30 47  1  0
M  END
>  <meeko>  (136) 
{"is_sidechain": false}

$$$$

     RDKit          3D

 47 52  0  0  0  0  0  0  0  0999 V2000
    6.6460   -2.4790  -55.1110 O   0  0  0  0  0  0  0  0  0  0  0  0
    6.6450   -1.5140  -54.3790 C   0  0  0  0  0  0  0  0  0  0  0  0
    6.1150   -0.0750  -54.4000 C   0  0  2  0  0  0  0  0  0  0  0  0
    6.7290    0.8650  -55.5130 C   0  0  0  0  0  0  0  0  0  0  0  0
    5.9520    1.5210  -56.4900 C   0  0  0  0  0  0  0  0  0  0  0  0
    6.4950    2.3600  -57.4750 C   0  0  0  0  0  0  0  0  0  0  0  0
    7.8760    2.5500  -57.4670 C   0  0  0  0  0  0  0  0  0  0  0  0
    8.6790    3.3020  -58.2940 N   0  0  0  0  0  0  0  0  0  0  0  0
    9.9890    3.1980  -57.9080 C   0  0  0  0  0  0  0  0  0  0  0  0
   11.1850    3.9000  -58.5920 C   0  0  0  0  0  0  0  0  0  0  0  0
   12.5630    3.6450  -58.4100 C   0  0  0  0  0  0  0  0  0  0  0  0
   13.2250    4.5240  -59.2360 C   0  0  0  0  0  0  0  0  0  0  0  0
   12.3390    5.3000  -59.9120 O   0  0  0  0  0  0  0  0  0  0  0  0
   11.0970    4.9150  -59.5150 C   0  0  0  0  0  0  0  0  0  0  0  0
   10.0370    2.3650  -56.8130 C   0  0  0  0  0  0  0  0  0  0  0  0
    8.7060    1.9480  -56.5280 C   0  0  0  0  0  0  0  0  0  0  0  0
    8.1240    1.1140  -55.5520 C   0  0  0  0  0  0  0  0  0  0  0  0
    6.8200    0.0950  -53.0970 N   0  0  0  0  0  0  0  0  0  0  0  0
    7.1500   -1.2560  -53.1570 N   0  0  0  0  0  0  0  0  0  0  0  0
    8.0000   -1.9740  -52.3550 C   0  0  0  0  0  0  0  0  0  0  0  0
    7.7870   -2.2270  -51.0190 C   0  0  0  0  0  0  0  0  0  0  0  0
    8.8260   -2.9980  -50.6020 N   0  0  0  0  0  0  0  0  0  0  0  0
    9.7050   -3.2810  -51.5700 N   0  0  0  0  0  0  0  0  0  0  0  0
    9.2380   -2.6330  -52.6530 C   0  0  0  0  0  0  0  0  0  0  0  0
    9.9800   -2.6890  -53.9110 C   0  0  0  0  0  0  0  0  0  0  0  0
   10.5180   -1.5150  -54.4570 C   0  0  0  0  0  0  0  0  0  0  0  0
   11.2300   -1.5560  -55.6580 C   0  0  0  0  0  0  0  0  0  0  0  0
   11.4010   -2.7680  -56.3270 C   0  0  0  0  0  0  0  0  0  0  0  0
   10.8560   -3.9370  -55.7990 C   0  0  0  0  0  0  0  0  0  0  0  0
   10.1430   -3.8970  -54.5980 C   0  0  0  0  0  0  0  0  0  0  0  0
    5.0463    0.1284  -54.5625 H   0  0  0  0  0  0  0  0  0  0  0  0
    4.8629    1.3669  -56.4794 H   0  0  0  0  0  0  0  0  0  0  0  0
    5.8555    2.8490  -58.2246 H   0  0  0  0  0  0  0  0  0  0  0  0
    8.3440    3.8530  -59.0720 H   0  0  0  0  0  0  0  0  0  0  0  0
   13.0147    2.8958  -57.7432 H   0  0  0  0  0  0  0  0  0  0  0  0
   14.3186    4.5890  -59.3349 H   0  0  0  0  0  0  0  0  0  0  0  0
   10.1563    5.3530  -59.8801 H   0  0  0  0  0  0  0  0  0  0  0  0
   10.9411    2.0740  -56.2581 H   0  0  0  0  0  0  0  0  0  0  0  0
    8.7715    0.6423  -54.7982 H   0  0  0  0  0  0  0  0  0  0  0  0
    7.6950    0.6230  -53.1670 H   0  0  0  0  0  0  0  0  0  0  0  0
    6.9423   -1.8747  -50.4088 H   0  0  0  0  0  0  0  0  0  0  0  0
    8.9940   -3.3740  -49.6760 H   0  0  0  0  0  0  0  0  0  0  0  0
   10.3786   -0.5560  -53.9365 H   0  0  0  0  0  0  0  0  0  0  0  0
   11.6560   -0.6322  -56.0764 H   0  0  0  0  0  0  0  0  0  0  0  0
   11.9655   -2.8011  -57.2705 H   0  0  0  0  0  0  0  0  0  0  0  0
   10.9873   -4.8923  -56.3284 H   0  0  0  0  0  0  0  0  0  0  0  0
    9.7071   -4.8209  -54.1901 H   0  0  0  0  0  0  0  0  0  0  0  0
  1  2  2  0
  2  3  1  0
  3  4  1  0
  4  5  2  0
  5  6  1  0
  6  7  2  0
  7  8  1  0
  8  9  1  0
  9 10  1  0
 10 11  1  0
 11 12  2  0
 12 13  1  0
 13 14  1  0
  9 15  2  0
 15 16  1  0
 16 17  2  0
  3 18  1  0
 18 19  1  0
 19 20  1  0
 20 21  2  0
 21 22  1  0
 22 23  1  0
 23 24  2  0
 24 25  1  0
 25 26  2  0
 26 27  1  0
 27 28  2  0
 28 29  1  0
 29 30  2  0
 19  2  1  0
 24 20  1  0
 30 25  1  0
 17  4  1  0
 16  7  1  0
 14 10  2  0
  3 31  1  1
  5 32  1  0
  6 33  1  0
  8 34  1  0
 11 35  1  0
 12 36  1  0
 14 37  1  0
 15 38  1  0
 17 39  1  0
 18 40  1  0
 21 41  1  0
 22 42  1  0
 26 43  1  0
 27 44  1  0
 28 45  1  0
 29 46  1  0
 30 47  1  0
M  END
>  <meeko>  (137) 
{"is_sidechain": false}

$$$$

     RDKit          3D

 47 52  0  0  0  0  0  0  0  0999 V2000
    6.6570    0.7680  -52.3310 O   0  0  0  0  0  0  0  0  0  0  0  0
    6.6520   -0.0440  -53.2280 C   0  0  0  0  0  0  0  0  0  0  0  0
    6.1210   -0.1450  -54.6640 C   0  0  1  0  0  0  0  0  0  0  0  0
    6.7420    0.8770  -55.6970 C   0  0  0  0  0  0  0  0  0  0  0  0
    5.9700    1.6050  -56.6270 C   0  0  0  0  0  0  0  0  0  0  0  0
    6.5200    2.5090  -57.5500 C   0  0  0  0  0  0  0  0  0  0  0  0
    7.9030    2.6790  -57.5360 C   0  0  0  0  0  0  0  0  0  0  0  0
    8.7130    3.4810  -58.3080 N   0  0  0  0  0  0  0  0  0  0  0  0
   10.0240    3.3200  -57.9490 C   0  0  0  0  0  0  0  0  0  0  0  0
   11.2270    4.0510  -58.5880 C   0  0  0  0  0  0  0  0  0  0  0  0
   12.5860    3.6600  -58.5840 C   0  0  0  0  0  0  0  0  0  0  0  0
   13.2640    4.6340  -59.2790 C   0  0  0  0  0  0  0  0  0  0  0  0
   12.4070    5.5970  -59.7080 O   0  0  0  0  0  0  0  0  0  0  0  0
   11.1670    5.2360  -59.2840 C   0  0  0  0  0  0  0  0  0  0  0  0
   10.0680    2.3970  -56.9270 C   0  0  0  0  0  0  0  0  0  0  0  0
    8.7320    1.9870  -56.6580 C   0  0  0  0  0  0  0  0  0  0  0  0
    8.1440    1.0860  -55.7480 C   0  0  0  0  0  0  0  0  0  0  0  0
    6.8180   -1.4620  -54.7200 N   0  0  0  0  0  0  0  0  0  0  0  0
    7.1490   -1.2870  -53.3790 N   0  0  0  0  0  0  0  0  0  0  0  0
    7.9940   -2.0290  -52.5940 C   0  0  0  0  0  0  0  0  0  0  0  0
    7.7560   -2.3520  -51.2770 C   0  0  0  0  0  0  0  0  0  0  0  0
    8.8400   -3.0510  -50.8510 N   0  0  0  0  0  0  0  0  0  0  0  0
    9.7820   -3.2070  -51.7890 N   0  0  0  0  0  0  0  0  0  0  0  0
    9.2690   -2.6160  -52.8840 C   0  0  0  0  0  0  0  0  0  0  0  0
   10.0250   -2.6240  -54.1340 C   0  0  0  0  0  0  0  0  0  0  0  0
   10.5870   -1.4450  -54.6420 C   0  0  0  0  0  0  0  0  0  0  0  0
   11.3080   -1.4650  -55.8390 C   0  0  0  0  0  0  0  0  0  0  0  0
   11.4630   -2.6600  -56.5400 C   0  0  0  0  0  0  0  0  0  0  0  0
   10.8940   -3.8340  -56.0520 C   0  0  0  0  0  0  0  0  0  0  0  0
   10.1740   -3.8160  -54.8560 C   0  0  0  0  0  0  0  0  0  0  0  0
    5.0532    0.0061  -54.8805 H   0  0  0  0  0  0  0  0  0  0  0  0
    4.8801    1.4566  -56.6291 H   0  0  0  0  0  0  0  0  0  0  0  0
    5.8837    3.0617  -58.2569 H   0  0  0  0  0  0  0  0  0  0  0  0
    8.3810    4.0980  -59.0360 H   0  0  0  0  0  0  0  0  0  0  0  0
   13.0140    2.7595  -58.1193 H   0  0  0  0  0  0  0  0  0  0  0  0
   14.3487    4.6334  -59.4620 H   0  0  0  0  0  0  0  0  0  0  0  0
   10.2471    5.8095  -59.4707 H   0  0  0  0  0  0  0  0  0  0  0  0
   10.9725    2.0412  -56.4119 H   0  0  0  0  0  0  0  0  0  0  0  0
    8.7919    0.5278  -55.0562 H   0  0  0  0  0  0  0  0  0  0  0  0
    7.6930   -1.4440  -55.2520 H   0  0  0  0  0  0  0  0  0  0  0  0
    6.8643   -2.0949  -50.6865 H   0  0  0  0  0  0  0  0  0  0  0  0
    9.0090   -3.4460  -49.9310 H   0  0  0  0  0  0  0  0  0  0  0  0
   10.4599   -0.4988  -54.0956 H   0  0  0  0  0  0  0  0  0  0  0  0
   11.7533   -0.5375  -56.2282 H   0  0  0  0  0  0  0  0  0  0  0  0
   12.0352   -2.6758  -57.4794 H   0  0  0  0  0  0  0  0  0  0  0  0
   11.0119   -4.7752  -56.6089 H   0  0  0  0  0  0  0  0  0  0  0  0
    9.7204   -4.7440  -54.4776 H   0  0  0  0  0  0  0  0  0  0  0  0
  1  2  2  0
  2  3  1  0
  3  4  1  0
  4  5  2  0
  5  6  1  0
  6  7  2  0
  7  8  1  0
  8  9  1  0
  9 10  1  0
 10 11  1  0
 11 12  2  0
 12 13  1  0
 13 14  1  0
  9 15  2  0
 15 16  1  0
 16 17  2  0
  3 18  1  0
 18 19  1  0
 19 20  1  0
 20 21  2  0
 21 22  1  0
 22 23  1  0
 23 24  2  0
 24 25  1  0
 25 26  2  0
 26 27  1  0
 27 28  2  0
 28 29  1  0
 29 30  2  0
 19  2  1  0
 24 20  1  0
 30 25  1  0
 17  4  1  0
 16  7  1  0
 14 10  2  0
  3 31  1  1
  5 32  1  0
  6 33  1  0
  8 34  1  0
 11 35  1  0
 12 36  1  0
 14 37  1  0
 15 38  1  0
 17 39  1  0
 18 40  1  0
 21 41  1  0
 22 42  1  0
 26 43  1  0
 27 44  1  0
 28 45  1  0
 29 46  1  0
 30 47  1  0
M  END
>  <meeko>  (138) 
{"is_sidechain": false}

$$$$

     RDKit          3D

 54 57  0  0  0  0  0  0  0  0999 V2000
   12.4360    3.5660  -59.5230 C   0  0  0  0  0  0  0  0  0  0  0  0
   11.2160    3.8440  -58.6370 C   0  0  2  0  0  0  0  0  0  0  0  0
   11.1540    2.7970  -57.5010 C   0  0  0  0  0  0  0  0  0  0  0  0
   10.0110    3.0530  -56.4720 C   0  0  2  0  0  0  0  0  0  0  0  0
   10.5520    3.9320  -55.3220 C   0  0  0  0  0  0  0  0  0  0  0  0
    9.5650    1.6730  -55.8540 C   0  0  0  0  0  0  0  0  0  0  0  0
    8.4320    1.6840  -54.8050 C   0  0  0  0  0  0  0  0  0  0  0  0
    7.5910    0.4020  -54.8070 C   0  0  0  0  0  0  0  0  0  0  0  0
    7.9030   -0.5880  -53.7590 C   0  0  0  0  0  0  0  0  0  0  0  0
    7.0930   -0.6970  -52.6210 C   0  0  0  0  0  0  0  0  0  0  0  0
    7.3920   -1.6340  -51.6280 C   0  0  0  0  0  0  0  0  0  0  0  0
    8.5020   -2.4640  -51.7690 C   0  0  0  0  0  0  0  0  0  0  0  0
    8.8700   -3.6150  -50.5450 Cl  0  0  0  0  0  0  0  0  0  0  0  0
    9.3160   -2.3660  -52.8950 C   0  0  0  0  0  0  0  0  0  0  0  0
    9.0170   -1.4310  -53.8890 C   0  0  0  0  0  0  0  0  0  0  0  0
    6.6010    0.1070  -55.6820 C   0  0  0  0  0  0  0  0  0  0  0  0
    6.3610    1.0670  -56.7730 C   0  0  0  0  0  0  0  0  0  0  0  0
    6.5490    0.7520  -58.0180 N   0  0  0  0  0  0  0  0  0  0  0  0
    6.9870    1.8460  -58.7170 C   0  0  0  0  0  0  0  0  0  0  0  0
    8.3040    2.0620  -58.8380 C   0  0  0  0  0  0  0  0  0  0  0  0
    8.6530    3.5140  -58.6840 C   0  0  2  0  0  0  0  0  0  0  0  0
    8.8680    3.8430  -57.1740 C   0  0  0  0  0  0  0  0  0  0  0  0
    7.3940    4.0810  -59.1060 N   0  0  0  0  0  0  0  0  0  0  0  0
    6.3580    3.1910  -58.8630 C   0  0  0  0  0  0  0  0  0  0  0  0
    5.1840    3.4780  -58.7260 O   0  0  0  0  0  0  0  0  0  0  0  0
    9.9060    3.9170  -59.5000 C   0  0  1  0  0  0  0  0  0  0  0  0
    9.7780    5.3250  -60.1060 C   0  0  0  0  0  0  0  0  0  0  0  0
   13.3121    3.3664  -58.8885 H   0  0  0  0  0  0  0  0  0  0  0  0
   12.2361    2.6904  -60.1581 H   0  0  0  0  0  0  0  0  0  0  0  0
   12.6351    4.4418  -60.1581 H   0  0  0  0  0  0  0  0  0  0  0  0
   11.3114    4.8305  -58.1599 H   0  0  0  0  0  0  0  0  0  0  0  0
   10.9998    1.8053  -57.9512 H   0  0  0  0  0  0  0  0  0  0  0  0
   12.1033    2.8656  -56.9495 H   0  0  0  0  0  0  0  0  0  0  0  0
   10.2758    3.4833  -54.3564 H   0  0  0  0  0  0  0  0  0  0  0  0
   11.6475    3.9985  -55.3955 H   0  0  0  0  0  0  0  0  0  0  0  0
   10.1178    4.9400  -55.3955 H   0  0  0  0  0  0  0  0  0  0  0  0
    9.2354    1.0328  -56.6856 H   0  0  0  0  0  0  0  0  0  0  0  0
   10.4485    1.3192  -55.3023 H   0  0  0  0  0  0  0  0  0  0  0  0
    8.8805    1.8058  -53.8080 H   0  0  0  0  0  0  0  0  0  0  0  0
    7.7590    2.5155  -55.0612 H   0  0  0  0  0  0  0  0  0  0  0  0
    6.2169   -0.0415  -52.5084 H   0  0  0  0  0  0  0  0  0  0  0  0
    6.7522   -1.7159  -50.7370 H   0  0  0  0  0  0  0  0  0  0  0  0
   10.1918   -3.0230  -53.0013 H   0  0  0  0  0  0  0  0  0  0  0  0
    9.6589   -1.3552  -54.7791 H   0  0  0  0  0  0  0  0  0  0  0  0
    6.0017   -0.8100  -55.5825 H   0  0  0  0  0  0  0  0  0  0  0  0
    6.0123    2.0805  -56.5254 H   0  0  0  0  0  0  0  0  0  0  0  0
    9.0423    1.2689  -59.0278 H   0  0  0  0  0  0  0  0  0  0  0  0
    9.0964    4.9158  -57.0901 H   0  0  0  0  0  0  0  0  0  0  0  0
    7.9391    3.5462  -56.6651 H   0  0  0  0  0  0  0  0  0  0  0  0
    7.1740    5.0650  -59.0340 H   0  0  0  0  0  0  0  0  0  0  0  0
    9.9758    3.1863  -60.3193 H   0  0  0  0  0  0  0  0  0  0  0  0
    9.7105    6.0675  -59.2972 H   0  0  0  0  0  0  0  0  0  0  0  0
   10.6604    5.5385  -60.7271 H   0  0  0  0  0  0  0  0  0  0  0  0
    8.8715    5.3759  -60.7271 H   0  0  0  0  0  0  0  0  0  0  0  0
  1  2  1  0
  2  3  1  0
  3  4  1  0
  4  5  1  1
  4  6  1  0
  6  7  1  0
  7  8  1  0
  8  9  1  0
  9 10  1  0
 10 11  2  0
 11 12  1  0
 12 13  1  0
 12 14  2  0
 14 15  1  0
  8 16  2  0
 16 17  1  0
 17 18  2  0
 18 19  1  0
 19 20  2  0
 20 21  1  0
 21 22  1  0
 21 23  1  6
 23 24  1  0
 24 25  2  0
 21 26  1  0
 26 27  1  0
 26  2  1  0
 22  4  1  0
 15  9  2  0
 24 19  1  0
  1 28  1  0
  1 29  1  0
  1 30  1  0
  2 31  1  1
  3 32  1  0
  3 33  1  0
  5 34  1  0
  5 35  1  0
  5 36  1  0
  6 37  1  0
  6 38  1  0
  7 39  1  0
  7 40  1  0
 10 41  1  0
 11 42  1  0
 14 43  1  0
 15 44  1  0
 16 45  1  0
 17 46  1  0
 20 47  1  0
 22 48  1  0
 22 49  1  0
 23 50  1  0
 26 51  1  6
 27 52  1  0
 27 53  1  0
 27 54  1  0
M  END
>  <meeko>  (139) 
{"is_sidechain": false}

$$$$

     RDKit          3D

 54 57  0  0  0  0  0  0  0  0999 V2000
   13.7640    3.7690  -59.4610 C   0  0  0  0  0  0  0  0  0  0  0  0
   12.5690    4.6710  -59.1280 C   0  0  2  0  0  0  0  0  0  0  0  0
   12.1150    4.4770  -57.6420 C   0  0  0  0  0  0  0  0  0  0  0  0
   11.1190    3.3100  -57.3360 C   0  0  1  0  0  0  0  0  0  0  0  0
   11.9060    2.0790  -56.8480 C   0  0  0  0  0  0  0  0  0  0  0  0
   10.0990    3.7400  -56.2150 C   0  0  0  0  0  0  0  0  0  0  0  0
    9.2170    2.7020  -55.4690 C   0  0  0  0  0  0  0  0  0  0  0  0
    8.1150    1.8070  -56.0540 C   0  0  0  0  0  0  0  0  0  0  0  0
    8.0500    0.4730  -55.4070 C   0  0  0  0  0  0  0  0  0  0  0  0
    9.2250   -0.1850  -55.0150 C   0  0  0  0  0  0  0  0  0  0  0  0
    9.1610   -1.4380  -54.4000 C   0  0  0  0  0  0  0  0  0  0  0  0
    7.9230   -2.0360  -54.1760 C   0  0  0  0  0  0  0  0  0  0  0  0
    7.8440   -3.5790  -53.4180 Cl  0  0  0  0  0  0  0  0  0  0  0  0
    6.7480   -1.3940  -54.5610 C   0  0  0  0  0  0  0  0  0  0  0  0
    6.8110   -0.1400  -55.1760 C   0  0  0  0  0  0  0  0  0  0  0  0
    7.1860    2.0050  -57.0150 C   0  0  0  0  0  0  0  0  0  0  0  0
    7.1570    3.2370  -57.8170 C   0  0  0  0  0  0  0  0  0  0  0  0
    7.0230    3.1880  -59.1110 N   0  0  0  0  0  0  0  0  0  0  0  0
    7.7630    4.1680  -59.7600 C   0  0  0  0  0  0  0  0  0  0  0  0
    8.8950    3.7470  -60.3790 C   0  0  0  0  0  0  0  0  0  0  0  0
   10.1000    4.1800  -59.5650 C   0  0  2  0  0  0  0  0  0  0  0  0
   10.3790    2.9610  -58.6230 C   0  0  0  0  0  0  0  0  0  0  0  0
    9.5420    5.3490  -58.9390 N   0  0  0  0  0  0  0  0  0  0  0  0
    8.1860    5.4350  -59.0860 C   0  0  0  0  0  0  0  0  0  0  0  0
    7.4700    6.3220  -58.6650 O   0  0  0  0  0  0  0  0  0  0  0  0
   11.4490    4.5020  -60.2230 C   0  0  1  0  0  0  0  0  0  0  0  0
   11.4070    5.7100  -61.1670 C   0  0  0  0  0  0  0  0  0  0  0  0
   14.2294    3.4177  -58.5283 H   0  0  0  0  0  0  0  0  0  0  0  0
   13.4187    2.9043  -60.0468 H   0  0  0  0  0  0  0  0  0  0  0  0
   14.5009    4.3380  -60.0468 H   0  0  0  0  0  0  0  0  0  0  0  0
   12.8561    5.7318  -59.1757 H   0  0  0  0  0  0  0  0  0  0  0  0
   13.0200    4.3035  -57.0413 H   0  0  0  0  0  0  0  0  0  0  0  0
   11.5561    5.3926  -57.3986 H   0  0  0  0  0  0  0  0  0  0  0  0
   11.9164    2.0628  -55.7482 H   0  0  0  0  0  0  0  0  0  0  0  0
   11.4251    1.1638  -57.2237 H   0  0  0  0  0  0  0  0  0  0  0  0
   12.9385    2.1314  -57.2237 H   0  0  0  0  0  0  0  0  0  0  0  0
   10.6883    4.2563  -55.4429 H   0  0  0  0  0  0  0  0  0  0  0  0
    9.3530    4.3123  -56.7859 H   0  0  0  0  0  0  0  0  0  0  0  0
    9.9337    2.0016  -55.0155 H   0  0  0  0  0  0  0  0  0  0  0  0
    8.5827    3.3988  -54.9014 H   0  0  0  0  0  0  0  0  0  0  0  0
   10.2021    0.2879  -55.1927 H   0  0  0  0  0  0  0  0  0  0  0  0
   10.0850   -1.9504  -54.0938 H   0  0  0  0  0  0  0  0  0  0  0  0
    5.7738   -1.8722  -54.3817 H   0  0  0  0  0  0  0  0  0  0  0  0
    5.8838    0.3679  -55.4800 H   0  0  0  0  0  0  0  0  0  0  0  0
    6.4329    1.2253  -57.2019 H   0  0  0  0  0  0  0  0  0  0  0  0
    7.2497    4.2125  -57.3173 H   0  0  0  0  0  0  0  0  0  0  0  0
    8.9329    3.1814  -61.3217 H   0  0  0  0  0  0  0  0  0  0  0  0
    9.4136    2.5088  -58.3519 H   0  0  0  0  0  0  0  0  0  0  0  0
   11.0334    2.2771  -59.1834 H   0  0  0  0  0  0  0  0  0  0  0  0
   10.0540    6.1130  -58.5210 H   0  0  0  0  0  0  0  0  0  0  0  0
   11.6944    3.6408  -60.8618 H   0  0  0  0  0  0  0  0  0  0  0  0
   11.3748    6.6368  -60.5753 H   0  0  0  0  0  0  0  0  0  0  0  0
   12.3057    5.7110  -61.8014 H   0  0  0  0  0  0  0  0  0  0  0  0
   10.5104    5.6486  -61.8014 H   0  0  0  0  0  0  0  0  0  0  0  0
  1  2  1  0
  2  3  1  0
  3  4  1  0
  4  5  1  1
  4  6  1  0
  6  7  1  0
  7  8  1  0
  8  9  1  0
  9 10  1  0
 10 11  2  0
 11 12  1  0
 12 13  1  0
 12 14  2  0
 14 15  1  0
  8 16  2  0
 16 17  1  0
 17 18  2  0
 18 19  1  0
 19 20  2  0
 20 21  1  0
 21 22  1  0
 21 23  1  1
 23 24  1  0
 24 25  2  0
 21 26  1  0
 26 27  1  0
 26  2  1  0
 22  4  1  0
 15  9  2  0
 24 19  1  0
  1 28  1  0
  1 29  1  0
  1 30  1  0
  2 31  1  1
  3 32  1  0
  3 33  1  0
  5 34  1  0
  5 35  1  0
  5 36  1  0
  6 37  1  0
  6 38  1  0
  7 39  1  0
  7 40  1  0
 10 41  1  0
 11 42  1  0
 14 43  1  0
 15 44  1  0
 16 45  1  0
 17 46  1  0
 20 47  1  0
 22 48  1  0
 22 49  1  0
 23 50  1  0
 26 51  1  6
 27 52  1  0
 27 53  1  0
 27 54  1  0
M  END
>  <meeko>  (140) 
{"is_sidechain": false}

$$$$

     RDKit          3D

 54 57  0  0  0  0  0  0  0  0999 V2000
   13.7650    3.7650  -59.4620 C   0  0  0  0  0  0  0  0  0  0  0  0
   12.5900    4.3560  -58.6710 C   0  0  2  0  0  0  0  0  0  0  0  0
   12.0700    3.3020  -57.6670 C   0  0  0  0  0  0  0  0  0  0  0  0
   10.8980    3.8050  -56.7640 C   0  0  2  0  0  0  0  0  0  0  0  0
   11.4450    4.1880  -55.3720 C   0  0  0  0  0  0  0  0  0  0  0  0
    9.8770    2.6330  -56.5770 C   0  0  0  0  0  0  0  0  0  0  0  0
    8.4040    3.0070  -56.2810 C   0  0  0  0  0  0  0  0  0  0  0  0
    7.4900    1.8670  -56.6550 C   0  0  0  0  0  0  0  0  0  0  0  0
    7.4480    0.7710  -55.6590 C   0  0  0  0  0  0  0  0  0  0  0  0
    6.2350    0.1350  -55.3610 C   0  0  0  0  0  0  0  0  0  0  0  0
    6.1920   -0.9020  -54.4250 C   0  0  0  0  0  0  0  0  0  0  0  0
    7.3620   -1.3050  -53.7850 C   0  0  0  0  0  0  0  0  0  0  0  0
    7.3090   -2.5800  -52.6300 Cl  0  0  0  0  0  0  0  0  0  0  0  0
    8.5750   -0.6830  -54.0730 C   0  0  0  0  0  0  0  0  0  0  0  0
    8.6180    0.3520  -55.0100 C   0  0  0  0  0  0  0  0  0  0  0  0
    6.7040    1.7220  -57.7390 C   0  0  0  0  0  0  0  0  0  0  0  0
    6.3420    2.5060  -58.9680 C   0  0  0  0  0  0  0  0  0  0  0  0
    6.7860    3.4810  -59.6820 N   0  0  0  0  0  0  0  0  0  0  0  0
    7.8890    4.2050  -59.3980 C   0  0  0  0  0  0  0  0  0  0  0  0
    9.1670    3.8360  -59.2790 C   0  0  0  0  0  0  0  0  0  0  0  0
   10.0850    4.9790  -58.9120 C   0  0  2  0  0  0  0  0  0  0  0  0
   10.2930    5.0810  -57.3870 C   0  0  0  0  0  0  0  0  0  0  0  0
    9.2440    6.0740  -59.3200 N   0  0  0  0  0  0  0  0  0  0  0  0
    7.9170    5.6990  -59.3790 C   0  0  0  0  0  0  0  0  0  0  0  0
    6.9690    6.4620  -59.4090 O   0  0  0  0  0  0  0  0  0  0  0  0
   11.4670    4.8890  -59.6290 C   0  0  1  0  0  0  0  0  0  0  0  0
   11.9050    6.2350  -60.2320 C   0  0  0  0  0  0  0  0  0  0  0  0
   14.5232    3.3836  -58.7622 H   0  0  0  0  0  0  0  0  0  0  0  0
   13.4034    2.9415  -60.0953 H   0  0  0  0  0  0  0  0  0  0  0  0
   14.2105    4.5463  -60.0953 H   0  0  0  0  0  0  0  0  0  0  0  0
   12.9342    5.2300  -58.0986 H   0  0  0  0  0  0  0  0  0  0  0  0
   11.7181    2.4281  -58.2348 H   0  0  0  0  0  0  0  0  0  0  0  0
   12.9078    3.0630  -56.9955 H   0  0  0  0  0  0  0  0  0  0  0  0
   10.8089    3.7426  -54.5928 H   0  0  0  0  0  0  0  0  0  0  0  0
   12.4730    3.8114  -55.2657 H   0  0  0  0  0  0  0  0  0  0  0  0
   11.4428    5.2828  -55.2657 H   0  0  0  0  0  0  0  0  0  0  0  0
    9.8861    2.0377  -57.5020 H   0  0  0  0  0  0  0  0  0  0  0  0
   10.2186    2.1059  -55.6740 H   0  0  0  0  0  0  0  0  0  0  0  0
    8.2931    3.2243  -55.2084 H   0  0  0  0  0  0  0  0  0  0  0  0
    8.1332    3.8927  -56.8745 H   0  0  0  0  0  0  0  0  0  0  0  0
    5.3116    0.4539  -55.8667 H   0  0  0  0  0  0  0  0  0  0  0  0
    5.2377   -1.3982  -54.1945 H   0  0  0  0  0  0  0  0  0  0  0  0
    9.4954   -1.0058  -53.5644 H   0  0  0  0  0  0  0  0  0  0  0  0
    9.5759    0.8414  -55.2402 H   0  0  0  0  0  0  0  0  0  0  0  0
    6.1783    0.7559  -57.7185 H   0  0  0  0  0  0  0  0  0  0  0  0
    5.4001    2.1276  -59.3918 H   0  0  0  0  0  0  0  0  0  0  0  0
    9.5162    2.8043  -59.4326 H   0  0  0  0  0  0  0  0  0  0  0  0
   10.9703    5.9234  -57.1831 H   0  0  0  0  0  0  0  0  0  0  0  0
    9.3015    5.2252  -56.9330 H   0  0  0  0  0  0  0  0  0  0  0  0
    9.4450    7.0490  -59.1380 H   0  0  0  0  0  0  0  0  0  0  0  0
   11.3288    4.1708  -60.4506 H   0  0  0  0  0  0  0  0  0  0  0  0
   12.1352    6.9423  -59.4216 H   0  0  0  0  0  0  0  0  0  0  0  0
   12.8006    6.0846  -60.8528 H   0  0  0  0  0  0  0  0  0  0  0  0
   11.0924    6.6404  -60.8528 H   0  0  0  0  0  0  0  0  0  0  0  0
  1  2  1  0
  2  3  1  0
  3  4  1  0
  4  5  1  1
  4  6  1  0
  6  7  1  0
  7  8  1  0
  8  9  1  0
  9 10  1  0
 10 11  2  0
 11 12  1  0
 12 13  1  0
 12 14  2  0
 14 15  1  0
  8 16  2  0
 16 17  1  0
 17 18  2  0
 18 19  1  0
 19 20  2  0
 20 21  1  0
 21 22  1  0
 21 23  1  6
 23 24  1  0
 24 25  2  0
 21 26  1  0
 26 27  1  0
 26  2  1  0
 22  4  1  0
 15  9  2  0
 24 19  1  0
  1 28  1  0
  1 29  1  0
  1 30  1  0
  2 31  1  1
  3 32  1  0
  3 33  1  0
  5 34  1  0
  5 35  1  0
  5 36  1  0
  6 37  1  0
  6 38  1  0
  7 39  1  0
  7 40  1  0
 10 41  1  0
 11 42  1  0
 14 43  1  0
 15 44  1  0
 16 45  1  0
 17 46  1  0
 20 47  1  0
 22 48  1  0
 22 49  1  0
 23 50  1  0
 26 51  1  6
 27 52  1  0
 27 53  1  0
 27 54  1  0
M  END
>  <meeko>  (141) 
{"is_sidechain": false}

$$$$

     RDKit          3D

 54 57  0  0  0  0  0  0  0  0999 V2000
    7.8200   -0.5110  -54.4300 C   0  0  0  0  0  0  0  0  0  0  0  0
    8.2800    0.7680  -55.1370 C   0  0  2  0  0  0  0  0  0  0  0  0
    7.0250    1.4420  -55.8480 C   0  0  0  0  0  0  0  0  0  0  0  0
    7.3800    2.0340  -57.2340 C   0  0  1  0  0  0  0  0  0  0  0  0
    7.2750    0.8240  -58.1900 C   0  0  0  0  0  0  0  0  0  0  0  0
    6.4630    3.1550  -57.8150 C   0  0  0  0  0  0  0  0  0  0  0  0
    7.0320    3.9300  -59.0680 C   0  0  0  0  0  0  0  0  0  0  0  0
    7.3530    3.1250  -60.3220 C   0  0  0  0  0  0  0  0  0  0  0  0
    6.1500    2.5770  -61.0330 C   0  0  0  0  0  0  0  0  0  0  0  0
    6.0440    2.6630  -62.4300 C   0  0  0  0  0  0  0  0  0  0  0  0
    4.9280    2.1550  -63.1030 C   0  0  0  0  0  0  0  0  0  0  0  0
    3.9040    1.5450  -62.3850 C   0  0  0  0  0  0  0  0  0  0  0  0
    2.5310    0.9200  -63.2110 Cl  0  0  0  0  0  0  0  0  0  0  0  0
    3.9910    1.4340  -61.0020 C   0  0  0  0  0  0  0  0  0  0  0  0
    5.1090    1.9420  -60.3330 C   0  0  0  0  0  0  0  0  0  0  0  0
    8.5400    2.9320  -60.9490 C   0  0  0  0  0  0  0  0  0  0  0  0
    9.9740    3.3910  -60.8370 C   0  0  0  0  0  0  0  0  0  0  0  0
   10.9820    3.2490  -60.0400 N   0  0  0  0  0  0  0  0  0  0  0  0
   10.9070    2.6780  -58.8140 C   0  0  0  0  0  0  0  0  0  0  0  0
   10.2800    1.5810  -58.3730 C   0  0  0  0  0  0  0  0  0  0  0  0
    9.9210    1.7670  -56.9120 C   0  0  2  0  0  0  0  0  0  0  0  0
    8.7210    2.7140  -56.9360 C   0  0  0  0  0  0  0  0  0  0  0  0
   11.0600    2.5430  -56.5030 N   0  0  0  0  0  0  0  0  0  0  0  0
   11.5000    3.3020  -57.5800 C   0  0  0  0  0  0  0  0  0  0  0  0
   12.1940    4.2980  -57.5030 O   0  0  0  0  0  0  0  0  0  0  0  0
    9.5680    0.5250  -56.0440 C   0  0  1  0  0  0  0  0  0  0  0  0
   10.7680    0.0360  -55.2190 C   0  0  0  0  0  0  0  0  0  0  0  0
    7.8719   -0.3668  -53.3407 H   0  0  0  0  0  0  0  0  0  0  0  0
    6.7838   -0.7383  -54.7208 H   0  0  0  0  0  0  0  0  0  0  0  0
    8.4741   -1.3462  -54.7208 H   0  0  0  0  0  0  0  0  0  0  0  0
    8.6477    1.5075  -54.4104 H   0  0  0  0  0  0  0  0  0  0  0  0
    6.2420    0.6806  -55.9790 H   0  0  0  0  0  0  0  0  0  0  0  0
    6.6806    2.2680  -55.2085 H   0  0  0  0  0  0  0  0  0  0  0  0
    7.1946   -0.1021  -57.6019 H   0  0  0  0  0  0  0  0  0  0  0  0
    6.3830    0.9341  -58.8242 H   0  0  0  0  0  0  0  0  0  0  0  0
    8.1726    0.7788  -58.8242 H   0  0  0  0  0  0  0  0  0  0  0  0
    5.5096    2.6920  -58.1093 H   0  0  0  0  0  0  0  0  0  0  0  0
    6.3689    3.9065  -57.0172 H   0  0  0  0  0  0  0  0  0  0  0  0
    6.2875    4.6896  -59.3486 H   0  0  0  0  0  0  0  0  0  0  0  0
    8.0058    4.3167  -58.7330 H   0  0  0  0  0  0  0  0  0  0  0  0
    6.8523    3.1380  -63.0053 H   0  0  0  0  0  0  0  0  0  0  0  0
    4.8600    2.2376  -64.1978 H   0  0  0  0  0  0  0  0  0  0  0  0
    3.1829    0.9480  -60.4356 H   0  0  0  0  0  0  0  0  0  0  0  0
    5.1752    1.8430  -59.2395 H   0  0  0  0  0  0  0  0  0  0  0  0
    8.4232    2.2325  -61.7899 H   0  0  0  0  0  0  0  0  0  0  0  0
   10.2401    4.0385  -61.6855 H   0  0  0  0  0  0  0  0  0  0  0  0
   10.0602    0.6868  -58.9748 H   0  0  0  0  0  0  0  0  0  0  0  0
    8.6481    3.2011  -55.9524 H   0  0  0  0  0  0  0  0  0  0  0  0
    8.9001    3.4249  -57.7560 H   0  0  0  0  0  0  0  0  0  0  0  0
   11.1650    2.9600  -55.5880 H   0  0  0  0  0  0  0  0  0  0  0  0
    9.3123   -0.2834  -56.7448 H   0  0  0  0  0  0  0  0  0  0  0  0
   10.5386    0.1295  -54.1472 H   0  0  0  0  0  0  0  0  0  0  0  0
   10.9734   -1.0176  -55.4595 H   0  0  0  0  0  0  0  0  0  0  0  0
   11.6513    0.6459  -55.4595 H   0  0  0  0  0  0  0  0  0  0  0  0
  1  2  1  0
  2  3  1  0
  3  4  1  0
  4  5  1  6
  4  6  1  0
  6  7  1  0
  7  8  1  0
  8  9  1  0
  9 10  1  0
 10 11  2  0
 11 12  1  0
 12 13  1  0
 12 14  2  0
 14 15  1  0
  8 16  2  0
 16 17  1  0
 17 18  2  0
 18 19  1  0
 19 20  2  0
 20 21  1  0
 21 22  1  0
 21 23  1  1
 23 24  1  0
 24 25  2  0
 21 26  1  0
 26 27  1  0
 26  2  1  0
 22  4  1  0
 15  9  2  0
 24 19  1  0
  1 28  1  0
  1 29  1  0
  1 30  1  0
  2 31  1  1
  3 32  1  0
  3 33  1  0
  5 34  1  0
  5 35  1  0
  5 36  1  0
  6 37  1  0
  6 38  1  0
  7 39  1  0
  7 40  1  0
 10 41  1  0
 11 42  1  0
 14 43  1  0
 15 44  1  0
 16 45  1  0
 17 46  1  0
 20 47  1  0
 22 48  1  0
 22 49  1  0
 23 50  1  0
 26 51  1  6
 27 52  1  0
 27 53  1  0
 27 54  1  0
M  END
>  <meeko>  (142) 
{"is_sidechain": false}

$$$$

     RDKit          3D

 54 57  0  0  0  0  0  0  0  0999 V2000
    3.9150    0.7300  -60.2230 C   0  0  0  0  0  0  0  0  0  0  0  0
    5.0460    1.7670  -60.2650 C   0  0  2  0  0  0  0  0  0  0  0  0
    6.3170    1.1050  -60.8190 C   0  0  0  0  0  0  0  0  0  0  0  0
    7.4770    2.1110  -61.0770 C   0  0  2  0  0  0  0  0  0  0  0  0
    7.3390    2.6720  -62.5160 C   0  0  0  0  0  0  0  0  0  0  0  0
    8.8230    1.3020  -61.0170 C   0  0  0  0  0  0  0  0  0  0  0  0
   10.1770    2.0560  -60.9830 C   0  0  0  0  0  0  0  0  0  0  0  0
   10.6870    2.5030  -59.6100 C   0  0  0  0  0  0  0  0  0  0  0  0
   11.4180    3.7960  -59.5830 C   0  0  0  0  0  0  0  0  0  0  0  0
   12.7840    3.9110  -59.3070 C   0  0  0  0  0  0  0  0  0  0  0  0
   13.4190    5.1600  -59.2910 C   0  0  0  0  0  0  0  0  0  0  0  0
   12.6910    6.3130  -59.5580 C   0  0  0  0  0  0  0  0  0  0  0  0
   13.4680    7.8460  -59.5380 Cl  0  0  0  0  0  0  0  0  0  0  0  0
   11.3330    6.2280  -59.8420 C   0  0  0  0  0  0  0  0  0  0  0  0
   10.7040    4.9780  -59.8560 C   0  0  0  0  0  0  0  0  0  0  0  0
   10.5120    1.7080  -58.5360 C   0  0  0  0  0  0  0  0  0  0  0  0
   10.5540    2.0920  -57.1000 C   0  0  0  0  0  0  0  0  0  0  0  0
    9.5650    2.5610  -56.3980 N   0  0  0  0  0  0  0  0  0  0  0  0
    8.4150    2.8970  -57.0640 C   0  0  0  0  0  0  0  0  0  0  0  0
    7.6530    2.1770  -57.9010 C   0  0  0  0  0  0  0  0  0  0  0  0
    6.7150    3.0230  -58.7240 C   0  0  2  0  0  0  0  0  0  0  0  0
    7.3550    3.3160  -60.1070 C   0  0  0  0  0  0  0  0  0  0  0  0
    6.7550    4.2320  -57.9360 N   0  0  0  0  0  0  0  0  0  0  0  0
    7.8300    4.2680  -57.0790 C   0  0  0  0  0  0  0  0  0  0  0  0
    8.2260    5.2530  -56.4840 O   0  0  0  0  0  0  0  0  0  0  0  0
    5.2880    2.4070  -58.8610 C   0  0  1  0  0  0  0  0  0  0  0  0
    4.1680    3.4220  -58.5670 C   0  0  0  0  0  0  0  0  0  0  0  0
    3.6658    0.5015  -59.1763 H   0  0  0  0  0  0  0  0  0  0  0  0
    3.0274    1.1347  -60.7313 H   0  0  0  0  0  0  0  0  0  0  0  0
    4.2414   -0.1893  -60.7313 H   0  0  0  0  0  0  0  0  0  0  0  0
    4.7559    2.5907  -60.9339 H   0  0  0  0  0  0  0  0  0  0  0  0
    6.6625    0.3530  -60.0943 H   0  0  0  0  0  0  0  0  0  0  0  0
    6.0535    0.6580  -61.7889 H   0  0  0  0  0  0  0  0  0  0  0  0
    7.0765    3.7392  -62.4699 H   0  0  0  0  0  0  0  0  0  0  0  0
    8.2935    2.5519  -63.0495 H   0  0  0  0  0  0  0  0  0  0  0  0
    6.5492    2.1228  -63.0495 H   0  0  0  0  0  0  0  0  0  0  0  0
    8.7813    0.6822  -60.1092 H   0  0  0  0  0  0  0  0  0  0  0  0
    8.8480    0.7787  -61.9842 H   0  0  0  0  0  0  0  0  0  0  0  0
   10.9378    1.3926  -61.4202 H   0  0  0  0  0  0  0  0  0  0  0  0
   10.0004    2.9877  -61.5404 H   0  0  0  0  0  0  0  0  0  0  0  0
   13.3709    3.0043  -59.0986 H   0  0  0  0  0  0  0  0  0  0  0  0
   14.4938    5.2277  -59.0671 H   0  0  0  0  0  0  0  0  0  0  0  0
   10.7552    7.1395  -60.0549 H   0  0  0  0  0  0  0  0  0  0  0  0
    9.6298    4.9179  -60.0850 H   0  0  0  0  0  0  0  0  0  0  0  0
   10.3142    0.6467  -58.7471 H   0  0  0  0  0  0  0  0  0  0  0  0
   11.5157    1.9671  -56.5809 H   0  0  0  0  0  0  0  0  0  0  0  0
    7.7071    1.0811  -57.9789 H   0  0  0  0  0  0  0  0  0  0  0  0
    6.7443    4.0849  -60.6028 H   0  0  0  0  0  0  0  0  0  0  0  0
    8.3885    3.6257  -59.8924 H   0  0  0  0  0  0  0  0  0  0  0  0
    6.3290    5.1090  -58.2030 H   0  0  0  0  0  0  0  0  0  0  0  0
    5.2483    1.6151  -58.0986 H   0  0  0  0  0  0  0  0  0  0  0  0
    4.0480    3.5307  -57.4790 H   0  0  0  0  0  0  0  0  0  0  0  0
    4.4311    4.3957  -59.0060 H   0  0  0  0  0  0  0  0  0  0  0  0
    3.2248    3.0647  -59.0060 H   0  0  0  0  0  0  0  0  0  0  0  0
  1  2  1  0
  2  3  1  0
  3  4  1  0
  4  5  1  6
  4  6  1  0
  6  7  1  0
  7  8  1  0
  8  9  1  0
  9 10  1  0
 10 11  2  0
 11 12  1  0
 12 13  1  0
 12 14  2  0
 14 15  1  0
  8 16  2  0
 16 17  1  0
 17 18  2  0
 18 19  1  0
 19 20  2  0
 20 21  1  0
 21 22  1  0
 21 23  1  1
 23 24  1  0
 24 25  2  0
 21 26  1  0
 26 27  1  0
 26  2  1  0
 22  4  1  0
 15  9  2  0
 24 19  1  0
  1 28  1  0
  1 29  1  0
  1 30  1  0
  2 31  1  6
  3 32  1  0
  3 33  1  0
  5 34  1  0
  5 35  1  0
  5 36  1  0
  6 37  1  0
  6 38  1  0
  7 39  1  0
  7 40  1  0
 10 41  1  0
 11 42  1  0
 14 43  1  0
 15 44  1  0
 16 45  1  0
 17 46  1  0
 20 47  1  0
 22 48  1  0
 22 49  1  0
 23 50  1  0
 26 51  1  1
 27 52  1  0
 27 53  1  0
 27 54  1  0
M  END
>  <meeko>  (143) 
{"is_sidechain": false}

$$$$

     RDKit          3D

 54 57  0  0  0  0  0  0  0  0999 V2000
   12.4610    4.6480  -59.4730 C   0  0  0  0  0  0  0  0  0  0  0  0
   10.9900    4.7550  -59.8920 C   0  0  2  0  0  0  0  0  0  0  0  0
   10.1080    5.2700  -58.6990 C   0  0  0  0  0  0  0  0  0  0  0  0
    9.5500    4.2020  -57.7010 C   0  0  1  0  0  0  0  0  0  0  0  0
   10.4620    4.1440  -56.4570 C   0  0  0  0  0  0  0  0  0  0  0  0
    8.0930    4.5870  -57.2230 C   0  0  0  0  0  0  0  0  0  0  0  0
    7.3260    3.6600  -56.2150 C   0  0  0  0  0  0  0  0  0  0  0  0
    6.8480    2.2870  -56.7060 C   0  0  0  0  0  0  0  0  0  0  0  0
    7.2280    1.1200  -55.8730 C   0  0  0  0  0  0  0  0  0  0  0  0
    8.5810    0.9280  -55.5490 C   0  0  0  0  0  0  0  0  0  0  0  0
    8.9880   -0.1580  -54.7680 C   0  0  0  0  0  0  0  0  0  0  0  0
    8.0440   -1.0650  -54.2990 C   0  0  0  0  0  0  0  0  0  0  0  0
    8.5410   -2.4010  -53.3400 Cl  0  0  0  0  0  0  0  0  0  0  0  0
    6.6970   -0.8920  -54.6040 C   0  0  0  0  0  0  0  0  0  0  0  0
    6.2920    0.1950  -55.3860 C   0  0  0  0  0  0  0  0  0  0  0  0
    6.1180    2.1800  -57.8330 C   0  0  0  0  0  0  0  0  0  0  0  0
    5.9060    0.9230  -58.6290 C   0  0  0  0  0  0  0  0  0  0  0  0
    6.4800    0.5990  -59.7590 N   0  0  0  0  0  0  0  0  0  0  0  0
    7.3520    1.5350  -60.2560 C   0  0  0  0  0  0  0  0  0  0  0  0
    8.6950    1.4970  -60.1820 C   0  0  0  0  0  0  0  0  0  0  0  0
    9.2530    2.8780  -59.9110 C   0  0  2  0  0  0  0  0  0  0  0  0
    9.5770    2.8430  -58.3930 C   0  0  0  0  0  0  0  0  0  0  0  0
    8.1190    3.6780  -60.2910 N   0  0  0  0  0  0  0  0  0  0  0  0
    6.9950    2.9480  -60.5460 C   0  0  0  0  0  0  0  0  0  0  0  0
    5.9110    3.3940  -60.8700 O   0  0  0  0  0  0  0  0  0  0  0  0
   10.5300    3.4080  -60.5760 C   0  0  1  0  0  0  0  0  0  0  0  0
   10.4140    3.5690  -62.0960 C   0  0  0  0  0  0  0  0  0  0  0  0
   12.5301    4.6430  -58.3752 H   0  0  0  0  0  0  0  0  0  0  0  0
   12.8890    3.7164  -59.8716 H   0  0  0  0  0  0  0  0  0  0  0  0
   13.0193    5.5079  -59.8716 H   0  0  0  0  0  0  0  0  0  0  0  0
   10.8524    5.5235  -60.6669 H   0  0  0  0  0  0  0  0  0  0  0  0
   10.7191    5.9765  -58.1181 H   0  0  0  0  0  0  0  0  0  0  0  0
    9.2157    5.7020  -59.1756 H   0  0  0  0  0  0  0  0  0  0  0  0
    9.8445    4.1833  -55.5475 H   0  0  0  0  0  0  0  0  0  0  0  0
   11.0387    3.2074  -56.4685 H   0  0  0  0  0  0  0  0  0  0  0  0
   11.1527    5.0000  -56.4685 H   0  0  0  0  0  0  0  0  0  0  0  0
    8.1654    5.5779  -56.7508 H   0  0  0  0  0  0  0  0  0  0  0  0
    7.4961    4.5072  -58.1435 H   0  0  0  0  0  0  0  0  0  0  0  0
    7.9956    3.4847  -55.3601 H   0  0  0  0  0  0  0  0  0  0  0  0
    6.3974    4.2077  -55.9965 H   0  0  0  0  0  0  0  0  0  0  0  0
    9.3322    1.6431  -55.9154 H   0  0  0  0  0  0  0  0  0  0  0  0
   10.0521   -0.2946  -54.5252 H   0  0  0  0  0  0  0  0  0  0  0  0
    5.9515   -1.6094  -54.2304 H   0  0  0  0  0  0  0  0  0  0  0  0
    5.2257    0.3263  -55.6222 H   0  0  0  0  0  0  0  0  0  0  0  0
    5.6334    3.0951  -58.2041 H   0  0  0  0  0  0  0  0  0  0  0  0
    5.1904    0.1964  -58.2166 H   0  0  0  0  0  0  0  0  0  0  0  0
    9.3032    0.5883  -60.3018 H   0  0  0  0  0  0  0  0  0  0  0  0
    8.8383    2.1936  -57.9005 H   0  0  0  0  0  0  0  0  0  0  0  0
   10.6087    2.4717  -58.3054 H   0  0  0  0  0  0  0  0  0  0  0  0
    8.1110    4.6760  -60.4480 H   0  0  0  0  0  0  0  0  0  0  0  0
   11.3025    2.6407  -60.4194 H   0  0  0  0  0  0  0  0  0  0  0  0
    9.7851    4.4419  -62.3253 H   0  0  0  0  0  0  0  0  0  0  0  0
   11.4155    3.7154  -62.5267 H   0  0  0  0  0  0  0  0  0  0  0  0
    9.9581    2.6653  -62.5267 H   0  0  0  0  0  0  0  0  0  0  0  0
  1  2  1  0
  2  3  1  0
  3  4  1  0
  4  5  1  1
  4  6  1  0
  6  7  1  0
  7  8  1  0
  8  9  1  0
  9 10  1  0
 10 11  2  0
 11 12  1  0
 12 13  1  0
 12 14  2  0
 14 15  1  0
  8 16  2  0
 16 17  1  0
 17 18  2  0
 18 19  1  0
 19 20  2  0
 20 21  1  0
 21 22  1  0
 21 23  1  1
 23 24  1  0
 24 25  2  0
 21 26  1  0
 26 27  1  0
 26  2  1  0
 22  4  1  0
 15  9  2  0
 24 19  1  0
  1 28  1  0
  1 29  1  0
  1 30  1  0
  2 31  1  6
  3 32  1  0
  3 33  1  0
  5 34  1  0
  5 35  1  0
  5 36  1  0
  6 37  1  0
  6 38  1  0
  7 39  1  0
  7 40  1  0
 10 41  1  0
 11 42  1  0
 14 43  1  0
 15 44  1  0
 16 45  1  0
 17 46  1  0
 20 47  1  0
 22 48  1  0
 22 49  1  0
 23 50  1  0
 26 51  1  6
 27 52  1  0
 27 53  1  0
 27 54  1  0
M  END
>  <meeko>  (144) 
{"is_sidechain": false}

$$$$

     RDKit          3D

 54 57  0  0  0  0  0  0  0  0999 V2000
    9.9430    3.4370  -61.7640 C   0  0  0  0  0  0  0  0  0  0  0  0
    8.9960    3.6260  -60.5700 C   0  0  2  0  0  0  0  0  0  0  0  0
    9.8360    3.5450  -59.2620 C   0  0  0  0  0  0  0  0  0  0  0  0
    8.9940    3.8450  -58.0160 C   0  0  2  0  0  0  0  0  0  0  0  0
    8.5450    5.3200  -58.0100 C   0  0  0  0  0  0  0  0  0  0  0  0
    9.7180    3.5490  -56.6350 C   0  0  0  0  0  0  0  0  0  0  0  0
    9.9720    2.1090  -56.1430 C   0  0  0  0  0  0  0  0  0  0  0  0
    9.1180    1.1720  -55.6330 C   0  0  0  0  0  0  0  0  0  0  0  0
    9.7070   -0.1330  -55.2440 C   0  0  0  0  0  0  0  0  0  0  0  0
   10.7540   -0.6750  -56.0010 C   0  0  0  0  0  0  0  0  0  0  0  0
   11.3320   -1.8950  -55.6380 C   0  0  0  0  0  0  0  0  0  0  0  0
   10.8670   -2.5720  -54.5120 C   0  0  0  0  0  0  0  0  0  0  0  0
   11.5780   -4.0730  -54.0640 Cl  0  0  0  0  0  0  0  0  0  0  0  0
    9.8330   -2.0410  -53.7450 C   0  0  0  0  0  0  0  0  0  0  0  0
    9.2550   -0.8220  -54.1080 C   0  0  0  0  0  0  0  0  0  0  0  0
    7.6640    1.3900  -55.5490 C   0  0  0  0  0  0  0  0  0  0  0  0
    6.7440    0.6190  -56.1770 C   0  0  0  0  0  0  0  0  0  0  0  0
    5.5540    1.1840  -56.6080 N   0  0  0  0  0  0  0  0  0  0  0  0
    5.5100    1.4870  -57.8810 C   0  0  0  0  0  0  0  0  0  0  0  0
    6.4480    1.1140  -59.0010 C   0  0  0  0  0  0  0  0  0  0  0  0
    6.9690    2.5690  -59.2950 C   0  0  2  0  0  0  0  0  0  0  0  0
    7.8010    2.9280  -58.0590 C   0  0  0  0  0  0  0  0  0  0  0  0
    5.7020    3.3080  -59.2890 N   0  0  0  0  0  0  0  0  0  0  0  0
    4.7940    2.7400  -58.3850 C   0  0  0  0  0  0  0  0  0  0  0  0
    3.7190    3.1630  -58.0320 O   0  0  0  0  0  0  0  0  0  0  0  0
    7.8200    2.5950  -60.5930 C   0  0  1  0  0  0  0  0  0  0  0  0
    6.9440    2.7450  -61.8440 C   0  0  0  0  0  0  0  0  0  0  0  0
   10.9599    3.2341  -61.3969 H   0  0  0  0  0  0  0  0  0  0  0  0
    9.5979    2.5900  -62.3752 H   0  0  0  0  0  0  0  0  0  0  0  0
    9.9495    4.3516  -62.3752 H   0  0  0  0  0  0  0  0  0  0  0  0
    8.5168    4.6145  -60.6269 H   0  0  0  0  0  0  0  0  0  0  0  0
   10.2547    2.5318  -59.1716 H   0  0  0  0  0  0  0  0  0  0  0  0
   10.6319    4.3019  -59.3232 H   0  0  0  0  0  0  0  0  0  0  0  0
    8.4394    5.6669  -56.9715 H   0  0  0  0  0  0  0  0  0  0  0  0
    9.2969    5.9343  -58.5271 H   0  0  0  0  0  0  0  0  0  0  0  0
    7.5784    5.4112  -58.5271 H   0  0  0  0  0  0  0  0  0  0  0  0
   10.7035    4.0342  -56.6926 H   0  0  0  0  0  0  0  0  0  0  0  0
    8.9852    3.9198  -55.9032 H   0  0  0  0  0  0  0  0  0  0  0  0
   11.0193    1.7805  -56.2150 H   0  0  0  0  0  0  0  0  0  0  0  0
   11.1235   -0.1372  -56.8865 H   0  0  0  0  0  0  0  0  0  0  0  0
   12.1504   -2.3189  -56.2385 H   0  0  0  0  0  0  0  0  0  0  0  0
    9.4725   -2.5796  -52.8562 H   0  0  0  0  0  0  0  0  0  0  0  0
    8.4412   -0.4000  -53.5001 H   0  0  0  0  0  0  0  0  0  0  0  0
    7.3027    2.2308  -54.9387 H   0  0  0  0  0  0  0  0  0  0  0  0
    6.9405   -0.4503  -56.3441 H   0  0  0  0  0  0  0  0  0  0  0  0
    7.2500    0.4368  -58.6722 H   0  0  0  0  0  0  0  0  0  0  0  0
    6.0139    0.5625  -59.8480 H   0  0  0  0  0  0  0  0  0  0  0  0
    7.0826    3.3607  -57.3471 H   0  0  0  0  0  0  0  0  0  0  0  0
    8.3067    1.9650  -57.8951 H   0  0  0  0  0  0  0  0  0  0  0  0
    5.5920    4.2830  -59.5390 H   0  0  0  0  0  0  0  0  0  0  0  0
    8.3084    1.6105  -60.6404 H   0  0  0  0  0  0  0  0  0  0  0  0
    5.9014    2.9235  -61.5423 H   0  0  0  0  0  0  0  0  0  0  0  0
    7.3029    3.5948  -62.4432 H   0  0  0  0  0  0  0  0  0  0  0  0
    6.9998    1.8242  -62.4432 H   0  0  0  0  0  0  0  0  0  0  0  0
  1  2  1  0
  2  3  1  0
  3  4  1  0
  4  5  1  1
  4  6  1  0
  6  7  1  0
  7  8  2  0
  8  9  1  0
  9 10  1  0
 10 11  2  0
 11 12  1  0
 12 13  1  0
 12 14  2  0
 14 15  1  0
  8 16  1  0
 16 17  2  0
 17 18  1  0
 18 19  2  0
 19 20  1  0
 20 21  1  0
 21 22  1  0
 21 23  1  6
 23 24  1  0
 24 25  2  0
 21 26  1  0
 26 27  1  0
 26  2  1  0
 22  4  1  0
 15  9  2  0
 24 19  1  0
  1 28  1  0
  1 29  1  0
  1 30  1  0
  2 31  1  6
  3 32  1  0
  3 33  1  0
  5 34  1  0
  5 35  1  0
  5 36  1  0
  6 37  1  0
  6 38  1  0
  7 39  1  0
 10 40  1  0
 11 41  1  0
 14 42  1  0
 15 43  1  0
 16 44  1  0
 17 45  1  0
 20 46  1  0
 20 47  1  0
 22 48  1  0
 22 49  1  0
 23 50  1  0
 26 51  1  6
 27 52  1  0
 27 53  1  0
 27 54  1  0
M  END
>  <meeko>  (145) 
{"is_sidechain": false}

$$$$

     RDKit          3D

 54 57  0  0  0  0  0  0  0  0999 V2000
    5.1310   -4.2470  -50.6120 C   0  0  0  0  0  0  0  0  0  0  0  0
    6.2700   -3.3060  -51.0230 C   0  0  2  0  0  0  0  0  0  0  0  0
    5.6520   -2.0310  -51.7110 C   0  0  0  0  0  0  0  0  0  0  0  0
    6.5430   -1.4140  -52.8270 C   0  0  1  0  0  0  0  0  0  0  0  0
    6.1300   -2.1220  -54.1410 C   0  0  0  0  0  0  0  0  0  0  0  0
    6.3210    0.1280  -53.0560 C   0  0  0  0  0  0  0  0  0  0  0  0
    6.6340    0.7200  -54.4390 C   0  0  0  0  0  0  0  0  0  0  0  0
    7.7540    0.7200  -55.2080 C   0  0  0  0  0  0  0  0  0  0  0  0
    7.6480    1.3240  -56.5570 C   0  0  0  0  0  0  0  0  0  0  0  0
    8.7670    1.9010  -57.1780 C   0  0  0  0  0  0  0  0  0  0  0  0
    8.6540    2.4790  -58.4450 C   0  0  0  0  0  0  0  0  0  0  0  0
    7.4210    2.4880  -59.0930 C   0  0  0  0  0  0  0  0  0  0  0  0
    7.2810    3.2010  -60.6540 Cl  0  0  0  0  0  0  0  0  0  0  0  0
    6.2990    1.9260  -58.4870 C   0  0  0  0  0  0  0  0  0  0  0  0
    6.4120    1.3480  -57.2200 C   0  0  0  0  0  0  0  0  0  0  0  0
    9.0210    0.1860  -54.7420 C   0  0  0  0  0  0  0  0  0  0  0  0
    9.6440   -0.9240  -55.1860 C   0  0  0  0  0  0  0  0  0  0  0  0
   10.6420   -1.4800  -54.4170 N   0  0  0  0  0  0  0  0  0  0  0  0
   10.2780   -2.5040  -53.6960 C   0  0  0  0  0  0  0  0  0  0  0  0
    9.0310   -3.3440  -53.7560 C   0  0  0  0  0  0  0  0  0  0  0  0
    8.5080   -3.0460  -52.3260 C   0  0  2  0  0  0  0  0  0  0  0  0
    7.9660   -1.6060  -52.2600 C   0  0  0  0  0  0  0  0  0  0  0  0
    9.7640   -3.1220  -51.5560 N   0  0  0  0  0  0  0  0  0  0  0  0
   10.8650   -2.7490  -52.3170 C   0  0  0  0  0  0  0  0  0  0  0  0
   12.0110   -2.5980  -51.9690 O   0  0  0  0  0  0  0  0  0  0  0  0
    7.3950   -4.0360  -51.8480 C   0  0  1  0  0  0  0  0  0  0  0  0
    7.9720   -5.2490  -51.1030 C   0  0  0  0  0  0  0  0  0  0  0  0
    5.0729   -4.2950  -49.5146 H   0  0  0  0  0  0  0  0  0  0  0  0
    4.1795   -3.8681  -51.0133 H   0  0  0  0  0  0  0  0  0  0  0  0
    5.3236   -5.2529  -51.0133 H   0  0  0  0  0  0  0  0  0  0  0  0
    6.8120   -2.9609  -50.1302 H   0  0  0  0  0  0  0  0  0  0  0  0
    4.6867   -2.3131  -52.1567 H   0  0  0  0  0  0  0  0  0  0  0  0
    5.5519   -1.2659  -50.9271 H   0  0  0  0  0  0  0  0  0  0  0  0
    5.5888   -3.0497  -53.9032 H   0  0  0  0  0  0  0  0  0  0  0  0
    5.4781   -1.4570  -54.7265 H   0  0  0  0  0  0  0  0  0  0  0  0
    7.0297   -2.3621  -54.7265 H   0  0  0  0  0  0  0  0  0  0  0  0
    5.2617    0.3375  -52.8461 H   0  0  0  0  0  0  0  0  0  0  0  0
    7.0531    0.6058  -52.3884 H   0  0  0  0  0  0  0  0  0  0  0  0
    5.7840    1.2476  -54.8964 H   0  0  0  0  0  0  0  0  0  0  0  0
    9.7393    1.8980  -56.6636 H   0  0  0  0  0  0  0  0  0  0  0  0
    9.5353    2.9252  -58.9289 H   0  0  0  0  0  0  0  0  0  0  0  0
    5.3282    1.9374  -59.0041 H   0  0  0  0  0  0  0  0  0  0  0  0
    5.5256    0.9087  -56.7390 H   0  0  0  0  0  0  0  0  0  0  0  0
    9.5263    0.7466  -53.9417 H   0  0  0  0  0  0  0  0  0  0  0  0
    9.3599   -1.3781  -56.1467 H   0  0  0  0  0  0  0  0  0  0  0  0
    8.3341   -3.0018  -54.5353 H   0  0  0  0  0  0  0  0  0  0  0  0
    9.1729   -4.4051  -54.0091 H   0  0  0  0  0  0  0  0  0  0  0  0
    7.9574   -1.2934  -51.2054 H   0  0  0  0  0  0  0  0  0  0  0  0
    8.6314   -0.9995  -52.8920 H   0  0  0  0  0  0  0  0  0  0  0  0
    9.8350   -3.0920  -50.5460 H   0  0  0  0  0  0  0  0  0  0  0  0
    6.9146   -4.4315  -52.7550 H   0  0  0  0  0  0  0  0  0  0  0  0
    7.8937   -5.0843  -50.0182 H   0  0  0  0  0  0  0  0  0  0  0  0
    7.4067   -6.1515  -51.3786 H   0  0  0  0  0  0  0  0  0  0  0  0
    9.0288   -5.3799  -51.3786 H   0  0  0  0  0  0  0  0  0  0  0  0
  1  2  1  0
  2  3  1  0
  3  4  1  0
  4  5  1  6
  4  6  1  0
  6  7  1  0
  7  8  2  0
  8  9  1  0
  9 10  1  0
 10 11  2  0
 11 12  1  0
 12 13  1  0
 12 14  2  0
 14 15  1  0
  8 16  1  0
 16 17  2  0
 17 18  1  0
 18 19  2  0
 19 20  1  0
 20 21  1  0
 21 22  1  0
 21 23  1  1
 23 24  1  0
 24 25  2  0
 21 26  1  0
 26 27  1  0
 26  2  1  0
 22  4  1  0
 15  9  2  0
 24 19  1  0
  1 28  1  0
  1 29  1  0
  1 30  1  0
  2 31  1  1
  3 32  1  0
  3 33  1  0
  5 34  1  0
  5 35  1  0
  5 36  1  0
  6 37  1  0
  6 38  1  0
  7 39  1  0
 10 40  1  0
 11 41  1  0
 14 42  1  0
 15 43  1  0
 16 44  1  0
 17 45  1  0
 20 46  1  0
 20 47  1  0
 22 48  1  0
 22 49  1  0
 23 50  1  0
 26 51  1  6
 27 52  1  0
 27 53  1  0
 27 54  1  0
M  END
>  <meeko>  (146) 
{"is_sidechain": false}

$$$$

     RDKit          3D

 54 57  0  0  0  0  0  0  0  0999 V2000
   11.9750    6.0110  -58.7230 C   0  0  0  0  0  0  0  0  0  0  0  0
   11.3610    4.7920  -59.4260 C   0  0  2  0  0  0  0  0  0  0  0  0
    9.8480    5.0050  -59.5970 C   0  0  0  0  0  0  0  0  0  0  0  0
    9.0820    3.7620  -60.1190 C   0  0  2  0  0  0  0  0  0  0  0  0
    9.4160    3.5900  -61.6240 C   0  0  0  0  0  0  0  0  0  0  0  0
    7.5240    4.0280  -60.0600 C   0  0  0  0  0  0  0  0  0  0  0  0
    6.9520    3.8870  -58.6690 C   0  0  0  0  0  0  0  0  0  0  0  0
    6.1090    2.9210  -58.2350 C   0  0  0  0  0  0  0  0  0  0  0  0
    5.3100    2.1740  -59.2400 C   0  0  0  0  0  0  0  0  0  0  0  0
    4.0320    2.6380  -59.5830 C   0  0  0  0  0  0  0  0  0  0  0  0
    3.2650    1.9600  -60.5340 C   0  0  0  0  0  0  0  0  0  0  0  0
    3.7740    0.8150  -61.1440 C   0  0  0  0  0  0  0  0  0  0  0  0
    2.8320   -0.0180  -62.3170 Cl  0  0  0  0  0  0  0  0  0  0  0  0
    5.0420    0.3420  -60.8130 C   0  0  0  0  0  0  0  0  0  0  0  0
    5.8090    1.0200  -59.8620 C   0  0  0  0  0  0  0  0  0  0  0  0
    6.3040    2.3390  -56.8890 C   0  0  0  0  0  0  0  0  0  0  0  0
    7.2330    2.7520  -56.0040 C   0  0  0  0  0  0  0  0  0  0  0  0
    8.1990    1.8260  -55.6780 N   0  0  0  0  0  0  0  0  0  0  0  0
    9.3450    2.0170  -56.2710 C   0  0  0  0  0  0  0  0  0  0  0  0
    9.9110    3.2410  -56.9430 C   0  0  0  0  0  0  0  0  0  0  0  0
   10.5560    2.6280  -58.2100 C   0  0  2  0  0  0  0  0  0  0  0  0
    9.5260    2.4510  -59.3670 C   0  0  0  0  0  0  0  0  0  0  0  0
   10.9940    1.3180  -57.6980 N   0  0  0  0  0  0  0  0  0  0  0  0
   10.2890    0.8830  -56.5930 C   0  0  0  0  0  0  0  0  0  0  0  0
   10.3660   -0.1840  -56.0310 O   0  0  0  0  0  0  0  0  0  0  0  0
   11.7670    3.4810  -58.6890 C   0  0  1  0  0  0  0  0  0  0  0  0
   12.7370    2.6910  -59.5910 C   0  0  0  0  0  0  0  0  0  0  0  0
   11.9080    5.8780  -57.6331 H   0  0  0  0  0  0  0  0  0  0  0  0
   13.0306    6.1102  -59.0161 H   0  0  0  0  0  0  0  0  0  0  0  0
   11.4263    6.9182  -59.0161 H   0  0  0  0  0  0  0  0  0  0  0  0
   11.7627    4.6791  -60.4438 H   0  0  0  0  0  0  0  0  0  0  0  0
    9.4270    5.2834  -58.6196 H   0  0  0  0  0  0  0  0  0  0  0  0
    9.7251    5.7916  -60.3561 H   0  0  0  0  0  0  0  0  0  0  0  0
   10.3895    3.0887  -61.7286 H   0  0  0  0  0  0  0  0  0  0  0  0
    8.6365    2.9812  -62.1053 H   0  0  0  0  0  0  0  0  0  0  0  0
    9.4589    4.5782  -62.1053 H   0  0  0  0  0  0  0  0  0  0  0  0
    7.3294    5.0502  -60.4168 H   0  0  0  0  0  0  0  0  0  0  0  0
    7.0375    3.2716  -60.6934 H   0  0  0  0  0  0  0  0  0  0  0  0
    7.2514    4.6477  -57.9330 H   0  0  0  0  0  0  0  0  0  0  0  0
    3.6308    3.5414  -59.1004 H   0  0  0  0  0  0  0  0  0  0  0  0
    2.2633    2.3286  -60.8002 H   0  0  0  0  0  0  0  0  0  0  0  0
    5.4379   -0.5621  -61.2987 H   0  0  0  0  0  0  0  0  0  0  0  0
    6.8099    0.6466  -59.5996 H   0  0  0  0  0  0  0  0  0  0  0  0
    5.6446    1.5111  -56.5894 H   0  0  0  0  0  0  0  0  0  0  0  0
    7.2204    3.7628  -55.5704 H   0  0  0  0  0  0  0  0  0  0  0  0
    9.1192    3.9591  -57.2026 H   0  0  0  0  0  0  0  0  0  0  0  0
   10.6105    3.8134  -56.3161 H   0  0  0  0  0  0  0  0  0  0  0  0
    9.9716    1.7738  -60.1105 H   0  0  0  0  0  0  0  0  0  0  0  0
    8.6133    2.0666  -58.8882 H   0  0  0  0  0  0  0  0  0  0  0  0
   11.5370    0.6400  -58.2190 H   0  0  0  0  0  0  0  0  0  0  0  0
   12.2776    3.7535  -57.7536 H   0  0  0  0  0  0  0  0  0  0  0  0
   13.4379    2.1202  -58.9642 H   0  0  0  0  0  0  0  0  0  0  0  0
   12.1653    1.9983  -60.2261 H   0  0  0  0  0  0  0  0  0  0  0  0
   13.2996    3.3911  -60.2261 H   0  0  0  0  0  0  0  0  0  0  0  0
  1  2  1  0
  2  3  1  0
  3  4  1  0
  4  5  1  6
  4  6  1  0
  6  7  1  0
  7  8  2  0
  8  9  1  0
  9 10  1  0
 10 11  2  0
 11 12  1  0
 12 13  1  0
 12 14  2  0
 14 15  1  0
  8 16  1  0
 16 17  2  0
 17 18  1  0
 18 19  2  0
 19 20  1  0
 20 21  1  0
 21 22  1  0
 21 23  1  1
 23 24  1  0
 24 25  2  0
 21 26  1  0
 26 27  1  0
 26  2  1  0
 22  4  1  0
 15  9  2  0
 24 19  1  0
  1 28  1  0
  1 29  1  0
  1 30  1  0
  2 31  1  6
  3 32  1  0
  3 33  1  0
  5 34  1  0
  5 35  1  0
  5 36  1  0
  6 37  1  0
  6 38  1  0
  7 39  1  0
 10 40  1  0
 11 41  1  0
 14 42  1  0
 15 43  1  0
 16 44  1  0
 17 45  1  0
 20 46  1  0
 20 47  1  0
 22 48  1  0
 22 49  1  0
 23 50  1  0
 26 51  1  1
 27 52  1  0
 27 53  1  0
 27 54  1  0
M  END
>  <meeko>  (147) 
{"is_sidechain": false}

$$$$

     RDKit          3D

 54 57  0  0  0  0  0  0  0  0999 V2000
   10.4060    1.7770  -60.9760 C   0  0  0  0  0  0  0  0  0  0  0  0
    9.4950    2.6080  -60.0650 C   0  0  2  0  0  0  0  0  0  0  0  0
    9.9450    2.4470  -58.6000 C   0  0  0  0  0  0  0  0  0  0  0  0
    9.1690    3.3770  -57.6180 C   0  0  2  0  0  0  0  0  0  0  0  0
    9.9070    4.7410  -57.5600 C   0  0  0  0  0  0  0  0  0  0  0  0
    9.0760    2.8580  -56.1200 C   0  0  0  0  0  0  0  0  0  0  0  0
    9.4860    1.4350  -55.8910 C   0  0  0  0  0  0  0  0  0  0  0  0
    8.7970    0.3840  -55.4030 C   0  0  0  0  0  0  0  0  0  0  0  0
    9.5980   -0.8710  -55.3510 C   0  0  0  0  0  0  0  0  0  0  0  0
    9.1710   -1.9650  -54.5820 C   0  0  0  0  0  0  0  0  0  0  0  0
    9.9240   -3.1400  -54.5500 C   0  0  0  0  0  0  0  0  0  0  0  0
   11.1020   -3.2270  -55.2900 C   0  0  0  0  0  0  0  0  0  0  0  0
   12.0310   -4.6750  -55.2500 Cl  0  0  0  0  0  0  0  0  0  0  0  0
   11.5330   -2.1510  -56.0640 C   0  0  0  0  0  0  0  0  0  0  0  0
   10.7810   -0.9740  -56.0960 C   0  0  0  0  0  0  0  0  0  0  0  0
    7.4600    0.3470  -54.8340 C   0  0  0  0  0  0  0  0  0  0  0  0
    6.2200    0.7710  -55.1080 C   0  0  0  0  0  0  0  0  0  0  0  0
    5.5630    1.5110  -56.0390 N   0  0  0  0  0  0  0  0  0  0  0  0
    5.8350    1.6540  -57.2900 C   0  0  0  0  0  0  0  0  0  0  0  0
    6.9550    1.1970  -58.1500 C   0  0  0  0  0  0  0  0  0  0  0  0
    7.1310    2.4910  -58.9940 C   0  0  2  0  0  0  0  0  0  0  0  0
    7.7560    3.6620  -58.1840 C   0  0  0  0  0  0  0  0  0  0  0  0
    5.7380    2.8410  -59.2660 N   0  0  0  0  0  0  0  0  0  0  0  0
    4.9530    2.5390  -58.1690 C   0  0  0  0  0  0  0  0  0  0  0  0
    3.8280    2.9130  -57.9380 O   0  0  0  0  0  0  0  0  0  0  0  0
    7.9920    2.2210  -60.2690 C   0  0  1  0  0  0  0  0  0  0  0  0
    7.4520    2.9450  -61.5160 C   0  0  0  0  0  0  0  0  0  0  0  0
   11.0792    1.1629  -60.3597 H   0  0  0  0  0  0  0  0  0  0  0  0
    9.7910    1.1224  -61.6110 H   0  0  0  0  0  0  0  0  0  0  0  0
   11.0015    2.4495  -61.6110 H   0  0  0  0  0  0  0  0  0  0  0  0
    9.5829    3.6710  -60.3340 H   0  0  0  0  0  0  0  0  0  0  0  0
    9.7819    1.4025  -58.2961 H   0  0  0  0  0  0  0  0  0  0  0  0
   11.0071    2.7286  -58.5495 H   0  0  0  0  0  0  0  0  0  0  0  0
   10.0629    5.0292  -56.5099 H   0  0  0  0  0  0  0  0  0  0  0  0
   10.8805    4.6529  -58.0645 H   0  0  0  0  0  0  0  0  0  0  0  0
    9.3007    5.5077  -58.0645 H   0  0  0  0  0  0  0  0  0  0  0  0
    9.7222    3.4981  -55.5014 H   0  0  0  0  0  0  0  0  0  0  0  0
    8.0093    2.9054  -55.8555 H   0  0  0  0  0  0  0  0  0  0  0  0
   10.5263    1.2096  -56.1683 H   0  0  0  0  0  0  0  0  0  0  0  0
    8.2389   -1.8961  -54.0020 H   0  0  0  0  0  0  0  0  0  0  0  0
    9.5890   -3.9940  -53.9431 H   0  0  0  0  0  0  0  0  0  0  0  0
   12.4621   -2.2283  -56.6477 H   0  0  0  0  0  0  0  0  0  0  0  0
   11.1185   -0.1247  -56.7082 H   0  0  0  0  0  0  0  0  0  0  0  0
    7.4702   -0.2005  -53.8800 H   0  0  0  0  0  0  0  0  0  0  0  0
    5.5164    0.4086  -54.3441 H   0  0  0  0  0  0  0  0  0  0  0  0
    7.8556    0.9559  -57.5662 H   0  0  0  0  0  0  0  0  0  0  0  0
    6.7771    0.2728  -58.7194 H   0  0  0  0  0  0  0  0  0  0  0  0
    7.8223    4.5386  -58.8451 H   0  0  0  0  0  0  0  0  0  0  0  0
    7.1005    3.8229  -57.3154 H   0  0  0  0  0  0  0  0  0  0  0  0
    5.4470    3.6360  -59.8220 H   0  0  0  0  0  0  0  0  0  0  0  0
    7.9210    1.1360  -60.4356 H   0  0  0  0  0  0  0  0  0  0  0  0
    6.8212    3.7907  -61.2046 H   0  0  0  0  0  0  0  0  0  0  0  0
    8.2944    3.3178  -62.1171 H   0  0  0  0  0  0  0  0  0  0  0  0
    6.8545    2.2438  -62.1171 H   0  0  0  0  0  0  0  0  0  0  0  0
  1  2  1  0
  2  3  1  0
  3  4  1  0
  4  5  1  1
  4  6  1  0
  6  7  1  0
  7  8  2  0
  8  9  1  0
  9 10  1  0
 10 11  2  0
 11 12  1  0
 12 13  1  0
 12 14  2  0
 14 15  1  0
  8 16  1  0
 16 17  2  0
 17 18  1  0
 18 19  2  0
 19 20  1  0
 20 21  1  0
 21 22  1  0
 21 23  1  6
 23 24  1  0
 24 25  2  0
 21 26  1  0
 26 27  1  0
 26  2  1  0
 22  4  1  0
 15  9  2  0
 24 19  1  0
  1 28  1  0
  1 29  1  0
  1 30  1  0
  2 31  1  6
  3 32  1  0
  3 33  1  0
  5 34  1  0
  5 35  1  0
  5 36  1  0
  6 37  1  0
  6 38  1  0
  7 39  1  0
 10 40  1  0
 11 41  1  0
 14 42  1  0
 15 43  1  0
 16 44  1  0
 17 45  1  0
 20 46  1  0
 20 47  1  0
 22 48  1  0
 22 49  1  0
 23 50  1  0
 26 51  1  6
 27 52  1  0
 27 53  1  0
 27 54  1  0
M  END
>  <meeko>  (148) 
{"is_sidechain": false}

$$$$

     RDKit          3D

 54 57  0  0  0  0  0  0  0  0999 V2000
   13.4600    5.6210  -59.4740 C   0  0  0  0  0  0  0  0  0  0  0  0
   12.9970    4.3190  -58.8100 C   0  0  2  0  0  0  0  0  0  0  0  0
   12.2520    3.3970  -59.8510 C   0  0  0  0  0  0  0  0  0  0  0  0
   10.7120    3.6150  -60.0210 C   0  0  1  0  0  0  0  0  0  0  0  0
   10.4460    4.4650  -61.2780 C   0  0  0  0  0  0  0  0  0  0  0  0
    9.9380    2.2700  -60.1550 C   0  0  0  0  0  0  0  0  0  0  0  0
    8.4490    2.1930  -60.4730 C   0  0  0  0  0  0  0  0  0  0  0  0
    7.2650    2.6430  -59.9810 C   0  0  0  0  0  0  0  0  0  0  0  0
    6.1010    2.1730  -60.7920 C   0  0  0  0  0  0  0  0  0  0  0  0
    5.1570    1.3120  -60.2150 C   0  0  0  0  0  0  0  0  0  0  0  0
    4.0570    0.8770  -60.9570 C   0  0  0  0  0  0  0  0  0  0  0  0
    3.8980    1.3060  -62.2740 C   0  0  0  0  0  0  0  0  0  0  0  0
    2.5430    0.7700  -63.1880 Cl  0  0  0  0  0  0  0  0  0  0  0  0
    4.8270    2.1660  -62.8560 C   0  0  0  0  0  0  0  0  0  0  0  0
    5.9290    2.6020  -62.1150 C   0  0  0  0  0  0  0  0  0  0  0  0
    6.9180    3.5220  -58.8550 C   0  0  0  0  0  0  0  0  0  0  0  0
    7.1640    3.4230  -57.5350 C   0  0  0  0  0  0  0  0  0  0  0  0
    7.9250    2.4480  -56.9740 N   0  0  0  0  0  0  0  0  0  0  0  0
    9.0960    2.7980  -56.5410 C   0  0  0  0  0  0  0  0  0  0  0  0
    9.7920    4.1400  -56.3910 C   0  0  0  0  0  0  0  0  0  0  0  0
   10.8790    3.8810  -57.4640 C   0  0  2  0  0  0  0  0  0  0  0  0
   10.2180    4.3430  -58.7960 C   0  0  0  0  0  0  0  0  0  0  0  0
   11.1720    2.4480  -57.2690 N   0  0  0  0  0  0  0  0  0  0  0  0
   10.1900    1.7730  -56.5920 C   0  0  0  0  0  0  0  0  0  0  0  0
   10.1850    0.6530  -56.1450 O   0  0  0  0  0  0  0  0  0  0  0  0
   12.2140    4.6450  -57.4720 C   0  0  1  0  0  0  0  0  0  0  0  0
   13.0930    4.4040  -56.2390 C   0  0  0  0  0  0  0  0  0  0  0  0
   13.7212    6.3556  -58.6980 H   0  0  0  0  0  0  0  0  0  0  0  0
   14.3417    5.4199  -60.1002 H   0  0  0  0  0  0  0  0  0  0  0  0
   12.6493    6.0217  -60.1002 H   0  0  0  0  0  0  0  0  0  0  0  0
   13.8556    3.7109  -58.4891 H   0  0  0  0  0  0  0  0  0  0  0  0
   12.7203    3.5600  -60.8329 H   0  0  0  0  0  0  0  0  0  0  0  0
   12.3530    2.3770  -59.4516 H   0  0  0  0  0  0  0  0  0  0  0  0
   10.1300    5.4749  -60.9776 H   0  0  0  0  0  0  0  0  0  0  0  0
   11.3662    4.5318  -61.8770 H   0  0  0  0  0  0  0  0  0  0  0  0
    9.6519    3.9953  -61.8770 H   0  0  0  0  0  0  0  0  0  0  0  0
   10.4467    1.7065  -60.9511 H   0  0  0  0  0  0  0  0  0  0  0  0
    9.9593    1.9017  -59.1187 H   0  0  0  0  0  0  0  0  0  0  0  0
    8.2821    1.5885  -61.3768 H   0  0  0  0  0  0  0  0  0  0  0  0
    5.2832    0.9781  -59.1745 H   0  0  0  0  0  0  0  0  0  0  0  0
    3.3189    0.1986  -60.5043 H   0  0  0  0  0  0  0  0  0  0  0  0
    4.6936    2.5007  -63.8953 H   0  0  0  0  0  0  0  0  0  0  0  0
    6.6626    3.2831  -62.5711 H   0  0  0  0  0  0  0  0  0  0  0  0
    6.3562    4.4229  -59.1427 H   0  0  0  0  0  0  0  0  0  0  0  0
    6.7211    4.1787  -56.8696 H   0  0  0  0  0  0  0  0  0  0  0  0
    9.1387    4.9880  -56.6443 H   0  0  0  0  0  0  0  0  0  0  0  0
   10.1375    4.4158  -55.3837 H   0  0  0  0  0  0  0  0  0  0  0  0
    9.1326    4.1834  -58.7151 H   0  0  0  0  0  0  0  0  0  0  0  0
   10.4866    5.4013  -58.9297 H   0  0  0  0  0  0  0  0  0  0  0  0
   12.0680    1.9990  -57.4130 H   0  0  0  0  0  0  0  0  0  0  0  0
   11.9654    5.7156  -57.4281 H   0  0  0  0  0  0  0  0  0  0  0  0
   12.4989    4.5669  -55.3277 H   0  0  0  0  0  0  0  0  0  0  0  0
   13.4679    3.3699  -56.2524 H   0  0  0  0  0  0  0  0  0  0  0  0
   13.9428    5.1023  -56.2524 H   0  0  0  0  0  0  0  0  0  0  0  0
  1  2  1  0
  2  3  1  0
  3  4  1  0
  4  5  1  6
  4  6  1  0
  6  7  1  0
  7  8  2  0
  8  9  1  0
  9 10  1  0
 10 11  2  0
 11 12  1  0
 12 13  1  0
 12 14  2  0
 14 15  1  0
  8 16  1  0
 16 17  2  0
 17 18  1  0
 18 19  2  0
 19 20  1  0
 20 21  1  0
 21 22  1  0
 21 23  1  6
 23 24  1  0
 24 25  2  0
 21 26  1  0
 26 27  1  0
 26  2  1  0
 22  4  1  0
 15  9  2  0
 24 19  1  0
  1 28  1  0
  1 29  1  0
  1 30  1  0
  2 31  1  1
  3 32  1  0
  3 33  1  0
  5 34  1  0
  5 35  1  0
  5 36  1  0
  6 37  1  0
  6 38  1  0
  7 39  1  0
 10 40  1  0
 11 41  1  0
 14 42  1  0
 15 43  1  0
 16 44  1  0
 17 45  1  0
 20 46  1  0
 20 47  1  0
 22 48  1  0
 22 49  1  0
 23 50  1  0
 26 51  1  6
 27 52  1  0
 27 53  1  0
 27 54  1  0
M  END
>  <meeko>  (149) 
{"is_sidechain": false}

$$$$

     RDKit          3D

 54 57  0  0  0  0  0  0  0  0999 V2000
   12.1440    2.0450  -56.8480 C   0  0  0  0  0  0  0  0  0  0  0  0
   11.1830    3.1100  -57.3920 C   0  0  2  0  0  0  0  0  0  0  0  0
    9.8450    3.0410  -56.6310 C   0  0  0  0  0  0  0  0  0  0  0  0
    8.8160    4.1000  -57.1030 C   0  0  2  0  0  0  0  0  0  0  0  0
    9.1870    5.4570  -56.4470 C   0  0  0  0  0  0  0  0  0  0  0  0
    7.3680    3.7620  -56.5870 C   0  0  0  0  0  0  0  0  0  0  0  0
    6.6140    2.7590  -57.4210 C   0  0  0  0  0  0  0  0  0  0  0  0
    6.4180    1.4440  -57.2040 C   0  0  0  0  0  0  0  0  0  0  0  0
    6.7610    0.8470  -55.8900 C   0  0  0  0  0  0  0  0  0  0  0  0
    5.7470    0.4750  -54.9940 C   0  0  0  0  0  0  0  0  0  0  0  0
    6.0650   -0.1050  -53.7640 C   0  0  0  0  0  0  0  0  0  0  0  0
    7.3990   -0.3290  -53.4290 C   0  0  0  0  0  0  0  0  0  0  0  0
    7.7920   -1.0420  -51.9140 Cl  0  0  0  0  0  0  0  0  0  0  0  0
    8.4160    0.0180  -54.3160 C   0  0  0  0  0  0  0  0  0  0  0  0
    8.0970    0.5980  -55.5460 C   0  0  0  0  0  0  0  0  0  0  0  0
    5.9040    0.5780  -58.2660 C   0  0  0  0  0  0  0  0  0  0  0  0
    6.0300    0.6360  -59.6040 C   0  0  0  0  0  0  0  0  0  0  0  0
    6.5390    1.5830  -60.4500 N   0  0  0  0  0  0  0  0  0  0  0  0
    7.7540    2.0270  -60.3850 C   0  0  0  0  0  0  0  0  0  0  0  0
    8.8690    1.7570  -59.4280 C   0  0  0  0  0  0  0  0  0  0  0  0
    9.5880    3.1390  -59.4460 C   0  0  2  0  0  0  0  0  0  0  0  0
    8.8790    4.2750  -58.6440 C   0  0  0  0  0  0  0  0  0  0  0  0
    9.4830    3.4870  -60.8650 N   0  0  0  0  0  0  0  0  0  0  0  0
    8.2820    3.0440  -61.3890 C   0  0  0  0  0  0  0  0  0  0  0  0
    7.7520    3.3960  -62.4170 O   0  0  0  0  0  0  0  0  0  0  0  0
   11.0530    2.9820  -58.9440 C   0  0  1  0  0  0  0  0  0  0  0  0
   12.0280    3.9750  -59.6030 C   0  0  0  0  0  0  0  0  0  0  0  0
   12.1273    2.0635  -55.7483 H   0  0  0  0  0  0  0  0  0  0  0  0
   11.8301    1.0523  -57.2028 H   0  0  0  0  0  0  0  0  0  0  0  0
   13.1637    2.2556  -57.2028 H   0  0  0  0  0  0  0  0  0  0  0  0
   11.5828    4.1192  -57.2141 H   0  0  0  0  0  0  0  0  0  0  0  0
    9.4103    2.0415  -56.7790 H   0  0  0  0  0  0  0  0  0  0  0  0
   10.0614    3.2461  -55.5722 H   0  0  0  0  0  0  0  0  0  0  0  0
    9.1591    5.3548  -55.3521 H   0  0  0  0  0  0  0  0  0  0  0  0
   10.1988    5.7521  -56.7620 H   0  0  0  0  0  0  0  0  0  0  0  0
    8.4661    6.2258  -56.7620 H   0  0  0  0  0  0  0  0  0  0  0  0
    7.4542    3.3613  -55.5662 H   0  0  0  0  0  0  0  0  0  0  0  0
    6.7953    4.6996  -56.6406 H   0  0  0  0  0  0  0  0  0  0  0  0
    6.1580    3.1579  -58.3391 H   0  0  0  0  0  0  0  0  0  0  0  0
    4.6934    0.6416  -55.2626 H   0  0  0  0  0  0  0  0  0  0  0  0
    5.2653   -0.3840  -53.0621 H   0  0  0  0  0  0  0  0  0  0  0  0
    9.4672   -0.1643  -54.0483 H   0  0  0  0  0  0  0  0  0  0  0  0
    8.9001    0.8614  -56.2500 H   0  0  0  0  0  0  0  0  0  0  0  0
    5.3076   -0.2730  -57.9053 H   0  0  0  0  0  0  0  0  0  0  0  0
    5.6473   -0.2562  -60.1212 H   0  0  0  0  0  0  0  0  0  0  0  0
    8.4934    1.5061  -58.4250 H   0  0  0  0  0  0  0  0  0  0  0  0
    9.5073    0.9011  -59.6927 H   0  0  0  0  0  0  0  0  0  0  0  0
    9.4127    5.2141  -58.8521 H   0  0  0  0  0  0  0  0  0  0  0  0
    7.8322    4.2597  -58.9816 H   0  0  0  0  0  0  0  0  0  0  0  0
    9.8580    4.3400  -61.2640 H   0  0  0  0  0  0  0  0  0  0  0  0
   11.3304    1.9606  -59.2435 H   0  0  0  0  0  0  0  0  0  0  0  0
   12.5711    4.5282  -58.8226 H   0  0  0  0  0  0  0  0  0  0  0  0
   12.7456    3.4239  -60.2286 H   0  0  0  0  0  0  0  0  0  0  0  0
   11.4638    4.6824  -60.2286 H   0  0  0  0  0  0  0  0  0  0  0  0
  1  2  1  0
  2  3  1  0
  3  4  1  0
  4  5  1  1
  4  6  1  0
  6  7  1  0
  7  8  2  0
  8  9  1  0
  9 10  1  0
 10 11  2  0
 11 12  1  0
 12 13  1  0
 12 14  2  0
 14 15  1  0
  8 16  1  0
 16 17  2  0
 17 18  1  0
 18 19  2  0
 19 20  1  0
 20 21  1  0
 21 22  1  0
 21 23  1  6
 23 24  1  0
 24 25  2  0
 21 26  1  0
 26 27  1  0
 26  2  1  0
 22  4  1  0
 15  9  2  0
 24 19  1  0
  1 28  1  0
  1 29  1  0
  1 30  1  0
  2 31  1  6
  3 32  1  0
  3 33  1  0
  5 34  1  0
  5 35  1  0
  5 36  1  0
  6 37  1  0
  6 38  1  0
  7 39  1  0
 10 40  1  0
 11 41  1  0
 14 42  1  0
 15 43  1  0
 16 44  1  0
 17 45  1  0
 20 46  1  0
 20 47  1  0
 22 48  1  0
 22 49  1  0
 23 50  1  0
 26 51  1  6
 27 52  1  0
 27 53  1  0
 27 54  1  0
M  END
>  <meeko>  (150) 
{"is_sidechain": false}

$$$$

     RDKit          3D

 54 57  0  0  0  0  0  0  0  0999 V2000
    7.3610   -0.2220  -54.7500 C   0  0  0  0  0  0  0  0  0  0  0  0
    7.9080    1.0660  -55.3760 C   0  0  2  0  0  0  0  0  0  0  0  0
    6.7100    1.8320  -56.1110 C   0  0  0  0  0  0  0  0  0  0  0  0
    7.1580    2.3820  -57.4810 C   0  0  1  0  0  0  0  0  0  0  0  0
    7.0530    1.1360  -58.4030 C   0  0  0  0  0  0  0  0  0  0  0  0
    6.3400    3.5170  -58.1990 C   0  0  0  0  0  0  0  0  0  0  0  0
    7.1950    4.0740  -59.3650 C   0  0  0  0  0  0  0  0  0  0  0  0
    7.4000    3.5160  -60.5780 C   0  0  0  0  0  0  0  0  0  0  0  0
    6.3080    2.7240  -61.2240 C   0  0  0  0  0  0  0  0  0  0  0  0
    6.2160    2.6200  -62.6230 C   0  0  0  0  0  0  0  0  0  0  0  0
    5.1720    1.9090  -63.2230 C   0  0  0  0  0  0  0  0  0  0  0  0
    4.1990    1.3080  -62.4290 C   0  0  0  0  0  0  0  0  0  0  0  0
    2.9150    0.4320  -63.1670 Cl  0  0  0  0  0  0  0  0  0  0  0  0
    4.2540    1.4210  -61.0430 C   0  0  0  0  0  0  0  0  0  0  0  0
    5.2990    2.1320  -60.4450 C   0  0  0  0  0  0  0  0  0  0  0  0
    8.6820    3.6690  -61.2890 C   0  0  0  0  0  0  0  0  0  0  0  0
    9.9700    3.7800  -60.9020 C   0  0  0  0  0  0  0  0  0  0  0  0
   10.5830    4.0450  -59.7060 N   0  0  0  0  0  0  0  0  0  0  0  0
   10.7560    3.1880  -58.7490 C   0  0  0  0  0  0  0  0  0  0  0  0
   10.2180    1.8060  -58.5120 C   0  0  0  0  0  0  0  0  0  0  0  0
    9.6920    2.0520  -57.0540 C   0  0  2  0  0  0  0  0  0  0  0  0
    8.5150    3.0180  -57.0980 C   0  0  0  0  0  0  0  0  0  0  0  0
   10.8240    2.7860  -56.4740 N   0  0  0  0  0  0  0  0  0  0  0  0
   11.3990    3.6110  -57.4280 C   0  0  0  0  0  0  0  0  0  0  0  0
   12.2030    4.4980  -57.2590 O   0  0  0  0  0  0  0  0  0  0  0  0
    9.2370    0.7990  -56.2360 C   0  0  1  0  0  0  0  0  0  0  0  0
   10.3690    0.2290  -55.3680 C   0  0  0  0  0  0  0  0  0  0  0  0
    7.3957   -0.1403  -53.6536 H   0  0  0  0  0  0  0  0  0  0  0  0
    6.3207   -0.3739  -55.0736 H   0  0  0  0  0  0  0  0  0  0  0  0
    7.9741   -1.0761  -55.0736 H   0  0  0  0  0  0  0  0  0  0  0  0
    8.2728    1.7603  -54.6047 H   0  0  0  0  0  0  0  0  0  0  0  0
    5.8748    1.1320  -56.2609 H   0  0  0  0  0  0  0  0  0  0  0  0
    6.3982    2.6779  -55.4807 H   0  0  0  0  0  0  0  0  0  0  0  0
    6.9765    0.2286  -57.7859 H   0  0  0  0  0  0  0  0  0  0  0  0
    6.1591    1.2240  -59.0380 H   0  0  0  0  0  0  0  0  0  0  0  0
    7.9490    1.0732  -59.0380 H   0  0  0  0  0  0  0  0  0  0  0  0
    5.3991    3.1046  -58.5924 H   0  0  0  0  0  0  0  0  0  0  0  0
    6.1037    4.3209  -57.4863 H   0  0  0  0  0  0  0  0  0  0  0  0
    7.6939    5.0374  -59.1836 H   0  0  0  0  0  0  0  0  0  0  0  0
    6.9755    3.1045  -63.2542 H   0  0  0  0  0  0  0  0  0  0  0  0
    5.1197    1.8248  -64.3185 H   0  0  0  0  0  0  0  0  0  0  0  0
    3.4779    0.9525  -60.4200 H   0  0  0  0  0  0  0  0  0  0  0  0
    5.3318    2.2293  -59.3498 H   0  0  0  0  0  0  0  0  0  0  0  0
    8.5617    3.6996  -62.3820 H   0  0  0  0  0  0  0  0  0  0  0  0
   10.6822    3.6238  -61.7257 H   0  0  0  0  0  0  0  0  0  0  0  0
    9.4109    1.5430  -59.2116 H   0  0  0  0  0  0  0  0  0  0  0  0
   10.9242    0.9734  -58.6464 H   0  0  0  0  0  0  0  0  0  0  0  0
    8.4094    3.4720  -56.1017 H   0  0  0  0  0  0  0  0  0  0  0  0
    8.7460    3.7464  -57.8892 H   0  0  0  0  0  0  0  0  0  0  0  0
   10.8770    3.0880  -55.5080 H   0  0  0  0  0  0  0  0  0  0  0  0
    8.9795    0.0309  -56.9801 H   0  0  0  0  0  0  0  0  0  0  0  0
   10.1158    0.3565  -54.3052 H   0  0  0  0  0  0  0  0  0  0  0  0
   10.4970   -0.8410  -55.5886 H   0  0  0  0  0  0  0  0  0  0  0  0
   11.3048    0.7634  -55.5886 H   0  0  0  0  0  0  0  0  0  0  0  0
  1  2  1  0
  2  3  1  0
  3  4  1  0
  4  5  1  6
  4  6  1  0
  6  7  1  0
  7  8  2  0
  8  9  1  0
  9 10  1  0
 10 11  2  0
 11 12  1  0
 12 13  1  0
 12 14  2  0
 14 15  1  0
  8 16  1  0
 16 17  2  0
 17 18  1  0
 18 19  2  0
 19 20  1  0
 20 21  1  0
 21 22  1  0
 21 23  1  1
 23 24  1  0
 24 25  2  0
 21 26  1  0
 26 27  1  0
 26  2  1  0
 22  4  1  0
 15  9  2  0
 24 19  1  0
  1 28  1  0
  1 29  1  0
  1 30  1  0
  2 31  1  1
  3 32  1  0
  3 33  1  0
  5 34  1  0
  5 35  1  0
  5 36  1  0
  6 37  1  0
  6 38  1  0
  7 39  1  0
 10 40  1  0
 11 41  1  0
 14 42  1  0
 15 43  1  0
 16 44  1  0
 17 45  1  0
 20 46  1  0
 20 47  1  0
 22 48  1  0
 22 49  1  0
 23 50  1  0
 26 51  1  6
 27 52  1  0
 27 53  1  0
 27 54  1  0
M  END
>  <meeko>  (151) 
{"is_sidechain": false}

$$$$

     RDKit          3D

 54 57  0  0  0  0  0  0  0  0999 V2000
    6.5700    3.0170  -62.2900 C   0  0  0  0  0  0  0  0  0  0  0  0
    7.0950    2.6620  -60.8920 C   0  0  2  0  0  0  0  0  0  0  0  0
    5.8800    2.4810  -59.9370 C   0  0  0  0  0  0  0  0  0  0  0  0
    6.1890    2.3170  -58.4140 C   0  0  1  0  0  0  0  0  0  0  0  0
    4.8920    2.6570  -57.6370 C   0  0  0  0  0  0  0  0  0  0  0  0
    6.5590    0.8430  -58.0460 C   0  0  0  0  0  0  0  0  0  0  0  0
    6.6830    0.2630  -56.6300 C   0  0  0  0  0  0  0  0  0  0  0  0
    7.2330    0.6410  -55.4490 C   0  0  0  0  0  0  0  0  0  0  0  0
    7.1210   -0.3210  -54.3290 C   0  0  0  0  0  0  0  0  0  0  0  0
    6.7700   -1.6540  -54.5810 C   0  0  0  0  0  0  0  0  0  0  0  0
    6.6550   -2.5620  -53.5270 C   0  0  0  0  0  0  0  0  0  0  0  0
    6.8880   -2.1380  -52.2190 C   0  0  0  0  0  0  0  0  0  0  0  0
    6.7480   -3.2590  -50.9200 Cl  0  0  0  0  0  0  0  0  0  0  0  0
    7.2340   -0.8130  -51.9560 C   0  0  0  0  0  0  0  0  0  0  0  0
    7.3480    0.0950  -53.0110 C   0  0  0  0  0  0  0  0  0  0  0  0
    7.9270    1.8940  -55.2480 C   0  0  0  0  0  0  0  0  0  0  0  0
    9.2590    2.0600  -55.3510 C   0  0  0  0  0  0  0  0  0  0  0  0
    9.7280    3.2630  -55.8530 N   0  0  0  0  0  0  0  0  0  0  0  0
    9.9590    3.1640  -57.1350 C   0  0  0  0  0  0  0  0  0  0  0  0
    9.5960    4.2300  -58.1500 C   0  0  0  0  0  0  0  0  0  0  0  0
    8.5600    3.3390  -58.9330 C   0  0  2  0  0  0  0  0  0  0  0  0
    7.2420    3.3800  -58.0980 C   0  0  0  0  0  0  0  0  0  0  0  0
    9.2350    2.0420  -58.9530 N   0  0  0  0  0  0  0  0  0  0  0  0
   10.1010    1.8750  -57.9190 C   0  0  0  0  0  0  0  0  0  0  0  0
   10.8380    0.9490  -57.6790 O   0  0  0  0  0  0  0  0  0  0  0  0
    8.1500    3.7120  -60.3760 C   0  0  1  0  0  0  0  0  0  0  0  0
    9.3520    3.8340  -61.3220 C   0  0  0  0  0  0  0  0  0  0  0  0
    5.6621    3.6309  -62.1958 H   0  0  0  0  0  0  0  0  0  0  0  0
    7.3389    3.5813  -62.8381 H   0  0  0  0  0  0  0  0  0  0  0  0
    6.3327    2.0932  -62.8381 H   0  0  0  0  0  0  0  0  0  0  0  0
    7.6465    1.7110  -60.9291 H   0  0  0  0  0  0  0  0  0  0  0  0
    5.2348    3.3646  -60.0508 H   0  0  0  0  0  0  0  0  0  0  0  0
    5.4212    1.5277  -60.2382 H   0  0  0  0  0  0  0  0  0  0  0  0
    5.0881    2.6056  -56.5558 H   0  0  0  0  0  0  0  0  0  0  0  0
    4.5614    3.6722  -57.9018 H   0  0  0  0  0  0  0  0  0  0  0  0
    4.1059    1.9346  -57.9018 H   0  0  0  0  0  0  0  0  0  0  0  0
    5.7985    0.2236  -58.5440 H   0  0  0  0  0  0  0  0  0  0  0  0
    7.6192    0.8408  -58.3392 H   0  0  0  0  0  0  0  0  0  0  0  0
    6.1965   -0.7205  -56.5525 H   0  0  0  0  0  0  0  0  0  0  0  0
    6.5844   -1.9861  -55.6131 H   0  0  0  0  0  0  0  0  0  0  0  0
    6.3815   -3.6084  -53.7275 H   0  0  0  0  0  0  0  0  0  0  0  0
    7.4163   -0.4844  -50.9222 H   0  0  0  0  0  0  0  0  0  0  0  0
    7.6173    1.1416  -52.8059 H   0  0  0  0  0  0  0  0  0  0  0  0
    7.3219    2.7763  -54.9921 H   0  0  0  0  0  0  0  0  0  0  0  0
    9.9542    1.2641  -55.0457 H   0  0  0  0  0  0  0  0  0  0  0  0
    9.1362    5.1181  -57.6918 H   0  0  0  0  0  0  0  0  0  0  0  0
   10.4158    4.6824  -58.7272 H   0  0  0  0  0  0  0  0  0  0  0  0
    7.5165    3.2711  -57.0384 H   0  0  0  0  0  0  0  0  0  0  0  0
    6.7684    4.3384  -58.3570 H   0  0  0  0  0  0  0  0  0  0  0  0
    9.1510    1.3210  -59.6600 H   0  0  0  0  0  0  0  0  0  0  0  0
    7.6925    4.7123  -60.3633 H   0  0  0  0  0  0  0  0  0  0  0  0
   10.2753    3.9277  -60.7315 H   0  0  0  0  0  0  0  0  0  0  0  0
    9.4119    2.9373  -61.9563 H   0  0  0  0  0  0  0  0  0  0  0  0
    9.2305    4.7244  -61.9563 H   0  0  0  0  0  0  0  0  0  0  0  0
  1  2  1  0
  2  3  1  0
  3  4  1  0
  4  5  1  1
  4  6  1  0
  6  7  1  0
  7  8  2  0
  8  9  1  0
  9 10  1  0
 10 11  2  0
 11 12  1  0
 12 13  1  0
 12 14  2  0
 14 15  1  0
  8 16  1  0
 16 17  2  0
 17 18  1  0
 18 19  2  0
 19 20  1  0
 20 21  1  0
 21 22  1  0
 21 23  1  6
 23 24  1  0
 24 25  2  0
 21 26  1  0
 26 27  1  0
 26  2  1  0
 22  4  1  0
 15  9  2  0
 24 19  1  0
  1 28  1  0
  1 29  1  0
  1 30  1  0
  2 31  1  6
  3 32  1  0
  3 33  1  0
  5 34  1  0
  5 35  1  0
  5 36  1  0
  6 37  1  0
  6 38  1  0
  7 39  1  0
 10 40  1  0
 11 41  1  0
 14 42  1  0
 15 43  1  0
 16 44  1  0
 17 45  1  0
 20 46  1  0
 20 47  1  0
 22 48  1  0
 22 49  1  0
 23 50  1  0
 26 51  1  1
 27 52  1  0
 27 53  1  0
 27 54  1  0
M  END
>  <meeko>  (152) 
{"is_sidechain": false}

$$$$

     RDKit          3D

 54 57  0  0  0  0  0  0  0  0999 V2000
    4.1360    2.2590  -61.3510 C   0  0  0  0  0  0  0  0  0  0  0  0
    5.5510    1.7470  -61.0540 C   0  0  2  0  0  0  0  0  0  0  0  0
    5.6360    1.1240  -59.6240 C   0  0  0  0  0  0  0  0  0  0  0  0
    5.9010    2.1030  -58.4400 C   0  0  1  0  0  0  0  0  0  0  0  0
    4.5520    2.4920  -57.7840 C   0  0  0  0  0  0  0  0  0  0  0  0
    6.7730    1.3980  -57.3050 C   0  0  0  0  0  0  0  0  0  0  0  0
    7.5550    2.3910  -56.4640 C   0  0  0  0  0  0  0  0  0  0  0  0
    8.8610    2.3250  -56.1020 C   0  0  0  0  0  0  0  0  0  0  0  0
    9.4870    1.0040  -55.8390 C   0  0  0  0  0  0  0  0  0  0  0  0
    8.8750    0.1610  -54.8890 C   0  0  0  0  0  0  0  0  0  0  0  0
    9.4080   -1.0940  -54.5760 C   0  0  0  0  0  0  0  0  0  0  0  0
   10.5690   -1.5230  -55.2050 C   0  0  0  0  0  0  0  0  0  0  0  0
   11.2290   -3.0670  -54.8290 Cl  0  0  0  0  0  0  0  0  0  0  0  0
   11.2000   -0.7050  -56.1360 C   0  0  0  0  0  0  0  0  0  0  0  0
   10.6640    0.5520  -56.4440 C   0  0  0  0  0  0  0  0  0  0  0  0
    9.5500    3.6470  -56.1090 C   0  0  0  0  0  0  0  0  0  0  0  0
   10.3450    3.9390  -57.1660 C   0  0  0  0  0  0  0  0  0  0  0  0
    9.8300    4.7100  -58.2010 N   0  0  0  0  0  0  0  0  0  0  0  0
    9.4530    4.0110  -59.2400 C   0  0  0  0  0  0  0  0  0  0  0  0
    8.4340    4.4500  -60.2650 C   0  0  0  0  0  0  0  0  0  0  0  0
    7.5190    3.1760  -60.1820 C   0  0  2  0  0  0  0  0  0  0  0  0
    6.5480    3.3960  -58.9960 C   0  0  0  0  0  0  0  0  0  0  0  0
    8.4710    2.0940  -59.9670 N   0  0  0  0  0  0  0  0  0  0  0  0
    9.6720    2.5340  -59.4940 C   0  0  0  0  0  0  0  0  0  0  0  0
   10.7080    1.9220  -59.3920 O   0  0  0  0  0  0  0  0  0  0  0  0
    6.6100    2.8660  -61.3910 C   0  0  1  0  0  0  0  0  0  0  0  0
    7.3780    2.5140  -62.6710 C   0  0  0  0  0  0  0  0  0  0  0  0
    3.6089    2.4497  -60.4045 H   0  0  0  0  0  0  0  0  0  0  0  0
    4.1977    3.1918  -61.9307 H   0  0  0  0  0  0  0  0  0  0  0  0
    3.5866    1.5027  -61.9307 H   0  0  0  0  0  0  0  0  0  0  0  0
    5.8073    0.9069  -61.7163 H   0  0  0  0  0  0  0  0  0  0  0  0
    4.6810    0.6152  -59.4264 H   0  0  0  0  0  0  0  0  0  0  0  0
    6.5159    0.4644  -59.6516 H   0  0  0  0  0  0  0  0  0  0  0  0
    4.6546    2.4624  -56.6892 H   0  0  0  0  0  0  0  0  0  0  0  0
    4.2707    3.5078  -58.0986 H   0  0  0  0  0  0  0  0  0  0  0  0
    3.7730    1.7819  -58.0986 H   0  0  0  0  0  0  0  0  0  0  0  0
    6.0995    0.8316  -56.6450 H   0  0  0  0  0  0  0  0  0  0  0  0
    7.5003    0.7415  -57.8051 H   0  0  0  0  0  0  0  0  0  0  0  0
    6.9965    3.2682  -56.1055 H   0  0  0  0  0  0  0  0  0  0  0  0
    7.9582    0.4975  -54.3828 H   0  0  0  0  0  0  0  0  0  0  0  0
    8.9100   -1.7373  -53.8356 H   0  0  0  0  0  0  0  0  0  0  0  0
   12.1213   -1.0455  -56.6312 H   0  0  0  0  0  0  0  0  0  0  0  0
   11.1777    1.1945  -57.1742 H   0  0  0  0  0  0  0  0  0  0  0  0
    9.4172    4.3615  -55.2833 H   0  0  0  0  0  0  0  0  0  0  0  0
   11.3812    3.5719  -57.2045 H   0  0  0  0  0  0  0  0  0  0  0  0
    7.9058    5.3678  -59.9671 H   0  0  0  0  0  0  0  0  0  0  0  0
    8.8195    4.7156  -61.2604 H   0  0  0  0  0  0  0  0  0  0  0  0
    7.1073    3.8773  -58.1802 H   0  0  0  0  0  0  0  0  0  0  0  0
    5.7239    4.0151  -59.3802 H   0  0  0  0  0  0  0  0  0  0  0  0
    8.3800    1.1410  -60.2980 H   0  0  0  0  0  0  0  0  0  0  0  0
    6.0777    3.8062  -61.5974 H   0  0  0  0  0  0  0  0  0  0  0  0
    8.3485    2.0692  -62.4057 H   0  0  0  0  0  0  0  0  0  0  0  0
    6.7940    1.7937  -63.2627 H   0  0  0  0  0  0  0  0  0  0  0  0
    7.5424    3.4266  -63.2627 H   0  0  0  0  0  0  0  0  0  0  0  0
  1  2  1  0
  2  3  1  0
  3  4  1  0
  4  5  1  1
  4  6  1  0
  6  7  1  0
  7  8  2  0
  8  9  1  0
  9 10  1  0
 10 11  2  0
 11 12  1  0
 12 13  1  0
 12 14  2  0
 14 15  1  0
  8 16  1  0
 16 17  2  0
 17 18  1  0
 18 19  2  0
 19 20  1  0
 20 21  1  0
 21 22  1  0
 21 23  1  1
 23 24  1  0
 24 25  2  0
 21 26  1  0
 26 27  1  0
 26  2  1  0
 22  4  1  0
 15  9  2  0
 24 19  1  0
  1 28  1  0
  1 29  1  0
  1 30  1  0
  2 31  1  6
  3 32  1  0
  3 33  1  0
  5 34  1  0
  5 35  1  0
  5 36  1  0
  6 37  1  0
  6 38  1  0
  7 39  1  0
 10 40  1  0
 11 41  1  0
 14 42  1  0
 15 43  1  0
 16 44  1  0
 17 45  1  0
 20 46  1  0
 20 47  1  0
 22 48  1  0
 22 49  1  0
 23 50  1  0
 26 51  1  6
 27 52  1  0
 27 53  1  0
 27 54  1  0
M  END
>  <meeko>  (153) 
{"is_sidechain": false}

$$$$

     RDKit          3D

 54 57  0  0  0  0  0  0  0  0999 V2000
   13.1350    6.4640  -59.2780 C   0  0  0  0  0  0  0  0  0  0  0  0
   12.2380    5.2250  -59.3750 C   0  0  2  0  0  0  0  0  0  0  0  0
   10.8150    5.6410  -59.8240 C   0  0  0  0  0  0  0  0  0  0  0  0
    9.8520    4.4310  -60.0170 C   0  0  2  0  0  0  0  0  0  0  0  0
   10.0100    3.9230  -61.4730 C   0  0  0  0  0  0  0  0  0  0  0  0
    8.3570    4.8510  -59.7830 C   0  0  0  0  0  0  0  0  0  0  0  0
    7.2930    3.8380  -60.1420 C   0  0  0  0  0  0  0  0  0  0  0  0
    6.4950    2.9790  -59.4640 C   0  0  0  0  0  0  0  0  0  0  0  0
    5.5930    2.2360  -60.3990 C   0  0  0  0  0  0  0  0  0  0  0  0
    4.6590    1.3160  -59.9010 C   0  0  0  0  0  0  0  0  0  0  0  0
    3.8120    0.6330  -60.7760 C   0  0  0  0  0  0  0  0  0  0  0  0
    3.8930    0.8720  -62.1460 C   0  0  0  0  0  0  0  0  0  0  0  0
    2.8470    0.0300  -63.2230 Cl  0  0  0  0  0  0  0  0  0  0  0  0
    4.8120    1.7900  -62.6530 C   0  0  0  0  0  0  0  0  0  0  0  0
    5.6610    2.4740  -61.7790 C   0  0  0  0  0  0  0  0  0  0  0  0
    6.3700    2.6140  -58.0460 C   0  0  0  0  0  0  0  0  0  0  0  0
    6.8830    3.0540  -56.8880 C   0  0  0  0  0  0  0  0  0  0  0  0
    7.7470    4.0850  -56.7470 N   0  0  0  0  0  0  0  0  0  0  0  0
    8.9830    3.7690  -56.5370 C   0  0  0  0  0  0  0  0  0  0  0  0
   10.0610    4.7340  -56.8670 C   0  0  0  0  0  0  0  0  0  0  0  0
   10.9100    3.7530  -57.7220 C   0  0  2  0  0  0  0  0  0  0  0  0
   10.2610    3.2920  -59.0660 C   0  0  0  0  0  0  0  0  0  0  0  0
   10.9230    2.5780  -56.8450 N   0  0  0  0  0  0  0  0  0  0  0  0
    9.6570    2.4310  -56.2840 C   0  0  0  0  0  0  0  0  0  0  0  0
    9.1830    1.4660  -55.7330 O   0  0  0  0  0  0  0  0  0  0  0  0
   12.2800    4.4080  -58.0360 C   0  0  1  0  0  0  0  0  0  0  0  0
   13.4310    3.3900  -58.0930 C   0  0  0  0  0  0  0  0  0  0  0  0
   13.3111    6.7072  -58.2198 H   0  0  0  0  0  0  0  0  0  0  0  0
   14.0963    6.2603  -59.7723 H   0  0  0  0  0  0  0  0  0  0  0  0
   12.6413    7.3137  -59.7723 H   0  0  0  0  0  0  0  0  0  0  0  0
   12.6160    4.5393  -60.1476 H   0  0  0  0  0  0  0  0  0  0  0  0
   10.3889    6.3082  -59.0603 H   0  0  0  0  0  0  0  0  0  0  0  0
   10.9134    6.1385  -60.8001 H   0  0  0  0  0  0  0  0  0  0  0  0
   10.3367    2.8727  -61.4615 H   0  0  0  0  0  0  0  0  0  0  0  0
    9.0451    4.0012  -61.9954 H   0  0  0  0  0  0  0  0  0  0  0  0
   10.7603    4.5347  -61.9954 H   0  0  0  0  0  0  0  0  0  0  0  0
    8.2425    5.0876  -58.7149 H   0  0  0  0  0  0  0  0  0  0  0  0
    8.1882    5.6958  -60.4669 H   0  0  0  0  0  0  0  0  0  0  0  0
    7.1247    3.7856  -61.2278 H   0  0  0  0  0  0  0  0  0  0  0  0
    4.5935    1.1320  -58.8185 H   0  0  0  0  0  0  0  0  0  0  0  0
    3.0829   -0.0917  -60.3847 H   0  0  0  0  0  0  0  0  0  0  0  0
    4.8684    1.9749  -63.7359 H   0  0  0  0  0  0  0  0  0  0  0  0
    6.3849    3.2014  -62.1749 H   0  0  0  0  0  0  0  0  0  0  0  0
    5.6834    1.7676  -57.8973 H   0  0  0  0  0  0  0  0  0  0  0  0
    6.5738    2.5301  -55.9715 H   0  0  0  0  0  0  0  0  0  0  0  0
    9.6965    5.5950  -57.4464 H   0  0  0  0  0  0  0  0  0  0  0  0
   10.5660    5.2266  -56.0230 H   0  0  0  0  0  0  0  0  0  0  0  0
   10.9845    2.6519  -59.5921 H   0  0  0  0  0  0  0  0  0  0  0  0
    9.3314    2.7703  -58.7946 H   0  0  0  0  0  0  0  0  0  0  0  0
   11.4300    1.7250  -57.0480 H   0  0  0  0  0  0  0  0  0  0  0  0
   12.4768    5.0940  -57.1989 H   0  0  0  0  0  0  0  0  0  0  0  0
   13.7343    3.1218  -57.0702 H   0  0  0  0  0  0  0  0  0  0  0  0
   13.0960    2.4872  -58.6248 H   0  0  0  0  0  0  0  0  0  0  0  0
   14.2861    3.8327  -58.6248 H   0  0  0  0  0  0  0  0  0  0  0  0
  1  2  1  0
  2  3  1  0
  3  4  1  0
  4  5  1  6
  4  6  1  0
  6  7  1  0
  7  8  2  0
  8  9  1  0
  9 10  1  0
 10 11  2  0
 11 12  1  0
 12 13  1  0
 12 14  2  0
 14 15  1  0
  8 16  1  0
 16 17  2  0
 17 18  1  0
 18 19  2  0
 19 20  1  0
 20 21  1  0
 21 22  1  0
 21 23  1  1
 23 24  1  0
 24 25  2  0
 21 26  1  0
 26 27  1  0
 26  2  1  0
 22  4  1  0
 15  9  2  0
 24 19  1  0
  1 28  1  0
  1 29  1  0
  1 30  1  0
  2 31  1  6
  3 32  1  0
  3 33  1  0
  5 34  1  0
  5 35  1  0
  5 36  1  0
  6 37  1  0
  6 38  1  0
  7 39  1  0
 10 40  1  0
 11 41  1  0
 14 42  1  0
 15 43  1  0
 16 44  1  0
 17 45  1  0
 20 46  1  0
 20 47  1  0
 22 48  1  0
 22 49  1  0
 23 50  1  0
 26 51  1  1
 27 52  1  0
 27 53  1  0
 27 54  1  0
M  END
>  <meeko>  (154) 
{"is_sidechain": false}

$$$$

     RDKit          3D

 54 57  0  0  0  0  0  0  0  0999 V2000
   12.4700    4.7170  -59.5950 C   0  0  0  0  0  0  0  0  0  0  0  0
   11.0940    4.3830  -59.0080 C   0  0  2  0  0  0  0  0  0  0  0  0
   11.2900    3.8230  -57.5410 C   0  0  0  0  0  0  0  0  0  0  0  0
   10.2090    2.8010  -57.1040 C   0  0  1  0  0  0  0  0  0  0  0  0
   10.7350    1.3950  -57.4640 C   0  0  0  0  0  0  0  0  0  0  0  0
    9.8300    2.8040  -55.5890 C   0  0  0  0  0  0  0  0  0  0  0  0
    9.1360    1.5370  -55.0890 C   0  0  0  0  0  0  0  0  0  0  0  0
    7.8740    1.0360  -55.1300 C   0  0  0  0  0  0  0  0  0  0  0  0
    7.7420   -0.2920  -54.4680 C   0  0  0  0  0  0  0  0  0  0  0  0
    8.7310   -0.7300  -53.5760 C   0  0  0  0  0  0  0  0  0  0  0  0
    8.6200   -1.9770  -52.9560 C   0  0  0  0  0  0  0  0  0  0  0  0
    7.5200   -2.7880  -53.2310 C   0  0  0  0  0  0  0  0  0  0  0  0
    7.3820   -4.3240  -52.4660 Cl  0  0  0  0  0  0  0  0  0  0  0  0
    6.5330   -2.3670  -54.1200 C   0  0  0  0  0  0  0  0  0  0  0  0
    6.6440   -1.1200  -54.7410 C   0  0  0  0  0  0  0  0  0  0  0  0
    6.6490    1.6030  -55.7070 C   0  0  0  0  0  0  0  0  0  0  0  0
    6.1630    1.4470  -56.9590 C   0  0  0  0  0  0  0  0  0  0  0  0
    6.8760    0.8850  -57.9880 N   0  0  0  0  0  0  0  0  0  0  0  0
    7.1250    1.6650  -59.0000 C   0  0  0  0  0  0  0  0  0  0  0  0
    8.4530    1.5880  -59.6910 C   0  0  0  0  0  0  0  0  0  0  0  0
    8.8740    3.0520  -59.3280 C   0  0  2  0  0  0  0  0  0  0  0  0
    8.9610    3.3010  -57.8100 C   0  0  0  0  0  0  0  0  0  0  0  0
    7.6660    3.7760  -59.7530 N   0  0  0  0  0  0  0  0  0  0  0  0
    6.5530    3.0340  -59.3600 C   0  0  0  0  0  0  0  0  0  0  0  0
    5.3990    3.3850  -59.2800 O   0  0  0  0  0  0  0  0  0  0  0  0
   10.2260    3.4830  -59.9720 C   0  0  1  0  0  0  0  0  0  0  0  0
   10.0240    4.1220  -61.3510 C   0  0  0  0  0  0  0  0  0  0  0  0
   13.1851    4.8906  -58.7774 H   0  0  0  0  0  0  0  0  0  0  0  0
   12.8180    3.8773  -60.2144 H   0  0  0  0  0  0  0  0  0  0  0  0
   12.3943    5.6229  -60.2144 H   0  0  0  0  0  0  0  0  0  0  0  0
   10.4847    5.2948  -58.9221 H   0  0  0  0  0  0  0  0  0  0  0  0
   12.2724    3.3310  -57.4874 H   0  0  0  0  0  0  0  0  0  0  0  0
   11.2078    4.6826  -56.8596 H   0  0  0  0  0  0  0  0  0  0  0  0
   10.9447    0.8345  -56.5410 H   0  0  0  0  0  0  0  0  0  0  0  0
    9.9764    0.8596  -58.0538 H   0  0  0  0  0  0  0  0  0  0  0  0
   11.6588    1.4890  -58.0538 H   0  0  0  0  0  0  0  0  0  0  0  0
   10.7540    2.9380  -55.0074 H   0  0  0  0  0  0  0  0  0  0  0  0
    9.1054    3.6211  -55.4573 H   0  0  0  0  0  0  0  0  0  0  0  0
    9.8312    0.8638  -54.5661 H   0  0  0  0  0  0  0  0  0  0  0  0
    9.5988   -0.0885  -53.3632 H   0  0  0  0  0  0  0  0  0  0  0  0
    9.3963   -2.3170  -52.2547 H   0  0  0  0  0  0  0  0  0  0  0  0
    5.6692   -3.0142  -54.3323 H   0  0  0  0  0  0  0  0  0  0  0  0
    5.8679   -0.7872  -55.4459 H   0  0  0  0  0  0  0  0  0  0  0  0
    6.0501    2.2354  -55.0351 H   0  0  0  0  0  0  0  0  0  0  0  0
    5.1382    1.7899  -57.1643 H   0  0  0  0  0  0  0  0  0  0  0  0
    9.1201    0.8286  -59.2570 H   0  0  0  0  0  0  0  0  0  0  0  0
    8.4634    1.2991  -60.7523 H   0  0  0  0  0  0  0  0  0  0  0  0
    8.8991    4.3871  -57.6470 H   0  0  0  0  0  0  0  0  0  0  0  0
    8.1331    2.7214  -57.3756 H   0  0  0  0  0  0  0  0  0  0  0  0
    7.5750    4.7860  -59.7350 H   0  0  0  0  0  0  0  0  0  0  0  0
   10.8080    2.5636  -60.1331 H   0  0  0  0  0  0  0  0  0  0  0  0
    9.6945    5.1642  -61.2275 H   0  0  0  0  0  0  0  0  0  0  0  0
   10.9726    4.1008  -61.9074 H   0  0  0  0  0  0  0  0  0  0  0  0
    9.2599    3.5594  -61.9074 H   0  0  0  0  0  0  0  0  0  0  0  0
  1  2  1  0
  2  3  1  0
  3  4  1  0
  4  5  1  6
  4  6  1  0
  6  7  1  0
  7  8  2  0
  8  9  1  0
  9 10  1  0
 10 11  2  0
 11 12  1  0
 12 13  1  0
 12 14  2  0
 14 15  1  0
  8 16  1  0
 16 17  2  0
 17 18  1  0
 18 19  2  0
 19 20  1  0
 20 21  1  0
 21 22  1  0
 21 23  1  6
 23 24  1  0
 24 25  2  0
 21 26  1  0
 26 27  1  0
 26  2  1  0
 22  4  1  0
 15  9  2  0
 24 19  1  0
  1 28  1  0
  1 29  1  0
  1 30  1  0
  2 31  1  1
  3 32  1  0
  3 33  1  0
  5 34  1  0
  5 35  1  0
  5 36  1  0
  6 37  1  0
  6 38  1  0
  7 39  1  0
 10 40  1  0
 11 41  1  0
 14 42  1  0
 15 43  1  0
 16 44  1  0
 17 45  1  0
 20 46  1  0
 20 47  1  0
 22 48  1  0
 22 49  1  0
 23 50  1  0
 26 51  1  6
 27 52  1  0
 27 53  1  0
 27 54  1  0
M  END
>  <meeko>  (155) 
{"is_sidechain": false}

$$$$

     RDKit          3D

 54 57  0  0  0  0  0  0  0  0999 V2000
    4.2900    2.9030  -62.1630 C   0  0  0  0  0  0  0  0  0  0  0  0
    5.4780    2.1990  -61.4960 C   0  0  2  0  0  0  0  0  0  0  0  0
    5.2800    2.1900  -59.9550 C   0  0  0  0  0  0  0  0  0  0  0  0
    6.4630    1.5510  -59.1810 C   0  0  2  0  0  0  0  0  0  0  0  0
    6.2960    0.0070  -59.2670 C   0  0  0  0  0  0  0  0  0  0  0  0
    6.4390    1.8950  -57.6340 C   0  0  0  0  0  0  0  0  0  0  0  0
    7.3250    3.0360  -57.1790 C   0  0  0  0  0  0  0  0  0  0  0  0
    8.5900    2.9820  -56.6880 C   0  0  0  0  0  0  0  0  0  0  0  0
    9.1720    1.6710  -56.2990 C   0  0  0  0  0  0  0  0  0  0  0  0
   10.3870    1.2400  -56.8530 C   0  0  0  0  0  0  0  0  0  0  0  0
   10.9450    0.0170  -56.4720 C   0  0  0  0  0  0  0  0  0  0  0  0
   10.2960   -0.7750  -55.5260 C   0  0  0  0  0  0  0  0  0  0  0  0
   10.9810   -2.2820  -55.0600 Cl  0  0  0  0  0  0  0  0  0  0  0  0
    9.1000   -0.3510  -54.9510 C   0  0  0  0  0  0  0  0  0  0  0  0
    8.5430    0.8730  -55.3320 C   0  0  0  0  0  0  0  0  0  0  0  0
    9.4540    4.1760  -56.5840 C   0  0  0  0  0  0  0  0  0  0  0  0
    9.4850    5.2430  -57.4070 C   0  0  0  0  0  0  0  0  0  0  0  0
    8.5390    5.4690  -58.3590 N   0  0  0  0  0  0  0  0  0  0  0  0
    8.6350    4.8350  -59.4830 C   0  0  0  0  0  0  0  0  0  0  0  0
    7.3980    4.5250  -60.2510 C   0  0  0  0  0  0  0  0  0  0  0  0
    7.7910    3.1400  -60.8330 C   0  0  2  0  0  0  0  0  0  0  0  0
    7.7990    1.9190  -59.8640 C   0  0  0  0  0  0  0  0  0  0  0  0
    9.1950    3.3810  -61.1820 N   0  0  0  0  0  0  0  0  0  0  0  0
    9.7890    4.1490  -60.1830 C   0  0  0  0  0  0  0  0  0  0  0  0
   10.9660    4.2550  -59.9250 O   0  0  0  0  0  0  0  0  0  0  0  0
    6.8300    2.8190  -62.0040 C   0  0  1  0  0  0  0  0  0  0  0  0
    7.4480    1.8950  -63.0670 C   0  0  0  0  0  0  0  0  0  0  0  0
    3.6179    3.3013  -61.3886 H   0  0  0  0  0  0  0  0  0  0  0  0
    4.6579    3.7290  -62.7894 H   0  0  0  0  0  0  0  0  0  0  0  0
    3.7421    2.1837  -62.7894 H   0  0  0  0  0  0  0  0  0  0  0  0
    5.5304    1.1398  -61.7880 H   0  0  0  0  0  0  0  0  0  0  0  0
    5.1615    3.2289  -59.6134 H   0  0  0  0  0  0  0  0  0  0  0  0
    4.3901    1.5776  -59.7475 H   0  0  0  0  0  0  0  0  0  0  0  0
    6.2505   -0.4140  -58.2518 H   0  0  0  0  0  0  0  0  0  0  0  0
    5.3668   -0.2319  -59.8050 H   0  0  0  0  0  0  0  0  0  0  0  0
    7.1527   -0.4251  -59.8050 H   0  0  0  0  0  0  0  0  0  0  0  0
    5.4032    2.1490  -57.3647 H   0  0  0  0  0  0  0  0  0  0  0  0
    6.8370    1.0008  -57.1319 H   0  0  0  0  0  0  0  0  0  0  0  0
    6.8857    4.0415  -57.2565 H   0  0  0  0  0  0  0  0  0  0  0  0
   10.9038    1.8694  -57.5924 H   0  0  0  0  0  0  0  0  0  0  0  0
   11.8930   -0.3197  -56.9169 H   0  0  0  0  0  0  0  0  0  0  0  0
    8.5960   -0.9771  -54.2000 H   0  0  0  0  0  0  0  0  0  0  0  0
    7.6044    1.2130  -54.8701 H   0  0  0  0  0  0  0  0  0  0  0  0
   10.1539    4.1966  -55.7356 H   0  0  0  0  0  0  0  0  0  0  0  0
   10.3108    5.9624  -57.3048 H   0  0  0  0  0  0  0  0  0  0  0  0
    6.5159    4.4590  -59.5972 H   0  0  0  0  0  0  0  0  0  0  0  0
    7.1116    5.2801  -60.9978 H   0  0  0  0  0  0  0  0  0  0  0  0
    8.1290    1.0417  -60.4398 H   0  0  0  0  0  0  0  0  0  0  0  0
    8.4663    2.2145  -59.0409 H   0  0  0  0  0  0  0  0  0  0  0  0
    9.7850    2.6740  -61.6040 H   0  0  0  0  0  0  0  0  0  0  0  0
    6.6302    3.7893  -62.4822 H   0  0  0  0  0  0  0  0  0  0  0  0
    7.9938    1.0789  -62.5709 H   0  0  0  0  0  0  0  0  0  0  0  0
    6.6495    1.4733  -63.6952 H   0  0  0  0  0  0  0  0  0  0  0  0
    8.1426    2.4719  -63.6952 H   0  0  0  0  0  0  0  0  0  0  0  0
  1  2  1  0
  2  3  1  0
  3  4  1  0
  4  5  1  1
  4  6  1  0
  6  7  1  0
  7  8  2  0
  8  9  1  0
  9 10  1  0
 10 11  2  0
 11 12  1  0
 12 13  1  0
 12 14  2  0
 14 15  1  0
  8 16  1  0
 16 17  2  0
 17 18  1  0
 18 19  2  0
 19 20  1  0
 20 21  1  0
 21 22  1  0
 21 23  1  6
 23 24  1  0
 24 25  2  0
 21 26  1  0
 26 27  1  0
 26  2  1  0
 22  4  1  0
 15  9  2  0
 24 19  1  0
  1 28  1  0
  1 29  1  0
  1 30  1  0
  2 31  1  6
  3 32  1  0
  3 33  1  0
  5 34  1  0
  5 35  1  0
  5 36  1  0
  6 37  1  0
  6 38  1  0
  7 39  1  0
 10 40  1  0
 11 41  1  0
 14 42  1  0
 15 43  1  0
 16 44  1  0
 17 45  1  0
 20 46  1  0
 20 47  1  0
 22 48  1  0
 22 49  1  0
 23 50  1  0
 26 51  1  6
 27 52  1  0
 27 53  1  0
 27 54  1  0
M  END
>  <meeko>  (156) 
{"is_sidechain": false}

$$$$

     RDKit          3D

 54 57  0  0  0  0  0  0  0  0999 V2000
    4.4650    1.7960  -61.3290 C   0  0  0  0  0  0  0  0  0  0  0  0
    5.9020    1.4960  -60.8890 C   0  0  2  0  0  0  0  0  0  0  0  0
    5.9450    0.9790  -59.4150 C   0  0  0  0  0  0  0  0  0  0  0  0
    5.9800    2.0560  -58.2830 C   0  0  1  0  0  0  0  0  0  0  0  0
    4.5450    2.2950  -57.7570 C   0  0  0  0  0  0  0  0  0  0  0  0
    6.8340    1.5690  -57.0430 C   0  0  0  0  0  0  0  0  0  0  0  0
    7.8180    2.5780  -56.4710 C   0  0  0  0  0  0  0  0  0  0  0  0
    9.1120    2.3730  -56.1410 C   0  0  0  0  0  0  0  0  0  0  0  0
    9.5960    0.9900  -55.8570 C   0  0  0  0  0  0  0  0  0  0  0  0
   10.7450    0.4750  -56.4720 C   0  0  0  0  0  0  0  0  0  0  0  0
   11.2040   -0.8130  -56.1760 C   0  0  0  0  0  0  0  0  0  0  0  0
   10.5260   -1.5930  -55.2450 C   0  0  0  0  0  0  0  0  0  0  0  0
   11.0900   -3.1770  -54.8810 Cl  0  0  0  0  0  0  0  0  0  0  0  0
    9.4000   -1.0930  -54.5990 C   0  0  0  0  0  0  0  0  0  0  0  0
    8.9440    0.1950  -54.8980 C   0  0  0  0  0  0  0  0  0  0  0  0
   10.0270    3.5140  -56.0040 C   0  0  0  0  0  0  0  0  0  0  0  0
   10.1880    4.6010  -56.7900 C   0  0  0  0  0  0  0  0  0  0  0  0
    9.4660    5.0520  -57.8720 N   0  0  0  0  0  0  0  0  0  0  0  0
    9.3110    4.2970  -58.9160 C   0  0  0  0  0  0  0  0  0  0  0  0
    8.3300    4.5740  -60.0300 C   0  0  0  0  0  0  0  0  0  0  0  0
    7.5930    3.2040  -59.9590 C   0  0  2  0  0  0  0  0  0  0  0  0
    6.4860    3.3760  -58.8830 C   0  0  0  0  0  0  0  0  0  0  0  0
    8.6690    2.2630  -59.6220 N   0  0  0  0  0  0  0  0  0  0  0  0
    9.7860    2.8950  -59.1400 C   0  0  0  0  0  0  0  0  0  0  0  0
   10.9160    2.4850  -59.0280 O   0  0  0  0  0  0  0  0  0  0  0  0
    6.8370    2.7220  -61.2170 C   0  0  1  0  0  0  0  0  0  0  0  0
    7.7460    2.4080  -62.4120 C   0  0  0  0  0  0  0  0  0  0  0  0
    3.8297    1.9286  -60.4408 H   0  0  0  0  0  0  0  0  0  0  0  0
    4.4505    2.7165  -61.9310 H   0  0  0  0  0  0  0  0  0  0  0  0
    4.0834    0.9582  -61.9310 H   0  0  0  0  0  0  0  0  0  0  0  0
    6.3146    0.6596  -61.4722 H   0  0  0  0  0  0  0  0  0  0  0  0
    5.0504    0.3593  -59.2551 H   0  0  0  0  0  0  0  0  0  0  0  0
    6.9027    0.4447  -59.3289 H   0  0  0  0  0  0  0  0  0  0  0  0
    4.5527    2.2937  -56.6570 H   0  0  0  0  0  0  0  0  0  0  0  0
    4.1785    3.2666  -58.1200 H   0  0  0  0  0  0  0  0  0  0  0  0
    3.8834    1.4947  -58.1200 H   0  0  0  0  0  0  0  0  0  0  0  0
    6.1341    1.2904  -56.2414 H   0  0  0  0  0  0  0  0  0  0  0  0
    7.4480    0.7359  -57.4157 H   0  0  0  0  0  0  0  0  0  0  0  0
    7.4305    3.5943  -56.3067 H   0  0  0  0  0  0  0  0  0  0  0  0
   11.2941    1.0925  -57.1981 H   0  0  0  0  0  0  0  0  0  0  0  0
   12.0992   -1.2081  -56.6785 H   0  0  0  0  0  0  0  0  0  0  0  0
    8.8706   -1.7079  -53.8563 H   0  0  0  0  0  0  0  0  0  0  0  0
    8.0616    0.5921  -54.3748 H   0  0  0  0  0  0  0  0  0  0  0  0
   10.6845    3.4777  -55.1229 H   0  0  0  0  0  0  0  0  0  0  0  0
   11.0444    5.2357  -56.5184 H   0  0  0  0  0  0  0  0  0  0  0  0
    7.6668    5.4232  -59.8083 H   0  0  0  0  0  0  0  0  0  0  0  0
    8.7519    4.8621  -61.0042 H   0  0  0  0  0  0  0  0  0  0  0  0
    6.8909    3.9928  -58.0672 H   0  0  0  0  0  0  0  0  0  0  0  0
    5.6269    3.8443  -59.3857 H   0  0  0  0  0  0  0  0  0  0  0  0
    8.7500    1.3130  -59.9630 H   0  0  0  0  0  0  0  0  0  0  0  0
    6.2151    3.5749  -61.5266 H   0  0  0  0  0  0  0  0  0  0  0  0
    8.7270    2.0691  -62.0474 H   0  0  0  0  0  0  0  0  0  0  0  0
    7.2882    1.6159  -63.0228 H   0  0  0  0  0  0  0  0  0  0  0  0
    7.8747    3.3138  -63.0228 H   0  0  0  0  0  0  0  0  0  0  0  0
  1  2  1  0
  2  3  1  0
  3  4  1  0
  4  5  1  1
  4  6  1  0
  6  7  1  0
  7  8  2  0
  8  9  1  0
  9 10  1  0
 10 11  2  0
 11 12  1  0
 12 13  1  0
 12 14  2  0
 14 15  1  0
  8 16  1  0
 16 17  2  0
 17 18  1  0
 18 19  2  0
 19 20  1  0
 20 21  1  0
 21 22  1  0
 21 23  1  1
 23 24  1  0
 24 25  2  0
 21 26  1  0
 26 27  1  0
 26  2  1  0
 22  4  1  0
 15  9  2  0
 24 19  1  0
  1 28  1  0
  1 29  1  0
  1 30  1  0
  2 31  1  6
  3 32  1  0
  3 33  1  0
  5 34  1  0
  5 35  1  0
  5 36  1  0
  6 37  1  0
  6 38  1  0
  7 39  1  0
 10 40  1  0
 11 41  1  0
 14 42  1  0
 15 43  1  0
 16 44  1  0
 17 45  1  0
 20 46  1  0
 20 47  1  0
 22 48  1  0
 22 49  1  0
 23 50  1  0
 26 51  1  6
 27 52  1  0
 27 53  1  0
 27 54  1  0
M  END
>  <meeko>  (157) 
{"is_sidechain": false}

$$$$

     RDKit          3D

 54 57  0  0  0  0  0  0  0  0999 V2000
   12.4610    3.0380  -57.6380 C   0  0  0  0  0  0  0  0  0  0  0  0
   11.1970    3.8380  -57.9690 C   0  0  2  0  0  0  0  0  0  0  0  0
   10.0830    3.5130  -56.9290 C   0  0  0  0  0  0  0  0  0  0  0  0
    8.7760    4.3240  -57.1640 C   0  0  2  0  0  0  0  0  0  0  0  0
    8.8890    5.6440  -56.3590 C   0  0  0  0  0  0  0  0  0  0  0  0
    7.4280    3.6250  -56.7190 C   0  0  0  0  0  0  0  0  0  0  0  0
    7.4040    2.4410  -55.7760 C   0  0  0  0  0  0  0  0  0  0  0  0
    7.1140    1.1440  -56.0580 C   0  0  0  0  0  0  0  0  0  0  0  0
    7.1300    0.1960  -54.9220 C   0  0  0  0  0  0  0  0  0  0  0  0
    5.9380   -0.3330  -54.4040 C   0  0  0  0  0  0  0  0  0  0  0  0
    5.9700   -1.2150  -53.3210 C   0  0  0  0  0  0  0  0  0  0  0  0
    7.1920   -1.5650  -52.7500 C   0  0  0  0  0  0  0  0  0  0  0  0
    7.2310   -2.6520  -51.4160 Cl  0  0  0  0  0  0  0  0  0  0  0  0
    8.3830   -1.0420  -53.2500 C   0  0  0  0  0  0  0  0  0  0  0  0
    8.3520   -0.1590  -54.3330 C   0  0  0  0  0  0  0  0  0  0  0  0
    7.0090    0.6310  -57.4160 C   0  0  0  0  0  0  0  0  0  0  0  0
    6.1980    1.0750  -58.3930 C   0  0  0  0  0  0  0  0  0  0  0  0
    6.5530    1.1310  -59.7510 N   0  0  0  0  0  0  0  0  0  0  0  0
    7.5940    2.0000  -60.0800 C   0  0  0  0  0  0  0  0  0  0  0  0
    8.6960    2.2810  -59.3810 C   0  0  0  0  0  0  0  0  0  0  0  0
    9.2520    3.6420  -59.6460 C   0  0  2  0  0  0  0  0  0  0  0  0
    8.6500    4.7020  -58.6770 C   0  0  0  0  0  0  0  0  0  0  0  0
    8.7080    3.8220  -60.9690 N   0  0  0  0  0  0  0  0  0  0  0  0
    7.5640    3.0480  -61.1370 C   0  0  0  0  0  0  0  0  0  0  0  0
    6.6840    3.2040  -61.9610 O   0  0  0  0  0  0  0  0  0  0  0  0
   10.7860    3.6170  -59.4770 C   0  0  1  0  0  0  0  0  0  0  0  0
   11.4890    4.6580  -60.3610 C   0  0  0  0  0  0  0  0  0  0  0  0
   12.5742    2.9664  -56.5462 H   0  0  0  0  0  0  0  0  0  0  0  0
   12.3778    2.0277  -58.0651 H   0  0  0  0  0  0  0  0  0  0  0  0
   13.3385    3.5455  -58.0651 H   0  0  0  0  0  0  0  0  0  0  0  0
   11.3834    4.9184  -57.8798 H   0  0  0  0  0  0  0  0  0  0  0  0
    9.8463    2.4407  -56.9926 H   0  0  0  0  0  0  0  0  0  0  0  0
   10.4683    3.7905  -55.9368 H   0  0  0  0  0  0  0  0  0  0  0  0
    8.8698    5.4196  -55.2823 H   0  0  0  0  0  0  0  0  0  0  0  0
    9.8336    6.1479  -56.6117 H   0  0  0  0  0  0  0  0  0  0  0  0
    8.0438    6.3011  -56.6117 H   0  0  0  0  0  0  0  0  0  0  0  0
    6.8192    4.4080  -56.2434 H   0  0  0  0  0  0  0  0  0  0  0  0
    7.0841    3.1729  -57.6610 H   0  0  0  0  0  0  0  0  0  0  0  0
    7.6536    2.6589  -54.7271 H   0  0  0  0  0  0  0  0  0  0  0  0
    4.9738   -0.0519  -54.8528 H   0  0  0  0  0  0  0  0  0  0  0  0
    5.0340   -1.6316  -52.9205 H   0  0  0  0  0  0  0  0  0  0  0  0
    9.3438   -1.3230  -52.7941 H   0  0  0  0  0  0  0  0  0  0  0  0
    9.2907    0.2594  -54.7251 H   0  0  0  0  0  0  0  0  0  0  0  0
    7.6657   -0.2135  -57.6718 H   0  0  0  0  0  0  0  0  0  0  0  0
    5.1913    1.4164  -58.1102 H   0  0  0  0  0  0  0  0  0  0  0  0
    5.7520    1.3650  -60.3450 H   0  0  0  0  0  0  0  0  0  0  0  0
    9.1536    1.5739  -58.6734 H   0  0  0  0  0  0  0  0  0  0  0  0
    9.1725    5.6562  -58.8400 H   0  0  0  0  0  0  0  0  0  0  0  0
    7.5749    4.7646  -58.9013 H   0  0  0  0  0  0  0  0  0  0  0  0
    8.7600    4.6920  -61.4820 H   0  0  0  0  0  0  0  0  0  0  0  0
   11.1161    2.6188  -59.8005 H   0  0  0  0  0  0  0  0  0  0  0  0
   11.9908    5.4011  -59.7239 H   0  0  0  0  0  0  0  0  0  0  0  0
   12.2341    4.1565  -60.9961 H   0  0  0  0  0  0  0  0  0  0  0  0
   10.7455    5.1618  -60.9961 H   0  0  0  0  0  0  0  0  0  0  0  0
  1  2  1  0
  2  3  1  0
  3  4  1  0
  4  5  1  1
  4  6  1  0
  6  7  1  0
  7  8  2  0
  8  9  1  0
  9 10  1  0
 10 11  2  0
 11 12  1  0
 12 13  1  0
 12 14  2  0
 14 15  1  0
  8 16  1  0
 16 17  2  0
 17 18  1  0
 18 19  1  0
 19 20  2  0
 20 21  1  0
 21 22  1  0
 21 23  1  6
 23 24  1  0
 24 25  2  0
 21 26  1  0
 26 27  1  0
 26  2  1  0
 22  4  1  0
 15  9  2  0
 24 19  1  0
  1 28  1  0
  1 29  1  0
  1 30  1  0
  2 31  1  6
  3 32  1  0
  3 33  1  0
  5 34  1  0
  5 35  1  0
  5 36  1  0
  6 37  1  0
  6 38  1  0
  7 39  1  0
 10 40  1  0
 11 41  1  0
 14 42  1  0
 15 43  1  0
 16 44  1  0
 17 45  1  0
 18 46  1  0
 20 47  1  0
 22 48  1  0
 22 49  1  0
 23 50  1  0
 26 51  1  6
 27 52  1  0
 27 53  1  0
 27 54  1  0
M  END
>  <meeko>  (158) 
{"is_sidechain": false}

$$$$

     RDKit          3D

 54 57  0  0  0  0  0  0  0  0999 V2000
    5.2040   -4.1980  -50.4360 C   0  0  0  0  0  0  0  0  0  0  0  0
    6.3190   -3.2840  -50.9570 C   0  0  2  0  0  0  0  0  0  0  0  0
    5.6720   -2.1160  -51.7950 C   0  0  0  0  0  0  0  0  0  0  0  0
    6.5470   -1.6130  -52.9870 C   0  0  1  0  0  0  0  0  0  0  0  0
    6.1130   -2.4690  -54.2000 C   0  0  0  0  0  0  0  0  0  0  0  0
    6.2840   -0.1250  -53.3850 C   0  0  0  0  0  0  0  0  0  0  0  0
    7.0940    0.6330  -54.4590 C   0  0  0  0  0  0  0  0  0  0  0  0
    8.1740    0.4180  -55.2600 C   0  0  0  0  0  0  0  0  0  0  0  0
    8.5880    1.5770  -56.0950 C   0  0  0  0  0  0  0  0  0  0  0  0
    7.8060    1.9920  -57.1820 C   0  0  0  0  0  0  0  0  0  0  0  0
    8.1970    3.0900  -57.9540 C   0  0  0  0  0  0  0  0  0  0  0  0
    9.3670    3.7760  -57.6370 C   0  0  0  0  0  0  0  0  0  0  0  0
    9.8480    5.1280  -58.5860 Cl  0  0  0  0  0  0  0  0  0  0  0  0
   10.1500    3.3780  -56.5540 C   0  0  0  0  0  0  0  0  0  0  0  0
    9.7590    2.2800  -55.7820 C   0  0  0  0  0  0  0  0  0  0  0  0
    8.9350   -0.8170  -55.3560 C   0  0  0  0  0  0  0  0  0  0  0  0
   10.2470   -0.9770  -55.0980 C   0  0  0  0  0  0  0  0  0  0  0  0
   10.8920   -2.1960  -54.7880 N   0  0  0  0  0  0  0  0  0  0  0  0
   10.3670   -2.9270  -53.7180 C   0  0  0  0  0  0  0  0  0  0  0  0
    9.1440   -3.4690  -53.6000 C   0  0  0  0  0  0  0  0  0  0  0  0
    8.5460   -3.1150  -52.2570 C   0  0  2  0  0  0  0  0  0  0  0  0
    7.9670   -1.6890  -52.4050 C   0  0  0  0  0  0  0  0  0  0  0  0
    9.7660   -3.0190  -51.4890 N   0  0  0  0  0  0  0  0  0  0  0  0
   10.8210   -2.6800  -52.3150 C   0  0  0  0  0  0  0  0  0  0  0  0
   11.8950   -2.2120  -51.9860 O   0  0  0  0  0  0  0  0  0  0  0  0
    7.4630   -4.0770  -51.6890 C   0  0  1  0  0  0  0  0  0  0  0  0
    8.0710   -5.1830  -50.8140 C   0  0  0  0  0  0  0  0  0  0  0  0
    5.2099   -4.1932  -49.3360 H   0  0  0  0  0  0  0  0  0  0  0  0
    4.2316   -3.8337  -50.7991 H   0  0  0  0  0  0  0  0  0  0  0  0
    5.3704   -5.2229  -50.7991 H   0  0  0  0  0  0  0  0  0  0  0  0
    6.8475   -2.8210  -50.1106 H   0  0  0  0  0  0  0  0  0  0  0  0
    4.7133   -2.4732  -52.1992 H   0  0  0  0  0  0  0  0  0  0  0  0
    5.5584   -1.2639  -51.1086 H   0  0  0  0  0  0  0  0  0  0  0  0
    5.6423   -3.3973  -53.8440 H   0  0  0  0  0  0  0  0  0  0  0  0
    5.3929   -1.9031  -54.8093 H   0  0  0  0  0  0  0  0  0  0  0  0
    6.9951   -2.7154  -54.8093 H   0  0  0  0  0  0  0  0  0  0  0  0
    5.2361   -0.0849  -53.7170 H   0  0  0  0  0  0  0  0  0  0  0  0
    6.6035    0.3977  -52.4714 H   0  0  0  0  0  0  0  0  0  0  0  0
    6.6782    1.6377  -54.6252 H   0  0  0  0  0  0  0  0  0  0  0  0
    6.8804    1.4512  -57.4286 H   0  0  0  0  0  0  0  0  0  0  0  0
    7.5830    3.4109  -58.8084 H   0  0  0  0  0  0  0  0  0  0  0  0
   11.0717    3.9258  -56.3081 H   0  0  0  0  0  0  0  0  0  0  0  0
   10.3733    1.9666  -54.9251 H   0  0  0  0  0  0  0  0  0  0  0  0
    8.3818   -1.7137  -55.6721 H   0  0  0  0  0  0  0  0  0  0  0  0
   10.8754   -0.0748  -55.1316 H   0  0  0  0  0  0  0  0  0  0  0  0
   11.8700   -1.9860  -54.5480 H   0  0  0  0  0  0  0  0  0  0  0  0
    8.6493   -4.0813  -54.3684 H   0  0  0  0  0  0  0  0  0  0  0  0
    7.9509   -1.2238  -51.4083 H   0  0  0  0  0  0  0  0  0  0  0  0
    8.6181   -1.1699  -53.1238 H   0  0  0  0  0  0  0  0  0  0  0  0
    9.8060   -2.7050  -50.5300 H   0  0  0  0  0  0  0  0  0  0  0  0
    6.9981   -4.5901  -52.5437 H   0  0  0  0  0  0  0  0  0  0  0  0
    7.9315   -4.9293  -49.7528 H   0  0  0  0  0  0  0  0  0  0  0  0
    7.5714   -6.1386  -51.0312 H   0  0  0  0  0  0  0  0  0  0  0  0
    9.1455   -5.2733  -51.0312 H   0  0  0  0  0  0  0  0  0  0  0  0
  1  2  1  0
  2  3  1  0
  3  4  1  0
  4  5  1  6
  4  6  1  0
  6  7  1  0
  7  8  2  0
  8  9  1  0
  9 10  1  0
 10 11  2  0
 11 12  1  0
 12 13  1  0
 12 14  2  0
 14 15  1  0
  8 16  1  0
 16 17  2  0
 17 18  1  0
 18 19  1  0
 19 20  2  0
 20 21  1  0
 21 22  1  0
 21 23  1  1
 23 24  1  0
 24 25  2  0
 21 26  1  0
 26 27  1  0
 26  2  1  0
 22  4  1  0
 15  9  2  0
 24 19  1  0
  1 28  1  0
  1 29  1  0
  1 30  1  0
  2 31  1  1
  3 32  1  0
  3 33  1  0
  5 34  1  0
  5 35  1  0
  5 36  1  0
  6 37  1  0
  6 38  1  0
  7 39  1  0
 10 40  1  0
 11 41  1  0
 14 42  1  0
 15 43  1  0
 16 44  1  0
 17 45  1  0
 18 46  1  0
 20 47  1  0
 22 48  1  0
 22 49  1  0
 23 50  1  0
 26 51  1  6
 27 52  1  0
 27 53  1  0
 27 54  1  0
M  END
>  <meeko>  (159) 
{"is_sidechain": false}

$$$$

     RDKit          3D

 54 57  0  0  0  0  0  0  0  0999 V2000
   12.0420   -2.5990  -51.6180 C   0  0  0  0  0  0  0  0  0  0  0  0
   11.0550   -2.9130  -52.7510 C   0  0  2  0  0  0  0  0  0  0  0  0
   11.4100   -2.0230  -53.9500 C   0  0  0  0  0  0  0  0  0  0  0  0
   10.4390   -2.1490  -55.1510 C   0  0  2  0  0  0  0  0  0  0  0  0
   11.2680   -2.6300  -56.3770 C   0  0  0  0  0  0  0  0  0  0  0  0
    9.9350   -0.6650  -55.5620 C   0  0  0  0  0  0  0  0  0  0  0  0
    9.0500    0.1640  -54.6120 C   0  0  0  0  0  0  0  0  0  0  0  0
    7.9400    0.8750  -54.9680 C   0  0  0  0  0  0  0  0  0  0  0  0
    7.8610    1.3480  -56.3760 C   0  0  0  0  0  0  0  0  0  0  0  0
    8.9520    2.0330  -56.9300 C   0  0  0  0  0  0  0  0  0  0  0  0
    8.9100    2.4790  -58.2540 C   0  0  0  0  0  0  0  0  0  0  0  0
    7.7760    2.2420  -59.0280 C   0  0  0  0  0  0  0  0  0  0  0  0
    7.7250    2.7890  -60.6580 Cl  0  0  0  0  0  0  0  0  0  0  0  0
    6.6840    1.5610  -58.4920 C   0  0  0  0  0  0  0  0  0  0  0  0
    6.7270    1.1150  -57.1680 C   0  0  0  0  0  0  0  0  0  0  0  0
    6.6670    0.7710  -54.1680 C   0  0  0  0  0  0  0  0  0  0  0  0
    6.5210    0.2170  -52.9410 C   0  0  0  0  0  0  0  0  0  0  0  0
    5.7980   -1.0050  -52.7560 N   0  0  0  0  0  0  0  0  0  0  0  0
    6.5220   -2.1580  -53.0560 C   0  0  0  0  0  0  0  0  0  0  0  0
    7.5300   -2.2250  -53.9120 C   0  0  0  0  0  0  0  0  0  0  0  0
    8.5930   -3.1890  -53.5640 C   0  0  2  0  0  0  0  0  0  0  0  0
    9.3760   -3.3200  -54.8870 C   0  0  0  0  0  0  0  0  0  0  0  0
    7.6590   -4.1870  -53.1020 N   0  0  0  0  0  0  0  0  0  0  0  0
    6.5640   -3.5290  -52.4810 C   0  0  0  0  0  0  0  0  0  0  0  0
    5.8170   -3.9860  -51.6380 O   0  0  0  0  0  0  0  0  0  0  0  0
    9.5580   -2.7150  -52.3740 C   0  0  1  0  0  0  0  0  0  0  0  0
    9.2690   -3.3570  -50.9980 C   0  0  0  0  0  0  0  0  0  0  0  0
   11.5483   -2.7561  -50.6476 H   0  0  0  0  0  0  0  0  0  0  0  0
   12.9148   -3.2638  -51.6972 H   0  0  0  0  0  0  0  0  0  0  0  0
   12.3702   -1.5521  -51.6972 H   0  0  0  0  0  0  0  0  0  0  0  0
   11.1578   -3.9830  -52.9847 H   0  0  0  0  0  0  0  0  0  0  0  0
   11.4071   -0.9757  -53.6137 H   0  0  0  0  0  0  0  0  0  0  0  0
   12.3956   -2.3562  -54.3071 H   0  0  0  0  0  0  0  0  0  0  0  0
   12.1700   -3.1534  -56.0271 H   0  0  0  0  0  0  0  0  0  0  0  0
   10.6592   -3.3152  -56.9852 H   0  0  0  0  0  0  0  0  0  0  0  0
   11.5607   -1.7615  -56.9852 H   0  0  0  0  0  0  0  0  0  0  0  0
   10.8399   -0.0676  -55.7474 H   0  0  0  0  0  0  0  0  0  0  0  0
    9.2609   -0.8643  -56.4081 H   0  0  0  0  0  0  0  0  0  0  0  0
    9.3384    0.1851  -53.5507 H   0  0  0  0  0  0  0  0  0  0  0  0
    9.8469    2.2206  -56.3185 H   0  0  0  0  0  0  0  0  0  0  0  0
    9.7692    3.0152  -58.6834 H   0  0  0  0  0  0  0  0  0  0  0  0
    5.7921    1.3754  -59.1085 H   0  0  0  0  0  0  0  0  0  0  0  0
    5.8657    0.5777  -56.7443 H   0  0  0  0  0  0  0  0  0  0  0  0
    5.7605    1.1894  -54.6297 H   0  0  0  0  0  0  0  0  0  0  0  0
    6.9671    0.7162  -52.0682 H   0  0  0  0  0  0  0  0  0  0  0  0
    5.4350   -1.0980  -51.8050 H   0  0  0  0  0  0  0  0  0  0  0  0
    7.5726   -1.6052  -54.8198 H   0  0  0  0  0  0  0  0  0  0  0  0
    9.9168   -4.2777  -54.8724 H   0  0  0  0  0  0  0  0  0  0  0  0
    8.6340   -3.2564  -55.6966 H   0  0  0  0  0  0  0  0  0  0  0  0
    7.9430   -5.0730  -52.7060 H   0  0  0  0  0  0  0  0  0  0  0  0
    9.3368   -1.6442  -52.2539 H   0  0  0  0  0  0  0  0  0  0  0  0
    9.5794   -2.6674  -50.1992 H   0  0  0  0  0  0  0  0  0  0  0  0
    8.1920   -3.5616  -50.9078 H   0  0  0  0  0  0  0  0  0  0  0  0
    9.8299   -4.2989  -50.9078 H   0  0  0  0  0  0  0  0  0  0  0  0
  1  2  1  0
  2  3  1  0
  3  4  1  0
  4  5  1  6
  4  6  1  0
  6  7  1  0
  7  8  2  0
  8  9  1  0
  9 10  1  0
 10 11  2  0
 11 12  1  0
 12 13  1  0
 12 14  2  0
 14 15  1  0
  8 16  1  0
 16 17  2  0
 17 18  1  0
 18 19  1  0
 19 20  2  0
 20 21  1  0
 21 22  1  0
 21 23  1  1
 23 24  1  0
 24 25  2  0
 21 26  1  0
 26 27  1  0
 26  2  1  0
 22  4  1  0
 15  9  2  0
 24 19  1  0
  1 28  1  0
  1 29  1  0
  1 30  1  0
  2 31  1  6
  3 32  1  0
  3 33  1  0
  5 34  1  0
  5 35  1  0
  5 36  1  0
  6 37  1  0
  6 38  1  0
  7 39  1  0
 10 40  1  0
 11 41  1  0
 14 42  1  0
 15 43  1  0
 16 44  1  0
 17 45  1  0
 18 46  1  0
 20 47  1  0
 22 48  1  0
 22 49  1  0
 23 50  1  0
 26 51  1  1
 27 52  1  0
 27 53  1  0
 27 54  1  0
M  END
>  <meeko>  (160) 
{"is_sidechain": false}

$$$$

     RDKit          3D

 54 57  0  0  0  0  0  0  0  0999 V2000
   11.9660    5.4090  -58.8080 C   0  0  0  0  0  0  0  0  0  0  0  0
   10.4990    4.9830  -58.9310 C   0  0  2  0  0  0  0  0  0  0  0  0
    9.9270    4.7100  -57.4800 C   0  0  0  0  0  0  0  0  0  0  0  0
    8.8010    3.6460  -57.4310 C   0  0  1  0  0  0  0  0  0  0  0  0
    9.5070    2.2900  -57.1850 C   0  0  0  0  0  0  0  0  0  0  0  0
    7.7540    3.8060  -56.2440 C   0  0  0  0  0  0  0  0  0  0  0  0
    6.4550    3.0420  -56.5520 C   0  0  0  0  0  0  0  0  0  0  0  0
    6.1840    1.7110  -56.4690 C   0  0  0  0  0  0  0  0  0  0  0  0
    6.7590    0.8460  -55.3960 C   0  0  0  0  0  0  0  0  0  0  0  0
    8.1090    0.4640  -55.3690 C   0  0  0  0  0  0  0  0  0  0  0  0
    8.6120   -0.3730  -54.3640 C   0  0  0  0  0  0  0  0  0  0  0  0
    7.7610   -0.8650  -53.3820 C   0  0  0  0  0  0  0  0  0  0  0  0
    8.3770   -1.8920  -52.1480 Cl  0  0  0  0  0  0  0  0  0  0  0  0
    6.4100   -0.5400  -53.4040 C   0  0  0  0  0  0  0  0  0  0  0  0
    5.9160    0.2970  -54.4110 C   0  0  0  0  0  0  0  0  0  0  0  0
    5.5480    1.2010  -57.7200 C   0  0  0  0  0  0  0  0  0  0  0  0
    6.3510    0.6450  -58.6540 C   0  0  0  0  0  0  0  0  0  0  0  0
    6.3310    0.7830  -60.0510 N   0  0  0  0  0  0  0  0  0  0  0  0
    7.3110    1.6320  -60.6000 C   0  0  0  0  0  0  0  0  0  0  0  0
    8.5600    1.8610  -60.1470 C   0  0  0  0  0  0  0  0  0  0  0  0
    8.8090    3.3540  -60.0440 C   0  0  2  0  0  0  0  0  0  0  0  0
    8.0680    3.8430  -58.7780 C   0  0  0  0  0  0  0  0  0  0  0  0
    8.0180    3.7630  -61.1840 N   0  0  0  0  0  0  0  0  0  0  0  0
    6.9580    2.8810  -61.3480 C   0  0  0  0  0  0  0  0  0  0  0  0
    5.9020    3.0980  -61.9120 O   0  0  0  0  0  0  0  0  0  0  0  0
   10.2900    3.8220  -59.9830 C   0  0  1  0  0  0  0  0  0  0  0  0
   10.8330    4.1800  -61.3730 C   0  0  0  0  0  0  0  0  0  0  0  0
   12.2370    5.4877  -57.7448 H   0  0  0  0  0  0  0  0  0  0  0  0
   12.6074    4.6600  -59.2954 H   0  0  0  0  0  0  0  0  0  0  0  0
   12.1065    6.3850  -59.2954 H   0  0  0  0  0  0  0  0  0  0  0  0
    9.8979    5.7982  -59.3601 H   0  0  0  0  0  0  0  0  0  0  0  0
   10.7545    4.3662  -56.8420 H   0  0  0  0  0  0  0  0  0  0  0  0
    9.4845    5.6549  -57.1316 H   0  0  0  0  0  0  0  0  0  0  0  0
    9.5981    2.1150  -56.1028 H   0  0  0  0  0  0  0  0  0  0  0  0
    8.9156    1.4811  -57.6387 H   0  0  0  0  0  0  0  0  0  0  0  0
   10.5089    2.3106  -57.6387 H   0  0  0  0  0  0  0  0  0  0  0  0
    8.1952    3.4079  -55.3183 H   0  0  0  0  0  0  0  0  0  0  0  0
    7.5150    4.8734  -56.1273 H   0  0  0  0  0  0  0  0  0  0  0  0
    5.6163    3.6676  -56.8915 H   0  0  0  0  0  0  0  0  0  0  0  0
    8.7873    0.8296  -56.1540 H   0  0  0  0  0  0  0  0  0  0  0  0
    9.6790   -0.6401  -54.3525 H   0  0  0  0  0  0  0  0  0  0  0  0
    5.7327   -0.9384  -52.6342 H   0  0  0  0  0  0  0  0  0  0  0  0
    4.8416    0.5320  -54.4335 H   0  0  0  0  0  0  0  0  0  0  0  0
    4.4617    1.2754  -57.8762 H   0  0  0  0  0  0  0  0  0  0  0  0
    7.1385   -0.0147  -58.2607 H   0  0  0  0  0  0  0  0  0  0  0  0
    5.4200    1.1190  -60.3780 H   0  0  0  0  0  0  0  0  0  0  0  0
    9.2910    1.0802  -59.8899 H   0  0  0  0  0  0  0  0  0  0  0  0
    7.8740    4.9190  -58.8988 H   0  0  0  0  0  0  0  0  0  0  0  0
    7.1634    3.2207  -58.7112 H   0  0  0  0  0  0  0  0  0  0  0  0
    7.8450    4.7310  -61.4210 H   0  0  0  0  0  0  0  0  0  0  0  0
   10.8866    2.9697  -59.6258 H   0  0  0  0  0  0  0  0  0  0  0  0
   11.7470    4.7826  -61.2656 H   0  0  0  0  0  0  0  0  0  0  0  0
   11.0650    3.2572  -61.9249 H   0  0  0  0  0  0  0  0  0  0  0  0
   10.0762    4.7569  -61.9249 H   0  0  0  0  0  0  0  0  0  0  0  0
  1  2  1  0
  2  3  1  0
  3  4  1  0
  4  5  1  6
  4  6  1  0
  6  7  1  0
  7  8  2  0
  8  9  1  0
  9 10  1  0
 10 11  2  0
 11 12  1  0
 12 13  1  0
 12 14  2  0
 14 15  1  0
  8 16  1  0
 16 17  2  0
 17 18  1  0
 18 19  1  0
 19 20  2  0
 20 21  1  0
 21 22  1  0
 21 23  1  6
 23 24  1  0
 24 25  2  0
 21 26  1  0
 26 27  1  0
 26  2  1  0
 22  4  1  0
 15  9  2  0
 24 19  1  0
  1 28  1  0
  1 29  1  0
  1 30  1  0
  2 31  1  6
  3 32  1  0
  3 33  1  0
  5 34  1  0
  5 35  1  0
  5 36  1  0
  6 37  1  0
  6 38  1  0
  7 39  1  0
 10 40  1  0
 11 41  1  0
 14 42  1  0
 15 43  1  0
 16 44  1  0
 17 45  1  0
 18 46  1  0
 20 47  1  0
 22 48  1  0
 22 49  1  0
 23 50  1  0
 26 51  1  1
 27 52  1  0
 27 53  1  0
 27 54  1  0
M  END
>  <meeko>  (161) 
{"is_sidechain": false}

$$$$

     RDKit          3D

 54 57  0  0  0  0  0  0  0  0999 V2000
   10.2450    2.5080  -61.0930 C   0  0  0  0  0  0  0  0  0  0  0  0
    9.4100    3.1680  -59.9880 C   0  0  2  0  0  0  0  0  0  0  0  0
   10.1020    2.9610  -58.6260 C   0  0  0  0  0  0  0  0  0  0  0  0
    9.3950    3.7170  -57.4650 C   0  0  2  0  0  0  0  0  0  0  0  0
    9.9610    5.1620  -57.4040 C   0  0  0  0  0  0  0  0  0  0  0  0
    9.6530    3.0890  -56.0320 C   0  0  0  0  0  0  0  0  0  0  0  0
    9.9240    1.6090  -55.9190 C   0  0  0  0  0  0  0  0  0  0  0  0
    9.2570    0.6460  -55.2450 C   0  0  0  0  0  0  0  0  0  0  0  0
    9.8460   -0.7160  -55.3120 C   0  0  0  0  0  0  0  0  0  0  0  0
    9.2510   -1.7870  -54.6270 C   0  0  0  0  0  0  0  0  0  0  0  0
    9.8050   -3.0680  -54.6990 C   0  0  0  0  0  0  0  0  0  0  0  0
   10.9520   -3.2840  -55.4620 C   0  0  0  0  0  0  0  0  0  0  0  0
   11.6320   -4.8620  -55.5500 Cl  0  0  0  0  0  0  0  0  0  0  0  0
   11.5470   -2.2330  -56.1550 C   0  0  0  0  0  0  0  0  0  0  0  0
   10.9930   -0.9520  -56.0820 C   0  0  0  0  0  0  0  0  0  0  0  0
    8.0650    0.8640  -54.4330 C   0  0  0  0  0  0  0  0  0  0  0  0
    6.7710    0.7100  -54.7600 C   0  0  0  0  0  0  0  0  0  0  0  0
    6.0870    0.4530  -55.9450 N   0  0  0  0  0  0  0  0  0  0  0  0
    6.2920    1.2250  -57.0630 C   0  0  0  0  0  0  0  0  0  0  0  0
    7.3650    1.4450  -57.8240 C   0  0  0  0  0  0  0  0  0  0  0  0
    7.2640    2.7180  -58.6090 C   0  0  2  0  0  0  0  0  0  0  0  0
    7.8740    3.8620  -57.7650 C   0  0  0  0  0  0  0  0  0  0  0  0
    5.8270    2.8530  -58.6240 N   0  0  0  0  0  0  0  0  0  0  0  0
    5.2490    2.1460  -57.5920 C   0  0  0  0  0  0  0  0  0  0  0  0
    4.1120    2.2470  -57.1720 O   0  0  0  0  0  0  0  0  0  0  0  0
    7.9350    2.6360  -60.0070 C   0  0  1  0  0  0  0  0  0  0  0  0
    7.1430    3.3960  -61.0850 C   0  0  0  0  0  0  0  0  0  0  0  0
   11.0306    1.8871  -60.6376 H   0  0  0  0  0  0  0  0  0  0  0  0
    9.5946    1.8772  -61.7168 H   0  0  0  0  0  0  0  0  0  0  0  0
   10.7085    3.2865  -61.7168 H   0  0  0  0  0  0  0  0  0  0  0  0
    9.3471    4.2512  -60.1691 H   0  0  0  0  0  0  0  0  0  0  0  0
   10.1049    1.8858  -58.3939 H   0  0  0  0  0  0  0  0  0  0  0  0
   11.1216    3.3653  -58.7097 H   0  0  0  0  0  0  0  0  0  0  0  0
   10.0798    5.4652  -56.3533 H   0  0  0  0  0  0  0  0  0  0  0  0
   10.9383    5.1945  -57.9077 H   0  0  0  0  0  0  0  0  0  0  0  0
    9.2658    5.8497  -57.9077 H   0  0  0  0  0  0  0  0  0  0  0  0
   10.5225    3.6093  -55.6040 H   0  0  0  0  0  0  0  0  0  0  0  0
    8.6941    3.2218  -55.5097 H   0  0  0  0  0  0  0  0  0  0  0  0
   10.8060    1.2574  -56.4743 H   0  0  0  0  0  0  0  0  0  0  0  0
    8.3430   -1.6170  -54.0298 H   0  0  0  0  0  0  0  0  0  0  0  0
    9.3380   -3.9028  -54.1558 H   0  0  0  0  0  0  0  0  0  0  0  0
   12.4499   -2.4103  -56.7578 H   0  0  0  0  0  0  0  0  0  0  0  0
   11.4607   -0.1228  -56.6330 H   0  0  0  0  0  0  0  0  0  0  0  0
    8.2528    1.2037  -53.4038 H   0  0  0  0  0  0  0  0  0  0  0  0
    6.0993    0.8096  -53.8946 H   0  0  0  0  0  0  0  0  0  0  0  0
    5.0770    0.4460  -55.7620 H   0  0  0  0  0  0  0  0  0  0  0  0
    8.2295    0.7665  -57.8705 H   0  0  0  0  0  0  0  0  0  0  0  0
    7.7215    4.8061  -58.3084 H   0  0  0  0  0  0  0  0  0  0  0  0
    7.3635    3.8325  -56.7911 H   0  0  0  0  0  0  0  0  0  0  0  0
    5.3320    3.6590  -58.9820 H   0  0  0  0  0  0  0  0  0  0  0  0
    7.9426    1.5661  -60.2626 H   0  0  0  0  0  0  0  0  0  0  0  0
    6.4299    4.0803  -60.6020 H   0  0  0  0  0  0  0  0  0  0  0  0
    7.8383    3.9736  -61.7119 H   0  0  0  0  0  0  0  0  0  0  0  0
    6.5945    2.6775  -61.7119 H   0  0  0  0  0  0  0  0  0  0  0  0
  1  2  1  0
  2  3  1  0
  3  4  1  0
  4  5  1  1
  4  6  1  0
  6  7  1  0
  7  8  2  0
  8  9  1  0
  9 10  1  0
 10 11  2  0
 11 12  1  0
 12 13  1  0
 12 14  2  0
 14 15  1  0
  8 16  1  0
 16 17  2  0
 17 18  1  0
 18 19  1  0
 19 20  2  0
 20 21  1  0
 21 22  1  0
 21 23  1  6
 23 24  1  0
 24 25  2  0
 21 26  1  0
 26 27  1  0
 26  2  1  0
 22  4  1  0
 15  9  2  0
 24 19  1  0
  1 28  1  0
  1 29  1  0
  1 30  1  0
  2 31  1  6
  3 32  1  0
  3 33  1  0
  5 34  1  0
  5 35  1  0
  5 36  1  0
  6 37  1  0
  6 38  1  0
  7 39  1  0
 10 40  1  0
 11 41  1  0
 14 42  1  0
 15 43  1  0
 16 44  1  0
 17 45  1  0
 18 46  1  0
 20 47  1  0
 22 48  1  0
 22 49  1  0
 23 50  1  0
 26 51  1  6
 27 52  1  0
 27 53  1  0
 27 54  1  0
M  END
>  <meeko>  (162) 
{"is_sidechain": false}

$$$$

     RDKit          3D

 54 57  0  0  0  0  0  0  0  0999 V2000
   11.8890    5.5720  -60.0350 C   0  0  0  0  0  0  0  0  0  0  0  0
   10.4250    5.1490  -59.8740 C   0  0  2  0  0  0  0  0  0  0  0  0
   10.0260    5.2540  -58.3390 C   0  0  0  0  0  0  0  0  0  0  0  0
    9.1160    4.0940  -57.8780 C   0  0  1  0  0  0  0  0  0  0  0  0
   10.0910    2.9330  -57.5270 C   0  0  0  0  0  0  0  0  0  0  0  0
    8.1980    4.3150  -56.6270 C   0  0  0  0  0  0  0  0  0  0  0  0
    7.7470    2.9880  -56.0100 C   0  0  0  0  0  0  0  0  0  0  0  0
    6.7900    2.0750  -56.3170 C   0  0  0  0  0  0  0  0  0  0  0  0
    6.8240    0.8480  -55.4770 C   0  0  0  0  0  0  0  0  0  0  0  0
    5.6580    0.4030  -54.8400 C   0  0  0  0  0  0  0  0  0  0  0  0
    5.6840   -0.7450  -54.0460 C   0  0  0  0  0  0  0  0  0  0  0  0
    6.8760   -1.4470  -53.8840 C   0  0  0  0  0  0  0  0  0  0  0  0
    6.9090   -2.8630  -52.9060 Cl  0  0  0  0  0  0  0  0  0  0  0  0
    8.0450   -1.0110  -54.5080 C   0  0  0  0  0  0  0  0  0  0  0  0
    8.0200    0.1360  -55.3020 C   0  0  0  0  0  0  0  0  0  0  0  0
    5.7110    2.2010  -57.2910 C   0  0  0  0  0  0  0  0  0  0  0  0
    5.5130    1.5740  -58.4690 C   0  0  0  0  0  0  0  0  0  0  0  0
    6.3170    0.7830  -59.3150 N   0  0  0  0  0  0  0  0  0  0  0  0
    7.1790    1.4680  -60.1740 C   0  0  0  0  0  0  0  0  0  0  0  0
    8.4660    1.7860  -59.9590 C   0  0  0  0  0  0  0  0  0  0  0  0
    8.6790    3.2500  -60.2840 C   0  0  2  0  0  0  0  0  0  0  0  0
    8.1380    3.9890  -59.0570 C   0  0  0  0  0  0  0  0  0  0  0  0
    7.7120    3.3860  -61.3470 N   0  0  0  0  0  0  0  0  0  0  0  0
    6.6870    2.4770  -61.1660 C   0  0  0  0  0  0  0  0  0  0  0  0
    5.5810    2.5080  -61.6720 O   0  0  0  0  0  0  0  0  0  0  0  0
   10.1150    3.7640  -60.5950 C   0  0  1  0  0  0  0  0  0  0  0  0
   10.3960    3.8260  -62.1050 C   0  0  0  0  0  0  0  0  0  0  0  0
   12.3440    5.7035  -59.0422 H   0  0  0  0  0  0  0  0  0  0  0  0
   12.4363    4.7952  -60.5892 H   0  0  0  0  0  0  0  0  0  0  0  0
   11.9377    6.5209  -60.5892 H   0  0  0  0  0  0  0  0  0  0  0  0
    9.7572    5.8408  -60.4083 H   0  0  0  0  0  0  0  0  0  0  0  0
   10.9452    5.2414  -57.7350 H   0  0  0  0  0  0  0  0  0  0  0  0
    9.4638    6.1900  -58.2055 H   0  0  0  0  0  0  0  0  0  0  0  0
   10.1703    2.8386  -56.4339 H   0  0  0  0  0  0  0  0  0  0  0  0
    9.7082    1.9923  -57.9495 H   0  0  0  0  0  0  0  0  0  0  0  0
   11.0837    3.1475  -57.9495 H   0  0  0  0  0  0  0  0  0  0  0  0
    8.7572    4.8868  -55.8718 H   0  0  0  0  0  0  0  0  0  0  0  0
    7.3013    4.8620  -56.9537 H   0  0  0  0  0  0  0  0  0  0  0  0
    8.3288    2.7127  -55.1180 H   0  0  0  0  0  0  0  0  0  0  0  0
    4.7182    0.9605  -54.9661 H   0  0  0  0  0  0  0  0  0  0  0  0
    4.7662   -1.0939  -53.5500 H   0  0  0  0  0  0  0  0  0  0  0  0
    8.9832   -1.5695  -54.3745 H   0  0  0  0  0  0  0  0  0  0  0  0
    8.9413    0.4832  -55.7925 H   0  0  0  0  0  0  0  0  0  0  0  0
    4.9302    2.9269  -57.0201 H   0  0  0  0  0  0  0  0  0  0  0  0
    4.4931    1.7109  -58.8575 H   0  0  0  0  0  0  0  0  0  0  0  0
    5.6640    0.2990  -59.9430 H   0  0  0  0  0  0  0  0  0  0  0  0
    9.2426    1.0929  -59.6032 H   0  0  0  0  0  0  0  0  0  0  0  0
    7.8655    5.0090  -59.3659 H   0  0  0  0  0  0  0  0  0  0  0  0
    7.2833    3.3986  -58.6952 H   0  0  0  0  0  0  0  0  0  0  0  0
    7.4790    4.2660  -61.7890 H   0  0  0  0  0  0  0  0  0  0  0  0
   10.8108    3.0233  -60.1742 H   0  0  0  0  0  0  0  0  0  0  0  0
   11.4579    4.0603  -62.2710 H   0  0  0  0  0  0  0  0  0  0  0  0
   10.1591    2.8540  -62.5623 H   0  0  0  0  0  0  0  0  0  0  0  0
    9.7721    4.6081  -62.5623 H   0  0  0  0  0  0  0  0  0  0  0  0
  1  2  1  0
  2  3  1  0
  3  4  1  0
  4  5  1  1
  4  6  1  0
  6  7  1  0
  7  8  2  0
  8  9  1  0
  9 10  1  0
 10 11  2  0
 11 12  1  0
 12 13  1  0
 12 14  2  0
 14 15  1  0
  8 16  1  0
 16 17  2  0
 17 18  1  0
 18 19  1  0
 19 20  2  0
 20 21  1  0
 21 22  1  0
 21 23  1  6
 23 24  1  0
 24 25  2  0
 21 26  1  0
 26 27  1  0
 26  2  1  0
 22  4  1  0
 15  9  2  0
 24 19  1  0
  1 28  1  0
  1 29  1  0
  1 30  1  0
  2 31  1  6
  3 32  1  0
  3 33  1  0
  5 34  1  0
  5 35  1  0
  5 36  1  0
  6 37  1  0
  6 38  1  0
  7 39  1  0
 10 40  1  0
 11 41  1  0
 14 42  1  0
 15 43  1  0
 16 44  1  0
 17 45  1  0
 18 46  1  0
 20 47  1  0
 22 48  1  0
 22 49  1  0
 23 50  1  0
 26 51  1  1
 27 52  1  0
 27 53  1  0
 27 54  1  0
M  END
>  <meeko>  (163) 
{"is_sidechain": false}

$$$$

     RDKit          3D

 54 57  0  0  0  0  0  0  0  0999 V2000
    3.5480    2.8660  -61.7590 C   0  0  0  0  0  0  0  0  0  0  0  0
    4.8080    2.1130  -61.3170 C   0  0  2  0  0  0  0  0  0  0  0  0
    4.7830    1.9060  -59.7890 C   0  0  0  0  0  0  0  0  0  0  0  0
    5.9960    1.0870  -59.2700 C   0  0  2  0  0  0  0  0  0  0  0  0
    5.6840   -0.4210  -59.4740 C   0  0  0  0  0  0  0  0  0  0  0  0
    6.2050    1.2690  -57.7230 C   0  0  0  0  0  0  0  0  0  0  0  0
    6.7050    2.6170  -57.2550 C   0  0  0  0  0  0  0  0  0  0  0  0
    7.9210    2.9440  -56.7630 C   0  0  0  0  0  0  0  0  0  0  0  0
    8.9250    1.8970  -56.4630 C   0  0  0  0  0  0  0  0  0  0  0  0
   10.1540    1.8850  -57.1410 C   0  0  0  0  0  0  0  0  0  0  0  0
   11.1000    0.8920  -56.8760 C   0  0  0  0  0  0  0  0  0  0  0  0
   10.8160   -0.1020  -55.9410 C   0  0  0  0  0  0  0  0  0  0  0  0
   11.9810   -1.3240  -55.6130 Cl  0  0  0  0  0  0  0  0  0  0  0  0
    9.5940   -0.1130  -55.2730 C   0  0  0  0  0  0  0  0  0  0  0  0
    8.6480    0.8810  -55.5390 C   0  0  0  0  0  0  0  0  0  0  0  0
    8.2260    4.3460  -56.4820 C   0  0  0  0  0  0  0  0  0  0  0  0
    8.6460    5.3030  -57.3300 C   0  0  0  0  0  0  0  0  0  0  0  0
    8.8620    5.3500  -58.6960 N   0  0  0  0  0  0  0  0  0  0  0  0
    8.4470    4.4470  -59.6350 C   0  0  0  0  0  0  0  0  0  0  0  0
    7.2470    3.9180  -59.8800 C   0  0  0  0  0  0  0  0  0  0  0  0
    7.2720    2.7650  -60.8390 C   0  0  2  0  0  0  0  0  0  0  0  0
    7.2830    1.4120  -60.0830 C   0  0  0  0  0  0  0  0  0  0  0  0
    8.5730    3.0020  -61.4230 N   0  0  0  0  0  0  0  0  0  0  0  0
    9.3440    3.8460  -60.6540 C   0  0  0  0  0  0  0  0  0  0  0  0
   10.5360    4.0650  -60.7710 O   0  0  0  0  0  0  0  0  0  0  0  0
    6.0930    2.8360  -61.8430 C   0  0  1  0  0  0  0  0  0  0  0  0
    6.4560    2.2560  -63.2220 C   0  0  0  0  0  0  0  0  0  0  0  0
    2.9899    3.1995  -60.8717 H   0  0  0  0  0  0  0  0  0  0  0  0
    3.8357    3.7404  -62.3612 H   0  0  0  0  0  0  0  0  0  0  0  0
    2.9142    2.1984  -62.3612 H   0  0  0  0  0  0  0  0  0  0  0  0
    4.8292    1.1092  -61.7663 H   0  0  0  0  0  0  0  0  0  0  0  0
    4.7906    2.8919  -59.3011 H   0  0  0  0  0  0  0  0  0  0  0  0
    3.8731    1.3368  -59.5479 H   0  0  0  0  0  0  0  0  0  0  0  0
    5.5828   -0.9103  -58.4940 H   0  0  0  0  0  0  0  0  0  0  0  0
    4.7446   -0.5283  -60.0362 H   0  0  0  0  0  0  0  0  0  0  0  0
    6.5037   -0.8922  -60.0362 H   0  0  0  0  0  0  0  0  0  0  0  0
    5.2376    1.0847  -57.2329 H   0  0  0  0  0  0  0  0  0  0  0  0
    7.0011    0.5587  -57.4553 H   0  0  0  0  0  0  0  0  0  0  0  0
    5.9818    3.4430  -57.3242 H   0  0  0  0  0  0  0  0  0  0  0  0
   10.3738    2.6634  -57.8866 H   0  0  0  0  0  0  0  0  0  0  0  0
   12.0654    0.8944  -57.4032 H   0  0  0  0  0  0  0  0  0  0  0  0
    9.3740   -0.9015  -54.5383 H   0  0  0  0  0  0  0  0  0  0  0  0
    7.6788    0.8654  -55.0190 H   0  0  0  0  0  0  0  0  0  0  0  0
    8.0944    4.6612  -55.4364 H   0  0  0  0  0  0  0  0  0  0  0  0
    8.8656    6.2564  -56.8272 H   0  0  0  0  0  0  0  0  0  0  0  0
    9.7620    5.7660  -58.9430 H   0  0  0  0  0  0  0  0  0  0  0  0
    6.3215    4.2940  -59.4196 H   0  0  0  0  0  0  0  0  0  0  0  0
    7.4270    0.6114  -60.8235 H   0  0  0  0  0  0  0  0  0  0  0  0
    8.0953    1.4855  -59.3450 H   0  0  0  0  0  0  0  0  0  0  0  0
    9.0330    2.3790  -62.0710 H   0  0  0  0  0  0  0  0  0  0  0  0
    5.8799    3.9099  -61.9497 H   0  0  0  0  0  0  0  0  0  0  0  0
    7.0353    1.3304  -63.0895 H   0  0  0  0  0  0  0  0  0  0  0  0
    5.5347    2.0351  -63.7809 H   0  0  0  0  0  0  0  0  0  0  0  0
    7.0574    2.9881  -63.7809 H   0  0  0  0  0  0  0  0  0  0  0  0
  1  2  1  0
  2  3  1  0
  3  4  1  0
  4  5  1  1
  4  6  1  0
  6  7  1  0
  7  8  2  0
  8  9  1  0
  9 10  1  0
 10 11  2  0
 11 12  1  0
 12 13  1  0
 12 14  2  0
 14 15  1  0
  8 16  1  0
 16 17  2  0
 17 18  1  0
 18 19  1  0
 19 20  2  0
 20 21  1  0
 21 22  1  0
 21 23  1  6
 23 24  1  0
 24 25  2  0
 21 26  1  0
 26 27  1  0
 26  2  1  0
 22  4  1  0
 15  9  2  0
 24 19  1  0
  1 28  1  0
  1 29  1  0
  1 30  1  0
  2 31  1  6
  3 32  1  0
  3 33  1  0
  5 34  1  0
  5 35  1  0
  5 36  1  0
  6 37  1  0
  6 38  1  0
  7 39  1  0
 10 40  1  0
 11 41  1  0
 14 42  1  0
 15 43  1  0
 16 44  1  0
 17 45  1  0
 18 46  1  0
 20 47  1  0
 22 48  1  0
 22 49  1  0
 23 50  1  0
 26 51  1  6
 27 52  1  0
 27 53  1  0
 27 54  1  0
M  END
>  <meeko>  (164) 
{"is_sidechain": false}

$$$$

     RDKit          3D

 54 57  0  0  0  0  0  0  0  0999 V2000
    8.9310   -1.1950  -54.6050 C   0  0  0  0  0  0  0  0  0  0  0  0
    9.3100    0.2260  -55.0400 C   0  0  2  0  0  0  0  0  0  0  0  0
    7.9800    1.1160  -55.1010 C   0  0  0  0  0  0  0  0  0  0  0  0
    7.9610    2.0030  -56.3630 C   0  0  1  0  0  0  0  0  0  0  0  0
    7.4560    1.0210  -57.4580 C   0  0  0  0  0  0  0  0  0  0  0  0
    7.0170    3.2520  -56.4730 C   0  0  0  0  0  0  0  0  0  0  0  0
    7.4690    4.1400  -57.6550 C   0  0  0  0  0  0  0  0  0  0  0  0
    7.3240    3.9910  -58.9940 C   0  0  0  0  0  0  0  0  0  0  0  0
    6.2380    3.1640  -59.5870 C   0  0  0  0  0  0  0  0  0  0  0  0
    5.0000    3.0200  -58.9410 C   0  0  0  0  0  0  0  0  0  0  0  0
    3.9730    2.2700  -59.5220 C   0  0  0  0  0  0  0  0  0  0  0  0
    4.1700    1.6720  -60.7640 C   0  0  0  0  0  0  0  0  0  0  0  0
    2.9070    0.7480  -61.4780 Cl  0  0  0  0  0  0  0  0  0  0  0  0
    5.3810    1.8240  -61.4340 C   0  0  0  0  0  0  0  0  0  0  0  0
    6.4060    2.5740  -60.8520 C   0  0  0  0  0  0  0  0  0  0  0  0
    8.2170    4.7470  -59.8890 C   0  0  0  0  0  0  0  0  0  0  0  0
    9.5170    4.6070  -60.2230 C   0  0  0  0  0  0  0  0  0  0  0  0
   10.6270    3.8130  -59.9330 N   0  0  0  0  0  0  0  0  0  0  0  0
   10.8240    2.9620  -58.8760 C   0  0  0  0  0  0  0  0  0  0  0  0
   10.2330    1.8350  -58.4650 C   0  0  0  0  0  0  0  0  0  0  0  0
   10.4340    1.6350  -56.9750 C   0  0  2  0  0  0  0  0  0  0  0  0
    9.4120    2.5580  -56.3290 C   0  0  0  0  0  0  0  0  0  0  0  0
   11.7280    2.2580  -56.8550 N   0  0  0  0  0  0  0  0  0  0  0  0
   11.8890    3.2090  -57.8500 C   0  0  0  0  0  0  0  0  0  0  0  0
   12.7210    4.0960  -57.8890 O   0  0  0  0  0  0  0  0  0  0  0  0
   10.2600    0.2200  -56.3370 C   0  0  1  0  0  0  0  0  0  0  0  0
   11.6110   -0.4480  -56.0390 C   0  0  0  0  0  0  0  0  0  0  0  0
    8.9162   -1.2505  -53.5065 H   0  0  0  0  0  0  0  0  0  0  0  0
    7.9347   -1.4454  -54.9982 H   0  0  0  0  0  0  0  0  0  0  0  0
    9.6703   -1.9083  -54.9982 H   0  0  0  0  0  0  0  0  0  0  0  0
    9.9535    0.7212  -54.2980 H   0  0  0  0  0  0  0  0  0  0  0  0
    7.1036    0.4513  -55.1161 H   0  0  0  0  0  0  0  0  0  0  0  0
    7.9560    1.7685  -54.2157 H   0  0  0  0  0  0  0  0  0  0  0  0
    7.0030    0.1401  -56.9798 H   0  0  0  0  0  0  0  0  0  0  0  0
    6.7052    1.5249  -58.0844 H   0  0  0  0  0  0  0  0  0  0  0  0
    8.3026    0.7034  -58.0844 H   0  0  0  0  0  0  0  0  0  0  0  0
    5.9832    2.9160  -56.6417 H   0  0  0  0  0  0  0  0  0  0  0  0
    7.0676    3.8319  -55.5397 H   0  0  0  0  0  0  0  0  0  0  0  0
    8.0026    5.0544  -57.3563 H   0  0  0  0  0  0  0  0  0  0  0  0
    4.8360    3.5029  -57.9663 H   0  0  0  0  0  0  0  0  0  0  0  0
    3.0122    2.1527  -58.9995 H   0  0  0  0  0  0  0  0  0  0  0  0
    5.5302    1.3553  -62.4179 H   0  0  0  0  0  0  0  0  0  0  0  0
    7.3564    2.7045  -61.3903 H   0  0  0  0  0  0  0  0  0  0  0  0
    7.7251    5.5968  -60.3849 H   0  0  0  0  0  0  0  0  0  0  0  0
    9.7914    5.3683  -60.9680 H   0  0  0  0  0  0  0  0  0  0  0  0
   11.4830    4.3640  -60.0620 H   0  0  0  0  0  0  0  0  0  0  0  0
    9.6769    1.1468  -59.1185 H   0  0  0  0  0  0  0  0  0  0  0  0
    9.6997    2.7142  -55.2789 H   0  0  0  0  0  0  0  0  0  0  0  0
    9.4124    3.4937  -56.9074 H   0  0  0  0  0  0  0  0  0  0  0  0
   12.2070    2.4140  -55.9790 H   0  0  0  0  0  0  0  0  0  0  0  0
    9.7473   -0.3888  -57.0963 H   0  0  0  0  0  0  0  0  0  0  0  0
   11.7531   -0.5183  -54.9505 H   0  0  0  0  0  0  0  0  0  0  0  0
   11.6255   -1.4571  -56.4766 H   0  0  0  0  0  0  0  0  0  0  0  0
   12.4217    0.1531  -56.4766 H   0  0  0  0  0  0  0  0  0  0  0  0
  1  2  1  0
  2  3  1  0
  3  4  1  0
  4  5  1  6
  4  6  1  0
  6  7  1  0
  7  8  2  0
  8  9  1  0
  9 10  1  0
 10 11  2  0
 11 12  1  0
 12 13  1  0
 12 14  2  0
 14 15  1  0
  8 16  1  0
 16 17  2  0
 17 18  1  0
 18 19  1  0
 19 20  2  0
 20 21  1  0
 21 22  1  0
 21 23  1  1
 23 24  1  0
 24 25  2  0
 21 26  1  0
 26 27  1  0
 26  2  1  0
 22  4  1  0
 15  9  2  0
 24 19  1  0
  1 28  1  0
  1 29  1  0
  1 30  1  0
  2 31  1  1
  3 32  1  0
  3 33  1  0
  5 34  1  0
  5 35  1  0
  5 36  1  0
  6 37  1  0
  6 38  1  0
  7 39  1  0
 10 40  1  0
 11 41  1  0
 14 42  1  0
 15 43  1  0
 16 44  1  0
 17 45  1  0
 18 46  1  0
 20 47  1  0
 22 48  1  0
 22 49  1  0
 23 50  1  0
 26 51  1  6
 27 52  1  0
 27 53  1  0
 27 54  1  0
M  END
>  <meeko>  (165) 
{"is_sidechain": false}

$$$$

     RDKit          3D

 43 46  0  0  0  0  0  0  0  0999 V2000
    7.5090   -2.3980  -52.1260 C   0  0  0  0  0  0  0  0  0  0  0  0
    7.4760   -1.3890  -53.2370 C   0  0  0  0  0  0  0  0  0  0  0  0
    6.2970   -1.1720  -53.9610 C   0  0  0  0  0  0  0  0  0  0  0  0
    6.2540   -0.2080  -54.9740 C   0  0  0  0  0  0  0  0  0  0  0  0
    7.3940    0.5490  -55.2690 C   0  0  0  0  0  0  0  0  0  0  0  0
    7.3950    1.5870  -56.3380 C   0  0  0  0  0  0  0  0  0  0  0  0
    6.3420    2.1200  -56.6650 O   0  0  0  0  0  0  0  0  0  0  0  0
    8.6310    1.9030  -56.8670 N   0  0  0  0  0  0  0  0  0  0  0  0
    8.8620    2.9560  -57.8620 C   0  0  2  0  0  0  0  0  0  0  0  0
    8.7010    4.3670  -57.2450 C   0  0  0  0  0  0  0  0  0  0  0  0
    9.0050    5.4530  -58.2930 C   0  0  1  0  0  0  0  0  0  0  0  0
   10.4510    5.2910  -58.7890 C   0  0  0  0  0  0  0  0  0  0  0  0
   10.6340    3.9050  -59.4270 C   0  0  2  0  0  0  0  0  0  0  0  0
    9.6680    3.7570  -60.6110 C   0  0  0  0  0  0  0  0  0  0  0  0
    8.2180    3.9090  -60.1260 C   0  0  2  0  0  0  0  0  0  0  0  0
    8.0410    5.2950  -59.4820 C   0  0  0  0  0  0  0  0  0  0  0  0
    7.9130    2.8210  -59.0800 C   0  0  0  0  0  0  0  0  0  0  0  0
   10.3200    2.8230  -58.3820 C   0  0  0  0  0  0  0  0  0  0  0  0
    8.5640    0.3560  -54.5250 C   0  0  0  0  0  0  0  0  0  0  0  0
    8.6030   -0.6080  -53.5150 C   0  0  0  0  0  0  0  0  0  0  0  0
    7.4920   -1.8773  -51.1572 H   0  0  0  0  0  0  0  0  0  0  0  0
    6.6319   -3.0574  -52.2034 H   0  0  0  0  0  0  0  0  0  0  0  0
    8.4273   -2.9987  -52.2034 H   0  0  0  0  0  0  0  0  0  0  0  0
    5.3985   -1.7636  -53.7316 H   0  0  0  0  0  0  0  0  0  0  0  0
    5.3243   -0.0449  -55.5388 H   0  0  0  0  0  0  0  0  0  0  0  0
    9.4400    1.5850  -56.3500 H   0  0  0  0  0  0  0  0  0  0  0  0
    7.6683    4.4893  -56.8863 H   0  0  0  0  0  0  0  0  0  0  0  0
    9.4083    4.4720  -56.4091 H   0  0  0  0  0  0  0  0  0  0  0  0
    8.8779    6.4480  -57.8414 H   0  0  0  0  0  0  0  0  0  0  0  0
   10.6692    6.0680  -59.5364 H   0  0  0  0  0  0  0  0  0  0  0  0
   11.1391    5.3905  -57.9366 H   0  0  0  0  0  0  0  0  0  0  0  0
   11.6702    3.7947  -59.7794 H   0  0  0  0  0  0  0  0  0  0  0  0
    9.8858    4.5340  -61.3586 H   0  0  0  0  0  0  0  0  0  0  0  0
    9.7966    2.7614  -61.0607 H   0  0  0  0  0  0  0  0  0  0  0  0
    7.5307    3.8051  -60.9786 H   0  0  0  0  0  0  0  0  0  0  0  0
    8.2546    6.0733  -60.2294 H   0  0  0  0  0  0  0  0  0  0  0  0
    7.0063    5.3952  -59.1222 H   0  0  0  0  0  0  0  0  0  0  0  0
    6.8719    2.9268  -58.7410 H   0  0  0  0  0  0  0  0  0  0  0  0
    8.0640    1.8334  -59.5403 H   0  0  0  0  0  0  0  0  0  0  0  0
   10.4490    1.8317  -58.8410 H   0  0  0  0  0  0  0  0  0  0  0  0
   11.0073    2.9472  -57.5322 H   0  0  0  0  0  0  0  0  0  0  0  0
    9.4551    0.9652  -54.7364 H   0  0  0  0  0  0  0  0  0  0  0  0
    9.5258   -0.7541  -52.9344 H   0  0  0  0  0  0  0  0  0  0  0  0
  1  2  1  0
  2  3  1  0
  3  4  2  0
  4  5  1  0
  5  6  1  0
  6  7  2  0
  6  8  1  0
  9  8  1  1
  9 10  1  0
 10 11  1  0
 11 12  1  0
 12 13  1  0
 13 14  1  0
 14 15  1  0
 15 16  1  0
 15 17  1  0
 13 18  1  0
  5 19  2  0
 19 20  1  0
 20  2  2  0
 17  9  1  0
 18  9  1  0
 16 11  1  0
  1 21  1  0
  1 22  1  0
  1 23  1  0
  3 24  1  0
  4 25  1  0
  8 26  1  0
 10 27  1  0
 10 28  1  0
 11 29  1  1
 12 30  1  0
 12 31  1  0
 13 32  1  6
 14 33  1  0
 14 34  1  0
 15 35  1  6
 16 36  1  0
 16 37  1  0
 17 38  1  0
 17 39  1  0
 18 40  1  0
 18 41  1  0
 19 42  1  0
 20 43  1  0
M  END
>  <meeko>  (166) 
{"is_sidechain": false}

$$$$

     RDKit          3D

 56 61  0  0  0  0  0  0  0  0999 V2000
    6.0890    2.3990  -56.3520 O   0  0  0  0  0  0  0  0  0  0  0  0
    7.1120    1.7740  -56.1070 C   0  0  0  0  0  0  0  0  0  0  0  0
    8.3550    2.0590  -56.6340 N   0  0  0  0  0  0  0  0  0  0  0  0
    8.6170    3.1260  -57.6070 C   0  0  2  0  0  0  0  0  0  0  0  0
    8.6810    4.5210  -56.9350 C   0  0  0  0  0  0  0  0  0  0  0  0
    9.0070    5.6090  -57.9750 C   0  0  1  0  0  0  0  0  0  0  0  0
   10.3700    5.3070  -58.6170 C   0  0  0  0  0  0  0  0  0  0  0  0
   10.3310    3.9360  -59.3080 C   0  0  2  0  0  0  0  0  0  0  0  0
    9.2440    3.9440  -60.3950 C   0  0  0  0  0  0  0  0  0  0  0  0
    7.8740    4.2380  -59.7650 C   0  0  2  0  0  0  0  0  0  0  0  0
    7.9210    5.6070  -59.0650 C   0  0  0  0  0  0  0  0  0  0  0  0
    7.5470    3.1490  -58.7260 C   0  0  0  0  0  0  0  0  0  0  0  0
    9.9960    2.8560  -58.2670 C   0  0  0  0  0  0  0  0  0  0  0  0
    7.0460    0.5880  -55.2090 C   0  0  0  0  0  0  0  0  0  0  0  0
    6.0240    0.4410  -54.2620 C   0  0  0  0  0  0  0  0  0  0  0  0
    5.9730   -0.6780  -53.4240 C   0  0  0  0  0  0  0  0  0  0  0  0
    6.9750   -1.6420  -53.5830 C   0  0  0  0  0  0  0  0  0  0  0  0
    7.2080   -2.8210  -52.9310 N   0  0  0  0  0  0  0  0  0  0  0  0
    8.2890   -3.4850  -53.3580 N   0  0  0  0  0  0  0  0  0  0  0  0
    8.7720   -2.7330  -54.3630 C   0  0  0  0  0  0  0  0  0  0  0  0
    9.9550   -3.1600  -55.1120 C   0  0  0  0  0  0  0  0  0  0  0  0
   10.2840   -4.5200  -55.1880 C   0  0  0  0  0  0  0  0  0  0  0  0
   11.4120   -4.9450  -55.8970 C   0  0  0  0  0  0  0  0  0  0  0  0
   12.2280   -4.0150  -56.5590 C   0  0  0  0  0  0  0  0  0  0  0  0
   13.4570   -4.4690  -57.3070 C   0  0  0  0  0  0  0  0  0  0  0  0
   13.1680   -5.1560  -58.4470 F   0  0  0  0  0  0  0  0  0  0  0  0
   14.2620   -3.4380  -57.6900 F   0  0  0  0  0  0  0  0  0  0  0  0
   14.2410   -5.2960  -56.5610 F   0  0  0  0  0  0  0  0  0  0  0  0
   11.8970   -2.6550  -56.4850 C   0  0  0  0  0  0  0  0  0  0  0  0
   10.7680   -2.2320  -55.7760 C   0  0  0  0  0  0  0  0  0  0  0  0
    7.9900   -1.5450  -54.5290 C   0  0  0  0  0  0  0  0  0  0  0  0
    8.0300   -0.4040  -55.3570 C   0  0  0  0  0  0  0  0  0  0  0  0
    9.0580    1.3360  -56.5590 H   0  0  0  0  0  0  0  0  0  0  0  0
    7.7087    4.7439  -56.4713 H   0  0  0  0  0  0  0  0  0  0  0  0
    9.4731    4.5111  -56.1718 H   0  0  0  0  0  0  0  0  0  0  0  0
    9.0402    6.5930  -57.4844 H   0  0  0  0  0  0  0  0  0  0  0  0
   10.6029    6.0835  -59.3605 H   0  0  0  0  0  0  0  0  0  0  0  0
   11.1437    5.2962  -57.8352 H   0  0  0  0  0  0  0  0  0  0  0  0
   11.3090    3.7238  -59.7647 H   0  0  0  0  0  0  0  0  0  0  0  0
    9.4775    4.7206  -61.1382 H   0  0  0  0  0  0  0  0  0  0  0  0
    9.2134    2.9585  -60.8827 H   0  0  0  0  0  0  0  0  0  0  0  0
    7.1014    4.2472  -60.5480 H   0  0  0  0  0  0  0  0  0  0  0  0
    8.1490    6.3867  -59.8066 H   0  0  0  0  0  0  0  0  0  0  0  0
    6.9445    5.8059  -58.5993 H   0  0  0  0  0  0  0  0  0  0  0  0
    6.5628    3.3574  -58.2811 H   0  0  0  0  0  0  0  0  0  0  0  0
    7.5374    2.1704  -59.2283 H   0  0  0  0  0  0  0  0  0  0  0  0
    9.9712    1.8743  -58.7627 H   0  0  0  0  0  0  0  0  0  0  0  0
   10.7681    2.8736  -57.4837 H   0  0  0  0  0  0  0  0  0  0  0  0
    5.2497    1.2175  -54.1761 H   0  0  0  0  0  0  0  0  0  0  0  0
    5.1789   -0.7952  -52.6719 H   0  0  0  0  0  0  0  0  0  0  0  0
    6.6660   -3.2250  -52.1770 H   0  0  0  0  0  0  0  0  0  0  0  0
    9.6474   -5.2621  -54.6840 H   0  0  0  0  0  0  0  0  0  0  0  0
   11.6613   -6.0157  -55.9360 H   0  0  0  0  0  0  0  0  0  0  0  0
   12.5321   -1.9123  -56.9900 H   0  0  0  0  0  0  0  0  0  0  0  0
   10.5163   -1.1618  -55.7394 H   0  0  0  0  0  0  0  0  0  0  0  0
    8.8232   -0.2919  -56.1108 H   0  0  0  0  0  0  0  0  0  0  0  0
  1  2  2  0
  2  3  1  0
  4  3  1  1
  4  5  1  0
  5  6  1  0
  6  7  1  0
  7  8  1  0
  8  9  1  0
  9 10  1  0
 10 11  1  0
 10 12  1  0
  8 13  1  0
  2 14  1  0
 14 15  2  0
 15 16  1  0
 16 17  2  0
 17 18  1  0
 18 19  1  0
 19 20  2  0
 20 21  1  0
 21 22  1  0
 22 23  2  0
 23 24  1  0
 24 25  1  0
 25 26  1  0
 25 27  1  0
 25 28  1  0
 24 29  2  0
 29 30  1  0
 20 31  1  0
 31 32  2  0
 12  4  1  0
 32 14  1  0
 13  4  1  0
 31 17  1  0
 11  6  1  0
 30 21  2  0
  3 33  1  0
  5 34  1  0
  5 35  1  0
  6 36  1  1
  7 37  1  0
  7 38  1  0
  8 39  1  6
  9 40  1  0
  9 41  1  0
 10 42  1  6
 11 43  1  0
 11 44  1  0
 12 45  1  0
 12 46  1  0
 13 47  1  0
 13 48  1  0
 15 49  1  0
 16 50  1  0
 18 51  1  0
 22 52  1  0
 23 53  1  0
 29 54  1  0
 30 55  1  0
 32 56  1  0
M  END
>  <meeko>  (167) 
{"is_sidechain": false}

$$$$

     RDKit          3D

 56 61  0  0  0  0  0  0  0  0999 V2000
    6.1200    2.3190  -56.3010 O   0  0  0  0  0  0  0  0  0  0  0  0
    7.1320    1.6450  -56.1660 C   0  0  0  0  0  0  0  0  0  0  0  0
    8.3210    1.8640  -56.8310 N   0  0  0  0  0  0  0  0  0  0  0  0
    8.5560    2.9740  -57.7630 C   0  0  2  0  0  0  0  0  0  0  0  0
    7.4700    3.0430  -58.8680 C   0  0  0  0  0  0  0  0  0  0  0  0
    7.7750    4.1830  -59.8560 C   0  0  1  0  0  0  0  0  0  0  0  0
    7.8220    5.5170  -59.0900 C   0  0  0  0  0  0  0  0  0  0  0  0
    8.9220    5.4720  -58.0160 C   0  0  2  0  0  0  0  0  0  0  0  0
   10.2790    5.2120  -58.6900 C   0  0  0  0  0  0  0  0  0  0  0  0
   10.2390    3.8760  -59.4500 C   0  0  2  0  0  0  0  0  0  0  0  0
    9.1370    3.9300  -60.5190 C   0  0  0  0  0  0  0  0  0  0  0  0
    9.9250    2.7430  -58.4600 C   0  0  0  0  0  0  0  0  0  0  0  0
    8.6190    4.3330  -57.0250 C   0  0  0  0  0  0  0  0  0  0  0  0
    7.1380    0.5170  -55.1900 C   0  0  0  0  0  0  0  0  0  0  0  0
    6.1870    0.4960  -54.1140 C   0  0  0  0  0  0  0  0  0  0  0  0
    6.1240   -0.5350  -53.1490 C   0  0  0  0  0  0  0  0  0  0  0  0
    7.0910   -1.5390  -53.3230 C   0  0  0  0  0  0  0  0  0  0  0  0
    7.3100   -2.6500  -52.6040 N   0  0  0  0  0  0  0  0  0  0  0  0
    8.3610   -3.2400  -53.2040 N   0  0  0  0  0  0  0  0  0  0  0  0
    8.8530   -2.5830  -54.3060 C   0  0  0  0  0  0  0  0  0  0  0  0
    9.9970   -3.0720  -55.0650 C   0  0  0  0  0  0  0  0  0  0  0  0
   10.7960   -2.1850  -55.7950 C   0  0  0  0  0  0  0  0  0  0  0  0
   11.8980   -2.6500  -56.5190 C   0  0  0  0  0  0  0  0  0  0  0  0
   12.2180   -4.0160  -56.5300 C   0  0  0  0  0  0  0  0  0  0  0  0
   13.4200   -4.5180  -57.2930 C   0  0  0  0  0  0  0  0  0  0  0  0
   14.2540   -3.5220  -57.7020 F   0  0  0  0  0  0  0  0  0  0  0  0
   13.0850   -5.2080  -58.4200 F   0  0  0  0  0  0  0  0  0  0  0  0
   14.1830   -5.3670  -56.5500 F   0  0  0  0  0  0  0  0  0  0  0  0
   11.4210   -4.9010  -55.7910 C   0  0  0  0  0  0  0  0  0  0  0  0
   10.3200   -4.4340  -55.0670 C   0  0  0  0  0  0  0  0  0  0  0  0
    8.0460   -1.4720  -54.4040 C   0  0  0  0  0  0  0  0  0  0  0  0
    8.1290   -0.4760  -55.3750 C   0  0  0  0  0  0  0  0  0  0  0  0
    9.1430    1.4050  -56.4610 H   0  0  0  0  0  0  0  0  0  0  0  0
    7.4479    2.0880  -59.4134 H   0  0  0  0  0  0  0  0  0  0  0  0
    6.4950    3.2339  -58.3959 H   0  0  0  0  0  0  0  0  0  0  0  0
    6.9916    4.2251  -60.6271 H   0  0  0  0  0  0  0  0  0  0  0  0
    8.0353    6.3339  -59.7951 H   0  0  0  0  0  0  0  0  0  0  0  0
    6.8504    5.6866  -58.6030 H   0  0  0  0  0  0  0  0  0  0  0  0
    8.9539    6.4311  -57.4782 H   0  0  0  0  0  0  0  0  0  0  0  0
   10.4975    6.0267  -59.3960 H   0  0  0  0  0  0  0  0  0  0  0  0
   11.0630    5.1669  -57.9197 H   0  0  0  0  0  0  0  0  0  0  0  0
   11.2117    3.6947  -59.9306 H   0  0  0  0  0  0  0  0  0  0  0  0
    9.3549    4.7439  -61.2261 H   0  0  0  0  0  0  0  0  0  0  0  0
    9.1055    2.9696  -61.0544 H   0  0  0  0  0  0  0  0  0  0  0  0
    9.8943    1.7879  -59.0048 H   0  0  0  0  0  0  0  0  0  0  0  0
   10.7105    2.7234  -57.6902 H   0  0  0  0  0  0  0  0  0  0  0  0
    9.4122    4.2950  -56.2638 H   0  0  0  0  0  0  0  0  0  0  0  0
    7.6457    4.5249  -56.5497 H   0  0  0  0  0  0  0  0  0  0  0  0
    5.4696    1.3263  -54.0367 H   0  0  0  0  0  0  0  0  0  0  0  0
    5.3843   -0.5498  -52.3350 H   0  0  0  0  0  0  0  0  0  0  0  0
    8.7140   -4.1010  -52.8000 H   0  0  0  0  0  0  0  0  0  0  0  0
   10.5548   -1.1118  -55.7993 H   0  0  0  0  0  0  0  0  0  0  0  0
   12.5189   -1.9394  -57.0843 H   0  0  0  0  0  0  0  0  0  0  0  0
   11.6642   -5.9737  -55.7806 H   0  0  0  0  0  0  0  0  0  0  0  0
    9.7029   -5.1422  -54.4946 H   0  0  0  0  0  0  0  0  0  0  0  0
    8.8729   -0.4633  -56.1852 H   0  0  0  0  0  0  0  0  0  0  0  0
  1  2  2  0
  2  3  1  0
  4  3  1  1
  4  5  1  0
  5  6  1  0
  6  7  1  0
  7  8  1  0
  8  9  1  0
  9 10  1  0
 10 11  1  0
 10 12  1  0
  8 13  1  0
  2 14  1  0
 14 15  1  0
 15 16  2  0
 16 17  1  0
 17 18  2  0
 18 19  1  0
 19 20  1  0
 20 21  1  0
 21 22  1  0
 22 23  2  0
 23 24  1  0
 24 25  1  0
 25 26  1  0
 25 27  1  0
 25 28  1  0
 24 29  2  0
 29 30  1  0
 20 31  2  0
 31 32  1  0
 12  4  1  0
 32 14  2  0
 13  4  1  0
 31 17  1  0
 11  6  1  0
 30 21  2  0
  3 33  1  0
  5 34  1  0
  5 35  1  0
  6 36  1  6
  7 37  1  0
  7 38  1  0
  8 39  1  1
  9 40  1  0
  9 41  1  0
 10 42  1  6
 11 43  1  0
 11 44  1  0
 12 45  1  0
 12 46  1  0
 13 47  1  0
 13 48  1  0
 15 49  1  0
 16 50  1  0
 19 51  1  0
 22 52  1  0
 23 53  1  0
 29 54  1  0
 30 55  1  0
 32 56  1  0
M  END
>  <meeko>  (168) 
{"is_sidechain": false}

$$$$

     RDKit          3D

 55 60  0  0  0  0  0  0  0  0999 V2000
   13.0990    5.6830  -59.8070 C   0  0  0  0  0  0  0  0  0  0  0  0
   13.5070    4.5160  -59.1740 C   0  0  0  0  0  0  0  0  0  0  0  0
   12.5660    3.7320  -58.5100 C   0  0  0  0  0  0  0  0  0  0  0  0
   11.2420    4.1520  -58.5040 C   0  0  0  0  0  0  0  0  0  0  0  0
   10.1750    3.4110  -57.8390 C   0  0  0  0  0  0  0  0  0  0  0  0
   10.1750    2.4060  -56.8870 C   0  0  0  0  0  0  0  0  0  0  0  0
    8.8240    2.0600  -56.6020 C   0  0  0  0  0  0  0  0  0  0  0  0
    8.2130    1.1280  -55.7400 C   0  0  0  0  0  0  0  0  0  0  0  0
    6.8090    1.0390  -55.6930 C   0  0  0  0  0  0  0  0  0  0  0  0
    6.1520    0.0030  -54.8250 C   0  0  0  0  0  0  0  0  0  0  0  0
    6.8540   -0.0760  -53.5090 N   0  0  0  0  0  0  0  0  0  0  0  0
    7.6340   -1.3070  -53.1590 C   0  0  2  0  0  0  0  0  0  0  0  0
    7.3600   -1.7380  -51.7050 C   0  0  0  0  0  0  0  0  0  0  0  0
    8.1260   -3.0390  -51.3970 C   0  0  1  0  0  0  0  0  0  0  0  0
    7.6560   -4.1470  -52.3540 C   0  0  0  0  0  0  0  0  0  0  0  0
    7.9240   -3.7330  -53.8110 C   0  0  2  0  0  0  0  0  0  0  0  0
    9.4300   -3.4920  -54.0040 C   0  0  0  0  0  0  0  0  0  0  0  0
    9.9120   -2.3790  -53.0570 C   0  0  2  0  0  0  0  0  0  0  0  0
    9.6330   -2.7990  -51.6020 C   0  0  0  0  0  0  0  0  0  0  0  0
    9.1440   -1.0790  -53.3640 C   0  0  0  0  0  0  0  0  0  0  0  0
    7.1630   -2.4300  -54.1120 C   0  0  0  0  0  0  0  0  0  0  0  0
    6.0310    1.8750  -56.5080 C   0  0  0  0  0  0  0  0  0  0  0  0
    6.6200    2.8050  -57.3690 C   0  0  0  0  0  0  0  0  0  0  0  0
    8.0150    2.8700  -57.3930 C   0  0  0  0  0  0  0  0  0  0  0  0
    8.8540    3.6750  -58.1260 N   0  0  0  0  0  0  0  0  0  0  0  0
   10.8190    5.2860  -59.1160 N   0  0  0  0  0  0  0  0  0  0  0  0
   11.7580    6.0240  -59.7510 C   0  0  0  0  0  0  0  0  0  0  0  0
   13.8218    6.3194  -60.3386 H   0  0  0  0  0  0  0  0  0  0  0  0
   14.5643    4.2133  -59.1967 H   0  0  0  0  0  0  0  0  0  0  0  0
   12.8644    2.8027  -58.0027 H   0  0  0  0  0  0  0  0  0  0  0  0
   11.0664    1.9524  -56.4291 H   0  0  0  0  0  0  0  0  0  0  0  0
    8.8300    0.4733  -55.1070 H   0  0  0  0  0  0  0  0  0  0  0  0
    5.0997    0.2783  -54.6612 H   0  0  0  0  0  0  0  0  0  0  0  0
    6.2066   -0.9757  -55.3242 H   0  0  0  0  0  0  0  0  0  0  0  0
    6.1440    0.0920  -52.7820 H   0  0  0  0  0  0  0  0  0  0  0  0
    7.4720    0.7440  -53.4510 H   0  0  0  0  0  0  0  0  0  0  0  0
    7.6944   -0.9455  -51.0193 H   0  0  0  0  0  0  0  0  0  0  0  0
    6.2816   -1.9096  -51.5725 H   0  0  0  0  0  0  0  0  0  0  0  0
    7.9345   -3.3433  -50.3574 H   0  0  0  0  0  0  0  0  0  0  0  0
    8.2028   -5.0755  -52.1328 H   0  0  0  0  0  0  0  0  0  0  0  0
    6.5765   -4.3080  -52.2173 H   0  0  0  0  0  0  0  0  0  0  0  0
    7.5868   -4.5298  -54.4902 H   0  0  0  0  0  0  0  0  0  0  0  0
    9.9783   -4.4199  -53.7840 H   0  0  0  0  0  0  0  0  0  0  0  0
    9.6157   -3.1858  -55.0441 H   0  0  0  0  0  0  0  0  0  0  0  0
   10.9903   -2.2136  -53.1984 H   0  0  0  0  0  0  0  0  0  0  0  0
   10.1820   -3.7260  -51.3798 H   0  0  0  0  0  0  0  0  0  0  0  0
    9.9634   -1.9957  -50.9271 H   0  0  0  0  0  0  0  0  0  0  0  0
    9.4886   -0.2825  -52.6881 H   0  0  0  0  0  0  0  0  0  0  0  0
    9.3295   -0.7841  -54.4074 H   0  0  0  0  0  0  0  0  0  0  0  0
    7.3550   -2.1286  -55.1523 H   0  0  0  0  0  0  0  0  0  0  0  0
    6.0863   -2.5996  -53.9640 H   0  0  0  0  0  0  0  0  0  0  0  0
    4.9345    1.7968  -56.4685 H   0  0  0  0  0  0  0  0  0  0  0  0
    6.0075    3.4616  -58.0044 H   0  0  0  0  0  0  0  0  0  0  0  0
    8.5750    4.3820  -58.7960 H   0  0  0  0  0  0  0  0  0  0  0  0
   11.4377    6.9492  -60.2523 H   0  0  0  0  0  0  0  0  0  0  0  0
  1  2  2  0
  2  3  1  0
  3  4  2  0
  4  5  1  0
  5  6  2  0
  6  7  1  0
  7  8  2  0
  8  9  1  0
  9 10  1  0
 10 11  1  0
 12 11  1  6
 12 13  1  0
 13 14  1  0
 14 15  1  0
 15 16  1  0
 16 17  1  0
 17 18  1  0
 18 19  1  0
 18 20  1  0
 16 21  1  0
  9 22  2  0
 22 23  1  0
 23 24  2  0
 24 25  1  0
  4 26  1  0
 26 27  2  0
 27  1  1  0
 25  5  1  0
 24  7  1  0
 20 12  1  0
 21 12  1  0
 19 14  1  0
  1 28  1  0
  2 29  1  0
  3 30  1  0
  6 31  1  0
  8 32  1  0
 10 33  1  0
 10 34  1  0
 11 35  1  0
 11 36  1  0
 13 37  1  0
 13 38  1  0
 14 39  1  1
 15 40  1  0
 15 41  1  0
 16 42  1  6
 17 43  1  0
 17 44  1  0
 18 45  1  1
 19 46  1  0
 19 47  1  0
 20 48  1  0
 20 49  1  0
 21 50  1  0
 21 51  1  0
 22 52  1  0
 23 53  1  0
 25 54  1  0
 27 55  1  0
M  CHG  1  11   1
M  END
>  <meeko>  (169) 
{"is_sidechain": false}

$$$$

     RDKit          3D

 63 68  0  0  0  0  0  0  0  0999 V2000
   13.3810    4.7560  -57.6580 C   0  0  0  0  0  0  0  0  0  0  0  0
   13.5460    4.6760  -59.1670 C   0  0  0  0  0  0  0  0  0  0  0  0
   13.3540    6.0200  -59.8760 C   0  0  0  0  0  0  0  0  0  0  0  0
   11.9000    6.4200  -60.1320 C   0  0  0  0  0  0  0  0  0  0  0  0
   10.9650    5.3210  -59.9930 N   0  0  0  0  0  0  0  0  0  0  0  0
   10.3060    4.9510  -58.8540 C   0  0  0  0  0  0  0  0  0  0  0  0
    9.5480    3.8590  -59.1980 C   0  0  0  0  0  0  0  0  0  0  0  0
    8.6110    3.0710  -58.2560 C   0  0  0  0  0  0  0  0  0  0  0  0
    7.2400    2.9650  -58.3450 C   0  0  0  0  0  0  0  0  0  0  0  0
    6.7990    2.1450  -57.2700 C   0  0  0  0  0  0  0  0  0  0  0  0
    5.5360    1.6970  -56.8380 C   0  0  0  0  0  0  0  0  0  0  0  0
    5.4500    0.8780  -55.7060 C   0  0  0  0  0  0  0  0  0  0  0  0
    6.6010    0.4920  -55.0110 C   0  0  0  0  0  0  0  0  0  0  0  0
    6.4420   -0.3840  -53.8160 C   0  0  0  0  0  0  0  0  0  0  0  0
    5.4020   -0.3440  -53.1690 O   0  0  0  0  0  0  0  0  0  0  0  0
    7.5010   -1.2270  -53.5470 N   0  0  0  0  0  0  0  0  0  0  0  0
    7.5090   -2.2330  -52.4790 C   0  0  2  0  0  0  0  0  0  0  0  0
    6.3150   -3.2150  -52.5980 C   0  0  0  0  0  0  0  0  0  0  0  0
    6.3230   -4.2230  -51.4340 C   0  0  1  0  0  0  0  0  0  0  0  0
    7.6460   -5.0090  -51.4560 C   0  0  0  0  0  0  0  0  0  0  0  0
    8.8360   -4.0470  -51.2990 C   0  0  2  0  0  0  0  0  0  0  0  0
    8.7040   -3.2880  -49.9700 C   0  0  0  0  0  0  0  0  0  0  0  0
    7.3870   -2.4940  -49.9470 C   0  0  2  0  0  0  0  0  0  0  0  0
    6.2050   -3.4640  -50.1030 C   0  0  0  0  0  0  0  0  0  0  0  0
    7.3800   -1.4980  -51.1180 C   0  0  0  0  0  0  0  0  0  0  0  0
    8.8300   -3.0400  -52.4640 C   0  0  0  0  0  0  0  0  0  0  0  0
    7.8700    0.9420  -55.4160 C   0  0  0  0  0  0  0  0  0  0  0  0
    7.9320    1.7640  -56.5500 C   0  0  0  0  0  0  0  0  0  0  0  0
    9.0160    2.3490  -57.1680 N   0  0  0  0  0  0  0  0  0  0  0  0
    9.8250    3.6400  -60.5590 C   0  0  0  0  0  0  0  0  0  0  0  0
   10.6950    4.5290  -61.0500 N   0  0  0  0  0  0  0  0  0  0  0  0
   14.2676    4.3261  -57.1689 H   0  0  0  0  0  0  0  0  0  0  0  0
   13.2698    5.8080  -57.3566 H   0  0  0  0  0  0  0  0  0  0  0  0
   12.4862    4.1917  -57.3566 H   0  0  0  0  0  0  0  0  0  0  0  0
   14.5590    4.3080  -59.3872 H   0  0  0  0  0  0  0  0  0  0  0  0
   12.7646    3.9986  -59.5419 H   0  0  0  0  0  0  0  0  0  0  0  0
   13.8176    6.8012  -59.2556 H   0  0  0  0  0  0  0  0  0  0  0  0
   13.8195    5.9114  -60.8667 H   0  0  0  0  0  0  0  0  0  0  0  0
   11.6233    7.2056  -59.4134 H   0  0  0  0  0  0  0  0  0  0  0  0
   11.8386    6.7673  -61.1739 H   0  0  0  0  0  0  0  0  0  0  0  0
   10.3698    5.4295  -57.8656 H   0  0  0  0  0  0  0  0  0  0  0  0
    6.6015    3.4309  -59.1100 H   0  0  0  0  0  0  0  0  0  0  0  0
    4.6265    1.9875  -57.3843 H   0  0  0  0  0  0  0  0  0  0  0  0
    4.4648    0.5336  -55.3586 H   0  0  0  0  0  0  0  0  0  0  0  0
    8.1770   -1.3520  -54.2890 H   0  0  0  0  0  0  0  0  0  0  0  0
    5.3746   -2.6448  -52.5757 H   0  0  0  0  0  0  0  0  0  0  0  0
    6.4035   -3.7671  -53.5453 H   0  0  0  0  0  0  0  0  0  0  0  0
    5.4763   -4.9174  -51.5384 H   0  0  0  0  0  0  0  0  0  0  0  0
    7.6524   -5.7335  -50.6283 H   0  0  0  0  0  0  0  0  0  0  0  0
    7.7347   -5.5371  -52.4169 H   0  0  0  0  0  0  0  0  0  0  0  0
    9.7770   -4.6166  -51.3061 H   0  0  0  0  0  0  0  0  0  0  0  0
    8.7106   -4.0070  -49.1375 H   0  0  0  0  0  0  0  0  0  0  0  0
    9.5483   -2.5905  -49.8668 H   0  0  0  0  0  0  0  0  0  0  0  0
    7.2972   -1.9520  -48.9940 H   0  0  0  0  0  0  0  0  0  0  0  0
    6.2115   -4.1836  -49.2710 H   0  0  0  0  0  0  0  0  0  0  0  0
    5.2647   -2.8933  -50.0938 H   0  0  0  0  0  0  0  0  0  0  0  0
    6.4363   -0.9329  -51.1031 H   0  0  0  0  0  0  0  0  0  0  0  0
    8.2390   -0.8202  -51.0047 H   0  0  0  0  0  0  0  0  0  0  0  0
    9.6760   -2.3467  -52.3471 H   0  0  0  0  0  0  0  0  0  0  0  0
    8.9192   -3.5924  -53.4110 H   0  0  0  0  0  0  0  0  0  0  0  0
    8.7790    0.6600  -54.8644 H   0  0  0  0  0  0  0  0  0  0  0  0
    9.9730    2.2560  -56.8570 H   0  0  0  0  0  0  0  0  0  0  0  0
    9.3769    2.8294  -61.1525 H   0  0  0  0  0  0  0  0  0  0  0  0
  1  2  1  0
  2  3  1  0
  3  4  1  0
  4  5  1  0
  5  6  1  0
  6  7  2  0
  7  8  1  0
  8  9  2  0
  9 10  1  0
 10 11  2  0
 11 12  1  0
 12 13  2  0
 13 14  1  0
 14 15  2  0
 14 16  1  0
 17 16  1  6
 17 18  1  0
 18 19  1  0
 19 20  1  0
 20 21  1  0
 21 22  1  0
 22 23  1  0
 23 24  1  0
 23 25  1  0
 21 26  1  0
 13 27  1  0
 27 28  2  0
 28 29  1  0
  7 30  1  0
 30 31  2  0
 31  5  1  0
 29  8  1  0
 28 10  1  0
 25 17  1  0
 26 17  1  0
 24 19  1  0
  1 32  1  0
  1 33  1  0
  1 34  1  0
  2 35  1  0
  2 36  1  0
  3 37  1  0
  3 38  1  0
  4 39  1  0
  4 40  1  0
  6 41  1  0
  9 42  1  0
 11 43  1  0
 12 44  1  0
 16 45  1  0
 18 46  1  0
 18 47  1  0
 19 48  1  6
 20 49  1  0
 20 50  1  0
 21 51  1  1
 22 52  1  0
 22 53  1  0
 23 54  1  1
 24 55  1  0
 24 56  1  0
 25 57  1  0
 25 58  1  0
 26 59  1  0
 26 60  1  0
 27 61  1  0
 29 62  1  0
 30 63  1  0
M  END
>  <meeko>  (170) 
{"is_sidechain": false}

$$$$
