
     RDKit          3D

 66 70  0  0  0  0  0  0  0  0999 V2000
    6.9650   -4.5660  -52.0490 C   0  0  0  0  0  0  0  0  0  0  0  0
    7.1080   -4.2170  -50.7030 C   0  0  0  0  0  0  0  0  0  0  0  0
    7.6270   -2.9650  -50.3500 C   0  0  0  0  0  0  0  0  0  0  0  0
    8.0090   -2.0590  -51.3460 C   0  0  0  0  0  0  0  0  0  0  0  0
    7.8620   -2.3960  -52.7040 C   0  0  0  0  0  0  0  0  0  0  0  0
    7.3340   -3.6510  -53.0450 C   0  0  0  0  0  0  0  0  0  0  0  0
    8.2340   -1.5340  -53.6690 C   0  0  0  0  0  0  0  0  0  0  0  0
    8.2630    0.0750  -55.0700 C   0  0  0  0  0  0  0  0  0  0  0  0
    7.5030   -0.5250  -54.1430 C   0  0  0  0  0  0  0  0  0  0  0  0
    6.0740   -0.1680  -53.6860 C   0  0  0  0  0  0  0  0  0  0  0  0
    8.0070    1.1480  -55.8650 C   0  0  0  0  0  0  0  0  0  0  0  0
   10.6450   -2.3980  -54.1720 C   0  0  0  0  0  0  0  0  0  0  0  0
   10.4720   -3.8010  -54.7670 C   0  0  0  0  0  0  0  0  0  0  0  0
   10.8830   -3.8040  -56.2370 C   0  0  0  0  0  0  0  0  0  0  0  0
   11.5600   -5.1340  -56.5780 C   0  0  0  0  0  0  0  0  0  0  0  0
   12.3020   -5.0050  -57.9130 C   0  0  0  0  0  0  0  0  0  0  0  0
    9.2140    2.7180  -57.5170 C   0  0  1  0  0  0  0  0  0  0  0  0
    8.3720    2.4660  -58.8350 C   0  0  0  0  0  0  0  0  0  0  0  0
    8.6120    3.6560  -59.8510 C   0  0  2  0  0  0  0  0  0  0  0  0
   10.1380    3.7130  -60.2220 C   0  0  0  0  0  0  0  0  0  0  0  0
   10.9950    3.9750  -58.9300 C   0  0  2  0  0  0  0  0  0  0  0  0
    9.4140   -1.5360  -54.3150 N   0  0  0  0  0  0  0  0  0  0  0  0
    9.4250   -0.5950  -55.1040 N   0  0  0  0  0  0  0  0  0  0  0  0
    9.0940    1.5820  -56.5630 N   0  0  0  0  0  0  0  0  0  0  0  0
   13.5850   -4.3970  -57.7050 O   0  0  0  0  0  0  0  0  0  0  0  0
    6.8820    1.6460  -55.9680 O   0  0  0  0  0  0  0  0  0  0  0  0
   10.7450    2.8000  -57.9120 C   0  0  0  0  0  0  0  0  0  0  0  0
   10.5600    5.3350  -58.2680 C   0  0  0  0  0  0  0  0  0  0  0  0
    9.0350    5.2890  -57.8850 C   0  0  2  0  0  0  0  0  0  0  0  0
    8.7870    4.1110  -56.8590 C   0  0  0  0  0  0  0  0  0  0  0  0
    8.1910    5.0320  -59.1860 C   0  0  0  0  0  0  0  0  0  0  0  0
    6.5652   -5.5529  -52.3251 H   0  0  0  0  0  0  0  0  0  0  0  0
    6.8118   -4.9284  -49.9181 H   0  0  0  0  0  0  0  0  0  0  0  0
    7.7344   -2.6936  -49.2894 H   0  0  0  0  0  0  0  0  0  0  0  0
    8.4256   -1.0802  -51.0661 H   0  0  0  0  0  0  0  0  0  0  0  0
    7.2085   -3.9193  -54.1044 H   0  0  0  0  0  0  0  0  0  0  0  0
    6.0324   -0.1576  -52.5868 H   0  0  0  0  0  0  0  0  0  0  0  0
    5.8029    0.8255  -54.0726 H   0  0  0  0  0  0  0  0  0  0  0  0
    5.3675   -0.9172  -54.0726 H   0  0  0  0  0  0  0  0  0  0  0  0
   10.8792   -2.4984  -53.1019 H   0  0  0  0  0  0  0  0  0  0  0  0
   11.4561   -1.9047  -54.7277 H   0  0  0  0  0  0  0  0  0  0  0  0
   11.1023   -4.5114  -54.2120 H   0  0  0  0  0  0  0  0  0  0  0  0
    9.4153   -4.0964  -54.6890 H   0  0  0  0  0  0  0  0  0  0  0  0
    9.9905   -3.6754  -56.8670 H   0  0  0  0  0  0  0  0  0  0  0  0
   11.5859   -2.9783  -56.4216 H   0  0  0  0  0  0  0  0  0  0  0  0
   12.2761   -5.3944  -55.7847 H   0  0  0  0  0  0  0  0  0  0  0  0
   10.7972   -5.9225  -56.6584 H   0  0  0  0  0  0  0  0  0  0  0  0
   12.4394   -6.0045  -58.3514 H   0  0  0  0  0  0  0  0  0  0  0  0
   11.7110   -4.3762  -58.5952 H   0  0  0  0  0  0  0  0  0  0  0  0
    8.6893    1.5197  -59.2973 H   0  0  0  0  0  0  0  0  0  0  0  0
    7.3030    2.4104  -58.5818 H   0  0  0  0  0  0  0  0  0  0  0  0
    8.0061    3.4891  -60.7538 H   0  0  0  0  0  0  0  0  0  0  0  0
   10.4398    2.7555  -60.6716 H   0  0  0  0  0  0  0  0  0  0  0  0
   10.3055    4.5304  -60.9388 H   0  0  0  0  0  0  0  0  0  0  0  0
   12.0608    4.0280  -59.1969 H   0  0  0  0  0  0  0  0  0  0  0  0
    9.9592    1.0452  -56.4076 H   0  0  0  0  0  0  0  0  0  0  0  0
   13.7578   -4.3151  -56.7336 H   0  0  0  0  0  0  0  0  0  0  0  0
   11.3430    2.9744  -57.0054 H   0  0  0  0  0  0  0  0  0  0  0  0
   11.0390    1.8523  -58.3867 H   0  0  0  0  0  0  0  0  0  0  0  0
   11.1577    5.5049  -57.3603 H   0  0  0  0  0  0  0  0  0  0  0  0
   10.7257    6.1526  -58.9850 H   0  0  0  0  0  0  0  0  0  0  0  0
    8.7357    6.2430  -57.4265 H   0  0  0  0  0  0  0  0  0  0  0  0
    7.7201    4.0771  -56.5934 H   0  0  0  0  0  0  0  0  0  0  0  0
    9.3897    4.2847  -55.9553 H   0  0  0  0  0  0  0  0  0  0  0  0
    8.3674    5.8495  -59.9005 H   0  0  0  0  0  0  0  0  0  0  0  0
    7.1248    4.9892  -58.9186 H   0  0  0  0  0  0  0  0  0  0  0  0
  1  2  2  0
  1  6  1  0
  2  3  1  0
  3  4  2  0
  4  5  1  0
  5  6  2  0
  5  7  1  0
  7  9  2  0
  7 22  1  0
  8  9  1  0
  8 11  1  0
  8 23  2  0
  9 10  1  0
 11 24  1  0
 11 26  2  0
 12 13  1  0
 12 22  1  0
 13 14  1  0
 14 15  1  0
 15 16  1  0
 16 25  1  0
 17 18  1  0
 17 24  1  1
 17 27  1  0
 17 30  1  0
 18 19  1  0
 19 20  1  0
 19 31  1  0
 20 21  1  0
 21 27  1  0
 21 28  1  0
 22 23  1  0
 28 29  1  0
 29 30  1  0
 29 31  1  0
  1 32  1  0
  2 33  1  0
  3 34  1  0
  4 35  1  0
  6 36  1  0
 10 37  1  0
 10 38  1  0
 10 39  1  0
 12 40  1  0
 12 41  1  0
 13 42  1  0
 13 43  1  0
 14 44  1  0
 14 45  1  0
 15 46  1  0
 15 47  1  0
 16 48  1  0
 16 49  1  0
 18 50  1  0
 18 51  1  0
 19 52  1  6
 20 53  1  0
 20 54  1  0
 21 55  1  6
 24 56  1  0
 25 57  1  0
 27 58  1  0
 27 59  1  0
 28 60  1  0
 28 61  1  0
 29 62  1  1
 30 63  1  0
 30 64  1  0
 31 65  1  0
 31 66  1  0
M  END
$$$$
