9JU
  CCTOOLS-0919241038

 66 70  0  0  0  0  0  0  0  0999 V2000
   -4.3830    1.9160   -0.6170 C   0  0  0  0  0
   -5.8990    1.9730   -0.4160 C   0  0  0  0  0
   -6.5630    0.8600   -1.2270 C   0  0  0  0  0
   -6.2230    1.7870    1.0680 C   0  0  0  0  0
   -5.6970    0.4290    1.5380 C   0  0  0  0  0
   -4.1820    0.3720    1.3370 C   0  0  0  0  0
   -6.3620   -0.6840    0.7260 C   0  0  0  0  0
   -6.0370   -0.4980   -0.7570 C   0  0  0  0  0
   -4.5220   -0.5550   -0.9580 C   0  0  0  0  0
   -3.8570    0.5590   -0.1470 C   0  0  0  0  0
   -2.4060    0.5040   -0.3400 N   0  0  0  0  0
   -1.7210   -0.6040    0.0070 C   0  0  0  0  0
   -2.3080   -1.5590    0.4790 O   0  0  0  0  0
   -0.2580   -0.6600   -0.1880 C   0  0  0  0  0
    0.5870   -1.7460    0.1260 C   0  0  0  0  0
    0.1870   -3.0720    0.7210 C   0  0  0  0  0
    0.5000    0.2940   -0.6920 N   0  0  0  0  0
    1.7290   -0.0780   -0.7220 N   0  0  0  0  0
    2.8410    0.7350   -1.2200 C   0  0  0  0  0
    3.4250    1.5600   -0.0720 C   0  0  0  0  0
    4.5870    2.4090   -0.5930 C   0  0  0  0  0
    5.1700    3.2340    0.5550 C   0  0  0  0  0
    6.3320    4.0830    0.0350 C   0  0  0  0  0
    6.8770    4.8540    1.1070 O   0  0  0  0  0
    1.8450   -1.3420   -0.2240 C   0  0  0  0  0
    3.0930   -2.1270   -0.0910 C   0  0  0  0  0
    3.3560   -2.8310    1.0840 C   0  0  0  0  0
    4.5210   -3.5610    1.2010 C   0  0  0  0  0
    5.4280   -3.5950    0.1570 C   0  0  0  0  0
    5.1730   -2.8980   -1.0110 C   0  0  0  0  0
    4.0090   -2.1700   -1.1430 C   0  0  0  0  0
   -4.1520    2.0490   -1.6740 H   0  0  0  0  0
   -3.9090    2.7100   -0.0390 H   0  0  0  0  0
   -6.2730    2.9400   -0.7510 H   0  0  0  0  0
   -7.6430    0.9000   -1.0840 H   0  0  0  0  0
   -6.3320    0.9930   -2.2840 H   0  0  0  0  0
   -5.7500    2.5800    1.6460 H   0  0  0  0  0
   -7.3030    1.8270    1.2110 H   0  0  0  0  0
   -5.9290    0.2960    2.5950 H   0  0  0  0  0
   -3.7080    1.1660    1.9150 H   0  0  0  0  0
   -3.8070   -0.5950    1.6720 H   0  0  0  0  0
   -5.9870   -1.6510    1.0620 H   0  0  0  0  0
   -7.4420   -0.6440    0.8700 H   0  0  0  0  0
   -6.5110   -1.2910   -1.3350 H   0  0  0  0  0
   -4.1470   -1.5220   -0.6230 H   0  0  0  0  0
   -4.2900   -0.4220   -2.0150 H   0  0  0  0  0
   -1.9370    1.2650   -0.7160 H   0  0  0  0  0
   -0.0500   -3.7730   -0.0790 H   0  0  0  0  0
    1.0100   -3.4660    1.3170 H   0  0  0  0  0
   -0.6890   -2.9350    1.3560 H   0  0  0  0  0
    3.6140    0.0820   -1.6280 H   0  0  0  0  0
    2.4810    1.4040   -2.0020 H   0  0  0  0  0
    2.6530    2.2120    0.3360 H   0  0  0  0  0
    3.7850    0.8910    0.7090 H   0  0  0  0  0
    5.3590    1.7560   -1.0010 H   0  0  0  0  0
    4.2260    3.0780   -1.3750 H   0  0  0  0  0
    4.3980    3.8860    0.9630 H   0  0  0  0  0
    5.5310    2.5650    1.3370 H   0  0  0  0  0
    7.1040    3.4300   -0.3730 H   0  0  0  0  0
    5.9710    4.7520   -0.7470 H   0  0  0  0  0
    7.6190    5.4170    0.8490 H   0  0  0  0  0
    2.6490   -2.8050    1.9000 H   0  0  0  0  0
    4.7260   -4.1070    2.1100 H   0  0  0  0  0
    6.3380   -4.1680    0.2540 H   0  0  0  0  0
    5.8850   -2.9280   -1.8220 H   0  0  0  0  0
    3.8080   -1.6300   -2.0570 H   0  0  0  0  0
  1 10  1  0  0  0
  1 32  1  0  0  0
  1 33  1  0  0  0
  2  3  1  0  0  0
  2  1  1  0  0  0
  2 34  1  0  0  0
  3  8  1  0  0  0
  3 35  1  0  0  0
  3 36  1  0  0  0
  4  2  1  0  0  0
  4  5  1  0  0  0
  4 37  1  0  0  0
  4 38  1  0  0  0
  5  7  1  0  0  0
  5  6  1  0  0  0
  5 39  1  0  0  0
  6 10  1  0  0  0
  6 40  1  0  0  0
  6 41  1  0  0  0
  7  8  1  0  0  0
  7 42  1  0  0  0
  7 43  1  0  0  0
  8  9  1  0  0  0
  8 44  1  0  0  0
  9 45  1  0  0  0
  9 46  1  0  0  0
 10  9  1  0  0  0
 10 11  1  0  0  0
 11 12  1  0  0  0
 11 47  1  0  0  0
 12 14  1  0  0  0
 13 12  2  0  0  0
 14 15  1  0  0  0
 15 16  1  0  0  0
 15 25  2  0  0  0
 16 48  1  0  0  0
 16 49  1  0  0  0
 16 50  1  0  0  0
 17 14  2  0  0  0
 17 18  1  0  0  0
 18 19  1  0  0  0
 18 25  1  0  0  0
 19 51  1  0  0  0
 19 52  1  0  0  0
 20 19  1  0  0  0
 20 53  1  0  0  0
 20 54  1  0  0  0
 21 20  1  0  0  0
 21 55  1  0  0  0
 21 56  1  0  0  0
 22 21  1  0  0  0
 22 57  1  0  0  0
 22 58  1  0  0  0
 23 24  1  0  0  0
 23 22  1  0  0  0
 23 59  1  0  0  0
 23 60  1  0  0  0
 24 61  1  0  0  0
 25 26  1  0  0  0
 26 27  1  0  0  0
 27 28  2  0  0  0
 27 62  1  0  0  0
 28 63  1  0  0  0
 29 28  1  0  0  0
 29 64  1  0  0  0
 30 29  2  0  0  0
 30 65  1  0  0  0
 31 26  2  0  0  0
 31 30  1  0  0  0
 31 66  1  0  0  0
M  END
$$$$
