
     RDKit          3D

 66 70  0  0  0  0  0  0  0  0999 V2000
    5.0749   -3.8938    0.8599 C   0  0  0  0  0  0  0  0  0  0  0  0
    5.4750   -4.4721   -0.3442 C   0  0  0  0  0  0  0  0  0  0  0  0
    4.7042   -4.2967   -1.4929 C   0  0  0  0  0  0  0  0  0  0  0  0
    3.5335   -3.5383   -1.4392 C   0  0  0  0  0  0  0  0  0  0  0  0
    3.1315   -2.9487   -0.2357 C   0  0  0  0  0  0  0  0  0  0  0  0
    3.9041   -3.1356    0.9155 C   0  0  0  0  0  0  0  0  0  0  0  0
    1.9138   -2.1506   -0.1831 C   0  0  0  0  0  0  0  0  0  0  0  0
   -0.1628   -1.3334   -0.0548 C   0  0  0  0  0  0  0  0  0  0  0  0
    0.5931   -2.5442   -0.0304 C   0  0  0  0  0  0  0  0  0  0  0  0
    0.0592   -3.9215    0.1296 C   0  0  0  0  0  0  0  0  0  0  0  0
   -1.6265   -1.1751    0.0692 C   0  0  0  0  0  0  0  0  0  0  0  0
    3.0035    0.1237   -0.4797 C   0  0  0  0  0  0  0  0  0  0  0  0
    3.4688    0.7412    0.8381 C   0  0  0  0  0  0  0  0  0  0  0  0
    4.7302    1.5963    0.6921 C   0  0  0  0  0  0  0  0  0  0  0  0
    4.5116    2.8604   -0.1460 C   0  0  0  0  0  0  0  0  0  0  0  0
    5.7650    3.7276   -0.2140 C   0  0  0  0  0  0  0  0  0  0  0  0
   -3.3883    0.6431    0.0986 C   0  0  1  0  0  0  0  0  0  0  0  0
   -4.2729    0.0952   -1.0485 C   0  0  0  0  0  0  0  0  0  0  0  0
   -5.6960    0.6738   -0.9581 C   0  0  2  0  0  0  0  0  0  0  0  0
   -5.6300    2.2052   -1.0704 C   0  0  0  0  0  0  0  0  0  0  0  0
   -4.7740    2.7785    0.0699 C   0  0  2  0  0  0  0  0  0  0  0  0
    1.8804   -0.7821   -0.2884 N   0  0  0  0  0  0  0  0  0  0  0  0
    0.6399   -0.2603   -0.2141 N   0  0  0  0  0  0  0  0  0  0  0  0
   -2.0208    0.1441    0.0079 N   0  0  0  0  0  0  0  0  0  0  0  0
    6.1280    4.1937    1.0773 O   0  0  0  0  0  0  0  0  0  0  0  0
   -2.3928   -2.1219    0.2102 O   0  0  0  0  0  0  0  0  0  0  0  0
   -3.3568    2.1902   -0.0189 C   0  0  0  0  0  0  0  0  0  0  0  0
   -5.3975    2.3896    1.4196 C   0  0  0  0  0  0  0  0  0  0  0  0
   -5.4622    0.8593    1.5462 C   0  0  2  0  0  0  0  0  0  0  0  0
   -4.0390    0.2807    1.4565 C   0  0  0  0  0  0  0  0  0  0  0  0
   -6.3130    0.2907    0.3978 C   0  0  0  0  0  0  0  0  0  0  0  0
    5.6715   -4.0377    1.7570 H   0  0  0  0  0  0  0  0  0  0  0  0
    6.3851   -5.0653   -0.3860 H   0  0  0  0  0  0  0  0  0  0  0  0
    5.0123   -4.7538   -2.4297 H   0  0  0  0  0  0  0  0  0  0  0  0
    2.9357   -3.4116   -2.3389 H   0  0  0  0  0  0  0  0  0  0  0  0
    3.5952   -2.6980    1.8619 H   0  0  0  0  0  0  0  0  0  0  0  0
   -0.6212   -4.1648   -0.6927 H   0  0  0  0  0  0  0  0  0  0  0  0
   -0.4873   -4.0124    1.0737 H   0  0  0  0  0  0  0  0  0  0  0  0
    0.8570   -4.6704    0.1349 H   0  0  0  0  0  0  0  0  0  0  0  0
    3.8143   -0.4292   -0.9644 H   0  0  0  0  0  0  0  0  0  0  0  0
    2.6688    0.8934   -1.1842 H   0  0  0  0  0  0  0  0  0  0  0  0
    2.6625    1.3439    1.2748 H   0  0  0  0  0  0  0  0  0  0  0  0
    3.6778   -0.0572    1.5607 H   0  0  0  0  0  0  0  0  0  0  0  0
    5.5336    0.9938    0.2509 H   0  0  0  0  0  0  0  0  0  0  0  0
    5.0643    1.8795    1.6976 H   0  0  0  0  0  0  0  0  0  0  0  0
    4.2187    2.5920   -1.1663 H   0  0  0  0  0  0  0  0  0  0  0  0
    3.6926    3.4409    0.2952 H   0  0  0  0  0  0  0  0  0  0  0  0
    5.5954    4.5964   -0.8580 H   0  0  0  0  0  0  0  0  0  0  0  0
    6.6080    3.1624   -0.6234 H   0  0  0  0  0  0  0  0  0  0  0  0
   -4.3288   -0.9992   -1.0106 H   0  0  0  0  0  0  0  0  0  0  0  0
   -3.8287    0.3463   -2.0207 H   0  0  0  0  0  0  0  0  0  0  0  0
   -6.3104    0.2704   -1.7708 H   0  0  0  0  0  0  0  0  0  0  0  0
   -6.6413    2.6281   -1.0290 H   0  0  0  0  0  0  0  0  0  0  0  0
   -5.2043    2.4920   -2.0398 H   0  0  0  0  0  0  0  0  0  0  0  0
   -4.7278    3.8699   -0.0152 H   0  0  0  0  0  0  0  0  0  0  0  0
   -1.2462    0.7936   -0.1123 H   0  0  0  0  0  0  0  0  0  0  0  0
    5.3890    4.7277    1.4157 H   0  0  0  0  0  0  0  0  0  0  0  0
   -2.7290    2.6164    0.7752 H   0  0  0  0  0  0  0  0  0  0  0  0
   -2.8918    2.4873   -0.9685 H   0  0  0  0  0  0  0  0  0  0  0  0
   -4.8046    2.8091    2.2416 H   0  0  0  0  0  0  0  0  0  0  0  0
   -6.4048    2.8156    1.5038 H   0  0  0  0  0  0  0  0  0  0  0  0
   -5.9108    0.5873    2.5082 H   0  0  0  0  0  0  0  0  0  0  0  0
   -3.4268    0.6650    2.2830 H   0  0  0  0  0  0  0  0  0  0  0  0
   -4.0860   -0.8066    1.5899 H   0  0  0  0  0  0  0  0  0  0  0  0
   -7.3374    0.6772    0.4649 H   0  0  0  0  0  0  0  0  0  0  0  0
   -6.3785   -0.8008    0.4848 H   0  0  0  0  0  0  0  0  0  0  0  0
  1  2  2  0
  1  6  1  0
  2  3  1  0
  3  4  2  0
  4  5  1  0
  5  6  2  0
  5  7  1  0
  7  9  2  0
  7 22  1  0
  8  9  1  0
  8 11  1  0
  8 23  2  0
  9 10  1  0
 11 24  1  0
 11 26  2  0
 12 13  1  0
 12 22  1  0
 13 14  1  0
 14 15  1  0
 15 16  1  0
 16 25  1  0
 17 18  1  0
 17 24  1  1
 17 27  1  0
 17 30  1  0
 18 19  1  0
 19 20  1  0
 19 31  1  0
 20 21  1  0
 21 27  1  0
 21 28  1  0
 22 23  1  0
 28 29  1  0
 29 30  1  0
 29 31  1  0
  1 32  1  0
  2 33  1  0
  3 34  1  0
  4 35  1  0
  6 36  1  0
 10 37  1  0
 10 38  1  0
 10 39  1  0
 12 40  1  0
 12 41  1  0
 13 42  1  0
 13 43  1  0
 14 44  1  0
 14 45  1  0
 15 46  1  0
 15 47  1  0
 16 48  1  0
 16 49  1  0
 18 50  1  0
 18 51  1  0
 19 52  1  6
 20 53  1  0
 20 54  1  0
 21 55  1  6
 24 56  1  0
 25 57  1  0
 27 58  1  0
 27 59  1  0
 28 60  1  0
 28 61  1  0
 29 62  1  1
 30 63  1  0
 30 64  1  0
 31 65  1  0
 31 66  1  0
M  END
>  <pka_props_0>  (1) 
{'name': 'alcohol', 'atom': 24, 'pKa': 15.9}

>  <ScrubInfo>  (1) 
{"isomerGroup": 0, "isomerId": 0, "confId": 0, "nr_conformers:": 1, "nr_isomers:": 1}

$$$$
