
     RDKit          3D

 56 60  0  0  0  0  0  0  0  0999 V2000
   -5.0059   -3.3093   -0.1887 C   0  0  0  0  0  0  0  0  0  0  0  0
   -4.0378   -2.2601    0.3325 C   0  0  0  0  0  0  0  0  0  0  0  0
   -3.5392   -1.3572   -0.7927 C   0  0  0  0  0  0  0  0  0  0  0  0
   -2.6145   -0.3386   -0.3117 N   0  0  0  0  0  0  0  0  0  0  0  0
   -1.2550   -0.5263   -0.2266 C   0  0  0  0  0  0  0  0  0  0  0  0
   -0.6643    0.6268    0.2754 C   0  0  0  0  0  0  0  0  0  0  0  0
    0.7628    0.8279    0.5347 C   0  0  0  0  0  0  0  0  0  0  0  0
    1.1922    1.7243    1.2523 O   0  0  0  0  0  0  0  0  0  0  0  0
    1.5953   -0.0669   -0.0956 N   0  0  0  0  0  0  0  0  0  0  0  0
    3.0500   -0.0558   -0.0040 C   0  0  1  0  0  0  0  0  0  0  0  0
    3.5652   -0.3180    1.4250 C   0  0  0  0  0  0  0  0  0  0  0  0
    5.1037   -0.4176    1.4304 C   0  0  2  0  0  0  0  0  0  0  0  0
    5.7024    0.8836    0.8697 C   0  0  0  0  0  0  0  0  0  0  0  0
    5.2207    1.1154   -0.5726 C   0  0  1  0  0  0  0  0  0  0  0  0
    5.6508   -0.0729   -1.4536 C   0  0  0  0  0  0  0  0  0  0  0  0
    5.0708   -1.3786   -0.8984 C   0  0  1  0  0  0  0  0  0  0  0  0
    5.5331   -1.6031    0.5455 C   0  0  0  0  0  0  0  0  0  0  0  0
    3.5580   -1.2276   -0.8742 C   0  0  0  0  0  0  0  0  0  0  0  0
    2.8065   -1.9736   -1.5029 O   0  0  0  0  0  0  0  0  0  0  0  0
    3.6825    1.2231   -0.5883 C   0  0  0  0  0  0  0  0  0  0  0  0
   -1.7464    1.5272    0.4909 C   0  0  0  0  0  0  0  0  0  0  0  0
   -1.5811    3.2867    1.1534 Br  0  0  0  0  0  0  0  0  0  0  0  0
   -2.9386    0.9298    0.1191 C   0  0  0  0  0  0  0  0  0  0  0  0
   -4.2985    1.4587    0.1561 C   0  0  0  0  0  0  0  0  0  0  0  0
   -5.0501    1.3847    1.3361 C   0  0  0  0  0  0  0  0  0  0  0  0
   -6.3506    1.8902    1.3711 C   0  0  0  0  0  0  0  0  0  0  0  0
   -6.8905    2.4713    0.2294 C   0  0  0  0  0  0  0  0  0  0  0  0
   -8.1390    2.9550    0.2634 F   0  0  0  0  0  0  0  0  0  0  0  0
   -6.1544    2.5601   -0.9468 C   0  0  0  0  0  0  0  0  0  0  0  0
   -4.8539    2.0550   -0.9839 C   0  0  0  0  0  0  0  0  0  0  0  0
   -5.3501   -3.9481    0.6307 H   0  0  0  0  0  0  0  0  0  0  0  0
   -4.5270   -3.9469   -0.9386 H   0  0  0  0  0  0  0  0  0  0  0  0
   -5.8834   -2.8402   -0.6453 H   0  0  0  0  0  0  0  0  0  0  0  0
   -3.1900   -2.7593    0.8170 H   0  0  0  0  0  0  0  0  0  0  0  0
   -4.5352   -1.6648    1.1065 H   0  0  0  0  0  0  0  0  0  0  0  0
   -3.0079   -1.9437   -1.5521 H   0  0  0  0  0  0  0  0  0  0  0  0
   -4.3701   -0.8569   -1.3001 H   0  0  0  0  0  0  0  0  0  0  0  0
   -0.8249   -1.4783   -0.5113 H   0  0  0  0  0  0  0  0  0  0  0  0
    1.1992   -0.7422   -0.7404 H   0  0  0  0  0  0  0  0  0  0  0  0
    3.1347   -1.2474    1.8207 H   0  0  0  0  0  0  0  0  0  0  0  0
    3.2540    0.4837    2.1050 H   0  0  0  0  0  0  0  0  0  0  0  0
    5.4576   -0.5771    2.4552 H   0  0  0  0  0  0  0  0  0  0  0  0
    6.7978    0.8299    0.8926 H   0  0  0  0  0  0  0  0  0  0  0  0
    5.4115    1.7317    1.5017 H   0  0  0  0  0  0  0  0  0  0  0  0
    5.6573    2.0406   -0.9652 H   0  0  0  0  0  0  0  0  0  0  0  0
    6.7452   -0.1352   -1.4884 H   0  0  0  0  0  0  0  0  0  0  0  0
    5.3036    0.0863   -2.4821 H   0  0  0  0  0  0  0  0  0  0  0  0
    5.3467   -2.2277   -1.5316 H   0  0  0  0  0  0  0  0  0  0  0  0
    5.1017   -2.5319    0.9391 H   0  0  0  0  0  0  0  0  0  0  0  0
    6.6236   -1.7156    0.5754 H   0  0  0  0  0  0  0  0  0  0  0  0
    3.3351    1.3842   -1.6175 H   0  0  0  0  0  0  0  0  0  0  0  0
    3.3775    2.1062   -0.0147 H   0  0  0  0  0  0  0  0  0  0  0  0
   -4.6228    0.9390    2.2315 H   0  0  0  0  0  0  0  0  0  0  0  0
   -6.9410    1.8396    2.2802 H   0  0  0  0  0  0  0  0  0  0  0  0
   -6.5941    3.0259   -1.8227 H   0  0  0  0  0  0  0  0  0  0  0  0
   -4.2731    2.1339   -1.9000 H   0  0  0  0  0  0  0  0  0  0  0  0
  1  2  1  0
  2  3  1  0
  3  4  1  0
  4  5  1  0
  5  6  2  0
  6  7  1  0
  7  8  2  0
  7  9  1  0
 10  9  1  1
 10 11  1  0
 11 12  1  0
 12 13  1  0
 13 14  1  0
 14 15  1  0
 15 16  1  0
 16 17  1  0
 16 18  1  0
 18 19  2  0
 14 20  1  0
  6 21  1  0
 21 22  1  0
 21 23  2  0
 23 24  1  0
 24 25  1  0
 25 26  2  0
 26 27  1  0
 27 28  1  0
 27 29  2  0
 29 30  1  0
 23  4  1  0
 30 24  2  0
 18 10  1  0
 20 10  1  0
 17 12  1  0
  1 31  1  0
  1 32  1  0
  1 33  1  0
  2 34  1  0
  2 35  1  0
  3 36  1  0
  3 37  1  0
  5 38  1  0
  9 39  1  0
 11 40  1  0
 11 41  1  0
 12 42  1  1
 13 43  1  0
 13 44  1  0
 14 45  1  6
 15 46  1  0
 15 47  1  0
 16 48  1  6
 17 49  1  0
 17 50  1  0
 20 51  1  0
 20 52  1  0
 25 53  1  0
 26 54  1  0
 29 55  1  0
 30 56  1  0
M  END
>  <_SMILES>  (1) 
CCCn1cc(C(=O)N[C@@]23C[C@@H]4C[C@@H](C[C@@H](C4)C2=O)C3)c(Br)c1-c1ccc(F)cc1

$$$$

     RDKit          3D

 79 84  0  0  0  0  0  0  0  0999 V2000
    0.4572   -2.0283    0.4880 C   0  0  0  0  0  0  0  0  0  0  0  0
    0.3998   -0.6231    0.9872 C   0  0  0  0  0  0  0  0  0  0  0  0
    1.5080    0.1923    1.4161 C   0  0  0  0  0  0  0  0  0  0  0  0
    2.9487   -0.0789    1.4451 C   0  0  0  0  0  0  0  0  0  0  0  0
    3.6965    0.4791    2.2393 O   0  0  0  0  0  0  0  0  0  0  0  0
    3.3732   -0.9680    0.4799 N   0  0  0  0  0  0  0  0  0  0  0  0
    4.7824   -1.2128    0.1655 C   0  0  1  0  0  0  0  0  0  0  0  0
    4.8676   -2.4323   -0.7910 C   0  0  0  0  0  0  0  0  0  0  0  0
    6.3233   -2.6972   -1.2265 C   0  0  2  0  0  0  0  0  0  0  0  0
    7.1824   -2.9642    0.0170 C   0  0  0  0  0  0  0  0  0  0  0  0
    7.1347   -1.7519    0.9567 C   0  0  1  0  0  0  0  0  0  0  0  0
    7.6592   -0.5020    0.2255 C   0  0  0  0  0  0  0  0  0  0  0  0
    6.8349   -0.2369   -1.0386 C   0  0  1  0  0  0  0  0  0  0  0  0
    6.8682   -1.4587   -1.9660 C   0  0  0  0  0  0  0  0  0  0  0  0
    5.3773   -0.0378   -0.6440 C   0  0  0  0  0  0  0  0  0  0  0  0
    4.7170    0.9143   -1.0563 O   0  0  0  0  0  0  0  0  0  0  0  0
    5.6812   -1.4890    1.3914 C   0  0  0  0  0  0  0  0  0  0  0  0
    0.9601    1.3806    1.8651 C   0  0  0  0  0  0  0  0  0  0  0  0
   -0.3944    1.3473    1.6810 N   0  0  0  0  0  0  0  0  0  0  0  0
   -1.2849    2.4482    2.0294 C   0  0  0  0  0  0  0  0  0  0  0  0
   -1.4804    3.4181    0.8628 C   0  0  0  0  0  0  0  0  0  0  0  0
   -2.4014    4.6025    1.2049 C   0  0  0  0  0  0  0  0  0  0  0  0
   -2.3940    5.6138    0.0559 C   0  0  0  0  0  0  0  0  0  0  0  0
   -3.8372    4.1564    1.4878 C   0  0  0  0  0  0  0  0  0  0  0  0
   -0.7610    0.1324    1.1439 C   0  0  0  0  0  0  0  0  0  0  0  0
   -2.1424   -0.2279    0.8334 C   0  0  0  0  0  0  0  0  0  0  0  0
   -2.9565   -0.8076    1.8095 C   0  0  0  0  0  0  0  0  0  0  0  0
   -4.2773   -1.1421    1.5087 C   0  0  0  0  0  0  0  0  0  0  0  0
   -4.7900   -0.9048    0.2328 C   0  0  0  0  0  0  0  0  0  0  0  0
   -3.9906   -0.3133   -0.7491 C   0  0  0  0  0  0  0  0  0  0  0  0
   -2.6590    0.0070   -0.4457 C   0  0  0  0  0  0  0  0  0  0  0  0
   -4.5279   -0.0474   -2.1228 C   0  0  0  0  0  0  0  0  0  0  0  0
   -6.0486   -0.0589   -2.1049 C   0  0  0  0  0  0  0  0  0  0  0  0
   -6.5854   -1.2594   -1.3109 C   0  0  0  0  0  0  0  0  0  0  0  0
   -6.2526   -2.6063   -1.9712 C   0  0  0  0  0  0  0  0  0  0  0  0
   -8.1125   -1.1358   -1.2016 C   0  0  0  0  0  0  0  0  0  0  0  0
   -6.0948   -1.2681    0.0419 O   0  0  0  0  0  0  0  0  0  0  0  0
   -0.4972   -2.5458    0.6271 H   0  0  0  0  0  0  0  0  0  0  0  0
    0.6968   -2.0420   -0.5798 H   0  0  0  0  0  0  0  0  0  0  0  0
    1.2149   -2.6052    1.0274 H   0  0  0  0  0  0  0  0  0  0  0  0
    2.7495   -0.9885   -0.3164 H   0  0  0  0  0  0  0  0  0  0  0  0
    4.2504   -2.2606   -1.6836 H   0  0  0  0  0  0  0  0  0  0  0  0
    4.4580   -3.3243   -0.2988 H   0  0  0  0  0  0  0  0  0  0  0  0
    6.3554   -3.5664   -1.8929 H   0  0  0  0  0  0  0  0  0  0  0  0
    8.2186   -3.1677   -0.2796 H   0  0  0  0  0  0  0  0  0  0  0  0
    6.8188   -3.8575    0.5393 H   0  0  0  0  0  0  0  0  0  0  0  0
    7.7523   -1.9460    1.8410 H   0  0  0  0  0  0  0  0  0  0  0  0
    7.6102    0.3661    0.8946 H   0  0  0  0  0  0  0  0  0  0  0  0
    8.7135   -0.6438   -0.0414 H   0  0  0  0  0  0  0  0  0  0  0  0
    7.2002    0.6572   -1.5538 H   0  0  0  0  0  0  0  0  0  0  0  0
    6.2633   -1.2697   -2.8617 H   0  0  0  0  0  0  0  0  0  0  0  0
    7.8950   -1.6454   -2.3032 H   0  0  0  0  0  0  0  0  0  0  0  0
    5.2954   -2.3477    1.9555 H   0  0  0  0  0  0  0  0  0  0  0  0
    5.6968   -0.6412    2.0829 H   0  0  0  0  0  0  0  0  0  0  0  0
    1.4493    2.2518    2.2836 H   0  0  0  0  0  0  0  0  0  0  0  0
   -2.2301    2.0165    2.3692 H   0  0  0  0  0  0  0  0  0  0  0  0
   -0.8412    2.9654    2.8885 H   0  0  0  0  0  0  0  0  0  0  0  0
   -1.8777    2.8834   -0.0086 H   0  0  0  0  0  0  0  0  0  0  0  0
   -0.4983    3.8038    0.5584 H   0  0  0  0  0  0  0  0  0  0  0  0
   -2.0133    5.1062    2.0992 H   0  0  0  0  0  0  0  0  0  0  0  0
   -2.7754    5.1677   -0.8690 H   0  0  0  0  0  0  0  0  0  0  0  0
   -3.0179    6.4813    0.2964 H   0  0  0  0  0  0  0  0  0  0  0  0
   -1.3791    5.9777   -0.1362 H   0  0  0  0  0  0  0  0  0  0  0  0
   -4.2477    3.5837    0.6491 H   0  0  0  0  0  0  0  0  0  0  0  0
   -4.4868    5.0223    1.6554 H   0  0  0  0  0  0  0  0  0  0  0  0
   -3.8928    3.5333    2.3853 H   0  0  0  0  0  0  0  0  0  0  0  0
   -2.5658   -1.0017    2.8053 H   0  0  0  0  0  0  0  0  0  0  0  0
   -4.9082   -1.5944    2.2691 H   0  0  0  0  0  0  0  0  0  0  0  0
   -2.0213    0.4527   -1.2066 H   0  0  0  0  0  0  0  0  0  0  0  0
   -4.1819    0.9281   -2.4844 H   0  0  0  0  0  0  0  0  0  0  0  0
   -4.1459   -0.8099   -2.8113 H   0  0  0  0  0  0  0  0  0  0  0  0
   -6.3910    0.8700   -1.6274 H   0  0  0  0  0  0  0  0  0  0  0  0
   -6.4350   -0.0542   -3.1309 H   0  0  0  0  0  0  0  0  0  0  0  0
   -6.6920   -3.4340   -1.4021 H   0  0  0  0  0  0  0  0  0  0  0  0
   -6.6321   -2.6531   -2.9972 H   0  0  0  0  0  0  0  0  0  0  0  0
   -5.1750   -2.7980   -1.9934 H   0  0  0  0  0  0  0  0  0  0  0  0
   -8.3925   -0.2121   -0.6819 H   0  0  0  0  0  0  0  0  0  0  0  0
   -8.5308   -1.9588   -0.6105 H   0  0  0  0  0  0  0  0  0  0  0  0
   -8.5904   -1.1382   -2.1868 H   0  0  0  0  0  0  0  0  0  0  0  0
  1  2  1  0
  2  3  1  0
  3  4  1  0
  4  5  2  0
  4  6  1  0
  7  6  1  1
  7  8  1  0
  8  9  1  0
  9 10  1  0
 10 11  1  0
 11 12  1  0
 12 13  1  0
 13 14  1  0
 13 15  1  0
 15 16  2  0
 11 17  1  0
  3 18  2  0
 18 19  1  0
 19 20  1  0
 20 21  1  0
 21 22  1  0
 22 23  1  0
 22 24  1  0
 19 25  1  0
 25 26  1  0
 26 27  1  0
 27 28  2  0
 28 29  1  0
 29 30  2  0
 30 31  1  0
 30 32  1  0
 32 33  1  0
 33 34  1  0
 34 35  1  0
 34 36  1  0
 34 37  1  0
 25  2  2  0
 31 26  2  0
 15  7  1  0
 37 29  1  0
 17  7  1  0
 14  9  1  0
  1 38  1  0
  1 39  1  0
  1 40  1  0
  6 41  1  0
  8 42  1  0
  8 43  1  0
  9 44  1  6
 10 45  1  0
 10 46  1  0
 11 47  1  1
 12 48  1  0
 12 49  1  0
 13 50  1  6
 14 51  1  0
 14 52  1  0
 17 53  1  0
 17 54  1  0
 18 55  1  0
 20 56  1  0
 20 57  1  0
 21 58  1  0
 21 59  1  0
 22 60  1  0
 23 61  1  0
 23 62  1  0
 23 63  1  0
 24 64  1  0
 24 65  1  0
 24 66  1  0
 27 67  1  0
 28 68  1  0
 31 69  1  0
 32 70  1  0
 32 71  1  0
 33 72  1  0
 33 73  1  0
 35 74  1  0
 35 75  1  0
 35 76  1  0
 36 77  1  0
 36 78  1  0
 36 79  1  0
M  END
>  <_SMILES>  (2) 
Cc1c(C(=O)N[C@@]23C[C@@H]4C[C@@H](C[C@@H](C4)C2=O)C3)cn(CCC(C)C)c1-c1ccc2c(c1)CCC(C)(C)O2

$$$$

     RDKit          3D

 18 18  0  0  0  0  0  0  0  0999 V2000
    3.4889    0.8161    0.8255 N   0  0  0  0  0  0  0  0  0  0  0  0
    2.0796    0.7802    0.7250 N   0  0  0  0  0  0  0  0  0  0  0  0
    1.4957   -0.0626   -0.2142 C   0  0  0  0  0  0  0  0  0  0  0  0
    2.1503   -0.7372   -1.0049 O   0  0  0  0  0  0  0  0  0  0  0  0
    0.0089   -0.1469   -0.1984 C   0  0  0  0  0  0  0  0  0  0  0  0
   -0.7944    0.9059    0.2620 C   0  0  0  0  0  0  0  0  0  0  0  0
   -2.1875    0.7785    0.2510 C   0  0  0  0  0  0  0  0  0  0  0  0
   -2.7765   -0.3927   -0.2253 C   0  0  0  0  0  0  0  0  0  0  0  0
   -4.4897   -0.5429   -0.2364 Cl  0  0  0  0  0  0  0  0  0  0  0  0
   -1.9861   -1.4380   -0.6987 C   0  0  0  0  0  0  0  0  0  0  0  0
   -0.5943   -1.3134   -0.6899 C   0  0  0  0  0  0  0  0  0  0  0  0
    3.8264   -0.1278    0.5912 H   0  0  0  0  0  0  0  0  0  0  0  0
    3.8326    1.3788    0.0402 H   0  0  0  0  0  0  0  0  0  0  0  0
    1.5378    1.1412    1.5066 H   0  0  0  0  0  0  0  0  0  0  0  0
   -0.3608    1.8410    0.6053 H   0  0  0  0  0  0  0  0  0  0  0  0
   -2.8076    1.5984    0.6055 H   0  0  0  0  0  0  0  0  0  0  0  0
   -2.4432   -2.3484   -1.0783 H   0  0  0  0  0  0  0  0  0  0  0  0
    0.0200   -2.1301   -1.0662 H   0  0  0  0  0  0  0  0  0  0  0  0
  1  2  1  0
  2  3  1  0
  3  4  2  0
  3  5  1  0
  5  6  1  0
  6  7  2  0
  7  8  1  0
  8  9  1  0
  8 10  2  0
 10 11  1  0
 11  5  2  0
  1 12  1  0
  1 13  1  0
  2 14  1  0
  6 15  1  0
  7 16  1  0
 10 17  1  0
 11 18  1  0
M  END
>  <_SMILES>  (3) 
NNC(=O)c1ccc(Cl)cc1

$$$$

     RDKit          3D

 66 70  0  0  0  0  0  0  0  0999 V2000
    0.5067    0.1907   -1.3289 C   0  0  0  0  0  0  0  0  0  0  0  0
    0.6167   -1.1789   -0.6748 C   0  0  0  0  0  0  0  0  0  0  0  0
    0.7416   -1.0776    0.8084 C   0  0  0  0  0  0  0  0  0  0  0  0
   -0.1560   -0.7217    1.8143 C   0  0  0  0  0  0  0  0  0  0  0  0
   -1.5716   -0.3515    1.7338 C   0  0  0  0  0  0  0  0  0  0  0  0
   -2.0940    0.3955    2.5529 O   0  0  0  0  0  0  0  0  0  0  0  0
   -2.2623   -0.9245    0.6791 N   0  0  0  0  0  0  0  0  0  0  0  0
   -3.7197   -0.8533    0.5278 C   0  0  1  0  0  0  0  0  0  0  0  0
   -4.0908   -1.3660   -0.8899 C   0  0  0  0  0  0  0  0  0  0  0  0
   -5.6208   -1.4048   -1.0839 C   0  0  2  0  0  0  0  0  0  0  0  0
   -6.1907    0.0066   -0.8876 C   0  0  0  0  0  0  0  0  0  0  0  0
   -5.8591    0.5136    0.5223 C   0  0  1  0  0  0  0  0  0  0  0  0
   -6.4591   -0.4368    1.5755 C   0  0  0  0  0  0  0  0  0  0  0  0
   -5.9285   -1.8603    1.3761 C   0  0  1  0  0  0  0  0  0  0  0  0
   -6.2448   -2.3553   -0.0417 C   0  0  0  0  0  0  0  0  0  0  0  0
   -4.4103   -1.8433    1.4912 C   0  0  0  0  0  0  0  0  0  0  0  0
   -3.7979   -2.6544    2.1839 O   0  0  0  0  0  0  0  0  0  0  0  0
   -4.3319    0.5522    0.7148 C   0  0  0  0  0  0  0  0  0  0  0  0
    0.5108   -0.7053    3.0172 N   0  0  0  0  0  0  0  0  0  0  0  0
    1.7654   -1.0667    2.8115 N   0  0  0  0  0  0  0  0  0  0  0  0
    1.9210   -1.2720    1.4931 N   0  0  0  0  0  0  0  0  0  0  0  0
    3.2374   -1.6436    0.9941 C   0  0  0  0  0  0  0  0  0  0  0  0
    3.9238   -0.5018    0.2818 C   0  0  0  0  0  0  0  0  0  0  0  0
    4.3993   -0.6718   -1.0257 C   0  0  0  0  0  0  0  0  0  0  0  0
    5.0280    0.3760   -1.7033 C   0  0  0  0  0  0  0  0  0  0  0  0
    5.4278    0.0681   -2.9776 O   0  0  0  0  0  0  0  0  0  0  0  0
    5.2164    1.1030   -3.9355 C   0  0  0  0  0  0  0  0  0  0  0  0
    5.2463    1.5919   -1.0423 C   0  0  0  0  0  0  0  0  0  0  0  0
    5.9088    2.6159   -1.6772 O   0  0  0  0  0  0  0  0  0  0  0  0
    7.2920    2.5900   -1.3212 C   0  0  0  0  0  0  0  0  0  0  0  0
    4.7622    1.7905    0.2636 C   0  0  0  0  0  0  0  0  0  0  0  0
    4.9845    3.0271    0.8143 O   0  0  0  0  0  0  0  0  0  0  0  0
    4.2979    3.3343    2.0217 C   0  0  0  0  0  0  0  0  0  0  0  0
    4.1185    0.7362    0.9199 C   0  0  0  0  0  0  0  0  0  0  0  0
    0.4389    0.0852   -2.4164 H   0  0  0  0  0  0  0  0  0  0  0  0
   -0.3839    0.7284   -0.9872 H   0  0  0  0  0  0  0  0  0  0  0  0
    1.3789    0.8128   -1.1027 H   0  0  0  0  0  0  0  0  0  0  0  0
   -0.2570   -1.7817   -0.9413 H   0  0  0  0  0  0  0  0  0  0  0  0
    1.4715   -1.7086   -1.1070 H   0  0  0  0  0  0  0  0  0  0  0  0
   -1.8647   -1.8145    0.4088 H   0  0  0  0  0  0  0  0  0  0  0  0
   -3.6343   -0.7217   -1.6529 H   0  0  0  0  0  0  0  0  0  0  0  0
   -3.6822   -2.3732   -1.0507 H   0  0  0  0  0  0  0  0  0  0  0  0
   -5.8546   -1.7620   -2.0931 H   0  0  0  0  0  0  0  0  0  0  0  0
   -5.7723    0.6878   -1.6386 H   0  0  0  0  0  0  0  0  0  0  0  0
   -7.2774   -0.0035   -1.0361 H   0  0  0  0  0  0  0  0  0  0  0  0
   -6.2713    1.5199    0.6588 H   0  0  0  0  0  0  0  0  0  0  0  0
   -7.5531   -0.4337    1.4969 H   0  0  0  0  0  0  0  0  0  0  0  0
   -6.2075   -0.0801    2.5821 H   0  0  0  0  0  0  0  0  0  0  0  0
   -6.3458   -2.5345    2.1308 H   0  0  0  0  0  0  0  0  0  0  0  0
   -5.8490   -3.3686   -0.1852 H   0  0  0  0  0  0  0  0  0  0  0  0
   -7.3306   -2.4092   -0.1864 H   0  0  0  0  0  0  0  0  0  0  0  0
   -3.8795    1.2578    0.0063 H   0  0  0  0  0  0  0  0  0  0  0  0
   -4.1433    0.9487    1.7168 H   0  0  0  0  0  0  0  0  0  0  0  0
    3.8503   -1.9715    1.8421 H   0  0  0  0  0  0  0  0  0  0  0  0
    3.0965   -2.5106    0.3393 H   0  0  0  0  0  0  0  0  0  0  0  0
    4.2716   -1.6217   -1.5414 H   0  0  0  0  0  0  0  0  0  0  0  0
    6.1006    1.7425   -4.0067 H   0  0  0  0  0  0  0  0  0  0  0  0
    4.3162    1.6924   -3.7280 H   0  0  0  0  0  0  0  0  0  0  0  0
    5.0794    0.6256   -4.9109 H   0  0  0  0  0  0  0  0  0  0  0  0
    7.4377    2.7920   -0.2549 H   0  0  0  0  0  0  0  0  0  0  0  0
    7.7958    3.3805   -1.8855 H   0  0  0  0  0  0  0  0  0  0  0  0
    7.7542    1.6345   -1.5936 H   0  0  0  0  0  0  0  0  0  0  0  0
    3.2162    3.2020    1.9115 H   0  0  0  0  0  0  0  0  0  0  0  0
    4.6879    2.7403    2.8544 H   0  0  0  0  0  0  0  0  0  0  0  0
    4.4823    4.3882    2.2512 H   0  0  0  0  0  0  0  0  0  0  0  0
    3.7609    0.8545    1.9402 H   0  0  0  0  0  0  0  0  0  0  0  0
  1  2  1  0
  2  3  1  0
  3  4  2  0
  4  5  1  0
  5  6  2  0
  5  7  1  0
  8  7  1  6
  8  9  1  0
  9 10  1  0
 10 11  1  0
 11 12  1  0
 12 13  1  0
 13 14  1  0
 14 15  1  0
 14 16  1  0
 16 17  2  0
 12 18  1  0
  4 19  1  0
 19 20  2  0
 20 21  1  0
 21 22  1  0
 22 23  1  0
 23 24  1  0
 24 25  2  0
 25 26  1  0
 26 27  1  0
 25 28  1  0
 28 29  1  0
 29 30  1  0
 28 31  2  0
 31 32  1  0
 32 33  1  0
 31 34  1  0
 21  3  1  0
 34 23  2  0
 16  8  1  0
 18  8  1  0
 15 10  1  0
  1 35  1  0
  1 36  1  0
  1 37  1  0
  2 38  1  0
  2 39  1  0
  7 40  1  0
  9 41  1  0
  9 42  1  0
 10 43  1  6
 11 44  1  0
 11 45  1  0
 12 46  1  1
 13 47  1  0
 13 48  1  0
 14 49  1  1
 15 50  1  0
 15 51  1  0
 18 52  1  0
 18 53  1  0
 22 54  1  0
 22 55  1  0
 24 56  1  0
 27 57  1  0
 27 58  1  0
 27 59  1  0
 30 60  1  0
 30 61  1  0
 30 62  1  0
 33 63  1  0
 33 64  1  0
 33 65  1  0
 34 66  1  0
M  END
>  <_SMILES>  (4) 
CCc1c(C(=O)N[C@@]23C[C@@H]4C[C@@H](C[C@@H](C4)C2=O)C3)nnn1Cc1cc(OC)c(OC)c(OC)c1

$$$$

     RDKit          3D

 29 31  0  0  0  0  0  0  0  0999 V2000
    3.5751   -0.6364    0.6823 C   0  0  0  0  0  0  0  0  0  0  0  0
    2.8478   -0.5135   -0.6449 C   0  0  0  0  0  0  0  0  0  0  0  0
    1.6064    0.2291   -0.5229 N   0  0  0  0  0  0  0  0  0  0  0  0
    1.4951    1.5941   -0.7050 C   0  0  0  0  0  0  0  0  0  0  0  0
    0.1724    1.9397   -0.5571 C   0  0  0  0  0  0  0  0  0  0  0  0
   -0.3275    3.1776   -0.6782 N   0  0  0  0  0  0  0  0  0  0  0  0
   -0.5278    0.7666   -0.2607 C   0  0  0  0  0  0  0  0  0  0  0  0
    0.3666   -0.2920   -0.2484 C   0  0  0  0  0  0  0  0  0  0  0  0
   -0.0055   -1.7384   -0.0347 C   0  0  0  0  0  0  0  0  0  0  0  0
   -1.3891   -1.9106    0.6781 C   0  0  0  0  0  0  0  0  0  0  0  0
   -2.2998   -0.7510    0.4333 C   0  0  0  0  0  0  0  0  0  0  0  0
   -3.6487   -0.6621    0.6158 N   0  0  0  0  0  0  0  0  0  0  0  0
   -4.0055    0.6332    0.3220 C   0  0  0  0  0  0  0  0  0  0  0  0
   -2.9717    1.3703   -0.0334 N   0  0  0  0  0  0  0  0  0  0  0  0
   -1.9212    0.5081    0.0247 C   0  0  0  0  0  0  0  0  0  0  0  0
    4.5051   -1.1989    0.5550 H   0  0  0  0  0  0  0  0  0  0  0  0
    3.8251    0.3497    1.0879 H   0  0  0  0  0  0  0  0  0  0  0  0
    2.9606   -1.1558    1.4250 H   0  0  0  0  0  0  0  0  0  0  0  0
    3.4751    0.0048   -1.3788 H   0  0  0  0  0  0  0  0  0  0  0  0
    2.6130   -1.5019   -1.0535 H   0  0  0  0  0  0  0  0  0  0  0  0
    2.3632    2.1946   -0.9378 H   0  0  0  0  0  0  0  0  0  0  0  0
   -1.2985    3.3295   -0.4037 H   0  0  0  0  0  0  0  0  0  0  0  0
    0.2590    3.9994   -0.6076 H   0  0  0  0  0  0  0  0  0  0  0  0
   -0.0605   -2.2171   -1.0210 H   0  0  0  0  0  0  0  0  0  0  0  0
    0.7636   -2.2660    0.5395 H   0  0  0  0  0  0  0  0  0  0  0  0
   -1.2166   -1.9830    1.7595 H   0  0  0  0  0  0  0  0  0  0  0  0
   -1.8524   -2.8512    0.3606 H   0  0  0  0  0  0  0  0  0  0  0  0
   -4.2735   -1.3936    0.9250 H   0  0  0  0  0  0  0  0  0  0  0  0
   -5.0296    0.9748    0.3905 H   0  0  0  0  0  0  0  0  0  0  0  0
  1  2  1  0
  2  3  1  0
  3  4  1  0
  4  5  2  0
  5  6  1  0
  5  7  1  0
  7  8  2  0
  8  9  1  0
  9 10  1  0
 10 11  1  0
 11 12  1  0
 12 13  1  0
 13 14  2  0
 14 15  1  0
  8  3  1  0
 15 11  2  0
 15  7  1  0
  1 16  1  0
  1 17  1  0
  1 18  1  0
  2 19  1  0
  2 20  1  0
  4 21  1  0
  6 22  1  0
  6 23  1  0
  9 24  1  0
  9 25  1  0
 10 26  1  0
 10 27  1  0
 12 28  1  0
 13 29  1  0
M  END
>  <_SMILES>  (5) 
CCn1cc(N)c2c1CCc1[nH]cnc1-2

$$$$

     RDKit          3D

 29 31  0  0  0  0  0  0  0  0999 V2000
   -3.4133   -1.2691    0.5133 C   0  0  0  0  0  0  0  0  0  0  0  0
   -2.7530   -0.7245   -0.7408 C   0  0  0  0  0  0  0  0  0  0  0  0
   -1.5979    0.1020   -0.4374 N   0  0  0  0  0  0  0  0  0  0  0  0
   -1.6431    1.4719   -0.2770 C   0  0  0  0  0  0  0  0  0  0  0  0
   -0.3649    1.9205   -0.0424 C   0  0  0  0  0  0  0  0  0  0  0  0
   -0.0325    3.2101    0.1330 N   0  0  0  0  0  0  0  0  0  0  0  0
    0.4658    0.7953   -0.0283 C   0  0  0  0  0  0  0  0  0  0  0  0
   -0.3001   -0.3241   -0.3021 C   0  0  0  0  0  0  0  0  0  0  0  0
    0.2206   -1.7266   -0.4957 C   0  0  0  0  0  0  0  0  0  0  0  0
    1.6060   -1.9633    0.1680 C   0  0  0  0  0  0  0  0  0  0  0  0
    2.4484   -0.7315    0.2350 C   0  0  0  0  0  0  0  0  0  0  0  0
    3.8031   -0.7150    0.4492 N   0  0  0  0  0  0  0  0  0  0  0  0
    4.1099    0.5637    0.5510 C   0  0  0  0  0  0  0  0  0  0  0  0
    3.0086    1.3724    0.4215 N   0  0  0  0  0  0  0  0  0  0  0  0
    1.9552    0.5516    0.1957 C   0  0  0  0  0  0  0  0  0  0  0  0
   -2.7186   -1.8874    1.0914 H   0  0  0  0  0  0  0  0  0  0  0  0
   -4.2795   -1.8838    0.2500 H   0  0  0  0  0  0  0  0  0  0  0  0
   -3.7557   -0.4568    1.1631 H   0  0  0  0  0  0  0  0  0  0  0  0
   -2.4257   -1.5389   -1.3954 H   0  0  0  0  0  0  0  0  0  0  0  0
   -3.4608   -0.1113   -1.3098 H   0  0  0  0  0  0  0  0  0  0  0  0
   -2.5808    2.0048   -0.3538 H   0  0  0  0  0  0  0  0  0  0  0  0
   -0.7083    3.9290   -0.1087 H   0  0  0  0  0  0  0  0  0  0  0  0
    0.9186    3.5090   -0.0413 H   0  0  0  0  0  0  0  0  0  0  0  0
   -0.4900   -2.4688   -0.1163 H   0  0  0  0  0  0  0  0  0  0  0  0
    0.3177   -1.8958   -1.5761 H   0  0  0  0  0  0  0  0  0  0  0  0
    1.4453   -2.3108    1.1967 H   0  0  0  0  0  0  0  0  0  0  0  0
    2.1357   -2.7639   -0.3601 H   0  0  0  0  0  0  0  0  0  0  0  0
    5.0995    0.9630    0.7273 H   0  0  0  0  0  0  0  0  0  0  0  0
    2.9898    2.3782    0.4900 H   0  0  0  0  0  0  0  0  0  0  0  0
  1  2  1  0
  2  3  1  0
  3  4  1  0
  4  5  2  0
  5  6  1  0
  5  7  1  0
  7  8  2  0
  8  9  1  0
  9 10  1  0
 10 11  1  0
 11 12  1  0
 12 13  2  0
 13 14  1  0
 14 15  1  0
  8  3  1  0
 15 11  2  0
 15  7  1  0
  1 16  1  0
  1 17  1  0
  1 18  1  0
  2 19  1  0
  2 20  1  0
  4 21  1  0
  6 22  1  0
  6 23  1  0
  9 24  1  0
  9 25  1  0
 10 26  1  0
 10 27  1  0
 13 28  1  0
 14 29  1  0
M  END
>  <_SMILES>  (6) 
CCn1cc(N)c2c1CCc1nc[nH]c1-2

$$$$

     RDKit          3D

 30 32  0  0  0  0  0  0  0  0999 V2000
    3.6671   -0.7542    0.9825 C   0  0  0  0  0  0  0  0  0  0  0  0
    2.9924   -0.4511   -0.3433 C   0  0  0  0  0  0  0  0  0  0  0  0
    1.7388    0.2656   -0.1678 N   0  0  0  0  0  0  0  0  0  0  0  0
    1.6234    1.6423   -0.1822 C   0  0  0  0  0  0  0  0  0  0  0  0
    0.2998    1.9731   -0.0129 C   0  0  0  0  0  0  0  0  0  0  0  0
   -0.1697    3.2309    0.0498 N   0  0  0  0  0  0  0  0  0  0  0  0
   -0.3989    0.7722    0.0766 C   0  0  0  0  0  0  0  0  0  0  0  0
    0.4894   -0.2852   -0.0096 C   0  0  0  0  0  0  0  0  0  0  0  0
    0.1299   -1.7504   -0.0416 C   0  0  0  0  0  0  0  0  0  0  0  0
   -1.2794   -2.0440    0.5529 C   0  0  0  0  0  0  0  0  0  0  0  0
   -2.2234   -0.9050    0.3788 C   0  0  0  0  0  0  0  0  0  0  0  0
   -3.6061   -0.9283    0.4392 N   0  0  0  0  0  0  0  0  0  0  0  0
   -4.0911    0.3116    0.2897 C   0  0  0  0  0  0  0  0  0  0  0  0
   -3.0463    1.1311    0.1553 N   0  0  0  0  0  0  0  0  0  0  0  0
   -1.8754    0.4207    0.1969 C   0  0  0  0  0  0  0  0  0  0  0  0
    4.6061   -1.2911    0.8167 H   0  0  0  0  0  0  0  0  0  0  0  0
    3.0278   -1.3730    1.6208 H   0  0  0  0  0  0  0  0  0  0  0  0
    3.8923    0.1671    1.5301 H   0  0  0  0  0  0  0  0  0  0  0  0
    3.6428    0.1660   -0.9731 H   0  0  0  0  0  0  0  0  0  0  0  0
    2.7797   -1.3735   -0.8935 H   0  0  0  0  0  0  0  0  0  0  0  0
    2.5020    2.2633   -0.3038 H   0  0  0  0  0  0  0  0  0  0  0  0
   -0.9409    3.4491    0.6718 H   0  0  0  0  0  0  0  0  0  0  0  0
    0.5141    3.9883    0.0758 H   0  0  0  0  0  0  0  0  0  0  0  0
    0.1395   -2.0713   -1.0914 H   0  0  0  0  0  0  0  0  0  0  0  0
    0.8764   -2.3523    0.4879 H   0  0  0  0  0  0  0  0  0  0  0  0
   -1.6995   -2.9497    0.1039 H   0  0  0  0  0  0  0  0  0  0  0  0
   -1.1851   -2.2186    1.6316 H   0  0  0  0  0  0  0  0  0  0  0  0
   -4.1772   -1.7592    0.5768 H   0  0  0  0  0  0  0  0  0  0  0  0
   -5.1369    0.5941    0.2797 H   0  0  0  0  0  0  0  0  0  0  0  0
   -3.0915    2.1314   -0.0124 H   0  0  0  0  0  0  0  0  0  0  0  0
  1  2  1  0
  2  3  1  0
  3  4  1  0
  4  5  2  0
  5  6  1  0
  5  7  1  0
  7  8  2  0
  8  9  1  0
  9 10  1  0
 10 11  1  0
 11 12  1  0
 12 13  1  0
 13 14  2  0
 14 15  1  0
  8  3  1  0
 15 11  2  0
 15  7  1  0
  1 16  1  0
  1 17  1  0
  1 18  1  0
  2 19  1  0
  2 20  1  0
  4 21  1  0
  6 22  1  0
  6 23  1  0
  9 24  1  0
  9 25  1  0
 10 26  1  0
 10 27  1  0
 12 28  1  0
 13 29  1  0
 14 30  1  0
M  CHG  1  14   1
M  END
>  <_SMILES>  (7) 
CCn1cc(N)c2c1CCc1[nH]c[nH+]c1-2

$$$$

     RDKit          3D

 57 61  0  0  0  0  0  0  0  0999 V2000
   -2.2115    2.4021   -0.9252 O   0  0  0  0  0  0  0  0  0  0  0  0
   -1.1989    1.8195   -0.5575 C   0  0  0  0  0  0  0  0  0  0  0  0
   -1.1857    0.5016   -0.1754 N   0  0  0  0  0  0  0  0  0  0  0  0
   -2.3527   -0.3728   -0.1683 C   0  0  1  0  0  0  0  0  0  0  0  0
   -2.9586   -0.5821   -1.5704 C   0  0  0  0  0  0  0  0  0  0  0  0
   -4.1106   -1.6054   -1.5087 C   0  0  2  0  0  0  0  0  0  0  0  0
   -5.1830   -1.1092   -0.5239 C   0  0  0  0  0  0  0  0  0  0  0  0
   -4.5823   -0.9457    0.8826 C   0  0  1  0  0  0  0  0  0  0  0  0
   -4.0260   -2.2994    1.3634 C   0  0  0  0  0  0  0  0  0  0  0  0
   -2.9652   -2.8125    0.3832 C   0  0  1  0  0  0  0  0  0  0  0  0
   -3.5561   -2.9584   -1.0235 C   0  0  0  0  0  0  0  0  0  0  0  0
   -1.8699   -1.7611    0.3071 C   0  0  0  0  0  0  0  0  0  0  0  0
   -0.6973   -2.0010    0.5954 O   0  0  0  0  0  0  0  0  0  0  0  0
   -3.4331    0.0807    0.8330 C   0  0  0  0  0  0  0  0  0  0  0  0
    0.1054    2.4790   -0.5122 C   0  0  0  0  0  0  0  0  0  0  0  0
    0.9569    2.4503    0.5915 C   0  0  0  0  0  0  0  0  0  0  0  0
    0.7511    1.8491    1.8710 C   0  0  0  0  0  0  0  0  0  0  0  0
    1.5551    0.9278    2.4281 C   0  0  0  0  0  0  0  0  0  0  0  0
    2.7775    0.3572    1.8565 C   0  0  0  0  0  0  0  0  0  0  0  0
    4.0256    0.8293    2.2677 C   0  0  0  0  0  0  0  0  0  0  0  0
    5.1933    0.2944    1.7176 C   0  0  0  0  0  0  0  0  0  0  0  0
    5.1330   -0.7212    0.7585 C   0  0  0  0  0  0  0  0  0  0  0  0
    6.3502   -1.1457    0.3093 O   0  0  0  0  0  0  0  0  0  0  0  0
    6.3724   -2.1641   -0.6754 C   0  0  0  0  0  0  0  0  0  0  0  0
    5.7368   -1.7712   -1.8001 F   0  0  0  0  0  0  0  0  0  0  0  0
    7.6590   -2.4311   -0.9931 F   0  0  0  0  0  0  0  0  0  0  0  0
    5.8113   -3.3021   -0.2136 F   0  0  0  0  0  0  0  0  0  0  0  0
    3.8859   -1.2014    0.3580 C   0  0  0  0  0  0  0  0  0  0  0  0
    2.7143   -0.6651    0.9064 C   0  0  0  0  0  0  0  0  0  0  0  0
    2.3564    3.4127    0.3118 S   0  0  0  0  0  0  0  0  0  0  0  0
    1.8840    3.8133   -1.2752 C   0  0  0  0  0  0  0  0  0  0  0  0
    2.7494    4.6649   -2.1359 C   0  0  0  0  0  0  0  0  0  0  0  0
    2.1189    5.8093   -2.5074 F   0  0  0  0  0  0  0  0  0  0  0  0
    3.9071    5.0455   -1.5335 F   0  0  0  0  0  0  0  0  0  0  0  0
    3.1073    4.0238   -3.2790 F   0  0  0  0  0  0  0  0  0  0  0  0
    0.6593    3.2631   -1.5839 C   0  0  0  0  0  0  0  0  0  0  0  0
   -0.1221    3.4580   -3.1029 Cl  0  0  0  0  0  0  0  0  0  0  0  0
   -0.3002    0.0696    0.0738 H   0  0  0  0  0  0  0  0  0  0  0  0
   -2.1889   -0.9353   -2.2694 H   0  0  0  0  0  0  0  0  0  0  0  0
   -3.3381    0.3629   -1.9764 H   0  0  0  0  0  0  0  0  0  0  0  0
   -4.5493   -1.7246   -2.5057 H   0  0  0  0  0  0  0  0  0  0  0  0
   -6.0175   -1.8205   -0.4923 H   0  0  0  0  0  0  0  0  0  0  0  0
   -5.5929   -0.1520   -0.8688 H   0  0  0  0  0  0  0  0  0  0  0  0
   -5.3549   -0.5984    1.5778 H   0  0  0  0  0  0  0  0  0  0  0  0
   -4.8405   -3.0290    1.4480 H   0  0  0  0  0  0  0  0  0  0  0  0
   -3.5902   -2.1844    2.3638 H   0  0  0  0  0  0  0  0  0  0  0  0
   -2.5426   -3.7613    0.7286 H   0  0  0  0  0  0  0  0  0  0  0  0
   -2.7863   -3.3124   -1.7207 H   0  0  0  0  0  0  0  0  0  0  0  0
   -4.3556   -3.7090   -1.0170 H   0  0  0  0  0  0  0  0  0  0  0  0
   -2.9991    0.1967    1.8351 H   0  0  0  0  0  0  0  0  0  0  0  0
   -3.8365    1.0610    0.5530 H   0  0  0  0  0  0  0  0  0  0  0  0
   -0.1500    2.1382    2.4089 H   0  0  0  0  0  0  0  0  0  0  0  0
    1.2964    0.5288    3.4075 H   0  0  0  0  0  0  0  0  0  0  0  0
    4.0999    1.6225    3.0079 H   0  0  0  0  0  0  0  0  0  0  0  0
    6.1584    0.6780    2.0415 H   0  0  0  0  0  0  0  0  0  0  0  0
    3.7759   -1.9957   -0.3747 H   0  0  0  0  0  0  0  0  0  0  0  0
    1.7548   -1.0672    0.5902 H   0  0  0  0  0  0  0  0  0  0  0  0
  1  2  2  0
  2  3  1  0
  4  3  1  6
  4  5  1  0
  5  6  1  0
  6  7  1  0
  7  8  1  0
  8  9  1  0
  9 10  1  0
 10 11  1  0
 10 12  1  0
 12 13  2  0
  8 14  1  0
  2 15  1  0
 15 16  2  0
 16 17  1  0
 17 18  2  0
 18 19  1  0
 19 20  1  0
 20 21  2  0
 21 22  1  0
 22 23  1  0
 23 24  1  0
 24 25  1  0
 24 26  1  0
 24 27  1  0
 22 28  2  0
 28 29  1  0
 16 30  1  0
 30 31  1  0
 31 32  1  0
 32 33  1  0
 32 34  1  0
 32 35  1  0
 31 36  2  0
 36 37  1  0
 12  4  1  0
 36 15  1  0
 14  4  1  0
 29 19  2  0
 11  6  1  0
  3 38  1  0
  5 39  1  0
  5 40  1  0
  6 41  1  6
  7 42  1  0
  7 43  1  0
  8 44  1  1
  9 45  1  0
  9 46  1  0
 10 47  1  1
 11 48  1  0
 11 49  1  0
 14 50  1  0
 14 51  1  0
 17 52  1  0
 18 53  1  0
 20 54  1  0
 21 55  1  0
 28 56  1  0
 29 57  1  0
M  END
>  <_SMILES>  (8) 
O=C(N[C@@]12C[C@@H]3C[C@@H](C[C@@H](C3)C1=O)C2)c1c(/C=C\c2ccc(OC(F)(F)F)cc2)sc(C(F)(F)F)c1Cl

$$$$

     RDKit          3D

 38 39  0  0  0  0  0  0  0  0999 V2000
    4.0838    2.5197   -1.1897 C   0  0  0  0  0  0  0  0  0  0  0  0
    2.8552    1.7363   -0.9488 N   0  0  0  0  0  0  0  0  0  0  0  0
    2.0997    1.3078   -2.1646 C   0  0  0  0  0  0  0  0  0  0  0  0
    0.7293    0.7239   -1.7960 C   0  0  0  0  0  0  0  0  0  0  0  0
    0.8744   -0.5888   -0.5333 S   0  0  0  0  0  0  0  0  0  0  0  0
   -0.4771   -0.2340    0.5205 C   0  0  0  0  0  0  0  0  0  0  0  0
   -0.7649    0.9143    1.2495 C   0  0  0  0  0  0  0  0  0  0  0  0
    0.0440    2.1280    1.4073 C   0  0  0  0  0  0  0  0  0  0  0  0
    1.1331    2.2913    0.8524 O   0  0  0  0  0  0  0  0  0  0  0  0
   -0.5713    3.0699    2.2202 N   0  0  0  0  0  0  0  0  0  0  0  0
   -0.0219    4.3573    2.3814 N   0  0  0  0  0  0  0  0  0  0  0  0
   -2.0178    0.8162    1.8198 N   0  0  0  0  0  0  0  0  0  0  0  0
   -2.4643   -0.3685    1.4750 C   0  0  0  0  0  0  0  0  0  0  0  0
   -1.5579   -1.0956    0.7239 N   0  0  0  0  0  0  0  0  0  0  0  0
   -1.7743   -2.4422    0.2975 C   0  0  0  0  0  0  0  0  0  0  0  0
   -3.0821   -2.8954    0.0628 C   0  0  0  0  0  0  0  0  0  0  0  0
   -3.3114   -4.2124   -0.3525 C   0  0  0  0  0  0  0  0  0  0  0  0
   -2.2443   -5.0959   -0.5260 C   0  0  0  0  0  0  0  0  0  0  0  0
   -2.6016   -6.7008   -1.0488 Cl  0  0  0  0  0  0  0  0  0  0  0  0
   -0.9424   -4.6596   -0.2705 C   0  0  0  0  0  0  0  0  0  0  0  0
    0.4315   -5.6947   -0.4384 Cl  0  0  0  0  0  0  0  0  0  0  0  0
   -0.7105   -3.3408    0.1465 C   0  0  0  0  0  0  0  0  0  0  0  0
    3.8088    3.4424   -1.7060 H   0  0  0  0  0  0  0  0  0  0  0  0
    4.5285    2.7432   -0.2175 H   0  0  0  0  0  0  0  0  0  0  0  0
    4.7647    1.9152   -1.7933 H   0  0  0  0  0  0  0  0  0  0  0  0
    2.2220    2.2719   -0.3114 H   0  0  0  0  0  0  0  0  0  0  0  0
    3.0682    0.9047   -0.3801 H   0  0  0  0  0  0  0  0  0  0  0  0
    2.7227    0.5733   -2.6864 H   0  0  0  0  0  0  0  0  0  0  0  0
    1.9733    2.1886   -2.8028 H   0  0  0  0  0  0  0  0  0  0  0  0
    0.2635    0.2916   -2.6876 H   0  0  0  0  0  0  0  0  0  0  0  0
    0.0712    1.5278   -1.4527 H   0  0  0  0  0  0  0  0  0  0  0  0
   -1.5087    2.8398    2.5648 H   0  0  0  0  0  0  0  0  0  0  0  0
   -0.7783    5.0264    2.5532 H   0  0  0  0  0  0  0  0  0  0  0  0
    0.5450    4.3628    3.2348 H   0  0  0  0  0  0  0  0  0  0  0  0
   -3.4199   -0.7723    1.7869 H   0  0  0  0  0  0  0  0  0  0  0  0
   -3.9481   -2.2425    0.1554 H   0  0  0  0  0  0  0  0  0  0  0  0
   -4.3306   -4.5435   -0.5455 H   0  0  0  0  0  0  0  0  0  0  0  0
    0.3087   -3.0653    0.3999 H   0  0  0  0  0  0  0  0  0  0  0  0
  1  2  1  0
  2  3  1  0
  3  4  1  0
  4  5  1  0
  5  6  1  0
  6  7  2  0
  7  8  1  0
  8  9  2  0
  8 10  1  0
 10 11  1  0
  7 12  1  0
 12 13  2  0
 13 14  1  0
 14 15  1  0
 15 16  1  0
 16 17  2  0
 17 18  1  0
 18 19  1  0
 18 20  2  0
 20 21  1  0
 20 22  1  0
 14  6  1  0
 22 15  2  0
  1 23  1  0
  1 24  1  0
  1 25  1  0
  2 26  1  0
  2 27  1  0
  3 28  1  0
  3 29  1  0
  4 30  1  0
  4 31  1  0
 10 32  1  0
 11 33  1  0
 11 34  1  0
 13 35  1  0
 16 36  1  0
 17 37  1  0
 22 38  1  0
M  CHG  1   2   1
M  END
>  <_SMILES>  (9) 
C[NH2+]CCSc1c(C(=O)NN)ncn1-c1ccc(Cl)c(Cl)c1

$$$$

     RDKit          3D

 39 40  0  0  0  0  0  0  0  0999 V2000
    4.2803   -2.1153   -0.4115 C   0  0  0  0  0  0  0  0  0  0  0  0
    4.1658   -0.8527    0.3787 N   0  0  0  0  0  0  0  0  0  0  0  0
    2.8641   -0.6417    1.0978 C   0  0  0  0  0  0  0  0  0  0  0  0
    1.7296   -0.2336    0.1432 C   0  0  0  0  0  0  0  0  0  0  0  0
    0.1547   -0.1195    1.0654 S   0  0  0  0  0  0  0  0  0  0  0  0
   -1.0916   -0.1608   -0.2385 C   0  0  0  0  0  0  0  0  0  0  0  0
   -1.2737   -1.1571   -1.1848 C   0  0  0  0  0  0  0  0  0  0  0  0
   -0.5720   -2.3988   -1.3861 C   0  0  0  0  0  0  0  0  0  0  0  0
   -0.2838   -2.8989   -2.4721 O   0  0  0  0  0  0  0  0  0  0  0  0
   -0.1977   -3.0145   -0.1877 N   0  0  0  0  0  0  0  0  0  0  0  0
    0.7433   -4.0733   -0.2184 N   0  0  0  0  0  0  0  0  0  0  0  0
   -2.2090   -0.6416   -2.0754 N   0  0  0  0  0  0  0  0  0  0  0  0
   -2.6620    0.5422   -1.6675 C   0  0  0  0  0  0  0  0  0  0  0  0
   -2.0213    0.8543   -0.5231 N   0  0  0  0  0  0  0  0  0  0  0  0
   -2.3281    2.0760    0.2260 C   0  0  0  0  0  0  0  0  0  0  0  0
   -2.3418    2.0523    1.6169 C   0  0  0  0  0  0  0  0  0  0  0  0
   -2.6494    3.2242    2.3155 C   0  0  0  0  0  0  0  0  0  0  0  0
   -2.9425    4.4052    1.6245 C   0  0  0  0  0  0  0  0  0  0  0  0
   -3.3016    5.8120    2.5521 Cl  0  0  0  0  0  0  0  0  0  0  0  0
   -2.9360    4.4066    0.2245 C   0  0  0  0  0  0  0  0  0  0  0  0
   -3.2805    5.8207   -0.7030 Cl  0  0  0  0  0  0  0  0  0  0  0  0
   -2.6348    3.2352   -0.4815 C   0  0  0  0  0  0  0  0  0  0  0  0
    5.3032   -2.1677   -0.7910 H   0  0  0  0  0  0  0  0  0  0  0  0
    3.5699   -2.0728   -1.2390 H   0  0  0  0  0  0  0  0  0  0  0  0
    4.0737   -2.9572    0.2531 H   0  0  0  0  0  0  0  0  0  0  0  0
    4.9149   -0.8820    1.0889 H   0  0  0  0  0  0  0  0  0  0  0  0
    4.4088   -0.0457   -0.2143 H   0  0  0  0  0  0  0  0  0  0  0  0
    2.6442   -1.5718    1.6333 H   0  0  0  0  0  0  0  0  0  0  0  0
    3.0551    0.1507    1.8298 H   0  0  0  0  0  0  0  0  0  0  0  0
    1.9436    0.7418   -0.3061 H   0  0  0  0  0  0  0  0  0  0  0  0
    1.6402   -0.9584   -0.6674 H   0  0  0  0  0  0  0  0  0  0  0  0
   -0.5260   -2.6922    0.7240 H   0  0  0  0  0  0  0  0  0  0  0  0
    0.3356   -4.8920    0.2563 H   0  0  0  0  0  0  0  0  0  0  0  0
    0.8177   -4.4018   -1.1974 H   0  0  0  0  0  0  0  0  0  0  0  0
   -2.5097   -1.1233   -2.9256 H   0  0  0  0  0  0  0  0  0  0  0  0
   -3.4327    1.1224   -2.1644 H   0  0  0  0  0  0  0  0  0  0  0  0
   -2.1689    1.1452    2.1852 H   0  0  0  0  0  0  0  0  0  0  0  0
   -2.6726    3.2131    3.4052 H   0  0  0  0  0  0  0  0  0  0  0  0
   -2.6089    3.2708   -1.5655 H   0  0  0  0  0  0  0  0  0  0  0  0
  1  2  1  0
  2  3  1  0
  3  4  1  0
  4  5  1  0
  5  6  1  0
  6  7  2  0
  7  8  1  0
  8  9  2  0
  8 10  1  0
 10 11  1  0
  7 12  1  0
 12 13  2  0
 13 14  1  0
 14 15  1  0
 15 16  1  0
 16 17  2  0
 17 18  1  0
 18 19  1  0
 18 20  2  0
 20 21  1  0
 20 22  1  0
 14  6  1  0
 22 15  2  0
  1 23  1  0
  1 24  1  0
  1 25  1  0
  2 26  1  0
  2 27  1  0
  3 28  1  0
  3 29  1  0
  4 30  1  0
  4 31  1  0
 10 32  1  0
 11 33  1  0
 11 34  1  0
 12 35  1  0
 13 36  1  0
 16 37  1  0
 17 38  1  0
 22 39  1  0
M  CHG  2   2   1  12   1
M  END
>  <_SMILES>  (10) 
C[NH2+]CCSc1c(C(=O)NN)[nH+]cn1-c1ccc(Cl)c(Cl)c1

$$$$

     RDKit          3D

 55 61  0  0  0  0  0  0  0  0999 V2000
   -2.0066   -1.7847   -1.8364 O   0  0  0  0  0  0  0  0  0  0  0  0
   -2.6597   -0.9480   -1.2112 C   0  0  0  0  0  0  0  0  0  0  0  0
   -4.0533   -0.5563   -1.6858 C   0  0  2  0  0  0  0  0  0  0  0  0
   -4.0835    0.9614   -1.8868 C   0  0  0  0  0  0  0  0  0  0  0  0
   -3.7564    1.6788   -0.5663 C   0  0  1  0  0  0  0  0  0  0  0  0
   -4.7590    1.2489    0.5147 C   0  0  0  0  0  0  0  0  0  0  0  0
   -4.6924   -0.2721    0.7214 C   0  0  1  0  0  0  0  0  0  0  0  0
   -5.0370   -0.9841   -0.5955 C   0  0  0  0  0  0  0  0  0  0  0  0
   -3.2648   -0.6633    1.1560 C   0  0  0  0  0  0  0  0  0  0  0  0
   -2.2080   -0.2326    0.1010 C   0  0  1  0  0  0  0  0  0  0  0  0
   -0.7990   -0.5763    0.5119 N   0  0  0  0  0  0  0  0  0  0  0  0
   -0.4893   -0.5117    1.9634 C   0  0  0  0  0  0  0  0  0  0  0  0
    0.9187   -1.0375    2.2779 C   0  0  0  0  0  0  0  0  0  0  0  0
    1.9986   -0.3283    1.4582 C   0  0  0  0  0  0  0  0  0  0  0  0
    1.5534   -0.2355    0.0524 C   0  0  0  0  0  0  0  0  0  0  0  0
    0.2672   -0.3785   -0.3600 C   0  0  0  0  0  0  0  0  0  0  0  0
    0.2598   -0.3300   -1.7668 N   0  0  0  0  0  0  0  0  0  0  0  0
    1.5464   -0.2382   -2.1883 C   0  0  0  0  0  0  0  0  0  0  0  0
    2.3752   -0.2851   -3.2649 C   0  0  0  0  0  0  0  0  0  0  0  0
    3.6853   -0.1518   -2.8304 N   0  0  0  0  0  0  0  0  0  0  0  0
    3.6430   -0.0244   -1.5034 C   0  0  0  0  0  0  0  0  0  0  0  0
    4.8060    0.1600   -0.6400 C   0  0  0  0  0  0  0  0  0  0  0  0
    4.8423    1.1682    0.3351 C   0  0  0  0  0  0  0  0  0  0  0  0
    5.9711    1.3302    1.1420 C   0  0  0  0  0  0  0  0  0  0  0  0
    7.0667    0.4934    0.9652 C   0  0  0  0  0  0  0  0  0  0  0  0
    8.1478    0.6507    1.7400 F   0  0  0  0  0  0  0  0  0  0  0  0
    7.0597   -0.4975   -0.0085 C   0  0  0  0  0  0  0  0  0  0  0  0
    5.9316   -0.6593   -0.8155 C   0  0  0  0  0  0  0  0  0  0  0  0
    2.3412   -0.1314   -1.0801 N   0  0  0  0  0  0  0  0  0  0  0  0
   -2.3302    1.2948   -0.1321 C   0  0  0  0  0  0  0  0  0  0  0  0
   -4.2752   -1.0695   -2.6274 H   0  0  0  0  0  0  0  0  0  0  0  0
   -5.0740    1.2700   -2.2427 H   0  0  0  0  0  0  0  0  0  0  0  0
   -3.3586    1.2541   -2.6567 H   0  0  0  0  0  0  0  0  0  0  0  0
   -3.8144    2.7632   -0.7133 H   0  0  0  0  0  0  0  0  0  0  0  0
   -5.7744    1.5425    0.2213 H   0  0  0  0  0  0  0  0  0  0  0  0
   -4.5380    1.7654    1.4569 H   0  0  0  0  0  0  0  0  0  0  0  0
   -5.4063   -0.5707    1.4974 H   0  0  0  0  0  0  0  0  0  0  0  0
   -4.9931   -2.0708   -0.4508 H   0  0  0  0  0  0  0  0  0  0  0  0
   -6.0624   -0.7396   -0.8978 H   0  0  0  0  0  0  0  0  0  0  0  0
   -3.0730   -0.1796    2.1215 H   0  0  0  0  0  0  0  0  0  0  0  0
   -3.2150   -1.7475    1.3217 H   0  0  0  0  0  0  0  0  0  0  0  0
   -0.5850    0.5234    2.3125 H   0  0  0  0  0  0  0  0  0  0  0  0
   -1.1872   -1.1326    2.5332 H   0  0  0  0  0  0  0  0  0  0  0  0
    1.1297   -0.9226    3.3472 H   0  0  0  0  0  0  0  0  0  0  0  0
    0.9528   -2.1141    2.0621 H   0  0  0  0  0  0  0  0  0  0  0  0
    2.1715    0.6768    1.8583 H   0  0  0  0  0  0  0  0  0  0  0  0
    2.9329   -0.8927    1.5453 H   0  0  0  0  0  0  0  0  0  0  0  0
   -0.4117   -0.9751   -2.1943 H   0  0  0  0  0  0  0  0  0  0  0  0
    2.1328   -0.4061   -4.3109 H   0  0  0  0  0  0  0  0  0  0  0  0
    4.0012    1.8462    0.4603 H   0  0  0  0  0  0  0  0  0  0  0  0
    6.0067    2.1086    1.8975 H   0  0  0  0  0  0  0  0  0  0  0  0
    7.9300   -1.1321   -0.1401 H   0  0  0  0  0  0  0  0  0  0  0  0
    5.9288   -1.4259   -1.5889 H   0  0  0  0  0  0  0  0  0  0  0  0
   -1.6259    1.6297   -0.9038 H   0  0  0  0  0  0  0  0  0  0  0  0
   -2.0670    1.8390    0.7840 H   0  0  0  0  0  0  0  0  0  0  0  0
  1  2  2  0
  2  3  1  0
  3  4  1  0
  4  5  1  0
  5  6  1  0
  6  7  1  0
  7  8  1  0
  7  9  1  0
  9 10  1  0
 10 11  1  1
 11 12  1  0
 12 13  1  0
 13 14  1  0
 14 15  1  0
 15 16  2  0
 16 17  1  0
 17 18  1  0
 18 19  2  0
 19 20  1  0
 20 21  2  0
 21 22  1  0
 22 23  1  0
 23 24  2  0
 24 25  1  0
 25 26  1  0
 25 27  2  0
 27 28  1  0
 21 29  1  0
 10 30  1  0
 10  2  1  0
 16 11  1  0
 29 18  1  0
  8  3  1  0
 29 15  1  0
 30  5  1  0
 28 22  2  0
  3 31  1  6
  4 32  1  0
  4 33  1  0
  5 34  1  6
  6 35  1  0
  6 36  1  0
  7 37  1  1
  8 38  1  0
  8 39  1  0
  9 40  1  0
  9 41  1  0
 12 42  1  0
 12 43  1  0
 13 44  1  0
 13 45  1  0
 14 46  1  0
 14 47  1  0
 17 48  1  0
 19 49  1  0
 23 50  1  0
 24 51  1  0
 27 52  1  0
 28 53  1  0
 30 54  1  0
 30 55  1  0
M  END
>  <_SMILES>  (11) 
O=C1[C@@H]2C[C@H]3C[C@@H](C2)C[C@]1(N1CCCc2c1[nH]c1cnc(-c4ccc(F)cc4)n21)C3

$$$$

     RDKit          3D

 56 62  0  0  0  0  0  0  0  0999 V2000
   -1.7448    0.7582   -2.4557 O   0  0  0  0  0  0  0  0  0  0  0  0
   -2.5710    0.4178   -1.6066 C   0  0  0  0  0  0  0  0  0  0  0  0
   -4.0117    0.1391   -2.0196 C   0  0  2  0  0  0  0  0  0  0  0  0
   -4.8822    1.2006   -1.3475 C   0  0  0  0  0  0  0  0  0  0  0  0
   -4.7128    1.1124    0.1757 C   0  0  1  0  0  0  0  0  0  0  0  0
   -5.1200   -0.2899    0.6570 C   0  0  0  0  0  0  0  0  0  0  0  0
   -4.2431   -1.3589   -0.0140 C   0  0  1  0  0  0  0  0  0  0  0  0
   -4.3906   -1.2640   -1.5409 C   0  0  0  0  0  0  0  0  0  0  0  0
   -2.7686   -1.1250    0.3559 C   0  0  0  0  0  0  0  0  0  0  0  0
   -2.2990    0.2841   -0.0733 C   0  0  1  0  0  0  0  0  0  0  0  0
   -0.8585    0.4565    0.3549 N   0  0  0  0  0  0  0  0  0  0  0  0
   -0.6399    0.9122    1.7586 C   0  0  0  0  0  0  0  0  0  0  0  0
    0.5955    0.2690    2.4038 C   0  0  0  0  0  0  0  0  0  0  0  0
    1.8510    0.4205    1.5481 C   0  0  0  0  0  0  0  0  0  0  0  0
    1.5261    0.0582    0.1517 C   0  0  0  0  0  0  0  0  0  0  0  0
    0.2633    0.0416   -0.3663 C   0  0  0  0  0  0  0  0  0  0  0  0
    0.3476   -0.4235   -1.6816 N   0  0  0  0  0  0  0  0  0  0  0  0
    1.6683   -0.6227   -1.9893 C   0  0  0  0  0  0  0  0  0  0  0  0
    2.5801   -0.9498   -2.9466 C   0  0  0  0  0  0  0  0  0  0  0  0
    3.8162   -0.9049   -2.3250 N   0  0  0  0  0  0  0  0  0  0  0  0
    3.6983   -0.5018   -1.0442 C   0  0  0  0  0  0  0  0  0  0  0  0
    4.8875   -0.2707   -0.0615 C   0  0  0  0  0  0  0  0  0  0  0  0
    5.7644   -1.3256    0.2053 C   0  0  0  0  0  0  0  0  0  0  0  0
    6.8371   -1.1155    1.0722 C   0  0  0  0  0  0  0  0  0  0  0  0
    7.0219    0.1385    1.6484 C   0  0  0  0  0  0  0  0  0  0  0  0
    8.0524    0.3354    2.4788 F   0  0  0  0  0  0  0  0  0  0  0  0
    6.1545    1.1919    1.3726 C   0  0  0  0  0  0  0  0  0  0  0  0
    5.0784    0.9908    0.5082 C   0  0  0  0  0  0  0  0  0  0  0  0
    2.3903   -0.3368   -0.8463 N   0  0  0  0  0  0  0  0  0  0  0  0
   -3.2351    1.3685    0.5416 C   0  0  0  0  0  0  0  0  0  0  0  0
   -4.0976    0.2043   -3.1093 H   0  0  0  0  0  0  0  0  0  0  0  0
   -5.9343    1.0529   -1.6194 H   0  0  0  0  0  0  0  0  0  0  0  0
   -4.5960    2.2013   -1.6945 H   0  0  0  0  0  0  0  0  0  0  0  0
   -5.3451    1.8666    0.6580 H   0  0  0  0  0  0  0  0  0  0  0  0
   -5.0211   -0.3552    1.7474 H   0  0  0  0  0  0  0  0  0  0  0  0
   -6.1758   -0.4726    0.4216 H   0  0  0  0  0  0  0  0  0  0  0  0
   -4.5513   -2.3550    0.3235 H   0  0  0  0  0  0  0  0  0  0  0  0
   -5.4240   -1.4904   -1.8304 H   0  0  0  0  0  0  0  0  0  0  0  0
   -3.7495   -2.0127   -2.0226 H   0  0  0  0  0  0  0  0  0  0  0  0
   -2.1467   -1.8928   -0.1232 H   0  0  0  0  0  0  0  0  0  0  0  0
   -2.6422   -1.2560    1.4381 H   0  0  0  0  0  0  0  0  0  0  0  0
   -0.5389    2.0037    1.7588 H   0  0  0  0  0  0  0  0  0  0  0  0
   -1.4842    0.6468    2.4008 H   0  0  0  0  0  0  0  0  0  0  0  0
    0.7666    0.7053    3.3946 H   0  0  0  0  0  0  0  0  0  0  0  0
    0.3958   -0.8000    2.5608 H   0  0  0  0  0  0  0  0  0  0  0  0
    2.6336   -0.2317    1.9485 H   0  0  0  0  0  0  0  0  0  0  0  0
    2.2139    1.4529    1.5883 H   0  0  0  0  0  0  0  0  0  0  0  0
   -0.3725   -0.0670   -2.3137 H   0  0  0  0  0  0  0  0  0  0  0  0
    2.5215   -1.2243   -3.9837 H   0  0  0  0  0  0  0  0  0  0  0  0
    4.7107   -1.0950   -2.7670 H   0  0  0  0  0  0  0  0  0  0  0  0
    5.6183   -2.3079   -0.2374 H   0  0  0  0  0  0  0  0  0  0  0  0
    7.5328   -1.9168    1.3075 H   0  0  0  0  0  0  0  0  0  0  0  0
    6.3314    2.1612    1.8314 H   0  0  0  0  0  0  0  0  0  0  0  0
    4.4114    1.8186    0.2801 H   0  0  0  0  0  0  0  0  0  0  0  0
   -3.1801    1.3923    1.6338 H   0  0  0  0  0  0  0  0  0  0  0  0
   -2.9325    2.3652    0.1937 H   0  0  0  0  0  0  0  0  0  0  0  0
  1  2  2  0
  2  3  1  0
  3  4  1  0
  4  5  1  0
  5  6  1  0
  6  7  1  0
  7  8  1  0
  7  9  1  0
  9 10  1  0
 10 11  1  6
 11 12  1  0
 12 13  1  0
 13 14  1  0
 14 15  1  0
 15 16  2  0
 16 17  1  0
 17 18  1  0
 18 19  2  0
 19 20  1  0
 20 21  2  0
 21 22  1  0
 22 23  1  0
 23 24  2  0
 24 25  1  0
 25 26  1  0
 25 27  2  0
 27 28  1  0
 21 29  1  0
 10 30  1  0
 10  2  1  0
 16 11  1  0
 29 18  1  0
  8  3  1  0
 29 15  1  0
 30  5  1  0
 28 22  2  0
  3 31  1  6
  4 32  1  0
  4 33  1  0
  5 34  1  1
  6 35  1  0
  6 36  1  0
  7 37  1  1
  8 38  1  0
  8 39  1  0
  9 40  1  0
  9 41  1  0
 12 42  1  0
 12 43  1  0
 13 44  1  0
 13 45  1  0
 14 46  1  0
 14 47  1  0
 17 48  1  0
 19 49  1  0
 20 50  1  0
 23 51  1  0
 24 52  1  0
 27 53  1  0
 28 54  1  0
 30 55  1  0
 30 56  1  0
M  CHG  1  20   1
M  END
>  <_SMILES>  (12) 
O=C1[C@@H]2C[C@H]3C[C@@H](C2)C[C@]1(N1CCCc2c1[nH]c1c[nH+]c(-c4ccc(F)cc4)n21)C3

$$$$

     RDKit          3D

 43 46  0  0  0  0  0  0  0  0999 V2000
    0.3163    0.6965   -2.2729 O   0  0  0  0  0  0  0  0  0  0  0  0
    0.7496    0.4694   -1.1503 C   0  0  0  0  0  0  0  0  0  0  0  0
    2.2069    0.5635   -0.8905 C   0  0  0  0  0  0  0  0  0  0  0  0
    2.8566   -0.1680    0.0285 C   0  0  0  0  0  0  0  0  0  0  0  0
    4.3058   -0.0827    0.2577 C   0  0  0  0  0  0  0  0  0  0  0  0
    4.7901   -0.1964    1.5676 C   0  0  0  0  0  0  0  0  0  0  0  0
    6.1623   -0.1469    1.8259 C   0  0  0  0  0  0  0  0  0  0  0  0
    7.0647    0.0052    0.7757 C   0  0  0  0  0  0  0  0  0  0  0  0
    6.5966    0.1024   -0.5329 C   0  0  0  0  0  0  0  0  0  0  0  0
    5.2242    0.0536   -0.7918 C   0  0  0  0  0  0  0  0  0  0  0  0
   -0.0247    0.1792   -0.0636 N   0  0  0  0  0  0  0  0  0  0  0  0
   -1.4799    0.0762   -0.0889 C   0  0  1  0  0  0  0  0  0  0  0  0
   -1.9836   -1.0683   -0.9904 C   0  0  0  0  0  0  0  0  0  0  0  0
   -3.5154   -1.2029   -0.8807 C   0  0  2  0  0  0  0  0  0  0  0  0
   -4.1755    0.1283   -1.2784 C   0  0  0  0  0  0  0  0  0  0  0  0
   -3.7035    1.2578   -0.3471 C   0  0  1  0  0  0  0  0  0  0  0  0
   -4.0752    0.9113    1.1074 C   0  0  0  0  0  0  0  0  0  0  0  0
   -3.4338   -0.4206    1.5131 C   0  0  1  0  0  0  0  0  0  0  0  0
   -3.8861   -1.5449    0.5748 C   0  0  0  0  0  0  0  0  0  0  0  0
   -1.9301   -0.2667    1.3491 C   0  0  0  0  0  0  0  0  0  0  0  0
   -1.1435   -0.3952    2.2876 O   0  0  0  0  0  0  0  0  0  0  0  0
   -2.1721    1.4044   -0.4544 C   0  0  0  0  0  0  0  0  0  0  0  0
    2.7238    1.2475   -1.5555 H   0  0  0  0  0  0  0  0  0  0  0  0
    2.3294   -0.8761    0.6624 H   0  0  0  0  0  0  0  0  0  0  0  0
    4.1027   -0.3164    2.4023 H   0  0  0  0  0  0  0  0  0  0  0  0
    6.5252   -0.2285    2.8472 H   0  0  0  0  0  0  0  0  0  0  0  0
    8.1324    0.0423    0.9761 H   0  0  0  0  0  0  0  0  0  0  0  0
    7.2995    0.2106   -1.3550 H   0  0  0  0  0  0  0  0  0  0  0  0
    4.8860    0.1110   -1.8236 H   0  0  0  0  0  0  0  0  0  0  0  0
    0.4018    0.1189    0.8563 H   0  0  0  0  0  0  0  0  0  0  0  0
   -1.5094   -2.0163   -0.7035 H   0  0  0  0  0  0  0  0  0  0  0  0
   -1.7112   -0.8878   -2.0370 H   0  0  0  0  0  0  0  0  0  0  0  0
   -3.8623   -2.0020   -1.5455 H   0  0  0  0  0  0  0  0  0  0  0  0
   -5.2670    0.0334   -1.2256 H   0  0  0  0  0  0  0  0  0  0  0  0
   -3.9267    0.3728   -2.3183 H   0  0  0  0  0  0  0  0  0  0  0  0
   -4.1834    2.2001   -0.6342 H   0  0  0  0  0  0  0  0  0  0  0  0
   -5.1653    0.8474    1.2092 H   0  0  0  0  0  0  0  0  0  0  0  0
   -3.7348    1.7123    1.7754 H   0  0  0  0  0  0  0  0  0  0  0  0
   -3.6682   -0.6648    2.5540 H   0  0  0  0  0  0  0  0  0  0  0  0
   -4.9700   -1.6891    0.6600 H   0  0  0  0  0  0  0  0  0  0  0  0
   -3.4108   -2.4907    0.8636 H   0  0  0  0  0  0  0  0  0  0  0  0
   -1.8315    2.2078    0.2122 H   0  0  0  0  0  0  0  0  0  0  0  0
   -1.9099    1.7125   -1.4734 H   0  0  0  0  0  0  0  0  0  0  0  0
  1  2  2  0
  2  3  1  0
  3  4  2  0
  4  5  1  0
  5  6  2  0
  6  7  1  0
  7  8  2  0
  8  9  1  0
  9 10  2  0
  2 11  1  0
 12 11  1  1
 12 13  1  0
 13 14  1  0
 14 15  1  0
 15 16  1  0
 16 17  1  0
 17 18  1  0
 18 19  1  0
 18 20  1  0
 20 21  2  0
 16 22  1  0
 10  5  1  0
 20 12  1  0
 22 12  1  0
 19 14  1  0
  3 23  1  0
  4 24  1  0
  6 25  1  0
  7 26  1  0
  8 27  1  0
  9 28  1  0
 10 29  1  0
 11 30  1  0
 13 31  1  0
 13 32  1  0
 14 33  1  6
 15 34  1  0
 15 35  1  0
 16 36  1  6
 17 37  1  0
 17 38  1  0
 18 39  1  1
 19 40  1  0
 19 41  1  0
 22 42  1  0
 22 43  1  0
M  END
>  <_SMILES>  (13) 
O=C(/C=C/c1ccccc1)N[C@@]12C[C@@H]3C[C@@H](C[C@@H](C3)C1=O)C2

$$$$

     RDKit          3D

 49 53  0  0  0  0  0  0  0  0999 V2000
   -0.6626   -1.4416   -1.5642 O   0  0  0  0  0  0  0  0  0  0  0  0
   -0.2479   -0.7951   -0.6115 C   0  0  0  0  0  0  0  0  0  0  0  0
   -1.0470   -0.1958    0.3439 N   0  0  0  0  0  0  0  0  0  0  0  0
   -2.5060   -0.0848    0.2216 C   0  0  1  0  0  0  0  0  0  0  0  0
   -3.0787    0.3981    1.5810 C   0  0  0  0  0  0  0  0  0  0  0  0
   -4.6033    0.6167    1.4963 C   0  0  2  0  0  0  0  0  0  0  0  0
   -5.2813   -0.7010    1.0971 C   0  0  0  0  0  0  0  0  0  0  0  0
   -4.7491   -1.1729   -0.2627 C   0  0  1  0  0  0  0  0  0  0  0  0
   -5.0290   -0.1028   -1.3343 C   0  0  0  0  0  0  0  0  0  0  0  0
   -4.3875    1.2310   -0.9383 C   0  0  1  0  0  0  0  0  0  0  0  0
   -4.9069    1.6893    0.4308 C   0  0  0  0  0  0  0  0  0  0  0  0
   -2.8859    1.0297   -0.7810 C   0  0  0  0  0  0  0  0  0  0  0  0
   -2.0704    1.7862   -1.3066 O   0  0  0  0  0  0  0  0  0  0  0  0
   -3.2273   -1.3913   -0.1776 C   0  0  0  0  0  0  0  0  0  0  0  0
    1.2183   -0.5838   -0.4496 C   0  0  0  0  0  0  0  0  0  0  0  0
    1.8048   -0.4105    0.8085 C   0  0  0  0  0  0  0  0  0  0  0  0
    3.1871   -0.2182    0.9157 C   0  0  0  0  0  0  0  0  0  0  0  0
    4.0094   -0.2001   -0.2239 C   0  0  0  0  0  0  0  0  0  0  0  0
    5.4623    0.0062   -0.1067 C   0  0  0  0  0  0  0  0  0  0  0  0
    6.2443   -0.8065    0.7311 C   0  0  0  0  0  0  0  0  0  0  0  0
    7.6236   -0.6105    0.8424 C   0  0  0  0  0  0  0  0  0  0  0  0
    8.2445    0.4035    0.1176 C   0  0  0  0  0  0  0  0  0  0  0  0
    7.4881    1.2204   -0.7186 C   0  0  0  0  0  0  0  0  0  0  0  0
    6.1091    1.0224   -0.8298 C   0  0  0  0  0  0  0  0  0  0  0  0
    3.4052   -0.3897   -1.4777 C   0  0  0  0  0  0  0  0  0  0  0  0
    2.0250   -0.5853   -1.5912 C   0  0  0  0  0  0  0  0  0  0  0  0
   -0.6085    0.6010    0.7897 H   0  0  0  0  0  0  0  0  0  0  0  0
   -2.8508   -0.3354    2.3657 H   0  0  0  0  0  0  0  0  0  0  0  0
   -2.5971    1.3374    1.8859 H   0  0  0  0  0  0  0  0  0  0  0  0
   -4.9819    0.9484    2.4696 H   0  0  0  0  0  0  0  0  0  0  0  0
   -5.0919   -1.4663    1.8597 H   0  0  0  0  0  0  0  0  0  0  0  0
   -6.3684   -0.5633    1.0466 H   0  0  0  0  0  0  0  0  0  0  0  0
   -5.2389   -2.1118   -0.5448 H   0  0  0  0  0  0  0  0  0  0  0  0
   -6.1114    0.0267   -1.4550 H   0  0  0  0  0  0  0  0  0  0  0  0
   -4.6346   -0.4363   -2.3023 H   0  0  0  0  0  0  0  0  0  0  0  0
   -4.5769    1.9897   -1.7043 H   0  0  0  0  0  0  0  0  0  0  0  0
   -5.9872    1.8716    0.3800 H   0  0  0  0  0  0  0  0  0  0  0  0
   -4.4326    2.6364    0.7171 H   0  0  0  0  0  0  0  0  0  0  0  0
   -2.9999   -2.1839    0.5465 H   0  0  0  0  0  0  0  0  0  0  0  0
   -2.8974   -1.7546   -1.1554 H   0  0  0  0  0  0  0  0  0  0  0  0
    1.2073   -0.4444    1.7150 H   0  0  0  0  0  0  0  0  0  0  0  0
    3.6235   -0.0760    1.9029 H   0  0  0  0  0  0  0  0  0  0  0  0
    5.7818   -1.6130    1.2965 H   0  0  0  0  0  0  0  0  0  0  0  0
    8.2117   -1.2530    1.4925 H   0  0  0  0  0  0  0  0  0  0  0  0
    9.3171    0.5561    0.2033 H   0  0  0  0  0  0  0  0  0  0  0  0
    7.9689    2.0139   -1.2847 H   0  0  0  0  0  0  0  0  0  0  0  0
    5.5357    1.6786   -1.4817 H   0  0  0  0  0  0  0  0  0  0  0  0
    4.0117   -0.4000   -2.3817 H   0  0  0  0  0  0  0  0  0  0  0  0
    1.5809   -0.7350   -2.5735 H   0  0  0  0  0  0  0  0  0  0  0  0
  1  2  2  0
  2  3  1  0
  4  3  1  1
  4  5  1  0
  5  6  1  0
  6  7  1  0
  7  8  1  0
  8  9  1  0
  9 10  1  0
 10 11  1  0
 10 12  1  0
 12 13  2  0
  8 14  1  0
  2 15  1  0
 15 16  1  0
 16 17  2  0
 17 18  1  0
 18 19  1  0
 19 20  2  0
 20 21  1  0
 21 22  2  0
 22 23  1  0
 23 24  2  0
 18 25  2  0
 25 26  1  0
 12  4  1  0
 26 15  2  0
 14  4  1  0
 24 19  1  0
 11  6  1  0
  3 27  1  0
  5 28  1  0
  5 29  1  0
  6 30  1  1
  7 31  1  0
  7 32  1  0
  8 33  1  6
  9 34  1  0
  9 35  1  0
 10 36  1  6
 11 37  1  0
 11 38  1  0
 14 39  1  0
 14 40  1  0
 16 41  1  0
 17 42  1  0
 20 43  1  0
 21 44  1  0
 22 45  1  0
 23 46  1  0
 24 47  1  0
 25 48  1  0
 26 49  1  0
M  END
>  <_SMILES>  (14) 
O=C(N[C@@]12C[C@@H]3C[C@@H](C[C@@H](C3)C1=O)C2)c1ccc(-c2ccccc2)cc1

$$$$

     RDKit          3D

 47 50  0  0  0  0  0  0  0  0999 V2000
    0.4721    0.1667   -0.9044 O   0  0  0  0  0  0  0  0  0  0  0  0
    0.2999   -0.6192    0.0139 C   0  0  0  0  0  0  0  0  0  0  0  0
    1.3066   -1.3620    0.5812 N   0  0  0  0  0  0  0  0  0  0  0  0
    2.6776   -1.2189    0.1301 C   0  0  0  0  0  0  0  0  0  0  0  0
    3.3320    0.0663    0.6451 C   0  0  0  0  0  0  0  0  0  0  0  0
    4.7597    0.1973    0.1742 C   0  0  0  0  0  0  0  0  0  0  0  0
    5.0376    0.7258   -1.0929 C   0  0  0  0  0  0  0  0  0  0  0  0
    6.3562    0.8352   -1.5404 C   0  0  0  0  0  0  0  0  0  0  0  0
    7.4123    0.4145   -0.7280 C   0  0  0  0  0  0  0  0  0  0  0  0
    9.0177    0.5788   -1.3452 Cl  0  0  0  0  0  0  0  0  0  0  0  0
    7.1450   -0.1193    0.5368 C   0  0  0  0  0  0  0  0  0  0  0  0
    8.3967   -0.6649    1.5965 Cl  0  0  0  0  0  0  0  0  0  0  0  0
    5.8226   -0.2284    0.9833 C   0  0  0  0  0  0  0  0  0  0  0  0
   -0.8963   -0.8810    0.6351 N   0  0  0  0  0  0  0  0  0  0  0  0
   -2.1708   -0.3182    0.1711 C   0  0  1  0  0  0  0  0  0  0  0  0
   -2.1482    1.2040   -0.0922 C   0  0  0  0  0  0  0  0  0  0  0  0
   -3.5290    1.6990   -0.5590 C   0  0  2  0  0  0  0  0  0  0  0  0
   -4.5789    1.3928    0.5176 C   0  0  0  0  0  0  0  0  0  0  0  0
   -4.6435   -0.1197    0.7714 C   0  0  1  0  0  0  0  0  0  0  0  0
   -5.0321   -0.8383   -0.5366 C   0  0  0  0  0  0  0  0  0  0  0  0
   -3.9956   -0.5388   -1.6279 C   0  0  1  0  0  0  0  0  0  0  0  0
   -3.8915    0.9710   -1.8667 C   0  0  0  0  0  0  0  0  0  0  0  0
   -2.6623   -1.0500   -1.0987 C   0  0  0  0  0  0  0  0  0  0  0  0
   -2.1190   -2.0514   -1.5628 O   0  0  0  0  0  0  0  0  0  0  0  0
   -3.2588   -0.6166    1.2371 C   0  0  0  0  0  0  0  0  0  0  0  0
    1.1515   -1.6539    1.5348 H   0  0  0  0  0  0  0  0  0  0  0  0
    2.6851   -1.2429   -0.9661 H   0  0  0  0  0  0  0  0  0  0  0  0
    3.2236   -2.0994    0.4864 H   0  0  0  0  0  0  0  0  0  0  0  0
    3.2997    0.0866    1.7422 H   0  0  0  0  0  0  0  0  0  0  0  0
    2.7656    0.9487    0.3217 H   0  0  0  0  0  0  0  0  0  0  0  0
    4.2252    1.0561   -1.7399 H   0  0  0  0  0  0  0  0  0  0  0  0
    6.5519    1.2498   -2.5266 H   0  0  0  0  0  0  0  0  0  0  0  0
    5.6216   -0.6459    1.9678 H   0  0  0  0  0  0  0  0  0  0  0  0
   -0.9558   -1.8692    0.8441 H   0  0  0  0  0  0  0  0  0  0  0  0
   -1.8433    1.7388    0.8164 H   0  0  0  0  0  0  0  0  0  0  0  0
   -1.4262    1.4712   -0.8697 H   0  0  0  0  0  0  0  0  0  0  0  0
   -3.4895    2.7793   -0.7389 H   0  0  0  0  0  0  0  0  0  0  0  0
   -4.3271    1.9184    1.4468 H   0  0  0  0  0  0  0  0  0  0  0  0
   -5.5613    1.7619    0.1985 H   0  0  0  0  0  0  0  0  0  0  0  0
   -5.3901   -0.3344    1.5442 H   0  0  0  0  0  0  0  0  0  0  0  0
   -6.0262   -0.5101   -0.8636 H   0  0  0  0  0  0  0  0  0  0  0  0
   -5.0914   -1.9194   -0.3582 H   0  0  0  0  0  0  0  0  0  0  0  0
   -4.2434   -1.0578   -2.5592 H   0  0  0  0  0  0  0  0  0  0  0  0
   -4.8452    1.3527   -2.2511 H   0  0  0  0  0  0  0  0  0  0  0  0
   -3.1305    1.1788   -2.6292 H   0  0  0  0  0  0  0  0  0  0  0  0
   -3.3116   -1.6957    1.4367 H   0  0  0  0  0  0  0  0  0  0  0  0
   -2.9926   -0.1384    2.1889 H   0  0  0  0  0  0  0  0  0  0  0  0
  1  2  2  0
  2  3  1  0
  3  4  1  0
  4  5  1  0
  5  6  1  0
  6  7  1  0
  7  8  2  0
  8  9  1  0
  9 10  1  0
  9 11  2  0
 11 12  1  0
 11 13  1  0
  2 14  1  0
 15 14  1  1
 15 16  1  0
 16 17  1  0
 17 18  1  0
 18 19  1  0
 19 20  1  0
 20 21  1  0
 21 22  1  0
 21 23  1  0
 23 24  2  0
 19 25  1  0
 13  6  2  0
 23 15  1  0
 25 15  1  0
 22 17  1  0
  3 26  1  0
  4 27  1  0
  4 28  1  0
  5 29  1  0
  5 30  1  0
  7 31  1  0
  8 32  1  0
 13 33  1  0
 14 34  1  0
 16 35  1  0
 16 36  1  0
 17 37  1  6
 18 38  1  0
 18 39  1  0
 19 40  1  1
 20 41  1  0
 20 42  1  0
 21 43  1  6
 22 44  1  0
 22 45  1  0
 25 46  1  0
 25 47  1  0
M  END
>  <_SMILES>  (15) 
O=C(NCCc1ccc(Cl)c(Cl)c1)N[C@@]12C[C@@H]3C[C@@H](C[C@@H](C3)C1=O)C2

$$$$

     RDKit          3D

 50 54  0  0  0  0  0  0  0  0999 V2000
    3.2408    3.2193   -1.8714 C   0  0  0  0  0  0  0  0  0  0  0  0
    4.1689    2.4230   -1.1437 O   0  0  0  0  0  0  0  0  0  0  0  0
    3.7028    1.2405   -0.6341 C   0  0  0  0  0  0  0  0  0  0  0  0
    4.6832    0.4371   -0.0401 C   0  0  0  0  0  0  0  0  0  0  0  0
    4.3210   -0.7927    0.4893 C   0  0  0  0  0  0  0  0  0  0  0  0
    2.9934   -1.2306    0.4577 C   0  0  0  0  0  0  0  0  0  0  0  0
    2.0084   -0.4246   -0.0940 C   0  0  0  0  0  0  0  0  0  0  0  0
    0.5906   -0.8505   -0.1056 C   0  0  0  0  0  0  0  0  0  0  0  0
    0.2860   -1.9265   -0.5976 O   0  0  0  0  0  0  0  0  0  0  0  0
   -0.2792    0.0478    0.4763 N   0  0  0  0  0  0  0  0  0  0  0  0
   -1.7227    0.1014    0.2198 C   0  0  1  0  0  0  0  0  0  0  0  0
   -2.4075    0.8361    1.3997 C   0  0  0  0  0  0  0  0  0  0  0  0
   -3.9128    1.0319    1.1325 C   0  0  2  0  0  0  0  0  0  0  0  0
   -4.5722   -0.3392    0.9288 C   0  0  0  0  0  0  0  0  0  0  0  0
   -3.9286   -1.0593   -0.2638 C   0  0  1  0  0  0  0  0  0  0  0  0
   -4.0971   -0.2102   -1.5381 C   0  0  0  0  0  0  0  0  0  0  0  0
   -3.4645    1.1718   -1.3440 C   0  0  1  0  0  0  0  0  0  0  0  0
   -4.0957    1.8831   -0.1400 C   0  0  0  0  0  0  0  0  0  0  0  0
   -1.9872    0.9910   -1.0179 C   0  0  0  0  0  0  0  0  0  0  0  0
   -1.1049    1.5958   -1.6271 O   0  0  0  0  0  0  0  0  0  0  0  0
   -2.4227   -1.2553   -0.0046 C   0  0  0  0  0  0  0  0  0  0  0  0
    2.3682    0.8106   -0.6597 C   0  0  0  0  0  0  0  0  0  0  0  0
    2.8607   -2.5601    1.1343 C   0  0  0  0  0  0  0  0  0  0  0  0
    4.3196   -3.0403    1.1452 C   0  0  0  0  0  0  0  0  0  0  0  0
    5.1976   -1.7832    1.1892 C   0  0  0  0  0  0  0  0  0  0  0  0
    2.4405    3.5841   -1.2193 H   0  0  0  0  0  0  0  0  0  0  0  0
    2.8356    2.6722   -2.7293 H   0  0  0  0  0  0  0  0  0  0  0  0
    3.7789    4.0908   -2.2566 H   0  0  0  0  0  0  0  0  0  0  0  0
    5.7155    0.7733   -0.0053 H   0  0  0  0  0  0  0  0  0  0  0  0
    0.1336    0.9402    0.7194 H   0  0  0  0  0  0  0  0  0  0  0  0
   -2.2644    0.2674    2.3279 H   0  0  0  0  0  0  0  0  0  0  0  0
   -1.9404    1.8171    1.5623 H   0  0  0  0  0  0  0  0  0  0  0  0
   -4.3744    1.5423    1.9852 H   0  0  0  0  0  0  0  0  0  0  0  0
   -4.4633   -0.9462    1.8359 H   0  0  0  0  0  0  0  0  0  0  0  0
   -5.6481   -0.2152    0.7551 H   0  0  0  0  0  0  0  0  0  0  0  0
   -4.4059   -2.0352   -0.4079 H   0  0  0  0  0  0  0  0  0  0  0  0
   -3.6287   -0.7216   -2.3883 H   0  0  0  0  0  0  0  0  0  0  0  0
   -5.1626   -0.1024   -1.7745 H   0  0  0  0  0  0  0  0  0  0  0  0
   -3.5682    1.7730   -2.2529 H   0  0  0  0  0  0  0  0  0  0  0  0
   -5.1629    2.0559   -0.3244 H   0  0  0  0  0  0  0  0  0  0  0  0
   -3.6296    2.8658    0.0046 H   0  0  0  0  0  0  0  0  0  0  0  0
   -2.2708   -1.9090    0.8634 H   0  0  0  0  0  0  0  0  0  0  0  0
   -2.0104   -1.7747   -0.8764 H   0  0  0  0  0  0  0  0  0  0  0  0
    1.5929    1.4107   -1.1272 H   0  0  0  0  0  0  0  0  0  0  0  0
    2.4808   -2.4277    2.1525 H   0  0  0  0  0  0  0  0  0  0  0  0
    2.2272   -3.2612    0.5851 H   0  0  0  0  0  0  0  0  0  0  0  0
    4.5237   -3.5881    0.2145 H   0  0  0  0  0  0  0  0  0  0  0  0
    4.5278   -3.7251    1.9732 H   0  0  0  0  0  0  0  0  0  0  0  0
    6.1479   -1.9414    0.6719 H   0  0  0  0  0  0  0  0  0  0  0  0
    5.3791   -1.4626    2.2202 H   0  0  0  0  0  0  0  0  0  0  0  0
  1  2  1  0
  2  3  1  0
  3  4  1  0
  4  5  2  0
  5  6  1  0
  6  7  2  0
  7  8  1  0
  8  9  2  0
  8 10  1  0
 11 10  1  1
 11 12  1  0
 12 13  1  0
 13 14  1  0
 14 15  1  0
 15 16  1  0
 16 17  1  0
 17 18  1  0
 17 19  1  0
 19 20  2  0
 15 21  1  0
  7 22  1  0
  6 23  1  0
 23 24  1  0
 24 25  1  0
 22  3  2  0
 25  5  1  0
 19 11  1  0
 21 11  1  0
 18 13  1  0
  1 26  1  0
  1 27  1  0
  1 28  1  0
  4 29  1  0
 10 30  1  0
 12 31  1  0
 12 32  1  0
 13 33  1  1
 14 34  1  0
 14 35  1  0
 15 36  1  6
 16 37  1  0
 16 38  1  0
 17 39  1  6
 18 40  1  0
 18 41  1  0
 21 42  1  0
 21 43  1  0
 22 44  1  0
 23 45  1  0
 23 46  1  0
 24 47  1  0
 24 48  1  0
 25 49  1  0
 25 50  1  0
M  END
>  <_SMILES>  (16) 
COc1cc2c(c(C(=O)N[C@@]34C[C@@H]5C[C@@H](C[C@@H](C5)C3=O)C4)c1)CCC2

$$$$

     RDKit          3D

 53 57  0  0  0  0  0  0  0  0999 V2000
    1.7546    2.4850    1.9283 C   0  0  0  0  0  0  0  0  0  0  0  0
    2.0976    1.3260    1.0269 C   0  0  0  0  0  0  0  0  0  0  0  0
    3.5306    1.0982    0.8636 C   0  0  0  0  0  0  0  0  0  0  0  0
    3.9893    0.0762    0.1275 C   0  0  0  0  0  0  0  0  0  0  0  0
    5.4258   -0.1832   -0.0477 C   0  0  0  0  0  0  0  0  0  0  0  0
    5.9711   -1.4186    0.3301 C   0  0  0  0  0  0  0  0  0  0  0  0
    7.3333   -1.6743    0.1580 C   0  0  0  0  0  0  0  0  0  0  0  0
    8.1615   -0.6996   -0.3956 C   0  0  0  0  0  0  0  0  0  0  0  0
    7.6301    0.5310   -0.7776 C   0  0  0  0  0  0  0  0  0  0  0  0
    6.2682    0.7887   -0.6052 C   0  0  0  0  0  0  0  0  0  0  0  0
    3.0969   -0.7690   -0.4726 N   0  0  0  0  0  0  0  0  0  0  0  0
    1.7349   -0.6376   -0.3902 C   0  0  0  0  0  0  0  0  0  0  0  0
    0.9986   -1.4494   -0.9493 O   0  0  0  0  0  0  0  0  0  0  0  0
    1.1985    0.5163    0.4115 C   0  0  0  0  0  0  0  0  0  0  0  0
   -0.2836    0.7721    0.5061 C   0  0  0  0  0  0  0  0  0  0  0  0
   -0.7325    1.8586    0.8583 O   0  0  0  0  0  0  0  0  0  0  0  0
   -1.0887   -0.2849    0.1518 N   0  0  0  0  0  0  0  0  0  0  0  0
   -2.5517   -0.2503    0.0701 C   0  0  2  0  0  0  0  0  0  0  0  0
   -3.0504   -1.6615   -0.3451 C   0  0  0  0  0  0  0  0  0  0  0  0
   -4.5828   -1.6954   -0.4571 C   0  0  1  0  0  0  0  0  0  0  0  0
   -5.1953   -1.3304    0.9038 C   0  0  0  0  0  0  0  0  0  0  0  0
   -4.7356    0.0738    1.3253 C   0  0  2  0  0  0  0  0  0  0  0  0
   -5.1822    1.0943    0.2644 C   0  0  0  0  0  0  0  0  0  0  0  0
   -4.5739    0.7378   -1.1028 C   0  0  2  0  0  0  0  0  0  0  0  0
   -5.0339   -0.6709   -1.5101 C   0  0  0  0  0  0  0  0  0  0  0  0
   -3.0388    0.7610   -0.9965 C   0  0  0  0  0  0  0  0  0  0  0  0
   -3.2005    0.0961    1.4342 C   0  0  0  0  0  0  0  0  0  0  0  0
    1.5395    3.3799    1.3354 H   0  0  0  0  0  0  0  0  0  0  0  0
    2.5781    2.7279    2.6100 H   0  0  0  0  0  0  0  0  0  0  0  0
    0.9010    2.2608    2.5754 H   0  0  0  0  0  0  0  0  0  0  0  0
    4.2219    1.7760    1.3584 H   0  0  0  0  0  0  0  0  0  0  0  0
    5.3406   -2.1867    0.7730 H   0  0  0  0  0  0  0  0  0  0  0  0
    7.7483   -2.6332    0.4582 H   0  0  0  0  0  0  0  0  0  0  0  0
    9.2217   -0.8991   -0.5297 H   0  0  0  0  0  0  0  0  0  0  0  0
    8.2755    1.2900   -1.2126 H   0  0  0  0  0  0  0  0  0  0  0  0
    5.8686    1.7506   -0.9191 H   0  0  0  0  0  0  0  0  0  0  0  0
    3.4370   -1.5388   -1.0357 H   0  0  0  0  0  0  0  0  0  0  0  0
   -0.6251   -1.0788   -0.2912 H   0  0  0  0  0  0  0  0  0  0  0  0
   -2.6048   -1.9516   -1.3062 H   0  0  0  0  0  0  0  0  0  0  0  0
   -2.7151   -2.4100    0.3854 H   0  0  0  0  0  0  0  0  0  0  0  0
   -4.9104   -2.6982   -0.7529 H   0  0  0  0  0  0  0  0  0  0  0  0
   -6.2901   -1.3643    0.8435 H   0  0  0  0  0  0  0  0  0  0  0  0
   -4.8951   -2.0661    1.6600 H   0  0  0  0  0  0  0  0  0  0  0  0
   -5.1776    0.3311    2.2944 H   0  0  0  0  0  0  0  0  0  0  0  0
   -6.2769    1.1058    0.1946 H   0  0  0  0  0  0  0  0  0  0  0  0
   -4.8716    2.1037    0.5610 H   0  0  0  0  0  0  0  0  0  0  0  0
   -4.9023    1.4647   -1.8541 H   0  0  0  0  0  0  0  0  0  0  0  0
   -4.6175   -0.9325   -2.4906 H   0  0  0  0  0  0  0  0  0  0  0  0
   -6.1259   -0.6940   -1.6116 H   0  0  0  0  0  0  0  0  0  0  0  0
   -2.7122    1.7780   -0.7490 H   0  0  0  0  0  0  0  0  0  0  0  0
   -2.5933    0.5247   -1.9718 H   0  0  0  0  0  0  0  0  0  0  0  0
   -2.8695   -0.6166    2.2010 H   0  0  0  0  0  0  0  0  0  0  0  0
   -2.8860    1.0869    1.7810 H   0  0  0  0  0  0  0  0  0  0  0  0
  1  2  1  0
  2  3  1  0
  3  4  2  0
  4  5  1  0
  5  6  2  0
  6  7  1  0
  7  8  2  0
  8  9  1  0
  9 10  2  0
  4 11  1  0
 11 12  1  0
 12 13  2  0
 12 14  1  0
 14 15  1  0
 15 16  2  0
 15 17  1  0
 18 17  1  1
 18 19  1  0
 19 20  1  0
 20 21  1  0
 21 22  1  0
 22 23  1  0
 23 24  1  0
 24 25  1  0
 24 26  1  0
 22 27  1  0
 14  2  2  0
 26 18  1  0
 10  5  1  0
 27 18  1  0
 25 20  1  0
  1 28  1  0
  1 29  1  0
  1 30  1  0
  3 31  1  0
  6 32  1  0
  7 33  1  0
  8 34  1  0
  9 35  1  0
 10 36  1  0
 11 37  1  0
 17 38  1  0
 19 39  1  0
 19 40  1  0
 20 41  1  6
 21 42  1  0
 21 43  1  0
 22 44  1  1
 23 45  1  0
 23 46  1  0
 24 47  1  6
 25 48  1  0
 25 49  1  0
 26 50  1  0
 26 51  1  0
 27 52  1  0
 27 53  1  0
M  END
>  <_SMILES>  (17) 
Cc1cc(-c2ccccc2)[nH]c(=O)c1C(=O)N[C@]12C[C@H]3C[C@H](C[C@H](C3)C1)C2

$$$$

     RDKit          3D

 53 57  0  0  0  0  0  0  0  0999 V2000
    1.7543    0.0784   -3.0033 C   0  0  0  0  0  0  0  0  0  0  0  0
    2.1713    0.1077   -1.5575 C   0  0  0  0  0  0  0  0  0  0  0  0
    3.5492    0.1098   -1.2657 C   0  0  0  0  0  0  0  0  0  0  0  0
    3.9919    0.1227    0.0570 C   0  0  0  0  0  0  0  0  0  0  0  0
    5.4221    0.1256    0.4245 C   0  0  0  0  0  0  0  0  0  0  0  0
    6.3865    0.8118   -0.3367 C   0  0  0  0  0  0  0  0  0  0  0  0
    7.7385    0.8018    0.0227 C   0  0  0  0  0  0  0  0  0  0  0  0
    8.1550    0.1074    1.1545 C   0  0  0  0  0  0  0  0  0  0  0  0
    7.2213   -0.5728    1.9299 C   0  0  0  0  0  0  0  0  0  0  0  0
    5.8707   -0.5602    1.5688 C   0  0  0  0  0  0  0  0  0  0  0  0
    3.1173    0.1219    1.0902 N   0  0  0  0  0  0  0  0  0  0  0  0
    1.8035    0.1342    0.7882 C   0  0  0  0  0  0  0  0  0  0  0  0
    1.0507    0.1490    1.9205 O   0  0  0  0  0  0  0  0  0  0  0  0
    1.2531    0.1350   -0.4904 C   0  0  0  0  0  0  0  0  0  0  0  0
   -0.2284    0.1767   -0.7220 C   0  0  0  0  0  0  0  0  0  0  0  0
   -0.6752    0.5369   -1.8051 O   0  0  0  0  0  0  0  0  0  0  0  0
   -1.0380   -0.2035    0.3285 N   0  0  0  0  0  0  0  0  0  0  0  0
   -2.5031   -0.1516    0.3319 C   0  0  2  0  0  0  0  0  0  0  0  0
   -3.0062   -0.6864    1.7006 C   0  0  0  0  0  0  0  0  0  0  0  0
   -4.5408   -0.6535    1.7766 C   0  0  1  0  0  0  0  0  0  0  0  0
   -5.0236    0.7937    1.5920 C   0  0  0  0  0  0  0  0  0  0  0  0
   -4.5593    1.3324    0.2295 C   0  0  2  0  0  0  0  0  0  0  0  0
   -5.1333    0.4455   -0.8886 C   0  0  0  0  0  0  0  0  0  0  0  0
   -4.6549   -1.0058   -0.7121 C   0  0  2  0  0  0  0  0  0  0  0  0
   -5.1193   -1.5303    0.6554 C   0  0  0  0  0  0  0  0  0  0  0  0
   -3.1176   -1.0432   -0.7768 C   0  0  0  0  0  0  0  0  0  0  0  0
   -3.0221    1.2977    0.1656 C   0  0  0  0  0  0  0  0  0  0  0  0
    2.6108   -0.1044   -3.6620 H   0  0  0  0  0  0  0  0  0  0  0  0
    1.3182    1.0387   -3.2954 H   0  0  0  0  0  0  0  0  0  0  0  0
    1.0428   -0.7332   -3.1854 H   0  0  0  0  0  0  0  0  0  0  0  0
    4.2710    0.0809   -2.0780 H   0  0  0  0  0  0  0  0  0  0  0  0
    6.0941    1.3832   -1.2151 H   0  0  0  0  0  0  0  0  0  0  0  0
    8.4639    1.3428   -0.5797 H   0  0  0  0  0  0  0  0  0  0  0  0
    9.2050    0.1008    1.4351 H   0  0  0  0  0  0  0  0  0  0  0  0
    7.5396   -1.1132    2.8176 H   0  0  0  0  0  0  0  0  0  0  0  0
    5.1581   -1.1002    2.1903 H   0  0  0  0  0  0  0  0  0  0  0  0
    1.7671    0.1916    2.5837 H   0  0  0  0  0  0  0  0  0  0  0  0
   -0.5803   -0.3142    1.2301 H   0  0  0  0  0  0  0  0  0  0  0  0
   -2.6486   -1.7127    1.8589 H   0  0  0  0  0  0  0  0  0  0  0  0
   -2.5843   -0.0864    2.5183 H   0  0  0  0  0  0  0  0  0  0  0  0
   -4.8715   -1.0323    2.7501 H   0  0  0  0  0  0  0  0  0  0  0  0
   -6.1177    0.8351    1.6584 H   0  0  0  0  0  0  0  0  0  0  0  0
   -4.6316    1.4257    2.3983 H   0  0  0  0  0  0  0  0  0  0  0  0
   -4.9103    2.3624    0.1010 H   0  0  0  0  0  0  0  0  0  0  0  0
   -4.8196    0.8271   -1.8680 H   0  0  0  0  0  0  0  0  0  0  0  0
   -6.2295    0.4824   -0.8691 H   0  0  0  0  0  0  0  0  0  0  0  0
   -5.0726   -1.6320   -1.5084 H   0  0  0  0  0  0  0  0  0  0  0  0
   -6.2151   -1.5284    0.7055 H   0  0  0  0  0  0  0  0  0  0  0  0
   -4.7963   -2.5702    0.7877 H   0  0  0  0  0  0  0  0  0  0  0  0
   -2.7986   -0.7127   -1.7718 H   0  0  0  0  0  0  0  0  0  0  0  0
   -2.7636   -2.0768   -0.6689 H   0  0  0  0  0  0  0  0  0  0  0  0
   -2.6936    1.7235   -0.7900 H   0  0  0  0  0  0  0  0  0  0  0  0
   -2.6011    1.9415    0.9491 H   0  0  0  0  0  0  0  0  0  0  0  0
  1  2  1  0
  2  3  1  0
  3  4  2  0
  4  5  1  0
  5  6  2  0
  6  7  1  0
  7  8  2  0
  8  9  1  0
  9 10  2  0
  4 11  1  0
 11 12  2  0
 12 13  1  0
 12 14  1  0
 14 15  1  0
 15 16  2  0
 15 17  1  0
 18 17  1  1
 18 19  1  0
 19 20  1  0
 20 21  1  0
 21 22  1  0
 22 23  1  0
 23 24  1  0
 24 25  1  0
 24 26  1  0
 22 27  1  0
 14  2  2  0
 26 18  1  0
 10  5  1  0
 27 18  1  0
 25 20  1  0
  1 28  1  0
  1 29  1  0
  1 30  1  0
  3 31  1  0
  6 32  1  0
  7 33  1  0
  8 34  1  0
  9 35  1  0
 10 36  1  0
 13 37  1  0
 17 38  1  0
 19 39  1  0
 19 40  1  0
 20 41  1  1
 21 42  1  0
 21 43  1  0
 22 44  1  6
 23 45  1  0
 23 46  1  0
 24 47  1  6
 25 48  1  0
 25 49  1  0
 26 50  1  0
 26 51  1  0
 27 52  1  0
 27 53  1  0
M  END
>  <_SMILES>  (18) 
Cc1cc(-c2ccccc2)nc(O)c1C(=O)N[C@]12C[C@H]3C[C@H](C[C@H](C3)C1)C2

$$$$

     RDKit          3D

 59 64  0  0  0  0  0  0  0  0999 V2000
    0.3242    2.4091    0.4780 C   0  0  0  0  0  0  0  0  0  0  0  0
    1.0359    1.2902   -0.2121 C   0  0  0  0  0  0  0  0  0  0  0  0
    0.4181    0.0843   -0.6898 C   0  0  0  0  0  0  0  0  0  0  0  0
   -0.9608   -0.3591   -0.5988 C   0  0  0  0  0  0  0  0  0  0  0  0
   -1.8146    0.3506    0.0400 N   0  0  0  0  0  0  0  0  0  0  0  0
   -3.2042   -0.1123    0.1299 C   0  0  1  0  0  0  0  0  0  0  0  0
   -3.3173   -1.4463    0.8910 C   0  0  0  0  0  0  0  0  0  0  0  0
   -4.7957   -1.8617    1.0229 C   0  0  2  0  0  0  0  0  0  0  0  0
   -5.4231   -1.9742   -0.3775 C   0  0  0  0  0  0  0  0  0  0  0  0
   -5.3481   -0.6226   -1.1088 C   0  0  1  0  0  0  0  0  0  0  0  0
   -6.0967    0.4452   -0.2904 C   0  0  0  0  0  0  0  0  0  0  0  0
   -5.4867    0.5578    1.1108 C   0  0  1  0  0  0  0  0  0  0  0  0
   -5.5455   -0.7908    1.8360 C   0  0  0  0  0  0  0  0  0  0  0  0
   -4.0174    0.9276    0.9443 C   0  0  0  0  0  0  0  0  0  0  0  0
   -3.5655    1.9639    1.4268 O   0  0  0  0  0  0  0  0  0  0  0  0
   -3.8732   -0.1992   -1.2545 C   0  0  0  0  0  0  0  0  0  0  0  0
    1.4108   -0.6522   -1.3047 C   0  0  0  0  0  0  0  0  0  0  0  0
    2.6009    0.0271   -1.1910 N   0  0  0  0  0  0  0  0  0  0  0  0
    3.8692   -0.4888   -1.7023 C   0  0  0  0  0  0  0  0  0  0  0  0
    4.7276   -1.0796   -0.6079 C   0  0  0  0  0  0  0  0  0  0  0  0
    5.9403   -0.4705   -0.2469 C   0  0  0  0  0  0  0  0  0  0  0  0
    6.7384   -1.0096    0.7674 C   0  0  0  0  0  0  0  0  0  0  0  0
    6.3334   -2.1679    1.4280 C   0  0  0  0  0  0  0  0  0  0  0  0
    7.3244   -2.8250    2.6724 Cl  0  0  0  0  0  0  0  0  0  0  0  0
    5.1355   -2.7813    1.0727 C   0  0  0  0  0  0  0  0  0  0  0  0
    4.7277   -3.8999    1.6907 F   0  0  0  0  0  0  0  0  0  0  0  0
    4.3355   -2.2480    0.0638 C   0  0  0  0  0  0  0  0  0  0  0  0
    2.3924    1.2167   -0.5248 C   0  0  0  0  0  0  0  0  0  0  0  0
    3.4380    2.1569   -0.2327 C   0  0  0  0  0  0  0  0  0  0  0  0
    3.6804    2.8418    0.9471 C   0  0  0  0  0  0  0  0  0  0  0  0
    4.8165    3.6591    0.7373 C   0  0  0  0  0  0  0  0  0  0  0  0
    5.2101    3.4297   -0.5570 C   0  0  0  0  0  0  0  0  0  0  0  0
    4.3966    2.5178   -1.1458 O   0  0  0  0  0  0  0  0  0  0  0  0
    0.0530    2.1149    1.4968 H   0  0  0  0  0  0  0  0  0  0  0  0
    0.9350    3.3140    0.5351 H   0  0  0  0  0  0  0  0  0  0  0  0
   -0.5857    2.6833   -0.0654 H   0  0  0  0  0  0  0  0  0  0  0  0
   -1.2102   -1.3154   -1.0896 H   0  0  0  0  0  0  0  0  0  0  0  0
   -2.7673   -2.2401    0.3712 H   0  0  0  0  0  0  0  0  0  0  0  0
   -2.8670   -1.3557    1.8882 H   0  0  0  0  0  0  0  0  0  0  0  0
   -4.8615   -2.8269    1.5375 H   0  0  0  0  0  0  0  0  0  0  0  0
   -6.4691   -2.2936   -0.2921 H   0  0  0  0  0  0  0  0  0  0  0  0
   -4.9015   -2.7436   -0.9599 H   0  0  0  0  0  0  0  0  0  0  0  0
   -5.8043   -0.7119   -2.1011 H   0  0  0  0  0  0  0  0  0  0  0  0
   -7.1588    0.1820   -0.2157 H   0  0  0  0  0  0  0  0  0  0  0  0
   -6.0391    1.4123   -0.8054 H   0  0  0  0  0  0  0  0  0  0  0  0
   -5.9968    1.3319    1.6931 H   0  0  0  0  0  0  0  0  0  0  0  0
   -5.0959   -0.7025    2.8329 H   0  0  0  0  0  0  0  0  0  0  0  0
   -6.5900   -1.0933    1.9787 H   0  0  0  0  0  0  0  0  0  0  0  0
   -3.3545   -0.9234   -1.8942 H   0  0  0  0  0  0  0  0  0  0  0  0
   -3.8142    0.7696   -1.7679 H   0  0  0  0  0  0  0  0  0  0  0  0
    1.3688   -1.6136   -1.8001 H   0  0  0  0  0  0  0  0  0  0  0  0
    3.6445   -1.2633   -2.4462 H   0  0  0  0  0  0  0  0  0  0  0  0
    4.3747    0.3163   -2.2437 H   0  0  0  0  0  0  0  0  0  0  0  0
    6.2690    0.4387   -0.7482 H   0  0  0  0  0  0  0  0  0  0  0  0
    7.6700   -0.5187    1.0369 H   0  0  0  0  0  0  0  0  0  0  0  0
    3.4050   -2.7521   -0.1819 H   0  0  0  0  0  0  0  0  0  0  0  0
    3.0970    2.7555    1.8536 H   0  0  0  0  0  0  0  0  0  0  0  0
    5.2838    4.3332    1.4408 H   0  0  0  0  0  0  0  0  0  0  0  0
    6.0080    3.8139   -1.1768 H   0  0  0  0  0  0  0  0  0  0  0  0
  1  2  1  0
  2  3  1  0
  3  4  1  0
  4  5  2  0
  6  5  1  6
  6  7  1  0
  7  8  1  0
  8  9  1  0
  9 10  1  0
 10 11  1  0
 11 12  1  0
 12 13  1  0
 12 14  1  0
 14 15  2  0
 10 16  1  0
  3 17  2  0
 17 18  1  0
 18 19  1  0
 19 20  1  0
 20 21  1  0
 21 22  2  0
 22 23  1  0
 23 24  1  0
 23 25  2  0
 25 26  1  0
 25 27  1  0
 18 28  1  0
 28 29  1  0
 29 30  2  0
 30 31  1  0
 31 32  2  0
 32 33  1  0
 28  2  2  0
 33 29  1  0
 14  6  1  0
 27 20  2  0
 16  6  1  0
 13  8  1  0
  1 34  1  0
  1 35  1  0
  1 36  1  0
  4 37  1  0
  7 38  1  0
  7 39  1  0
  8 40  1  1
  9 41  1  0
  9 42  1  0
 10 43  1  6
 11 44  1  0
 11 45  1  0
 12 46  1  1
 13 47  1  0
 13 48  1  0
 16 49  1  0
 16 50  1  0
 17 51  1  0
 19 52  1  0
 19 53  1  0
 21 54  1  0
 22 55  1  0
 27 56  1  0
 30 57  1  0
 31 58  1  0
 32 59  1  0
M  END
>  <_SMILES>  (19) 
Cc1c(/C=N/[C@@]23C[C@@H]4C[C@@H](C[C@@H](C4)C2=O)C3)cn(Cc2ccc(Cl)c(F)c2)c1-c1ccco1

$$$$

     RDKit          3D

 51 55  0  0  0  0  0  0  0  0999 V2000
    1.8265   -2.7760    2.8276 C   0  0  0  0  0  0  0  0  0  0  0  0
    2.2973   -1.6030    2.0402 C   0  0  0  0  0  0  0  0  0  0  0  0
    3.5923   -1.1132    2.0049 C   0  0  0  0  0  0  0  0  0  0  0  0
    3.6152   -0.0310    1.1672 N   0  0  0  0  0  0  0  0  0  0  0  0
    4.7766    0.7938    0.8722 C   0  0  0  0  0  0  0  0  0  0  0  0
    5.5310    0.2416   -0.2739 C   0  0  0  0  0  0  0  0  0  0  0  0
    6.5716   -0.7091   -0.2516 C   0  0  0  0  0  0  0  0  0  0  0  0
    7.0729   -1.2929    0.8402 F   0  0  0  0  0  0  0  0  0  0  0  0
    6.9819   -0.9311   -1.5373 C   0  0  0  0  0  0  0  0  0  0  0  0
    6.2498   -0.1558   -2.3828 O   0  0  0  0  0  0  0  0  0  0  0  0
    5.3757    0.5477   -1.6108 C   0  0  0  0  0  0  0  0  0  0  0  0
    4.4854    1.4282   -2.0906 F   0  0  0  0  0  0  0  0  0  0  0  0
    2.3612    0.1835    0.6778 C   0  0  0  0  0  0  0  0  0  0  0  0
    2.0297    1.1775   -0.1616 F   0  0  0  0  0  0  0  0  0  0  0  0
    1.4947   -0.7676    1.1795 C   0  0  0  0  0  0  0  0  0  0  0  0
    0.0616   -0.8952    0.8998 C   0  0  0  0  0  0  0  0  0  0  0  0
   -0.6240   -1.7564    1.4386 O   0  0  0  0  0  0  0  0  0  0  0  0
   -0.4403    0.0138   -0.0102 N   0  0  0  0  0  0  0  0  0  0  0  0
   -1.8669    0.2507   -0.2358 C   0  0  2  0  0  0  0  0  0  0  0  0
   -2.7129   -1.0256   -0.4484 C   0  0  0  0  0  0  0  0  0  0  0  0
   -4.1887   -0.6663   -0.7034 C   0  0  1  0  0  0  0  0  0  0  0  0
   -4.7251    0.0847    0.5341 C   0  0  0  0  0  0  0  0  0  0  0  0
   -3.9553    1.3932    0.7389 C   0  0  2  0  0  0  0  0  0  0  0  0
   -4.0499    2.2756   -0.5124 C   0  0  0  0  0  0  0  0  0  0  0  0
   -3.4975    1.5152   -1.7387 C   0  0  1  0  0  0  0  0  0  0  0  0
   -2.0189    1.1609   -1.4854 C   0  0  0  0  0  0  0  0  0  0  0  0
   -4.2898    0.2154   -1.9591 C   0  0  2  0  0  0  0  0  0  0  0  0
   -5.6548    0.5093   -2.2220 O   0  0  0  0  0  0  0  0  0  0  0  0
   -2.4791    1.0666    0.9273 C   0  0  0  0  0  0  0  0  0  0  0  0
   -1.8269    1.5179    1.8669 O   0  0  0  0  0  0  0  0  0  0  0  0
    1.4044   -3.5385    2.1654 H   0  0  0  0  0  0  0  0  0  0  0  0
    2.6503   -3.2342    3.3848 H   0  0  0  0  0  0  0  0  0  0  0  0
    1.0614   -2.4718    3.5488 H   0  0  0  0  0  0  0  0  0  0  0  0
    4.4889   -1.4548    2.5081 H   0  0  0  0  0  0  0  0  0  0  0  0
    5.3947    0.8305    1.7766 H   0  0  0  0  0  0  0  0  0  0  0  0
    4.4247    1.8120    0.6711 H   0  0  0  0  0  0  0  0  0  0  0  0
    7.7300   -1.5613   -1.9955 H   0  0  0  0  0  0  0  0  0  0  0  0
    0.1664    0.8098   -0.1701 H   0  0  0  0  0  0  0  0  0  0  0  0
   -2.6846   -1.6807    0.4276 H   0  0  0  0  0  0  0  0  0  0  0  0
   -2.3148   -1.6065   -1.2900 H   0  0  0  0  0  0  0  0  0  0  0  0
   -4.7797   -1.5794   -0.8412 H   0  0  0  0  0  0  0  0  0  0  0  0
   -5.7944    0.2960    0.4140 H   0  0  0  0  0  0  0  0  0  0  0  0
   -4.6245   -0.5516    1.4224 H   0  0  0  0  0  0  0  0  0  0  0  0
   -4.3274    1.9234    1.6214 H   0  0  0  0  0  0  0  0  0  0  0  0
   -3.4750    3.1989   -0.3657 H   0  0  0  0  0  0  0  0  0  0  0  0
   -5.0911    2.5728   -0.6846 H   0  0  0  0  0  0  0  0  0  0  0  0
   -3.5849    2.1614   -2.6199 H   0  0  0  0  0  0  0  0  0  0  0  0
   -1.5994    0.6598   -2.3678 H   0  0  0  0  0  0  0  0  0  0  0  0
   -1.4441    2.0879   -1.3535 H   0  0  0  0  0  0  0  0  0  0  0  0
   -3.8966   -0.3289   -2.8262 H   0  0  0  0  0  0  0  0  0  0  0  0
   -5.6976    1.0027   -3.0596 H   0  0  0  0  0  0  0  0  0  0  0  0
  1  2  1  0
  2  3  2  0
  3  4  1  0
  4  5  1  0
  5  6  1  0
  6  7  1  0
  7  8  1  0
  7  9  2  0
  9 10  1  0
 10 11  1  0
 11 12  1  0
  4 13  1  0
 13 14  1  0
 13 15  2  0
 15 16  1  0
 16 17  2  0
 16 18  1  0
 19 18  1  1
 19 20  1  0
 20 21  1  0
 21 22  1  0
 22 23  1  0
 23 24  1  0
 24 25  1  0
 25 26  1  0
 25 27  1  0
 27 28  1  0
 23 29  1  0
 29 30  2  0
 15  2  1  0
 26 19  1  0
 11  6  2  0
 29 19  1  0
 27 21  1  0
  1 31  1  0
  1 32  1  0
  1 33  1  0
  3 34  1  0
  5 35  1  0
  5 36  1  0
  9 37  1  0
 18 38  1  0
 20 39  1  0
 20 40  1  0
 21 41  1  6
 22 42  1  0
 22 43  1  0
 23 44  1  1
 24 45  1  0
 24 46  1  0
 25 47  1  6
 26 48  1  0
 26 49  1  0
 27 50  1  6
 28 51  1  0
M  END
>  <_SMILES>  (20) 
Cc1cn(Cc2c(F)coc2F)c(F)c1C(=O)N[C@]12C[C@H]3C[C@H](C[C@@H](C1)[C@@H]3O)C2=O

$$$$

     RDKit          3D

 51 55  0  0  0  0  0  0  0  0999 V2000
    1.4961   -2.7378   -0.6717 C   0  0  0  0  0  0  0  0  0  0  0  0
    2.1899   -1.4330   -0.8593 C   0  0  0  0  0  0  0  0  0  0  0  0
    3.5599   -1.2765   -1.0020 C   0  0  0  0  0  0  0  0  0  0  0  0
    3.8237    0.0530   -1.1979 N   0  0  0  0  0  0  0  0  0  0  0  0
    5.1351    0.6406   -1.4248 C   0  0  0  0  0  0  0  0  0  0  0  0
    5.8225    0.8988   -0.1406 C   0  0  0  0  0  0  0  0  0  0  0  0
    5.8022    2.0754    0.6353 C   0  0  0  0  0  0  0  0  0  0  0  0
    5.1427    3.1979    0.3380 F   0  0  0  0  0  0  0  0  0  0  0  0
    6.5776    1.8753    1.7441 C   0  0  0  0  0  0  0  0  0  0  0  0
    7.1000    0.6194    1.7072 O   0  0  0  0  0  0  0  0  0  0  0  0
    6.6380    0.0378    0.5659 C   0  0  0  0  0  0  0  0  0  0  0  0
    6.9418   -1.2096    0.1780 F   0  0  0  0  0  0  0  0  0  0  0  0
    2.6515    0.7465   -1.1948 C   0  0  0  0  0  0  0  0  0  0  0  0
    2.5519    2.0732   -1.3652 F   0  0  0  0  0  0  0  0  0  0  0  0
    1.6005   -0.1178   -0.9650 C   0  0  0  0  0  0  0  0  0  0  0  0
    0.2072    0.3102   -0.8915 C   0  0  0  0  0  0  0  0  0  0  0  0
   -0.2234    1.2720   -1.5166 O   0  0  0  0  0  0  0  0  0  0  0  0
   -0.5717   -0.4434   -0.0496 N   0  0  0  0  0  0  0  0  0  0  0  0
   -1.9794   -0.1946    0.2338 C   0  0  2  0  0  0  0  0  0  0  0  0
   -2.8793   -0.3142   -1.0117 C   0  0  0  0  0  0  0  0  0  0  0  0
   -4.3663   -0.1745   -0.6156 C   0  0  1  0  0  0  0  0  0  0  0  0
   -4.7339   -1.3201    0.3465 C   0  0  0  0  0  0  0  0  0  0  0  0
   -3.8874   -1.2287    1.6221 C   0  0  2  0  0  0  0  0  0  0  0  0
   -4.0873    0.1255    2.3135 C   0  0  0  0  0  0  0  0  0  0  0  0
   -3.7192    1.2696    1.3497 C   0  0  1  0  0  0  0  0  0  0  0  0
   -2.2266    1.1391    0.9639 C   0  0  0  0  0  0  0  0  0  0  0  0
   -4.6075    1.1732    0.0934 C   0  0  1  0  0  0  0  0  0  0  0  0
   -4.3088    2.2571   -0.7716 O   0  0  0  0  0  0  0  0  0  0  0  0
   -2.4274   -1.3106    1.2060 C   0  0  0  0  0  0  0  0  0  0  0  0
   -1.6708   -2.1891    1.6201 O   0  0  0  0  0  0  0  0  0  0  0  0
    2.1220   -3.5669   -1.0187 H   0  0  0  0  0  0  0  0  0  0  0  0
    1.2740   -2.9034    0.3869 H   0  0  0  0  0  0  0  0  0  0  0  0
    0.5614   -2.7714   -1.2400 H   0  0  0  0  0  0  0  0  0  0  0  0
    4.3580   -2.0093   -0.9882 H   0  0  0  0  0  0  0  0  0  0  0  0
    4.9987    1.5645   -1.9981 H   0  0  0  0  0  0  0  0  0  0  0  0
    5.7033   -0.0563   -2.0517 H   0  0  0  0  0  0  0  0  0  0  0  0
    6.8481    2.4800    2.5974 H   0  0  0  0  0  0  0  0  0  0  0  0
   -0.1162   -1.1310    0.5412 H   0  0  0  0  0  0  0  0  0  0  0  0
   -2.6245    0.4510   -1.7538 H   0  0  0  0  0  0  0  0  0  0  0  0
   -2.7212   -1.2841   -1.5022 H   0  0  0  0  0  0  0  0  0  0  0  0
   -4.9776   -0.2355   -1.5236 H   0  0  0  0  0  0  0  0  0  0  0  0
   -5.7995   -1.2678    0.6005 H   0  0  0  0  0  0  0  0  0  0  0  0
   -4.5669   -2.2852   -0.1479 H   0  0  0  0  0  0  0  0  0  0  0  0
   -4.1229   -2.0519    2.3040 H   0  0  0  0  0  0  0  0  0  0  0  0
   -5.1298    0.2298    2.6374 H   0  0  0  0  0  0  0  0  0  0  0  0
   -3.4622    0.1854    3.2132 H   0  0  0  0  0  0  0  0  0  0  0  0
   -3.8693    2.2384    1.8406 H   0  0  0  0  0  0  0  0  0  0  0  0
   -1.9301    1.9872    0.3358 H   0  0  0  0  0  0  0  0  0  0  0  0
   -1.6091    1.1962    1.8703 H   0  0  0  0  0  0  0  0  0  0  0  0
   -5.6624    1.2642    0.3788 H   0  0  0  0  0  0  0  0  0  0  0  0
   -4.8254    2.1517   -1.5890 H   0  0  0  0  0  0  0  0  0  0  0  0
  1  2  1  0
  2  3  2  0
  3  4  1  0
  4  5  1  0
  5  6  1  0
  6  7  1  0
  7  8  1  0
  7  9  2  0
  9 10  1  0
 10 11  1  0
 11 12  1  0
  4 13  1  0
 13 14  1  0
 13 15  2  0
 15 16  1  0
 16 17  2  0
 16 18  1  0
 19 18  1  6
 19 20  1  0
 20 21  1  0
 21 22  1  0
 22 23  1  0
 23 24  1  0
 24 25  1  0
 25 26  1  0
 25 27  1  0
 27 28  1  0
 23 29  1  0
 29 30  2  0
 15  2  1  0
 26 19  1  0
 11  6  2  0
 29 19  1  0
 27 21  1  0
  1 31  1  0
  1 32  1  0
  1 33  1  0
  3 34  1  0
  5 35  1  0
  5 36  1  0
  9 37  1  0
 18 38  1  0
 20 39  1  0
 20 40  1  0
 21 41  1  6
 22 42  1  0
 22 43  1  0
 23 44  1  1
 24 45  1  0
 24 46  1  0
 25 47  1  1
 26 48  1  0
 26 49  1  0
 27 50  1  1
 28 51  1  0
M  END
>  <_SMILES>  (21) 
Cc1cn(Cc2c(F)coc2F)c(F)c1C(=O)N[C@]12C[C@H]3C[C@H](C[C@@H](C1)[C@H]3O)C2=O

$$$$

     RDKit          3D

 60 65  0  0  0  0  0  0  0  0999 V2000
    1.2595   -3.0802   -0.1709 C   0  0  0  0  0  0  0  0  0  0  0  0
    1.4922   -1.6047   -0.0938 C   0  0  0  0  0  0  0  0  0  0  0  0
    0.4655   -0.6073   -0.1424 C   0  0  0  0  0  0  0  0  0  0  0  0
   -0.9744   -0.8239   -0.3296 C   0  0  0  0  0  0  0  0  0  0  0  0
   -1.4349   -1.9057   -0.6782 O   0  0  0  0  0  0  0  0  0  0  0  0
   -1.7660    0.2689   -0.0757 N   0  0  0  0  0  0  0  0  0  0  0  0
   -3.2194    0.2874   -0.1826 C   0  0  1  0  0  0  0  0  0  0  0  0
   -3.9115   -0.6700    0.8077 C   0  0  0  0  0  0  0  0  0  0  0  0
   -5.4429   -0.5077    0.7277 C   0  0  2  0  0  0  0  0  0  0  0  0
   -5.9120   -0.7847   -0.7108 C   0  0  0  0  0  0  0  0  0  0  0  0
   -5.2519    0.2031   -1.6877 C   0  0  1  0  0  0  0  0  0  0  0  0
   -5.6254    1.6440   -1.2910 C   0  0  0  0  0  0  0  0  0  0  0  0
   -5.1757    1.9297    0.1462 C   0  0  1  0  0  0  0  0  0  0  0  0
   -5.8173    0.9345    1.1197 C   0  0  0  0  0  0  0  0  0  0  0  0
   -3.6719    1.7135    0.2046 C   0  0  0  0  0  0  0  0  0  0  0  0
   -2.8855    2.5994    0.5412 O   0  0  0  0  0  0  0  0  0  0  0  0
   -3.7199    0.0445   -1.6199 C   0  0  0  0  0  0  0  0  0  0  0  0
    1.1128    0.6052    0.0102 C   0  0  0  0  0  0  0  0  0  0  0  0
    2.4809    0.4167    0.1098 N   0  0  0  0  0  0  0  0  0  0  0  0
    3.4222    1.4952    0.2092 C   0  0  0  0  0  0  0  0  0  0  0  0
    3.0243    2.7177    0.7809 C   0  0  0  0  0  0  0  0  0  0  0  0
    3.9275    3.7798    0.8845 C   0  0  0  0  0  0  0  0  0  0  0  0
    5.2257    3.6314    0.4116 C   0  0  0  0  0  0  0  0  0  0  0  0
    6.0742    4.6640    0.5226 F   0  0  0  0  0  0  0  0  0  0  0  0
    5.6302    2.4339   -0.1696 C   0  0  0  0  0  0  0  0  0  0  0  0
    7.2322    2.2530   -0.7762 Cl  0  0  0  0  0  0  0  0  0  0  0  0
    4.7319    1.3678   -0.2764 C   0  0  0  0  0  0  0  0  0  0  0  0
    2.7196   -0.9593    0.0719 C   0  0  0  0  0  0  0  0  0  0  0  0
    4.0207   -1.6019    0.2907 C   0  0  0  0  0  0  0  0  0  0  0  0
    4.6556   -1.5164    1.5362 C   0  0  0  0  0  0  0  0  0  0  0  0
    5.8942   -2.1280    1.7387 C   0  0  0  0  0  0  0  0  0  0  0  0
    6.5007   -2.8362    0.7022 C   0  0  0  0  0  0  0  0  0  0  0  0
    5.8686   -2.9394   -0.5361 C   0  0  0  0  0  0  0  0  0  0  0  0
    4.6304   -2.3281   -0.7409 C   0  0  0  0  0  0  0  0  0  0  0  0
    2.1420   -3.6553    0.1229 H   0  0  0  0  0  0  0  0  0  0  0  0
    0.9932   -3.3662   -1.1934 H   0  0  0  0  0  0  0  0  0  0  0  0
    0.4472   -3.3776    0.5002 H   0  0  0  0  0  0  0  0  0  0  0  0
   -1.3416    1.1193    0.2766 H   0  0  0  0  0  0  0  0  0  0  0  0
   -3.6478   -1.7120    0.5913 H   0  0  0  0  0  0  0  0  0  0  0  0
   -3.5729   -0.4688    1.8327 H   0  0  0  0  0  0  0  0  0  0  0  0
   -5.9231   -1.2118    1.4165 H   0  0  0  0  0  0  0  0  0  0  0  0
   -7.0036   -0.6946   -0.7706 H   0  0  0  0  0  0  0  0  0  0  0  0
   -5.6612   -1.8144   -0.9939 H   0  0  0  0  0  0  0  0  0  0  0  0
   -5.5969    0.0020   -2.7081 H   0  0  0  0  0  0  0  0  0  0  0  0
   -6.7093    1.7863   -1.3785 H   0  0  0  0  0  0  0  0  0  0  0  0
   -5.1500    2.3514   -1.9820 H   0  0  0  0  0  0  0  0  0  0  0  0
   -5.4117    2.9600    0.4302 H   0  0  0  0  0  0  0  0  0  0  0  0
   -6.9076    1.0530    1.1107 H   0  0  0  0  0  0  0  0  0  0  0  0
   -5.4789    1.1376    2.1435 H   0  0  0  0  0  0  0  0  0  0  0  0
   -3.2456    0.7515   -2.3133 H   0  0  0  0  0  0  0  0  0  0  0  0
   -3.4457   -0.9600   -1.9632 H   0  0  0  0  0  0  0  0  0  0  0  0
    0.7073    1.6062   -0.0184 H   0  0  0  0  0  0  0  0  0  0  0  0
    2.0274    2.8612    1.1914 H   0  0  0  0  0  0  0  0  0  0  0  0
    3.6270    4.7200    1.3375 H   0  0  0  0  0  0  0  0  0  0  0  0
    5.0691    0.4688   -0.7810 H   0  0  0  0  0  0  0  0  0  0  0  0
    4.1890   -0.9746    2.3553 H   0  0  0  0  0  0  0  0  0  0  0  0
    6.3843   -2.0540    2.7060 H   0  0  0  0  0  0  0  0  0  0  0  0
    7.4651   -3.3122    0.8611 H   0  0  0  0  0  0  0  0  0  0  0  0
    6.3388   -3.4966   -1.3422 H   0  0  0  0  0  0  0  0  0  0  0  0
    4.1451   -2.4154   -1.7104 H   0  0  0  0  0  0  0  0  0  0  0  0
  1  2  1  0
  2  3  1  0
  3  4  1  0
  4  5  2  0
  4  6  1  0
  7  6  1  6
  7  8  1  0
  8  9  1  0
  9 10  1  0
 10 11  1  0
 11 12  1  0
 12 13  1  0
 13 14  1  0
 13 15  1  0
 15 16  2  0
 11 17  1  0
  3 18  2  0
 18 19  1  0
 19 20  1  0
 20 21  1  0
 21 22  2  0
 22 23  1  0
 23 24  1  0
 23 25  2  0
 25 26  1  0
 25 27  1  0
 19 28  1  0
 28 29  1  0
 29 30  2  0
 30 31  1  0
 31 32  2  0
 32 33  1  0
 33 34  2  0
 28  2  2  0
 34 29  1  0
 15  7  1  0
 27 20  2  0
 17  7  1  0
 14  9  1  0
  1 35  1  0
  1 36  1  0
  1 37  1  0
  6 38  1  0
  8 39  1  0
  8 40  1  0
  9 41  1  1
 10 42  1  0
 10 43  1  0
 11 44  1  6
 12 45  1  0
 12 46  1  0
 13 47  1  1
 14 48  1  0
 14 49  1  0
 17 50  1  0
 17 51  1  0
 18 52  1  0
 21 53  1  0
 22 54  1  0
 27 55  1  0
 30 56  1  0
 31 57  1  0
 32 58  1  0
 33 59  1  0
 34 60  1  0
M  END
>  <_SMILES>  (22) 
Cc1c(C(=O)N[C@@]23C[C@@H]4C[C@@H](C[C@@H](C4)C2=O)C3)cn(-c2ccc(F)c(Cl)c2)c1-c1ccccc1

$$$$

     RDKit          3D

 56 61  0  0  0  0  0  0  0  0999 V2000
   -0.5385    0.8006   -1.5724 O   0  0  0  0  0  0  0  0  0  0  0  0
   -0.3679    0.1039   -0.5767 C   0  0  0  0  0  0  0  0  0  0  0  0
   -1.4000   -0.3104    0.2258 N   0  0  0  0  0  0  0  0  0  0  0  0
   -2.8022    0.0254    0.0176 C   0  0  1  0  0  0  0  0  0  0  0  0
   -3.3708   -0.5472   -1.2960 C   0  0  0  0  0  0  0  0  0  0  0  0
   -4.8823   -0.2586   -1.3967 C   0  0  2  0  0  0  0  0  0  0  0  0
   -5.1194    1.2593   -1.3213 C   0  0  0  0  0  0  0  0  0  0  0  0
   -4.5909    1.8171    0.0112 C   0  0  1  0  0  0  0  0  0  0  0  0
   -5.3134    1.1230    1.1810 C   0  0  0  0  0  0  0  0  0  0  0  0
   -5.0965   -0.3925    1.1104 C   0  0  1  0  0  0  0  0  0  0  0  0
   -5.6054   -0.9487   -0.2243 C   0  0  0  0  0  0  0  0  0  0  0  0
   -3.5975   -0.6422    1.1623 C   0  0  0  0  0  0  0  0  0  0  0  0
   -3.0708   -1.3289    2.0379 O   0  0  0  0  0  0  0  0  0  0  0  0
   -3.0785    1.5389    0.1193 C   0  0  0  0  0  0  0  0  0  0  0  0
    0.9502   -0.3949   -0.1916 C   0  0  0  0  0  0  0  0  0  0  0  0
    1.9833   -0.5557   -1.0980 C   0  0  0  0  0  0  0  0  0  0  0  0
    3.0803   -1.0503   -0.4442 N   0  0  0  0  0  0  0  0  0  0  0  0
    4.3374   -1.3837   -1.1059 C   0  0  0  0  0  0  0  0  0  0  0  0
    5.1716   -0.1579   -1.3832 C   0  0  0  0  0  0  0  0  0  0  0  0
    5.8611    0.4911   -0.3480 C   0  0  0  0  0  0  0  0  0  0  0  0
    6.6302    1.6262   -0.6098 C   0  0  0  0  0  0  0  0  0  0  0  0
    6.7181    2.1261   -1.9071 C   0  0  0  0  0  0  0  0  0  0  0  0
    6.0350    1.4939   -2.9437 C   0  0  0  0  0  0  0  0  0  0  0  0
    5.2649    0.3588   -2.6843 C   0  0  0  0  0  0  0  0  0  0  0  0
    2.7936   -1.2183    0.8957 C   0  0  0  0  0  0  0  0  0  0  0  0
    3.5849   -1.6982    1.9548 C   0  0  0  0  0  0  0  0  0  0  0  0
    3.0364   -1.7224    3.2386 C   0  0  0  0  0  0  0  0  0  0  0  0
    1.7426   -1.2740    3.4663 C   0  0  0  0  0  0  0  0  0  0  0  0
    0.9586   -0.8012    2.4086 C   0  0  0  0  0  0  0  0  0  0  0  0
    1.4732   -0.7861    1.0903 C   0  0  0  0  0  0  0  0  0  0  0  0
   -1.2115   -1.0283    0.9183 H   0  0  0  0  0  0  0  0  0  0  0  0
   -2.8620   -0.1109   -2.1636 H   0  0  0  0  0  0  0  0  0  0  0  0
   -3.1987   -1.6306   -1.3456 H   0  0  0  0  0  0  0  0  0  0  0  0
   -5.2677   -0.6475   -2.3459 H   0  0  0  0  0  0  0  0  0  0  0  0
   -4.6185    1.7579   -2.1602 H   0  0  0  0  0  0  0  0  0  0  0  0
   -6.1908    1.4743   -1.4164 H   0  0  0  0  0  0  0  0  0  0  0  0
   -4.7698    2.8971    0.0580 H   0  0  0  0  0  0  0  0  0  0  0  0
   -4.9332    1.5139    2.1331 H   0  0  0  0  0  0  0  0  0  0  0  0
   -6.3859    1.3490    1.1444 H   0  0  0  0  0  0  0  0  0  0  0  0
   -5.5834   -0.8944    1.9524 H   0  0  0  0  0  0  0  0  0  0  0  0
   -6.6874   -0.7897   -0.3072 H   0  0  0  0  0  0  0  0  0  0  0  0
   -5.4335   -2.0313   -0.2714 H   0  0  0  0  0  0  0  0  0  0  0  0
   -2.5549    2.0852   -0.6740 H   0  0  0  0  0  0  0  0  0  0  0  0
   -2.6989    1.9322    1.0717 H   0  0  0  0  0  0  0  0  0  0  0  0
    2.0092   -0.3525   -2.1616 H   0  0  0  0  0  0  0  0  0  0  0  0
    4.8934   -2.0959   -0.4879 H   0  0  0  0  0  0  0  0  0  0  0  0
    4.0818   -1.9091   -2.0343 H   0  0  0  0  0  0  0  0  0  0  0  0
    5.7967    0.1235    0.6737 H   0  0  0  0  0  0  0  0  0  0  0  0
    7.1555    2.1244    0.2010 H   0  0  0  0  0  0  0  0  0  0  0  0
    7.3133    3.0128   -2.1090 H   0  0  0  0  0  0  0  0  0  0  0  0
    6.0972    1.8886   -3.9546 H   0  0  0  0  0  0  0  0  0  0  0  0
    4.7327   -0.1149   -3.5065 H   0  0  0  0  0  0  0  0  0  0  0  0
    4.6037   -2.0367    1.7972 H   0  0  0  0  0  0  0  0  0  0  0  0
    3.6342   -2.0869    4.0707 H   0  0  0  0  0  0  0  0  0  0  0  0
    1.3335   -1.2854    4.4736 H   0  0  0  0  0  0  0  0  0  0  0  0
   -0.0423   -0.4378    2.6256 H   0  0  0  0  0  0  0  0  0  0  0  0
  1  2  2  0
  2  3  1  0
  4  3  1  1
  4  5  1  0
  5  6  1  0
  6  7  1  0
  7  8  1  0
  8  9  1  0
  9 10  1  0
 10 11  1  0
 10 12  1  0
 12 13  2  0
  8 14  1  0
  2 15  1  0
 15 16  2  0
 16 17  1  0
 17 18  1  0
 18 19  1  0
 19 20  2  0
 20 21  1  0
 21 22  2  0
 22 23  1  0
 23 24  2  0
 17 25  1  0
 25 26  2  0
 26 27  1  0
 27 28  2  0
 28 29  1  0
 29 30  2  0
 12  4  1  0
 30 15  1  0
 14  4  1  0
 24 19  1  0
 30 25  1  0
 11  6  1  0
  3 31  1  0
  5 32  1  0
  5 33  1  0
  6 34  1  6
  7 35  1  0
  7 36  1  0
  8 37  1  6
  9 38  1  0
  9 39  1  0
 10 40  1  1
 11 41  1  0
 11 42  1  0
 14 43  1  0
 14 44  1  0
 16 45  1  0
 18 46  1  0
 18 47  1  0
 20 48  1  0
 21 49  1  0
 22 50  1  0
 23 51  1  0
 24 52  1  0
 26 53  1  0
 27 54  1  0
 28 55  1  0
 29 56  1  0
M  END
>  <_SMILES>  (23) 
O=C(N[C@@]12C[C@@H]3C[C@@H](C[C@@H](C3)C1=O)C2)c1cn(Cc2ccccc2)c2ccccc12

$$$$

     RDKit          3D

 66 71  0  0  0  0  0  0  0  0999 V2000
   -0.6411   -1.6612    2.8656 C   0  0  0  0  0  0  0  0  0  0  0  0
   -0.8187   -1.4532    1.3977 C   0  0  0  0  0  0  0  0  0  0  0  0
    0.1638   -0.8959    0.5104 C   0  0  0  0  0  0  0  0  0  0  0  0
    1.5201   -0.4477    0.8576 C   0  0  0  0  0  0  0  0  0  0  0  0
    2.0469   -0.7390    1.9245 O   0  0  0  0  0  0  0  0  0  0  0  0
    2.1293    0.3291   -0.1099 N   0  0  0  0  0  0  0  0  0  0  0  0
    3.3744    1.0700    0.1102 C   0  0  1  0  0  0  0  0  0  0  0  0
    3.8670    1.6204   -1.2553 C   0  0  0  0  0  0  0  0  0  0  0  0
    5.1334    2.4839   -1.0834 C   0  0  2  0  0  0  0  0  0  0  0  0
    6.2419    1.6342   -0.4473 C   0  0  0  0  0  0  0  0  0  0  0  0
    5.7814    1.1111    0.9198 C   0  0  1  0  0  0  0  0  0  0  0  0
    5.4421    2.2941    1.8457 C   0  0  0  0  0  0  0  0  0  0  0  0
    4.3594    3.1746    1.2132 C   0  0  1  0  0  0  0  0  0  0  0  0
    4.8154    3.6790   -0.1623 C   0  0  0  0  0  0  0  0  0  0  0  0
    3.1163    2.3293    0.9688 C   0  0  0  0  0  0  0  0  0  0  0  0
    1.9972    2.7033    1.3157 O   0  0  0  0  0  0  0  0  0  0  0  0
    4.5175    0.2488    0.7472 C   0  0  0  0  0  0  0  0  0  0  0  0
   -0.4173   -0.8879   -0.7475 C   0  0  0  0  0  0  0  0  0  0  0  0
   -1.6921   -1.3988   -0.6645 N   0  0  0  0  0  0  0  0  0  0  0  0
   -2.6203   -1.5762   -1.7955 C   0  0  2  0  0  0  0  0  0  0  0  0
   -1.9313   -1.8501   -3.1392 C   0  0  0  0  0  0  0  0  0  0  0  0
   -3.5940   -0.4096   -1.9048 C   0  0  0  0  0  0  0  0  0  0  0  0
   -4.9777   -0.6558   -1.8698 C   0  0  0  0  0  0  0  0  0  0  0  0
   -5.8937    0.3938   -1.9732 C   0  0  0  0  0  0  0  0  0  0  0  0
   -5.4353    1.7000   -2.1177 C   0  0  0  0  0  0  0  0  0  0  0  0
   -6.5627    2.9932   -2.2443 Cl  0  0  0  0  0  0  0  0  0  0  0  0
   -4.0692    1.9653   -2.1606 C   0  0  0  0  0  0  0  0  0  0  0  0
   -3.1526    0.9155   -2.0574 C   0  0  0  0  0  0  0  0  0  0  0  0
   -1.9529   -1.7505    0.6487 C   0  0  0  0  0  0  0  0  0  0  0  0
   -3.2211   -2.3186    1.1021 C   0  0  0  0  0  0  0  0  0  0  0  0
   -3.3976   -3.7057    1.1435 C   0  0  0  0  0  0  0  0  0  0  0  0
   -4.6118   -4.2461    1.5707 C   0  0  0  0  0  0  0  0  0  0  0  0
   -5.6514   -3.4029    1.9630 C   0  0  0  0  0  0  0  0  0  0  0  0
   -5.4770   -2.0197    1.9339 C   0  0  0  0  0  0  0  0  0  0  0  0
   -4.2631   -1.4783    1.5081 C   0  0  0  0  0  0  0  0  0  0  0  0
   -1.5670   -1.9854    3.3500 H   0  0  0  0  0  0  0  0  0  0  0  0
   -0.3263   -0.7305    3.3486 H   0  0  0  0  0  0  0  0  0  0  0  0
    0.1187   -2.4274    3.0501 H   0  0  0  0  0  0  0  0  0  0  0  0
    1.4615    0.7929   -0.7101 H   0  0  0  0  0  0  0  0  0  0  0  0
    3.0811    2.2249   -1.7287 H   0  0  0  0  0  0  0  0  0  0  0  0
    4.0737    0.7890   -1.9421 H   0  0  0  0  0  0  0  0  0  0  0  0
    5.4633    2.8517   -2.0614 H   0  0  0  0  0  0  0  0  0  0  0  0
    7.1538    2.2327   -0.3317 H   0  0  0  0  0  0  0  0  0  0  0  0
    6.4937    0.7931   -1.1048 H   0  0  0  0  0  0  0  0  0  0  0  0
    6.5775    0.5082    1.3713 H   0  0  0  0  0  0  0  0  0  0  0  0
    6.3440    2.8900    2.0315 H   0  0  0  0  0  0  0  0  0  0  0  0
    5.0992    1.9172    2.8174 H   0  0  0  0  0  0  0  0  0  0  0  0
    4.1099    4.0101    1.8749 H   0  0  0  0  0  0  0  0  0  0  0  0
    5.7025    4.3145   -0.0533 H   0  0  0  0  0  0  0  0  0  0  0  0
    4.0303    4.2955   -0.6179 H   0  0  0  0  0  0  0  0  0  0  0  0
    4.7415   -0.6289    0.1276 H   0  0  0  0  0  0  0  0  0  0  0  0
    4.2448   -0.1276    1.7376 H   0  0  0  0  0  0  0  0  0  0  0  0
   -0.0123   -0.5717   -1.6982 H   0  0  0  0  0  0  0  0  0  0  0  0
   -3.1819   -2.4900   -1.5634 H   0  0  0  0  0  0  0  0  0  0  0  0
   -1.3747   -0.9817   -3.5083 H   0  0  0  0  0  0  0  0  0  0  0  0
   -1.2313   -2.6887   -3.0557 H   0  0  0  0  0  0  0  0  0  0  0  0
   -2.6723   -2.1063   -3.9052 H   0  0  0  0  0  0  0  0  0  0  0  0
   -5.3546   -1.6700   -1.7464 H   0  0  0  0  0  0  0  0  0  0  0  0
   -6.9593    0.1846   -1.9359 H   0  0  0  0  0  0  0  0  0  0  0  0
   -3.7100    2.9852   -2.2695 H   0  0  0  0  0  0  0  0  0  0  0  0
   -2.0903    1.1466   -2.0873 H   0  0  0  0  0  0  0  0  0  0  0  0
   -2.5876   -4.3683    0.8486 H   0  0  0  0  0  0  0  0  0  0  0  0
   -4.7437   -5.3243    1.6043 H   0  0  0  0  0  0  0  0  0  0  0  0
   -6.5950   -3.8241    2.3003 H   0  0  0  0  0  0  0  0  0  0  0  0
   -6.2827   -1.3611    2.2473 H   0  0  0  0  0  0  0  0  0  0  0  0
   -4.1316   -0.3986    1.4912 H   0  0  0  0  0  0  0  0  0  0  0  0
  1  2  1  0
  2  3  1  0
  3  4  1  0
  4  5  2  0
  4  6  1  0
  7  6  1  6
  7  8  1  0
  8  9  1  0
  9 10  1  0
 10 11  1  0
 11 12  1  0
 12 13  1  0
 13 14  1  0
 13 15  1  0
 15 16  2  0
 11 17  1  0
  3 18  2  0
 18 19  1  0
 19 20  1  0
 20 21  1  0
 20 22  1  0
 22 23  1  0
 23 24  2  0
 24 25  1  0
 25 26  1  0
 25 27  2  0
 27 28  1  0
 19 29  1  0
 29 30  1  0
 30 31  2  0
 31 32  1  0
 32 33  2  0
 33 34  1  0
 34 35  2  0
 29  2  2  0
 35 30  1  0
 15  7  1  0
 28 22  2  0
 17  7  1  0
 14  9  1  0
  1 36  1  0
  1 37  1  0
  1 38  1  0
  6 39  1  0
  8 40  1  0
  8 41  1  0
  9 42  1  6
 10 43  1  0
 10 44  1  0
 11 45  1  1
 12 46  1  0
 12 47  1  0
 13 48  1  1
 14 49  1  0
 14 50  1  0
 17 51  1  0
 17 52  1  0
 18 53  1  0
 20 54  1  1
 21 55  1  0
 21 56  1  0
 21 57  1  0
 23 58  1  0
 24 59  1  0
 27 60  1  0
 28 61  1  0
 31 62  1  0
 32 63  1  0
 33 64  1  0
 34 65  1  0
 35 66  1  0
M  END
>  <_SMILES>  (24) 
Cc1c(C(=O)N[C@@]23C[C@@H]4C[C@@H](C[C@@H](C4)C2=O)C3)cn([C@H](C)c2ccc(Cl)cc2)c1-c1ccccc1

$$$$

     RDKit          3D

 66 71  0  0  0  0  0  0  0  0999 V2000
   -0.1304   -2.3665    0.7620 C   0  0  0  0  0  0  0  0  0  0  0  0
    0.7102   -1.3455    0.0697 C   0  0  0  0  0  0  0  0  0  0  0  0
    0.2494   -0.2029   -0.6706 C   0  0  0  0  0  0  0  0  0  0  0  0
   -1.1020    0.3108   -0.9038 C   0  0  0  0  0  0  0  0  0  0  0  0
   -1.4285    0.7994   -1.9787 O   0  0  0  0  0  0  0  0  0  0  0  0
   -1.9243    0.2527    0.1997 N   0  0  0  0  0  0  0  0  0  0  0  0
   -3.3694    0.4834    0.1729 C   0  0  1  0  0  0  0  0  0  0  0  0
   -3.8083    1.7526   -0.5909 C   0  0  0  0  0  0  0  0  0  0  0  0
   -5.3384    1.9201   -0.5446 C   0  0  2  0  0  0  0  0  0  0  0  0
   -5.8046    2.0227    0.9139 C   0  0  0  0  0  0  0  0  0  0  0  0
   -5.4121    0.7522    1.6802 C   0  0  1  0  0  0  0  0  0  0  0  0
   -6.0771   -0.4704    1.0174 C   0  0  0  0  0  0  0  0  0  0  0  0
   -5.6280   -0.5835   -0.4450 C   0  0  1  0  0  0  0  0  0  0  0  0
   -5.9842    0.6928   -1.2142 C   0  0  0  0  0  0  0  0  0  0  0  0
   -4.1122   -0.7360   -0.4220 C   0  0  0  0  0  0  0  0  0  0  0  0
   -3.5625   -1.7882   -0.7428 O   0  0  0  0  0  0  0  0  0  0  0  0
   -3.8802    0.5848    1.6350 C   0  0  0  0  0  0  0  0  0  0  0  0
    1.3763    0.3828   -1.2161 C   0  0  0  0  0  0  0  0  0  0  0  0
    2.4923   -0.2976   -0.7982 N   0  0  0  0  0  0  0  0  0  0  0  0
    3.8716    0.0530   -1.1773 C   0  0  1  0  0  0  0  0  0  0  0  0
    4.0963   -0.1334   -2.6828 C   0  0  0  0  0  0  0  0  0  0  0  0
    4.2502    1.4235   -0.6241 C   0  0  0  0  0  0  0  0  0  0  0  0
    4.6962    1.5214    0.7074 C   0  0  0  0  0  0  0  0  0  0  0  0
    5.0420    2.7566    1.2607 C   0  0  0  0  0  0  0  0  0  0  0  0
    4.9412    3.9107    0.4902 C   0  0  0  0  0  0  0  0  0  0  0  0
    5.3651    5.4333    1.1696 Cl  0  0  0  0  0  0  0  0  0  0  0  0
    4.4960    3.8392   -0.8268 C   0  0  0  0  0  0  0  0  0  0  0  0
    4.1505    2.6026   -1.3808 C   0  0  0  0  0  0  0  0  0  0  0  0
    2.1024   -1.3620   -0.0067 C   0  0  0  0  0  0  0  0  0  0  0  0
    3.0328   -2.3169    0.5917 C   0  0  0  0  0  0  0  0  0  0  0  0
    3.4124   -2.1807    1.9312 C   0  0  0  0  0  0  0  0  0  0  0  0
    4.3052   -3.0882    2.5034 C   0  0  0  0  0  0  0  0  0  0  0  0
    4.8169   -4.1380    1.7409 C   0  0  0  0  0  0  0  0  0  0  0  0
    4.4341   -4.2845    0.4078 C   0  0  0  0  0  0  0  0  0  0  0  0
    3.5418   -3.3774   -0.1660 C   0  0  0  0  0  0  0  0  0  0  0  0
    0.3685   -3.3401    0.7975 H   0  0  0  0  0  0  0  0  0  0  0  0
   -0.3385   -2.0524    1.7895 H   0  0  0  0  0  0  0  0  0  0  0  0
   -1.0800   -2.5136    0.2396 H   0  0  0  0  0  0  0  0  0  0  0  0
   -1.5641   -0.2805    0.9765 H   0  0  0  0  0  0  0  0  0  0  0  0
   -3.3193    2.6376   -0.1642 H   0  0  0  0  0  0  0  0  0  0  0  0
   -3.5182    1.7094   -1.6453 H   0  0  0  0  0  0  0  0  0  0  0  0
   -5.6245    2.8276   -1.0882 H   0  0  0  0  0  0  0  0  0  0  0  0
   -6.8920    2.1619    0.9506 H   0  0  0  0  0  0  0  0  0  0  0  0
   -5.3542    2.9022    1.3901 H   0  0  0  0  0  0  0  0  0  0  0  0
   -5.7430    0.8305    2.7219 H   0  0  0  0  0  0  0  0  0  0  0  0
   -5.8054   -1.3802    1.5674 H   0  0  0  0  0  0  0  0  0  0  0  0
   -7.1686   -0.3764    1.0680 H   0  0  0  0  0  0  0  0  0  0  0  0
   -6.0765   -1.4587   -0.9259 H   0  0  0  0  0  0  0  0  0  0  0  0
   -5.6398    0.6137   -2.2529 H   0  0  0  0  0  0  0  0  0  0  0  0
   -7.0735    0.8169   -1.2446 H   0  0  0  0  0  0  0  0  0  0  0  0
   -3.3985    1.4310    2.1424 H   0  0  0  0  0  0  0  0  0  0  0  0
   -3.5998   -0.3152    2.1995 H   0  0  0  0  0  0  0  0  0  0  0  0
    1.4548    1.2497   -1.8598 H   0  0  0  0  0  0  0  0  0  0  0  0
    4.5370   -0.6703   -0.6918 H   0  0  0  0  0  0  0  0  0  0  0  0
    5.1298    0.1063   -2.9555 H   0  0  0  0  0  0  0  0  0  0  0  0
    3.4343    0.4953   -3.2877 H   0  0  0  0  0  0  0  0  0  0  0  0
    3.9039   -1.1728   -2.9727 H   0  0  0  0  0  0  0  0  0  0  0  0
    4.7751    0.6288    1.3258 H   0  0  0  0  0  0  0  0  0  0  0  0
    5.3848    2.8094    2.2904 H   0  0  0  0  0  0  0  0  0  0  0  0
    4.4097    4.7407   -1.4276 H   0  0  0  0  0  0  0  0  0  0  0  0
    3.7926    2.5817   -2.4075 H   0  0  0  0  0  0  0  0  0  0  0  0
    3.0125   -1.3676    2.5322 H   0  0  0  0  0  0  0  0  0  0  0  0
    4.5980   -2.9792    3.5443 H   0  0  0  0  0  0  0  0  0  0  0  0
    5.5095   -4.8468    2.1877 H   0  0  0  0  0  0  0  0  0  0  0  0
    4.8257   -5.1080   -0.1836 H   0  0  0  0  0  0  0  0  0  0  0  0
    3.2392   -3.5036   -1.2029 H   0  0  0  0  0  0  0  0  0  0  0  0
  1  2  1  0
  2  3  1  0
  3  4  1  0
  4  5  2  0
  4  6  1  0
  7  6  1  1
  7  8  1  0
  8  9  1  0
  9 10  1  0
 10 11  1  0
 11 12  1  0
 12 13  1  0
 13 14  1  0
 13 15  1  0
 15 16  2  0
 11 17  1  0
  3 18  2  0
 18 19  1  0
 19 20  1  0
 20 21  1  0
 20 22  1  0
 22 23  1  0
 23 24  2  0
 24 25  1  0
 25 26  1  0
 25 27  2  0
 27 28  1  0
 19 29  1  0
 29 30  1  0
 30 31  2  0
 31 32  1  0
 32 33  2  0
 33 34  1  0
 34 35  2  0
 29  2  2  0
 35 30  1  0
 15  7  1  0
 28 22  2  0
 17  7  1  0
 14  9  1  0
  1 36  1  0
  1 37  1  0
  1 38  1  0
  6 39  1  0
  8 40  1  0
  8 41  1  0
  9 42  1  6
 10 43  1  0
 10 44  1  0
 11 45  1  1
 12 46  1  0
 12 47  1  0
 13 48  1  6
 14 49  1  0
 14 50  1  0
 17 51  1  0
 17 52  1  0
 18 53  1  0
 20 54  1  1
 21 55  1  0
 21 56  1  0
 21 57  1  0
 23 58  1  0
 24 59  1  0
 27 60  1  0
 28 61  1  0
 31 62  1  0
 32 63  1  0
 33 64  1  0
 34 65  1  0
 35 66  1  0
M  END
>  <_SMILES>  (25) 
Cc1c(C(=O)N[C@@]23C[C@@H]4C[C@@H](C[C@@H](C4)C2=O)C3)cn([C@@H](C)c2ccc(Cl)cc2)c1-c1ccccc1

$$$$

     RDKit          3D

 45 49  0  0  0  0  0  0  0  0999 V2000
   -0.1437    0.9838    1.4701 O   0  0  0  0  0  0  0  0  0  0  0  0
    0.1951    0.1335    0.6530 C   0  0  0  0  0  0  0  0  0  0  0  0
   -0.7311   -0.5888   -0.0861 N   0  0  0  0  0  0  0  0  0  0  0  0
   -2.1643   -0.2683   -0.1172 C   0  0  1  0  0  0  0  0  0  0  0  0
   -2.8272   -0.1038    1.2685 C   0  0  0  0  0  0  0  0  0  0  0  0
   -4.3258    0.2196    1.1224 C   0  0  2  0  0  0  0  0  0  0  0  0
   -5.0282   -0.9148    0.3645 C   0  0  0  0  0  0  0  0  0  0  0  0
   -4.4077   -1.0756   -1.0299 C   0  0  1  0  0  0  0  0  0  0  0  0
   -4.5747    0.2402   -1.8166 C   0  0  0  0  0  0  0  0  0  0  0  0
   -3.8842    1.3894   -1.0702 C   0  0  1  0  0  0  0  0  0  0  0  0
   -4.4672    1.5384    0.3391 C   0  0  0  0  0  0  0  0  0  0  0  0
   -2.4155    1.0043   -0.9571 C   0  0  0  0  0  0  0  0  0  0  0  0
   -1.5365    1.5844   -1.5925 O   0  0  0  0  0  0  0  0  0  0  0  0
   -2.9060   -1.3966   -0.8837 C   0  0  0  0  0  0  0  0  0  0  0  0
    1.5803   -0.1969    0.3723 C   0  0  0  0  0  0  0  0  0  0  0  0
    2.1366   -1.2738   -0.2853 C   0  0  0  0  0  0  0  0  0  0  0  0
    3.5140   -1.2788   -0.3810 N   0  0  0  0  0  0  0  0  0  0  0  0
    4.0221   -0.2133    0.2133 C   0  0  0  0  0  0  0  0  0  0  0  0
    5.4716    0.0730    0.2877 C   0  0  0  0  0  0  0  0  0  0  0  0
    6.3732   -0.8537   -0.2668 C   0  0  0  0  0  0  0  0  0  0  0  0
    7.7541   -0.6392   -0.2280 C   0  0  0  0  0  0  0  0  0  0  0  0
    8.2618    0.5109    0.3675 C   0  0  0  0  0  0  0  0  0  0  0  0
    7.3902    1.4438    0.9223 C   0  0  0  0  0  0  0  0  0  0  0  0
    6.0078    1.2275    0.8828 C   0  0  0  0  0  0  0  0  0  0  0  0
    2.8416    0.8289    0.9161 S   0  0  0  0  0  0  0  0  0  0  0  0
   -0.3672   -0.9319   -0.9652 H   0  0  0  0  0  0  0  0  0  0  0  0
   -2.3755    0.7092    1.8443 H   0  0  0  0  0  0  0  0  0  0  0  0
   -2.6946   -1.0184    1.8602 H   0  0  0  0  0  0  0  0  0  0  0  0
   -4.7747    0.3328    2.1157 H   0  0  0  0  0  0  0  0  0  0  0  0
   -6.0999   -0.6987    0.2757 H   0  0  0  0  0  0  0  0  0  0  0  0
   -4.9375   -1.8528    0.9258 H   0  0  0  0  0  0  0  0  0  0  0  0
   -4.9074   -1.8900   -1.5664 H   0  0  0  0  0  0  0  0  0  0  0  0
   -4.1421    0.1267   -2.8186 H   0  0  0  0  0  0  0  0  0  0  0  0
   -5.6399    0.4654   -1.9483 H   0  0  0  0  0  0  0  0  0  0  0  0
   -3.9750    2.3290   -1.6244 H   0  0  0  0  0  0  0  0  0  0  0  0
   -5.5253    1.8199    0.2754 H   0  0  0  0  0  0  0  0  0  0  0  0
   -3.9511    2.3445    0.8755 H   0  0  0  0  0  0  0  0  0  0  0  0
   -2.4684   -1.5307   -1.8826 H   0  0  0  0  0  0  0  0  0  0  0  0
   -2.7786   -2.3528   -0.3592 H   0  0  0  0  0  0  0  0  0  0  0  0
    1.5897   -2.1034   -0.7158 H   0  0  0  0  0  0  0  0  0  0  0  0
    5.9976   -1.7609   -0.7385 H   0  0  0  0  0  0  0  0  0  0  0  0
    8.4283   -1.3718   -0.6640 H   0  0  0  0  0  0  0  0  0  0  0  0
    9.3349    0.6806    0.3989 H   0  0  0  0  0  0  0  0  0  0  0  0
    7.7836    2.3444    1.3877 H   0  0  0  0  0  0  0  0  0  0  0  0
    5.3668    1.9848    1.3269 H   0  0  0  0  0  0  0  0  0  0  0  0
  1  2  2  0
  2  3  1  0
  4  3  1  1
  4  5  1  0
  5  6  1  0
  6  7  1  0
  7  8  1  0
  8  9  1  0
  9 10  1  0
 10 11  1  0
 10 12  1  0
 12 13  2  0
  8 14  1  0
  2 15  1  0
 15 16  2  0
 16 17  1  0
 17 18  2  0
 18 19  1  0
 19 20  2  0
 20 21  1  0
 21 22  2  0
 22 23  1  0
 23 24  2  0
 18 25  1  0
 12  4  1  0
 25 15  1  0
 14  4  1  0
 24 19  1  0
 11  6  1  0
  3 26  1  0
  5 27  1  0
  5 28  1  0
  6 29  1  1
  7 30  1  0
  7 31  1  0
  8 32  1  6
  9 33  1  0
  9 34  1  0
 10 35  1  6
 11 36  1  0
 11 37  1  0
 14 38  1  0
 14 39  1  0
 16 40  1  0
 20 41  1  0
 21 42  1  0
 22 43  1  0
 23 44  1  0
 24 45  1  0
M  END
>  <_SMILES>  (26) 
O=C(N[C@@]12C[C@@H]3C[C@@H](C[C@@H](C3)C1=O)C2)c1cnc(-c2ccccc2)s1

$$$$

     RDKit          3D

 63 68  0  0  0  0  0  0  0  0999 V2000
    0.9633    2.8859    1.7449 C   0  0  0  0  0  0  0  0  0  0  0  0
    1.1976    1.8436    0.7122 C   0  0  0  0  0  0  0  0  0  0  0  0
    0.2265    0.9552    0.1607 C   0  0  0  0  0  0  0  0  0  0  0  0
   -1.2125    0.8702    0.4857 C   0  0  0  0  0  0  0  0  0  0  0  0
   -1.7570    1.5963    1.3102 O   0  0  0  0  0  0  0  0  0  0  0  0
   -1.8595   -0.1076   -0.2388 N   0  0  0  0  0  0  0  0  0  0  0  0
   -3.2759   -0.4469   -0.1613 C   0  0  2  0  0  0  0  0  0  0  0  0
   -4.1722    0.7516   -0.5600 C   0  0  0  0  0  0  0  0  0  0  0  0
   -5.6582    0.3540   -0.5166 C   0  0  1  0  0  0  0  0  0  0  0  0
   -5.9045   -0.7995   -1.5020 C   0  0  0  0  0  0  0  0  0  0  0  0
   -5.0419   -2.0117   -1.1171 C   0  0  2  0  0  0  0  0  0  0  0  0
   -5.4068   -2.4652    0.3051 C   0  0  0  0  0  0  0  0  0  0  0  0
   -5.1577   -1.3215    1.3008 C   0  0  2  0  0  0  0  0  0  0  0  0
   -6.0172   -0.1085    0.9058 C   0  0  0  0  0  0  0  0  0  0  0  0
   -3.6715   -0.9244    1.2580 C   0  0  0  0  0  0  0  0  0  0  0  0
   -3.5595   -1.6070   -1.1523 C   0  0  0  0  0  0  0  0  0  0  0  0
    0.7782    0.1380   -0.7605 N   0  0  0  0  0  0  0  0  0  0  0  0
    2.0856    0.4838   -0.7731 N   0  0  0  0  0  0  0  0  0  0  0  0
    2.9896   -0.2047   -1.6916 C   0  0  0  0  0  0  0  0  0  0  0  0
    3.8111   -1.2676   -1.0031 C   0  0  0  0  0  0  0  0  0  0  0  0
    3.1944   -2.3731   -0.3974 C   0  0  0  0  0  0  0  0  0  0  0  0
    3.9593   -3.3564    0.2316 C   0  0  0  0  0  0  0  0  0  0  0  0
    5.3482   -3.2495    0.2581 C   0  0  0  0  0  0  0  0  0  0  0  0
    5.9738   -2.1606   -0.3452 C   0  0  0  0  0  0  0  0  0  0  0  0
    5.2109   -1.1762   -0.9754 C   0  0  0  0  0  0  0  0  0  0  0  0
    2.3872    1.5216    0.0775 C   0  0  0  0  0  0  0  0  0  0  0  0
    3.7174    2.0950    0.2311 C   0  0  0  0  0  0  0  0  0  0  0  0
    4.6048    1.5721    1.1775 C   0  0  0  0  0  0  0  0  0  0  0  0
    5.8820    2.1168    1.3190 C   0  0  0  0  0  0  0  0  0  0  0  0
    6.2747    3.1904    0.5207 C   0  0  0  0  0  0  0  0  0  0  0  0
    5.3907    3.7226   -0.4174 C   0  0  0  0  0  0  0  0  0  0  0  0
    4.1134    3.1779   -0.5612 C   0  0  0  0  0  0  0  0  0  0  0  0
    0.5860    2.4320    2.6669 H   0  0  0  0  0  0  0  0  0  0  0  0
    1.8805    3.4286    1.9928 H   0  0  0  0  0  0  0  0  0  0  0  0
    0.2298    3.6170    1.3900 H   0  0  0  0  0  0  0  0  0  0  0  0
   -1.2490   -0.6072   -0.8823 H   0  0  0  0  0  0  0  0  0  0  0  0
   -3.9084    1.1018   -1.5666 H   0  0  0  0  0  0  0  0  0  0  0  0
   -4.0097    1.6021    0.1127 H   0  0  0  0  0  0  0  0  0  0  0  0
   -6.2782    1.2141   -0.7930 H   0  0  0  0  0  0  0  0  0  0  0  0
   -5.6654   -0.4778   -2.5231 H   0  0  0  0  0  0  0  0  0  0  0  0
   -6.9656   -1.0775   -1.4960 H   0  0  0  0  0  0  0  0  0  0  0  0
   -5.2189   -2.8306   -1.8232 H   0  0  0  0  0  0  0  0  0  0  0  0
   -4.8097   -3.3421    0.5841 H   0  0  0  0  0  0  0  0  0  0  0  0
   -6.4594   -2.7720    0.3422 H   0  0  0  0  0  0  0  0  0  0  0  0
   -5.4229   -1.6486    2.3124 H   0  0  0  0  0  0  0  0  0  0  0  0
   -7.0808   -0.3721    0.9558 H   0  0  0  0  0  0  0  0  0  0  0  0
   -5.8586    0.7109    1.6176 H   0  0  0  0  0  0  0  0  0  0  0  0
   -3.0481   -1.7774    1.5567 H   0  0  0  0  0  0  0  0  0  0  0  0
   -3.4902   -0.1377    2.0000 H   0  0  0  0  0  0  0  0  0  0  0  0
   -3.2817   -1.3086   -2.1721 H   0  0  0  0  0  0  0  0  0  0  0  0
   -2.9331   -2.4750   -0.9065 H   0  0  0  0  0  0  0  0  0  0  0  0
    3.6194    0.5567   -2.1647 H   0  0  0  0  0  0  0  0  0  0  0  0
    2.3852   -0.6584   -2.4864 H   0  0  0  0  0  0  0  0  0  0  0  0
    2.1097   -2.4705   -0.4070 H   0  0  0  0  0  0  0  0  0  0  0  0
    3.4699   -4.2052    0.7023 H   0  0  0  0  0  0  0  0  0  0  0  0
    5.9428   -4.0152    0.7495 H   0  0  0  0  0  0  0  0  0  0  0  0
    7.0573   -2.0763   -0.3235 H   0  0  0  0  0  0  0  0  0  0  0  0
    5.7189   -0.3300   -1.4343 H   0  0  0  0  0  0  0  0  0  0  0  0
    4.3076    0.7332    1.8036 H   0  0  0  0  0  0  0  0  0  0  0  0
    6.5681    1.7036    2.0538 H   0  0  0  0  0  0  0  0  0  0  0  0
    7.2682    3.6168    0.6347 H   0  0  0  0  0  0  0  0  0  0  0  0
    5.6939    4.5655   -1.0330 H   0  0  0  0  0  0  0  0  0  0  0  0
    3.4279    3.6054   -1.2892 H   0  0  0  0  0  0  0  0  0  0  0  0
  1  2  1  0
  2  3  1  0
  3  4  1  0
  4  5  2  0
  4  6  1  0
  7  6  1  1
  7  8  1  0
  8  9  1  0
  9 10  1  0
 10 11  1  0
 11 12  1  0
 12 13  1  0
 13 14  1  0
 13 15  1  0
 11 16  1  0
  3 17  2  0
 17 18  1  0
 18 19  1  0
 19 20  1  0
 20 21  2  0
 21 22  1  0
 22 23  2  0
 23 24  1  0
 24 25  2  0
 18 26  1  0
 26 27  1  0
 27 28  2  0
 28 29  1  0
 29 30  2  0
 30 31  1  0
 31 32  2  0
 26  2  2  0
 32 27  1  0
 15  7  1  0
 25 20  1  0
 16  7  1  0
 14  9  1  0
  1 33  1  0
  1 34  1  0
  1 35  1  0
  6 36  1  0
  8 37  1  0
  8 38  1  0
  9 39  1  6
 10 40  1  0
 10 41  1  0
 11 42  1  6
 12 43  1  0
 12 44  1  0
 13 45  1  1
 14 46  1  0
 14 47  1  0
 15 48  1  0
 15 49  1  0
 16 50  1  0
 16 51  1  0
 19 52  1  0
 19 53  1  0
 21 54  1  0
 22 55  1  0
 23 56  1  0
 24 57  1  0
 25 58  1  0
 28 59  1  0
 29 60  1  0
 30 61  1  0
 31 62  1  0
 32 63  1  0
M  END
>  <_SMILES>  (27) 
Cc1c(C(=O)N[C@]23C[C@H]4C[C@H](C[C@H](C4)C2)C3)nn(Cc2ccccc2)c1-c1ccccc1

$$$$

     RDKit          3D

 27 29  0  0  0  0  0  0  0  0999 V2000
    2.8257    0.0461   -0.0713 O   0  0  0  0  0  0  0  0  0  0  0  0
    1.4059    0.0300   -0.0398 C   0  0  2  0  0  0  0  0  0  0  0  0
    0.8729    1.2618   -0.7918 C   0  0  0  0  0  0  0  0  0  0  0  0
   -0.6644    1.2669   -0.7716 C   0  0  1  0  0  0  0  0  0  0  0  0
   -1.1819   -0.0163   -1.4460 C   0  0  0  0  0  0  0  0  0  0  0  0
   -0.6587   -1.2559   -0.6985 C   0  0  2  0  0  0  0  0  0  0  0  0
   -1.1428   -1.2067    0.7620 C   0  0  0  0  0  0  0  0  0  0  0  0
   -0.6261    0.0698    1.4499 C   0  0  2  0  0  0  0  0  0  0  0  0
   -1.1495    1.3009    0.6887 C   0  0  0  0  0  0  0  0  0  0  0  0
    0.9110    0.0732    1.4171 C   0  0  0  0  0  0  0  0  0  0  0  0
    0.8786   -1.2459   -0.7206 C   0  0  0  0  0  0  0  0  0  0  0  0
    3.1444   -0.7379    0.4076 H   0  0  0  0  0  0  0  0  0  0  0  0
    1.2425    1.2622   -1.8255 H   0  0  0  0  0  0  0  0  0  0  0  0
    1.2651    2.1807   -0.3370 H   0  0  0  0  0  0  0  0  0  0  0  0
   -1.0400    2.1453   -1.3080 H   0  0  0  0  0  0  0  0  0  0  0  0
   -0.8564   -0.0459   -2.4931 H   0  0  0  0  0  0  0  0  0  0  0  0
   -2.2788   -0.0190   -1.4530 H   0  0  0  0  0  0  0  0  0  0  0  0
   -1.0311   -2.1655   -1.1824 H   0  0  0  0  0  0  0  0  0  0  0  0
   -2.2390   -1.2308    0.7935 H   0  0  0  0  0  0  0  0  0  0  0  0
   -0.7888   -2.0927    1.3033 H   0  0  0  0  0  0  0  0  0  0  0  0
   -0.9754    0.0992    2.4879 H   0  0  0  0  0  0  0  0  0  0  0  0
   -0.8007    2.2190    1.1774 H   0  0  0  0  0  0  0  0  0  0  0  0
   -2.2459    1.3208    0.7184 H   0  0  0  0  0  0  0  0  0  0  0  0
    1.3042    0.9645    1.9229 H   0  0  0  0  0  0  0  0  0  0  0  0
    1.3070   -0.7841    1.9768 H   0  0  0  0  0  0  0  0  0  0  0  0
    1.2738   -2.1360   -0.2142 H   0  0  0  0  0  0  0  0  0  0  0  0
    1.2484   -1.3034   -1.7525 H   0  0  0  0  0  0  0  0  0  0  0  0
  2  1  1  1
  2  3  1  0
  3  4  1  0
  4  5  1  0
  5  6  1  0
  6  7  1  0
  7  8  1  0
  8  9  1  0
  8 10  1  0
  6 11  1  0
 10  2  1  0
 11  2  1  0
  9  4  1  0
  1 12  1  0
  3 13  1  0
  3 14  1  0
  4 15  1  6
  5 16  1  0
  5 17  1  0
  6 18  1  6
  7 19  1  0
  7 20  1  0
  8 21  1  1
  9 22  1  0
  9 23  1  0
 10 24  1  0
 10 25  1  0
 11 26  1  0
 11 27  1  0
M  END
>  <_SMILES>  (28) 
O[C@]12C[C@H]3C[C@H](C[C@H](C3)C1)C2

$$$$

     RDKit          3D

 66 71  0  0  0  0  0  0  0  0999 V2000
   -0.5763   -2.7824    2.7279 C   0  0  0  0  0  0  0  0  0  0  0  0
   -0.9804   -2.2384    1.4059 C   0  0  0  0  0  0  0  0  0  0  0  0
   -0.1907   -1.4208    0.5443 C   0  0  0  0  0  0  0  0  0  0  0  0
    1.1671   -0.8883    0.7745 C   0  0  0  0  0  0  0  0  0  0  0  0
    1.8166   -1.1229    1.7875 O   0  0  0  0  0  0  0  0  0  0  0  0
    1.5873   -0.0744   -0.2559 N   0  0  0  0  0  0  0  0  0  0  0  0
    2.7881    0.7516   -0.2695 C   0  0  2  0  0  0  0  0  0  0  0  0
    2.7528    1.8144    0.8559 C   0  0  0  0  0  0  0  0  0  0  0  0
    4.0014    2.7113    0.7917 C   0  0  1  0  0  0  0  0  0  0  0  0
    5.2596    1.8396    0.9436 C   0  0  0  0  0  0  0  0  0  0  0  0
    5.3244    0.8013   -0.1896 C   0  0  2  0  0  0  0  0  0  0  0  0
    5.3585    1.5290   -1.5426 C   0  0  0  0  0  0  0  0  0  0  0  0
    4.0995    2.3951   -1.7042 C   0  0  2  0  0  0  0  0  0  0  0  0
    4.0422    3.4279   -0.5675 C   0  0  0  0  0  0  0  0  0  0  0  0
    2.8561    1.4949   -1.6303 C   0  0  0  0  0  0  0  0  0  0  0  0
    4.0758   -0.0964   -0.1252 C   0  0  0  0  0  0  0  0  0  0  0  0
   -0.8582   -1.1229   -0.5874 N   0  0  0  0  0  0  0  0  0  0  0  0
   -2.0729   -1.6748   -0.4170 N   0  0  0  0  0  0  0  0  0  0  0  0
   -3.0936   -1.4241   -1.4233 C   0  0  0  0  0  0  0  0  0  0  0  0
   -3.9427   -0.1867   -1.1161 C   0  0  0  0  0  0  0  0  0  0  0  0
   -3.1992    1.1237   -1.2760 C   0  0  0  0  0  0  0  0  0  0  0  0
   -2.6455    1.7227   -0.1290 C   0  0  0  0  0  0  0  0  0  0  0  0
   -1.9142    2.9085   -0.2158 C   0  0  0  0  0  0  0  0  0  0  0  0
   -1.7261    3.5205   -1.4504 C   0  0  0  0  0  0  0  0  0  0  0  0
   -2.2682    2.9452   -2.5986 C   0  0  0  0  0  0  0  0  0  0  0  0
   -2.9982    1.7536   -2.5155 C   0  0  0  0  0  0  0  0  0  0  0  0
   -3.6889    1.0499   -4.1401 Br  0  0  0  0  0  0  0  0  0  0  0  0
   -2.1937   -2.3909    0.7496 C   0  0  0  0  0  0  0  0  0  0  0  0
   -3.4025   -3.0929    1.1613 C   0  0  0  0  0  0  0  0  0  0  0  0
   -3.7089   -4.3477    0.6233 C   0  0  0  0  0  0  0  0  0  0  0  0
   -4.8705   -5.0154    1.0151 C   0  0  0  0  0  0  0  0  0  0  0  0
   -5.7276   -4.4346    1.9491 C   0  0  0  0  0  0  0  0  0  0  0  0
   -5.4228   -3.1887    2.4960 C   0  0  0  0  0  0  0  0  0  0  0  0
   -4.2614   -2.5200    2.1056 C   0  0  0  0  0  0  0  0  0  0  0  0
   -1.3342   -3.4548    3.1411 H   0  0  0  0  0  0  0  0  0  0  0  0
   -0.4230   -1.9683    3.4435 H   0  0  0  0  0  0  0  0  0  0  0  0
    0.3556   -3.3502    2.6404 H   0  0  0  0  0  0  0  0  0  0  0  0
    0.8673    0.0721   -0.9628 H   0  0  0  0  0  0  0  0  0  0  0  0
    1.8469    2.4286    0.7672 H   0  0  0  0  0  0  0  0  0  0  0  0
    2.7032    1.3355    1.8414 H   0  0  0  0  0  0  0  0  0  0  0  0
    3.9652    3.4520    1.5984 H   0  0  0  0  0  0  0  0  0  0  0  0
    5.2491    1.3327    1.9163 H   0  0  0  0  0  0  0  0  0  0  0  0
    6.1564    2.4711    0.9234 H   0  0  0  0  0  0  0  0  0  0  0  0
    6.2255    0.1880   -0.0777 H   0  0  0  0  0  0  0  0  0  0  0  0
    6.2559    2.1563   -1.6085 H   0  0  0  0  0  0  0  0  0  0  0  0
    5.4193    0.7993   -2.3594 H   0  0  0  0  0  0  0  0  0  0  0  0
    4.1266    2.9103   -2.6708 H   0  0  0  0  0  0  0  0  0  0  0  0
    3.1559    4.0638   -0.6828 H   0  0  0  0  0  0  0  0  0  0  0  0
    4.9167    4.0883   -0.6168 H   0  0  0  0  0  0  0  0  0  0  0  0
    2.8727    0.7705   -2.4556 H   0  0  0  0  0  0  0  0  0  0  0  0
    1.9521    2.1019   -1.7746 H   0  0  0  0  0  0  0  0  0  0  0  0
    4.0810   -0.6445    0.8241 H   0  0  0  0  0  0  0  0  0  0  0  0
    4.1192   -0.8549   -0.9179 H   0  0  0  0  0  0  0  0  0  0  0  0
   -2.5838   -1.3441   -2.3901 H   0  0  0  0  0  0  0  0  0  0  0  0
   -3.7324   -2.3115   -1.4746 H   0  0  0  0  0  0  0  0  0  0  0  0
   -4.8278   -0.1810   -1.7630 H   0  0  0  0  0  0  0  0  0  0  0  0
   -4.3453   -0.2504   -0.0968 H   0  0  0  0  0  0  0  0  0  0  0  0
   -2.7629    1.2530    0.8462 H   0  0  0  0  0  0  0  0  0  0  0  0
   -1.4863    3.3481    0.6818 H   0  0  0  0  0  0  0  0  0  0  0  0
   -1.1558    4.4431   -1.5202 H   0  0  0  0  0  0  0  0  0  0  0  0
   -2.1128    3.4327   -3.5579 H   0  0  0  0  0  0  0  0  0  0  0  0
   -3.0413   -4.8143   -0.0976 H   0  0  0  0  0  0  0  0  0  0  0  0
   -5.1034   -5.9910    0.5962 H   0  0  0  0  0  0  0  0  0  0  0  0
   -6.6303   -4.9569    2.2565 H   0  0  0  0  0  0  0  0  0  0  0  0
   -6.0871   -2.7401    3.2303 H   0  0  0  0  0  0  0  0  0  0  0  0
   -4.0294   -1.5517    2.5430 H   0  0  0  0  0  0  0  0  0  0  0  0
  1  2  1  0
  2  3  1  0
  3  4  1  0
  4  5  2  0
  4  6  1  0
  7  6  1  6
  7  8  1  0
  8  9  1  0
  9 10  1  0
 10 11  1  0
 11 12  1  0
 12 13  1  0
 13 14  1  0
 13 15  1  0
 11 16  1  0
  3 17  2  0
 17 18  1  0
 18 19  1  0
 19 20  1  0
 20 21  1  0
 21 22  2  0
 22 23  1  0
 23 24  2  0
 24 25  1  0
 25 26  2  0
 26 27  1  0
 18 28  1  0
 28 29  1  0
 29 30  2  0
 30 31  1  0
 31 32  2  0
 32 33  1  0
 33 34  2  0
 28  2  2  0
 34 29  1  0
 15  7  1  0
 26 21  1  0
 16  7  1  0
 14  9  1  0
  1 35  1  0
  1 36  1  0
  1 37  1  0
  6 38  1  0
  8 39  1  0
  8 40  1  0
  9 41  1  1
 10 42  1  0
 10 43  1  0
 11 44  1  1
 12 45  1  0
 12 46  1  0
 13 47  1  6
 14 48  1  0
 14 49  1  0
 15 50  1  0
 15 51  1  0
 16 52  1  0
 16 53  1  0
 19 54  1  0
 19 55  1  0
 20 56  1  0
 20 57  1  0
 22 58  1  0
 23 59  1  0
 24 60  1  0
 25 61  1  0
 30 62  1  0
 31 63  1  0
 32 64  1  0
 33 65  1  0
 34 66  1  0
M  END
>  <_SMILES>  (29) 
Cc1c(C(=O)N[C@]23C[C@H]4C[C@H](C[C@H](C4)C2)C3)nn(CCc2ccccc2Br)c1-c1ccccc1

$$$$

     RDKit          3D

 45 49  0  0  0  0  0  0  0  0999 V2000
    0.3036    0.0473   -1.3639 O   0  0  0  0  0  0  0  0  0  0  0  0
    0.4976   -0.0266   -0.1534 C   0  0  0  0  0  0  0  0  0  0  0  0
   -0.5296    0.0118    0.7766 N   0  0  0  0  0  0  0  0  0  0  0  0
   -1.9557    0.1417    0.4708 C   0  0  2  0  0  0  0  0  0  0  0  0
   -2.2655    1.4699   -0.2636 C   0  0  0  0  0  0  0  0  0  0  0  0
   -3.7760    1.6035   -0.5267 C   0  0  1  0  0  0  0  0  0  0  0  0
   -4.2477    0.4161   -1.3833 C   0  0  0  0  0  0  0  0  0  0  0  0
   -3.9790   -0.9078   -0.6474 C   0  0  2  0  0  0  0  0  0  0  0  0
   -4.7301   -0.9040    0.6932 C   0  0  0  0  0  0  0  0  0  0  0  0
   -4.2561    0.2754    1.5566 C   0  0  2  0  0  0  0  0  0  0  0  0
   -4.5283    1.5924    0.8132 C   0  0  0  0  0  0  0  0  0  0  0  0
   -2.7457    0.1413    1.8076 C   0  0  0  0  0  0  0  0  0  0  0  0
   -2.4687   -1.0436   -0.3844 C   0  0  0  0  0  0  0  0  0  0  0  0
    1.8138   -0.1615    0.4404 C   0  0  0  0  0  0  0  0  0  0  0  0
    2.0852   -0.2455    1.7297 N   0  0  0  0  0  0  0  0  0  0  0  0
    3.4573   -0.3611    1.8257 N   0  0  0  0  0  0  0  0  0  0  0  0
    3.9256   -0.3397    0.5928 C   0  0  0  0  0  0  0  0  0  0  0  0
    5.2984   -0.4275    0.1111 C   0  0  0  0  0  0  0  0  0  0  0  0
    5.6077   -0.3867   -1.2613 C   0  0  0  0  0  0  0  0  0  0  0  0
    6.9338   -0.4728   -1.6995 C   0  0  0  0  0  0  0  0  0  0  0  0
    7.9568   -0.6002   -0.7679 C   0  0  0  0  0  0  0  0  0  0  0  0
    9.2253   -0.6825   -1.1906 F   0  0  0  0  0  0  0  0  0  0  0  0
    7.6657   -0.6418    0.5891 C   0  0  0  0  0  0  0  0  0  0  0  0
    8.6532   -0.7647    1.4864 F   0  0  0  0  0  0  0  0  0  0  0  0
    6.3486   -0.5567    1.0336 C   0  0  0  0  0  0  0  0  0  0  0  0
    2.9349   -0.2144   -0.3453 O   0  0  0  0  0  0  0  0  0  0  0  0
   -0.2498   -0.0577    1.7512 H   0  0  0  0  0  0  0  0  0  0  0  0
   -1.7315    1.5236   -1.2195 H   0  0  0  0  0  0  0  0  0  0  0  0
   -1.9134    2.3218    0.3328 H   0  0  0  0  0  0  0  0  0  0  0  0
   -3.9765    2.5426   -1.0546 H   0  0  0  0  0  0  0  0  0  0  0  0
   -3.7274    0.4204   -2.3490 H   0  0  0  0  0  0  0  0  0  0  0  0
   -5.3189    0.5130   -1.5987 H   0  0  0  0  0  0  0  0  0  0  0  0
   -4.3233   -1.7479   -1.2608 H   0  0  0  0  0  0  0  0  0  0  0  0
   -5.8103   -0.8298    0.5176 H   0  0  0  0  0  0  0  0  0  0  0  0
   -4.5578   -1.8494    1.2222 H   0  0  0  0  0  0  0  0  0  0  0  0
   -4.7919    0.2728    2.5123 H   0  0  0  0  0  0  0  0  0  0  0  0
   -4.2108    2.4432    1.4286 H   0  0  0  0  0  0  0  0  0  0  0  0
   -5.6051    1.7093    0.6396 H   0  0  0  0  0  0  0  0  0  0  0  0
   -2.5443   -0.7837    2.3645 H   0  0  0  0  0  0  0  0  0  0  0  0
   -2.4030    0.9647    2.4486 H   0  0  0  0  0  0  0  0  0  0  0  0
   -1.9428   -1.0908   -1.3451 H   0  0  0  0  0  0  0  0  0  0  0  0
   -2.2622   -1.9938    0.1253 H   0  0  0  0  0  0  0  0  0  0  0  0
    4.8180   -0.2871   -2.0053 H   0  0  0  0  0  0  0  0  0  0  0  0
    7.1716   -0.4412   -2.7587 H   0  0  0  0  0  0  0  0  0  0  0  0
    6.1541   -0.5923    2.1032 H   0  0  0  0  0  0  0  0  0  0  0  0
  1  2  2  0
  2  3  1  0
  4  3  1  1
  4  5  1  0
  5  6  1  0
  6  7  1  0
  7  8  1  0
  8  9  1  0
  9 10  1  0
 10 11  1  0
 10 12  1  0
  8 13  1  0
  2 14  1  0
 14 15  2  0
 15 16  1  0
 16 17  2  0
 17 18  1  0
 18 19  1  0
 19 20  2  0
 20 21  1  0
 21 22  1  0
 21 23  2  0
 23 24  1  0
 23 25  1  0
 17 26  1  0
 12  4  1  0
 26 14  1  0
 13  4  1  0
 25 18  2  0
 11  6  1  0
  3 27  1  0
  5 28  1  0
  5 29  1  0
  6 30  1  6
  7 31  1  0
  7 32  1  0
  8 33  1  6
  9 34  1  0
  9 35  1  0
 10 36  1  1
 11 37  1  0
 11 38  1  0
 12 39  1  0
 12 40  1  0
 13 41  1  0
 13 42  1  0
 19 43  1  0
 20 44  1  0
 25 45  1  0
M  END
>  <_SMILES>  (30) 
O=C(N[C@]12C[C@H]3C[C@H](C[C@H](C3)C1)C2)c1nnc(-c2ccc(F)c(F)c2)o1

$$$$

     RDKit          3D

 54 58  0  0  0  0  0  0  0  0999 V2000
   -0.4760    0.5705   -3.3644 O   0  0  0  0  0  0  0  0  0  0  0  0
   -0.2179    0.2608   -2.2078 C   0  0  0  0  0  0  0  0  0  0  0  0
    1.1943    0.1739   -1.7682 C   0  0  0  0  0  0  0  0  0  0  0  0
    1.5956    0.4319   -0.5138 C   0  0  0  0  0  0  0  0  0  0  0  0
    2.9411    0.3935   -0.0308 C   0  0  0  0  0  0  0  0  0  0  0  0
    4.1182    0.1607   -0.7848 C   0  0  0  0  0  0  0  0  0  0  0  0
    5.1677    0.2096    0.1140 C   0  0  0  0  0  0  0  0  0  0  0  0
    6.6093    0.0579   -0.0670 C   0  0  0  0  0  0  0  0  0  0  0  0
    7.4136   -0.4982    0.9410 C   0  0  0  0  0  0  0  0  0  0  0  0
    8.7918   -0.6377    0.7544 C   0  0  0  0  0  0  0  0  0  0  0  0
    9.3686   -0.2238   -0.4393 C   0  0  0  0  0  0  0  0  0  0  0  0
   10.6891   -0.3581   -0.6161 F   0  0  0  0  0  0  0  0  0  0  0  0
    8.5935    0.3248   -1.4520 C   0  0  0  0  0  0  0  0  0  0  0  0
    7.2155    0.4634   -1.2668 C   0  0  0  0  0  0  0  0  0  0  0  0
    4.5703    0.4831    1.3168 N   0  0  0  0  0  0  0  0  0  0  0  0
    3.2334    0.5833    1.2605 N   0  0  0  0  0  0  0  0  0  0  0  0
   -1.1515   -0.0949   -1.2674 N   0  0  0  0  0  0  0  0  0  0  0  0
   -2.5534   -0.2078   -1.6199 C   0  0  0  0  0  0  0  0  0  0  0  0
   -3.5084   -0.1445   -0.4098 C   0  0  2  0  0  0  0  0  0  0  0  0
   -3.2953   -1.3402    0.5544 C   0  0  0  0  0  0  0  0  0  0  0  0
   -4.2886   -1.2746    1.7285 C   0  0  1  0  0  0  0  0  0  0  0  0
   -4.0792    0.0421    2.4949 C   0  0  0  0  0  0  0  0  0  0  0  0
   -4.3172    1.2400    1.5606 C   0  0  2  0  0  0  0  0  0  0  0  0
   -5.7532    1.1803    1.0159 C   0  0  0  0  0  0  0  0  0  0  0  0
   -5.9684   -0.1309    0.2435 C   0  0  2  0  0  0  0  0  0  0  0  0
   -5.7246   -1.3216    1.1836 C   0  0  0  0  0  0  0  0  0  0  0  0
   -4.9719   -0.1981   -0.9256 C   0  0  0  0  0  0  0  0  0  0  0  0
   -3.3243    1.1726    0.3866 C   0  0  0  0  0  0  0  0  0  0  0  0
    1.8893   -0.0512   -2.5686 H   0  0  0  0  0  0  0  0  0  0  0  0
    0.8583    0.7151    0.2339 H   0  0  0  0  0  0  0  0  0  0  0  0
    4.1987   -0.0277   -1.8460 H   0  0  0  0  0  0  0  0  0  0  0  0
    6.9807   -0.8505    1.8739 H   0  0  0  0  0  0  0  0  0  0  0  0
    9.4161   -1.0720    1.5290 H   0  0  0  0  0  0  0  0  0  0  0  0
    9.0633    0.6422   -2.3775 H   0  0  0  0  0  0  0  0  0  0  0  0
    6.6225    0.9029   -2.0658 H   0  0  0  0  0  0  0  0  0  0  0  0
    5.0209    0.6256    2.2136 H   0  0  0  0  0  0  0  0  0  0  0  0
   -0.8264   -0.5874   -0.4470 H   0  0  0  0  0  0  0  0  0  0  0  0
   -2.6718   -1.1587   -2.1535 H   0  0  0  0  0  0  0  0  0  0  0  0
   -2.7949    0.5910   -2.3320 H   0  0  0  0  0  0  0  0  0  0  0  0
   -2.2744   -1.3408    0.9545 H   0  0  0  0  0  0  0  0  0  0  0  0
   -3.4233   -2.2876    0.0152 H   0  0  0  0  0  0  0  0  0  0  0  0
   -4.1211   -2.1236    2.4007 H   0  0  0  0  0  0  0  0  0  0  0  0
   -3.0616    0.0810    2.9027 H   0  0  0  0  0  0  0  0  0  0  0  0
   -4.7661    0.0913    3.3487 H   0  0  0  0  0  0  0  0  0  0  0  0
   -4.1709    2.1745    2.1138 H   0  0  0  0  0  0  0  0  0  0  0  0
   -6.4706    1.2500    1.8428 H   0  0  0  0  0  0  0  0  0  0  0  0
   -5.9409    2.0382    0.3586 H   0  0  0  0  0  0  0  0  0  0  0  0
   -6.9934   -0.1685   -0.1421 H   0  0  0  0  0  0  0  0  0  0  0  0
   -5.8915   -2.2637    0.6471 H   0  0  0  0  0  0  0  0  0  0  0  0
   -6.4414   -1.2967    2.0135 H   0  0  0  0  0  0  0  0  0  0  0  0
   -5.1608    0.6354   -1.6147 H   0  0  0  0  0  0  0  0  0  0  0  0
   -5.1374   -1.1210   -1.4966 H   0  0  0  0  0  0  0  0  0  0  0  0
   -2.3015    1.2474    0.7769 H   0  0  0  0  0  0  0  0  0  0  0  0
   -3.4740    2.0370   -0.2731 H   0  0  0  0  0  0  0  0  0  0  0  0
  1  2  2  0
  2  3  1  0
  3  4  2  0
  4  5  1  0
  5  6  1  0
  6  7  2  0
  7  8  1  0
  8  9  1  0
  9 10  2  0
 10 11  1  0
 11 12  1  0
 11 13  2  0
 13 14  1  0
  7 15  1  0
 15 16  1  0
  2 17  1  0
 17 18  1  0
 19 18  1  6
 19 20  1  0
 20 21  1  0
 21 22  1  0
 22 23  1  0
 23 24  1  0
 24 25  1  0
 25 26  1  0
 25 27  1  0
 23 28  1  0
 16  5  2  0
 27 19  1  0
 14  8  2  0
 28 19  1  0
 26 21  1  0
  3 29  1  0
  4 30  1  0
  6 31  1  0
  9 32  1  0
 10 33  1  0
 13 34  1  0
 14 35  1  0
 15 36  1  0
 17 37  1  0
 18 38  1  0
 18 39  1  0
 20 40  1  0
 20 41  1  0
 21 42  1  1
 22 43  1  0
 22 44  1  0
 23 45  1  1
 24 46  1  0
 24 47  1  0
 25 48  1  6
 26 49  1  0
 26 50  1  0
 27 51  1  0
 27 52  1  0
 28 53  1  0
 28 54  1  0
M  END
>  <_SMILES>  (31) 
O=C(/C=C/c1cc(-c2ccc(F)cc2)[nH]n1)NC[C@]12C[C@H]3C[C@H](C[C@H](C3)C1)C2

$$$$

     RDKit          3D

 54 58  0  0  0  0  0  0  0  0999 V2000
   -0.6199    2.0794    1.8312 O   0  0  0  0  0  0  0  0  0  0  0  0
   -0.2420    1.6934    0.7331 C   0  0  0  0  0  0  0  0  0  0  0  0
    1.1398    1.2075    0.4904 C   0  0  0  0  0  0  0  0  0  0  0  0
    2.0107    1.1767    1.5100 C   0  0  0  0  0  0  0  0  0  0  0  0
    3.3382    0.7216    1.3330 C   0  0  0  0  0  0  0  0  0  0  0  0
    4.0999    0.2388    0.2906 C   0  0  0  0  0  0  0  0  0  0  0  0
    5.3897   -0.0361    0.8301 C   0  0  0  0  0  0  0  0  0  0  0  0
    6.5754   -0.5676    0.1430 C   0  0  0  0  0  0  0  0  0  0  0  0
    6.5509   -0.8706   -1.2288 C   0  0  0  0  0  0  0  0  0  0  0  0
    7.6879   -1.3759   -1.8683 C   0  0  0  0  0  0  0  0  0  0  0  0
    8.8531   -1.5804   -1.1405 C   0  0  0  0  0  0  0  0  0  0  0  0
    9.9394   -2.0643   -1.7563 F   0  0  0  0  0  0  0  0  0  0  0  0
    8.9054   -1.2897    0.2153 C   0  0  0  0  0  0  0  0  0  0  0  0
    7.7696   -0.7848    0.8543 C   0  0  0  0  0  0  0  0  0  0  0  0
    5.4131    0.2645    2.1391 N   0  0  0  0  0  0  0  0  0  0  0  0
    4.1795    0.7136    2.4115 N   0  0  0  0  0  0  0  0  0  0  0  0
   -1.0272    1.6529   -0.3924 N   0  0  0  0  0  0  0  0  0  0  0  0
   -2.4199    2.0591   -0.3786 C   0  0  0  0  0  0  0  0  0  0  0  0
   -3.4138    0.8786   -0.3070 C   0  0  2  0  0  0  0  0  0  0  0  0
   -3.2394   -0.0826   -1.5114 C   0  0  0  0  0  0  0  0  0  0  0  0
   -4.2713   -1.2230   -1.4506 C   0  0  1  0  0  0  0  0  0  0  0  0
   -4.0818   -2.0083   -0.1424 C   0  0  0  0  0  0  0  0  0  0  0  0
   -4.2811   -1.0771    1.0649 C   0  0  2  0  0  0  0  0  0  0  0  0
   -5.6979   -0.4839    1.0194 C   0  0  0  0  0  0  0  0  0  0  0  0
   -5.8943    0.3073   -0.2831 C   0  0  2  0  0  0  0  0  0  0  0  0
   -5.6883   -0.6290   -1.4843 C   0  0  0  0  0  0  0  0  0  0  0  0
   -4.8597    1.4430   -0.3447 C   0  0  0  0  0  0  0  0  0  0  0  0
   -3.2487    0.0626    1.0005 C   0  0  0  0  0  0  0  0  0  0  0  0
    1.4021    0.8907   -0.5094 H   0  0  0  0  0  0  0  0  0  0  0  0
    1.6892    1.5088    2.4971 H   0  0  0  0  0  0  0  0  0  0  0  0
    3.7729    0.1003   -0.7289 H   0  0  0  0  0  0  0  0  0  0  0  0
    5.6538   -0.7200   -1.8220 H   0  0  0  0  0  0  0  0  0  0  0  0
    7.6702   -1.6102   -2.9279 H   0  0  0  0  0  0  0  0  0  0  0  0
    9.8236   -1.4551    0.7693 H   0  0  0  0  0  0  0  0  0  0  0  0
    7.8207   -0.5597    1.9184 H   0  0  0  0  0  0  0  0  0  0  0  0
    3.9779    1.0009    3.3633 H   0  0  0  0  0  0  0  0  0  0  0  0
   -0.6470    1.3071   -1.2620 H   0  0  0  0  0  0  0  0  0  0  0  0
   -2.5801    2.6290   -1.3013 H   0  0  0  0  0  0  0  0  0  0  0  0
   -2.5875    2.7459    0.4594 H   0  0  0  0  0  0  0  0  0  0  0  0
   -3.3539    0.4680   -2.4539 H   0  0  0  0  0  0  0  0  0  0  0  0
   -2.2303   -0.5131   -1.5179 H   0  0  0  0  0  0  0  0  0  0  0  0
   -4.1314   -1.8925   -2.3067 H   0  0  0  0  0  0  0  0  0  0  0  0
   -4.7976   -2.8384   -0.0970 H   0  0  0  0  0  0  0  0  0  0  0  0
   -3.0787   -2.4513   -0.1128 H   0  0  0  0  0  0  0  0  0  0  0  0
   -4.1477   -1.6432    1.9936 H   0  0  0  0  0  0  0  0  0  0  0  0
   -5.8581    0.1713    1.8845 H   0  0  0  0  0  0  0  0  0  0  0  0
   -6.4426   -1.2867    1.0860 H   0  0  0  0  0  0  0  0  0  0  0  0
   -6.9060    0.7273   -0.3113 H   0  0  0  0  0  0  0  0  0  0  0  0
   -5.8419   -0.0781   -2.4203 H   0  0  0  0  0  0  0  0  0  0  0  0
   -6.4328   -1.4344   -1.4632 H   0  0  0  0  0  0  0  0  0  0  0  0
   -5.0130    2.0283   -1.2607 H   0  0  0  0  0  0  0  0  0  0  0  0
   -5.0190    2.1297    0.4969 H   0  0  0  0  0  0  0  0  0  0  0  0
   -3.3680    0.7179    1.8728 H   0  0  0  0  0  0  0  0  0  0  0  0
   -2.2418   -0.3679    1.0624 H   0  0  0  0  0  0  0  0  0  0  0  0
  1  2  2  0
  2  3  1  0
  3  4  2  0
  4  5  1  0
  5  6  2  0
  6  7  1  0
  7  8  1  0
  8  9  1  0
  9 10  2  0
 10 11  1  0
 11 12  1  0
 11 13  2  0
 13 14  1  0
  7 15  2  0
 15 16  1  0
  2 17  1  0
 17 18  1  0
 19 18  1  6
 19 20  1  0
 20 21  1  0
 21 22  1  0
 22 23  1  0
 23 24  1  0
 24 25  1  0
 25 26  1  0
 25 27  1  0
 23 28  1  0
 16  5  1  0
 27 19  1  0
 14  8  2  0
 28 19  1  0
 26 21  1  0
  3 29  1  0
  4 30  1  0
  6 31  1  0
  9 32  1  0
 10 33  1  0
 13 34  1  0
 14 35  1  0
 16 36  1  0
 17 37  1  0
 18 38  1  0
 18 39  1  0
 20 40  1  0
 20 41  1  0
 21 42  1  6
 22 43  1  0
 22 44  1  0
 23 45  1  1
 24 46  1  0
 24 47  1  0
 25 48  1  1
 26 49  1  0
 26 50  1  0
 27 51  1  0
 27 52  1  0
 28 53  1  0
 28 54  1  0
M  END
>  <_SMILES>  (32) 
O=C(/C=C/c1cc(-c2ccc(F)cc2)n[nH]1)NC[C@]12C[C@H]3C[C@H](C[C@H](C3)C1)C2

$$$$

     RDKit          3D

 54 58  0  0  0  0  0  0  0  0999 V2000
   -0.3178   -4.2986   -2.7833 O   0  0  0  0  0  0  0  0  0  0  0  0
    0.2350   -3.4987   -2.0310 C   0  0  0  0  0  0  0  0  0  0  0  0
    1.6582   -3.7378   -1.6721 C   0  0  0  0  0  0  0  0  0  0  0  0
    2.5762   -3.0901   -0.9370 C   0  0  0  0  0  0  0  0  0  0  0  0
    2.5072   -1.8835   -0.1748 C   0  0  0  0  0  0  0  0  0  0  0  0
    3.6480   -1.2362    0.3678 C   0  0  0  0  0  0  0  0  0  0  0  0
    3.1813   -0.1294    1.0505 C   0  0  0  0  0  0  0  0  0  0  0  0
    3.8746    0.9180    1.7957 C   0  0  0  0  0  0  0  0  0  0  0  0
    3.2781    1.5352    2.9073 C   0  0  0  0  0  0  0  0  0  0  0  0
    3.9528    2.5370    3.6108 C   0  0  0  0  0  0  0  0  0  0  0  0
    5.2242    2.9228    3.2065 C   0  0  0  0  0  0  0  0  0  0  0  0
    5.8689    3.8829    3.8815 F   0  0  0  0  0  0  0  0  0  0  0  0
    5.8361    2.3242    2.1136 C   0  0  0  0  0  0  0  0  0  0  0  0
    5.1630    1.3216    1.4106 C   0  0  0  0  0  0  0  0  0  0  0  0
    1.8245   -0.1706    0.8690 N   0  0  0  0  0  0  0  0  0  0  0  0
    1.3934   -1.2200    0.1492 N   0  0  0  0  0  0  0  0  0  0  0  0
   -0.3890   -2.4090   -1.5075 N   0  0  0  0  0  0  0  0  0  0  0  0
   -1.7934   -2.1610   -1.7511 C   0  0  0  0  0  0  0  0  0  0  0  0
   -2.3074   -0.7931   -1.2575 C   0  0  2  0  0  0  0  0  0  0  0  0
   -3.7830   -0.6212   -1.7135 C   0  0  0  0  0  0  0  0  0  0  0  0
   -4.3490    0.7301   -1.2449 C   0  0  1  0  0  0  0  0  0  0  0  0
   -4.2874    0.7999    0.2889 C   0  0  0  0  0  0  0  0  0  0  0  0
   -2.8323    0.6563    0.7621 C   0  0  2  0  0  0  0  0  0  0  0  0
   -1.9876    1.7903    0.1582 C   0  0  0  0  0  0  0  0  0  0  0  0
   -2.0426    1.7302   -1.3773 C   0  0  2  0  0  0  0  0  0  0  0  0
   -3.5020    1.8663   -1.8393 C   0  0  0  0  0  0  0  0  0  0  0  0
   -1.4837    0.3773   -1.8518 C   0  0  0  0  0  0  0  0  0  0  0  0
   -2.2774   -0.6988    0.2891 C   0  0  0  0  0  0  0  0  0  0  0  0
    1.9974   -4.6553   -2.1545 H   0  0  0  0  0  0  0  0  0  0  0  0
    3.5558   -3.5677   -0.9208 H   0  0  0  0  0  0  0  0  0  0  0  0
    4.6805   -1.5454    0.2796 H   0  0  0  0  0  0  0  0  0  0  0  0
    2.2938    1.2334    3.2566 H   0  0  0  0  0  0  0  0  0  0  0  0
    3.4975    3.0128    4.4738 H   0  0  0  0  0  0  0  0  0  0  0  0
    6.8303    2.6401    1.8138 H   0  0  0  0  0  0  0  0  0  0  0  0
    5.6518    0.8681    0.5512 H   0  0  0  0  0  0  0  0  0  0  0  0
    1.1365    0.4955    1.2025 H   0  0  0  0  0  0  0  0  0  0  0  0
    0.1139   -1.8675   -0.8025 H   0  0  0  0  0  0  0  0  0  0  0  0
   -2.3538   -2.9744   -1.2735 H   0  0  0  0  0  0  0  0  0  0  0  0
   -1.9597   -2.2564   -2.8318 H   0  0  0  0  0  0  0  0  0  0  0  0
   -4.3997   -1.4363   -1.3127 H   0  0  0  0  0  0  0  0  0  0  0  0
   -3.8507   -0.6855   -2.8074 H   0  0  0  0  0  0  0  0  0  0  0  0
   -5.3881    0.8309   -1.5778 H   0  0  0  0  0  0  0  0  0  0  0  0
   -4.9042    0.0049    0.7258 H   0  0  0  0  0  0  0  0  0  0  0  0
   -4.7028    1.7532    0.6380 H   0  0  0  0  0  0  0  0  0  0  0  0
   -2.7933    0.7089    1.8559 H   0  0  0  0  0  0  0  0  0  0  0  0
   -0.9488    1.7075    0.4999 H   0  0  0  0  0  0  0  0  0  0  0  0
   -2.3606    2.7609    0.5076 H   0  0  0  0  0  0  0  0  0  0  0  0
   -1.4442    2.5448   -1.8005 H   0  0  0  0  0  0  0  0  0  0  0  0
   -3.5529    1.8387   -2.9347 H   0  0  0  0  0  0  0  0  0  0  0  0
   -3.9050    2.8373   -1.5263 H   0  0  0  0  0  0  0  0  0  0  0  0
   -0.4313    0.3037   -1.5545 H   0  0  0  0  0  0  0  0  0  0  0  0
   -1.5036    0.3338   -2.9484 H   0  0  0  0  0  0  0  0  0  0  0  0
   -2.8696   -1.5120    0.7284 H   0  0  0  0  0  0  0  0  0  0  0  0
   -1.2578   -0.8180    0.6681 H   0  0  0  0  0  0  0  0  0  0  0  0
  1  2  2  0
  2  3  1  0
  3  4  2  0
  4  5  1  0
  5  6  1  0
  6  7  2  0
  7  8  1  0
  8  9  1  0
  9 10  2  0
 10 11  1  0
 11 12  1  0
 11 13  2  0
 13 14  1  0
  7 15  1  0
 15 16  1  0
  2 17  1  0
 17 18  1  0
 19 18  1  1
 19 20  1  0
 20 21  1  0
 21 22  1  0
 22 23  1  0
 23 24  1  0
 24 25  1  0
 25 26  1  0
 25 27  1  0
 23 28  1  0
 16  5  2  0
 27 19  1  0
 14  8  2  0
 28 19  1  0
 26 21  1  0
  3 29  1  0
  4 30  1  0
  6 31  1  0
  9 32  1  0
 10 33  1  0
 13 34  1  0
 14 35  1  0
 15 36  1  0
 17 37  1  0
 18 38  1  0
 18 39  1  0
 20 40  1  0
 20 41  1  0
 21 42  1  1
 22 43  1  0
 22 44  1  0
 23 45  1  1
 24 46  1  0
 24 47  1  0
 25 48  1  6
 26 49  1  0
 26 50  1  0
 27 51  1  0
 27 52  1  0
 28 53  1  0
 28 54  1  0
M  END
>  <_SMILES>  (33) 
O=C(/C=C\c1cc(-c2ccc(F)cc2)[nH]n1)NC[C@]12C[C@H]3C[C@H](C[C@H](C3)C1)C2

$$$$

     RDKit          3D

 54 56  0  0  0  0  0  0  0  0999 V2000
   -3.2727    2.3409   -1.1271 C   0  0  0  0  0  0  0  0  0  0  0  0
   -3.1214    0.9844   -0.3992 C   0  0  0  0  0  0  0  0  0  0  0  0
   -1.7151    0.8194    0.0252 N   0  0  0  0  0  0  0  0  0  0  0  0
   -0.6531    0.6812   -0.8556 C   0  0  0  0  0  0  0  0  0  0  0  0
   -0.7864    0.6183   -2.0728 O   0  0  0  0  0  0  0  0  0  0  0  0
    0.6735    0.6368   -0.2057 C   0  0  0  0  0  0  0  0  0  0  0  0
    1.7278    1.2780   -0.7361 N   0  0  0  0  0  0  0  0  0  0  0  0
    2.7645    1.0057    0.0792 N   0  0  0  0  0  0  0  0  0  0  0  0
    4.0872    1.5009   -0.3037 C   0  0  0  0  0  0  0  0  0  0  0  0
    4.9918    0.3847   -0.7655 C   0  0  0  0  0  0  0  0  0  0  0  0
    4.6624   -0.3796   -1.8972 C   0  0  0  0  0  0  0  0  0  0  0  0
    5.4988   -1.4110   -2.3284 C   0  0  0  0  0  0  0  0  0  0  0  0
    6.6782   -1.6876   -1.6387 C   0  0  0  0  0  0  0  0  0  0  0  0
    7.0182   -0.9285   -0.5218 C   0  0  0  0  0  0  0  0  0  0  0  0
    8.4764   -1.2640    0.3278 Cl  0  0  0  0  0  0  0  0  0  0  0  0
    6.1866    0.1041   -0.0853 C   0  0  0  0  0  0  0  0  0  0  0  0
    2.3964    0.2724    1.1736 C   0  0  0  0  0  0  0  0  0  0  0  0
    3.3206   -0.1100    2.2621 C   0  0  0  0  0  0  0  0  0  0  0  0
    2.6833   -0.1229    3.4582 F   0  0  0  0  0  0  0  0  0  0  0  0
    4.3584    0.7502    2.3964 F   0  0  0  0  0  0  0  0  0  0  0  0
    3.8394   -1.3424    2.0661 F   0  0  0  0  0  0  0  0  0  0  0  0
    1.0525   -0.0419    0.9860 C   0  0  0  0  0  0  0  0  0  0  0  0
    0.1761   -0.8971    1.8200 C   0  0  0  0  0  0  0  0  0  0  0  0
   -0.6076   -1.7126    1.0753 F   0  0  0  0  0  0  0  0  0  0  0  0
    0.8784   -1.6928    2.6608 F   0  0  0  0  0  0  0  0  0  0  0  0
   -0.6484   -0.1352    2.5821 F   0  0  0  0  0  0  0  0  0  0  0  0
   -4.0068    1.0676    0.8743 C   0  0  0  0  0  0  0  0  0  0  0  0
   -4.0732   -0.1805    1.7542 C   0  0  0  0  0  0  0  0  0  0  0  0
   -4.3838   -1.4983    1.0539 C   0  0  0  0  0  0  0  0  0  0  0  0
   -5.4140   -1.4055   -0.0682 C   0  0  0  0  0  0  0  0  0  0  0  0
   -5.0178   -0.5698   -1.2931 C   0  0  0  0  0  0  0  0  0  0  0  0
   -3.5457   -0.1611   -1.3640 C   0  0  0  0  0  0  0  0  0  0  0  0
   -2.9467    3.1691   -0.4869 H   0  0  0  0  0  0  0  0  0  0  0  0
   -4.3148    2.5245   -1.4115 H   0  0  0  0  0  0  0  0  0  0  0  0
   -2.6704    2.3875   -2.0404 H   0  0  0  0  0  0  0  0  0  0  0  0
   -1.4954    1.1207    0.9663 H   0  0  0  0  0  0  0  0  0  0  0  0
    3.9580    2.2277   -1.1152 H   0  0  0  0  0  0  0  0  0  0  0  0
    4.4950    2.0501    0.5502 H   0  0  0  0  0  0  0  0  0  0  0  0
    3.7457   -0.1759   -2.4523 H   0  0  0  0  0  0  0  0  0  0  0  0
    5.2296   -1.9978   -3.2037 H   0  0  0  0  0  0  0  0  0  0  0  0
    7.3261   -2.4915   -1.9776 H   0  0  0  0  0  0  0  0  0  0  0  0
    6.4736    0.6852    0.7889 H   0  0  0  0  0  0  0  0  0  0  0  0
   -5.0309    1.3521    0.5993 H   0  0  0  0  0  0  0  0  0  0  0  0
   -3.6483    1.8917    1.5078 H   0  0  0  0  0  0  0  0  0  0  0  0
   -4.8429   -0.0046    2.5171 H   0  0  0  0  0  0  0  0  0  0  0  0
   -3.1337   -0.2933    2.3070 H   0  0  0  0  0  0  0  0  0  0  0  0
   -3.4562   -1.9454    0.6790 H   0  0  0  0  0  0  0  0  0  0  0  0
   -4.7525   -2.2054    1.8083 H   0  0  0  0  0  0  0  0  0  0  0  0
   -6.3629   -1.0271    0.3319 H   0  0  0  0  0  0  0  0  0  0  0  0
   -5.6254   -2.4273   -0.4096 H   0  0  0  0  0  0  0  0  0  0  0  0
   -5.6570    0.3188   -1.3590 H   0  0  0  0  0  0  0  0  0  0  0  0
   -5.2557   -1.1576   -2.1894 H   0  0  0  0  0  0  0  0  0  0  0  0
   -2.9215   -1.0506   -1.2130 H   0  0  0  0  0  0  0  0  0  0  0  0
   -3.3382    0.1456   -2.3981 H   0  0  0  0  0  0  0  0  0  0  0  0
  1  2  1  0
  2  3  1  0
  3  4  1  0
  4  5  2  0
  4  6  1  0
  6  7  2  0
  7  8  1  0
  8  9  1  0
  9 10  1  0
 10 11  2  0
 11 12  1  0
 12 13  2  0
 13 14  1  0
 14 15  1  0
 14 16  2  0
  8 17  1  0
 17 18  1  0
 18 19  1  0
 18 20  1  0
 18 21  1  0
 17 22  2  0
 22 23  1  0
 23 24  1  0
 23 25  1  0
 23 26  1  0
  2 27  1  0
 27 28  1  0
 28 29  1  0
 29 30  1  0
 30 31  1  0
 31 32  1  0
 32  2  1  0
 22  6  1  0
 16 10  1  0
  1 33  1  0
  1 34  1  0
  1 35  1  0
  3 36  1  0
  9 37  1  0
  9 38  1  0
 11 39  1  0
 12 40  1  0
 13 41  1  0
 16 42  1  0
 27 43  1  0
 27 44  1  0
 28 45  1  0
 28 46  1  0
 29 47  1  0
 29 48  1  0
 30 49  1  0
 30 50  1  0
 31 51  1  0
 31 52  1  0
 32 53  1  0
 32 54  1  0
M  END
>  <_SMILES>  (34) 
CC1(NC(=O)c2nn(Cc3cccc(Cl)c3)c(C(F)(F)F)c2C(F)(F)F)CCCCCC1

$$$$

     RDKit          3D

 41 44  0  0  0  0  0  0  0  0999 V2000
    6.4604    0.2029   -1.4301 C   0  0  0  0  0  0  0  0  0  0  0  0
    6.0167   -1.0165   -0.1759 S   0  0  0  0  0  0  0  0  0  0  0  0
    4.2897   -0.8101   -0.0801 C   0  0  0  0  0  0  0  0  0  0  0  0
    3.4466   -1.5451    0.7670 C   0  0  0  0  0  0  0  0  0  0  0  0
    2.1666   -1.0663    0.5323 C   0  0  0  0  0  0  0  0  0  0  0  0
    0.9283   -1.5123    1.1668 C   0  0  0  0  0  0  0  0  0  0  0  0
    0.9630   -2.4740    1.9389 O   0  0  0  0  0  0  0  0  0  0  0  0
   -0.4299   -0.7953    0.8594 C   0  0  1  0  0  0  0  0  0  0  0  0
   -0.7939   -1.0596   -0.6235 C   0  0  0  0  0  0  0  0  0  0  0  0
   -1.7551   -0.0160   -1.1788 C   0  0  0  0  0  0  0  0  0  0  0  0
   -1.5174    1.2802   -0.8724 C   0  0  0  0  0  0  0  0  0  0  0  0
   -2.0537    2.4170   -1.6996 C   0  0  0  0  0  0  0  0  0  0  0  0
   -1.4972    1.5134    0.6304 C   0  0  1  0  0  0  0  0  0  0  0  0
   -2.8806    1.0956    1.2013 C   0  0  0  0  0  0  0  0  0  0  0  0
   -3.3996   -0.2668    0.6665 C   0  0  2  0  0  0  0  0  0  0  0  0
   -2.7653   -1.4577    1.4033 C   0  0  0  0  0  0  0  0  0  0  0  0
   -1.4009   -1.3441    1.7747 O   0  0  0  0  0  0  0  0  0  0  0  0
   -3.1932   -0.3964   -0.8656 C   0  0  0  0  0  0  0  0  0  0  0  0
   -0.3465    0.7010    1.2350 C   0  0  0  0  0  0  0  0  0  0  0  0
    2.3395   -0.1047   -0.4303 N   0  0  0  0  0  0  0  0  0  0  0  0
    3.6138    0.0738   -0.8120 N   0  0  0  0  0  0  0  0  0  0  0  0
    5.9700   -0.0209   -2.3817 H   0  0  0  0  0  0  0  0  0  0  0  0
    6.1897    1.2116   -1.1057 H   0  0  0  0  0  0  0  0  0  0  0  0
    7.5420    0.1741   -1.5885 H   0  0  0  0  0  0  0  0  0  0  0  0
    3.7172   -2.3253    1.4666 H   0  0  0  0  0  0  0  0  0  0  0  0
    0.0820   -1.0546   -1.2796 H   0  0  0  0  0  0  0  0  0  0  0  0
   -1.2144   -2.0668   -0.7385 H   0  0  0  0  0  0  0  0  0  0  0  0
   -2.9079    2.9007   -1.2160 H   0  0  0  0  0  0  0  0  0  0  0  0
   -2.3723    2.0754   -2.6902 H   0  0  0  0  0  0  0  0  0  0  0  0
   -1.2684    3.1659   -1.8442 H   0  0  0  0  0  0  0  0  0  0  0  0
   -1.3257    2.5739    0.8524 H   0  0  0  0  0  0  0  0  0  0  0  0
   -2.8563    1.0915    2.2979 H   0  0  0  0  0  0  0  0  0  0  0  0
   -3.6124    1.8639    0.9166 H   0  0  0  0  0  0  0  0  0  0  0  0
   -4.4816   -0.3230    0.8455 H   0  0  0  0  0  0  0  0  0  0  0  0
   -2.9044   -2.3914    0.8460 H   0  0  0  0  0  0  0  0  0  0  0  0
   -3.3099   -1.5994    2.3445 H   0  0  0  0  0  0  0  0  0  0  0  0
   -3.4179   -1.4091   -1.2198 H   0  0  0  0  0  0  0  0  0  0  0  0
   -3.8872    0.2708   -1.3932 H   0  0  0  0  0  0  0  0  0  0  0  0
    0.5922    1.1573    0.9100 H   0  0  0  0  0  0  0  0  0  0  0  0
   -0.3650    0.8126    2.3278 H   0  0  0  0  0  0  0  0  0  0  0  0
    1.6393    0.4740   -0.8835 H   0  0  0  0  0  0  0  0  0  0  0  0
  1  2  1  0
  2  3  1  0
  3  4  1  0
  4  5  2  0
  5  6  1  0
  6  7  2  0
  8  6  1  1
  8  9  1  0
  9 10  1  0
 10 11  2  0
 11 12  1  0
 11 13  1  0
 13 14  1  0
 14 15  1  0
 15 16  1  0
 16 17  1  0
 15 18  1  0
 13 19  1  0
  5 20  1  0
 20 21  1  0
 21  3  2  0
 17  8  1  0
 19  8  1  0
 18 10  1  0
  1 22  1  0
  1 23  1  0
  1 24  1  0
  4 25  1  0
  9 26  1  0
  9 27  1  0
 12 28  1  0
 12 29  1  0
 12 30  1  0
 13 31  1  6
 14 32  1  0
 14 33  1  0
 15 34  1  6
 16 35  1  0
 16 36  1  0
 18 37  1  0
 18 38  1  0
 19 39  1  0
 19 40  1  0
 20 41  1  0
M  END
>  <_SMILES>  (35) 
CSc1cc(C(=O)[C@@]23CC4=C(C)[C@@H](C[C@H](CO2)C4)C3)[nH]n1

$$$$

     RDKit          3D

 41 44  0  0  0  0  0  0  0  0999 V2000
    6.2714    2.5678   -1.2816 C   0  0  0  0  0  0  0  0  0  0  0  0
    6.1745    0.9036   -0.5900 S   0  0  0  0  0  0  0  0  0  0  0  0
    4.4526    0.6349   -0.5647 C   0  0  0  0  0  0  0  0  0  0  0  0
    3.8406   -0.5494   -0.1185 C   0  0  0  0  0  0  0  0  0  0  0  0
    2.4818   -0.3331   -0.2574 C   0  0  0  0  0  0  0  0  0  0  0  0
    1.3725   -1.2182    0.0587 C   0  0  0  0  0  0  0  0  0  0  0  0
    1.5867   -2.3799    0.4084 O   0  0  0  0  0  0  0  0  0  0  0  0
   -0.0849   -0.6433    0.0139 C   0  0  2  0  0  0  0  0  0  0  0  0
   -1.0797   -1.8250   -0.1600 C   0  0  0  0  0  0  0  0  0  0  0  0
   -2.4875   -1.4928    0.3322 C   0  0  0  0  0  0  0  0  0  0  0  0
   -2.5943   -0.8902    1.5383 C   0  0  0  0  0  0  0  0  0  0  0  0
   -3.8545   -0.9223    2.3581 C   0  0  0  0  0  0  0  0  0  0  0  0
   -1.8049    0.4058    1.5857 C   0  0  2  0  0  0  0  0  0  0  0  0
   -2.3931    1.3489    0.4955 C   0  0  0  0  0  0  0  0  0  0  0  0
   -2.6464    0.6600   -0.8780 C   0  0  1  0  0  0  0  0  0  0  0  0
   -1.3692    0.5659   -1.7239 C   0  0  0  0  0  0  0  0  0  0  0  0
   -0.1501    0.3469   -1.0292 O   0  0  0  0  0  0  0  0  0  0  0  0
   -3.2834   -0.7452   -0.7190 C   0  0  0  0  0  0  0  0  0  0  0  0
   -0.3213    0.0916    1.3510 C   0  0  0  0  0  0  0  0  0  0  0  0
    2.3837    0.9248   -0.7885 N   0  0  0  0  0  0  0  0  0  0  0  0
    3.5627    1.5423   -0.9680 N   0  0  0  0  0  0  0  0  0  0  0  0
    5.8368    2.5989   -2.2848 H   0  0  0  0  0  0  0  0  0  0  0  0
    7.3220    2.8624   -1.3556 H   0  0  0  0  0  0  0  0  0  0  0  0
    5.7598    3.2881   -0.6371 H   0  0  0  0  0  0  0  0  0  0  0  0
    4.3126   -1.4450    0.2626 H   0  0  0  0  0  0  0  0  0  0  0  0
   -0.7621   -2.7037    0.4159 H   0  0  0  0  0  0  0  0  0  0  0  0
   -1.1084   -2.1513   -1.2069 H   0  0  0  0  0  0  0  0  0  0  0  0
   -3.6055   -1.1288    3.4038 H   0  0  0  0  0  0  0  0  0  0  0  0
   -4.3909    0.0304    2.3124 H   0  0  0  0  0  0  0  0  0  0  0  0
   -4.5333   -1.7114    2.0173 H   0  0  0  0  0  0  0  0  0  0  0  0
   -1.9066    0.8825    2.5681 H   0  0  0  0  0  0  0  0  0  0  0  0
   -3.3597    1.7246    0.8582 H   0  0  0  0  0  0  0  0  0  0  0  0
   -1.7538    2.2310    0.3684 H   0  0  0  0  0  0  0  0  0  0  0  0
   -3.3612    1.2687   -1.4476 H   0  0  0  0  0  0  0  0  0  0  0  0
   -1.2367    1.5236   -2.2417 H   0  0  0  0  0  0  0  0  0  0  0  0
   -1.4634   -0.1824   -2.5193 H   0  0  0  0  0  0  0  0  0  0  0  0
   -4.3317   -0.6465   -0.4088 H   0  0  0  0  0  0  0  0  0  0  0  0
   -3.2980   -1.2960   -1.6665 H   0  0  0  0  0  0  0  0  0  0  0  0
    0.0483   -0.5209    2.1851 H   0  0  0  0  0  0  0  0  0  0  0  0
    0.2463    1.0309    1.3758 H   0  0  0  0  0  0  0  0  0  0  0  0
    1.5283    1.4029   -1.0626 H   0  0  0  0  0  0  0  0  0  0  0  0
  1  2  1  0
  2  3  1  0
  3  4  1  0
  4  5  2  0
  5  6  1  0
  6  7  2  0
  8  6  1  1
  8  9  1  0
  9 10  1  0
 10 11  2  0
 11 12  1  0
 11 13  1  0
 13 14  1  0
 14 15  1  0
 15 16  1  0
 16 17  1  0
 15 18  1  0
 13 19  1  0
  5 20  1  0
 20 21  1  0
 21  3  2  0
 17  8  1  0
 19  8  1  0
 18 10  1  0
  1 22  1  0
  1 23  1  0
  1 24  1  0
  4 25  1  0
  9 26  1  0
  9 27  1  0
 12 28  1  0
 12 29  1  0
 12 30  1  0
 13 31  1  1
 14 32  1  0
 14 33  1  0
 15 34  1  6
 16 35  1  0
 16 36  1  0
 18 37  1  0
 18 38  1  0
 19 39  1  0
 19 40  1  0
 20 41  1  0
M  END
>  <_SMILES>  (36) 
CSc1cc(C(=O)[C@]23CC4=C(C)[C@H](C[C@@H](CO2)C4)C3)[nH]n1

$$$$

     RDKit          3D

 41 44  0  0  0  0  0  0  0  0999 V2000
    6.6364   -1.6265    0.7384 C   0  0  0  0  0  0  0  0  0  0  0  0
    5.6057   -2.2904   -0.5883 S   0  0  0  0  0  0  0  0  0  0  0  0
    4.0735   -1.5680   -0.2622 C   0  0  0  0  0  0  0  0  0  0  0  0
    3.5913   -0.7089    0.6890 C   0  0  0  0  0  0  0  0  0  0  0  0
    2.2149   -0.5171    0.3658 C   0  0  0  0  0  0  0  0  0  0  0  0
    1.2694    0.3312    1.1220 C   0  0  0  0  0  0  0  0  0  0  0  0
    1.6739    0.8717    2.1580 O   0  0  0  0  0  0  0  0  0  0  0  0
   -0.2029    0.5195    0.6371 C   0  0  1  0  0  0  0  0  0  0  0  0
   -0.9468   -0.8361    0.7448 C   0  0  0  0  0  0  0  0  0  0  0  0
   -2.2129   -0.8831   -0.1096 C   0  0  0  0  0  0  0  0  0  0  0  0
   -2.1307   -0.3965   -1.3693 C   0  0  0  0  0  0  0  0  0  0  0  0
   -3.0913   -0.7885   -2.4571 C   0  0  0  0  0  0  0  0  0  0  0  0
   -1.6647    1.0503   -1.3862 C   0  0  1  0  0  0  0  0  0  0  0  0
   -2.7074    1.8863   -0.5898 C   0  0  0  0  0  0  0  0  0  0  0  0
   -3.1368    1.2469    0.7616 C   0  0  2  0  0  0  0  0  0  0  0  0
   -2.1166    1.5189    1.8758 C   0  0  0  0  0  0  0  0  0  0  0  0
   -0.7517    1.5471    1.4989 O   0  0  0  0  0  0  0  0  0  0  0  0
   -3.3926   -0.2770    0.6276 C   0  0  0  0  0  0  0  0  0  0  0  0
   -0.2559    1.1281   -0.7795 C   0  0  0  0  0  0  0  0  0  0  0  0
    1.8823   -1.2313   -0.7248 N   0  0  0  0  0  0  0  0  0  0  0  0
    3.0231   -1.8503   -1.0794 N   0  0  0  0  0  0  0  0  0  0  0  0
    7.6512   -2.0204    0.6360 H   0  0  0  0  0  0  0  0  0  0  0  0
    6.2473   -1.9253    1.7157 H   0  0  0  0  0  0  0  0  0  0  0  0
    6.6826   -0.5354    0.6819 H   0  0  0  0  0  0  0  0  0  0  0  0
    4.1234   -0.2605    1.5166 H   0  0  0  0  0  0  0  0  0  0  0  0
   -1.1888   -1.0550    1.7925 H   0  0  0  0  0  0  0  0  0  0  0  0
   -0.3249   -1.6768    0.4204 H   0  0  0  0  0  0  0  0  0  0  0  0
   -3.8191    0.0035   -2.6582 H   0  0  0  0  0  0  0  0  0  0  0  0
   -3.6425   -1.6980   -2.1955 H   0  0  0  0  0  0  0  0  0  0  0  0
   -2.5372   -0.9909   -3.3791 H   0  0  0  0  0  0  0  0  0  0  0  0
   -1.6174    1.4263   -2.4156 H   0  0  0  0  0  0  0  0  0  0  0  0
   -3.6091    1.9846   -1.2096 H   0  0  0  0  0  0  0  0  0  0  0  0
   -2.3373    2.9064   -0.4300 H   0  0  0  0  0  0  0  0  0  0  0  0
   -4.0850    1.7009    1.0787 H   0  0  0  0  0  0  0  0  0  0  0  0
   -2.3242    2.5145    2.2861 H   0  0  0  0  0  0  0  0  0  0  0  0
   -2.2420    0.8280    2.7176 H   0  0  0  0  0  0  0  0  0  0  0  0
   -4.3222   -0.4512    0.0703 H   0  0  0  0  0  0  0  0  0  0  0  0
   -3.5318   -0.7530    1.6052 H   0  0  0  0  0  0  0  0  0  0  0  0
    0.4317    0.6255   -1.4658 H   0  0  0  0  0  0  0  0  0  0  0  0
    0.0635    2.1785   -0.7483 H   0  0  0  0  0  0  0  0  0  0  0  0
    3.0218   -2.4574   -1.8916 H   0  0  0  0  0  0  0  0  0  0  0  0
  1  2  1  0
  2  3  1  0
  3  4  2  0
  4  5  1  0
  5  6  1  0
  6  7  2  0
  8  6  1  1
  8  9  1  0
  9 10  1  0
 10 11  2  0
 11 12  1  0
 11 13  1  0
 13 14  1  0
 14 15  1  0
 15 16  1  0
 16 17  1  0
 15 18  1  0
 13 19  1  0
  5 20  2  0
 20 21  1  0
 21  3  1  0
 17  8  1  0
 19  8  1  0
 18 10  1  0
  1 22  1  0
  1 23  1  0
  1 24  1  0
  4 25  1  0
  9 26  1  0
  9 27  1  0
 12 28  1  0
 12 29  1  0
 12 30  1  0
 13 31  1  6
 14 32  1  0
 14 33  1  0
 15 34  1  1
 16 35  1  0
 16 36  1  0
 18 37  1  0
 18 38  1  0
 19 39  1  0
 19 40  1  0
 21 41  1  0
M  END
>  <_SMILES>  (37) 
CSc1cc(C(=O)[C@@]23CC4=C(C)[C@@H](C[C@H](CO2)C4)C3)n[nH]1

$$$$

     RDKit          3D

 41 44  0  0  0  0  0  0  0  0999 V2000
    5.1626   -1.5056   -0.3616 C   0  0  0  0  0  0  0  0  0  0  0  0
    5.3361   -1.1788    1.4055 S   0  0  0  0  0  0  0  0  0  0  0  0
    3.9015   -0.2893    1.7622 C   0  0  0  0  0  0  0  0  0  0  0  0
    2.7578    0.0203    1.0729 C   0  0  0  0  0  0  0  0  0  0  0  0
    1.9688    0.8019    1.9663 C   0  0  0  0  0  0  0  0  0  0  0  0
    0.6312    1.4101    1.7588 C   0  0  0  0  0  0  0  0  0  0  0  0
    0.2218    2.2927    2.5203 O   0  0  0  0  0  0  0  0  0  0  0  0
   -0.2714    0.8839    0.5988 C   0  0  2  0  0  0  0  0  0  0  0  0
   -0.6748   -0.5709    0.9515 C   0  0  0  0  0  0  0  0  0  0  0  0
   -1.9411   -1.0278    0.2325 C   0  0  0  0  0  0  0  0  0  0  0  0
   -2.9978   -0.1842    0.2448 C   0  0  0  0  0  0  0  0  0  0  0  0
   -4.4124   -0.6446    0.0270 C   0  0  0  0  0  0  0  0  0  0  0  0
   -2.6415    1.1690   -0.3477 C   0  0  2  0  0  0  0  0  0  0  0  0
   -2.2172    0.9398   -1.8230 C   0  0  0  0  0  0  0  0  0  0  0  0
   -1.2333   -0.2455   -2.0177 C   0  0  1  0  0  0  0  0  0  0  0  0
    0.2168    0.1544   -1.7161 C   0  0  0  0  0  0  0  0  0  0  0  0
    0.4568    1.0345   -0.6279 O   0  0  0  0  0  0  0  0  0  0  0  0
   -1.6378   -1.4888   -1.1813 C   0  0  0  0  0  0  0  0  0  0  0  0
   -1.5212    1.7937    0.4912 C   0  0  0  0  0  0  0  0  0  0  0  0
    2.6118    0.9461    3.1440 N   0  0  0  0  0  0  0  0  0  0  0  0
    3.7683    0.2865    2.9862 N   0  0  0  0  0  0  0  0  0  0  0  0
    6.0419   -2.0513   -0.7144 H   0  0  0  0  0  0  0  0  0  0  0  0
    4.2769   -2.1168   -0.5559 H   0  0  0  0  0  0  0  0  0  0  0  0
    5.0894   -0.5694   -0.9220 H   0  0  0  0  0  0  0  0  0  0  0  0
    2.5240   -0.2610    0.0589 H   0  0  0  0  0  0  0  0  0  0  0  0
   -0.8654   -0.6629    2.0298 H   0  0  0  0  0  0  0  0  0  0  0  0
    0.1413   -1.2693    0.7305 H   0  0  0  0  0  0  0  0  0  0  0  0
   -4.5045   -1.7283    0.1559 H   0  0  0  0  0  0  0  0  0  0  0  0
   -4.7708   -0.3904   -0.9751 H   0  0  0  0  0  0  0  0  0  0  0  0
   -5.0697   -0.1670    0.7606 H   0  0  0  0  0  0  0  0  0  0  0  0
   -3.5092    1.8394   -0.3218 H   0  0  0  0  0  0  0  0  0  0  0  0
   -3.1206    0.7203   -2.4081 H   0  0  0  0  0  0  0  0  0  0  0  0
   -1.7975    1.8598   -2.2477 H   0  0  0  0  0  0  0  0  0  0  0  0
   -1.2630   -0.5519   -3.0719 H   0  0  0  0  0  0  0  0  0  0  0  0
    0.8478   -0.7334   -1.5935 H   0  0  0  0  0  0  0  0  0  0  0  0
    0.6151    0.6713   -2.5976 H   0  0  0  0  0  0  0  0  0  0  0  0
   -0.8520   -2.2530   -1.1848 H   0  0  0  0  0  0  0  0  0  0  0  0
   -2.5231   -1.9630   -1.6248 H   0  0  0  0  0  0  0  0  0  0  0  0
   -1.9323    1.9997    1.4889 H   0  0  0  0  0  0  0  0  0  0  0  0
   -1.2428    2.7633    0.0578 H   0  0  0  0  0  0  0  0  0  0  0  0
    4.4293    0.2669    3.7547 H   0  0  0  0  0  0  0  0  0  0  0  0
  1  2  1  0
  2  3  1  0
  3  4  2  0
  4  5  1  0
  5  6  1  0
  6  7  2  0
  8  6  1  1
  8  9  1  0
  9 10  1  0
 10 11  2  0
 11 12  1  0
 11 13  1  0
 13 14  1  0
 14 15  1  0
 15 16  1  0
 16 17  1  0
 15 18  1  0
 13 19  1  0
  5 20  2  0
 20 21  1  0
 21  3  1  0
 17  8  1  0
 19  8  1  0
 18 10  1  0
  1 22  1  0
  1 23  1  0
  1 24  1  0
  4 25  1  0
  9 26  1  0
  9 27  1  0
 12 28  1  0
 12 29  1  0
 12 30  1  0
 13 31  1  6
 14 32  1  0
 14 33  1  0
 15 34  1  6
 16 35  1  0
 16 36  1  0
 18 37  1  0
 18 38  1  0
 19 39  1  0
 19 40  1  0
 21 41  1  0
M  END
>  <_SMILES>  (38) 
CSc1cc(C(=O)[C@]23CC4=C(C)[C@H](C[C@@H](CO2)C4)C3)n[nH]1

$$$$

     RDKit          3D

 63 68  0  0  0  0  0  0  0  0999 V2000
   -1.0753    3.2378   -0.7543 C   0  0  0  0  0  0  0  0  0  0  0  0
   -1.2904    1.7684   -0.7023 C   0  0  0  0  0  0  0  0  0  0  0  0
   -0.2869    0.7638   -0.5574 C   0  0  0  0  0  0  0  0  0  0  0  0
    1.1729    0.9534   -0.4272 C   0  0  0  0  0  0  0  0  0  0  0  0
    1.7072    2.0569   -0.4282 O   0  0  0  0  0  0  0  0  0  0  0  0
    1.8511   -0.2405   -0.3070 N   0  0  0  0  0  0  0  0  0  0  0  0
    3.2940   -0.4047   -0.1684 C   0  0  2  0  0  0  0  0  0  0  0  0
    4.0525    0.1569   -1.3963 C   0  0  0  0  0  0  0  0  0  0  0  0
    5.5671   -0.0718   -1.2478 C   0  0  1  0  0  0  0  0  0  0  0  0
    6.0619    0.6282    0.0294 C   0  0  0  0  0  0  0  0  0  0  0  0
    5.3409    0.0542    1.2610 C   0  0  2  0  0  0  0  0  0  0  0  0
    5.6202   -1.4542    1.3546 C   0  0  0  0  0  0  0  0  0  0  0  0
    5.1202   -2.1603    0.0846 C   0  0  2  0  0  0  0  0  0  0  0  0
    5.8450   -1.5794   -1.1397 C   0  0  0  0  0  0  0  0  0  0  0  0
    3.6092   -1.9207   -0.0636 C   0  0  0  0  0  0  0  0  0  0  0  0
    3.8263    0.2829    1.1132 C   0  0  0  0  0  0  0  0  0  0  0  0
   -0.8291   -0.4720   -0.5525 N   0  0  0  0  0  0  0  0  0  0  0  0
   -2.1580   -0.2534   -0.6695 N   0  0  0  0  0  0  0  0  0  0  0  0
   -3.0615   -1.4007   -0.7008 C   0  0  0  0  0  0  0  0  0  0  0  0
   -3.7544   -1.6196    0.6237 C   0  0  0  0  0  0  0  0  0  0  0  0
   -5.1491   -1.4984    0.7247 C   0  0  0  0  0  0  0  0  0  0  0  0
   -5.7917   -1.6988    1.9486 C   0  0  0  0  0  0  0  0  0  0  0  0
   -5.0451   -2.0269    3.0778 C   0  0  0  0  0  0  0  0  0  0  0  0
   -5.8379   -2.2707    4.5850 Cl  0  0  0  0  0  0  0  0  0  0  0  0
   -3.6612   -2.1577    2.9940 C   0  0  0  0  0  0  0  0  0  0  0  0
   -3.0179   -1.9568    1.7707 C   0  0  0  0  0  0  0  0  0  0  0  0
   -2.4887    1.0764   -0.7846 C   0  0  0  0  0  0  0  0  0  0  0  0
   -3.8509    1.5717   -0.9316 C   0  0  0  0  0  0  0  0  0  0  0  0
   -4.5735    1.9840    0.1932 C   0  0  0  0  0  0  0  0  0  0  0  0
   -5.8829    2.4472    0.0560 C   0  0  0  0  0  0  0  0  0  0  0  0
   -6.4726    2.5071   -1.2061 C   0  0  0  0  0  0  0  0  0  0  0  0
   -5.7534    2.1079   -2.3322 C   0  0  0  0  0  0  0  0  0  0  0  0
   -4.4441    1.6430   -2.1965 C   0  0  0  0  0  0  0  0  0  0  0  0
   -0.6167    3.5894    0.1755 H   0  0  0  0  0  0  0  0  0  0  0  0
   -0.4166    3.4984   -1.5889 H   0  0  0  0  0  0  0  0  0  0  0  0
   -2.0141    3.7833   -0.8899 H   0  0  0  0  0  0  0  0  0  0  0  0
    1.2450   -1.0575   -0.3359 H   0  0  0  0  0  0  0  0  0  0  0  0
    3.6906   -0.3225   -2.3153 H   0  0  0  0  0  0  0  0  0  0  0  0
    3.8629    1.2303   -1.5155 H   0  0  0  0  0  0  0  0  0  0  0  0
    6.0890    0.3381   -2.1197 H   0  0  0  0  0  0  0  0  0  0  0  0
    7.1455    0.4927    0.1339 H   0  0  0  0  0  0  0  0  0  0  0  0
    5.8816    1.7079   -0.0411 H   0  0  0  0  0  0  0  0  0  0  0  0
    5.7026    0.5533    2.1669 H   0  0  0  0  0  0  0  0  0  0  0  0
    6.6956   -1.6291    1.4820 H   0  0  0  0  0  0  0  0  0  0  0  0
    5.1226   -1.8735    2.2377 H   0  0  0  0  0  0  0  0  0  0  0  0
    5.3192   -3.2353    0.1565 H   0  0  0  0  0  0  0  0  0  0  0  0
    6.9242   -1.7566   -1.0552 H   0  0  0  0  0  0  0  0  0  0  0  0
    5.5091   -2.0889   -2.0512 H   0  0  0  0  0  0  0  0  0  0  0  0
    3.0794   -2.3580    0.7934 H   0  0  0  0  0  0  0  0  0  0  0  0
    3.2370   -2.4460   -0.9534 H   0  0  0  0  0  0  0  0  0  0  0  0
    3.6284    1.3611    1.0897 H   0  0  0  0  0  0  0  0  0  0  0  0
    3.3019   -0.1061    1.9959 H   0  0  0  0  0  0  0  0  0  0  0  0
   -2.4750   -2.2889   -0.9654 H   0  0  0  0  0  0  0  0  0  0  0  0
   -3.7760   -1.2362   -1.5146 H   0  0  0  0  0  0  0  0  0  0  0  0
   -5.7462   -1.2328   -0.1461 H   0  0  0  0  0  0  0  0  0  0  0  0
   -6.8714   -1.5940    2.0138 H   0  0  0  0  0  0  0  0  0  0  0  0
   -3.0771   -2.4123    3.8743 H   0  0  0  0  0  0  0  0  0  0  0  0
   -1.9343   -2.0564    1.7182 H   0  0  0  0  0  0  0  0  0  0  0  0
   -4.1219    1.9398    1.1821 H   0  0  0  0  0  0  0  0  0  0  0  0
   -6.4403    2.7638    0.9339 H   0  0  0  0  0  0  0  0  0  0  0  0
   -7.4908    2.8730   -1.3127 H   0  0  0  0  0  0  0  0  0  0  0  0
   -6.2100    2.1655   -3.3170 H   0  0  0  0  0  0  0  0  0  0  0  0
   -3.8880    1.3446   -3.0822 H   0  0  0  0  0  0  0  0  0  0  0  0
  1  2  1  0
  2  3  1  0
  3  4  1  0
  4  5  2  0
  4  6  1  0
  7  6  1  6
  7  8  1  0
  8  9  1  0
  9 10  1  0
 10 11  1  0
 11 12  1  0
 12 13  1  0
 13 14  1  0
 13 15  1  0
 11 16  1  0
  3 17  2  0
 17 18  1  0
 18 19  1  0
 19 20  1  0
 20 21  1  0
 21 22  2  0
 22 23  1  0
 23 24  1  0
 23 25  2  0
 25 26  1  0
 18 27  1  0
 27 28  1  0
 28 29  2  0
 29 30  1  0
 30 31  2  0
 31 32  1  0
 32 33  2  0
 27  2  2  0
 33 28  1  0
 15  7  1  0
 26 20  2  0
 16  7  1  0
 14  9  1  0
  1 34  1  0
  1 35  1  0
  1 36  1  0
  6 37  1  0
  8 38  1  0
  8 39  1  0
  9 40  1  6
 10 41  1  0
 10 42  1  0
 11 43  1  1
 12 44  1  0
 12 45  1  0
 13 46  1  1
 14 47  1  0
 14 48  1  0
 15 49  1  0
 15 50  1  0
 16 51  1  0
 16 52  1  0
 19 53  1  0
 19 54  1  0
 21 55  1  0
 22 56  1  0
 25 57  1  0
 26 58  1  0
 29 59  1  0
 30 60  1  0
 31 61  1  0
 32 62  1  0
 33 63  1  0
M  END
>  <_SMILES>  (39) 
Cc1c(C(=O)N[C@]23C[C@H]4C[C@H](C[C@H](C4)C2)C3)nn(Cc2ccc(Cl)cc2)c1-c1ccccc1

$$$$

     RDKit          3D

 63 68  0  0  0  0  0  0  0  0999 V2000
   -0.6806   -3.3178    1.0885 C   0  0  0  0  0  0  0  0  0  0  0  0
   -1.0571   -2.0819    0.3541 C   0  0  0  0  0  0  0  0  0  0  0  0
   -0.1783   -1.0369   -0.0574 C   0  0  0  0  0  0  0  0  0  0  0  0
    1.2793   -0.9345    0.1605 C   0  0  0  0  0  0  0  0  0  0  0  0
    1.9304   -1.7917    0.7479 O   0  0  0  0  0  0  0  0  0  0  0  0
    1.8081    0.2276   -0.3587 N   0  0  0  0  0  0  0  0  0  0  0  0
    3.1941    0.6687   -0.2558 C   0  0  2  0  0  0  0  0  0  0  0  0
    3.3338    2.0290   -0.9896 C   0  0  0  0  0  0  0  0  0  0  0  0
    4.7775    2.5506   -0.9132 C   0  0  1  0  0  0  0  0  0  0  0  0
    5.1710    2.7308    0.5615 C   0  0  0  0  0  0  0  0  0  0  0  0
    5.0651    1.3877    1.3011 C   0  0  2  0  0  0  0  0  0  0  0  0
    6.0020    0.3662    0.6342 C   0  0  0  0  0  0  0  0  0  0  0  0
    5.6149    0.1781   -0.8425 C   0  0  2  0  0  0  0  0  0  0  0  0
    5.7180    1.5280   -1.5697 C   0  0  0  0  0  0  0  0  0  0  0  0
    4.1662   -0.3349   -0.9246 C   0  0  0  0  0  0  0  0  0  0  0  0
    3.6164    0.8751    1.2196 C   0  0  0  0  0  0  0  0  0  0  0  0
   -0.8466   -0.0712   -0.7185 N   0  0  0  0  0  0  0  0  0  0  0  0
   -2.1369   -0.4670   -0.6833 N   0  0  0  0  0  0  0  0  0  0  0  0
   -3.1474    0.3811   -1.3109 C   0  0  0  0  0  0  0  0  0  0  0  0
   -3.8944    1.2188   -0.3091 C   0  0  0  0  0  0  0  0  0  0  0  0
   -5.1864    0.8689    0.1115 C   0  0  0  0  0  0  0  0  0  0  0  0
   -5.8608    1.6483    1.0551 C   0  0  0  0  0  0  0  0  0  0  0  0
   -5.2564    2.7878    1.5850 C   0  0  0  0  0  0  0  0  0  0  0  0
   -3.9775    3.1502    1.1682 C   0  0  0  0  0  0  0  0  0  0  0  0
   -3.3100    2.3689    0.2289 C   0  0  0  0  0  0  0  0  0  0  0  0
   -2.0900    2.7517   -0.1721 F   0  0  0  0  0  0  0  0  0  0  0  0
   -2.3155   -1.6930   -0.0821 C   0  0  0  0  0  0  0  0  0  0  0  0
   -3.6010   -2.3649    0.0617 C   0  0  0  0  0  0  0  0  0  0  0  0
   -4.1780   -3.0329   -1.0240 C   0  0  0  0  0  0  0  0  0  0  0  0
   -5.4112   -3.6717   -0.8811 C   0  0  0  0  0  0  0  0  0  0  0  0
   -6.0694   -3.6516    0.3481 C   0  0  0  0  0  0  0  0  0  0  0  0
   -5.4940   -2.9982    1.4371 C   0  0  0  0  0  0  0  0  0  0  0  0
   -4.2610   -2.3594    1.2957 C   0  0  0  0  0  0  0  0  0  0  0  0
    0.0845   -3.8731    0.5366 H   0  0  0  0  0  0  0  0  0  0  0  0
   -1.5353   -3.9862    1.2295 H   0  0  0  0  0  0  0  0  0  0  0  0
   -0.2846   -3.0671    2.0778 H   0  0  0  0  0  0  0  0  0  0  0  0
    1.1056    0.8442   -0.7644 H   0  0  0  0  0  0  0  0  0  0  0  0
    3.0330    1.9236   -2.0406 H   0  0  0  0  0  0  0  0  0  0  0  0
    2.6505    2.7675   -0.5489 H   0  0  0  0  0  0  0  0  0  0  0  0
    4.8525    3.5107   -1.4358 H   0  0  0  0  0  0  0  0  0  0  0  0
    4.5174    3.4728    1.0362 H   0  0  0  0  0  0  0  0  0  0  0  0
    6.1952    3.1175    0.6315 H   0  0  0  0  0  0  0  0  0  0  0  0
    5.3506    1.5208    2.3506 H   0  0  0  0  0  0  0  0  0  0  0  0
    5.9459   -0.5940    1.1617 H   0  0  0  0  0  0  0  0  0  0  0  0
    7.0414    0.7091    0.7073 H   0  0  0  0  0  0  0  0  0  0  0  0
    6.2897   -0.5464   -1.3120 H   0  0  0  0  0  0  0  0  0  0  0  0
    6.7516    1.8938   -1.5363 H   0  0  0  0  0  0  0  0  0  0  0  0
    5.4580    1.4045   -2.6282 H   0  0  0  0  0  0  0  0  0  0  0  0
    4.1084   -1.3175   -0.4419 H   0  0  0  0  0  0  0  0  0  0  0  0
    3.8841   -0.4914   -1.9740 H   0  0  0  0  0  0  0  0  0  0  0  0
    2.9401    1.5877    1.7098 H   0  0  0  0  0  0  0  0  0  0  0  0
    3.5351   -0.0621    1.7833 H   0  0  0  0  0  0  0  0  0  0  0  0
   -3.8242   -0.2650   -1.8799 H   0  0  0  0  0  0  0  0  0  0  0  0
   -2.6429    1.0216   -2.0449 H   0  0  0  0  0  0  0  0  0  0  0  0
   -5.6771   -0.0177   -0.2864 H   0  0  0  0  0  0  0  0  0  0  0  0
   -6.8595    1.3635    1.3783 H   0  0  0  0  0  0  0  0  0  0  0  0
   -5.7818    3.3928    2.3194 H   0  0  0  0  0  0  0  0  0  0  0  0
   -3.4945    4.0369    1.5665 H   0  0  0  0  0  0  0  0  0  0  0  0
   -3.6659   -3.0689   -1.9828 H   0  0  0  0  0  0  0  0  0  0  0  0
   -5.8539   -4.1928   -1.7261 H   0  0  0  0  0  0  0  0  0  0  0  0
   -7.0271   -4.1539    0.4602 H   0  0  0  0  0  0  0  0  0  0  0  0
   -6.0021   -2.9889    2.3979 H   0  0  0  0  0  0  0  0  0  0  0  0
   -3.8192   -1.8519    2.1508 H   0  0  0  0  0  0  0  0  0  0  0  0
  1  2  1  0
  2  3  1  0
  3  4  1  0
  4  5  2  0
  4  6  1  0
  7  6  1  1
  7  8  1  0
  8  9  1  0
  9 10  1  0
 10 11  1  0
 11 12  1  0
 12 13  1  0
 13 14  1  0
 13 15  1  0
 11 16  1  0
  3 17  2  0
 17 18  1  0
 18 19  1  0
 19 20  1  0
 20 21  2  0
 21 22  1  0
 22 23  2  0
 23 24  1  0
 24 25  2  0
 25 26  1  0
 18 27  1  0
 27 28  1  0
 28 29  2  0
 29 30  1  0
 30 31  2  0
 31 32  1  0
 32 33  2  0
 27  2  2  0
 33 28  1  0
 15  7  1  0
 25 20  1  0
 16  7  1  0
 14  9  1  0
  1 34  1  0
  1 35  1  0
  1 36  1  0
  6 37  1  0
  8 38  1  0
  8 39  1  0
  9 40  1  6
 10 41  1  0
 10 42  1  0
 11 43  1  1
 12 44  1  0
 12 45  1  0
 13 46  1  6
 14 47  1  0
 14 48  1  0
 15 49  1  0
 15 50  1  0
 16 51  1  0
 16 52  1  0
 19 53  1  0
 19 54  1  0
 21 55  1  0
 22 56  1  0
 23 57  1  0
 24 58  1  0
 29 59  1  0
 30 60  1  0
 31 61  1  0
 32 62  1  0
 33 63  1  0
M  END
>  <_SMILES>  (40) 
Cc1c(C(=O)N[C@]23C[C@H]4C[C@H](C[C@H](C4)C2)C3)nn(Cc2ccccc2F)c1-c1ccccc1

$$$$

     RDKit          3D

 56 60  0  0  0  0  0  0  0  0999 V2000
    4.6552   -0.4192    3.0910 C   0  0  0  0  0  0  0  0  0  0  0  0
    3.9190    0.7869    2.5351 C   0  0  0  0  0  0  0  0  0  0  0  0
    2.9340    0.4163    1.5337 N   0  0  0  0  0  0  0  0  0  0  0  0
    1.7112    0.0439    1.9466 N   0  0  0  0  0  0  0  0  0  0  0  0
    1.0396   -0.2477    0.8203 C   0  0  0  0  0  0  0  0  0  0  0  0
   -0.3674   -0.6966    0.8696 C   0  0  0  0  0  0  0  0  0  0  0  0
   -0.7861   -1.4888    1.7075 O   0  0  0  0  0  0  0  0  0  0  0  0
   -1.1683   -0.1151   -0.1005 N   0  0  0  0  0  0  0  0  0  0  0  0
   -2.6174   -0.3004   -0.2043 C   0  0  2  0  0  0  0  0  0  0  0  0
   -3.0000   -1.7873   -0.4173 C   0  0  0  0  0  0  0  0  0  0  0  0
   -4.5234   -1.9376   -0.5769 C   0  0  1  0  0  0  0  0  0  0  0  0
   -5.2196   -1.3977    0.6841 C   0  0  0  0  0  0  0  0  0  0  0  0
   -4.8770    0.0887    0.8833 C   0  0  2  0  0  0  0  0  0  0  0  0
   -5.3394    0.8843   -0.3477 C   0  0  0  0  0  0  0  0  0  0  0  0
   -4.6402    0.3535   -1.6091 C   0  0  2  0  0  0  0  0  0  0  0  0
   -4.9890   -1.1305   -1.7985 C   0  0  0  0  0  0  0  0  0  0  0  0
   -3.1194    0.4959   -1.4400 C   0  0  0  0  0  0  0  0  0  0  0  0
   -3.3542    0.2411    1.0451 C   0  0  0  0  0  0  0  0  0  0  0  0
    1.8692   -0.0476   -0.3318 C   0  0  0  0  0  0  0  0  0  0  0  0
    1.5220   -0.2936   -1.7558 C   0  0  0  0  0  0  0  0  0  0  0  0
    3.0825    0.4014    0.1692 C   0  0  0  0  0  0  0  0  0  0  0  0
    4.3081    0.7651   -0.5290 C   0  0  0  0  0  0  0  0  0  0  0  0
    5.2898   -0.1994   -0.7797 C   0  0  0  0  0  0  0  0  0  0  0  0
    6.4640    0.1511   -1.4480 C   0  0  0  0  0  0  0  0  0  0  0  0
    6.6597    1.4651   -1.8717 C   0  0  0  0  0  0  0  0  0  0  0  0
    5.6815    2.4294   -1.6306 C   0  0  0  0  0  0  0  0  0  0  0  0
    4.5066    2.0805   -0.9623 C   0  0  0  0  0  0  0  0  0  0  0  0
    5.1908   -0.9564    2.3019 H   0  0  0  0  0  0  0  0  0  0  0  0
    5.3837   -0.1047    3.8446 H   0  0  0  0  0  0  0  0  0  0  0  0
    3.9610   -1.1238    3.5611 H   0  0  0  0  0  0  0  0  0  0  0  0
    3.3893    1.3152    3.3362 H   0  0  0  0  0  0  0  0  0  0  0  0
    4.6216    1.4967    2.0881 H   0  0  0  0  0  0  0  0  0  0  0  0
   -0.7746    0.7008   -0.5499 H   0  0  0  0  0  0  0  0  0  0  0  0
   -2.6722   -2.4049    0.4264 H   0  0  0  0  0  0  0  0  0  0  0  0
   -2.4897   -2.1845   -1.3046 H   0  0  0  0  0  0  0  0  0  0  0  0
   -4.7770   -2.9947   -0.7149 H   0  0  0  0  0  0  0  0  0  0  0  0
   -6.3057   -1.5217    0.5932 H   0  0  0  0  0  0  0  0  0  0  0  0
   -4.9057   -1.9755    1.5621 H   0  0  0  0  0  0  0  0  0  0  0  0
   -5.3824    0.4676    1.7786 H   0  0  0  0  0  0  0  0  0  0  0  0
   -6.4276    0.8024   -0.4599 H   0  0  0  0  0  0  0  0  0  0  0  0
   -5.1126    1.9490   -0.2128 H   0  0  0  0  0  0  0  0  0  0  0  0
   -4.9707    0.9254   -2.4834 H   0  0  0  0  0  0  0  0  0  0  0  0
   -4.5101   -1.5157   -2.7072 H   0  0  0  0  0  0  0  0  0  0  0  0
   -6.0711   -1.2472   -1.9350 H   0  0  0  0  0  0  0  0  0  0  0  0
   -2.6102    0.1442   -2.3474 H   0  0  0  0  0  0  0  0  0  0  0  0
   -2.8591    1.5579   -1.3360 H   0  0  0  0  0  0  0  0  0  0  0  0
   -3.0345   -0.2915    1.9487 H   0  0  0  0  0  0  0  0  0  0  0  0
   -3.0996    1.2971    1.2053 H   0  0  0  0  0  0  0  0  0  0  0  0
    0.8551   -1.1559   -1.8547 H   0  0  0  0  0  0  0  0  0  0  0  0
    1.0242    0.5831   -2.1819 H   0  0  0  0  0  0  0  0  0  0  0  0
    2.4134   -0.5031   -2.3556 H   0  0  0  0  0  0  0  0  0  0  0  0
    5.1433   -1.2283   -0.4584 H   0  0  0  0  0  0  0  0  0  0  0  0
    7.2242   -0.6016   -1.6405 H   0  0  0  0  0  0  0  0  0  0  0  0
    7.5739    1.7371   -2.3934 H   0  0  0  0  0  0  0  0  0  0  0  0
    5.8330    3.4526   -1.9647 H   0  0  0  0  0  0  0  0  0  0  0  0
    3.7484    2.8387   -0.7816 H   0  0  0  0  0  0  0  0  0  0  0  0
  1  2  1  0
  2  3  1  0
  3  4  1  0
  4  5  2  0
  5  6  1  0
  6  7  2  0
  6  8  1  0
  9  8  1  1
  9 10  1  0
 10 11  1  0
 11 12  1  0
 12 13  1  0
 13 14  1  0
 14 15  1  0
 15 16  1  0
 15 17  1  0
 13 18  1  0
  5 19  1  0
 19 20  1  0
 19 21  2  0
 21 22  1  0
 22 23  2  0
 23 24  1  0
 24 25  2  0
 25 26  1  0
 26 27  2  0
 21  3  1  0
 27 22  1  0
 17  9  1  0
 18  9  1  0
 16 11  1  0
  1 28  1  0
  1 29  1  0
  1 30  1  0
  2 31  1  0
  2 32  1  0
  8 33  1  0
 10 34  1  0
 10 35  1  0
 11 36  1  6
 12 37  1  0
 12 38  1  0
 13 39  1  1
 14 40  1  0
 14 41  1  0
 15 42  1  6
 16 43  1  0
 16 44  1  0
 17 45  1  0
 17 46  1  0
 18 47  1  0
 18 48  1  0
 20 49  1  0
 20 50  1  0
 20 51  1  0
 23 52  1  0
 24 53  1  0
 25 54  1  0
 26 55  1  0
 27 56  1  0
M  END
>  <_SMILES>  (41) 
CCn1nc(C(=O)N[C@]23C[C@H]4C[C@H](C[C@H](C4)C2)C3)c(C)c1-c1ccccc1

$$$$

     RDKit          3D

 62 67  0  0  0  0  0  0  0  0999 V2000
   -1.3580    3.3441    0.1274 C   0  0  0  0  0  0  0  0  0  0  0  0
   -1.5495    1.8769   -0.0349 C   0  0  0  0  0  0  0  0  0  0  0  0
   -0.5364    0.8850    0.0596 C   0  0  0  0  0  0  0  0  0  0  0  0
    0.9116    1.0878    0.2800 C   0  0  0  0  0  0  0  0  0  0  0  0
    1.4159    2.1965    0.4179 O   0  0  0  0  0  0  0  0  0  0  0  0
    1.6183   -0.0958    0.2948 N   0  0  0  0  0  0  0  0  0  0  0  0
    3.0657   -0.2327    0.4262 C   0  0  2  0  0  0  0  0  0  0  0  0
    3.5786    0.3561    1.7641 C   0  0  0  0  0  0  0  0  0  0  0  0
    5.0986    0.1548    1.8967 C   0  0  1  0  0  0  0  0  0  0  0  0
    5.4172   -1.3481    1.8623 C   0  0  0  0  0  0  0  0  0  0  0  0
    4.9368   -1.9558    0.5353 C   0  0  2  0  0  0  0  0  0  0  0  0
    5.6471   -1.2540   -0.6329 C   0  0  0  0  0  0  0  0  0  0  0  0
    5.3303    0.2498   -0.6130 C   0  0  2  0  0  0  0  0  0  0  0  0
    5.8055    0.8506    0.7209 C   0  0  0  0  0  0  0  0  0  0  0  0
    3.8104    0.4512   -0.7465 C   0  0  0  0  0  0  0  0  0  0  0  0
    3.4202   -1.7436    0.4037 C   0  0  0  0  0  0  0  0  0  0  0  0
   -1.0496   -0.3522   -0.0575 N   0  0  0  0  0  0  0  0  0  0  0  0
   -2.3768   -0.1723   -0.3309 N   0  0  0  0  0  0  0  0  0  0  0  0
   -3.1754   -1.3096   -0.6812 C   0  0  0  0  0  0  0  0  0  0  0  0
   -4.2621   -1.1566   -1.5609 C   0  0  0  0  0  0  0  0  0  0  0  0
   -5.0473   -2.2527   -1.9228 C   0  0  0  0  0  0  0  0  0  0  0  0
   -4.7614   -3.5109   -1.4084 C   0  0  0  0  0  0  0  0  0  0  0  0
   -3.6786   -3.6769   -0.5453 C   0  0  0  0  0  0  0  0  0  0  0  0
   -2.8459   -2.5991   -0.2047 C   0  0  0  0  0  0  0  0  0  0  0  0
   -1.8800   -2.8172    0.7996 N   0  0  0  0  0  0  0  0  0  0  0  0
   -2.7299    1.1780   -0.2616 C   0  0  0  0  0  0  0  0  0  0  0  0
   -4.0953    1.7080   -0.3030 C   0  0  0  0  0  0  0  0  0  0  0  0
   -5.0330    1.3298    0.6684 C   0  0  0  0  0  0  0  0  0  0  0  0
   -6.3325    1.8401    0.6347 C   0  0  0  0  0  0  0  0  0  0  0  0
   -6.7024    2.7380   -0.3658 C   0  0  0  0  0  0  0  0  0  0  0  0
   -5.7700    3.1242   -1.3268 C   0  0  0  0  0  0  0  0  0  0  0  0
   -6.2265    4.2334   -2.5607 Cl  0  0  0  0  0  0  0  0  0  0  0  0
   -4.4709    2.6178   -1.2997 C   0  0  0  0  0  0  0  0  0  0  0  0
   -0.7834    3.7461   -0.7132 H   0  0  0  0  0  0  0  0  0  0  0  0
   -0.8185    3.5613    1.0550 H   0  0  0  0  0  0  0  0  0  0  0  0
   -2.3082    3.8830    0.1744 H   0  0  0  0  0  0  0  0  0  0  0  0
    1.0521   -0.9154    0.0938 H   0  0  0  0  0  0  0  0  0  0  0  0
    3.3541    1.4269    1.8331 H   0  0  0  0  0  0  0  0  0  0  0  0
    3.0634   -0.1205    2.6084 H   0  0  0  0  0  0  0  0  0  0  0  0
    5.4462    0.5841    2.8431 H   0  0  0  0  0  0  0  0  0  0  0  0
    6.4967   -1.5053    1.9776 H   0  0  0  0  0  0  0  0  0  0  0  0
    4.9301   -1.8541    2.7049 H   0  0  0  0  0  0  0  0  0  0  0  0
    5.1637   -3.0276    0.5158 H   0  0  0  0  0  0  0  0  0  0  0  0
    6.7306   -1.4097   -0.5606 H   0  0  0  0  0  0  0  0  0  0  0  0
    5.3253   -1.6923   -1.5855 H   0  0  0  0  0  0  0  0  0  0  0  0
    5.8424    0.7459   -1.4450 H   0  0  0  0  0  0  0  0  0  0  0  0
    5.5971    1.9273    0.7424 H   0  0  0  0  0  0  0  0  0  0  0  0
    6.8921    0.7348    0.8168 H   0  0  0  0  0  0  0  0  0  0  0  0
    3.5920    1.5255   -0.7741 H   0  0  0  0  0  0  0  0  0  0  0  0
    3.4624    0.0426   -1.7043 H   0  0  0  0  0  0  0  0  0  0  0  0
    3.0628   -2.2013   -0.5286 H   0  0  0  0  0  0  0  0  0  0  0  0
    2.9008   -2.2653    1.2188 H   0  0  0  0  0  0  0  0  0  0  0  0
   -4.5014   -0.2014   -2.0169 H   0  0  0  0  0  0  0  0  0  0  0  0
   -5.8833   -2.1205   -2.6053 H   0  0  0  0  0  0  0  0  0  0  0  0
   -5.3834   -4.3628   -1.6697 H   0  0  0  0  0  0  0  0  0  0  0  0
   -3.4911   -4.6619   -0.1243 H   0  0  0  0  0  0  0  0  0  0  0  0
   -1.1712   -2.0769    0.7813 H   0  0  0  0  0  0  0  0  0  0  0  0
   -1.4672   -3.7431    0.7738 H   0  0  0  0  0  0  0  0  0  0  0  0
   -4.7575    0.6352    1.4604 H   0  0  0  0  0  0  0  0  0  0  0  0
   -7.0536    1.5385    1.3906 H   0  0  0  0  0  0  0  0  0  0  0  0
   -7.7142    3.1343   -0.3885 H   0  0  0  0  0  0  0  0  0  0  0  0
   -3.7539    2.9277   -2.0561 H   0  0  0  0  0  0  0  0  0  0  0  0
  1  2  1  0
  2  3  1  0
  3  4  1  0
  4  5  2  0
  4  6  1  0
  7  6  1  6
  7  8  1  0
  8  9  1  0
  9 10  1  0
 10 11  1  0
 11 12  1  0
 12 13  1  0
 13 14  1  0
 13 15  1  0
 11 16  1  0
  3 17  2  0
 17 18  1  0
 18 19  1  0
 19 20  2  0
 20 21  1  0
 21 22  2  0
 22 23  1  0
 23 24  2  0
 24 25  1  0
 18 26  1  0
 26 27  1  0
 27 28  2  0
 28 29  1  0
 29 30  2  0
 30 31  1  0
 31 32  1  0
 31 33  2  0
 26  2  2  0
 33 27  1  0
 15  7  1  0
 24 19  1  0
 16  7  1  0
 14  9  1  0
  1 34  1  0
  1 35  1  0
  1 36  1  0
  6 37  1  0
  8 38  1  0
  8 39  1  0
  9 40  1  1
 10 41  1  0
 10 42  1  0
 11 43  1  1
 12 44  1  0
 12 45  1  0
 13 46  1  6
 14 47  1  0
 14 48  1  0
 15 49  1  0
 15 50  1  0
 16 51  1  0
 16 52  1  0
 20 53  1  0
 21 54  1  0
 22 55  1  0
 23 56  1  0
 25 57  1  0
 25 58  1  0
 28 59  1  0
 29 60  1  0
 30 61  1  0
 33 62  1  0
M  END
>  <_SMILES>  (42) 
Cc1c(C(=O)N[C@]23C[C@H]4C[C@H](C[C@H](C4)C2)C3)nn(-c2ccccc2N)c1-c1cccc(Cl)c1

$$$$

     RDKit          3D

 69 75  0  0  0  0  0  0  0  0999 V2000
    0.8174    1.7257   -3.3576 C   0  0  0  0  0  0  0  0  0  0  0  0
    0.7286    2.5032   -2.0531 C   0  0  0  0  0  0  0  0  0  0  0  0
    0.8706    1.6221   -0.8533 C   0  0  0  0  0  0  0  0  0  0  0  0
   -0.1531    0.8680   -0.2011 C   0  0  0  0  0  0  0  0  0  0  0  0
   -1.5864    0.7740   -0.5523 C   0  0  0  0  0  0  0  0  0  0  0  0
   -2.0857    1.3627   -1.5047 O   0  0  0  0  0  0  0  0  0  0  0  0
   -2.2860   -0.0465    0.3066 N   0  0  0  0  0  0  0  0  0  0  0  0
   -3.7094   -0.3577    0.2379 C   0  0  2  0  0  0  0  0  0  0  0  0
   -4.5798    0.9142    0.3908 C   0  0  0  0  0  0  0  0  0  0  0  0
   -6.0755    0.5529    0.3631 C   0  0  1  0  0  0  0  0  0  0  0  0
   -6.4041   -0.1406   -0.9700 C   0  0  0  0  0  0  0  0  0  0  0  0
   -5.5710   -1.4252   -1.1180 C   0  0  2  0  0  0  0  0  0  0  0  0
   -5.8867   -2.3717    0.0509 C   0  0  0  0  0  0  0  0  0  0  0  0
   -5.5524   -1.6871    1.3855 C   0  0  2  0  0  0  0  0  0  0  0  0
   -6.3883   -0.4050    1.5235 C   0  0  0  0  0  0  0  0  0  0  0  0
   -4.0600   -1.3201    1.4037 C   0  0  0  0  0  0  0  0  0  0  0  0
   -4.0752   -1.0645   -1.0908 C   0  0  0  0  0  0  0  0  0  0  0  0
    0.3411    0.1860    0.8538 N   0  0  0  0  0  0  0  0  0  0  0  0
    1.6590    0.4838    0.8595 N   0  0  0  0  0  0  0  0  0  0  0  0
    2.5106   -0.1025    1.8933 C   0  0  0  0  0  0  0  0  0  0  0  0
    3.3486   -1.2320    1.3635 C   0  0  0  0  0  0  0  0  0  0  0  0
    2.7703   -2.3756    0.7833 C   0  0  0  0  0  0  0  0  0  0  0  0
    3.5697   -3.4194    0.2831 C   0  0  0  0  0  0  0  0  0  0  0  0
    4.9613   -3.3446    0.3578 C   0  0  0  0  0  0  0  0  0  0  0  0
    5.5114   -2.2229    0.9382 C   0  0  0  0  0  0  0  0  0  0  0  0
    4.7316   -1.2006    1.4317 C   0  0  0  0  0  0  0  0  0  0  0  0
    5.4844   -0.1969    1.9623 O   0  0  0  0  0  0  0  0  0  0  0  0
    6.8178   -0.6888    1.7150 C   0  0  0  0  0  0  0  0  0  0  0  0
    6.8417   -1.9874    1.0924 O   0  0  0  0  0  0  0  0  0  0  0  0
    2.0283    1.3572   -0.1362 C   0  0  0  0  0  0  0  0  0  0  0  0
    3.3883    1.8367   -0.3447 C   0  0  0  0  0  0  0  0  0  0  0  0
    3.8305    2.9999    0.2964 C   0  0  0  0  0  0  0  0  0  0  0  0
    5.1355    3.4569    0.1037 C   0  0  0  0  0  0  0  0  0  0  0  0
    6.0032    2.7528   -0.7311 C   0  0  0  0  0  0  0  0  0  0  0  0
    5.5600    1.5977   -1.3739 C   0  0  0  0  0  0  0  0  0  0  0  0
    6.6375    0.7220   -2.3900 Cl  0  0  0  0  0  0  0  0  0  0  0  0
    4.2566    1.1403   -1.1917 C   0  0  0  0  0  0  0  0  0  0  0  0
    0.0299    0.9679   -3.4253 H   0  0  0  0  0  0  0  0  0  0  0  0
    1.7816    1.2143   -3.4487 H   0  0  0  0  0  0  0  0  0  0  0  0
    0.7108    2.4032   -4.2105 H   0  0  0  0  0  0  0  0  0  0  0  0
   -0.2225    3.0454   -2.0105 H   0  0  0  0  0  0  0  0  0  0  0  0
    1.5098    3.2728   -2.0447 H   0  0  0  0  0  0  0  0  0  0  0  0
   -1.7097   -0.4519    1.0413 H   0  0  0  0  0  0  0  0  0  0  0  0
   -4.3368    1.4272    1.3306 H   0  0  0  0  0  0  0  0  0  0  0  0
   -4.3702    1.6305   -0.4124 H   0  0  0  0  0  0  0  0  0  0  0  0
   -6.6766    1.4634    0.4640 H   0  0  0  0  0  0  0  0  0  0  0  0
   -7.4734   -0.3818   -1.0121 H   0  0  0  0  0  0  0  0  0  0  0  0
   -6.1979    0.5384   -1.8065 H   0  0  0  0  0  0  0  0  0  0  0  0
   -5.8146   -1.9163   -2.0667 H   0  0  0  0  0  0  0  0  0  0  0  0
   -6.9466   -2.6534    0.0293 H   0  0  0  0  0  0  0  0  0  0  0  0
   -5.3088   -3.2985   -0.0506 H   0  0  0  0  0  0  0  0  0  0  0  0
   -5.7769   -2.3660    2.2157 H   0  0  0  0  0  0  0  0  0  0  0  0
   -6.1713    0.0831    2.4816 H   0  0  0  0  0  0  0  0  0  0  0  0
   -7.4569   -0.6529    1.5273 H   0  0  0  0  0  0  0  0  0  0  0  0
   -3.8049   -0.8560    2.3659 H   0  0  0  0  0  0  0  0  0  0  0  0
   -3.4536   -2.2333    1.3346 H   0  0  0  0  0  0  0  0  0  0  0  0
   -3.8462   -0.4237   -1.9506 H   0  0  0  0  0  0  0  0  0  0  0  0
   -3.4698   -1.9720   -1.2147 H   0  0  0  0  0  0  0  0  0  0  0  0
    1.8628   -0.4677    2.6993 H   0  0  0  0  0  0  0  0  0  0  0  0
    3.1134    0.7111    2.3104 H   0  0  0  0  0  0  0  0  0  0  0  0
    1.6864   -2.4609    0.7063 H   0  0  0  0  0  0  0  0  0  0  0  0
    3.0981   -4.2897   -0.1680 H   0  0  0  0  0  0  0  0  0  0  0  0
    5.5897   -4.1398   -0.0270 H   0  0  0  0  0  0  0  0  0  0  0  0
    7.3411    0.0233    1.0666 H   0  0  0  0  0  0  0  0  0  0  0  0
    7.3502   -0.7488    2.6711 H   0  0  0  0  0  0  0  0  0  0  0  0
    3.1590    3.5569    0.9466 H   0  0  0  0  0  0  0  0  0  0  0  0
    5.4739    4.3612    0.6033 H   0  0  0  0  0  0  0  0  0  0  0  0
    7.0191    3.1095   -0.8782 H   0  0  0  0  0  0  0  0  0  0  0  0
    3.9207    0.2375   -1.6962 H   0  0  0  0  0  0  0  0  0  0  0  0
  1  2  1  0
  2  3  1  0
  3  4  1  0
  4  5  1  0
  5  6  2  0
  5  7  1  0
  8  7  1  6
  8  9  1  0
  9 10  1  0
 10 11  1  0
 11 12  1  0
 12 13  1  0
 13 14  1  0
 14 15  1  0
 14 16  1  0
 12 17  1  0
  4 18  2  0
 18 19  1  0
 19 20  1  0
 20 21  1  0
 21 22  2  0
 22 23  1  0
 23 24  2  0
 24 25  1  0
 25 26  2  0
 26 27  1  0
 27 28  1  0
 28 29  1  0
 19 30  1  0
 30 31  1  0
 31 32  2  0
 32 33  1  0
 33 34  2  0
 34 35  1  0
 35 36  1  0
 35 37  2  0
 30  3  2  0
 37 31  1  0
 16  8  1  0
 26 21  1  0
 17  8  1  0
 29 25  1  0
 15 10  1  0
  1 38  1  0
  1 39  1  0
  1 40  1  0
  2 41  1  0
  2 42  1  0
  7 43  1  0
  9 44  1  0
  9 45  1  0
 10 46  1  1
 11 47  1  0
 11 48  1  0
 12 49  1  6
 13 50  1  0
 13 51  1  0
 14 52  1  1
 15 53  1  0
 15 54  1  0
 16 55  1  0
 16 56  1  0
 17 57  1  0
 17 58  1  0
 20 59  1  0
 20 60  1  0
 22 61  1  0
 23 62  1  0
 24 63  1  0
 28 64  1  0
 28 65  1  0
 32 66  1  0
 33 67  1  0
 34 68  1  0
 37 69  1  0
M  END
>  <_SMILES>  (43) 
CCc1c(C(=O)N[C@]23C[C@H]4C[C@H](C[C@H](C4)C2)C3)nn(Cc2cccc3c2OCO3)c1-c1cccc(Cl)c1

$$$$

     RDKit          3D

 76 81  0  0  0  0  0  0  0  0999 V2000
    1.1370    2.4108    2.3839 C   0  0  0  0  0  0  0  0  0  0  0  0
    0.6992    1.6171    1.2058 C   0  0  0  0  0  0  0  0  0  0  0  0
    1.4914    0.6905    0.4636 C   0  0  0  0  0  0  0  0  0  0  0  0
    2.9017    0.3142    0.6960 C   0  0  0  0  0  0  0  0  0  0  0  0
    3.5754    0.7808    1.6078 O   0  0  0  0  0  0  0  0  0  0  0  0
    3.3596   -0.6095   -0.2184 N   0  0  0  0  0  0  0  0  0  0  0  0
    4.6989   -1.1861   -0.2677 C   0  0  2  0  0  0  0  0  0  0  0  0
    5.7800   -0.0996   -0.4898 C   0  0  0  0  0  0  0  0  0  0  0  0
    7.1770   -0.7379   -0.5860 C   0  0  1  0  0  0  0  0  0  0  0  0
    7.4742   -1.5038    0.7144 C   0  0  0  0  0  0  0  0  0  0  0  0
    6.4267   -2.6097    0.9286 C   0  0  2  0  0  0  0  0  0  0  0  0
    6.4615   -3.5787   -0.2638 C   0  0  0  0  0  0  0  0  0  0  0  0
    6.1569   -2.8204   -1.5653 C   0  0  2  0  0  0  0  0  0  0  0  0
    7.2075   -1.7176   -1.7697 C   0  0  0  0  0  0  0  0  0  0  0  0
    4.7649   -2.1773   -1.4599 C   0  0  0  0  0  0  0  0  0  0  0  0
    5.0295   -1.9720    1.0252 C   0  0  0  0  0  0  0  0  0  0  0  0
    0.7850    0.1449   -0.5475 N   0  0  0  0  0  0  0  0  0  0  0  0
   -0.4415    0.6997   -0.4392 N   0  0  0  0  0  0  0  0  0  0  0  0
   -1.4687    0.3230   -1.4111 C   0  0  0  0  0  0  0  0  0  0  0  0
   -2.6476   -0.3779   -0.7784 C   0  0  0  0  0  0  0  0  0  0  0  0
   -2.4717   -1.5632   -0.0564 C   0  0  0  0  0  0  0  0  0  0  0  0
   -3.5655   -2.1932    0.5268 C   0  0  0  0  0  0  0  0  0  0  0  0
   -4.8439   -1.6486    0.3898 C   0  0  0  0  0  0  0  0  0  0  0  0
   -5.0663   -0.4638   -0.3368 C   0  0  0  0  0  0  0  0  0  0  0  0
   -6.4913    0.1041   -0.4697 C   0  0  0  0  0  0  0  0  0  0  0  0
   -7.0777    0.3800    0.9320 C   0  0  0  0  0  0  0  0  0  0  0  0
   -6.5663    1.4291   -1.2619 C   0  0  0  0  0  0  0  0  0  0  0  0
   -7.3865   -0.9185   -1.2016 C   0  0  0  0  0  0  0  0  0  0  0  0
   -3.9454    0.1505   -0.9227 C   0  0  0  0  0  0  0  0  0  0  0  0
   -0.5439    1.6087    0.5910 C   0  0  0  0  0  0  0  0  0  0  0  0
   -1.7644    2.3277    0.9343 C   0  0  0  0  0  0  0  0  0  0  0  0
   -2.5270    1.9188    2.0334 C   0  0  0  0  0  0  0  0  0  0  0  0
   -3.7169    2.5775    2.3504 C   0  0  0  0  0  0  0  0  0  0  0  0
   -4.1568    3.6558    1.5718 C   0  0  0  0  0  0  0  0  0  0  0  0
   -5.3958    4.2911    1.9118 C   0  0  0  0  0  0  0  0  0  0  0  0
   -6.4072    4.7785    2.2059 N   0  0  0  0  0  0  0  0  0  0  0  0
   -3.3856    4.0728    0.4806 C   0  0  0  0  0  0  0  0  0  0  0  0
   -3.8669    5.3872   -0.5331 Cl  0  0  0  0  0  0  0  0  0  0  0  0
   -2.1910    3.4153    0.1665 C   0  0  0  0  0  0  0  0  0  0  0  0
    2.0120    3.0188    2.1325 H   0  0  0  0  0  0  0  0  0  0  0  0
    1.3991    1.7474    3.2142 H   0  0  0  0  0  0  0  0  0  0  0  0
    0.3532    3.0901    2.7325 H   0  0  0  0  0  0  0  0  0  0  0  0
    2.6611   -0.8846   -0.9058 H   0  0  0  0  0  0  0  0  0  0  0  0
    5.5640    0.4663   -1.4056 H   0  0  0  0  0  0  0  0  0  0  0  0
    5.7757    0.6296    0.3291 H   0  0  0  0  0  0  0  0  0  0  0  0
    7.9301    0.0440   -0.7347 H   0  0  0  0  0  0  0  0  0  0  0  0
    7.4689   -0.8126    1.5661 H   0  0  0  0  0  0  0  0  0  0  0  0
    8.4779   -1.9438    0.6678 H   0  0  0  0  0  0  0  0  0  0  0  0
    6.6482   -3.1544    1.8532 H   0  0  0  0  0  0  0  0  0  0  0  0
    7.4468   -4.0563   -0.3301 H   0  0  0  0  0  0  0  0  0  0  0  0
    5.7281   -4.3810   -0.1165 H   0  0  0  0  0  0  0  0  0  0  0  0
    6.1806   -3.5152   -2.4122 H   0  0  0  0  0  0  0  0  0  0  0  0
    8.2056   -2.1632   -1.8619 H   0  0  0  0  0  0  0  0  0  0  0  0
    7.0107   -1.1809   -2.7059 H   0  0  0  0  0  0  0  0  0  0  0  0
    4.5260   -1.6569   -2.3972 H   0  0  0  0  0  0  0  0  0  0  0  0
    4.0036   -2.9602   -1.3425 H   0  0  0  0  0  0  0  0  0  0  0  0
    4.9966   -1.3142    1.9019 H   0  0  0  0  0  0  0  0  0  0  0  0
    4.2746   -2.7505    1.1973 H   0  0  0  0  0  0  0  0  0  0  0  0
   -1.0094   -0.3354   -2.1581 H   0  0  0  0  0  0  0  0  0  0  0  0
   -1.7644    1.2443   -1.9253 H   0  0  0  0  0  0  0  0  0  0  0  0
   -1.4807   -1.9989    0.0602 H   0  0  0  0  0  0  0  0  0  0  0  0
   -3.4260   -3.1126    1.0901 H   0  0  0  0  0  0  0  0  0  0  0  0
   -5.6737   -2.1732    0.8593 H   0  0  0  0  0  0  0  0  0  0  0  0
   -6.4446    1.0748    1.4952 H   0  0  0  0  0  0  0  0  0  0  0  0
   -8.0780    0.8232    0.8618 H   0  0  0  0  0  0  0  0  0  0  0  0
   -7.1750   -0.5333    1.5289 H   0  0  0  0  0  0  0  0  0  0  0  0
   -7.5978    1.7968   -1.3198 H   0  0  0  0  0  0  0  0  0  0  0  0
   -6.2121    1.3048   -2.2918 H   0  0  0  0  0  0  0  0  0  0  0  0
   -5.9697    2.2168   -0.7883 H   0  0  0  0  0  0  0  0  0  0  0  0
   -6.9839   -1.1567   -2.1934 H   0  0  0  0  0  0  0  0  0  0  0  0
   -8.4018   -0.5284   -1.3387 H   0  0  0  0  0  0  0  0  0  0  0  0
   -7.4765   -1.8602   -0.6489 H   0  0  0  0  0  0  0  0  0  0  0  0
   -4.0616    1.0640   -1.5005 H   0  0  0  0  0  0  0  0  0  0  0  0
   -2.2083    1.0694    2.6361 H   0  0  0  0  0  0  0  0  0  0  0  0
   -4.3032    2.2326    3.2010 H   0  0  0  0  0  0  0  0  0  0  0  0
   -1.5941    3.7492   -0.6798 H   0  0  0  0  0  0  0  0  0  0  0  0
  1  2  1  0
  2  3  1  0
  3  4  1  0
  4  5  2  0
  4  6  1  0
  7  6  1  1
  7  8  1  0
  8  9  1  0
  9 10  1  0
 10 11  1  0
 11 12  1  0
 12 13  1  0
 13 14  1  0
 13 15  1  0
 11 16  1  0
  3 17  2  0
 17 18  1  0
 18 19  1  0
 19 20  1  0
 20 21  1  0
 21 22  2  0
 22 23  1  0
 23 24  2  0
 24 25  1  0
 25 26  1  0
 25 27  1  0
 25 28  1  0
 24 29  1  0
 18 30  1  0
 30 31  1  0
 31 32  1  0
 32 33  2  0
 33 34  1  0
 34 35  1  0
 35 36  3  0
 34 37  2  0
 37 38  1  0
 37 39  1  0
 30  2  2  0
 39 31  2  0
 15  7  1  0
 29 20  2  0
 16  7  1  0
 14  9  1  0
  1 40  1  0
  1 41  1  0
  1 42  1  0
  6 43  1  0
  8 44  1  0
  8 45  1  0
  9 46  1  6
 10 47  1  0
 10 48  1  0
 11 49  1  1
 12 50  1  0
 12 51  1  0
 13 52  1  6
 14 53  1  0
 14 54  1  0
 15 55  1  0
 15 56  1  0
 16 57  1  0
 16 58  1  0
 19 59  1  0
 19 60  1  0
 21 61  1  0
 22 62  1  0
 23 63  1  0
 26 64  1  0
 26 65  1  0
 26 66  1  0
 27 67  1  0
 27 68  1  0
 27 69  1  0
 28 70  1  0
 28 71  1  0
 28 72  1  0
 29 73  1  0
 32 74  1  0
 33 75  1  0
 39 76  1  0
M  END
>  <_SMILES>  (44) 
Cc1c(C(=O)N[C@]23C[C@H]4C[C@H](C[C@H](C4)C2)C3)nn(Cc2cccc(C(C)(C)C)c2)c1-c1ccc(C#N)c(Cl)c1

$$$$

     RDKit          3D

 66 71  0  0  0  0  0  0  0  0999 V2000
    0.3911    1.0154   -0.2490 O   0  0  0  0  0  0  0  0  0  0  0  0
    0.8092   -0.0630   -0.6460 C   0  0  0  0  0  0  0  0  0  0  0  0
    2.1319   -0.4510   -0.6140 N   0  0  0  0  0  0  0  0  0  0  0  0
    3.2317    0.4327   -0.1814 C   0  0  2  0  0  0  0  0  0  0  0  0
    3.3694    1.6674   -1.1051 C   0  0  0  0  0  0  0  0  0  0  0  0
    4.5586    2.5401   -0.6658 C   0  0  1  0  0  0  0  0  0  0  0  0
    4.3407    3.0008    0.7857 C   0  0  0  0  0  0  0  0  0  0  0  0
    4.2403    1.7823    1.7194 C   0  0  2  0  0  0  0  0  0  0  0  0
    5.5360    0.9624    1.6250 C   0  0  0  0  0  0  0  0  0  0  0  0
    5.7530    0.4909    0.1791 C   0  0  2  0  0  0  0  0  0  0  0  0
    5.8523    1.7141   -0.7461 C   0  0  0  0  0  0  0  0  0  0  0  0
    4.5578   -0.3729   -0.2538 C   0  0  0  0  0  0  0  0  0  0  0  0
    3.0511    0.9080    1.2834 C   0  0  0  0  0  0  0  0  0  0  0  0
   -0.1278   -1.1517   -1.1185 C   0  0  2  0  0  0  0  0  0  0  0  0
   -1.4973   -0.6453   -1.5597 C   0  0  0  0  0  0  0  0  0  0  0  0
   -2.3968   -1.8537   -1.3233 C   0  0  2  0  0  0  0  0  0  0  0  0
   -3.8859   -1.7295   -1.5079 C   0  0  0  0  0  0  0  0  0  0  0  0
   -4.5023   -0.5157   -1.8517 C   0  0  0  0  0  0  0  0  0  0  0  0
   -5.8857   -0.4415   -2.0333 C   0  0  0  0  0  0  0  0  0  0  0  0
   -6.6735   -1.5791   -1.8876 C   0  0  0  0  0  0  0  0  0  0  0  0
   -6.0801   -2.7962   -1.5686 C   0  0  0  0  0  0  0  0  0  0  0  0
   -4.6978   -2.8738   -1.3867 C   0  0  0  0  0  0  0  0  0  0  0  0
   -1.9015   -2.3868    0.0153 N   0  0  2  0  0  0  0  0  0  0  0  0
   -2.6534   -1.9999    1.2800 C   0  0  0  0  0  0  0  0  0  0  0  0
   -2.9498   -0.5472    1.5455 C   0  0  0  0  0  0  0  0  0  0  0  0
   -1.9540    0.3579    1.9411 C   0  0  0  0  0  0  0  0  0  0  0  0
   -2.2582    1.7034    2.1749 C   0  0  0  0  0  0  0  0  0  0  0  0
   -3.5672    2.1540    2.0420 C   0  0  0  0  0  0  0  0  0  0  0  0
   -3.9749    3.9711    2.3532 Br  0  0  0  0  0  0  0  0  0  0  0  0
   -4.5779    1.2676    1.6881 C   0  0  0  0  0  0  0  0  0  0  0  0
   -4.2709   -0.0750    1.4498 C   0  0  0  0  0  0  0  0  0  0  0  0
   -0.4117   -2.0884    0.0521 C   0  0  0  0  0  0  0  0  0  0  0  0
    2.4130   -1.1850   -1.2535 H   0  0  0  0  0  0  0  0  0  0  0  0
    2.4551    2.2725   -1.0883 H   0  0  0  0  0  0  0  0  0  0  0  0
    3.5060    1.3465   -2.1461 H   0  0  0  0  0  0  0  0  0  0  0  0
    4.6371    3.4135   -1.3228 H   0  0  0  0  0  0  0  0  0  0  0  0
    5.1702    3.6457    1.1013 H   0  0  0  0  0  0  0  0  0  0  0  0
    3.4260    3.6024    0.8547 H   0  0  0  0  0  0  0  0  0  0  0  0
    4.0913    2.1190    2.7514 H   0  0  0  0  0  0  0  0  0  0  0  0
    6.3887    1.5691    1.9537 H   0  0  0  0  0  0  0  0  0  0  0  0
    5.4825    0.0976    2.2978 H   0  0  0  0  0  0  0  0  0  0  0  0
    6.6761   -0.0960    0.1163 H   0  0  0  0  0  0  0  0  0  0  0  0
    6.0264    1.3898   -1.7794 H   0  0  0  0  0  0  0  0  0  0  0  0
    6.7107    2.3332   -0.4578 H   0  0  0  0  0  0  0  0  0  0  0  0
    4.4928   -1.2643    0.3845 H   0  0  0  0  0  0  0  0  0  0  0  0
    4.7215   -0.7401   -1.2759 H   0  0  0  0  0  0  0  0  0  0  0  0
    2.9576    0.0420    1.9518 H   0  0  0  0  0  0  0  0  0  0  0  0
    2.1282    1.4867    1.4020 H   0  0  0  0  0  0  0  0  0  0  0  0
    0.3401   -1.7050   -1.9426 H   0  0  0  0  0  0  0  0  0  0  0  0
   -1.8243    0.2269   -0.9855 H   0  0  0  0  0  0  0  0  0  0  0  0
   -1.4855   -0.3456   -2.6139 H   0  0  0  0  0  0  0  0  0  0  0  0
   -2.0812   -2.6216   -2.0473 H   0  0  0  0  0  0  0  0  0  0  0  0
   -3.9301    0.4019   -1.9785 H   0  0  0  0  0  0  0  0  0  0  0  0
   -6.3503    0.5079   -2.2942 H   0  0  0  0  0  0  0  0  0  0  0  0
   -7.7498   -1.5180   -2.0363 H   0  0  0  0  0  0  0  0  0  0  0  0
   -6.6981   -3.6873   -1.4751 H   0  0  0  0  0  0  0  0  0  0  0  0
   -4.2685   -3.8482   -1.1634 H   0  0  0  0  0  0  0  0  0  0  0  0
   -2.0088   -3.4053   -0.0324 H   0  0  0  0  0  0  0  0  0  0  0  0
   -2.0775   -2.4136    2.1178 H   0  0  0  0  0  0  0  0  0  0  0  0
   -3.5847   -2.5781    1.2587 H   0  0  0  0  0  0  0  0  0  0  0  0
   -0.9210    0.0523    2.0812 H   0  0  0  0  0  0  0  0  0  0  0  0
   -1.4639    2.3911    2.4593 H   0  0  0  0  0  0  0  0  0  0  0  0
   -5.6065    1.6098    1.5964 H   0  0  0  0  0  0  0  0  0  0  0  0
   -5.0885   -0.7446    1.1827 H   0  0  0  0  0  0  0  0  0  0  0  0
   -0.1376   -1.7041    1.0372 H   0  0  0  0  0  0  0  0  0  0  0  0
    0.0966   -3.0489   -0.0896 H   0  0  0  0  0  0  0  0  0  0  0  0
  1  2  2  0
  2  3  1  0
  4  3  1  6
  4  5  1  0
  5  6  1  0
  6  7  1  0
  7  8  1  0
  8  9  1  0
  9 10  1  0
 10 11  1  0
 10 12  1  0
  8 13  1  0
  2 14  1  0
 14 15  1  0
 15 16  1  0
 16 17  1  0
 17 18  2  0
 18 19  1  0
 19 20  2  0
 20 21  1  0
 21 22  2  0
 16 23  1  0
 23 24  1  0
 24 25  1  0
 25 26  1  0
 26 27  2  0
 27 28  1  0
 28 29  1  0
 28 30  2  0
 30 31  1  0
 23 32  1  0
 12  4  1  0
 32 14  1  0
 13  4  1  0
 22 17  1  0
 31 25  2  0
 11  6  1  0
  3 33  1  0
  5 34  1  0
  5 35  1  0
  6 36  1  6
  7 37  1  0
  7 38  1  0
  8 39  1  1
  9 40  1  0
  9 41  1  0
 10 42  1  1
 11 43  1  0
 11 44  1  0
 12 45  1  0
 12 46  1  0
 13 47  1  0
 13 48  1  0
 14 49  1  6
 15 50  1  0
 15 51  1  0
 16 52  1  6
 18 53  1  0
 19 54  1  0
 20 55  1  0
 21 56  1  0
 22 57  1  0
 23 58  1  6
 24 59  1  0
 24 60  1  0
 26 61  1  0
 27 62  1  0
 30 63  1  0
 31 64  1  0
 32 65  1  0
 32 66  1  0
M  CHG  1  23   1
M  END
>  <_SMILES>  (45) 
O=C(N[C@]12C[C@H]3C[C@H](C[C@H](C3)C1)C2)[C@@H]1C[C@H](c2ccccc2)[N@H+](Cc2ccc(Br)cc2)C1

$$$$

     RDKit          3D

 66 71  0  0  0  0  0  0  0  0999 V2000
    0.2760   -0.6980   -0.2287 O   0  0  0  0  0  0  0  0  0  0  0  0
    0.5960   -0.1395    0.8180 C   0  0  0  0  0  0  0  0  0  0  0  0
    1.8809    0.1219    1.2171 N   0  0  0  0  0  0  0  0  0  0  0  0
    3.0879   -0.3196    0.4978 C   0  0  2  0  0  0  0  0  0  0  0  0
    3.1514    0.2728   -0.9326 C   0  0  0  0  0  0  0  0  0  0  0  0
    4.4441   -0.1663   -1.6431 C   0  0  1  0  0  0  0  0  0  0  0  0
    5.6581    0.3359   -0.8461 C   0  0  0  0  0  0  0  0  0  0  0  0
    5.6324   -0.2514    0.5735 C   0  0  2  0  0  0  0  0  0  0  0  0
    5.6723   -1.7855    0.4908 C   0  0  0  0  0  0  0  0  0  0  0  0
    4.4586   -2.3007   -0.2989 C   0  0  2  0  0  0  0  0  0  0  0  0
    4.4844   -1.7023   -1.7158 C   0  0  0  0  0  0  0  0  0  0  0  0
    3.1659   -1.8637    0.4126 C   0  0  0  0  0  0  0  0  0  0  0  0
    4.3352    0.1821    1.2747 C   0  0  0  0  0  0  0  0  0  0  0  0
   -0.4743    0.4391    1.7257 C   0  0  1  0  0  0  0  0  0  0  0  0
   -0.7767    1.8742    1.3097 C   0  0  0  0  0  0  0  0  0  0  0  0
   -1.7390    1.7515    0.1035 C   0  0  2  0  0  0  0  0  0  0  0  0
   -2.8065    2.8205    0.0567 C   0  0  0  0  0  0  0  0  0  0  0  0
   -3.0066    3.5420   -1.1330 C   0  0  0  0  0  0  0  0  0  0  0  0
   -4.0018    4.5172   -1.2184 C   0  0  0  0  0  0  0  0  0  0  0  0
   -4.8129    4.7850   -0.1198 C   0  0  0  0  0  0  0  0  0  0  0  0
   -4.6314    4.0790    1.0659 C   0  0  0  0  0  0  0  0  0  0  0  0
   -3.6373    3.1026    1.1552 C   0  0  0  0  0  0  0  0  0  0  0  0
   -2.2440    0.3142    0.1572 N   0  0  2  0  0  0  0  0  0  0  0  0
   -3.6546    0.0328   -0.2587 C   0  0  0  0  0  0  0  0  0  0  0  0
   -3.9279   -1.4417   -0.4195 C   0  0  0  0  0  0  0  0  0  0  0  0
   -3.3664   -2.1590   -1.4889 C   0  0  0  0  0  0  0  0  0  0  0  0
   -3.5959   -3.5309   -1.6199 C   0  0  0  0  0  0  0  0  0  0  0  0
   -4.3882   -4.1933   -0.6856 C   0  0  0  0  0  0  0  0  0  0  0  0
   -4.6958   -6.0487   -0.8624 Br  0  0  0  0  0  0  0  0  0  0  0  0
   -4.9559   -3.4960    0.3780 C   0  0  0  0  0  0  0  0  0  0  0  0
   -4.7266   -2.1243    0.5118 C   0  0  0  0  0  0  0  0  0  0  0  0
   -1.8005   -0.2596    1.4778 C   0  0  0  0  0  0  0  0  0  0  0  0
    2.0341    0.4971    2.1468 H   0  0  0  0  0  0  0  0  0  0  0  0
    2.2917   -0.0494   -1.5312 H   0  0  0  0  0  0  0  0  0  0  0  0
    3.1016    1.3687   -0.8895 H   0  0  0  0  0  0  0  0  0  0  0  0
    4.4687    0.2523   -2.6555 H   0  0  0  0  0  0  0  0  0  0  0  0
    6.5861    0.0470   -1.3546 H   0  0  0  0  0  0  0  0  0  0  0  0
    5.6486    1.4318   -0.7991 H   0  0  0  0  0  0  0  0  0  0  0  0
    6.4979    0.1110    1.1392 H   0  0  0  0  0  0  0  0  0  0  0  0
    6.6007   -2.1105    0.0053 H   0  0  0  0  0  0  0  0  0  0  0  0
    5.6732   -2.2157    1.4998 H   0  0  0  0  0  0  0  0  0  0  0  0
    4.4946   -3.3943   -0.3589 H   0  0  0  0  0  0  0  0  0  0  0  0
    5.3901   -2.0277   -2.2423 H   0  0  0  0  0  0  0  0  0  0  0  0
    3.6294   -2.0728   -2.2946 H   0  0  0  0  0  0  0  0  0  0  0  0
    3.1277   -2.2996    1.4195 H   0  0  0  0  0  0  0  0  0  0  0  0
    2.3035   -2.2692   -0.1299 H   0  0  0  0  0  0  0  0  0  0  0  0
    4.3229   -0.2086    2.3011 H   0  0  0  0  0  0  0  0  0  0  0  0
    4.3093    1.2764    1.3635 H   0  0  0  0  0  0  0  0  0  0  0  0
   -0.1614    0.3571    2.7711 H   0  0  0  0  0  0  0  0  0  0  0  0
    0.1208    2.4385    1.0310 H   0  0  0  0  0  0  0  0  0  0  0  0
   -1.2325    2.4030    2.1539 H   0  0  0  0  0  0  0  0  0  0  0  0
   -1.1419    1.7971   -0.8171 H   0  0  0  0  0  0  0  0  0  0  0  0
   -2.3893    3.3619   -2.0124 H   0  0  0  0  0  0  0  0  0  0  0  0
   -4.1439    5.0748   -2.1425 H   0  0  0  0  0  0  0  0  0  0  0  0
   -5.5850    5.5490   -0.1869 H   0  0  0  0  0  0  0  0  0  0  0  0
   -5.2665    4.2960    1.9229 H   0  0  0  0  0  0  0  0  0  0  0  0
   -3.5322    2.5704    2.0980 H   0  0  0  0  0  0  0  0  0  0  0  0
   -1.6515   -0.1902   -0.5287 H   0  0  0  0  0  0  0  0  0  0  0  0
   -3.8242    0.5343   -1.2183 H   0  0  0  0  0  0  0  0  0  0  0  0
   -4.3218    0.4699    0.4911 H   0  0  0  0  0  0  0  0  0  0  0  0
   -2.7501   -1.6643   -2.2378 H   0  0  0  0  0  0  0  0  0  0  0  0
   -3.1573   -4.0745   -2.4543 H   0  0  0  0  0  0  0  0  0  0  0  0
   -5.5817   -4.0127    1.1030 H   0  0  0  0  0  0  0  0  0  0  0  0
   -5.1881   -1.6011    1.3477 H   0  0  0  0  0  0  0  0  0  0  0  0
   -1.7211   -1.3470    1.3839 H   0  0  0  0  0  0  0  0  0  0  0  0
   -2.5530    0.0109    2.2265 H   0  0  0  0  0  0  0  0  0  0  0  0
  1  2  2  0
  2  3  1  0
  4  3  1  1
  4  5  1  0
  5  6  1  0
  6  7  1  0
  7  8  1  0
  8  9  1  0
  9 10  1  0
 10 11  1  0
 10 12  1  0
  8 13  1  0
  2 14  1  0
 14 15  1  0
 15 16  1  0
 16 17  1  0
 17 18  2  0
 18 19  1  0
 19 20  2  0
 20 21  1  0
 21 22  2  0
 16 23  1  0
 23 24  1  0
 24 25  1  0
 25 26  1  0
 26 27  2  0
 27 28  1  0
 28 29  1  0
 28 30  2  0
 30 31  1  0
 23 32  1  0
 12  4  1  0
 32 14  1  0
 13  4  1  0
 22 17  1  0
 31 25  2  0
 11  6  1  0
  3 33  1  0
  5 34  1  0
  5 35  1  0
  6 36  1  6
  7 37  1  0
  7 38  1  0
  8 39  1  1
  9 40  1  0
  9 41  1  0
 10 42  1  6
 11 43  1  0
 11 44  1  0
 12 45  1  0
 12 46  1  0
 13 47  1  0
 13 48  1  0
 14 49  1  1
 15 50  1  0
 15 51  1  0
 16 52  1  6
 18 53  1  0
 19 54  1  0
 20 55  1  0
 21 56  1  0
 22 57  1  0
 23 58  1  6
 24 59  1  0
 24 60  1  0
 26 61  1  0
 27 62  1  0
 30 63  1  0
 31 64  1  0
 32 65  1  0
 32 66  1  0
M  CHG  1  23   1
M  END
>  <_SMILES>  (46) 
O=C(N[C@]12C[C@H]3C[C@H](C[C@H](C3)C1)C2)[C@H]1C[C@H](c2ccccc2)[N@H+](Cc2ccc(Br)cc2)C1

$$$$

     RDKit          3D

 66 71  0  0  0  0  0  0  0  0999 V2000
   -0.2578   -1.1229    0.4837 O   0  0  0  0  0  0  0  0  0  0  0  0
   -0.6850   -0.8277   -0.6253 C   0  0  0  0  0  0  0  0  0  0  0  0
   -1.8137   -0.0757   -0.8627 N   0  0  0  0  0  0  0  0  0  0  0  0
   -2.7222    0.3972    0.1988 C   0  0  2  0  0  0  0  0  0  0  0  0
   -3.8513    1.2325   -0.4646 C   0  0  0  0  0  0  0  0  0  0  0  0
   -4.8436    1.7530    0.5874 C   0  0  1  0  0  0  0  0  0  0  0  0
   -5.4656    0.5585    1.3279 C   0  0  0  0  0  0  0  0  0  0  0  0
   -4.3647   -0.2650    2.0154 C   0  0  2  0  0  0  0  0  0  0  0  0
   -3.6099    0.6304    3.0126 C   0  0  0  0  0  0  0  0  0  0  0  0
   -2.9842    1.8292    2.2796 C   0  0  2  0  0  0  0  0  0  0  0  0
   -4.0931    2.6402    1.5923 C   0  0  0  0  0  0  0  0  0  0  0  0
   -1.9980    1.3138    1.2167 C   0  0  0  0  0  0  0  0  0  0  0  0
   -3.3792   -0.7840    0.9535 C   0  0  0  0  0  0  0  0  0  0  0  0
    0.0710   -1.2158   -1.8836 C   0  0  2  0  0  0  0  0  0  0  0  0
    1.0488   -2.3594   -1.6441 C   0  0  0  0  0  0  0  0  0  0  0  0
    2.2826   -1.6693   -1.0602 C   0  0  1  0  0  0  0  0  0  0  0  0
    3.5518   -2.4857   -1.1355 C   0  0  0  0  0  0  0  0  0  0  0  0
    4.0437   -2.9997   -2.3483 C   0  0  0  0  0  0  0  0  0  0  0  0
    5.2363   -3.7257   -2.3824 C   0  0  0  0  0  0  0  0  0  0  0  0
    5.9527   -3.9496   -1.2102 C   0  0  0  0  0  0  0  0  0  0  0  0
    5.4768   -3.4536   -0.0003 C   0  0  0  0  0  0  0  0  0  0  0  0
    4.2852   -2.7279    0.0385 C   0  0  0  0  0  0  0  0  0  0  0  0
    2.3589   -0.3846   -1.8709 N   0  0  2  0  0  0  0  0  0  0  0  0
    3.1719    0.7302   -1.2579 C   0  0  0  0  0  0  0  0  0  0  0  0
    2.5439    1.5100   -0.1318 C   0  0  0  0  0  0  0  0  0  0  0  0
    2.5831    1.0406    1.1897 C   0  0  0  0  0  0  0  0  0  0  0  0
    1.9972    1.7734    2.2261 C   0  0  0  0  0  0  0  0  0  0  0  0
    1.3795    2.9900    1.9526 C   0  0  0  0  0  0  0  0  0  0  0  0
    0.5884    3.9797    3.3529 Br  0  0  0  0  0  0  0  0  0  0  0  0
    1.3451    3.4830    0.6517 C   0  0  0  0  0  0  0  0  0  0  0  0
    1.9261    2.7478   -0.3849 C   0  0  0  0  0  0  0  0  0  0  0  0
    0.9486   -0.0495   -2.3222 C   0  0  0  0  0  0  0  0  0  0  0  0
   -2.2427   -0.1577   -1.7771 H   0  0  0  0  0  0  0  0  0  0  0  0
   -3.4198    2.0769   -1.0186 H   0  0  0  0  0  0  0  0  0  0  0  0
   -4.3871    0.6230   -1.2047 H   0  0  0  0  0  0  0  0  0  0  0  0
   -5.6317    2.3351    0.0970 H   0  0  0  0  0  0  0  0  0  0  0  0
   -6.0205   -0.0724    0.6227 H   0  0  0  0  0  0  0  0  0  0  0  0
   -6.1878    0.9144    2.0730 H   0  0  0  0  0  0  0  0  0  0  0  0
   -4.8143   -1.1117    2.5460 H   0  0  0  0  0  0  0  0  0  0  0  0
   -4.2973    0.9855    3.7902 H   0  0  0  0  0  0  0  0  0  0  0  0
   -2.8281    0.0513    3.5192 H   0  0  0  0  0  0  0  0  0  0  0  0
   -2.4553    2.4646    2.9981 H   0  0  0  0  0  0  0  0  0  0  0  0
   -4.7916    3.0313    2.3423 H   0  0  0  0  0  0  0  0  0  0  0  0
   -3.6599    3.5068    1.0780 H   0  0  0  0  0  0  0  0  0  0  0  0
   -1.1846    0.7806    1.7209 H   0  0  0  0  0  0  0  0  0  0  0  0
   -1.5359    2.1609    0.6943 H   0  0  0  0  0  0  0  0  0  0  0  0
   -2.6200   -1.4062    1.4423 H   0  0  0  0  0  0  0  0  0  0  0  0
   -3.9037   -1.4391    0.2456 H   0  0  0  0  0  0  0  0  0  0  0  0
   -0.6585   -1.4871   -2.6550 H   0  0  0  0  0  0  0  0  0  0  0  0
    1.2691   -2.8490   -2.6002 H   0  0  0  0  0  0  0  0  0  0  0  0
    0.6592   -3.1282   -0.9678 H   0  0  0  0  0  0  0  0  0  0  0  0
    2.0862   -1.3815   -0.0250 H   0  0  0  0  0  0  0  0  0  0  0  0
    3.5106   -2.8626   -3.2861 H   0  0  0  0  0  0  0  0  0  0  0  0
    5.6076   -4.1284   -3.3231 H   0  0  0  0  0  0  0  0  0  0  0  0
    6.8784   -4.5212   -1.2373 H   0  0  0  0  0  0  0  0  0  0  0  0
    6.0332   -3.6412    0.9163 H   0  0  0  0  0  0  0  0  0  0  0  0
    3.9366   -2.3663    1.0051 H   0  0  0  0  0  0  0  0  0  0  0  0
    2.8847   -0.6388   -2.7138 H   0  0  0  0  0  0  0  0  0  0  0  0
    4.1286    0.3014   -0.9376 H   0  0  0  0  0  0  0  0  0  0  0  0
    3.4071    1.4078   -2.0882 H   0  0  0  0  0  0  0  0  0  0  0  0
    3.0776    0.1059    1.4436 H   0  0  0  0  0  0  0  0  0  0  0  0
    2.0312    1.3895    3.2437 H   0  0  0  0  0  0  0  0  0  0  0  0
    0.8731    4.4397    0.4384 H   0  0  0  0  0  0  0  0  0  0  0  0
    1.8962    3.1655   -1.3900 H   0  0  0  0  0  0  0  0  0  0  0  0
    0.9957    0.0225   -3.4141 H   0  0  0  0  0  0  0  0  0  0  0  0
    0.6403    0.9153   -1.9170 H   0  0  0  0  0  0  0  0  0  0  0  0
  1  2  2  0
  2  3  1  0
  4  3  1  6
  4  5  1  0
  5  6  1  0
  6  7  1  0
  7  8  1  0
  8  9  1  0
  9 10  1  0
 10 11  1  0
 10 12  1  0
  8 13  1  0
  2 14  1  0
 14 15  1  0
 15 16  1  0
 16 17  1  0
 17 18  2  0
 18 19  1  0
 19 20  2  0
 20 21  1  0
 21 22  2  0
 16 23  1  0
 23 24  1  0
 24 25  1  0
 25 26  1  0
 26 27  2  0
 27 28  1  0
 28 29  1  0
 28 30  2  0
 30 31  1  0
 23 32  1  0
 12  4  1  0
 32 14  1  0
 13  4  1  0
 22 17  1  0
 31 25  2  0
 11  6  1  0
  3 33  1  0
  5 34  1  0
  5 35  1  0
  6 36  1  6
  7 37  1  0
  7 38  1  0
  8 39  1  1
  9 40  1  0
  9 41  1  0
 10 42  1  1
 11 43  1  0
 11 44  1  0
 12 45  1  0
 12 46  1  0
 13 47  1  0
 13 48  1  0
 14 49  1  6
 15 50  1  0
 15 51  1  0
 16 52  1  1
 18 53  1  0
 19 54  1  0
 20 55  1  0
 21 56  1  0
 22 57  1  0
 23 58  1  6
 24 59  1  0
 24 60  1  0
 26 61  1  0
 27 62  1  0
 30 63  1  0
 31 64  1  0
 32 65  1  0
 32 66  1  0
M  CHG  1  23   1
M  END
>  <_SMILES>  (47) 
O=C(N[C@]12C[C@H]3C[C@H](C[C@H](C3)C1)C2)[C@@H]1C[C@@H](c2ccccc2)[N@H+](Cc2ccc(Br)cc2)C1

$$$$

     RDKit          3D

 66 71  0  0  0  0  0  0  0  0999 V2000
   -0.0143    0.6767   -0.3448 O   0  0  0  0  0  0  0  0  0  0  0  0
    0.4543   -0.1116   -1.1611 C   0  0  0  0  0  0  0  0  0  0  0  0
    1.7563   -0.5419   -1.1871 N   0  0  0  0  0  0  0  0  0  0  0  0
    2.8196   -0.0505   -0.2945 C   0  0  2  0  0  0  0  0  0  0  0  0
    3.0651    1.4664   -0.4841 C   0  0  0  0  0  0  0  0  0  0  0  0
    4.2135    1.9449    0.4219 C   0  0  1  0  0  0  0  0  0  0  0  0
    3.8542    1.6585    1.8900 C   0  0  0  0  0  0  0  0  0  0  0  0
    3.6431    0.1492    2.0992 C   0  0  2  0  0  0  0  0  0  0  0  0
    4.9315   -0.6000    1.7255 C   0  0  0  0  0  0  0  0  0  0  0  0
    5.2905   -0.3249    0.2571 C   0  0  2  0  0  0  0  0  0  0  0  0
    5.4987    1.1847    0.0576 C   0  0  0  0  0  0  0  0  0  0  0  0
    4.1360   -0.7974   -0.6407 C   0  0  0  0  0  0  0  0  0  0  0  0
    2.4942   -0.3304    1.1947 C   0  0  0  0  0  0  0  0  0  0  0  0
   -0.4486   -0.7860   -2.1763 C   0  0  1  0  0  0  0  0  0  0  0  0
   -0.9109   -2.1434   -1.6444 C   0  0  0  0  0  0  0  0  0  0  0  0
   -2.2648   -1.8953   -0.9430 C   0  0  1  0  0  0  0  0  0  0  0  0
   -2.3515   -2.3544    0.4910 C   0  0  0  0  0  0  0  0  0  0  0  0
   -3.3741   -3.2398    0.8738 C   0  0  0  0  0  0  0  0  0  0  0  0
   -3.4940   -3.6634    2.1987 C   0  0  0  0  0  0  0  0  0  0  0  0
   -2.5969   -3.2090    3.1605 C   0  0  0  0  0  0  0  0  0  0  0  0
   -1.5781   -2.3326    2.7992 C   0  0  0  0  0  0  0  0  0  0  0  0
   -1.4550   -1.9070    1.4750 C   0  0  0  0  0  0  0  0  0  0  0  0
   -2.5241   -0.4158   -1.1081 N   0  0  2  0  0  0  0  0  0  0  0  0
   -3.9660   -0.0162   -1.0844 C   0  0  0  0  0  0  0  0  0  0  0  0
   -4.1596    1.4767   -1.1006 C   0  0  0  0  0  0  0  0  0  0  0  0
   -4.6633    2.1205   -2.2418 C   0  0  0  0  0  0  0  0  0  0  0  0
   -4.8163    3.5091   -2.2619 C   0  0  0  0  0  0  0  0  0  0  0  0
   -4.4663    4.2618   -1.1433 C   0  0  0  0  0  0  0  0  0  0  0  0
   -4.6702    6.1395   -1.1744 Br  0  0  0  0  0  0  0  0  0  0  0  0
   -3.9678    3.6383   -0.0022 C   0  0  0  0  0  0  0  0  0  0  0  0
   -3.8153    2.2500    0.0206 C   0  0  0  0  0  0  0  0  0  0  0  0
   -1.7368    0.0057   -2.3199 C   0  0  0  0  0  0  0  0  0  0  0  0
    2.0643   -1.1078   -1.9701 H   0  0  0  0  0  0  0  0  0  0  0  0
    2.1606    2.0407   -0.2504 H   0  0  0  0  0  0  0  0  0  0  0  0
    3.3028    1.6819   -1.5341 H   0  0  0  0  0  0  0  0  0  0  0  0
    4.3690    3.0206    0.2826 H   0  0  0  0  0  0  0  0  0  0  0  0
    4.6551    2.0184    2.5476 H   0  0  0  0  0  0  0  0  0  0  0  0
    2.9450    2.2061    2.1670 H   0  0  0  0  0  0  0  0  0  0  0  0
    3.3932   -0.0471    3.1478 H   0  0  0  0  0  0  0  0  0  0  0  0
    4.7983   -1.6772    1.8838 H   0  0  0  0  0  0  0  0  0  0  0  0
    5.7534   -0.2814    2.3784 H   0  0  0  0  0  0  0  0  0  0  0  0
    6.2081   -0.8626   -0.0061 H   0  0  0  0  0  0  0  0  0  0  0  0
    5.7739    1.3911   -0.9840 H   0  0  0  0  0  0  0  0  0  0  0  0
    6.3303    1.5339    0.6818 H   0  0  0  0  0  0  0  0  0  0  0  0
    3.9963   -1.8807   -0.5260 H   0  0  0  0  0  0  0  0  0  0  0  0
    4.3976   -0.6324   -1.6945 H   0  0  0  0  0  0  0  0  0  0  0  0
    2.3194   -1.4034    1.3476 H   0  0  0  0  0  0  0  0  0  0  0  0
    1.5716    0.1770    1.4984 H   0  0  0  0  0  0  0  0  0  0  0  0
    0.0811   -0.8673   -3.1310 H   0  0  0  0  0  0  0  0  0  0  0  0
   -1.0738   -2.8254   -2.4889 H   0  0  0  0  0  0  0  0  0  0  0  0
   -0.1710   -2.6222   -0.9938 H   0  0  0  0  0  0  0  0  0  0  0  0
   -3.0371   -2.4010   -1.5388 H   0  0  0  0  0  0  0  0  0  0  0  0
   -4.0923   -3.6206    0.1492 H   0  0  0  0  0  0  0  0  0  0  0  0
   -4.2863   -4.3530    2.4842 H   0  0  0  0  0  0  0  0  0  0  0  0
   -2.6890   -3.5418    4.1924 H   0  0  0  0  0  0  0  0  0  0  0  0
   -0.8753   -1.9826    3.5532 H   0  0  0  0  0  0  0  0  0  0  0  0
   -0.6408   -1.2261    1.2406 H   0  0  0  0  0  0  0  0  0  0  0  0
   -2.0698    0.0672   -0.3124 H   0  0  0  0  0  0  0  0  0  0  0  0
   -4.4536   -0.4936   -1.9424 H   0  0  0  0  0  0  0  0  0  0  0  0
   -4.4104   -0.4286   -0.1714 H   0  0  0  0  0  0  0  0  0  0  0  0
   -4.9503    1.5555   -3.1271 H   0  0  0  0  0  0  0  0  0  0  0  0
   -5.2126    3.9967   -3.1503 H   0  0  0  0  0  0  0  0  0  0  0  0
   -3.6989    4.2253    0.8738 H   0  0  0  0  0  0  0  0  0  0  0  0
   -3.4303    1.7863    0.9278 H   0  0  0  0  0  0  0  0  0  0  0  0
   -1.6073    1.0920   -2.3030 H   0  0  0  0  0  0  0  0  0  0  0  0
   -2.3044   -0.3002   -3.2059 H   0  0  0  0  0  0  0  0  0  0  0  0
  1  2  2  0
  2  3  1  0
  4  3  1  6
  4  5  1  0
  5  6  1  0
  6  7  1  0
  7  8  1  0
  8  9  1  0
  9 10  1  0
 10 11  1  0
 10 12  1  0
  8 13  1  0
  2 14  1  0
 14 15  1  0
 15 16  1  0
 16 17  1  0
 17 18  2  0
 18 19  1  0
 19 20  2  0
 20 21  1  0
 21 22  2  0
 16 23  1  0
 23 24  1  0
 24 25  1  0
 25 26  1  0
 26 27  2  0
 27 28  1  0
 28 29  1  0
 28 30  2  0
 30 31  1  0
 23 32  1  0
 12  4  1  0
 32 14  1  0
 13  4  1  0
 22 17  1  0
 31 25  2  0
 11  6  1  0
  3 33  1  0
  5 34  1  0
  5 35  1  0
  6 36  1  1
  7 37  1  0
  7 38  1  0
  8 39  1  1
  9 40  1  0
  9 41  1  0
 10 42  1  6
 11 43  1  0
 11 44  1  0
 12 45  1  0
 12 46  1  0
 13 47  1  0
 13 48  1  0
 14 49  1  6
 15 50  1  0
 15 51  1  0
 16 52  1  6
 18 53  1  0
 19 54  1  0
 20 55  1  0
 21 56  1  0
 22 57  1  0
 23 58  1  1
 24 59  1  0
 24 60  1  0
 26 61  1  0
 27 62  1  0
 30 63  1  0
 31 64  1  0
 32 65  1  0
 32 66  1  0
M  CHG  1  23   1
M  END
>  <_SMILES>  (48) 
O=C(N[C@]12C[C@H]3C[C@H](C[C@H](C3)C1)C2)[C@H]1C[C@@H](c2ccccc2)[N@H+](Cc2ccc(Br)cc2)C1

$$$$

     RDKit          3D

 66 71  0  0  0  0  0  0  0  0999 V2000
   -1.2323    1.4250    0.0987 O   0  0  0  0  0  0  0  0  0  0  0  0
   -0.9974    0.3723   -0.4799 C   0  0  0  0  0  0  0  0  0  0  0  0
   -1.9324   -0.5948   -0.7654 N   0  0  0  0  0  0  0  0  0  0  0  0
   -3.3648   -0.4900   -0.4364 C   0  0  2  0  0  0  0  0  0  0  0  0
   -4.0344    0.6926   -1.1783 C   0  0  0  0  0  0  0  0  0  0  0  0
   -5.5392    0.7474   -0.8600 C   0  0  1  0  0  0  0  0  0  0  0  0
   -6.2029   -0.5622   -1.3145 C   0  0  0  0  0  0  0  0  0  0  0  0
   -5.5717   -1.7541   -0.5776 C   0  0  2  0  0  0  0  0  0  0  0  0
   -5.7684   -1.5790    0.9360 C   0  0  0  0  0  0  0  0  0  0  0  0
   -5.1016   -0.2761    1.4037 C   0  0  2  0  0  0  0  0  0  0  0  0
   -5.7307    0.9128    0.6573 C   0  0  0  0  0  0  0  0  0  0  0  0
   -3.5963   -0.3324    1.0879 C   0  0  0  0  0  0  0  0  0  0  0  0
   -4.0673   -1.7993   -0.8884 C   0  0  0  0  0  0  0  0  0  0  0  0
    0.3977    0.0403   -0.9591 C   0  0  2  0  0  0  0  0  0  0  0  0
    0.9664   -1.2181   -0.3236 C   0  0  0  0  0  0  0  0  0  0  0  0
    2.4689   -1.0591   -0.5446 C   0  0  2  0  0  0  0  0  0  0  0  0
    3.3405   -1.9243    0.3293 C   0  0  0  0  0  0  0  0  0  0  0  0
    3.2300   -1.9150    1.7308 C   0  0  0  0  0  0  0  0  0  0  0  0
    4.0734   -2.7030    2.5164 C   0  0  0  0  0  0  0  0  0  0  0  0
    5.0376   -3.5077    1.9164 C   0  0  0  0  0  0  0  0  0  0  0  0
    5.1599   -3.5291    0.5302 C   0  0  0  0  0  0  0  0  0  0  0  0
    4.3186   -2.7433   -0.2594 C   0  0  0  0  0  0  0  0  0  0  0  0
    2.7041    0.4181   -0.3222 N   0  0  1  0  0  0  0  0  0  0  0  0
    3.8772    0.9805   -1.0743 C   0  0  0  0  0  0  0  0  0  0  0  0
    4.3406    2.2933   -0.5017 C   0  0  0  0  0  0  0  0  0  0  0  0
    5.0944    2.3182    0.6841 C   0  0  0  0  0  0  0  0  0  0  0  0
    5.5030    3.5334    1.2387 C   0  0  0  0  0  0  0  0  0  0  0  0
    5.1604    4.7298    0.6138 C   0  0  0  0  0  0  0  0  0  0  0  0
    5.7117    6.3728    1.3653 Br  0  0  0  0  0  0  0  0  0  0  0  0
    4.4153    4.7221   -0.5629 C   0  0  0  0  0  0  0  0  0  0  0  0
    4.0062    3.5077   -1.1200 C   0  0  0  0  0  0  0  0  0  0  0  0
    1.3814    1.1315   -0.5461 C   0  0  0  0  0  0  0  0  0  0  0  0
   -1.6858   -1.3311   -1.4150 H   0  0  0  0  0  0  0  0  0  0  0  0
   -3.8849    0.5919   -2.2613 H   0  0  0  0  0  0  0  0  0  0  0  0
   -3.5730    1.6453   -0.8925 H   0  0  0  0  0  0  0  0  0  0  0  0
   -5.9961    1.5940   -1.3846 H   0  0  0  0  0  0  0  0  0  0  0  0
   -6.0850   -0.6859   -2.3981 H   0  0  0  0  0  0  0  0  0  0  0  0
   -7.2806   -0.5256   -1.1137 H   0  0  0  0  0  0  0  0  0  0  0  0
   -6.0460   -2.6854   -0.9067 H   0  0  0  0  0  0  0  0  0  0  0  0
   -6.8387   -1.5594    1.1754 H   0  0  0  0  0  0  0  0  0  0  0  0
   -5.3379   -2.4339    1.4718 H   0  0  0  0  0  0  0  0  0  0  0  0
   -5.2474   -0.1539    2.4828 H   0  0  0  0  0  0  0  0  0  0  0  0
   -6.7999    0.9788    0.8938 H   0  0  0  0  0  0  0  0  0  0  0  0
   -5.2722    1.8511    0.9928 H   0  0  0  0  0  0  0  0  0  0  0  0
   -3.1215    0.5797    1.4669 H   0  0  0  0  0  0  0  0  0  0  0  0
   -3.1314   -1.1675    1.6282 H   0  0  0  0  0  0  0  0  0  0  0  0
   -3.6108   -2.6641   -0.3883 H   0  0  0  0  0  0  0  0  0  0  0  0
   -3.9185   -1.9552   -1.9653 H   0  0  0  0  0  0  0  0  0  0  0  0
    0.3835   -0.0507   -2.0526 H   0  0  0  0  0  0  0  0  0  0  0  0
    0.6963   -1.2708    0.7381 H   0  0  0  0  0  0  0  0  0  0  0  0
    0.5858   -2.1298   -0.7971 H   0  0  0  0  0  0  0  0  0  0  0  0
    2.6835   -1.2441   -1.6063 H   0  0  0  0  0  0  0  0  0  0  0  0
    2.4859   -1.3068    2.2417 H   0  0  0  0  0  0  0  0  0  0  0  0
    3.9771   -2.6973    3.6009 H   0  0  0  0  0  0  0  0  0  0  0  0
    5.6907   -4.1252    2.5302 H   0  0  0  0  0  0  0  0  0  0  0  0
    5.9112   -4.1654    0.0657 H   0  0  0  0  0  0  0  0  0  0  0  0
    4.4417   -2.7898   -1.3404 H   0  0  0  0  0  0  0  0  0  0  0  0
    2.9331    0.5360    0.6729 H   0  0  0  0  0  0  0  0  0  0  0  0
    3.5896    1.0668   -2.1287 H   0  0  0  0  0  0  0  0  0  0  0  0
    4.6954    0.2538   -1.0119 H   0  0  0  0  0  0  0  0  0  0  0  0
    5.3865    1.3960    1.1853 H   0  0  0  0  0  0  0  0  0  0  0  0
    6.0924    3.5398    2.1536 H   0  0  0  0  0  0  0  0  0  0  0  0
    4.1531    5.6575   -1.0537 H   0  0  0  0  0  0  0  0  0  0  0  0
    3.4312    3.5313   -2.0442 H   0  0  0  0  0  0  0  0  0  0  0  0
    1.4988    1.8810   -1.3347 H   0  0  0  0  0  0  0  0  0  0  0  0
    1.1458    1.6284    0.4005 H   0  0  0  0  0  0  0  0  0  0  0  0
  1  2  2  0
  2  3  1  0
  4  3  1  1
  4  5  1  0
  5  6  1  0
  6  7  1  0
  7  8  1  0
  8  9  1  0
  9 10  1  0
 10 11  1  0
 10 12  1  0
  8 13  1  0
  2 14  1  0
 14 15  1  0
 15 16  1  0
 16 17  1  0
 17 18  2  0
 18 19  1  0
 19 20  2  0
 20 21  1  0
 21 22  2  0
 16 23  1  0
 23 24  1  0
 24 25  1  0
 25 26  1  0
 26 27  2  0
 27 28  1  0
 28 29  1  0
 28 30  2  0
 30 31  1  0
 23 32  1  0
 12  4  1  0
 32 14  1  0
 13  4  1  0
 22 17  1  0
 31 25  2  0
 11  6  1  0
  3 33  1  0
  5 34  1  0
  5 35  1  0
  6 36  1  6
  7 37  1  0
  7 38  1  0
  8 39  1  6
  9 40  1  0
  9 41  1  0
 10 42  1  1
 11 43  1  0
 11 44  1  0
 12 45  1  0
 12 46  1  0
 13 47  1  0
 13 48  1  0
 14 49  1  6
 15 50  1  0
 15 51  1  0
 16 52  1  6
 18 53  1  0
 19 54  1  0
 20 55  1  0
 21 56  1  0
 22 57  1  0
 23 58  1  1
 24 59  1  0
 24 60  1  0
 26 61  1  0
 27 62  1  0
 30 63  1  0
 31 64  1  0
 32 65  1  0
 32 66  1  0
M  CHG  1  23   1
M  END
>  <_SMILES>  (49) 
O=C(N[C@]12C[C@H]3C[C@H](C[C@H](C3)C1)C2)[C@@H]1C[C@H](c2ccccc2)[N@@H+](Cc2ccc(Br)cc2)C1

$$$$

     RDKit          3D

 66 71  0  0  0  0  0  0  0  0999 V2000
    1.2965   -0.5241   -1.8788 O   0  0  0  0  0  0  0  0  0  0  0  0
    0.9764    0.1518   -0.9098 C   0  0  0  0  0  0  0  0  0  0  0  0
    1.7845    0.4081    0.1747 N   0  0  0  0  0  0  0  0  0  0  0  0
    3.1969   -0.0075    0.2645 C   0  0  2  0  0  0  0  0  0  0  0  0
    4.0574    0.6569   -0.8379 C   0  0  0  0  0  0  0  0  0  0  0  0
    5.5345    0.2522   -0.6870 C   0  0  1  0  0  0  0  0  0  0  0  0
    6.0492    0.7100    0.6870 C   0  0  0  0  0  0  0  0  0  0  0  0
    5.2263    0.0481    1.8036 C   0  0  2  0  0  0  0  0  0  0  0  0
    5.3527   -1.4789    1.6926 C   0  0  0  0  0  0  0  0  0  0  0  0
    4.8329   -1.9493    0.3255 C   0  0  2  0  0  0  0  0  0  0  0  0
    5.6542   -1.2781   -0.7887 C   0  0  0  0  0  0  0  0  0  0  0  0
    3.3547   -1.5471    0.1765 C   0  0  0  0  0  0  0  0  0  0  0  0
    3.7499    0.4442    1.6440 C   0  0  0  0  0  0  0  0  0  0  0  0
   -0.4321    0.6784   -0.7599 C   0  0  1  0  0  0  0  0  0  0  0  0
   -1.1163    0.9779   -2.0900 C   0  0  0  0  0  0  0  0  0  0  0  0
   -2.6077    0.6877   -1.8763 C   0  0  2  0  0  0  0  0  0  0  0  0
   -3.5124    1.8982   -1.8526 C   0  0  0  0  0  0  0  0  0  0  0  0
   -3.2113    3.0403   -1.0908 C   0  0  0  0  0  0  0  0  0  0  0  0
   -4.0907    4.1243   -1.0552 C   0  0  0  0  0  0  0  0  0  0  0  0
   -5.2821    4.0821   -1.7738 C   0  0  0  0  0  0  0  0  0  0  0  0
   -5.5967    2.9579   -2.5314 C   0  0  0  0  0  0  0  0  0  0  0  0
   -4.7204    1.8722   -2.5701 C   0  0  0  0  0  0  0  0  0  0  0  0
   -2.6814   -0.0619   -0.5564 N   0  0  1  0  0  0  0  0  0  0  0  0
   -3.6647   -1.1984   -0.5540 C   0  0  0  0  0  0  0  0  0  0  0  0
   -3.9080   -1.7356    0.8309 C   0  0  0  0  0  0  0  0  0  0  0  0
   -4.7324   -1.0357    1.7274 C   0  0  0  0  0  0  0  0  0  0  0  0
   -4.9316   -1.5125    3.0253 C   0  0  0  0  0  0  0  0  0  0  0  0
   -4.3078   -2.6886    3.4349 C   0  0  0  0  0  0  0  0  0  0  0  0
   -4.5747   -3.3299    5.1914 Br  0  0  0  0  0  0  0  0  0  0  0  0
   -3.4889   -3.3949    2.5570 C   0  0  0  0  0  0  0  0  0  0  0  0
   -3.2885   -2.9204    1.2584 C   0  0  0  0  0  0  0  0  0  0  0  0
   -1.2725   -0.4430   -0.1843 C   0  0  0  0  0  0  0  0  0  0  0  0
    1.5331    1.1837    0.7759 H   0  0  0  0  0  0  0  0  0  0  0  0
    3.7060    0.3673   -1.8354 H   0  0  0  0  0  0  0  0  0  0  0  0
    3.9619    1.7493   -0.7840 H   0  0  0  0  0  0  0  0  0  0  0  0
    6.1281    0.7226   -1.4788 H   0  0  0  0  0  0  0  0  0  0  0  0
    7.1087    0.4478    0.7967 H   0  0  0  0  0  0  0  0  0  0  0  0
    5.9815    1.8018    0.7679 H   0  0  0  0  0  0  0  0  0  0  0  0
    5.5950    0.3796    2.7807 H   0  0  0  0  0  0  0  0  0  0  0  0
    6.4003   -1.7787    1.8190 H   0  0  0  0  0  0  0  0  0  0  0  0
    4.7841   -1.9621    2.4966 H   0  0  0  0  0  0  0  0  0  0  0  0
    4.9280   -3.0383    0.2497 H   0  0  0  0  0  0  0  0  0  0  0  0
    5.3013   -1.6171   -1.7705 H   0  0  0  0  0  0  0  0  0  0  0  0
    6.7067   -1.5767   -0.7084 H   0  0  0  0  0  0  0  0  0  0  0  0
    2.9813   -1.9294   -0.7800 H   0  0  0  0  0  0  0  0  0  0  0  0
    2.7538   -2.0328    0.9565 H   0  0  0  0  0  0  0  0  0  0  0  0
    3.6477    1.5322    1.7540 H   0  0  0  0  0  0  0  0  0  0  0  0
    3.1558   -0.0020    2.4528 H   0  0  0  0  0  0  0  0  0  0  0  0
   -0.4563    1.5622   -0.1128 H   0  0  0  0  0  0  0  0  0  0  0  0
   -0.9104    2.0008   -2.4243 H   0  0  0  0  0  0  0  0  0  0  0  0
   -0.7458    0.3226   -2.8885 H   0  0  0  0  0  0  0  0  0  0  0  0
   -2.9316   -0.0082   -2.6615 H   0  0  0  0  0  0  0  0  0  0  0  0
   -2.2890    3.1196   -0.5207 H   0  0  0  0  0  0  0  0  0  0  0  0
   -3.8467    5.0108   -0.4724 H   0  0  0  0  0  0  0  0  0  0  0  0
   -5.9633    4.9306   -1.7504 H   0  0  0  0  0  0  0  0  0  0  0  0
   -6.5256    2.9330   -3.0985 H   0  0  0  0  0  0  0  0  0  0  0  0
   -4.9974    1.0126   -3.1790 H   0  0  0  0  0  0  0  0  0  0  0  0
   -3.0204    0.6061    0.1471 H   0  0  0  0  0  0  0  0  0  0  0  0
   -3.2861   -1.9726   -1.2318 H   0  0  0  0  0  0  0  0  0  0  0  0
   -4.6065   -0.8206   -0.9688 H   0  0  0  0  0  0  0  0  0  0  0  0
   -5.2421   -0.1210    1.4275 H   0  0  0  0  0  0  0  0  0  0  0  0
   -5.5794   -0.9668    3.7088 H   0  0  0  0  0  0  0  0  0  0  0  0
   -3.0086   -4.3184    2.8751 H   0  0  0  0  0  0  0  0  0  0  0  0
   -2.6499   -3.4959    0.5897 H   0  0  0  0  0  0  0  0  0  0  0  0
   -1.2073   -0.5078    0.9062 H   0  0  0  0  0  0  0  0  0  0  0  0
   -1.0531   -1.4181   -0.6353 H   0  0  0  0  0  0  0  0  0  0  0  0
  1  2  2  0
  2  3  1  0
  4  3  1  6
  4  5  1  0
  5  6  1  0
  6  7  1  0
  7  8  1  0
  8  9  1  0
  9 10  1  0
 10 11  1  0
 10 12  1  0
  8 13  1  0
  2 14  1  0
 14 15  1  0
 15 16  1  0
 16 17  1  0
 17 18  2  0
 18 19  1  0
 19 20  2  0
 20 21  1  0
 21 22  2  0
 16 23  1  0
 23 24  1  0
 24 25  1  0
 25 26  1  0
 26 27  2  0
 27 28  1  0
 28 29  1  0
 28 30  2  0
 30 31  1  0
 23 32  1  0
 12  4  1  0
 32 14  1  0
 13  4  1  0
 22 17  1  0
 31 25  2  0
 11  6  1  0
  3 33  1  0
  5 34  1  0
  5 35  1  0
  6 36  1  6
  7 37  1  0
  7 38  1  0
  8 39  1  1
  9 40  1  0
  9 41  1  0
 10 42  1  1
 11 43  1  0
 11 44  1  0
 12 45  1  0
 12 46  1  0
 13 47  1  0
 13 48  1  0
 14 49  1  1
 15 50  1  0
 15 51  1  0
 16 52  1  6
 18 53  1  0
 19 54  1  0
 20 55  1  0
 21 56  1  0
 22 57  1  0
 23 58  1  1
 24 59  1  0
 24 60  1  0
 26 61  1  0
 27 62  1  0
 30 63  1  0
 31 64  1  0
 32 65  1  0
 32 66  1  0
M  CHG  1  23   1
M  END
>  <_SMILES>  (50) 
O=C(N[C@]12C[C@H]3C[C@H](C[C@H](C3)C1)C2)[C@H]1C[C@H](c2ccccc2)[N@@H+](Cc2ccc(Br)cc2)C1

$$$$

     RDKit          3D

 66 71  0  0  0  0  0  0  0  0999 V2000
    0.0923    0.2404   -0.8005 O   0  0  0  0  0  0  0  0  0  0  0  0
    0.6633    0.7029    0.1845 C   0  0  0  0  0  0  0  0  0  0  0  0
    2.0183    0.8640    0.3132 N   0  0  0  0  0  0  0  0  0  0  0  0
    2.9984    0.6017   -0.7544 C   0  0  2  0  0  0  0  0  0  0  0  0
    4.4186    0.9032   -0.2040 C   0  0  0  0  0  0  0  0  0  0  0  0
    5.4903    0.6510   -1.2763 C   0  0  1  0  0  0  0  0  0  0  0  0
    5.4265   -0.8199   -1.7160 C   0  0  0  0  0  0  0  0  0  0  0  0
    4.0356   -1.1363   -2.2874 C   0  0  2  0  0  0  0  0  0  0  0  0
    3.7619   -0.2213   -3.4934 C   0  0  0  0  0  0  0  0  0  0  0  0
    3.8230    1.2545   -3.0636 C   0  0  2  0  0  0  0  0  0  0  0  0
    5.2152    1.5569   -2.4869 C   0  0  0  0  0  0  0  0  0  0  0  0
    2.7577    1.5124   -1.9833 C   0  0  0  0  0  0  0  0  0  0  0  0
    2.9707   -0.8803   -1.2062 C   0  0  0  0  0  0  0  0  0  0  0  0
   -0.1302    1.0264    1.4375 C   0  0  2  0  0  0  0  0  0  0  0  0
   -0.2008   -0.2069    2.3308 C   0  0  0  0  0  0  0  0  0  0  0  0
   -1.3318   -1.0768    1.7308 C   0  0  1  0  0  0  0  0  0  0  0  0
   -2.1634   -1.8028    2.7632 C   0  0  0  0  0  0  0  0  0  0  0  0
   -2.7554   -1.1408    3.8531 C   0  0  0  0  0  0  0  0  0  0  0  0
   -3.5402   -1.8403    4.7722 C   0  0  0  0  0  0  0  0  0  0  0  0
   -3.7479   -3.2076    4.6158 C   0  0  0  0  0  0  0  0  0  0  0  0
   -3.1721   -3.8790    3.5414 C   0  0  0  0  0  0  0  0  0  0  0  0
   -2.3867   -3.1833    2.6206 C   0  0  0  0  0  0  0  0  0  0  0  0
   -2.0968   -0.1336    0.8094 N   0  0  1  0  0  0  0  0  0  0  0  0
   -3.5801   -0.2968    0.6860 C   0  0  0  0  0  0  0  0  0  0  0  0
   -4.1585    0.5068   -0.4517 C   0  0  0  0  0  0  0  0  0  0  0  0
   -4.9335    1.6492   -0.1957 C   0  0  0  0  0  0  0  0  0  0  0  0
   -5.4451    2.4094   -1.2505 C   0  0  0  0  0  0  0  0  0  0  0  0
   -5.1849    2.0333   -2.5660 C   0  0  0  0  0  0  0  0  0  0  0  0
   -5.8739    3.0648   -3.9907 Br  0  0  0  0  0  0  0  0  0  0  0  0
   -4.4206    0.9012   -2.8373 C   0  0  0  0  0  0  0  0  0  0  0  0
   -3.9092    0.1389   -1.7843 C   0  0  0  0  0  0  0  0  0  0  0  0
   -1.5896    1.2583    1.0841 C   0  0  0  0  0  0  0  0  0  0  0  0
    2.3745    1.3494    1.1293 H   0  0  0  0  0  0  0  0  0  0  0  0
    4.4774    1.9453    0.1379 H   0  0  0  0  0  0  0  0  0  0  0  0
    4.6217    0.2801    0.6774 H   0  0  0  0  0  0  0  0  0  0  0  0
    6.4825    0.8718   -0.8672 H   0  0  0  0  0  0  0  0  0  0  0  0
    5.6398   -1.4761   -0.8634 H   0  0  0  0  0  0  0  0  0  0  0  0
    6.1965   -1.0191   -2.4715 H   0  0  0  0  0  0  0  0  0  0  0  0
    3.9962   -2.1849   -2.6027 H   0  0  0  0  0  0  0  0  0  0  0  0
    4.5004   -0.4116   -4.2819 H   0  0  0  0  0  0  0  0  0  0  0  0
    2.7765   -0.4471   -3.9191 H   0  0  0  0  0  0  0  0  0  0  0  0
    3.6340    1.8995   -3.9290 H   0  0  0  0  0  0  0  0  0  0  0  0
    5.2766    2.6107   -2.1886 H   0  0  0  0  0  0  0  0  0  0  0  0
    5.9817    1.3984   -3.2554 H   0  0  0  0  0  0  0  0  0  0  0  0
    2.7798    2.5677   -1.6810 H   0  0  0  0  0  0  0  0  0  0  0  0
    1.7635    1.3368   -2.4111 H   0  0  0  0  0  0  0  0  0  0  0  0
    1.9873   -1.1520   -1.6068 H   0  0  0  0  0  0  0  0  0  0  0  0
    3.1443   -1.5401   -0.3460 H   0  0  0  0  0  0  0  0  0  0  0  0
    0.3076    1.8924    1.9433 H   0  0  0  0  0  0  0  0  0  0  0  0
   -0.4172    0.1070    3.3578 H   0  0  0  0  0  0  0  0  0  0  0  0
    0.7406   -0.7675    2.3638 H   0  0  0  0  0  0  0  0  0  0  0  0
   -0.8762   -1.8110    1.0530 H   0  0  0  0  0  0  0  0  0  0  0  0
   -2.6226   -0.0725    4.0088 H   0  0  0  0  0  0  0  0  0  0  0  0
   -3.9900   -1.3217    5.6170 H   0  0  0  0  0  0  0  0  0  0  0  0
   -4.3559   -3.7527    5.3352 H   0  0  0  0  0  0  0  0  0  0  0  0
   -3.3332   -4.9493    3.4252 H   0  0  0  0  0  0  0  0  0  0  0  0
   -1.9500   -3.7427    1.7940 H   0  0  0  0  0  0  0  0  0  0  0  0
   -1.7202   -0.3385   -0.1351 H   0  0  0  0  0  0  0  0  0  0  0  0
   -4.0331   -0.0009    1.6376 H   0  0  0  0  0  0  0  0  0  0  0  0
   -3.7839   -1.3596    0.5126 H   0  0  0  0  0  0  0  0  0  0  0  0
   -5.1577    1.9602    0.8234 H   0  0  0  0  0  0  0  0  0  0  0  0
   -6.0495    3.2893   -1.0391 H   0  0  0  0  0  0  0  0  0  0  0  0
   -4.2223    0.6040   -3.8653 H   0  0  0  0  0  0  0  0  0  0  0  0
   -3.3218   -0.7460   -2.0245 H   0  0  0  0  0  0  0  0  0  0  0  0
   -1.7402    1.8736    0.1919 H   0  0  0  0  0  0  0  0  0  0  0  0
   -2.1583    1.6575    1.9309 H   0  0  0  0  0  0  0  0  0  0  0  0
  1  2  2  0
  2  3  1  0
  4  3  1  1
  4  5  1  0
  5  6  1  0
  6  7  1  0
  7  8  1  0
  8  9  1  0
  9 10  1  0
 10 11  1  0
 10 12  1  0
  8 13  1  0
  2 14  1  0
 14 15  1  0
 15 16  1  0
 16 17  1  0
 17 18  2  0
 18 19  1  0
 19 20  2  0
 20 21  1  0
 21 22  2  0
 16 23  1  0
 23 24  1  0
 24 25  1  0
 25 26  1  0
 26 27  2  0
 27 28  1  0
 28 29  1  0
 28 30  2  0
 30 31  1  0
 23 32  1  0
 12  4  1  0
 32 14  1  0
 13  4  1  0
 22 17  1  0
 31 25  2  0
 11  6  1  0
  3 33  1  0
  5 34  1  0
  5 35  1  0
  6 36  1  1
  7 37  1  0
  7 38  1  0
  8 39  1  6
  9 40  1  0
  9 41  1  0
 10 42  1  6
 11 43  1  0
 11 44  1  0
 12 45  1  0
 12 46  1  0
 13 47  1  0
 13 48  1  0
 14 49  1  1
 15 50  1  0
 15 51  1  0
 16 52  1  6
 18 53  1  0
 19 54  1  0
 20 55  1  0
 21 56  1  0
 22 57  1  0
 23 58  1  6
 24 59  1  0
 24 60  1  0
 26 61  1  0
 27 62  1  0
 30 63  1  0
 31 64  1  0
 32 65  1  0
 32 66  1  0
M  CHG  1  23   1
M  END
>  <_SMILES>  (51) 
O=C(N[C@]12C[C@H]3C[C@H](C[C@H](C3)C1)C2)[C@@H]1C[C@@H](c2ccccc2)[N@@H+](Cc2ccc(Br)cc2)C1

$$$$

     RDKit          3D

 66 71  0  0  0  0  0  0  0  0999 V2000
   -1.1703   -0.7966    0.5874 O   0  0  0  0  0  0  0  0  0  0  0  0
   -1.0909    0.4044    0.3656 C   0  0  0  0  0  0  0  0  0  0  0  0
   -2.1132    1.1833   -0.1272 N   0  0  0  0  0  0  0  0  0  0  0  0
   -3.4877    0.6931   -0.3436 C   0  0  2  0  0  0  0  0  0  0  0  0
   -4.3328    1.8580   -0.9283 C   0  0  0  0  0  0  0  0  0  0  0  0
   -5.7849    1.4181   -1.1728 C   0  0  1  0  0  0  0  0  0  0  0  0
   -5.7957    0.2478   -2.1679 C   0  0  0  0  0  0  0  0  0  0  0  0
   -4.9844   -0.9279   -1.6021 C   0  0  2  0  0  0  0  0  0  0  0  0
   -5.6030   -1.3762   -0.2668 C   0  0  0  0  0  0  0  0  0  0  0  0
   -5.5974   -0.2111    0.7377 C   0  0  2  0  0  0  0  0  0  0  0  0
   -6.4042    0.9615    0.1576 C   0  0  0  0  0  0  0  0  0  0  0  0
   -4.1467    0.2409    0.9824 C   0  0  0  0  0  0  0  0  0  0  0  0
   -3.5330   -0.4761   -1.3606 C   0  0  0  0  0  0  0  0  0  0  0  0
    0.2275    1.1328    0.4976 C   0  0  1  0  0  0  0  0  0  0  0  0
    1.0963    0.6202    1.6510 C   0  0  0  0  0  0  0  0  0  0  0  0
    2.4668    0.2446    1.0646 C   0  0  1  0  0  0  0  0  0  0  0  0
    2.7826   -1.2338    1.1350 C   0  0  0  0  0  0  0  0  0  0  0  0
    1.9356   -2.2240    0.6134 C   0  0  0  0  0  0  0  0  0  0  0  0
    2.2780   -3.5762    0.6962 C   0  0  0  0  0  0  0  0  0  0  0  0
    3.4677   -3.9626    1.3054 C   0  0  0  0  0  0  0  0  0  0  0  0
    4.3144   -2.9988    1.8416 C   0  0  0  0  0  0  0  0  0  0  0  0
    3.9736   -1.6471    1.7611 C   0  0  0  0  0  0  0  0  0  0  0  0
    2.4512    0.8810   -0.3184 N   0  0  1  0  0  0  0  0  0  0  0  0
    3.4204    0.3589   -1.3452 C   0  0  0  0  0  0  0  0  0  0  0  0
    4.8600    0.6657   -1.0246 C   0  0  0  0  0  0  0  0  0  0  0  0
    5.3170    1.9920   -0.9440 C   0  0  0  0  0  0  0  0  0  0  0  0
    6.6533    2.2649   -0.6382 C   0  0  0  0  0  0  0  0  0  0  0  0
    7.5437    1.2163   -0.4208 C   0  0  0  0  0  0  0  0  0  0  0  0
    9.3478    1.5878   -0.0035 Br  0  0  0  0  0  0  0  0  0  0  0  0
    7.1125   -0.1035   -0.5162 C   0  0  0  0  0  0  0  0  0  0  0  0
    5.7775   -0.3773   -0.8234 C   0  0  0  0  0  0  0  0  0  0  0  0
    1.0193    0.8646   -0.7688 C   0  0  0  0  0  0  0  0  0  0  0  0
   -2.0391    2.1860   -0.0022 H   0  0  0  0  0  0  0  0  0  0  0  0
   -4.3196    2.7155   -0.2421 H   0  0  0  0  0  0  0  0  0  0  0  0
   -3.8881    2.2116   -1.8681 H   0  0  0  0  0  0  0  0  0  0  0  0
   -6.3617    2.2556   -1.5809 H   0  0  0  0  0  0  0  0  0  0  0  0
   -5.3728    0.5676   -3.1282 H   0  0  0  0  0  0  0  0  0  0  0  0
   -6.8276   -0.0684   -2.3639 H   0  0  0  0  0  0  0  0  0  0  0  0
   -4.9975   -1.7612   -2.3135 H   0  0  0  0  0  0  0  0  0  0  0  0
   -5.0404   -2.2251    0.1407 H   0  0  0  0  0  0  0  0  0  0  0  0
   -6.6306   -1.7241   -0.4294 H   0  0  0  0  0  0  0  0  0  0  0  0
   -6.0464   -0.5360    1.6829 H   0  0  0  0  0  0  0  0  0  0  0  0
   -6.4190    1.7952    0.8703 H   0  0  0  0  0  0  0  0  0  0  0  0
   -7.4466    0.6580    0.0010 H   0  0  0  0  0  0  0  0  0  0  0  0
   -4.1291    1.0616    1.7115 H   0  0  0  0  0  0  0  0  0  0  0  0
   -3.5853   -0.5845    1.4362 H   0  0  0  0  0  0  0  0  0  0  0  0
   -3.0737   -0.1686   -2.3092 H   0  0  0  0  0  0  0  0  0  0  0  0
   -2.9530   -1.3345   -1.0037 H   0  0  0  0  0  0  0  0  0  0  0  0
    0.0561    2.2084    0.6253 H   0  0  0  0  0  0  0  0  0  0  0  0
    1.2319    1.4405    2.3688 H   0  0  0  0  0  0  0  0  0  0  0  0
    0.6372   -0.1942    2.2221 H   0  0  0  0  0  0  0  0  0  0  0  0
    3.2397    0.7954    1.6164 H   0  0  0  0  0  0  0  0  0  0  0  0
    0.9836   -1.9802    0.1504 H   0  0  0  0  0  0  0  0  0  0  0  0
    1.6054   -4.3336    0.2973 H   0  0  0  0  0  0  0  0  0  0  0  0
    3.7264   -5.0171    1.3763 H   0  0  0  0  0  0  0  0  0  0  0  0
    5.2376   -3.3024    2.3313 H   0  0  0  0  0  0  0  0  0  0  0  0
    4.6599   -0.9223    2.1985 H   0  0  0  0  0  0  0  0  0  0  0  0
    2.7101    1.8614   -0.1686 H   0  0  0  0  0  0  0  0  0  0  0  0
    3.2394   -0.7121   -1.4815 H   0  0  0  0  0  0  0  0  0  0  0  0
    3.1670    0.8509   -2.2927 H   0  0  0  0  0  0  0  0  0  0  0  0
    4.6542    2.8328   -1.1369 H   0  0  0  0  0  0  0  0  0  0  0  0
    6.9967    3.2961   -0.5822 H   0  0  0  0  0  0  0  0  0  0  0  0
    7.8088   -0.9251   -0.3599 H   0  0  0  0  0  0  0  0  0  0  0  0
    5.4682   -1.4198   -0.9020 H   0  0  0  0  0  0  0  0  0  0  0  0
    0.8151   -0.1072   -1.2308 H   0  0  0  0  0  0  0  0  0  0  0  0
    0.8926    1.6550   -1.5159 H   0  0  0  0  0  0  0  0  0  0  0  0
  1  2  2  0
  2  3  1  0
  4  3  1  1
  4  5  1  0
  5  6  1  0
  6  7  1  0
  7  8  1  0
  8  9  1  0
  9 10  1  0
 10 11  1  0
 10 12  1  0
  8 13  1  0
  2 14  1  0
 14 15  1  0
 15 16  1  0
 16 17  1  0
 17 18  2  0
 18 19  1  0
 19 20  2  0
 20 21  1  0
 21 22  2  0
 16 23  1  0
 23 24  1  0
 24 25  1  0
 25 26  1  0
 26 27  2  0
 27 28  1  0
 28 29  1  0
 28 30  2  0
 30 31  1  0
 23 32  1  0
 12  4  1  0
 32 14  1  0
 13  4  1  0
 22 17  1  0
 31 25  2  0
 11  6  1  0
  3 33  1  0
  5 34  1  0
  5 35  1  0
  6 36  1  6
  7 37  1  0
  7 38  1  0
  8 39  1  6
  9 40  1  0
  9 41  1  0
 10 42  1  1
 11 43  1  0
 11 44  1  0
 12 45  1  0
 12 46  1  0
 13 47  1  0
 13 48  1  0
 14 49  1  1
 15 50  1  0
 15 51  1  0
 16 52  1  1
 18 53  1  0
 19 54  1  0
 20 55  1  0
 21 56  1  0
 22 57  1  0
 23 58  1  1
 24 59  1  0
 24 60  1  0
 26 61  1  0
 27 62  1  0
 30 63  1  0
 31 64  1  0
 32 65  1  0
 32 66  1  0
M  CHG  1  23   1
M  END
>  <_SMILES>  (52) 
O=C(N[C@]12C[C@H]3C[C@H](C[C@H](C3)C1)C2)[C@H]1C[C@@H](c2ccccc2)[N@@H+](Cc2ccc(Br)cc2)C1

$$$$

     RDKit          3D

 70 74  0  0  0  0  0  0  0  0999 V2000
   -1.7520   -3.6133    0.3157 C   0  0  0  0  0  0  0  0  0  0  0  0
   -1.7250   -2.1554    0.0223 C   0  0  0  0  0  0  0  0  0  0  0  0
   -0.5846   -1.3098    0.0946 C   0  0  0  0  0  0  0  0  0  0  0  0
    0.8012   -1.6784    0.4465 C   0  0  0  0  0  0  0  0  0  0  0  0
    1.1564   -2.8307    0.6727 O   0  0  0  0  0  0  0  0  0  0  0  0
    1.6527   -0.5936    0.4771 N   0  0  0  0  0  0  0  0  0  0  0  0
    3.1010   -0.7136    0.6062 C   0  0  1  0  0  0  0  0  0  0  0  0
    3.6997   -1.1566   -0.7347 C   0  0  0  0  0  0  0  0  0  0  0  0
    5.1136   -0.6876   -1.0954 C   0  0  2  0  0  0  0  0  0  0  0  0
    6.1455   -0.8848    0.0264 C   0  0  0  0  0  0  0  0  0  0  0  0
    6.2085    0.2538    1.0565 C   0  0  1  0  0  0  0  0  0  0  0  0
    6.3099    1.6088    0.3561 C   0  0  0  0  0  0  0  0  0  0  0  0
    5.0842    1.8089   -0.5353 C   0  0  1  0  0  0  0  0  0  0  0  0
    5.1006    0.7485   -1.6357 C   0  0  0  0  0  0  0  0  0  0  0  0
    3.7942    1.7681    0.2990 C   0  0  0  0  0  0  0  0  0  0  0  0
    3.6716    0.5647    1.2531 C   0  0  2  0  0  0  0  0  0  0  0  0
    4.9927    0.2726    1.9826 C   0  0  0  0  0  0  0  0  0  0  0  0
   -0.9107   -0.0354   -0.1817 N   0  0  0  0  0  0  0  0  0  0  0  0
   -2.2079   -0.0762   -0.5778 N   0  0  0  0  0  0  0  0  0  0  0  0
   -2.7514    1.0845   -1.2039 C   0  0  0  0  0  0  0  0  0  0  0  0
   -3.7595    0.9980   -2.1714 C   0  0  0  0  0  0  0  0  0  0  0  0
   -4.2609    2.1580   -2.7747 C   0  0  0  0  0  0  0  0  0  0  0  0
   -3.7377    3.4086   -2.4214 C   0  0  0  0  0  0  0  0  0  0  0  0
   -4.2641    4.6242   -3.0548 N   0  0  0  0  0  0  0  0  0  0  0  0
   -3.7625    5.7089   -2.7273 O   0  0  0  0  0  0  0  0  0  0  0  0
   -5.1809    4.4933   -3.8784 O   0  0  0  0  0  0  0  0  0  0  0  0
   -2.7057    3.5053   -1.4820 C   0  0  0  0  0  0  0  0  0  0  0  0
   -2.2081    2.3427   -0.8856 C   0  0  0  0  0  0  0  0  0  0  0  0
   -2.7855   -1.3082   -0.2849 C   0  0  0  0  0  0  0  0  0  0  0  0
   -4.2604   -1.6059   -0.2389 C   0  0  0  0  0  0  0  0  0  0  0  0
   -4.9508   -1.3253    1.1284 C   0  0  0  0  0  0  0  0  0  0  0  0
   -6.4378   -1.7179    0.9932 C   0  0  0  0  0  0  0  0  0  0  0  0
   -4.3400   -2.1612    2.2665 C   0  0  0  0  0  0  0  0  0  0  0  0
   -4.8843    0.1642    1.5076 C   0  0  0  0  0  0  0  0  0  0  0  0
   -1.0261   -4.1429   -0.3096 H   0  0  0  0  0  0  0  0  0  0  0  0
   -2.7328   -4.0543    0.1187 H   0  0  0  0  0  0  0  0  0  0  0  0
   -1.5058   -3.7955    1.3667 H   0  0  0  0  0  0  0  0  0  0  0  0
    1.2349    0.2727    0.1467 H   0  0  0  0  0  0  0  0  0  0  0  0
    3.2596   -1.5394    1.3133 H   0  0  0  0  0  0  0  0  0  0  0  0
    3.0245   -0.8759   -1.5555 H   0  0  0  0  0  0  0  0  0  0  0  0
    3.6957   -2.2562   -0.7469 H   0  0  0  0  0  0  0  0  0  0  0  0
    5.4250   -1.3292   -1.9324 H   0  0  0  0  0  0  0  0  0  0  0  0
    5.9845   -1.8464    0.5290 H   0  0  0  0  0  0  0  0  0  0  0  0
    7.1358   -0.9540   -0.4447 H   0  0  0  0  0  0  0  0  0  0  0  0
    7.1034    0.1081    1.6744 H   0  0  0  0  0  0  0  0  0  0  0  0
    6.3746    2.4166    1.0956 H   0  0  0  0  0  0  0  0  0  0  0  0
    7.2284    1.6569   -0.2420 H   0  0  0  0  0  0  0  0  0  0  0  0
    5.1523    2.7946   -1.0127 H   0  0  0  0  0  0  0  0  0  0  0  0
    6.0036    0.8953   -2.2440 H   0  0  0  0  0  0  0  0  0  0  0  0
    4.2551    0.8994   -2.3180 H   0  0  0  0  0  0  0  0  0  0  0  0
    3.7763    2.6779    0.9151 H   0  0  0  0  0  0  0  0  0  0  0  0
    2.9175    1.8354   -0.3559 H   0  0  0  0  0  0  0  0  0  0  0  0
    2.9556    0.8580    2.0358 H   0  0  0  0  0  0  0  0  0  0  0  0
    4.9288   -0.6692    2.5411 H   0  0  0  0  0  0  0  0  0  0  0  0
    5.1470    1.0546    2.7389 H   0  0  0  0  0  0  0  0  0  0  0  0
   -4.1276    0.0423   -2.5315 H   0  0  0  0  0  0  0  0  0  0  0  0
   -5.0410    2.0665   -3.5285 H   0  0  0  0  0  0  0  0  0  0  0  0
   -2.2781    4.4669   -1.2050 H   0  0  0  0  0  0  0  0  0  0  0  0
   -1.4066    2.4328   -0.1529 H   0  0  0  0  0  0  0  0  0  0  0  0
   -4.4022   -2.6648   -0.4936 H   0  0  0  0  0  0  0  0  0  0  0  0
   -4.8067   -1.0719   -1.0154 H   0  0  0  0  0  0  0  0  0  0  0  0
   -6.9316   -1.1343    0.2079 H   0  0  0  0  0  0  0  0  0  0  0  0
   -6.9828   -1.5434    1.9279 H   0  0  0  0  0  0  0  0  0  0  0  0
   -6.5454   -2.7787    0.7397 H   0  0  0  0  0  0  0  0  0  0  0  0
   -4.9062   -2.0320    3.1963 H   0  0  0  0  0  0  0  0  0  0  0  0
   -3.3071   -1.8672    2.4784 H   0  0  0  0  0  0  0  0  0  0  0  0
   -4.3488   -3.2290    2.0223 H   0  0  0  0  0  0  0  0  0  0  0  0
   -5.2926    0.7949    0.7105 H   0  0  0  0  0  0  0  0  0  0  0  0
   -5.4657    0.3648    2.4152 H   0  0  0  0  0  0  0  0  0  0  0  0
   -3.8579    0.4873    1.7083 H   0  0  0  0  0  0  0  0  0  0  0  0
  1  2  1  0
  2  3  1  0
  3  4  1  0
  4  5  2  0
  4  6  1  0
  6  7  1  0
  7  8  1  0
  8  9  1  0
  9 10  1  0
 10 11  1  0
 11 12  1  0
 12 13  1  0
 13 14  1  0
 13 15  1  0
 15 16  1  0
 16 17  1  0
  3 18  2  0
 18 19  1  0
 19 20  1  0
 20 21  1  0
 21 22  2  0
 22 23  1  0
 23 24  1  0
 24 25  2  0
 24 26  1  0
 23 27  2  0
 27 28  1  0
 19 29  1  0
 29 30  1  0
 30 31  1  0
 31 32  1  0
 31 33  1  0
 31 34  1  0
 29  2  2  0
 16  7  1  0
 28 20  2  0
 14  9  1  0
 17 11  1  0
  1 35  1  0
  1 36  1  0
  1 37  1  0
  6 38  1  0
  7 39  1  1
  8 40  1  0
  8 41  1  0
  9 42  1  6
 10 43  1  0
 10 44  1  0
 11 45  1  1
 12 46  1  0
 12 47  1  0
 13 48  1  6
 14 49  1  0
 14 50  1  0
 15 51  1  0
 15 52  1  0
 16 53  1  1
 17 54  1  0
 17 55  1  0
 21 56  1  0
 22 57  1  0
 27 58  1  0
 28 59  1  0
 30 60  1  0
 30 61  1  0
 32 62  1  0
 32 63  1  0
 32 64  1  0
 33 65  1  0
 33 66  1  0
 33 67  1  0
 34 68  1  0
 34 69  1  0
 34 70  1  0
M  CHG  2  24   1  26  -1
M  END
>  <_SMILES>  (53) 
Cc1c(C(=O)N[C@H]2C[C@@H]3C[C@H]4C[C@@H](C3)C[C@@H]2C4)nn(-c2ccc([N+](=O)[O-])cc2)c1CC(C)(C)C

$$$$

     RDKit          3D

 60 65  0  0  0  0  0  0  0  0999 V2000
   -1.5309    2.8355   -1.3751 C   0  0  0  0  0  0  0  0  0  0  0  0
   -1.6741    1.5556   -0.6294 C   0  0  0  0  0  0  0  0  0  0  0  0
   -0.6173    0.7136   -0.1980 C   0  0  0  0  0  0  0  0  0  0  0  0
    0.8365    0.9258   -0.3574 C   0  0  0  0  0  0  0  0  0  0  0  0
    1.3106    1.9208   -0.8940 O   0  0  0  0  0  0  0  0  0  0  0  0
    1.5829   -0.1085    0.1645 N   0  0  0  0  0  0  0  0  0  0  0  0
    3.0391   -0.2005    0.1803 C   0  0  2  0  0  0  0  0  0  0  0  0
    3.4407   -1.5347    0.8637 C   0  0  0  0  0  0  0  0  0  0  0  0
    4.9690   -1.6909    0.9120 C   0  0  1  0  0  0  0  0  0  0  0  0
    5.5227   -1.6742   -0.5214 C   0  0  0  0  0  0  0  0  0  0  0  0
    5.1581   -0.3492   -1.2094 C   0  0  2  0  0  0  0  0  0  0  0  0
    5.7557    0.8199   -0.4080 C   0  0  0  0  0  0  0  0  0  0  0  0
    5.2063    0.8124    1.0288 C   0  0  2  0  0  0  0  0  0  0  0  0
    5.5705   -0.5193    1.7038 C   0  0  0  0  0  0  0  0  0  0  0  0
    3.6750    0.9591    0.9861 C   0  0  0  0  0  0  0  0  0  0  0  0
    3.6268   -0.2029   -1.2527 C   0  0  0  0  0  0  0  0  0  0  0  0
   -1.0897   -0.3933    0.3981 N   0  0  0  0  0  0  0  0  0  0  0  0
   -2.4443   -0.2478    0.4327 N   0  0  0  0  0  0  0  0  0  0  0  0
   -3.2090   -1.2432    1.1290 C   0  0  0  0  0  0  0  0  0  0  0  0
   -2.5756   -2.4457    1.5007 C   0  0  0  0  0  0  0  0  0  0  0  0
   -3.2760   -3.4474    2.1809 C   0  0  0  0  0  0  0  0  0  0  0  0
   -4.6137   -3.2543    2.5062 C   0  0  0  0  0  0  0  0  0  0  0  0
   -5.4794   -4.4818    3.3432 Cl  0  0  0  0  0  0  0  0  0  0  0  0
   -5.2518   -2.0661    2.1628 C   0  0  0  0  0  0  0  0  0  0  0  0
   -4.5522   -1.0613    1.4810 C   0  0  0  0  0  0  0  0  0  0  0  0
   -2.8424    0.9075   -0.2432 C   0  0  0  0  0  0  0  0  0  0  0  0
   -4.2131    1.3074   -0.5526 C   0  0  0  0  0  0  0  0  0  0  0  0
   -4.9545    0.6082   -1.5135 C   0  0  0  0  0  0  0  0  0  0  0  0
   -6.2596    1.0004   -1.8163 C   0  0  0  0  0  0  0  0  0  0  0  0
   -6.8268    2.0975   -1.1692 C   0  0  0  0  0  0  0  0  0  0  0  0
   -6.0896    2.8079   -0.2226 C   0  0  0  0  0  0  0  0  0  0  0  0
   -4.7845    2.4177    0.0825 C   0  0  0  0  0  0  0  0  0  0  0  0
   -1.0295    3.5832   -0.7522 H   0  0  0  0  0  0  0  0  0  0  0  0
   -0.9394    2.6850   -2.2840 H   0  0  0  0  0  0  0  0  0  0  0  0
   -2.4971    3.2477   -1.6795 H   0  0  0  0  0  0  0  0  0  0  0  0
    1.0234   -0.8480    0.5832 H   0  0  0  0  0  0  0  0  0  0  0  0
    2.9988   -2.3832    0.3241 H   0  0  0  0  0  0  0  0  0  0  0  0
    3.0325   -1.5747    1.8826 H   0  0  0  0  0  0  0  0  0  0  0  0
    5.2292   -2.6379    1.3978 H   0  0  0  0  0  0  0  0  0  0  0  0
    6.6122   -1.8001   -0.5038 H   0  0  0  0  0  0  0  0  0  0  0  0
    5.1139   -2.5175   -1.0914 H   0  0  0  0  0  0  0  0  0  0  0  0
    5.5583   -0.3407   -2.2294 H   0  0  0  0  0  0  0  0  0  0  0  0
    5.5140    1.7717   -0.8968 H   0  0  0  0  0  0  0  0  0  0  0  0
    6.8496    0.7401   -0.3901 H   0  0  0  0  0  0  0  0  0  0  0  0
    5.6407    1.6440    1.5948 H   0  0  0  0  0  0  0  0  0  0  0  0
    5.1962   -0.5318    2.7348 H   0  0  0  0  0  0  0  0  0  0  0  0
    6.6609   -0.6253    1.7597 H   0  0  0  0  0  0  0  0  0  0  0  0
    3.2726    0.9741    2.0076 H   0  0  0  0  0  0  0  0  0  0  0  0
    3.4207    1.9290    0.5424 H   0  0  0  0  0  0  0  0  0  0  0  0
    3.1897   -1.0221   -1.8386 H   0  0  0  0  0  0  0  0  0  0  0  0
    3.3711    0.7227   -1.7820 H   0  0  0  0  0  0  0  0  0  0  0  0
   -1.5306   -2.6284    1.2556 H   0  0  0  0  0  0  0  0  0  0  0  0
   -2.7694   -4.3702    2.4508 H   0  0  0  0  0  0  0  0  0  0  0  0
   -6.2939   -1.9062    2.4290 H   0  0  0  0  0  0  0  0  0  0  0  0
   -5.0926   -0.1446    1.2792 H   0  0  0  0  0  0  0  0  0  0  0  0
   -4.5204   -0.2431   -2.0333 H   0  0  0  0  0  0  0  0  0  0  0  0
   -6.8317    0.4530   -2.5613 H   0  0  0  0  0  0  0  0  0  0  0  0
   -7.8422    2.4040   -1.4087 H   0  0  0  0  0  0  0  0  0  0  0  0
   -6.5295    3.6686    0.2748 H   0  0  0  0  0  0  0  0  0  0  0  0
   -4.2170    2.9827    0.8188 H   0  0  0  0  0  0  0  0  0  0  0  0
  1  2  1  0
  2  3  1  0
  3  4  1  0
  4  5  2  0
  4  6  1  0
  7  6  1  6
  7  8  1  0
  8  9  1  0
  9 10  1  0
 10 11  1  0
 11 12  1  0
 12 13  1  0
 13 14  1  0
 13 15  1  0
 11 16  1  0
  3 17  2  0
 17 18  1  0
 18 19  1  0
 19 20  1  0
 20 21  2  0
 21 22  1  0
 22 23  1  0
 22 24  2  0
 24 25  1  0
 18 26  1  0
 26 27  1  0
 27 28  2  0
 28 29  1  0
 29 30  2  0
 30 31  1  0
 31 32  2  0
 26  2  2  0
 32 27  1  0
 15  7  1  0
 25 19  2  0
 16  7  1  0
 14  9  1  0
  1 33  1  0
  1 34  1  0
  1 35  1  0
  6 36  1  0
  8 37  1  0
  8 38  1  0
  9 39  1  1
 10 40  1  0
 10 41  1  0
 11 42  1  6
 12 43  1  0
 12 44  1  0
 13 45  1  1
 14 46  1  0
 14 47  1  0
 15 48  1  0
 15 49  1  0
 16 50  1  0
 16 51  1  0
 20 52  1  0
 21 53  1  0
 24 54  1  0
 25 55  1  0
 28 56  1  0
 29 57  1  0
 30 58  1  0
 31 59  1  0
 32 60  1  0
M  END
>  <_SMILES>  (54) 
Cc1c(C(=O)N[C@]23C[C@H]4C[C@H](C[C@H](C4)C2)C3)nn(-c2ccc(Cl)cc2)c1-c1ccccc1

$$$$

     RDKit          3D

 66 71  0  0  0  0  0  0  0  0999 V2000
    0.1918   -3.3268   -1.8036 C   0  0  0  0  0  0  0  0  0  0  0  0
    0.6190   -2.0098   -1.2642 C   0  0  0  0  0  0  0  0  0  0  0  0
   -0.2287   -0.9827   -0.7494 C   0  0  0  0  0  0  0  0  0  0  0  0
   -1.7019   -0.9945   -0.6360 C   0  0  0  0  0  0  0  0  0  0  0  0
   -2.3926   -1.9442   -0.9886 O   0  0  0  0  0  0  0  0  0  0  0  0
   -2.1981    0.1716   -0.0943 N   0  0  0  0  0  0  0  0  0  0  0  0
   -3.6021    0.4839    0.1476 C   0  0  2  0  0  0  0  0  0  0  0  0
   -4.4209    0.4852   -1.1670 C   0  0  0  0  0  0  0  0  0  0  0  0
   -5.8867    0.8643   -0.8913 C   0  0  1  0  0  0  0  0  0  0  0  0
   -6.4945   -0.1481    0.0945 C   0  0  0  0  0  0  0  0  0  0  0  0
   -5.7111   -0.1338    1.4182 C   0  0  2  0  0  0  0  0  0  0  0  0
   -5.7656    1.2774    2.0243 C   0  0  0  0  0  0  0  0  0  0  0  0
   -5.1519    2.2923    1.0471 C   0  0  2  0  0  0  0  0  0  0  0  0
   -5.9401    2.2698   -0.2719 C   0  0  0  0  0  0  0  0  0  0  0  0
   -3.6912    1.9036    0.7681 C   0  0  0  0  0  0  0  0  0  0  0  0
   -4.2452   -0.5131    1.1431 C   0  0  0  0  0  0  0  0  0  0  0  0
    0.4903    0.0832   -0.3393 N   0  0  0  0  0  0  0  0  0  0  0  0
    1.7676   -0.2603   -0.5945 N   0  0  0  0  0  0  0  0  0  0  0  0
    2.8244    0.6753   -0.2467 C   0  0  0  0  0  0  0  0  0  0  0  0
    3.3232    0.4545    1.1776 C   0  0  0  0  0  0  0  0  0  0  0  0
    4.4985    1.3455    1.4915 C   0  0  0  0  0  0  0  0  0  0  0  0
    5.7994    0.9409    1.1617 C   0  0  0  0  0  0  0  0  0  0  0  0
    6.8864    1.7737    1.4296 C   0  0  0  0  0  0  0  0  0  0  0  0
    6.6829    3.0174    2.0248 C   0  0  0  0  0  0  0  0  0  0  0  0
    5.3923    3.4302    2.3515 C   0  0  0  0  0  0  0  0  0  0  0  0
    4.3032    2.5995    2.0844 C   0  0  0  0  0  0  0  0  0  0  0  0
    1.9067   -1.5091   -1.1492 C   0  0  0  0  0  0  0  0  0  0  0  0
    3.1869   -2.1151   -1.4925 C   0  0  0  0  0  0  0  0  0  0  0  0
    3.7978   -3.0133   -0.6107 C   0  0  0  0  0  0  0  0  0  0  0  0
    5.0308   -3.5837   -0.9311 C   0  0  0  0  0  0  0  0  0  0  0  0
    5.6553   -3.2635   -2.1359 C   0  0  0  0  0  0  0  0  0  0  0  0
    5.0466   -2.3769   -3.0235 C   0  0  0  0  0  0  0  0  0  0  0  0
    3.8136   -1.8053   -2.7043 C   0  0  0  0  0  0  0  0  0  0  0  0
   -0.3176   -3.9091   -1.0292 H   0  0  0  0  0  0  0  0  0  0  0  0
   -0.4938   -3.1908   -2.6461 H   0  0  0  0  0  0  0  0  0  0  0  0
    1.0416   -3.9168   -2.1601 H   0  0  0  0  0  0  0  0  0  0  0  0
   -1.4765    0.8521    0.1351 H   0  0  0  0  0  0  0  0  0  0  0  0
   -4.3905   -0.5000   -1.6475 H   0  0  0  0  0  0  0  0  0  0  0  0
   -3.9814    1.1903   -1.8848 H   0  0  0  0  0  0  0  0  0  0  0  0
   -6.4532    0.8526   -1.8292 H   0  0  0  0  0  0  0  0  0  0  0  0
   -6.4748   -1.1543   -0.3419 H   0  0  0  0  0  0  0  0  0  0  0  0
   -7.5473    0.0975    0.2807 H   0  0  0  0  0  0  0  0  0  0  0  0
   -6.1531   -0.8528    2.1170 H   0  0  0  0  0  0  0  0  0  0  0  0
   -5.2219    1.2976    2.9768 H   0  0  0  0  0  0  0  0  0  0  0  0
   -6.8047    1.5507    2.2450 H   0  0  0  0  0  0  0  0  0  0  0  0
   -5.1908    3.2963    1.4840 H   0  0  0  0  0  0  0  0  0  0  0  0
   -5.5220    3.0040   -0.9715 H   0  0  0  0  0  0  0  0  0  0  0  0
   -6.9823    2.5602   -0.0907 H   0  0  0  0  0  0  0  0  0  0  0  0
   -3.1128    1.9448    1.7008 H   0  0  0  0  0  0  0  0  0  0  0  0
   -3.2350    2.6399    0.0928 H   0  0  0  0  0  0  0  0  0  0  0  0
   -4.2084   -1.5363    0.7507 H   0  0  0  0  0  0  0  0  0  0  0  0
   -3.6796   -0.5249    2.0841 H   0  0  0  0  0  0  0  0  0  0  0  0
    2.4209    1.6882   -0.3699 H   0  0  0  0  0  0  0  0  0  0  0  0
    3.6295    0.5671   -0.9811 H   0  0  0  0  0  0  0  0  0  0  0  0
    2.5146    0.6391    1.8969 H   0  0  0  0  0  0  0  0  0  0  0  0
    3.6160   -0.5916    1.3327 H   0  0  0  0  0  0  0  0  0  0  0  0
    5.9741   -0.0261    0.6937 H   0  0  0  0  0  0  0  0  0  0  0  0
    7.8926    1.4523    1.1737 H   0  0  0  0  0  0  0  0  0  0  0  0
    7.5301    3.6652    2.2339 H   0  0  0  0  0  0  0  0  0  0  0  0
    5.2339    4.4006    2.8149 H   0  0  0  0  0  0  0  0  0  0  0  0
    3.3021    2.9373    2.3435 H   0  0  0  0  0  0  0  0  0  0  0  0
    3.3159   -3.2737    0.3290 H   0  0  0  0  0  0  0  0  0  0  0  0
    5.5013   -4.2814   -0.2430 H   0  0  0  0  0  0  0  0  0  0  0  0
    6.6137   -3.7111   -2.3870 H   0  0  0  0  0  0  0  0  0  0  0  0
    5.5294   -2.1341   -3.9666 H   0  0  0  0  0  0  0  0  0  0  0  0
    3.3435   -1.1209   -3.4069 H   0  0  0  0  0  0  0  0  0  0  0  0
  1  2  1  0
  2  3  1  0
  3  4  1  0
  4  5  2  0
  4  6  1  0
  7  6  1  6
  7  8  1  0
  8  9  1  0
  9 10  1  0
 10 11  1  0
 11 12  1  0
 12 13  1  0
 13 14  1  0
 13 15  1  0
 11 16  1  0
  3 17  2  0
 17 18  1  0
 18 19  1  0
 19 20  1  0
 20 21  1  0
 21 22  2  0
 22 23  1  0
 23 24  2  0
 24 25  1  0
 25 26  2  0
 18 27  1  0
 27 28  1  0
 28 29  2  0
 29 30  1  0
 30 31  2  0
 31 32  1  0
 32 33  2  0
 27  2  2  0
 33 28  1  0
 15  7  1  0
 26 21  1  0
 16  7  1  0
 14  9  1  0
  1 34  1  0
  1 35  1  0
  1 36  1  0
  6 37  1  0
  8 38  1  0
  8 39  1  0
  9 40  1  6
 10 41  1  0
 10 42  1  0
 11 43  1  1
 12 44  1  0
 12 45  1  0
 13 46  1  1
 14 47  1  0
 14 48  1  0
 15 49  1  0
 15 50  1  0
 16 51  1  0
 16 52  1  0
 19 53  1  0
 19 54  1  0
 20 55  1  0
 20 56  1  0
 22 57  1  0
 23 58  1  0
 24 59  1  0
 25 60  1  0
 26 61  1  0
 29 62  1  0
 30 63  1  0
 31 64  1  0
 32 65  1  0
 33 66  1  0
M  END
>  <_SMILES>  (55) 
Cc1c(C(=O)N[C@]23C[C@H]4C[C@H](C[C@H](C4)C2)C3)nn(CCc2ccccc2)c1-c1ccccc1

$$$$

     RDKit          3D

 55 59  0  0  0  0  0  0  0  0999 V2000
    4.9418    0.4364   -3.4991 C   0  0  0  0  0  0  0  0  0  0  0  0
    4.7073    0.9751   -2.4511 C   0  0  0  0  0  0  0  0  0  0  0  0
    4.4267    1.6422   -1.1703 C   0  0  0  0  0  0  0  0  0  0  0  0
    3.2575    1.0908   -0.4893 N   0  0  0  0  0  0  0  0  0  0  0  0
    2.0693    1.7107   -0.6267 N   0  0  0  0  0  0  0  0  0  0  0  0
    1.2194    1.0030    0.1351 C   0  0  0  0  0  0  0  0  0  0  0  0
   -0.2100    1.3675    0.2181 C   0  0  0  0  0  0  0  0  0  0  0  0
   -0.5975    2.5273    0.3147 O   0  0  0  0  0  0  0  0  0  0  0  0
   -1.0627    0.2774    0.1495 N   0  0  0  0  0  0  0  0  0  0  0  0
   -2.5236    0.3658    0.0951 C   0  0  2  0  0  0  0  0  0  0  0  0
   -3.0944   -1.0783    0.0556 C   0  0  0  0  0  0  0  0  0  0  0  0
   -4.6298   -1.0644   -0.0098 C   0  0  1  0  0  0  0  0  0  0  0  0
   -5.1801   -0.3459    1.2315 C   0  0  0  0  0  0  0  0  0  0  0  0
   -4.6483    1.0946    1.2812 C   0  0  2  0  0  0  0  0  0  0  0  0
   -5.0881    1.8426    0.0110 C   0  0  0  0  0  0  0  0  0  0  0  0
   -4.5422    1.1311   -1.2388 C   0  0  2  0  0  0  0  0  0  0  0  0
   -5.0736   -0.3106   -1.2734 C   0  0  0  0  0  0  0  0  0  0  0  0
   -3.0046    1.1054   -1.1771 C   0  0  0  0  0  0  0  0  0  0  0  0
   -3.1108    1.0683    1.3459 C   0  0  0  0  0  0  0  0  0  0  0  0
    1.8983   -0.0772    0.7885 C   0  0  0  0  0  0  0  0  0  0  0  0
    1.3249   -1.0615    1.7436 C   0  0  0  0  0  0  0  0  0  0  0  0
    3.2134    0.0049    0.3541 C   0  0  0  0  0  0  0  0  0  0  0  0
    4.3678   -0.8191    0.6890 C   0  0  0  0  0  0  0  0  0  0  0  0
    4.8031   -1.8174   -0.1889 C   0  0  0  0  0  0  0  0  0  0  0  0
    5.9121   -2.6017    0.1334 C   0  0  0  0  0  0  0  0  0  0  0  0
    6.5876   -2.3947    1.3355 C   0  0  0  0  0  0  0  0  0  0  0  0
    6.1546   -1.4056    2.2177 C   0  0  0  0  0  0  0  0  0  0  0  0
    5.0463   -0.6200    1.8965 C   0  0  0  0  0  0  0  0  0  0  0  0
    5.1447   -0.0372   -4.4321 H   0  0  0  0  0  0  0  0  0  0  0  0
    4.2390    2.7110   -1.3250 H   0  0  0  0  0  0  0  0  0  0  0  0
    5.2779    1.5603   -0.4865 H   0  0  0  0  0  0  0  0  0  0  0  0
   -0.6399   -0.5770   -0.1886 H   0  0  0  0  0  0  0  0  0  0  0  0
   -2.7654   -1.6382    0.9414 H   0  0  0  0  0  0  0  0  0  0  0  0
   -2.6945   -1.6186   -0.8131 H   0  0  0  0  0  0  0  0  0  0  0  0
   -5.0084   -2.0922   -0.0403 H   0  0  0  0  0  0  0  0  0  0  0  0
   -4.8851   -0.8861    2.1395 H   0  0  0  0  0  0  0  0  0  0  0  0
   -6.2767   -0.3404    1.2064 H   0  0  0  0  0  0  0  0  0  0  0  0
   -5.0458    1.6041    2.1662 H   0  0  0  0  0  0  0  0  0  0  0  0
   -4.7260    2.8777    0.0411 H   0  0  0  0  0  0  0  0  0  0  0  0
   -6.1831    1.8898   -0.0344 H   0  0  0  0  0  0  0  0  0  0  0  0
   -4.8659    1.6653   -2.1391 H   0  0  0  0  0  0  0  0  0  0  0  0
   -4.7019   -0.8258   -2.1677 H   0  0  0  0  0  0  0  0  0  0  0  0
   -6.1684   -0.3050   -1.3413 H   0  0  0  0  0  0  0  0  0  0  0  0
   -2.6032    0.6147   -2.0735 H   0  0  0  0  0  0  0  0  0  0  0  0
   -2.6277    2.1349   -1.1967 H   0  0  0  0  0  0  0  0  0  0  0  0
   -2.7447    2.0977    1.4299 H   0  0  0  0  0  0  0  0  0  0  0  0
   -2.7833    0.5511    2.2573 H   0  0  0  0  0  0  0  0  0  0  0  0
    0.8716   -1.8966    1.2004 H   0  0  0  0  0  0  0  0  0  0  0  0
    0.5582   -0.5977    2.3723 H   0  0  0  0  0  0  0  0  0  0  0  0
    2.0902   -1.4673    2.4123 H   0  0  0  0  0  0  0  0  0  0  0  0
    4.2815   -1.9905   -1.1275 H   0  0  0  0  0  0  0  0  0  0  0  0
    6.2478   -3.3747   -0.5530 H   0  0  0  0  0  0  0  0  0  0  0  0
    7.4506   -3.0065    1.5862 H   0  0  0  0  0  0  0  0  0  0  0  0
    6.6791   -1.2466    3.1565 H   0  0  0  0  0  0  0  0  0  0  0  0
    4.7152    0.1475    2.5926 H   0  0  0  0  0  0  0  0  0  0  0  0
  1  2  3  0
  2  3  1  0
  3  4  1  0
  4  5  1  0
  5  6  2  0
  6  7  1  0
  7  8  2  0
  7  9  1  0
 10  9  1  1
 10 11  1  0
 11 12  1  0
 12 13  1  0
 13 14  1  0
 14 15  1  0
 15 16  1  0
 16 17  1  0
 16 18  1  0
 14 19  1  0
  6 20  1  0
 20 21  1  0
 20 22  2  0
 22 23  1  0
 23 24  2  0
 24 25  1  0
 25 26  2  0
 26 27  1  0
 27 28  2  0
 22  4  1  0
 28 23  1  0
 18 10  1  0
 19 10  1  0
 17 12  1  0
  1 29  1  0
  3 30  1  0
  3 31  1  0
  9 32  1  0
 11 33  1  0
 11 34  1  0
 12 35  1  6
 13 36  1  0
 13 37  1  0
 14 38  1  1
 15 39  1  0
 15 40  1  0
 16 41  1  6
 17 42  1  0
 17 43  1  0
 18 44  1  0
 18 45  1  0
 19 46  1  0
 19 47  1  0
 21 48  1  0
 21 49  1  0
 21 50  1  0
 24 51  1  0
 25 52  1  0
 26 53  1  0
 27 54  1  0
 28 55  1  0
M  END
>  <_SMILES>  (56) 
C#CCn1nc(C(=O)N[C@]23C[C@H]4C[C@H](C[C@H](C4)C2)C3)c(C)c1-c1ccccc1

$$$$

     RDKit          3D

 33 35  0  0  0  0  0  0  0  0999 V2000
    4.2875   -0.2907    0.5558 C   0  0  0  0  0  0  0  0  0  0  0  0
    2.9603   -0.4090   -0.1461 C   0  0  0  0  0  0  0  0  0  0  0  0
    2.8792   -0.8030   -1.3036 O   0  0  0  0  0  0  0  0  0  0  0  0
    1.8909   -0.0139    0.6265 N   0  0  0  0  0  0  0  0  0  0  0  0
    0.4958    0.0156    0.1731 C   0  0  2  0  0  0  0  0  0  0  0  0
   -0.0027   -1.3892   -0.2502 C   0  0  0  0  0  0  0  0  0  0  0  0
   -1.4818   -1.3348   -0.6725 C   0  0  1  0  0  0  0  0  0  0  0  0
   -2.3309   -0.8461    0.5112 C   0  0  0  0  0  0  0  0  0  0  0  0
   -1.8725    0.5558    0.9414 C   0  0  2  0  0  0  0  0  0  0  0  0
   -2.0305    1.5278   -0.2383 C   0  0  0  0  0  0  0  0  0  0  0  0
   -1.1798    1.0530   -1.4270 C   0  0  2  0  0  0  0  0  0  0  0  0
   -1.6367   -0.3543   -1.8476 C   0  0  0  0  0  0  0  0  0  0  0  0
    0.2995    1.0010   -1.0056 C   0  0  0  0  0  0  0  0  0  0  0  0
   -0.3926    0.4981    1.3522 C   0  0  0  0  0  0  0  0  0  0  0  0
    4.7635    0.6499    0.2670 H   0  0  0  0  0  0  0  0  0  0  0  0
    4.1695   -0.3175    1.6427 H   0  0  0  0  0  0  0  0  0  0  0  0
    4.9243   -1.1305    0.2636 H   0  0  0  0  0  0  0  0  0  0  0  0
    2.0939    0.3966    1.5286 H   0  0  0  0  0  0  0  0  0  0  0  0
    0.5897   -1.7822   -1.0845 H   0  0  0  0  0  0  0  0  0  0  0  0
    0.1239   -2.0996    0.5773 H   0  0  0  0  0  0  0  0  0  0  0  0
   -1.8148   -2.3331   -0.9780 H   0  0  0  0  0  0  0  0  0  0  0  0
   -2.2401   -1.5451    1.3517 H   0  0  0  0  0  0  0  0  0  0  0  0
   -3.3906   -0.8239    0.2287 H   0  0  0  0  0  0  0  0  0  0  0  0
   -2.4783    0.8995    1.7872 H   0  0  0  0  0  0  0  0  0  0  0  0
   -3.0851    1.5906   -0.5335 H   0  0  0  0  0  0  0  0  0  0  0  0
   -1.7236    2.5368    0.0631 H   0  0  0  0  0  0  0  0  0  0  0  0
   -1.2996    1.7467   -2.2667 H   0  0  0  0  0  0  0  0  0  0  0  0
   -1.0455   -0.6998   -2.7046 H   0  0  0  0  0  0  0  0  0  0  0  0
   -2.6835   -0.3252   -2.1742 H   0  0  0  0  0  0  0  0  0  0  0  0
    0.9068    0.7044   -1.8689 H   0  0  0  0  0  0  0  0  0  0  0  0
    0.6419    2.0042   -0.7198 H   0  0  0  0  0  0  0  0  0  0  0  0
   -0.2731   -0.1728    2.2135 H   0  0  0  0  0  0  0  0  0  0  0  0
   -0.0649    1.4905    1.6900 H   0  0  0  0  0  0  0  0  0  0  0  0
  1  2  1  0
  2  3  2  0
  2  4  1  0
  5  4  1  1
  5  6  1  0
  6  7  1  0
  7  8  1  0
  8  9  1  0
  9 10  1  0
 10 11  1  0
 11 12  1  0
 11 13  1  0
  9 14  1  0
 13  5  1  0
 14  5  1  0
 12  7  1  0
  1 15  1  0
  1 16  1  0
  1 17  1  0
  4 18  1  0
  6 19  1  0
  6 20  1  0
  7 21  1  6
  8 22  1  0
  8 23  1  0
  9 24  1  1
 10 25  1  0
 10 26  1  0
 11 27  1  6
 12 28  1  0
 12 29  1  0
 13 30  1  0
 13 31  1  0
 14 32  1  0
 14 33  1  0
M  END
>  <_SMILES>  (57) 
CC(=O)N[C@]12C[C@H]3C[C@H](C[C@H](C3)C1)C2

$$$$

     RDKit          3D

 65 70  0  0  0  0  0  0  0  0999 V2000
   -0.3395   -1.8249    1.6175 C   0  0  0  0  0  0  0  0  0  0  0  0
   -1.0453   -0.7474    0.8617 C   0  0  0  0  0  0  0  0  0  0  0  0
   -0.4503    0.4156    0.2609 C   0  0  0  0  0  0  0  0  0  0  0  0
    0.9492    0.8389    0.1575 C   0  0  0  0  0  0  0  0  0  0  0  0
    1.2648    2.0214    0.0929 O   0  0  0  0  0  0  0  0  0  0  0  0
    1.8478   -0.2025    0.0769 N   0  0  0  0  0  0  0  0  0  0  0  0
    3.2882   -0.0500   -0.1387 C   0  0  2  0  0  0  0  0  0  0  0  0
    3.9334   -1.4628   -0.1196 C   0  0  0  0  0  0  0  0  0  0  0  0
    5.4509   -1.3805   -0.3480 C   0  0  1  0  0  0  0  0  0  0  0  0
    5.7207   -0.7201   -1.7092 C   0  0  0  0  0  0  0  0  0  0  0  0
    5.1141    0.6918   -1.7374 C   0  0  2  0  0  0  0  0  0  0  0  0
    5.7423    1.5359   -0.6154 C   0  0  0  0  0  0  0  0  0  0  0  0
    5.4769    0.8822    0.7515 C   0  0  2  0  0  0  0  0  0  0  0  0
    6.0821   -0.5299    0.7648 C   0  0  0  0  0  0  0  0  0  0  0  0
    3.9578    0.7875    0.9805 C   0  0  0  0  0  0  0  0  0  0  0  0
    3.5947    0.5975   -1.5112 C   0  0  0  0  0  0  0  0  0  0  0  0
   -1.4991    1.1744   -0.2232 C   0  0  0  0  0  0  0  0  0  0  0  0
   -2.6802    0.5130   -0.0099 N   0  0  0  0  0  0  0  0  0  0  0  0
   -3.9920    1.0185   -0.4271 C   0  0  0  0  0  0  0  0  0  0  0  0
   -4.0796    1.2219   -1.9469 C   0  0  0  0  0  0  0  0  0  0  0  0
   -5.2770    2.0995   -2.2698 C   0  0  0  0  0  0  0  0  0  0  0  0
   -5.2109    3.3931   -1.6720 O   0  0  0  0  0  0  0  0  0  0  0  0
   -4.3570    3.5087   -0.5344 C   0  0  0  0  0  0  0  0  0  0  0  0
   -4.4061    2.2762    0.3538 C   0  0  0  0  0  0  0  0  0  0  0  0
   -2.4243   -0.6700    0.6578 C   0  0  0  0  0  0  0  0  0  0  0  0
   -3.4577   -1.6206    1.0795 C   0  0  0  0  0  0  0  0  0  0  0  0
   -3.5404   -2.8762    0.4641 C   0  0  0  0  0  0  0  0  0  0  0  0
   -4.5127   -3.7973    0.8647 C   0  0  0  0  0  0  0  0  0  0  0  0
   -5.4079   -3.4734    1.8850 C   0  0  0  0  0  0  0  0  0  0  0  0
   -5.3319   -2.2277    2.5061 C   0  0  0  0  0  0  0  0  0  0  0  0
   -4.3614   -1.3133    2.1037 C   0  0  0  0  0  0  0  0  0  0  0  0
   -4.3184   -0.1176    2.7115 F   0  0  0  0  0  0  0  0  0  0  0  0
    0.0105   -2.6023    0.9313 H   0  0  0  0  0  0  0  0  0  0  0  0
   -0.9967   -2.2932    2.3572 H   0  0  0  0  0  0  0  0  0  0  0  0
    0.5197   -1.4246    2.1647 H   0  0  0  0  0  0  0  0  0  0  0  0
    1.4447   -1.1050   -0.1294 H   0  0  0  0  0  0  0  0  0  0  0  0
    3.4790   -2.0958   -0.8938 H   0  0  0  0  0  0  0  0  0  0  0  0
    3.7282   -1.9581    0.8390 H   0  0  0  0  0  0  0  0  0  0  0  0
    5.8826   -2.3875   -0.3336 H   0  0  0  0  0  0  0  0  0  0  0  0
    5.2903   -1.3292   -2.5136 H   0  0  0  0  0  0  0  0  0  0  0  0
    6.8009   -0.6677   -1.8928 H   0  0  0  0  0  0  0  0  0  0  0  0
    5.3138    1.1598   -2.7079 H   0  0  0  0  0  0  0  0  0  0  0  0
    6.8226    1.6316   -0.7802 H   0  0  0  0  0  0  0  0  0  0  0  0
    5.3268    2.5510   -0.6326 H   0  0  0  0  0  0  0  0  0  0  0  0
    5.9322    1.4860    1.5445 H   0  0  0  0  0  0  0  0  0  0  0  0
    7.1685   -0.4738    0.6235 H   0  0  0  0  0  0  0  0  0  0  0  0
    5.9119   -1.0018    1.7403 H   0  0  0  0  0  0  0  0  0  0  0  0
    3.5433    1.8013    1.0170 H   0  0  0  0  0  0  0  0  0  0  0  0
    3.7545    0.3375    1.9611 H   0  0  0  0  0  0  0  0  0  0  0  0
    3.1596    1.6020   -1.5753 H   0  0  0  0  0  0  0  0  0  0  0  0
    3.1330    0.0113   -2.3166 H   0  0  0  0  0  0  0  0  0  0  0  0
   -1.4715    2.1376   -0.7170 H   0  0  0  0  0  0  0  0  0  0  0  0
   -4.7200    0.2390   -0.1764 H   0  0  0  0  0  0  0  0  0  0  0  0
   -4.1646    0.2526   -2.4520 H   0  0  0  0  0  0  0  0  0  0  0  0
   -3.1742    1.7027   -2.3359 H   0  0  0  0  0  0  0  0  0  0  0  0
   -5.3637    2.2401   -3.3520 H   0  0  0  0  0  0  0  0  0  0  0  0
   -6.2043    1.6216   -1.9332 H   0  0  0  0  0  0  0  0  0  0  0  0
   -3.3382    3.7104   -0.8827 H   0  0  0  0  0  0  0  0  0  0  0  0
   -4.6812    4.3899    0.0287 H   0  0  0  0  0  0  0  0  0  0  0  0
   -5.4421    2.1411    0.6917 H   0  0  0  0  0  0  0  0  0  0  0  0
   -3.7962    2.4246    1.2521 H   0  0  0  0  0  0  0  0  0  0  0  0
   -2.8479   -3.1411   -0.3318 H   0  0  0  0  0  0  0  0  0  0  0  0
   -4.5699   -4.7694    0.3805 H   0  0  0  0  0  0  0  0  0  0  0  0
   -6.1625   -4.1916    2.1962 H   0  0  0  0  0  0  0  0  0  0  0  0
   -6.0205   -1.9614    3.3018 H   0  0  0  0  0  0  0  0  0  0  0  0
  1  2  1  0
  2  3  1  0
  3  4  1  0
  4  5  2  0
  4  6  1  0
  7  6  1  1
  7  8  1  0
  8  9  1  0
  9 10  1  0
 10 11  1  0
 11 12  1  0
 12 13  1  0
 13 14  1  0
 13 15  1  0
 11 16  1  0
  3 17  2  0
 17 18  1  0
 18 19  1  0
 19 20  1  0
 20 21  1  0
 21 22  1  0
 22 23  1  0
 23 24  1  0
 18 25  1  0
 25 26  1  0
 26 27  2  0
 27 28  1  0
 28 29  2  0
 29 30  1  0
 30 31  2  0
 31 32  1  0
 25  2  2  0
 31 26  1  0
 15  7  1  0
 24 19  1  0
 16  7  1  0
 14  9  1  0
  1 33  1  0
  1 34  1  0
  1 35  1  0
  6 36  1  0
  8 37  1  0
  8 38  1  0
  9 39  1  6
 10 40  1  0
 10 41  1  0
 11 42  1  6
 12 43  1  0
 12 44  1  0
 13 45  1  1
 14 46  1  0
 14 47  1  0
 15 48  1  0
 15 49  1  0
 16 50  1  0
 16 51  1  0
 17 52  1  0
 19 53  1  0
 20 54  1  0
 20 55  1  0
 21 56  1  0
 21 57  1  0
 23 58  1  0
 23 59  1  0
 24 60  1  0
 24 61  1  0
 27 62  1  0
 28 63  1  0
 29 64  1  0
 30 65  1  0
M  END
>  <_SMILES>  (58) 
Cc1c(C(=O)N[C@]23C[C@H]4C[C@H](C[C@H](C4)C2)C3)cn(C2CCOCC2)c1-c1ccccc1F

$$$$

     RDKit          3D

 61 66  0  0  0  0  0  0  0  0999 V2000
    0.8260   -2.0082    0.6097 C   0  0  0  0  0  0  0  0  0  0  0  0
    1.3320   -0.6862    0.1302 C   0  0  0  0  0  0  0  0  0  0  0  0
    0.5824    0.2984   -0.5988 C   0  0  0  0  0  0  0  0  0  0  0  0
   -0.8307    0.3417   -0.9794 C   0  0  0  0  0  0  0  0  0  0  0  0
   -1.2074    0.9011   -2.0023 O   0  0  0  0  0  0  0  0  0  0  0  0
   -1.6753   -0.2419   -0.0609 N   0  0  0  0  0  0  0  0  0  0  0  0
   -3.1372   -0.2369   -0.1472 C   0  0  2  0  0  0  0  0  0  0  0  0
   -3.6973   -1.0367    1.0606 C   0  0  0  0  0  0  0  0  0  0  0  0
   -5.2336   -1.0672    1.0385 C   0  0  1  0  0  0  0  0  0  0  0  0
   -5.7672    0.3729    1.0949 C   0  0  0  0  0  0  0  0  0  0  0  0
   -5.2465    1.1735   -0.1093 C   0  0  2  0  0  0  0  0  0  0  0  0
   -5.7134    0.4957   -1.4088 C   0  0  0  0  0  0  0  0  0  0  0  0
   -5.1833   -0.9470   -1.4740 C   0  0  2  0  0  0  0  0  0  0  0  0
   -5.7053   -1.7345   -0.2624 C   0  0  0  0  0  0  0  0  0  0  0  0
   -3.6448   -0.9225   -1.4413 C   0  0  0  0  0  0  0  0  0  0  0  0
   -3.7081    1.2005   -0.0757 C   0  0  0  0  0  0  0  0  0  0  0  0
    1.4893    1.2709   -0.9713 C   0  0  0  0  0  0  0  0  0  0  0  0
    2.7127    1.0141   -0.3973 N   0  0  0  0  0  0  0  0  0  0  0  0
    3.8385    1.8647   -0.5527 C   0  0  0  0  0  0  0  0  0  0  0  0
    4.1938    2.2316   -1.8629 C   0  0  0  0  0  0  0  0  0  0  0  0
    5.3225    3.0193   -2.0896 C   0  0  0  0  0  0  0  0  0  0  0  0
    6.0909    3.4588   -1.0148 C   0  0  0  0  0  0  0  0  0  0  0  0
    5.7184    3.1317    0.2904 C   0  0  0  0  0  0  0  0  0  0  0  0
    4.5854    2.3442    0.5318 C   0  0  0  0  0  0  0  0  0  0  0  0
    4.0501    2.1739    2.3479 Br  0  0  0  0  0  0  0  0  0  0  0  0
    2.6490   -0.2255    0.2377 C   0  0  0  0  0  0  0  0  0  0  0  0
    3.8122   -0.9462    0.7809 C   0  0  0  0  0  0  0  0  0  0  0  0
    4.9209   -1.2311   -0.0270 C   0  0  0  0  0  0  0  0  0  0  0  0
    6.0158   -1.9274    0.4900 C   0  0  0  0  0  0  0  0  0  0  0  0
    6.0089   -2.3537    1.8166 C   0  0  0  0  0  0  0  0  0  0  0  0
    4.9064   -2.0888    2.6262 C   0  0  0  0  0  0  0  0  0  0  0  0
    3.8114   -1.3929    2.1092 C   0  0  0  0  0  0  0  0  0  0  0  0
    0.0259   -2.3839   -0.0357 H   0  0  0  0  0  0  0  0  0  0  0  0
    1.6147   -2.7670    0.6048 H   0  0  0  0  0  0  0  0  0  0  0  0
    0.4399   -1.9178    1.6298 H   0  0  0  0  0  0  0  0  0  0  0  0
   -1.2685   -0.4273    0.8453 H   0  0  0  0  0  0  0  0  0  0  0  0
   -3.3050   -2.0625    1.0480 H   0  0  0  0  0  0  0  0  0  0  0  0
   -3.3520   -0.5893    2.0025 H   0  0  0  0  0  0  0  0  0  0  0  0
   -5.6051   -1.6331    1.9001 H   0  0  0  0  0  0  0  0  0  0  0  0
   -6.8641    0.3664    1.0946 H   0  0  0  0  0  0  0  0  0  0  0  0
   -5.4520    0.8535    2.0292 H   0  0  0  0  0  0  0  0  0  0  0  0
   -5.6340    2.1976   -0.0669 H   0  0  0  0  0  0  0  0  0  0  0  0
   -6.8093    0.4934   -1.4560 H   0  0  0  0  0  0  0  0  0  0  0  0
   -5.3587    1.0649   -2.2768 H   0  0  0  0  0  0  0  0  0  0  0  0
   -5.5248   -1.4246   -2.3992 H   0  0  0  0  0  0  0  0  0  0  0  0
   -6.8011   -1.7769   -0.2863 H   0  0  0  0  0  0  0  0  0  0  0  0
   -5.3457   -2.7700   -0.3049 H   0  0  0  0  0  0  0  0  0  0  0  0
   -3.2528   -1.9462   -1.5043 H   0  0  0  0  0  0  0  0  0  0  0  0
   -3.2816   -0.4001   -2.3336 H   0  0  0  0  0  0  0  0  0  0  0  0
   -3.3416    1.8085   -0.9114 H   0  0  0  0  0  0  0  0  0  0  0  0
   -3.3634    1.6984    0.8402 H   0  0  0  0  0  0  0  0  0  0  0  0
    1.3279    2.1715   -1.5509 H   0  0  0  0  0  0  0  0  0  0  0  0
    3.6203    1.8780   -2.7181 H   0  0  0  0  0  0  0  0  0  0  0  0
    5.6045    3.2852   -3.1056 H   0  0  0  0  0  0  0  0  0  0  0  0
    6.9699    4.0744   -1.1900 H   0  0  0  0  0  0  0  0  0  0  0  0
    6.3070    3.5200    1.1187 H   0  0  0  0  0  0  0  0  0  0  0  0
    4.9388   -0.9202   -1.0687 H   0  0  0  0  0  0  0  0  0  0  0  0
    6.8720   -2.1387   -0.1452 H   0  0  0  0  0  0  0  0  0  0  0  0
    6.8618   -2.8943    2.2186 H   0  0  0  0  0  0  0  0  0  0  0  0
    4.8987   -2.4201    3.6611 H   0  0  0  0  0  0  0  0  0  0  0  0
    2.9620   -1.1857    2.7556 H   0  0  0  0  0  0  0  0  0  0  0  0
  1  2  1  0
  2  3  1  0
  3  4  1  0
  4  5  2  0
  4  6  1  0
  7  6  1  6
  7  8  1  0
  8  9  1  0
  9 10  1  0
 10 11  1  0
 11 12  1  0
 12 13  1  0
 13 14  1  0
 13 15  1  0
 11 16  1  0
  3 17  2  0
 17 18  1  0
 18 19  1  0
 19 20  2  0
 20 21  1  0
 21 22  2  0
 22 23  1  0
 23 24  2  0
 24 25  1  0
 18 26  1  0
 26 27  1  0
 27 28  2  0
 28 29  1  0
 29 30  2  0
 30 31  1  0
 31 32  2  0
 26  2  2  0
 32 27  1  0
 15  7  1  0
 24 19  1  0
 16  7  1  0
 14  9  1  0
  1 33  1  0
  1 34  1  0
  1 35  1  0
  6 36  1  0
  8 37  1  0
  8 38  1  0
  9 39  1  1
 10 40  1  0
 10 41  1  0
 11 42  1  1
 12 43  1  0
 12 44  1  0
 13 45  1  6
 14 46  1  0
 14 47  1  0
 15 48  1  0
 15 49  1  0
 16 50  1  0
 16 51  1  0
 17 52  1  0
 20 53  1  0
 21 54  1  0
 22 55  1  0
 23 56  1  0
 28 57  1  0
 29 58  1  0
 30 59  1  0
 31 60  1  0
 32 61  1  0
M  END
>  <_SMILES>  (59) 
Cc1c(C(=O)N[C@]23C[C@H]4C[C@H](C[C@H](C4)C2)C3)cn(-c2ccccc2Br)c1-c1ccccc1

$$$$

     RDKit          3D

 45 48  0  0  0  0  0  0  0  0999 V2000
    0.1195   -1.7737    2.0450 O   0  0  0  0  0  0  0  0  0  0  0  0
    0.6626   -0.9135    1.3598 C   0  0  0  0  0  0  0  0  0  0  0  0
    2.1093   -0.4578    1.6126 C   0  0  0  0  0  0  0  0  0  0  0  0
    2.6629    0.1952    0.4083 N   0  0  0  0  0  0  0  0  0  0  0  0
    3.9725    0.6952    0.4576 C   0  0  0  0  0  0  0  0  0  0  0  0
    4.6091    1.0996    1.6364 C   0  0  0  0  0  0  0  0  0  0  0  0
    5.8909    1.6618    1.6105 C   0  0  0  0  0  0  0  0  0  0  0  0
    6.5462    1.8574    0.3988 C   0  0  0  0  0  0  0  0  0  0  0  0
    5.9137    1.5036   -0.7878 C   0  0  0  0  0  0  0  0  0  0  0  0
    4.6339    0.9418   -0.7555 C   0  0  0  0  0  0  0  0  0  0  0  0
    0.0503   -0.2309    0.3261 N   0  0  0  0  0  0  0  0  0  0  0  0
   -1.3523   -0.3575   -0.0682 C   0  0  2  0  0  0  0  0  0  0  0  0
   -1.6037    0.5689   -1.2879 C   0  0  0  0  0  0  0  0  0  0  0  0
   -3.0674    0.4873   -1.7495 C   0  0  1  0  0  0  0  0  0  0  0  0
   -3.3900   -0.9612   -2.1475 C   0  0  0  0  0  0  0  0  0  0  0  0
   -3.1712   -1.8957   -0.9475 C   0  0  2  0  0  0  0  0  0  0  0  0
   -4.0864   -1.4593    0.2093 C   0  0  0  0  0  0  0  0  0  0  0  0
   -3.7708   -0.0099    0.6165 C   0  0  2  0  0  0  0  0  0  0  0  0
   -3.9853    0.9140   -0.5929 C   0  0  0  0  0  0  0  0  0  0  0  0
   -2.3035    0.0808    1.0719 C   0  0  0  0  0  0  0  0  0  0  0  0
   -1.7035   -1.8056   -0.4929 C   0  0  0  0  0  0  0  0  0  0  0  0
    2.7059   -1.3399    1.8689 H   0  0  0  0  0  0  0  0  0  0  0  0
    2.0706    0.2364    2.4582 H   0  0  0  0  0  0  0  0  0  0  0  0
    2.5513   -0.4094   -0.4068 H   0  0  0  0  0  0  0  0  0  0  0  0
    4.1284    0.9915    2.6032 H   0  0  0  0  0  0  0  0  0  0  0  0
    6.3705    1.9559    2.5405 H   0  0  0  0  0  0  0  0  0  0  0  0
    7.5393    2.2977    0.3792 H   0  0  0  0  0  0  0  0  0  0  0  0
    6.4084    1.6717   -1.7405 H   0  0  0  0  0  0  0  0  0  0  0  0
    4.1522    0.6957   -1.6988 H   0  0  0  0  0  0  0  0  0  0  0  0
    0.5868    0.5651   -0.0152 H   0  0  0  0  0  0  0  0  0  0  0  0
   -1.3559    1.6075   -1.0305 H   0  0  0  0  0  0  0  0  0  0  0  0
   -0.9373    0.2920   -2.1158 H   0  0  0  0  0  0  0  0  0  0  0  0
   -3.2223    1.1500   -2.6082 H   0  0  0  0  0  0  0  0  0  0  0  0
   -2.7529   -1.2710   -2.9851 H   0  0  0  0  0  0  0  0  0  0  0  0
   -4.4283   -1.0326   -2.4940 H   0  0  0  0  0  0  0  0  0  0  0  0
   -3.4054   -2.9267   -1.2352 H   0  0  0  0  0  0  0  0  0  0  0  0
   -3.9498   -2.1280    1.0681 H   0  0  0  0  0  0  0  0  0  0  0  0
   -5.1373   -1.5418   -0.0942 H   0  0  0  0  0  0  0  0  0  0  0  0
   -4.4307    0.2957    1.4361 H   0  0  0  0  0  0  0  0  0  0  0  0
   -5.0338    0.8752   -0.9129 H   0  0  0  0  0  0  0  0  0  0  0  0
   -3.7764    1.9537   -0.3122 H   0  0  0  0  0  0  0  0  0  0  0  0
   -2.1629   -0.5475    1.9597 H   0  0  0  0  0  0  0  0  0  0  0  0
   -2.0721    1.1080    1.3829 H   0  0  0  0  0  0  0  0  0  0  0  0
   -1.5451   -2.5075    0.3340 H   0  0  0  0  0  0  0  0  0  0  0  0
   -1.0399   -2.1323   -1.3043 H   0  0  0  0  0  0  0  0  0  0  0  0
  1  2  2  0
  2  3  1  0
  3  4  1  0
  4  5  1  0
  5  6  2  0
  6  7  1  0
  7  8  2  0
  8  9  1  0
  9 10  2  0
  2 11  1  0
 12 11  1  1
 12 13  1  0
 13 14  1  0
 14 15  1  0
 15 16  1  0
 16 17  1  0
 17 18  1  0
 18 19  1  0
 18 20  1  0
 16 21  1  0
 10  5  1  0
 20 12  1  0
 21 12  1  0
 19 14  1  0
  3 22  1  0
  3 23  1  0
  4 24  1  0
  6 25  1  0
  7 26  1  0
  8 27  1  0
  9 28  1  0
 10 29  1  0
 11 30  1  0
 13 31  1  0
 13 32  1  0
 14 33  1  6
 15 34  1  0
 15 35  1  0
 16 36  1  6
 17 37  1  0
 17 38  1  0
 18 39  1  1
 19 40  1  0
 19 41  1  0
 20 42  1  0
 20 43  1  0
 21 44  1  0
 21 45  1  0
M  END
>  <_SMILES>  (60) 
O=C(CNc1ccccc1)N[C@]12C[C@H]3C[C@H](C[C@H](C3)C1)C2

$$$$

     RDKit          3D

 79 84  0  0  0  0  0  0  0  0999 V2000
   -5.4989   -2.9933    0.4159 C   0  0  0  0  0  0  0  0  0  0  0  0
   -4.2584   -3.6110   -0.1722 C   0  0  0  0  0  0  0  0  0  0  0  0
   -4.4069   -4.7138   -1.0307 C   0  0  0  0  0  0  0  0  0  0  0  0
   -3.2962   -5.3419   -1.5898 C   0  0  0  0  0  0  0  0  0  0  0  0
   -2.0200   -4.8815   -1.2939 C   0  0  0  0  0  0  0  0  0  0  0  0
   -1.8543   -3.7838   -0.4495 C   0  0  0  0  0  0  0  0  0  0  0  0
   -2.9633   -3.1135    0.1037 C   0  0  0  0  0  0  0  0  0  0  0  0
   -2.7554   -1.9350    1.0301 C   0  0  0  0  0  0  0  0  0  0  0  0
   -1.6947   -1.0171    0.5914 N   0  0  0  0  0  0  0  0  0  0  0  0
   -0.4758   -0.9250    1.2115 C   0  0  0  0  0  0  0  0  0  0  0  0
    0.3174   -0.0388    0.5087 C   0  0  0  0  0  0  0  0  0  0  0  0
    1.6950    0.2770    0.8813 C   0  0  0  0  0  0  0  0  0  0  0  0
    2.0025    0.4472    2.0533 O   0  0  0  0  0  0  0  0  0  0  0  0
    2.5559    0.3515   -0.1869 N   0  0  0  0  0  0  0  0  0  0  0  0
    4.0049    0.5509   -0.0765 C   0  0  2  0  0  0  0  0  0  0  0  0
    4.3536    1.8857    0.6298 C   0  0  0  0  0  0  0  0  0  0  0  0
    5.8784    2.0881    0.6832 C   0  0  1  0  0  0  0  0  0  0  0  0
    6.5175    0.9151    1.4462 C   0  0  0  0  0  0  0  0  0  0  0  0
    6.2083   -0.4122    0.7329 C   0  0  2  0  0  0  0  0  0  0  0  0
    6.7637   -0.3587   -0.6993 C   0  0  0  0  0  0  0  0  0  0  0  0
    6.1223    0.8071   -1.4685 C   0  0  2  0  0  0  0  0  0  0  0  0
    6.4367    2.1270   -0.7477 C   0  0  0  0  0  0  0  0  0  0  0  0
    4.5992    0.6063   -1.5100 C   0  0  0  0  0  0  0  0  0  0  0  0
    4.6839   -0.6167    0.6801 C   0  0  0  0  0  0  0  0  0  0  0  0
   -0.4973    0.4932   -0.5465 C   0  0  0  0  0  0  0  0  0  0  0  0
   -0.0628    1.4906   -1.5713 C   0  0  0  0  0  0  0  0  0  0  0  0
   -1.7786   -0.0324   -0.3799 C   0  0  0  0  0  0  0  0  0  0  0  0
   -3.0308    0.3654   -1.0284 C   0  0  0  0  0  0  0  0  0  0  0  0
   -3.5948   -0.4819   -1.9916 C   0  0  0  0  0  0  0  0  0  0  0  0
   -4.8056   -0.1600   -2.6014 C   0  0  0  0  0  0  0  0  0  0  0  0
   -5.4602    1.0192   -2.2649 C   0  0  0  0  0  0  0  0  0  0  0  0
   -4.8977    1.8879   -1.3289 C   0  0  0  0  0  0  0  0  0  0  0  0
   -3.6751    1.5821   -0.6999 C   0  0  0  0  0  0  0  0  0  0  0  0
   -3.0779    2.6043    0.2428 C   0  0  0  0  0  0  0  0  0  0  0  0
   -2.8529    2.1439    1.6641 N   0  0  0  0  0  0  0  0  0  0  0  0
   -4.1207    1.8195    2.3879 C   0  0  0  0  0  0  0  0  0  0  0  0
   -1.9874    3.0998    2.4313 C   0  0  0  0  0  0  0  0  0  0  0  0
   -5.4204   -2.9459    1.5068 H   0  0  0  0  0  0  0  0  0  0  0  0
   -5.6503   -1.9868    0.0145 H   0  0  0  0  0  0  0  0  0  0  0  0
   -6.3926   -3.5820    0.1825 H   0  0  0  0  0  0  0  0  0  0  0  0
   -5.3967   -5.1026   -1.2646 H   0  0  0  0  0  0  0  0  0  0  0  0
   -3.4281   -6.1989   -2.2460 H   0  0  0  0  0  0  0  0  0  0  0  0
   -1.1513   -5.3810   -1.7162 H   0  0  0  0  0  0  0  0  0  0  0  0
   -0.8384   -3.4596   -0.2315 H   0  0  0  0  0  0  0  0  0  0  0  0
   -2.4893   -2.3036    2.0278 H   0  0  0  0  0  0  0  0  0  0  0  0
   -3.6530   -1.3190    1.1381 H   0  0  0  0  0  0  0  0  0  0  0  0
   -0.2314   -1.5378    2.0727 H   0  0  0  0  0  0  0  0  0  0  0  0
    2.2192   -0.0559   -1.0497 H   0  0  0  0  0  0  0  0  0  0  0  0
    3.8827    2.7256    0.1024 H   0  0  0  0  0  0  0  0  0  0  0  0
    3.9593    1.9062    1.6521 H   0  0  0  0  0  0  0  0  0  0  0  0
    6.1076    3.0299    1.1942 H   0  0  0  0  0  0  0  0  0  0  0  0
    7.6029    1.0597    1.5123 H   0  0  0  0  0  0  0  0  0  0  0  0
    6.1372    0.8853    2.4747 H   0  0  0  0  0  0  0  0  0  0  0  0
    6.6727   -1.2416    1.2780 H   0  0  0  0  0  0  0  0  0  0  0  0
    7.8535   -0.2365   -0.6743 H   0  0  0  0  0  0  0  0  0  0  0  0
    6.5613   -1.3052   -1.2155 H   0  0  0  0  0  0  0  0  0  0  0  0
    6.5194    0.8396   -2.4892 H   0  0  0  0  0  0  0  0  0  0  0  0
    7.5208    2.2918   -0.7230 H   0  0  0  0  0  0  0  0  0  0  0  0
    5.9990    2.9688   -1.2983 H   0  0  0  0  0  0  0  0  0  0  0  0
    4.1322    1.4203   -2.0806 H   0  0  0  0  0  0  0  0  0  0  0  0
    4.3652   -0.3200   -2.0518 H   0  0  0  0  0  0  0  0  0  0  0  0
    4.2962   -0.6965    1.7028 H   0  0  0  0  0  0  0  0  0  0  0  0
    4.4519   -1.5706    0.1886 H   0  0  0  0  0  0  0  0  0  0  0  0
    0.4595    2.3273   -1.0964 H   0  0  0  0  0  0  0  0  0  0  0  0
   -0.9090    1.9007   -2.1301 H   0  0  0  0  0  0  0  0  0  0  0  0
    0.6111    1.0208   -2.2944 H   0  0  0  0  0  0  0  0  0  0  0  0
   -3.0932   -1.4052   -2.2798 H   0  0  0  0  0  0  0  0  0  0  0  0
   -5.2332   -0.8307   -3.3441 H   0  0  0  0  0  0  0  0  0  0  0  0
   -6.4018    1.2709   -2.7499 H   0  0  0  0  0  0  0  0  0  0  0  0
   -5.4230    2.8180   -1.1156 H   0  0  0  0  0  0  0  0  0  0  0  0
   -2.1123    2.9373   -0.1529 H   0  0  0  0  0  0  0  0  0  0  0  0
   -3.7138    3.4960    0.3093 H   0  0  0  0  0  0  0  0  0  0  0  0
   -2.2999    1.2811    1.5958 H   0  0  0  0  0  0  0  0  0  0  0  0
   -4.7300    2.7251    2.4507 H   0  0  0  0  0  0  0  0  0  0  0  0
   -3.8594    1.4577    3.3861 H   0  0  0  0  0  0  0  0  0  0  0  0
   -4.6451    1.0314    1.8425 H   0  0  0  0  0  0  0  0  0  0  0  0
   -2.5110    4.0561    2.5121 H   0  0  0  0  0  0  0  0  0  0  0  0
   -1.7997    2.6711    3.4192 H   0  0  0  0  0  0  0  0  0  0  0  0
   -1.0424    3.2133    1.8931 H   0  0  0  0  0  0  0  0  0  0  0  0
  1  2  1  0
  2  3  2  0
  3  4  1  0
  4  5  2  0
  5  6  1  0
  6  7  2  0
  7  8  1  0
  8  9  1  0
  9 10  1  0
 10 11  2  0
 11 12  1  0
 12 13  2  0
 12 14  1  0
 15 14  1  6
 15 16  1  0
 16 17  1  0
 17 18  1  0
 18 19  1  0
 19 20  1  0
 20 21  1  0
 21 22  1  0
 21 23  1  0
 19 24  1  0
 11 25  1  0
 25 26  1  0
 25 27  2  0
 27 28  1  0
 28 29  2  0
 29 30  1  0
 30 31  2  0
 31 32  1  0
 32 33  2  0
 33 34  1  0
 34 35  1  0
 35 36  1  0
 35 37  1  0
  7  2  1  0
 27  9  1  0
 33 28  1  0
 23 15  1  0
 24 15  1  0
 22 17  1  0
  1 38  1  0
  1 39  1  0
  1 40  1  0
  3 41  1  0
  4 42  1  0
  5 43  1  0
  6 44  1  0
  8 45  1  0
  8 46  1  0
 10 47  1  0
 14 48  1  0
 16 49  1  0
 16 50  1  0
 17 51  1  1
 18 52  1  0
 18 53  1  0
 19 54  1  1
 20 55  1  0
 20 56  1  0
 21 57  1  6
 22 58  1  0
 22 59  1  0
 23 60  1  0
 23 61  1  0
 24 62  1  0
 24 63  1  0
 26 64  1  0
 26 65  1  0
 26 66  1  0
 29 67  1  0
 30 68  1  0
 31 69  1  0
 32 70  1  0
 34 71  1  0
 34 72  1  0
 35 73  1  0
 36 74  1  0
 36 75  1  0
 36 76  1  0
 37 77  1  0
 37 78  1  0
 37 79  1  0
M  CHG  1  35   1
M  END
>  <_SMILES>  (61) 
Cc1ccccc1Cn1cc(C(=O)N[C@]23C[C@H]4C[C@H](C[C@H](C4)C2)C3)c(C)c1-c1ccccc1C[NH+](C)C

$$$$

     RDKit          3D

 69 73  0  0  0  0  0  0  0  0999 V2000
    1.3031    1.8137    0.1557 C   0  0  0  0  0  0  0  0  0  0  0  0
    1.8977    0.4452    0.0987 C   0  0  0  0  0  0  0  0  0  0  0  0
    1.2143   -0.7857   -0.1973 C   0  0  0  0  0  0  0  0  0  0  0  0
   -0.2002   -1.0594   -0.4649 C   0  0  0  0  0  0  0  0  0  0  0  0
   -0.5534   -1.9676   -1.2084 O   0  0  0  0  0  0  0  0  0  0  0  0
   -1.0693   -0.2493    0.2312 N   0  0  0  0  0  0  0  0  0  0  0  0
   -2.5421   -0.3054    0.1771 C   0  0  2  0  0  0  0  0  0  0  0  0
   -3.0758    0.7628    1.1697 C   0  0  0  0  0  0  0  0  0  0  0  0
   -4.5719    0.6912    1.5068 C   0  0  2  0  0  0  0  0  0  0  0  0
   -5.0584   -0.7436    1.7179 C   0  0  0  0  0  0  0  0  0  0  0  0
   -4.5862   -1.6943    0.6249 C   0  0  2  0  0  0  0  0  0  0  0  0
   -3.0577   -1.6921    0.5983 C   0  0  0  0  0  0  0  0  0  0  0  0
   -5.1612   -1.3468   -0.7587 C   0  0  0  0  0  0  0  0  0  0  0  0
   -4.5674   -0.0852   -1.4416 C   0  0  2  0  0  0  0  0  0  0  0  0
   -4.8344   -0.2194   -2.9675 C   0  0  0  0  0  0  0  0  0  0  0  0
   -3.0303   -0.0273   -1.2575 C   0  0  0  0  0  0  0  0  0  0  0  0
   -5.2600    1.2243   -0.9698 C   0  0  2  0  0  0  0  0  0  0  0  0
   -4.5524    2.3739   -1.4527 O   0  0  0  0  0  0  0  0  0  0  0  0
   -5.4727    1.4439    0.5267 C   0  0  0  0  0  0  0  0  0  0  0  0
    2.1876   -1.7674   -0.2283 C   0  0  0  0  0  0  0  0  0  0  0  0
    3.4017   -1.2146    0.0854 N   0  0  0  0  0  0  0  0  0  0  0  0
    4.6560   -1.9691    0.1634 C   0  0  0  0  0  0  0  0  0  0  0  0
    5.0485   -2.5449   -1.1977 C   0  0  0  0  0  0  0  0  0  0  0  0
    4.5946   -3.0575    1.2363 C   0  0  0  0  0  0  0  0  0  0  0  0
    3.2435    0.1402    0.2968 C   0  0  0  0  0  0  0  0  0  0  0  0
    4.3414    1.0448    0.6329 C   0  0  0  0  0  0  0  0  0  0  0  0
    4.6417    1.3160    1.9700 C   0  0  0  0  0  0  0  0  0  0  0  0
    5.6699    2.2022    2.2850 C   0  0  0  0  0  0  0  0  0  0  0  0
    6.4082    2.8058    1.2640 C   0  0  0  0  0  0  0  0  0  0  0  0
    6.1558    2.5033   -0.0769 C   0  0  0  0  0  0  0  0  0  0  0  0
    6.8166    3.2041   -1.0929 N   0  0  0  0  0  0  0  0  0  0  0  0
    5.0847    1.6594   -0.3837 C   0  0  0  0  0  0  0  0  0  0  0  0
    0.9161    2.0170    1.1591 H   0  0  0  0  0  0  0  0  0  0  0  0
    0.4861    1.9182   -0.5651 H   0  0  0  0  0  0  0  0  0  0  0  0
    2.0421    2.5841   -0.0861 H   0  0  0  0  0  0  0  0  0  0  0  0
   -0.6528    0.3337    0.9427 H   0  0  0  0  0  0  0  0  0  0  0  0
   -2.8106    1.7709    0.8245 H   0  0  0  0  0  0  0  0  0  0  0  0
   -2.5367    0.6348    2.1206 H   0  0  0  0  0  0  0  0  0  0  0  0
   -4.7067    1.2038    2.4705 H   0  0  0  0  0  0  0  0  0  0  0  0
   -4.6735   -1.1020    2.6825 H   0  0  0  0  0  0  0  0  0  0  0  0
   -6.1513   -0.7782    1.8042 H   0  0  0  0  0  0  0  0  0  0  0  0
   -4.9282   -2.7031    0.8897 H   0  0  0  0  0  0  0  0  0  0  0  0
   -2.6593   -1.9634    1.5850 H   0  0  0  0  0  0  0  0  0  0  0  0
   -2.7139   -2.4723   -0.0909 H   0  0  0  0  0  0  0  0  0  0  0  0
   -6.2543   -1.2645   -0.7002 H   0  0  0  0  0  0  0  0  0  0  0  0
   -4.9655   -2.2171   -1.4012 H   0  0  0  0  0  0  0  0  0  0  0  0
   -4.3923    0.6068   -3.5339 H   0  0  0  0  0  0  0  0  0  0  0  0
   -5.9094   -0.2395   -3.1801 H   0  0  0  0  0  0  0  0  0  0  0  0
   -4.4056   -1.1461   -3.3669 H   0  0  0  0  0  0  0  0  0  0  0  0
   -2.5861   -0.7741   -1.9289 H   0  0  0  0  0  0  0  0  0  0  0  0
   -2.6236    0.9296   -1.6092 H   0  0  0  0  0  0  0  0  0  0  0  0
   -6.2564    1.2838   -1.4284 H   0  0  0  0  0  0  0  0  0  0  0  0
   -4.6328    2.3924   -2.4211 H   0  0  0  0  0  0  0  0  0  0  0  0
   -6.5165    1.1958    0.7631 H   0  0  0  0  0  0  0  0  0  0  0  0
   -5.3816    2.5171    0.7458 H   0  0  0  0  0  0  0  0  0  0  0  0
    2.0892   -2.8244   -0.4429 H   0  0  0  0  0  0  0  0  0  0  0  0
    5.4431   -1.2686    0.4606 H   0  0  0  0  0  0  0  0  0  0  0  0
    6.0314   -3.0250   -1.1444 H   0  0  0  0  0  0  0  0  0  0  0  0
    4.3285   -3.2938   -1.5451 H   0  0  0  0  0  0  0  0  0  0  0  0
    5.0996   -1.7552   -1.9554 H   0  0  0  0  0  0  0  0  0  0  0  0
    3.8629   -3.8338    0.9878 H   0  0  0  0  0  0  0  0  0  0  0  0
    5.5702   -3.5423    1.3492 H   0  0  0  0  0  0  0  0  0  0  0  0
    4.3145   -2.6332    2.2067 H   0  0  0  0  0  0  0  0  0  0  0  0
    4.0638    0.8538    2.7664 H   0  0  0  0  0  0  0  0  0  0  0  0
    5.8870    2.4367    3.3235 H   0  0  0  0  0  0  0  0  0  0  0  0
    7.1839    3.5206    1.5259 H   0  0  0  0  0  0  0  0  0  0  0  0
    7.7437    3.5272   -0.8361 H   0  0  0  0  0  0  0  0  0  0  0  0
    6.8042    2.7339   -1.9926 H   0  0  0  0  0  0  0  0  0  0  0  0
    4.8192    1.4749   -1.4216 H   0  0  0  0  0  0  0  0  0  0  0  0
  1  2  1  0
  2  3  1  0
  3  4  1  0
  4  5  2  0
  4  6  1  0
  7  6  1  6
  7  8  1  0
  8  9  1  0
  9 10  1  0
 10 11  1  0
 11 12  1  0
 11 13  1  0
 13 14  1  0
 14 15  1  6
 14 16  1  0
 14 17  1  0
 17 18  1  0
 17 19  1  0
  3 20  2  0
 20 21  1  0
 21 22  1  0
 22 23  1  0
 22 24  1  0
 21 25  1  0
 25 26  1  0
 26 27  1  0
 27 28  2  0
 28 29  1  0
 29 30  2  0
 30 31  1  0
 30 32  1  0
 25  2  2  0
 32 26  2  0
 12  7  1  0
 16  7  1  0
 19  9  1  0
  1 33  1  0
  1 34  1  0
  1 35  1  0
  6 36  1  0
  8 37  1  0
  8 38  1  0
  9 39  1  1
 10 40  1  0
 10 41  1  0
 11 42  1  1
 12 43  1  0
 12 44  1  0
 13 45  1  0
 13 46  1  0
 15 47  1  0
 15 48  1  0
 15 49  1  0
 16 50  1  0
 16 51  1  0
 17 52  1  6
 18 53  1  0
 19 54  1  0
 19 55  1  0
 20 56  1  0
 22 57  1  0
 23 58  1  0
 23 59  1  0
 23 60  1  0
 24 61  1  0
 24 62  1  0
 24 63  1  0
 27 64  1  0
 28 65  1  0
 29 66  1  0
 31 67  1  0
 31 68  1  0
 32 69  1  0
M  END
>  <_SMILES>  (62) 
Cc1c(C(=O)N[C@]23C[C@@H]4C[C@H](C2)C[C@](C)(C3)[C@H](O)C4)cn(C(C)C)c1-c1cccc(N)c1

$$$$

     RDKit          3D

 64 69  0  0  0  0  0  0  0  0999 V2000
    0.3706   -1.3522   -1.5558 C   0  0  0  0  0  0  0  0  0  0  0  0
    0.9492   -0.6778   -0.3564 C   0  0  0  0  0  0  0  0  0  0  0  0
    0.3106    0.3045    0.4812 C   0  0  0  0  0  0  0  0  0  0  0  0
   -1.0404    0.8713    0.4435 C   0  0  0  0  0  0  0  0  0  0  0  0
   -1.2803    2.0001    0.8569 O   0  0  0  0  0  0  0  0  0  0  0  0
   -2.0014    0.0066   -0.0326 N   0  0  0  0  0  0  0  0  0  0  0  0
   -3.4374    0.2899   -0.0728 C   0  0  2  0  0  0  0  0  0  0  0  0
   -3.7595    1.5380   -0.9336 C   0  0  0  0  0  0  0  0  0  0  0  0
   -5.2790    1.7748   -0.9977 C   0  0  1  0  0  0  0  0  0  0  0  0
   -5.9580    0.5511   -1.6318 C   0  0  0  0  0  0  0  0  0  0  0  0
   -5.6724   -0.7013   -0.7891 C   0  0  2  0  0  0  0  0  0  0  0  0
   -6.2160   -0.4932    0.6332 C   0  0  0  0  0  0  0  0  0  0  0  0
   -5.5392    0.7252    1.2811 C   0  0  2  0  0  0  0  0  0  0  0  0
   -5.8202    1.9741    0.4284 C   0  0  0  0  0  0  0  0  0  0  0  0
   -4.0201    0.4878    1.3480 C   0  0  0  0  0  0  0  0  0  0  0  0
   -4.1538   -0.9266   -0.7204 C   0  0  0  0  0  0  0  0  0  0  0  0
    1.2606    0.6962    1.4071 C   0  0  0  0  0  0  0  0  0  0  0  0
    2.4170   -0.0070    1.1934 N   0  0  0  0  0  0  0  0  0  0  0  0
    3.6159    0.1307    2.0198 C   0  0  0  0  0  0  0  0  0  0  0  0
    4.6825    0.9759    1.3669 C   0  0  0  0  0  0  0  0  0  0  0  0
    4.4421    2.3169    1.0308 C   0  0  0  0  0  0  0  0  0  0  0  0
    5.4419    3.0919    0.4402 C   0  0  0  0  0  0  0  0  0  0  0  0
    6.6948    2.5391    0.1843 C   0  0  0  0  0  0  0  0  0  0  0  0
    6.9501    1.2114    0.5195 C   0  0  0  0  0  0  0  0  0  0  0  0
    5.9518    0.4350    1.1106 C   0  0  0  0  0  0  0  0  0  0  0  0
    2.2364   -0.8792    0.1400 C   0  0  0  0  0  0  0  0  0  0  0  0
    3.2719   -1.7913   -0.3403 C   0  0  0  0  0  0  0  0  0  0  0  0
    3.3596   -3.0891    0.1742 C   0  0  0  0  0  0  0  0  0  0  0  0
    4.3494   -3.9606   -0.2839 C   0  0  0  0  0  0  0  0  0  0  0  0
    5.2521   -3.5398   -1.2602 C   0  0  0  0  0  0  0  0  0  0  0  0
    5.1647   -2.2496   -1.7818 C   0  0  0  0  0  0  0  0  0  0  0  0
    4.1746   -1.3780   -1.3255 C   0  0  0  0  0  0  0  0  0  0  0  0
   -0.2914   -0.6760   -2.1057 H   0  0  0  0  0  0  0  0  0  0  0  0
    1.1504   -1.6723   -2.2538 H   0  0  0  0  0  0  0  0  0  0  0  0
   -0.1994   -2.2368   -1.2551 H   0  0  0  0  0  0  0  0  0  0  0  0
   -1.7221   -0.9627   -0.0823 H   0  0  0  0  0  0  0  0  0  0  0  0
   -3.2803    2.4346   -0.5243 H   0  0  0  0  0  0  0  0  0  0  0  0
   -3.3575    1.4109   -1.9473 H   0  0  0  0  0  0  0  0  0  0  0  0
   -5.4880    2.6659   -1.6001 H   0  0  0  0  0  0  0  0  0  0  0  0
   -5.5907    0.4067   -2.6552 H   0  0  0  0  0  0  0  0  0  0  0  0
   -7.0400    0.7171   -1.7022 H   0  0  0  0  0  0  0  0  0  0  0  0
   -6.1556   -1.5722   -1.2458 H   0  0  0  0  0  0  0  0  0  0  0  0
   -6.0342   -1.3894    1.2392 H   0  0  0  0  0  0  0  0  0  0  0  0
   -7.3025   -0.3455    0.6013 H   0  0  0  0  0  0  0  0  0  0  0  0
   -5.9341    0.8719    2.2927 H   0  0  0  0  0  0  0  0  0  0  0  0
   -5.3528    2.8541    0.8871 H   0  0  0  0  0  0  0  0  0  0  0  0
   -6.8993    2.1683    0.3945 H   0  0  0  0  0  0  0  0  0  0  0  0
   -3.5457    1.3395    1.8498 H   0  0  0  0  0  0  0  0  0  0  0  0
   -3.8067   -0.3920    1.9693 H   0  0  0  0  0  0  0  0  0  0  0  0
   -3.7583   -1.1035   -1.7297 H   0  0  0  0  0  0  0  0  0  0  0  0
   -3.9431   -1.8386   -0.1457 H   0  0  0  0  0  0  0  0  0  0  0  0
    1.1883    1.4286    2.2019 H   0  0  0  0  0  0  0  0  0  0  0  0
    3.3210    0.5841    2.9739 H   0  0  0  0  0  0  0  0  0  0  0  0
    3.9744   -0.8796    2.2471 H   0  0  0  0  0  0  0  0  0  0  0  0
    3.4699    2.7681    1.2199 H   0  0  0  0  0  0  0  0  0  0  0  0
    5.2404    4.1275    0.1785 H   0  0  0  0  0  0  0  0  0  0  0  0
    7.4714    3.1433   -0.2771 H   0  0  0  0  0  0  0  0  0  0  0  0
    7.9263    0.7781    0.3184 H   0  0  0  0  0  0  0  0  0  0  0  0
    6.1684   -0.6027    1.3569 H   0  0  0  0  0  0  0  0  0  0  0  0
    2.6562   -3.4254    0.9318 H   0  0  0  0  0  0  0  0  0  0  0  0
    4.4141   -4.9681    0.1184 H   0  0  0  0  0  0  0  0  0  0  0  0
    6.0221   -4.2186   -1.6177 H   0  0  0  0  0  0  0  0  0  0  0  0
    5.8662   -1.9193   -2.5433 H   0  0  0  0  0  0  0  0  0  0  0  0
    4.1147   -0.3708   -1.7327 H   0  0  0  0  0  0  0  0  0  0  0  0
  1  2  1  0
  2  3  1  0
  3  4  1  0
  4  5  2  0
  4  6  1  0
  7  6  1  1
  7  8  1  0
  8  9  1  0
  9 10  1  0
 10 11  1  0
 11 12  1  0
 12 13  1  0
 13 14  1  0
 13 15  1  0
 11 16  1  0
  3 17  2  0
 17 18  1  0
 18 19  1  0
 19 20  1  0
 20 21  2  0
 21 22  1  0
 22 23  2  0
 23 24  1  0
 24 25  2  0
 18 26  1  0
 26 27  1  0
 27 28  2  0
 28 29  1  0
 29 30  2  0
 30 31  1  0
 31 32  2  0
 26  2  2  0
 32 27  1  0
 15  7  1  0
 25 20  1  0
 16  7  1  0
 14  9  1  0
  1 33  1  0
  1 34  1  0
  1 35  1  0
  6 36  1  0
  8 37  1  0
  8 38  1  0
  9 39  1  6
 10 40  1  0
 10 41  1  0
 11 42  1  6
 12 43  1  0
 12 44  1  0
 13 45  1  1
 14 46  1  0
 14 47  1  0
 15 48  1  0
 15 49  1  0
 16 50  1  0
 16 51  1  0
 17 52  1  0
 19 53  1  0
 19 54  1  0
 21 55  1  0
 22 56  1  0
 23 57  1  0
 24 58  1  0
 25 59  1  0
 28 60  1  0
 29 61  1  0
 30 62  1  0
 31 63  1  0
 32 64  1  0
M  END
>  <_SMILES>  (63) 
Cc1c(C(=O)N[C@]23C[C@H]4C[C@H](C[C@H](C4)C2)C3)cn(Cc2ccccc2)c1-c1ccccc1

$$$$

     RDKit          3D

 64 69  0  0  0  0  0  0  0  0999 V2000
   -0.0988   -3.1422    1.1823 C   0  0  0  0  0  0  0  0  0  0  0  0
   -0.8041   -2.0227    0.4881 C   0  0  0  0  0  0  0  0  0  0  0  0
   -0.1565   -0.9637   -0.2409 C   0  0  0  0  0  0  0  0  0  0  0  0
    1.2890   -0.7737   -0.4321 C   0  0  0  0  0  0  0  0  0  0  0  0
    2.1018   -1.6452   -0.1447 O   0  0  0  0  0  0  0  0  0  0  0  0
    1.6472    0.4637   -0.9275 N   0  0  0  0  0  0  0  0  0  0  0  0
    3.0244    0.9224   -1.1239 C   0  0  2  0  0  0  0  0  0  0  0  0
    2.9796    2.3550   -1.7227 C   0  0  0  0  0  0  0  0  0  0  0  0
    4.3969    2.9042   -1.9497 C   0  0  1  0  0  0  0  0  0  0  0  0
    5.1437    2.9421   -0.6072 C   0  0  0  0  0  0  0  0  0  0  0  0
    5.2240    1.5278   -0.0111 C   0  0  2  0  0  0  0  0  0  0  0  0
    5.9653    0.6049   -0.9934 C   0  0  0  0  0  0  0  0  0  0  0  0
    5.2244    0.5607   -2.3408 C   0  0  2  0  0  0  0  0  0  0  0  0
    5.1450    1.9804   -2.9229 C   0  0  0  0  0  0  0  0  0  0  0  0
    3.8003    0.0211   -2.1179 C   0  0  0  0  0  0  0  0  0  0  0  0
    3.8002    0.9891    0.2147 C   0  0  0  0  0  0  0  0  0  0  0  0
   -1.1752   -0.1737   -0.7444 C   0  0  0  0  0  0  0  0  0  0  0  0
   -2.3861   -0.6764   -0.3303 N   0  0  0  0  0  0  0  0  0  0  0  0
   -3.6678   -0.0698   -0.6879 C   0  0  0  0  0  0  0  0  0  0  0  0
   -4.1922    0.8255    0.4035 C   0  0  0  0  0  0  0  0  0  0  0  0
   -5.2271    0.4036    1.2530 C   0  0  0  0  0  0  0  0  0  0  0  0
   -5.6882    1.2417    2.2703 C   0  0  0  0  0  0  0  0  0  0  0  0
   -5.1210    2.5008    2.4365 C   0  0  0  0  0  0  0  0  0  0  0  0
   -5.5684    3.3002    3.4132 F   0  0  0  0  0  0  0  0  0  0  0  0
   -4.1037    2.9428    1.6041 C   0  0  0  0  0  0  0  0  0  0  0  0
   -3.6494    2.1026    0.5947 C   0  0  0  0  0  0  0  0  0  0  0  0
   -2.6773    2.5422   -0.2174 F   0  0  0  0  0  0  0  0  0  0  0  0
   -2.1813   -1.8150    0.4232 C   0  0  0  0  0  0  0  0  0  0  0  0
   -3.2529   -2.6028    1.0351 C   0  0  0  0  0  0  0  0  0  0  0  0
   -3.4199   -2.5798    2.4273 C   0  0  0  0  0  0  0  0  0  0  0  0
   -4.4311   -3.3341    3.0262 C   0  0  0  0  0  0  0  0  0  0  0  0
   -5.2689   -4.1130    2.2341 C   0  0  0  0  0  0  0  0  0  0  0  0
   -6.2401   -4.8307    2.8125 F   0  0  0  0  0  0  0  0  0  0  0  0
   -5.1184   -4.1546    0.8552 C   0  0  0  0  0  0  0  0  0  0  0  0
   -4.1097   -3.4011    0.2650 C   0  0  0  0  0  0  0  0  0  0  0  0
   -3.9836   -3.4371   -1.0704 F   0  0  0  0  0  0  0  0  0  0  0  0
    0.5717   -2.7492    1.9532 H   0  0  0  0  0  0  0  0  0  0  0  0
   -0.7953   -3.8323    1.6669 H   0  0  0  0  0  0  0  0  0  0  0  0
    0.4906   -3.7230    0.4654 H   0  0  0  0  0  0  0  0  0  0  0  0
    0.9208    1.1639   -0.9517 H   0  0  0  0  0  0  0  0  0  0  0  0
    2.4276    3.0273   -1.0520 H   0  0  0  0  0  0  0  0  0  0  0  0
    2.4273    2.3497   -2.6721 H   0  0  0  0  0  0  0  0  0  0  0  0
    4.3395    3.9147   -2.3694 H   0  0  0  0  0  0  0  0  0  0  0  0
    4.6285    3.6141    0.0900 H   0  0  0  0  0  0  0  0  0  0  0  0
    6.1534    3.3460   -0.7513 H   0  0  0  0  0  0  0  0  0  0  0  0
    5.7616    1.5597    0.9432 H   0  0  0  0  0  0  0  0  0  0  0  0
    6.0407   -0.4058   -0.5738 H   0  0  0  0  0  0  0  0  0  0  0  0
    6.9908    0.9647   -1.1427 H   0  0  0  0  0  0  0  0  0  0  0  0
    5.7617   -0.0935   -3.0366 H   0  0  0  0  0  0  0  0  0  0  0  0
    4.6309    1.9604   -3.8917 H   0  0  0  0  0  0  0  0  0  0  0  0
    6.1548    2.3677   -3.1063 H   0  0  0  0  0  0  0  0  0  0  0  0
    3.8674   -1.0083   -1.7481 H   0  0  0  0  0  0  0  0  0  0  0  0
    3.2660   -0.0312   -3.0755 H   0  0  0  0  0  0  0  0  0  0  0  0
    3.8621   -0.0013    0.6809 H   0  0  0  0  0  0  0  0  0  0  0  0
    3.2670    1.6310    0.9282 H   0  0  0  0  0  0  0  0  0  0  0  0
   -1.1465    0.7089   -1.3697 H   0  0  0  0  0  0  0  0  0  0  0  0
   -3.5260    0.5022   -1.6131 H   0  0  0  0  0  0  0  0  0  0  0  0
   -4.3740   -0.8696   -0.9299 H   0  0  0  0  0  0  0  0  0  0  0  0
   -5.6795   -0.5785    1.1318 H   0  0  0  0  0  0  0  0  0  0  0  0
   -6.4858    0.9210    2.9342 H   0  0  0  0  0  0  0  0  0  0  0  0
   -3.6718    3.9273    1.7380 H   0  0  0  0  0  0  0  0  0  0  0  0
   -2.7620   -1.9735    3.0470 H   0  0  0  0  0  0  0  0  0  0  0  0
   -4.5667   -3.3217    4.1036 H   0  0  0  0  0  0  0  0  0  0  0  0
   -5.7748   -4.7662    0.2476 H   0  0  0  0  0  0  0  0  0  0  0  0
  1  2  1  0
  2  3  1  0
  3  4  1  0
  4  5  2  0
  4  6  1  0
  7  6  1  1
  7  8  1  0
  8  9  1  0
  9 10  1  0
 10 11  1  0
 11 12  1  0
 12 13  1  0
 13 14  1  0
 13 15  1  0
 11 16  1  0
  3 17  2  0
 17 18  1  0
 18 19  1  0
 19 20  1  0
 20 21  1  0
 21 22  2  0
 22 23  1  0
 23 24  1  0
 23 25  2  0
 25 26  1  0
 26 27  1  0
 18 28  1  0
 28 29  1  0
 29 30  1  0
 30 31  2  0
 31 32  1  0
 32 33  1  0
 32 34  2  0
 34 35  1  0
 35 36  1  0
 28  2  2  0
 35 29  2  0
 15  7  1  0
 26 20  2  0
 16  7  1  0
 14  9  1  0
  1 37  1  0
  1 38  1  0
  1 39  1  0
  6 40  1  0
  8 41  1  0
  8 42  1  0
  9 43  1  6
 10 44  1  0
 10 45  1  0
 11 46  1  1
 12 47  1  0
 12 48  1  0
 13 49  1  6
 14 50  1  0
 14 51  1  0
 15 52  1  0
 15 53  1  0
 16 54  1  0
 16 55  1  0
 17 56  1  0
 19 57  1  0
 19 58  1  0
 21 59  1  0
 22 60  1  0
 25 61  1  0
 30 62  1  0
 31 63  1  0
 34 64  1  0
M  END
>  <_SMILES>  (64) 
Cc1c(C(=O)N[C@]23C[C@H]4C[C@H](C[C@H](C4)C2)C3)cn(Cc2ccc(F)cc2F)c1-c1ccc(F)cc1F

$$$$

     RDKit          3D

 68 73  0  0  0  0  0  0  0  0999 V2000
   -4.3319    3.6403   -1.7081 C   0  0  0  0  0  0  0  0  0  0  0  0
   -5.5391    2.8947   -1.6030 O   0  0  0  0  0  0  0  0  0  0  0  0
   -5.5351    1.8331   -0.7402 C   0  0  0  0  0  0  0  0  0  0  0  0
   -6.7018    1.0671   -0.7514 C   0  0  0  0  0  0  0  0  0  0  0  0
   -6.8283   -0.0460    0.0784 C   0  0  0  0  0  0  0  0  0  0  0  0
   -5.7834   -0.4013    0.9294 C   0  0  0  0  0  0  0  0  0  0  0  0
   -4.6003    0.3512    0.9551 C   0  0  0  0  0  0  0  0  0  0  0  0
   -3.4813   -0.0342    1.8938 C   0  0  0  0  0  0  0  0  0  0  0  0
   -2.2107   -0.2478    1.2009 N   0  0  0  0  0  0  0  0  0  0  0  0
   -1.1857    0.6611    1.1927 C   0  0  0  0  0  0  0  0  0  0  0  0
   -0.1265    0.1466    0.4671 C   0  0  0  0  0  0  0  0  0  0  0  0
    1.1249    0.8812    0.2630 C   0  0  0  0  0  0  0  0  0  0  0  0
    1.1627    2.1065    0.2693 O   0  0  0  0  0  0  0  0  0  0  0  0
    2.2350    0.0772    0.1271 N   0  0  0  0  0  0  0  0  0  0  0  0
    3.6123    0.5619    0.0172 C   0  0  2  0  0  0  0  0  0  0  0  0
    3.8067    1.4850   -1.2126 C   0  0  0  0  0  0  0  0  0  0  0  0
    5.2748    1.9324   -1.3279 C   0  0  1  0  0  0  0  0  0  0  0  0
    5.6766    2.6832   -0.0468 C   0  0  0  0  0  0  0  0  0  0  0  0
    5.5234    1.7633    1.1766 C   0  0  2  0  0  0  0  0  0  0  0  0
    6.4182    0.5269    0.9957 C   0  0  0  0  0  0  0  0  0  0  0  0
    6.0152   -0.2312   -0.2790 C   0  0  2  0  0  0  0  0  0  0  0  0
    6.1717    0.6960   -1.4939 C   0  0  0  0  0  0  0  0  0  0  0  0
    4.5458   -0.6662   -0.1633 C   0  0  0  0  0  0  0  0  0  0  0  0
    4.0555    1.3163    1.2945 C   0  0  0  0  0  0  0  0  0  0  0  0
   -0.5533   -1.1457   -0.0039 C   0  0  0  0  0  0  0  0  0  0  0  0
    0.2020   -2.0739   -0.8960 C   0  0  0  0  0  0  0  0  0  0  0  0
   -1.8307   -1.3764    0.5049 C   0  0  0  0  0  0  0  0  0  0  0  0
   -2.6884   -2.5471    0.3363 C   0  0  0  0  0  0  0  0  0  0  0  0
   -2.6205   -3.6052    1.2487 C   0  0  0  0  0  0  0  0  0  0  0  0
   -3.4420   -4.7228    1.0901 C   0  0  0  0  0  0  0  0  0  0  0  0
   -4.3313   -4.7886    0.0177 C   0  0  0  0  0  0  0  0  0  0  0  0
   -4.3979   -3.7398   -0.8988 C   0  0  0  0  0  0  0  0  0  0  0  0
   -3.5758   -2.6229   -0.7422 C   0  0  0  0  0  0  0  0  0  0  0  0
   -4.4929    1.4786    0.1192 C   0  0  0  0  0  0  0  0  0  0  0  0
   -4.0985    4.1450   -0.7649 H   0  0  0  0  0  0  0  0  0  0  0  0
   -3.5010    3.0064   -2.0353 H   0  0  0  0  0  0  0  0  0  0  0  0
   -4.4815    4.4118   -2.4696 H   0  0  0  0  0  0  0  0  0  0  0  0
   -7.5178    1.3401   -1.4158 H   0  0  0  0  0  0  0  0  0  0  0  0
   -7.7400   -0.6370    0.0579 H   0  0  0  0  0  0  0  0  0  0  0  0
   -5.8942   -1.2790    1.5633 H   0  0  0  0  0  0  0  0  0  0  0  0
   -3.7073   -0.9521    2.4481 H   0  0  0  0  0  0  0  0  0  0  0  0
   -3.3353    0.7600    2.6357 H   0  0  0  0  0  0  0  0  0  0  0  0
   -1.2767    1.6146    1.6987 H   0  0  0  0  0  0  0  0  0  0  0  0
    2.1066   -0.8858    0.4035 H   0  0  0  0  0  0  0  0  0  0  0  0
    3.5019    0.9620   -2.1286 H   0  0  0  0  0  0  0  0  0  0  0  0
    3.1715    2.3753   -1.1426 H   0  0  0  0  0  0  0  0  0  0  0  0
    5.3921    2.5921   -2.1949 H   0  0  0  0  0  0  0  0  0  0  0  0
    5.0521    3.5767    0.0756 H   0  0  0  0  0  0  0  0  0  0  0  0
    6.7146    3.0290   -0.1265 H   0  0  0  0  0  0  0  0  0  0  0  0
    5.8183    2.3027    2.0837 H   0  0  0  0  0  0  0  0  0  0  0  0
    6.3283   -0.1318    1.8682 H   0  0  0  0  0  0  0  0  0  0  0  0
    7.4702    0.8314    0.9338 H   0  0  0  0  0  0  0  0  0  0  0  0
    6.6538   -1.1130   -0.4022 H   0  0  0  0  0  0  0  0  0  0  0  0
    7.2193    1.0039   -1.5983 H   0  0  0  0  0  0  0  0  0  0  0  0
    5.9044    0.1594   -2.4125 H   0  0  0  0  0  0  0  0  0  0  0  0
    4.4319   -1.3549    0.6848 H   0  0  0  0  0  0  0  0  0  0  0  0
    4.2546   -1.2329   -1.0580 H   0  0  0  0  0  0  0  0  0  0  0  0
    3.9308    0.6728    2.1753 H   0  0  0  0  0  0  0  0  0  0  0  0
    3.4251    2.1969    1.4667 H   0  0  0  0  0  0  0  0  0  0  0  0
    0.8731   -2.7051   -0.3052 H   0  0  0  0  0  0  0  0  0  0  0  0
    0.7949   -1.5183   -1.6294 H   0  0  0  0  0  0  0  0  0  0  0  0
   -0.4706   -2.7282   -1.4595 H   0  0  0  0  0  0  0  0  0  0  0  0
   -1.9267   -3.5628    2.0846 H   0  0  0  0  0  0  0  0  0  0  0  0
   -3.3863   -5.5429    1.8011 H   0  0  0  0  0  0  0  0  0  0  0  0
   -4.9704   -5.6590   -0.1064 H   0  0  0  0  0  0  0  0  0  0  0  0
   -5.0893   -3.7887   -1.7359 H   0  0  0  0  0  0  0  0  0  0  0  0
   -3.6362   -1.8063   -1.4588 H   0  0  0  0  0  0  0  0  0  0  0  0
   -3.5793    2.0643    0.1526 H   0  0  0  0  0  0  0  0  0  0  0  0
  1  2  1  0
  2  3  1  0
  3  4  1  0
  4  5  2  0
  5  6  1  0
  6  7  2  0
  7  8  1  0
  8  9  1  0
  9 10  1  0
 10 11  2  0
 11 12  1  0
 12 13  2  0
 12 14  1  0
 15 14  1  1
 15 16  1  0
 16 17  1  0
 17 18  1  0
 18 19  1  0
 19 20  1  0
 20 21  1  0
 21 22  1  0
 21 23  1  0
 19 24  1  0
 11 25  1  0
 25 26  1  0
 25 27  2  0
 27 28  1  0
 28 29  2  0
 29 30  1  0
 30 31  2  0
 31 32  1  0
 32 33  2  0
  7 34  1  0
 34  3  2  0
 27  9  1  0
 33 28  1  0
 23 15  1  0
 24 15  1  0
 22 17  1  0
  1 35  1  0
  1 36  1  0
  1 37  1  0
  4 38  1  0
  5 39  1  0
  6 40  1  0
  8 41  1  0
  8 42  1  0
 10 43  1  0
 14 44  1  0
 16 45  1  0
 16 46  1  0
 17 47  1  6
 18 48  1  0
 18 49  1  0
 19 50  1  1
 20 51  1  0
 20 52  1  0
 21 53  1  6
 22 54  1  0
 22 55  1  0
 23 56  1  0
 23 57  1  0
 24 58  1  0
 24 59  1  0
 26 60  1  0
 26 61  1  0
 26 62  1  0
 29 63  1  0
 30 64  1  0
 31 65  1  0
 32 66  1  0
 33 67  1  0
 34 68  1  0
M  END
>  <_SMILES>  (65) 
COc1cccc(Cn2cc(C(=O)N[C@]34C[C@H]5C[C@H](C[C@H](C5)C3)C4)c(C)c2-c2ccccc2)c1

$$$$

     RDKit          3D

 64 69  0  0  0  0  0  0  0  0999 V2000
    0.7947   -3.4642   -0.9936 C   0  0  0  0  0  0  0  0  0  0  0  0
    1.2509   -2.2162   -0.3127 C   0  0  0  0  0  0  0  0  0  0  0  0
    0.3978   -1.1410    0.1153 C   0  0  0  0  0  0  0  0  0  0  0  0
   -1.0624   -1.0577   -0.0251 C   0  0  0  0  0  0  0  0  0  0  0  0
   -1.7472   -2.0381   -0.2938 O   0  0  0  0  0  0  0  0  0  0  0  0
   -1.5807    0.2107    0.1423 N   0  0  0  0  0  0  0  0  0  0  0  0
   -2.9885    0.5711   -0.0410 C   0  0  2  0  0  0  0  0  0  0  0  0
   -3.1474    2.0843    0.2721 C   0  0  0  0  0  0  0  0  0  0  0  0
   -4.6053    2.5361    0.0924 C   0  0  1  0  0  0  0  0  0  0  0  0
   -5.0394    2.2726   -1.3581 C   0  0  0  0  0  0  0  0  0  0  0  0
   -4.9166    0.7746   -1.6790 C   0  0  2  0  0  0  0  0  0  0  0  0
   -5.8092   -0.0253   -0.7149 C   0  0  0  0  0  0  0  0  0  0  0  0
   -5.3816    0.2323    0.7401 C   0  0  2  0  0  0  0  0  0  0  0  0
   -5.5026    1.7330    1.0464 C   0  0  0  0  0  0  0  0  0  0  0  0
   -3.9184   -0.2087    0.9231 C   0  0  0  0  0  0  0  0  0  0  0  0
   -3.4531    0.3340   -1.4990 C   0  0  0  0  0  0  0  0  0  0  0  0
    1.2281   -0.2136    0.7235 C   0  0  0  0  0  0  0  0  0  0  0  0
    2.5303   -0.6445    0.6317 N   0  0  0  0  0  0  0  0  0  0  0  0
    3.6926    0.0652    1.1732 C   0  0  0  0  0  0  0  0  0  0  0  0
    3.6504    1.5584    0.9395 C   0  0  0  0  0  0  0  0  0  0  0  0
    3.3529    2.4098    2.0204 C   0  0  0  0  0  0  0  0  0  0  0  0
    3.2940    3.7881    1.8368 C   0  0  0  0  0  0  0  0  0  0  0  0
    3.0040    4.5783    2.8778 F   0  0  0  0  0  0  0  0  0  0  0  0
    3.5280    4.3544    0.5919 C   0  0  0  0  0  0  0  0  0  0  0  0
    3.8279    3.5269   -0.4894 C   0  0  0  0  0  0  0  0  0  0  0  0
    3.8899    2.1379   -0.3193 C   0  0  0  0  0  0  0  0  0  0  0  0
    4.2783    1.1851   -1.7048 Cl  0  0  0  0  0  0  0  0  0  0  0  0
    2.5582   -1.8896    0.0345 C   0  0  0  0  0  0  0  0  0  0  0  0
    3.7789   -2.6705   -0.1530 C   0  0  0  0  0  0  0  0  0  0  0  0
    4.4547   -2.6399   -1.3771 C   0  0  0  0  0  0  0  0  0  0  0  0
    5.6264   -3.3782   -1.5509 C   0  0  0  0  0  0  0  0  0  0  0  0
    6.1238   -4.1542   -0.5043 C   0  0  0  0  0  0  0  0  0  0  0  0
    5.4491   -4.1960    0.7155 C   0  0  0  0  0  0  0  0  0  0  0  0
    4.2779   -3.4570    0.8912 C   0  0  0  0  0  0  0  0  0  0  0  0
    1.6342   -4.0872   -1.3161 H   0  0  0  0  0  0  0  0  0  0  0  0
    0.2051   -3.2205   -1.8833 H   0  0  0  0  0  0  0  0  0  0  0  0
    0.1769   -4.0616   -0.3155 H   0  0  0  0  0  0  0  0  0  0  0  0
   -0.9097    0.9647    0.1508 H   0  0  0  0  0  0  0  0  0  0  0  0
   -2.8179    2.2936    1.2987 H   0  0  0  0  0  0  0  0  0  0  0  0
   -2.4955    2.6761   -0.3845 H   0  0  0  0  0  0  0  0  0  0  0  0
   -4.6918    3.6053    0.3157 H   0  0  0  0  0  0  0  0  0  0  0  0
   -4.4173    2.8561   -2.0478 H   0  0  0  0  0  0  0  0  0  0  0  0
   -6.0747    2.6038   -1.5055 H   0  0  0  0  0  0  0  0  0  0  0  0
   -5.2320    0.5917   -2.7123 H   0  0  0  0  0  0  0  0  0  0  0  0
   -5.7403   -1.0963   -0.9419 H   0  0  0  0  0  0  0  0  0  0  0  0
   -6.8588    0.2622   -0.8522 H   0  0  0  0  0  0  0  0  0  0  0  0
   -6.0256   -0.3360    1.4206 H   0  0  0  0  0  0  0  0  0  0  0  0
   -6.5459    2.0546    0.9399 H   0  0  0  0  0  0  0  0  0  0  0  0
   -5.2138    1.9280    2.0865 H   0  0  0  0  0  0  0  0  0  0  0  0
   -3.6057   -0.0456    1.9628 H   0  0  0  0  0  0  0  0  0  0  0  0
   -3.8516   -1.2887    0.7493 H   0  0  0  0  0  0  0  0  0  0  0  0
   -3.3615   -0.7242   -1.7714 H   0  0  0  0  0  0  0  0  0  0  0  0
   -2.8084    0.8866   -2.1951 H   0  0  0  0  0  0  0  0  0  0  0  0
    0.9933    0.7168    1.2218 H   0  0  0  0  0  0  0  0  0  0  0  0
    3.7111   -0.1673    2.2451 H   0  0  0  0  0  0  0  0  0  0  0  0
    4.6100   -0.3454    0.7412 H   0  0  0  0  0  0  0  0  0  0  0  0
    3.1587    2.0110    3.0131 H   0  0  0  0  0  0  0  0  0  0  0  0
    3.4778    5.4320    0.4708 H   0  0  0  0  0  0  0  0  0  0  0  0
    4.0146    3.9695   -1.4654 H   0  0  0  0  0  0  0  0  0  0  0  0
    4.0694   -2.0416   -2.1994 H   0  0  0  0  0  0  0  0  0  0  0  0
    6.1476   -3.3501   -2.5042 H   0  0  0  0  0  0  0  0  0  0  0  0
    7.0339   -4.7323   -0.6422 H   0  0  0  0  0  0  0  0  0  0  0  0
    5.8310   -4.8091    1.5275 H   0  0  0  0  0  0  0  0  0  0  0  0
    3.7505   -3.5039    1.8409 H   0  0  0  0  0  0  0  0  0  0  0  0
  1  2  1  0
  2  3  1  0
  3  4  1  0
  4  5  2  0
  4  6  1  0
  7  6  1  6
  7  8  1  0
  8  9  1  0
  9 10  1  0
 10 11  1  0
 11 12  1  0
 12 13  1  0
 13 14  1  0
 13 15  1  0
 11 16  1  0
  3 17  2  0
 17 18  1  0
 18 19  1  0
 19 20  1  0
 20 21  1  0
 21 22  2  0
 22 23  1  0
 22 24  1  0
 24 25  2  0
 25 26  1  0
 26 27  1  0
 18 28  1  0
 28 29  1  0
 29 30  2  0
 30 31  1  0
 31 32  2  0
 32 33  1  0
 33 34  2  0
 28  2  2  0
 34 29  1  0
 15  7  1  0
 26 20  2  0
 16  7  1  0
 14  9  1  0
  1 35  1  0
  1 36  1  0
  1 37  1  0
  6 38  1  0
  8 39  1  0
  8 40  1  0
  9 41  1  1
 10 42  1  0
 10 43  1  0
 11 44  1  6
 12 45  1  0
 12 46  1  0
 13 47  1  1
 14 48  1  0
 14 49  1  0
 15 50  1  0
 15 51  1  0
 16 52  1  0
 16 53  1  0
 17 54  1  0
 19 55  1  0
 19 56  1  0
 21 57  1  0
 24 58  1  0
 25 59  1  0
 30 60  1  0
 31 61  1  0
 32 62  1  0
 33 63  1  0
 34 64  1  0
M  END
>  <_SMILES>  (66) 
Cc1c(C(=O)N[C@]23C[C@H]4C[C@H](C[C@H](C4)C2)C3)cn(Cc2cc(F)ccc2Cl)c1-c1ccccc1

$$$$

     RDKit          3D

 76 81  0  0  0  0  0  0  0  0999 V2000
   -1.0094    0.2940    1.7779 C   0  0  0  0  0  0  0  0  0  0  0  0
   -2.0137    0.4901    0.6919 C   0  0  0  0  0  0  0  0  0  0  0  0
   -1.7682    0.5169   -0.7281 C   0  0  0  0  0  0  0  0  0  0  0  0
   -0.5278    0.4094   -1.5011 C   0  0  0  0  0  0  0  0  0  0  0  0
   -0.5159    0.0294   -2.6656 O   0  0  0  0  0  0  0  0  0  0  0  0
    0.6058    0.8186   -0.8237 N   0  0  0  0  0  0  0  0  0  0  0  0
    1.9456    0.9469   -1.4241 C   0  0  2  0  0  0  0  0  0  0  0  0
    1.9345    2.0992   -2.4519 C   0  0  0  0  0  0  0  0  0  0  0  0
    2.3869   -0.3456   -2.1626 C   0  0  0  0  0  0  0  0  0  0  0  0
    2.4614   -1.6163   -1.3157 C   0  0  0  0  0  0  0  0  0  0  0  0
    3.3585   -1.5472   -0.0825 C   0  0  0  0  0  0  0  0  0  0  0  0
    4.5988   -0.6844   -0.2813 C   0  0  1  0  0  0  0  0  0  0  0  0
    4.3732    0.8623   -0.4089 C   0  0  2  0  0  0  0  0  0  0  0  0
    5.2775    1.5117    0.6804 C   0  0  0  0  0  0  0  0  0  0  0  0
    6.3278    0.4556    0.8908 C   0  0  1  0  0  0  0  0  0  0  0  0
    7.1170    0.2910    2.1623 C   0  0  0  0  0  0  0  0  0  0  0  0
    7.4436   -1.2166    2.1485 C   0  0  0  0  0  0  0  0  0  0  0  0
    6.4226   -1.8847    1.2097 C   0  0  0  0  0  0  0  0  0  0  0  0
    5.4647   -0.7743    0.9399 N   0  0  2  0  0  0  0  0  0  0  0  0
    2.9197    1.3357   -0.2653 C   0  0  0  0  0  0  0  0  0  0  0  0
   -3.0079    0.6408   -1.3272 C   0  0  0  0  0  0  0  0  0  0  0  0
   -3.9784    0.6994   -0.3607 N   0  0  0  0  0  0  0  0  0  0  0  0
   -5.4064    0.8227   -0.6551 C   0  0  0  0  0  0  0  0  0  0  0  0
   -5.9599   -0.4057   -1.3351 C   0  0  0  0  0  0  0  0  0  0  0  0
   -6.0478   -1.6277   -0.6514 C   0  0  0  0  0  0  0  0  0  0  0  0
   -6.5695   -2.7583   -1.2820 C   0  0  0  0  0  0  0  0  0  0  0  0
   -7.0109   -2.6808   -2.6010 C   0  0  0  0  0  0  0  0  0  0  0  0
   -6.9306   -1.4734   -3.2913 C   0  0  0  0  0  0  0  0  0  0  0  0
   -6.4090   -0.3412   -2.6628 C   0  0  0  0  0  0  0  0  0  0  0  0
   -3.3847    0.6648    0.8852 C   0  0  0  0  0  0  0  0  0  0  0  0
   -4.1293    0.7600    2.1423 C   0  0  0  0  0  0  0  0  0  0  0  0
   -4.5157    2.0154    2.6288 C   0  0  0  0  0  0  0  0  0  0  0  0
   -5.2303    2.1185    3.8257 C   0  0  0  0  0  0  0  0  0  0  0  0
   -5.5600    0.9702    4.5471 C   0  0  0  0  0  0  0  0  0  0  0  0
   -5.1725   -0.2828    4.0746 C   0  0  0  0  0  0  0  0  0  0  0  0
   -4.4604   -0.3808    2.8818 C   0  0  0  0  0  0  0  0  0  0  0  0
   -4.0966   -1.5986    2.4514 F   0  0  0  0  0  0  0  0  0  0  0  0
   -0.5286    1.2454    2.0263 H   0  0  0  0  0  0  0  0  0  0  0  0
   -1.4672   -0.1003    2.6900 H   0  0  0  0  0  0  0  0  0  0  0  0
   -0.2393   -0.4223    1.4748 H   0  0  0  0  0  0  0  0  0  0  0  0
    0.3928    1.4374   -0.0524 H   0  0  0  0  0  0  0  0  0  0  0  0
    1.5701    3.0292   -2.0001 H   0  0  0  0  0  0  0  0  0  0  0  0
    1.2795    1.8782   -3.3016 H   0  0  0  0  0  0  0  0  0  0  0  0
    2.9386    2.2870   -2.8480 H   0  0  0  0  0  0  0  0  0  0  0  0
    3.3605   -0.1822   -2.6432 H   0  0  0  0  0  0  0  0  0  0  0  0
    1.7195   -0.5538   -3.0063 H   0  0  0  0  0  0  0  0  0  0  0  0
    1.4552   -1.9250   -1.0081 H   0  0  0  0  0  0  0  0  0  0  0  0
    2.8335   -2.4205   -1.9640 H   0  0  0  0  0  0  0  0  0  0  0  0
    3.6563   -2.5714    0.1775 H   0  0  0  0  0  0  0  0  0  0  0  0
    2.7733   -1.1950    0.7752 H   0  0  0  0  0  0  0  0  0  0  0  0
    5.2027   -1.0462   -1.1230 H   0  0  0  0  0  0  0  0  0  0  0  0
    4.7552    1.1835   -1.3872 H   0  0  0  0  0  0  0  0  0  0  0  0
    5.7028    2.4612    0.3414 H   0  0  0  0  0  0  0  0  0  0  0  0
    4.7156    1.7016    1.6030 H   0  0  0  0  0  0  0  0  0  0  0  0
    6.9821    0.3698    0.0103 H   0  0  0  0  0  0  0  0  0  0  0  0
    8.0195    0.9083    2.1835 H   0  0  0  0  0  0  0  0  0  0  0  0
    6.5139    0.5386    3.0439 H   0  0  0  0  0  0  0  0  0  0  0  0
    7.3886   -1.6330    3.1598 H   0  0  0  0  0  0  0  0  0  0  0  0
    8.4595   -1.3928    1.7775 H   0  0  0  0  0  0  0  0  0  0  0  0
    6.8748   -2.1916    0.2615 H   0  0  0  0  0  0  0  0  0  0  0  0
    5.8792   -2.7114    1.6742 H   0  0  0  0  0  0  0  0  0  0  0  0
    4.8483   -0.7081    1.7640 H   0  0  0  0  0  0  0  0  0  0  0  0
    2.5292    0.9665    0.6929 H   0  0  0  0  0  0  0  0  0  0  0  0
    2.9140    2.4288   -0.1495 H   0  0  0  0  0  0  0  0  0  0  0  0
   -3.2691    0.6700   -2.3787 H   0  0  0  0  0  0  0  0  0  0  0  0
   -5.5152    1.7139   -1.2852 H   0  0  0  0  0  0  0  0  0  0  0  0
   -5.9613    1.0134    0.2678 H   0  0  0  0  0  0  0  0  0  0  0  0
   -5.7046   -1.7107    0.3774 H   0  0  0  0  0  0  0  0  0  0  0  0
   -6.6294   -3.7005   -0.7434 H   0  0  0  0  0  0  0  0  0  0  0  0
   -7.4163   -3.5620   -3.0915 H   0  0  0  0  0  0  0  0  0  0  0  0
   -7.2740   -1.4141   -4.3210 H   0  0  0  0  0  0  0  0  0  0  0  0
   -6.3544    0.5908   -3.2214 H   0  0  0  0  0  0  0  0  0  0  0  0
   -4.2640    2.9187    2.0775 H   0  0  0  0  0  0  0  0  0  0  0  0
   -5.5322    3.0961    4.1953 H   0  0  0  0  0  0  0  0  0  0  0  0
   -6.1191    1.0525    5.4764 H   0  0  0  0  0  0  0  0  0  0  0  0
   -5.4220   -1.1842    4.6258 H   0  0  0  0  0  0  0  0  0  0  0  0
  1  2  1  0
  2  3  1  0
  3  4  1  0
  4  5  2  0
  4  6  1  0
  7  6  1  1
  7  8  1  0
  7  9  1  0
  9 10  1  0
 10 11  1  0
 11 12  1  0
 12 13  1  0
 13 14  1  0
 14 15  1  0
 15 16  1  0
 16 17  1  0
 17 18  1  0
 18 19  1  0
 13 20  1  0
  3 21  2  0
 21 22  1  0
 22 23  1  0
 23 24  1  0
 24 25  2  0
 25 26  1  0
 26 27  2  0
 27 28  1  0
 28 29  2  0
 22 30  1  0
 30 31  1  0
 31 32  2  0
 32 33  1  0
 33 34  2  0
 34 35  1  0
 35 36  2  0
 36 37  1  0
 30  2  2  0
 36 31  1  0
 20  7  1  0
 29 24  1  0
 19 12  1  0
 19 15  1  0
  1 38  1  0
  1 39  1  0
  1 40  1  0
  6 41  1  0
  8 42  1  0
  8 43  1  0
  8 44  1  0
  9 45  1  0
  9 46  1  0
 10 47  1  0
 10 48  1  0
 11 49  1  0
 11 50  1  0
 12 51  1  6
 13 52  1  6
 14 53  1  0
 14 54  1  0
 15 55  1  6
 16 56  1  0
 16 57  1  0
 17 58  1  0
 17 59  1  0
 18 60  1  0
 18 61  1  0
 19 62  1  1
 20 63  1  0
 20 64  1  0
 21 65  1  0
 23 66  1  0
 23 67  1  0
 25 68  1  0
 26 69  1  0
 27 70  1  0
 28 71  1  0
 29 72  1  0
 32 73  1  0
 33 74  1  0
 34 75  1  0
 35 76  1  0
M  CHG  1  19   1
M  END
>  <_SMILES>  (67) 
Cc1c(C(=O)N[C@]2(C)CCC[C@H]3[C@H](C[C@H]4CCC[N@@H+]43)C2)cn(Cc2ccccc2)c1-c1ccccc1F

$$$$

     RDKit          3D

 76 81  0  0  0  0  0  0  0  0999 V2000
   -2.1459   -1.0963   -3.2248 C   0  0  0  0  0  0  0  0  0  0  0  0
   -2.0819   -0.3362   -1.9396 C   0  0  0  0  0  0  0  0  0  0  0  0
   -1.0402   -0.4505   -0.9511 C   0  0  0  0  0  0  0  0  0  0  0  0
    0.1419   -1.3218   -1.0186 C   0  0  0  0  0  0  0  0  0  0  0  0
    0.3946   -2.0028   -2.0050 O   0  0  0  0  0  0  0  0  0  0  0  0
    0.9409   -1.3097    0.1126 N   0  0  0  0  0  0  0  0  0  0  0  0
    2.0965   -2.2041    0.3582 C   0  0  2  0  0  0  0  0  0  0  0  0
    1.5821   -3.6540    0.4771 C   0  0  0  0  0  0  0  0  0  0  0  0
    2.6842   -1.7618    1.7247 C   0  0  0  0  0  0  0  0  0  0  0  0
    4.0210   -2.3350    2.1758 C   0  0  0  0  0  0  0  0  0  0  0  0
    5.2437   -2.1809    1.2717 C   0  0  0  0  0  0  0  0  0  0  0  0
    5.2998   -1.1135    0.1806 C   0  0  1  0  0  0  0  0  0  0  0  0
    4.1432   -0.9841   -0.8171 C   0  0  2  0  0  0  0  0  0  0  0  0
    3.5968    0.4329   -0.6698 C   0  0  0  0  0  0  0  0  0  0  0  0
    4.7984    1.2559   -0.2322 C   0  0  1  0  0  0  0  0  0  0  0  0
    4.4815    2.4292    0.6916 C   0  0  0  0  0  0  0  0  0  0  0  0
    5.3988    2.2470    1.8918 C   0  0  0  0  0  0  0  0  0  0  0  0
    5.4778    0.7411    2.0440 C   0  0  0  0  0  0  0  0  0  0  0  0
    5.6190    0.2910    0.6210 N   0  0  1  0  0  0  0  0  0  0  0  0
    3.1397   -2.1406   -0.7927 C   0  0  0  0  0  0  0  0  0  0  0  0
   -1.3717    0.4434    0.0550 C   0  0  0  0  0  0  0  0  0  0  0  0
   -2.5636    1.0552   -0.2621 N   0  0  0  0  0  0  0  0  0  0  0  0
   -3.2196    2.0497    0.5888 C   0  0  0  0  0  0  0  0  0  0  0  0
   -4.4439    1.5023    1.2803 C   0  0  0  0  0  0  0  0  0  0  0  0
   -4.3503    0.4329    2.1843 C   0  0  0  0  0  0  0  0  0  0  0  0
   -5.4900   -0.0591    2.8230 C   0  0  0  0  0  0  0  0  0  0  0  0
   -6.7343    0.5138    2.5703 C   0  0  0  0  0  0  0  0  0  0  0  0
   -6.8410    1.5796    1.6801 C   0  0  0  0  0  0  0  0  0  0  0  0
   -5.7029    2.0738    1.0410 C   0  0  0  0  0  0  0  0  0  0  0  0
   -2.9994    0.6108   -1.4925 C   0  0  0  0  0  0  0  0  0  0  0  0
   -4.2274    1.0800   -2.1375 C   0  0  0  0  0  0  0  0  0  0  0  0
   -5.3579    0.2545   -2.1707 C   0  0  0  0  0  0  0  0  0  0  0  0
   -6.5346    0.6930   -2.7844 C   0  0  0  0  0  0  0  0  0  0  0  0
   -6.5901    1.9570   -3.3733 C   0  0  0  0  0  0  0  0  0  0  0  0
   -5.4690    2.7851   -3.3479 C   0  0  0  0  0  0  0  0  0  0  0  0
   -4.2994    2.3439   -2.7337 C   0  0  0  0  0  0  0  0  0  0  0  0
   -3.2387    3.1667   -2.7074 F   0  0  0  0  0  0  0  0  0  0  0  0
   -3.0241   -0.8292   -3.8195 H   0  0  0  0  0  0  0  0  0  0  0  0
   -1.2611   -0.8873   -3.8347 H   0  0  0  0  0  0  0  0  0  0  0  0
   -2.1922   -2.1721   -3.0277 H   0  0  0  0  0  0  0  0  0  0  0  0
    0.4595   -0.9731    0.9350 H   0  0  0  0  0  0  0  0  0  0  0  0
    0.8015   -3.7352    1.2424 H   0  0  0  0  0  0  0  0  0  0  0  0
    2.3882   -4.3453    0.7450 H   0  0  0  0  0  0  0  0  0  0  0  0
    1.1484   -4.0065   -0.4650 H   0  0  0  0  0  0  0  0  0  0  0  0
    2.7505   -0.6710    1.7673 H   0  0  0  0  0  0  0  0  0  0  0  0
    1.9492   -1.9999    2.5083 H   0  0  0  0  0  0  0  0  0  0  0  0
    4.2602   -1.8765    3.1446 H   0  0  0  0  0  0  0  0  0  0  0  0
    3.8941   -3.4015    2.4023 H   0  0  0  0  0  0  0  0  0  0  0  0
    6.1340   -2.0908    1.9085 H   0  0  0  0  0  0  0  0  0  0  0  0
    5.3782   -3.1497    0.7691 H   0  0  0  0  0  0  0  0  0  0  0  0
    6.1824   -1.3841   -0.4184 H   0  0  0  0  0  0  0  0  0  0  0  0
    4.6064   -1.0242   -1.8161 H   0  0  0  0  0  0  0  0  0  0  0  0
    2.7936    0.5053    0.0630 H   0  0  0  0  0  0  0  0  0  0  0  0
    3.1870    0.8043   -1.6155 H   0  0  0  0  0  0  0  0  0  0  0  0
    5.4369    1.5416   -1.0757 H   0  0  0  0  0  0  0  0  0  0  0  0
    3.4344    2.4177    1.0159 H   0  0  0  0  0  0  0  0  0  0  0  0
    4.6540    3.3900    0.1962 H   0  0  0  0  0  0  0  0  0  0  0  0
    6.3907    2.6625    1.6767 H   0  0  0  0  0  0  0  0  0  0  0  0
    5.0118    2.7371    2.7896 H   0  0  0  0  0  0  0  0  0  0  0  0
    6.3472    0.4005    2.6118 H   0  0  0  0  0  0  0  0  0  0  0  0
    4.5521    0.3428    2.4582 H   0  0  0  0  0  0  0  0  0  0  0  0
    6.6061    0.4581    0.3779 H   0  0  0  0  0  0  0  0  0  0  0  0
    3.7171   -3.0754   -0.7992 H   0  0  0  0  0  0  0  0  0  0  0  0
    2.6397   -2.1456   -1.7651 H   0  0  0  0  0  0  0  0  0  0  0  0
   -0.8705    0.7033    0.9765 H   0  0  0  0  0  0  0  0  0  0  0  0
   -3.4502    2.9182   -0.0368 H   0  0  0  0  0  0  0  0  0  0  0  0
   -2.4953    2.3859    1.3405 H   0  0  0  0  0  0  0  0  0  0  0  0
   -3.3902   -0.0321    2.3930 H   0  0  0  0  0  0  0  0  0  0  0  0
   -5.4093   -0.8923    3.5165 H   0  0  0  0  0  0  0  0  0  0  0  0
   -7.6221    0.1288    3.0657 H   0  0  0  0  0  0  0  0  0  0  0  0
   -7.8125    2.0252    1.4805 H   0  0  0  0  0  0  0  0  0  0  0  0
   -5.8116    2.9029    0.3444 H   0  0  0  0  0  0  0  0  0  0  0  0
   -5.3294   -0.7308   -1.7101 H   0  0  0  0  0  0  0  0  0  0  0  0
   -7.4087    0.0459   -2.8017 H   0  0  0  0  0  0  0  0  0  0  0  0
   -7.5064    2.2939   -3.8522 H   0  0  0  0  0  0  0  0  0  0  0  0
   -5.4981    3.7701   -3.8030 H   0  0  0  0  0  0  0  0  0  0  0  0
  1  2  1  0
  2  3  1  0
  3  4  1  0
  4  5  2  0
  4  6  1  0
  7  6  1  6
  7  8  1  0
  7  9  1  0
  9 10  1  0
 10 11  1  0
 11 12  1  0
 12 13  1  0
 13 14  1  0
 14 15  1  0
 15 16  1  0
 16 17  1  0
 17 18  1  0
 18 19  1  0
 13 20  1  0
  3 21  2  0
 21 22  1  0
 22 23  1  0
 23 24  1  0
 24 25  2  0
 25 26  1  0
 26 27  2  0
 27 28  1  0
 28 29  2  0
 22 30  1  0
 30 31  1  0
 31 32  2  0
 32 33  1  0
 33 34  2  0
 34 35  1  0
 35 36  2  0
 36 37  1  0
 30  2  2  0
 36 31  1  0
 20  7  1  0
 29 24  1  0
 19 12  1  0
 19 15  1  0
  1 38  1  0
  1 39  1  0
  1 40  1  0
  6 41  1  0
  8 42  1  0
  8 43  1  0
  8 44  1  0
  9 45  1  0
  9 46  1  0
 10 47  1  0
 10 48  1  0
 11 49  1  0
 11 50  1  0
 12 51  1  6
 13 52  1  6
 14 53  1  0
 14 54  1  0
 15 55  1  6
 16 56  1  0
 16 57  1  0
 17 58  1  0
 17 59  1  0
 18 60  1  0
 18 61  1  0
 19 62  1  6
 20 63  1  0
 20 64  1  0
 21 65  1  0
 23 66  1  0
 23 67  1  0
 25 68  1  0
 26 69  1  0
 27 70  1  0
 28 71  1  0
 29 72  1  0
 32 73  1  0
 33 74  1  0
 34 75  1  0
 35 76  1  0
M  CHG  1  19   1
M  END
>  <_SMILES>  (68) 
Cc1c(C(=O)N[C@]2(C)CCC[C@H]3[C@H](C[C@H]4CCC[N@H+]43)C2)cn(Cc2ccccc2)c1-c1ccccc1F

$$$$

     RDKit          3D

 64 69  0  0  0  0  0  0  0  0999 V2000
   -0.3170   -2.2315   -0.6087 C   0  0  0  0  0  0  0  0  0  0  0  0
   -0.9818   -1.1858    0.2240 C   0  0  0  0  0  0  0  0  0  0  0  0
   -0.3407   -0.2194    1.0777 C   0  0  0  0  0  0  0  0  0  0  0  0
    1.0773    0.0484    1.3337 C   0  0  0  0  0  0  0  0  0  0  0  0
    1.4657    0.5059    2.4024 O   0  0  0  0  0  0  0  0  0  0  0  0
    1.9005   -0.1999    0.2574 N   0  0  0  0  0  0  0  0  0  0  0  0
    3.3360    0.0871    0.2177 C   0  0  2  0  0  0  0  0  0  0  0  0
    3.6188    1.6033    0.3523 C   0  0  0  0  0  0  0  0  0  0  0  0
    5.1286    1.8831    0.2482 C   0  0  1  0  0  0  0  0  0  0  0  0
    5.8639    1.1189    1.3624 C   0  0  0  0  0  0  0  0  0  0  0  0
    5.6212   -0.3932    1.2171 C   0  0  2  0  0  0  0  0  0  0  0  0
    6.1320   -0.8595   -0.1549 C   0  0  0  0  0  0  0  0  0  0  0  0
    5.3938   -0.1063   -1.2720 C   0  0  2  0  0  0  0  0  0  0  0  0
    5.6414    1.4027   -1.1188 C   0  0  0  0  0  0  0  0  0  0  0  0
    3.8867   -0.3840   -1.1561 C   0  0  0  0  0  0  0  0  0  0  0  0
    4.1118   -0.6756    1.3217 C   0  0  0  0  0  0  0  0  0  0  0  0
   -1.3590    0.4698    1.7111 C   0  0  0  0  0  0  0  0  0  0  0  0
   -2.5659    0.0251    1.2399 N   0  0  0  0  0  0  0  0  0  0  0  0
   -3.8551    0.5427    1.6968 C   0  0  0  0  0  0  0  0  0  0  0  0
   -4.5021    1.4569    0.6829 C   0  0  0  0  0  0  0  0  0  0  0  0
   -5.7474    1.1230    0.1241 C   0  0  0  0  0  0  0  0  0  0  0  0
   -6.3525    1.9638   -0.8113 C   0  0  0  0  0  0  0  0  0  0  0  0
   -5.7194    3.1425   -1.1842 C   0  0  0  0  0  0  0  0  0  0  0  0
   -6.3004    3.9479   -2.0830 F   0  0  0  0  0  0  0  0  0  0  0  0
   -4.4927    3.4985   -0.6382 C   0  0  0  0  0  0  0  0  0  0  0  0
   -3.8847    2.6589    0.2965 C   0  0  0  0  0  0  0  0  0  0  0  0
   -2.3585   -0.9961    0.3355 C   0  0  0  0  0  0  0  0  0  0  0  0
   -3.4385   -1.7109   -0.3400 C   0  0  0  0  0  0  0  0  0  0  0  0
   -4.0684   -2.7943    0.2860 C   0  0  0  0  0  0  0  0  0  0  0  0
   -5.1011   -3.4730   -0.3627 C   0  0  0  0  0  0  0  0  0  0  0  0
   -5.4948   -3.0684   -1.6335 C   0  0  0  0  0  0  0  0  0  0  0  0
   -6.4884   -3.7184   -2.2531 F   0  0  0  0  0  0  0  0  0  0  0  0
   -4.8738   -2.0005   -2.2710 C   0  0  0  0  0  0  0  0  0  0  0  0
   -3.8399   -1.3218   -1.6246 C   0  0  0  0  0  0  0  0  0  0  0  0
    0.5836   -2.6121   -0.1168 H   0  0  0  0  0  0  0  0  0  0  0  0
   -0.0392   -1.8193   -1.5837 H   0  0  0  0  0  0  0  0  0  0  0  0
   -0.9752   -3.0896   -0.7778 H   0  0  0  0  0  0  0  0  0  0  0  0
    1.4294   -0.3086   -0.6294 H   0  0  0  0  0  0  0  0  0  0  0  0
    3.2482    1.9863    1.3106 H   0  0  0  0  0  0  0  0  0  0  0  0
    3.0817    2.1582   -0.4282 H   0  0  0  0  0  0  0  0  0  0  0  0
    5.3123    2.9581    0.3541 H   0  0  0  0  0  0  0  0  0  0  0  0
    5.5158    1.4617    2.3446 H   0  0  0  0  0  0  0  0  0  0  0  0
    6.9391    1.3310    1.3141 H   0  0  0  0  0  0  0  0  0  0  0  0
    6.1526   -0.9306    2.0105 H   0  0  0  0  0  0  0  0  0  0  0  0
    7.2117   -0.6825   -0.2331 H   0  0  0  0  0  0  0  0  0  0  0  0
    5.9776   -1.9399   -0.2651 H   0  0  0  0  0  0  0  0  0  0  0  0
    5.7584   -0.4435   -2.2487 H   0  0  0  0  0  0  0  0  0  0  0  0
    5.1340    1.9497   -1.9229 H   0  0  0  0  0  0  0  0  0  0  0  0
    6.7127    1.6182   -1.2140 H   0  0  0  0  0  0  0  0  0  0  0  0
    3.6952   -1.4571   -1.2912 H   0  0  0  0  0  0  0  0  0  0  0  0
    3.3552    0.1259   -1.9709 H   0  0  0  0  0  0  0  0  0  0  0  0
    3.9262   -1.7543    1.2363 H   0  0  0  0  0  0  0  0  0  0  0  0
    3.7672   -0.3837    2.3202 H   0  0  0  0  0  0  0  0  0  0  0  0
   -1.3004    1.2587    2.4513 H   0  0  0  0  0  0  0  0  0  0  0  0
   -4.4880   -0.3186    1.9373 H   0  0  0  0  0  0  0  0  0  0  0  0
   -3.6926    1.0890    2.6337 H   0  0  0  0  0  0  0  0  0  0  0  0
   -6.2491    0.1985    0.4041 H   0  0  0  0  0  0  0  0  0  0  0  0
   -7.3105    1.7058   -1.2512 H   0  0  0  0  0  0  0  0  0  0  0  0
   -4.0172    4.4251   -0.9433 H   0  0  0  0  0  0  0  0  0  0  0  0
   -2.9228    2.9459    0.7173 H   0  0  0  0  0  0  0  0  0  0  0  0
   -3.7523   -3.1142    1.2763 H   0  0  0  0  0  0  0  0  0  0  0  0
   -5.5963   -4.3141    0.1116 H   0  0  0  0  0  0  0  0  0  0  0  0
   -5.1970   -1.7023   -3.2630 H   0  0  0  0  0  0  0  0  0  0  0  0
   -3.3558   -0.4820   -2.1183 H   0  0  0  0  0  0  0  0  0  0  0  0
  1  2  1  0
  2  3  1  0
  3  4  1  0
  4  5  2  0
  4  6  1  0
  7  6  1  6
  7  8  1  0
  8  9  1  0
  9 10  1  0
 10 11  1  0
 11 12  1  0
 12 13  1  0
 13 14  1  0
 13 15  1  0
 11 16  1  0
  3 17  2  0
 17 18  1  0
 18 19  1  0
 19 20  1  0
 20 21  1  0
 21 22  2  0
 22 23  1  0
 23 24  1  0
 23 25  2  0
 25 26  1  0
 18 27  1  0
 27 28  1  0
 28 29  1  0
 29 30  2  0
 30 31  1  0
 31 32  1  0
 31 33  2  0
 33 34  1  0
 27  2  2  0
 34 28  2  0
 15  7  1  0
 26 20  2  0
 16  7  1  0
 14  9  1  0
  1 35  1  0
  1 36  1  0
  1 37  1  0
  6 38  1  0
  8 39  1  0
  8 40  1  0
  9 41  1  1
 10 42  1  0
 10 43  1  0
 11 44  1  1
 12 45  1  0
 12 46  1  0
 13 47  1  6
 14 48  1  0
 14 49  1  0
 15 50  1  0
 15 51  1  0
 16 52  1  0
 16 53  1  0
 17 54  1  0
 19 55  1  0
 19 56  1  0
 21 57  1  0
 22 58  1  0
 25 59  1  0
 26 60  1  0
 29 61  1  0
 30 62  1  0
 33 63  1  0
 34 64  1  0
M  END
>  <_SMILES>  (69) 
Cc1c(C(=O)N[C@]23C[C@H]4C[C@H](C[C@H](C4)C2)C3)cn(Cc2ccc(F)cc2)c1-c1ccc(F)cc1

$$$$

     RDKit          3D

 48 52  0  0  0  0  0  0  0  0999 V2000
   -0.4973   -2.1008    1.3807 O   0  0  0  0  0  0  0  0  0  0  0  0
    0.0818   -1.2044    0.7774 C   0  0  0  0  0  0  0  0  0  0  0  0
   -0.5675   -0.1882    0.1091 N   0  0  0  0  0  0  0  0  0  0  0  0
   -2.0222   -0.0637   -0.0163 C   0  0  2  0  0  0  0  0  0  0  0  0
   -2.3334    1.2277   -0.8216 C   0  0  0  0  0  0  0  0  0  0  0  0
   -3.8483    1.4189   -0.9967 C   0  0  1  0  0  0  0  0  0  0  0  0
   -4.4260    0.2073   -1.7448 C   0  0  0  0  0  0  0  0  0  0  0  0
   -4.1532   -1.0793   -0.9498 C   0  0  2  0  0  0  0  0  0  0  0  0
   -4.8056   -0.9654    0.4386 C   0  0  0  0  0  0  0  0  0  0  0  0
   -4.2331    0.2453    1.1953 C   0  0  2  0  0  0  0  0  0  0  0  0
   -4.5060    1.5237    0.3878 C   0  0  0  0  0  0  0  0  0  0  0  0
   -2.7141    0.0643    1.3646 C   0  0  0  0  0  0  0  0  0  0  0  0
   -2.6343   -1.2622   -0.7829 C   0  0  0  0  0  0  0  0  0  0  0  0
    1.5438   -1.1478    0.6988 C   0  0  0  0  0  0  0  0  0  0  0  0
    2.3799   -2.1493    1.1601 C   0  0  0  0  0  0  0  0  0  0  0  0
    3.6783   -1.7841    0.9367 N   0  0  0  0  0  0  0  0  0  0  0  0
    3.7269   -0.5479    0.3327 C   0  0  0  0  0  0  0  0  0  0  0  0
    4.9802    0.1212   -0.0168 C   0  0  0  0  0  0  0  0  0  0  0  0
    6.0719   -0.6061   -0.5169 C   0  0  0  0  0  0  0  0  0  0  0  0
    7.2644    0.0423   -0.8491 C   0  0  0  0  0  0  0  0  0  0  0  0
    7.3667    1.4176   -0.6826 C   0  0  0  0  0  0  0  0  0  0  0  0
    8.5101    2.0379   -1.0011 F   0  0  0  0  0  0  0  0  0  0  0  0
    6.2990    2.1580   -0.1927 C   0  0  0  0  0  0  0  0  0  0  0  0
    5.1060    1.5104    0.1380 C   0  0  0  0  0  0  0  0  0  0  0  0
    2.4115   -0.1328    0.1898 C   0  0  0  0  0  0  0  0  0  0  0  0
   -0.0024    0.4064   -0.4777 H   0  0  0  0  0  0  0  0  0  0  0  0
   -1.9059    2.1018   -0.3122 H   0  0  0  0  0  0  0  0  0  0  0  0
   -1.8517    1.1828   -1.8077 H   0  0  0  0  0  0  0  0  0  0  0  0
   -4.0424    2.3333   -1.5683 H   0  0  0  0  0  0  0  0  0  0  0  0
   -3.9770    0.1336   -2.7429 H   0  0  0  0  0  0  0  0  0  0  0  0
   -5.5055    0.3364   -1.8901 H   0  0  0  0  0  0  0  0  0  0  0  0
   -4.5713   -1.9393   -1.4850 H   0  0  0  0  0  0  0  0  0  0  0  0
   -4.6290   -1.8836    1.0122 H   0  0  0  0  0  0  0  0  0  0  0  0
   -5.8924   -0.8602    0.3332 H   0  0  0  0  0  0  0  0  0  0  0  0
   -4.7070    0.3232    2.1803 H   0  0  0  0  0  0  0  0  0  0  0  0
   -4.1147    2.3969    0.9241 H   0  0  0  0  0  0  0  0  0  0  0  0
   -5.5870    1.6750    0.2789 H   0  0  0  0  0  0  0  0  0  0  0  0
   -2.2955    0.9148    1.9187 H   0  0  0  0  0  0  0  0  0  0  0  0
   -2.5310   -0.8228    1.9815 H   0  0  0  0  0  0  0  0  0  0  0  0
   -2.4434   -2.2036   -0.2543 H   0  0  0  0  0  0  0  0  0  0  0  0
   -2.1597   -1.3619   -1.7680 H   0  0  0  0  0  0  0  0  0  0  0  0
    2.1435   -3.0939    1.6340 H   0  0  0  0  0  0  0  0  0  0  0  0
    4.4867   -2.3303    1.2031 H   0  0  0  0  0  0  0  0  0  0  0  0
    6.0006   -1.6794   -0.6737 H   0  0  0  0  0  0  0  0  0  0  0  0
    8.1090   -0.5153   -1.2410 H   0  0  0  0  0  0  0  0  0  0  0  0
    6.4000    3.2314   -0.0688 H   0  0  0  0  0  0  0  0  0  0  0  0
    4.2798    2.0985    0.5309 H   0  0  0  0  0  0  0  0  0  0  0  0
    2.1168    0.8139   -0.2429 H   0  0  0  0  0  0  0  0  0  0  0  0
  1  2  2  0
  2  3  1  0
  4  3  1  1
  4  5  1  0
  5  6  1  0
  6  7  1  0
  7  8  1  0
  8  9  1  0
  9 10  1  0
 10 11  1  0
 10 12  1  0
  8 13  1  0
  2 14  1  0
 14 15  2  0
 15 16  1  0
 16 17  1  0
 17 18  1  0
 18 19  1  0
 19 20  2  0
 20 21  1  0
 21 22  1  0
 21 23  2  0
 23 24  1  0
 17 25  2  0
 12  4  1  0
 25 14  1  0
 13  4  1  0
 24 18  2  0
 11  6  1  0
  3 26  1  0
  5 27  1  0
  5 28  1  0
  6 29  1  6
  7 30  1  0
  7 31  1  0
  8 32  1  6
  9 33  1  0
  9 34  1  0
 10 35  1  1
 11 36  1  0
 11 37  1  0
 12 38  1  0
 12 39  1  0
 13 40  1  0
 13 41  1  0
 15 42  1  0
 16 43  1  0
 19 44  1  0
 20 45  1  0
 23 46  1  0
 24 47  1  0
 25 48  1  0
M  END
>  <_SMILES>  (70) 
O=C(N[C@]12C[C@H]3C[C@H](C[C@H](C3)C1)C2)c1c[nH]c(-c2ccc(F)cc2)c1

$$$$

     RDKit          3D

 62 67  0  0  0  0  0  0  0  0999 V2000
   -0.5432    1.5927    1.6285 C   0  0  0  0  0  0  0  0  0  0  0  0
   -1.1105    1.2094    0.3013 C   0  0  0  0  0  0  0  0  0  0  0  0
   -0.3724    0.7791   -0.8564 C   0  0  0  0  0  0  0  0  0  0  0  0
    1.0612    0.5452   -1.0475 C   0  0  0  0  0  0  0  0  0  0  0  0
    1.6100    0.7208   -2.1289 O   0  0  0  0  0  0  0  0  0  0  0  0
    1.7017    0.0612    0.0728 N   0  0  0  0  0  0  0  0  0  0  0  0
    3.1026   -0.3624    0.1169 C   0  0  2  0  0  0  0  0  0  0  0  0
    3.4314   -0.7981    1.5710 C   0  0  0  0  0  0  0  0  0  0  0  0
    4.8907   -1.2648    1.6915 C   0  0  1  0  0  0  0  0  0  0  0  0
    5.1198   -2.4528    0.7439 C   0  0  0  0  0  0  0  0  0  0  0  0
    4.8270   -2.0328   -0.7053 C   0  0  2  0  0  0  0  0  0  0  0  0
    5.7563   -0.8701   -1.0936 C   0  0  0  0  0  0  0  0  0  0  0  0
    5.5334    0.3242   -0.1500 C   0  0  2  0  0  0  0  0  0  0  0  0
    5.8230   -0.1099    1.2950 C   0  0  0  0  0  0  0  0  0  0  0  0
    4.0701    0.7887   -0.2590 C   0  0  0  0  0  0  0  0  0  0  0  0
    3.3632   -1.5708   -0.8154 C   0  0  0  0  0  0  0  0  0  0  0  0
   -1.3005    0.6300   -1.8686 C   0  0  0  0  0  0  0  0  0  0  0  0
   -2.5545    0.8903   -1.3785 N   0  0  0  0  0  0  0  0  0  0  0  0
   -3.7600    0.8220   -2.2003 C   0  0  0  0  0  0  0  0  0  0  0  0
   -4.4294   -0.5248   -2.0973 C   0  0  0  0  0  0  0  0  0  0  0  0
   -5.4821   -0.7279   -1.2222 C   0  0  0  0  0  0  0  0  0  0  0  0
   -6.0212   -1.9945   -1.1945 C   0  0  0  0  0  0  0  0  0  0  0  0
   -5.5821   -3.0067   -1.9616 N   0  0  0  0  0  0  0  0  0  0  0  0
   -4.5639   -2.7104   -2.7812 C   0  0  0  0  0  0  0  0  0  0  0  0
   -3.9648   -1.5149   -2.8949 N   0  0  0  0  0  0  0  0  0  0  0  0
   -2.4624    1.2457   -0.0464 C   0  0  0  0  0  0  0  0  0  0  0  0
   -3.6083    1.5844    0.8012 C   0  0  0  0  0  0  0  0  0  0  0  0
   -3.9855    0.7144    1.8332 C   0  0  0  0  0  0  0  0  0  0  0  0
   -5.0702    1.0232    2.6590 C   0  0  0  0  0  0  0  0  0  0  0  0
   -5.7837    2.2064    2.4654 C   0  0  0  0  0  0  0  0  0  0  0  0
   -5.4121    3.0825    1.4467 C   0  0  0  0  0  0  0  0  0  0  0  0
   -4.3302    2.7702    0.6265 C   0  0  0  0  0  0  0  0  0  0  0  0
   -4.0026    3.6268   -0.3528 F   0  0  0  0  0  0  0  0  0  0  0  0
    0.4395    2.0614    1.5166 H   0  0  0  0  0  0  0  0  0  0  0  0
   -1.1837    2.3152    2.1444 H   0  0  0  0  0  0  0  0  0  0  0  0
   -0.4414    0.7093    2.2665 H   0  0  0  0  0  0  0  0  0  0  0  0
    1.0907   -0.2933    0.7949 H   0  0  0  0  0  0  0  0  0  0  0  0
    3.2490    0.0341    2.2643 H   0  0  0  0  0  0  0  0  0  0  0  0
    2.7593   -1.6087    1.8834 H   0  0  0  0  0  0  0  0  0  0  0  0
    5.0979   -1.5696    2.7234 H   0  0  0  0  0  0  0  0  0  0  0  0
    4.4722   -3.2908    1.0295 H   0  0  0  0  0  0  0  0  0  0  0  0
    6.1546   -2.8065    0.8298 H   0  0  0  0  0  0  0  0  0  0  0  0
    4.9969   -2.8818   -1.3769 H   0  0  0  0  0  0  0  0  0  0  0  0
    6.8027   -1.1955   -1.0435 H   0  0  0  0  0  0  0  0  0  0  0  0
    5.5661   -0.5688   -2.1311 H   0  0  0  0  0  0  0  0  0  0  0  0
    6.2026    1.1457   -0.4294 H   0  0  0  0  0  0  0  0  0  0  0  0
    5.6815    0.7377    1.9768 H   0  0  0  0  0  0  0  0  0  0  0  0
    6.8699   -0.4235    1.3899 H   0  0  0  0  0  0  0  0  0  0  0  0
    3.8876    1.1407   -1.2806 H   0  0  0  0  0  0  0  0  0  0  0  0
    3.9018    1.6523    0.3978 H   0  0  0  0  0  0  0  0  0  0  0  0
    3.1457   -1.3132   -1.8588 H   0  0  0  0  0  0  0  0  0  0  0  0
    2.6900   -2.3988   -0.5572 H   0  0  0  0  0  0  0  0  0  0  0  0
   -1.1564    0.3338   -2.9012 H   0  0  0  0  0  0  0  0  0  0  0  0
   -3.4645    1.0107   -3.2397 H   0  0  0  0  0  0  0  0  0  0  0  0
   -4.4347    1.6340   -1.9159 H   0  0  0  0  0  0  0  0  0  0  0  0
   -5.8722    0.0570   -0.5883 H   0  0  0  0  0  0  0  0  0  0  0  0
   -6.8483   -2.2374   -0.5337 H   0  0  0  0  0  0  0  0  0  0  0  0
   -4.1899   -3.5094   -3.4118 H   0  0  0  0  0  0  0  0  0  0  0  0
   -3.4358   -0.2108    1.9951 H   0  0  0  0  0  0  0  0  0  0  0  0
   -5.3539    0.3415    3.4577 H   0  0  0  0  0  0  0  0  0  0  0  0
   -6.6239    2.4483    3.1120 H   0  0  0  0  0  0  0  0  0  0  0  0
   -5.9538    4.0097    1.2874 H   0  0  0  0  0  0  0  0  0  0  0  0
  1  2  1  0
  2  3  1  0
  3  4  1  0
  4  5  2  0
  4  6  1  0
  7  6  1  1
  7  8  1  0
  8  9  1  0
  9 10  1  0
 10 11  1  0
 11 12  1  0
 12 13  1  0
 13 14  1  0
 13 15  1  0
 11 16  1  0
  3 17  2  0
 17 18  1  0
 18 19  1  0
 19 20  1  0
 20 21  1  0
 21 22  2  0
 22 23  1  0
 23 24  2  0
 24 25  1  0
 18 26  1  0
 26 27  1  0
 27 28  2  0
 28 29  1  0
 29 30  2  0
 30 31  1  0
 31 32  2  0
 32 33  1  0
 26  2  2  0
 32 27  1  0
 15  7  1  0
 25 20  2  0
 16  7  1  0
 14  9  1  0
  1 34  1  0
  1 35  1  0
  1 36  1  0
  6 37  1  0
  8 38  1  0
  8 39  1  0
  9 40  1  1
 10 41  1  0
 10 42  1  0
 11 43  1  6
 12 44  1  0
 12 45  1  0
 13 46  1  6
 14 47  1  0
 14 48  1  0
 15 49  1  0
 15 50  1  0
 16 51  1  0
 16 52  1  0
 17 53  1  0
 19 54  1  0
 19 55  1  0
 21 56  1  0
 22 57  1  0
 24 58  1  0
 28 59  1  0
 29 60  1  0
 30 61  1  0
 31 62  1  0
M  END
>  <_SMILES>  (71) 
Cc1c(C(=O)N[C@]23C[C@H]4C[C@H](C[C@H](C4)C2)C3)cn(Cc2ccncn2)c1-c1ccccc1F

$$$$

     RDKit          3D

 62 67  0  0  0  0  0  0  0  0999 V2000
    1.5149    1.7364   -0.9963 O   0  0  0  0  0  0  0  0  0  0  0  0
    1.1759    0.7246   -0.3931 C   0  0  0  0  0  0  0  0  0  0  0  0
    2.0607   -0.2343    0.0529 N   0  0  0  0  0  0  0  0  0  0  0  0
    3.5074   -0.2103   -0.1802 C   0  0  2  0  0  0  0  0  0  0  0  0
    4.1323   -1.4556    0.5068 C   0  0  0  0  0  0  0  0  0  0  0  0
    5.6541   -1.4981    0.2965 C   0  0  1  0  0  0  0  0  0  0  0  0
    5.9534   -1.5503   -1.2099 C   0  0  0  0  0  0  0  0  0  0  0  0
    5.3674   -0.3110   -1.9047 C   0  0  2  0  0  0  0  0  0  0  0  0
    5.9911    0.9554   -1.2936 C   0  0  0  0  0  0  0  0  0  0  0  0
    5.6964    1.0162    0.2150 C   0  0  2  0  0  0  0  0  0  0  0  0
    6.2810   -0.2305    0.8968 C   0  0  0  0  0  0  0  0  0  0  0  0
    4.1730    1.0484    0.4321 C   0  0  0  0  0  0  0  0  0  0  0  0
    3.8437   -0.2801   -1.6904 C   0  0  0  0  0  0  0  0  0  0  0  0
   -0.2292    0.4340   -0.1054 C   0  0  0  0  0  0  0  0  0  0  0  0
   -0.8229   -0.5575    0.7074 C   0  0  0  0  0  0  0  0  0  0  0  0
   -2.2038   -0.4315    0.6425 C   0  0  0  0  0  0  0  0  0  0  0  0
   -3.1566   -1.3661    1.2448 C   0  0  0  0  0  0  0  0  0  0  0  0
   -3.3386   -1.3838    2.6341 C   0  0  0  0  0  0  0  0  0  0  0  0
   -4.2209   -2.2970    3.2189 C   0  0  0  0  0  0  0  0  0  0  0  0
   -4.9170   -3.2082    2.4235 C   0  0  0  0  0  0  0  0  0  0  0  0
   -4.7285   -3.2107    1.0422 C   0  0  0  0  0  0  0  0  0  0  0  0
   -3.8495   -2.2983    0.4633 C   0  0  0  0  0  0  0  0  0  0  0  0
   -3.6819   -2.3267   -0.8677 F   0  0  0  0  0  0  0  0  0  0  0  0
   -2.5122    0.6775   -0.1637 N   0  0  0  0  0  0  0  0  0  0  0  0
   -3.7775    1.2742   -0.4635 C   0  0  0  0  0  0  0  0  0  0  0  0
   -3.9441    2.1608   -1.4739 C   0  0  0  0  0  0  0  0  0  0  0  0
   -5.2357    2.8376   -1.8378 C   0  0  0  0  0  0  0  0  0  0  0  0
   -6.4530    2.2601   -1.1262 C   0  0  0  0  0  0  0  0  0  0  0  0
   -6.1233    1.9593    0.3262 C   0  0  0  0  0  0  0  0  0  0  0  0
   -4.9715    0.9525    0.4195 C   0  0  0  0  0  0  0  0  0  0  0  0
   -1.2875    1.1522   -0.6252 C   0  0  0  0  0  0  0  0  0  0  0  0
    1.6635   -1.1010    0.3827 H   0  0  0  0  0  0  0  0  0  0  0  0
    3.6799   -2.3735    0.1077 H   0  0  0  0  0  0  0  0  0  0  0  0
    3.9065   -1.4462    1.5816 H   0  0  0  0  0  0  0  0  0  0  0  0
    6.0710   -2.3846    0.7871 H   0  0  0  0  0  0  0  0  0  0  0  0
    7.0368   -1.5956   -1.3754 H   0  0  0  0  0  0  0  0  0  0  0  0
    5.5263   -2.4617   -1.6460 H   0  0  0  0  0  0  0  0  0  0  0  0
    5.5878   -0.3507   -2.9773 H   0  0  0  0  0  0  0  0  0  0  0  0
    7.0749    0.9570   -1.4628 H   0  0  0  0  0  0  0  0  0  0  0  0
    5.5903    1.8476   -1.7901 H   0  0  0  0  0  0  0  0  0  0  0  0
    6.1489    1.9173    0.6437 H   0  0  0  0  0  0  0  0  0  0  0  0
    6.0897   -0.1921    1.9762 H   0  0  0  0  0  0  0  0  0  0  0  0
    7.3700   -0.2530    0.7670 H   0  0  0  0  0  0  0  0  0  0  0  0
    3.7723    1.9646   -0.0162 H   0  0  0  0  0  0  0  0  0  0  0  0
    3.9493    1.1089    1.5053 H   0  0  0  0  0  0  0  0  0  0  0  0
    3.3855   -1.1718   -2.1381 H   0  0  0  0  0  0  0  0  0  0  0  0
    3.4247    0.5807   -2.2248 H   0  0  0  0  0  0  0  0  0  0  0  0
   -0.3151   -1.3263    1.2753 H   0  0  0  0  0  0  0  0  0  0  0  0
   -2.7993   -0.6813    3.2659 H   0  0  0  0  0  0  0  0  0  0  0  0
   -4.3625   -2.2983    4.2973 H   0  0  0  0  0  0  0  0  0  0  0  0
   -5.6017   -3.9184    2.8805 H   0  0  0  0  0  0  0  0  0  0  0  0
   -5.2574   -3.9177    0.4108 H   0  0  0  0  0  0  0  0  0  0  0  0
   -3.1183    2.4311   -2.1264 H   0  0  0  0  0  0  0  0  0  0  0  0
   -5.3891    2.7696   -2.9210 H   0  0  0  0  0  0  0  0  0  0  0  0
   -5.1403    3.9031   -1.5961 H   0  0  0  0  0  0  0  0  0  0  0  0
   -6.7727    1.3381   -1.6283 H   0  0  0  0  0  0  0  0  0  0  0  0
   -7.2903    2.9640   -1.1896 H   0  0  0  0  0  0  0  0  0  0  0  0
   -7.0054    1.5565    0.8368 H   0  0  0  0  0  0  0  0  0  0  0  0
   -5.8492    2.8870    0.8445 H   0  0  0  0  0  0  0  0  0  0  0  0
   -5.3647   -0.0311    0.1423 H   0  0  0  0  0  0  0  0  0  0  0  0
   -4.6678    0.9235    1.4713 H   0  0  0  0  0  0  0  0  0  0  0  0
   -1.2412    2.0149   -1.2748 H   0  0  0  0  0  0  0  0  0  0  0  0
  1  2  2  0
  2  3  1  0
  4  3  1  6
  4  5  1  0
  5  6  1  0
  6  7  1  0
  7  8  1  0
  8  9  1  0
  9 10  1  0
 10 11  1  0
 10 12  1  0
  8 13  1  0
  2 14  1  0
 14 15  1  0
 15 16  2  0
 16 17  1  0
 17 18  2  0
 18 19  1  0
 19 20  2  0
 20 21  1  0
 21 22  2  0
 22 23  1  0
 16 24  1  0
 24 25  1  0
 25 26  2  0
 26 27  1  0
 27 28  1  0
 28 29  1  0
 29 30  1  0
 24 31  1  0
 12  4  1  0
 31 14  2  0
 13  4  1  0
 22 17  1  0
 30 25  1  0
 11  6  1  0
  3 32  1  0
  5 33  1  0
  5 34  1  0
  6 35  1  1
  7 36  1  0
  7 37  1  0
  8 38  1  6
  9 39  1  0
  9 40  1  0
 10 41  1  1
 11 42  1  0
 11 43  1  0
 12 44  1  0
 12 45  1  0
 13 46  1  0
 13 47  1  0
 15 48  1  0
 18 49  1  0
 19 50  1  0
 20 51  1  0
 21 52  1  0
 26 53  1  0
 27 54  1  0
 27 55  1  0
 28 56  1  0
 28 57  1  0
 29 58  1  0
 29 59  1  0
 30 60  1  0
 30 61  1  0
 31 62  1  0
M  END
>  <_SMILES>  (72) 
O=C(N[C@]12C[C@H]3C[C@H](C[C@H](C3)C1)C2)c1cc(-c2ccccc2F)n(C2=CCCCC2)c1

$$$$

     RDKit          3D

 62 67  0  0  0  0  0  0  0  0999 V2000
    0.5674   -1.8421   -0.9920 C   0  0  0  0  0  0  0  0  0  0  0  0
    1.1047   -0.7200   -0.1654 C   0  0  0  0  0  0  0  0  0  0  0  0
    0.3919    0.4700    0.2242 C   0  0  0  0  0  0  0  0  0  0  0  0
   -0.9873    0.8912   -0.0358 C   0  0  0  0  0  0  0  0  0  0  0  0
   -1.2912    2.0729   -0.1489 O   0  0  0  0  0  0  0  0  0  0  0  0
   -1.8914   -0.1472   -0.0787 N   0  0  0  0  0  0  0  0  0  0  0  0
   -3.3412    0.0117   -0.2115 C   0  0  2  0  0  0  0  0  0  0  0  0
   -3.7275    0.7495   -1.5188 C   0  0  0  0  0  0  0  0  0  0  0  0
   -5.2575    0.8514   -1.6518 C   0  0  1  0  0  0  0  0  0  0  0  0
   -5.8601   -0.5615   -1.6877 C   0  0  0  0  0  0  0  0  0  0  0  0
   -5.5097   -1.3130   -0.3944 C   0  0  2  0  0  0  0  0  0  0  0  0
   -6.0756   -0.5449    0.8105 C   0  0  0  0  0  0  0  0  0  0  0  0
   -5.4752    0.8690    0.8611 C   0  0  2  0  0  0  0  0  0  0  0  0
   -5.8207    1.6133   -0.4400 C   0  0  0  0  0  0  0  0  0  0  0  0
   -3.9456    0.7678    0.9968 C   0  0  0  0  0  0  0  0  0  0  0  0
   -3.9812   -1.4026   -0.2622 C   0  0  0  0  0  0  0  0  0  0  0  0
    1.2913    1.2460    0.9302 C   0  0  0  0  0  0  0  0  0  0  0  0
    2.4814    0.5756    1.0319 N   0  0  0  0  0  0  0  0  0  0  0  0
    3.6436    1.0993    1.7503 C   0  0  0  0  0  0  0  0  0  0  0  0
    4.7712    1.4805    0.8209 C   0  0  0  0  0  0  0  0  0  0  0  0
    4.5997    2.4674   -0.1626 C   0  0  0  0  0  0  0  0  0  0  0  0
    5.6479    2.8054   -1.0214 C   0  0  0  0  0  0  0  0  0  0  0  0
    6.8810    2.1647   -0.9052 C   0  0  0  0  0  0  0  0  0  0  0  0
    7.0626    1.1909    0.0734 C   0  0  0  0  0  0  0  0  0  0  0  0
    8.5819    0.3961    0.2203 Cl  0  0  0  0  0  0  0  0  0  0  0  0
    6.0211    0.8525    0.9367 C   0  0  0  0  0  0  0  0  0  0  0  0
    2.3937   -0.6320    0.3664 C   0  0  0  0  0  0  0  0  0  0  0  0
    3.5129   -1.5632    0.2596 C   0  0  0  0  0  0  0  0  0  0  0  0
    4.1111   -1.8812   -0.9552 C   0  0  0  0  0  0  0  0  0  0  0  0
    5.1511   -2.7460   -1.0563 N   0  0  0  0  0  0  0  0  0  0  0  0
    5.5717   -3.2733    0.1147 C   0  0  0  0  0  0  0  0  0  0  0  0
    4.9822   -2.9532    1.3276 C   0  0  0  0  0  0  0  0  0  0  0  0
    3.9454   -2.0884    1.4314 N   0  0  0  0  0  0  0  0  0  0  0  0
    1.3613   -2.3904   -1.5060 H   0  0  0  0  0  0  0  0  0  0  0  0
    0.0249   -2.5512   -0.3587 H   0  0  0  0  0  0  0  0  0  0  0  0
   -0.1127   -1.4686   -1.7641 H   0  0  0  0  0  0  0  0  0  0  0  0
   -1.5596   -1.0205    0.3066 H   0  0  0  0  0  0  0  0  0  0  0  0
   -3.3040    1.7599   -1.5422 H   0  0  0  0  0  0  0  0  0  0  0  0
   -3.3107    0.2220   -2.3868 H   0  0  0  0  0  0  0  0  0  0  0  0
   -5.5125    1.3846   -2.5745 H   0  0  0  0  0  0  0  0  0  0  0  0
   -6.9492   -0.5020   -1.8036 H   0  0  0  0  0  0  0  0  0  0  0  0
   -5.4769   -1.1107   -2.5565 H   0  0  0  0  0  0  0  0  0  0  0  0
   -5.9384   -2.3209   -0.4248 H   0  0  0  0  0  0  0  0  0  0  0  0
   -7.1685   -0.4856    0.7373 H   0  0  0  0  0  0  0  0  0  0  0  0
   -5.8475   -1.0826    1.7390 H   0  0  0  0  0  0  0  0  0  0  0  0
   -5.8859    1.4137    1.7186 H   0  0  0  0  0  0  0  0  0  0  0  0
   -5.4083    2.6294   -0.4113 H   0  0  0  0  0  0  0  0  0  0  0  0
   -6.9089    1.7141   -0.5350 H   0  0  0  0  0  0  0  0  0  0  0  0
   -3.6870    0.2534    1.9317 H   0  0  0  0  0  0  0  0  0  0  0  0
   -3.5247    1.7773    1.0761 H   0  0  0  0  0  0  0  0  0  0  0  0
   -3.7231   -1.9665    0.6443 H   0  0  0  0  0  0  0  0  0  0  0  0
   -3.5681   -1.9733   -1.1048 H   0  0  0  0  0  0  0  0  0  0  0  0
    1.1556    2.2228    1.3790 H   0  0  0  0  0  0  0  0  0  0  0  0
    3.3269    1.9828    2.3177 H   0  0  0  0  0  0  0  0  0  0  0  0
    3.9432    0.3429    2.4833 H   0  0  0  0  0  0  0  0  0  0  0  0
    3.6422    2.9749   -0.2731 H   0  0  0  0  0  0  0  0  0  0  0  0
    5.5005    3.5665   -1.7839 H   0  0  0  0  0  0  0  0  0  0  0  0
    7.6921    2.4277   -1.5785 H   0  0  0  0  0  0  0  0  0  0  0  0
    6.1786    0.0860    1.6922 H   0  0  0  0  0  0  0  0  0  0  0  0
    3.7741   -1.4399   -1.8865 H   0  0  0  0  0  0  0  0  0  0  0  0
    6.4038   -3.9655    0.0533 H   0  0  0  0  0  0  0  0  0  0  0  0
    5.3330   -3.3873    2.2570 H   0  0  0  0  0  0  0  0  0  0  0  0
  1  2  1  0
  2  3  1  0
  3  4  1  0
  4  5  2  0
  4  6  1  0
  7  6  1  1
  7  8  1  0
  8  9  1  0
  9 10  1  0
 10 11  1  0
 11 12  1  0
 12 13  1  0
 13 14  1  0
 13 15  1  0
 11 16  1  0
  3 17  2  0
 17 18  1  0
 18 19  1  0
 19 20  1  0
 20 21  2  0
 21 22  1  0
 22 23  2  0
 23 24  1  0
 24 25  1  0
 24 26  2  0
 18 27  1  0
 27 28  1  0
 28 29  2  0
 29 30  1  0
 30 31  2  0
 31 32  1  0
 32 33  2  0
 27  2  2  0
 33 28  1  0
 15  7  1  0
 26 20  1  0
 16  7  1  0
 14  9  1  0
  1 34  1  0
  1 35  1  0
  1 36  1  0
  6 37  1  0
  8 38  1  0
  8 39  1  0
  9 40  1  6
 10 41  1  0
 10 42  1  0
 11 43  1  6
 12 44  1  0
 12 45  1  0
 13 46  1  1
 14 47  1  0
 14 48  1  0
 15 49  1  0
 15 50  1  0
 16 51  1  0
 16 52  1  0
 17 53  1  0
 19 54  1  0
 19 55  1  0
 21 56  1  0
 22 57  1  0
 23 58  1  0
 26 59  1  0
 29 60  1  0
 31 61  1  0
 32 62  1  0
M  END
>  <_SMILES>  (73) 
Cc1c(C(=O)N[C@]23C[C@H]4C[C@H](C[C@H](C4)C2)C3)cn(Cc2cccc(Cl)c2)c1-c1cnccn1

$$$$

     RDKit          3D

 53 57  0  0  0  0  0  0  0  0999 V2000
    2.5312   -0.6937   -2.1976 C   0  0  0  0  0  0  0  0  0  0  0  0
    2.4277   -0.2421   -0.7858 C   0  0  0  0  0  0  0  0  0  0  0  0
    1.2254   -0.0305   -0.0445 C   0  0  0  0  0  0  0  0  0  0  0  0
   -0.1676   -0.2007   -0.5070 C   0  0  0  0  0  0  0  0  0  0  0  0
   -0.4567   -0.5536   -1.6452 O   0  0  0  0  0  0  0  0  0  0  0  0
   -1.0885    0.0822    0.4785 N   0  0  0  0  0  0  0  0  0  0  0  0
   -2.5399    0.0187    0.3502 C   0  0  2  0  0  0  0  0  0  0  0  0
   -3.1728    0.4189    1.7095 C   0  0  0  0  0  0  0  0  0  0  0  0
   -4.7074    0.3715    1.6380 C   0  0  1  0  0  0  0  0  0  0  0  0
   -5.1917    1.3449    0.5520 C   0  0  0  0  0  0  0  0  0  0  0  0
   -4.5967    0.9510   -0.8091 C   0  0  2  0  0  0  0  0  0  0  0  0
   -5.0374   -0.4803   -1.1604 C   0  0  0  0  0  0  0  0  0  0  0  0
   -4.5560   -1.4628   -0.0792 C   0  0  2  0  0  0  0  0  0  0  0  0
   -5.1513   -1.0550    1.2777 C   0  0  0  0  0  0  0  0  0  0  0  0
   -3.0201   -1.4123    0.0032 C   0  0  0  0  0  0  0  0  0  0  0  0
   -3.0608    1.0021   -0.7269 C   0  0  0  0  0  0  0  0  0  0  0  0
    1.4938    0.3697    1.2162 N   0  0  0  0  0  0  0  0  0  0  0  0
    2.8377    0.4236    1.2665 N   0  0  0  0  0  0  0  0  0  0  0  0
    3.4756    0.8563    2.4897 C   0  0  0  0  0  0  0  0  0  0  0  0
    3.4552    0.0539    0.0974 C   0  0  0  0  0  0  0  0  0  0  0  0
    4.9010    0.0255   -0.0892 C   0  0  0  0  0  0  0  0  0  0  0  0
    5.5283    1.0049   -0.8672 C   0  0  0  0  0  0  0  0  0  0  0  0
    6.9130    0.9836   -1.0429 C   0  0  0  0  0  0  0  0  0  0  0  0
    7.6767   -0.0184   -0.4455 C   0  0  0  0  0  0  0  0  0  0  0  0
    7.0574   -1.0015    0.3252 C   0  0  0  0  0  0  0  0  0  0  0  0
    5.6726   -0.9812    0.5022 C   0  0  0  0  0  0  0  0  0  0  0  0
    3.5712   -0.8398   -2.5047 H   0  0  0  0  0  0  0  0  0  0  0  0
    2.0846    0.0474   -2.8682 H   0  0  0  0  0  0  0  0  0  0  0  0
    2.0105   -1.6469   -2.3342 H   0  0  0  0  0  0  0  0  0  0  0  0
   -0.6650    0.3649    1.3603 H   0  0  0  0  0  0  0  0  0  0  0  0
   -2.8469    1.4282    1.9950 H   0  0  0  0  0  0  0  0  0  0  0  0
   -2.8184   -0.2526    2.5031 H   0  0  0  0  0  0  0  0  0  0  0  0
   -5.1321    0.6573    2.6068 H   0  0  0  0  0  0  0  0  0  0  0  0
   -4.8962    2.3698    0.8079 H   0  0  0  0  0  0  0  0  0  0  0  0
   -6.2873    1.3332    0.4997 H   0  0  0  0  0  0  0  0  0  0  0  0
   -4.9480    1.6455   -1.5804 H   0  0  0  0  0  0  0  0  0  0  0  0
   -6.1302   -0.5245   -1.2456 H   0  0  0  0  0  0  0  0  0  0  0  0
   -4.6301   -0.7688   -2.1372 H   0  0  0  0  0  0  0  0  0  0  0  0
   -4.8784   -2.4788   -0.3332 H   0  0  0  0  0  0  0  0  0  0  0  0
   -4.8266   -1.7567    2.0558 H   0  0  0  0  0  0  0  0  0  0  0  0
   -6.2462   -1.1080    1.2379 H   0  0  0  0  0  0  0  0  0  0  0  0
   -2.5997   -1.7448   -0.9534 H   0  0  0  0  0  0  0  0  0  0  0  0
   -2.6630   -2.1240    0.7591 H   0  0  0  0  0  0  0  0  0  0  0  0
   -2.7330    2.0240   -0.4953 H   0  0  0  0  0  0  0  0  0  0  0  0
   -2.6418    0.7617   -1.7113 H   0  0  0  0  0  0  0  0  0  0  0  0
    3.8903   -0.0231    2.9880 H   0  0  0  0  0  0  0  0  0  0  0  0
    4.2621    1.5748    2.2472 H   0  0  0  0  0  0  0  0  0  0  0  0
    2.7340    1.3360    3.1343 H   0  0  0  0  0  0  0  0  0  0  0  0
    4.9411    1.7891   -1.3398 H   0  0  0  0  0  0  0  0  0  0  0  0
    7.3948    1.7468   -1.6487 H   0  0  0  0  0  0  0  0  0  0  0  0
    8.7546   -0.0365   -0.5859 H   0  0  0  0  0  0  0  0  0  0  0  0
    7.6519   -1.7879    0.7830 H   0  0  0  0  0  0  0  0  0  0  0  0
    5.1991   -1.7612    1.0939 H   0  0  0  0  0  0  0  0  0  0  0  0
  1  2  1  0
  2  3  1  0
  3  4  1  0
  4  5  2  0
  4  6  1  0
  7  6  1  1
  7  8  1  0
  8  9  1  0
  9 10  1  0
 10 11  1  0
 11 12  1  0
 12 13  1  0
 13 14  1  0
 13 15  1  0
 11 16  1  0
  3 17  2  0
 17 18  1  0
 18 19  1  0
 18 20  1  0
 20 21  1  0
 21 22  2  0
 22 23  1  0
 23 24  2  0
 24 25  1  0
 25 26  2  0
 20  2  2  0
 26 21  1  0
 15  7  1  0
 16  7  1  0
 14  9  1  0
  1 27  1  0
  1 28  1  0
  1 29  1  0
  6 30  1  0
  8 31  1  0
  8 32  1  0
  9 33  1  1
 10 34  1  0
 10 35  1  0
 11 36  1  6
 12 37  1  0
 12 38  1  0
 13 39  1  6
 14 40  1  0
 14 41  1  0
 15 42  1  0
 15 43  1  0
 16 44  1  0
 16 45  1  0
 19 46  1  0
 19 47  1  0
 19 48  1  0
 22 49  1  0
 23 50  1  0
 24 51  1  0
 25 52  1  0
 26 53  1  0
M  END
>  <_SMILES>  (74) 
Cc1c(C(=O)N[C@]23C[C@H]4C[C@H](C[C@H](C4)C2)C3)nn(C)c1-c1ccccc1

$$$$

     RDKit          3D

 61 66  0  0  0  0  0  0  0  0999 V2000
    0.2174   -2.8557    1.0510 N   0  0  0  0  0  0  0  0  0  0  0  0
   -0.3706   -1.9529    0.6204 C   0  0  0  0  0  0  0  0  0  0  0  0
   -1.0336   -0.8336    0.0390 C   0  0  0  0  0  0  0  0  0  0  0  0
   -0.4605    0.4010   -0.3683 C   0  0  0  0  0  0  0  0  0  0  0  0
    0.9477    0.8462   -0.2977 C   0  0  0  0  0  0  0  0  0  0  0  0
    1.2507    2.0248   -0.1383 O   0  0  0  0  0  0  0  0  0  0  0  0
    1.8912   -0.1578   -0.4415 N   0  0  0  0  0  0  0  0  0  0  0  0
    3.3433    0.0548   -0.4330 C   0  0  2  0  0  0  0  0  0  0  0  0
    3.7992    0.9444   -1.6156 C   0  0  0  0  0  0  0  0  0  0  0  0
    5.3301    1.1022   -1.6151 C   0  0  1  0  0  0  0  0  0  0  0  0
    5.7738    1.7385   -0.2867 C   0  0  0  0  0  0  0  0  0  0  0  0
    5.3605    0.8432    0.8940 C   0  0  2  0  0  0  0  0  0  0  0  0
    6.0147   -0.5380    0.7367 C   0  0  0  0  0  0  0  0  0  0  0  0
    5.5668   -1.1820   -0.5842 C   0  0  2  0  0  0  0  0  0  0  0  0
    5.9839   -0.2813   -1.7573 C   0  0  0  0  0  0  0  0  0  0  0  0
    4.0370   -1.3279   -0.5801 C   0  0  0  0  0  0  0  0  0  0  0  0
    3.8296    0.6845    0.8972 C   0  0  0  0  0  0  0  0  0  0  0  0
   -1.4164    1.2152   -0.8546 N   0  0  0  0  0  0  0  0  0  0  0  0
   -2.5685    0.5258   -0.7209 N   0  0  0  0  0  0  0  0  0  0  0  0
   -3.8223    1.1640   -1.1165 C   0  0  0  0  0  0  0  0  0  0  0  0
   -4.6017    1.6633    0.0751 C   0  0  0  0  0  0  0  0  0  0  0  0
   -5.8470    1.1046    0.3988 C   0  0  0  0  0  0  0  0  0  0  0  0
   -6.5647    1.5661    1.5035 C   0  0  0  0  0  0  0  0  0  0  0  0
   -6.0494    2.5927    2.2922 C   0  0  0  0  0  0  0  0  0  0  0  0
   -4.8163    3.1600    1.9779 C   0  0  0  0  0  0  0  0  0  0  0  0
   -4.0964    2.7001    0.8747 C   0  0  0  0  0  0  0  0  0  0  0  0
   -2.3880   -0.7460   -0.2285 C   0  0  0  0  0  0  0  0  0  0  0  0
   -3.4601   -1.7077   -0.0133 C   0  0  0  0  0  0  0  0  0  0  0  0
   -4.0257   -1.8581    1.2574 C   0  0  0  0  0  0  0  0  0  0  0  0
   -5.0569   -2.7760    1.4624 C   0  0  0  0  0  0  0  0  0  0  0  0
   -5.5228   -3.5507    0.4011 C   0  0  0  0  0  0  0  0  0  0  0  0
   -4.9580   -3.4103   -0.8659 C   0  0  0  0  0  0  0  0  0  0  0  0
   -3.9274   -2.4920   -1.0738 C   0  0  0  0  0  0  0  0  0  0  0  0
    1.5780   -1.0595   -0.7725 H   0  0  0  0  0  0  0  0  0  0  0  0
    3.4692    0.5058   -2.5666 H   0  0  0  0  0  0  0  0  0  0  0  0
    3.3378    1.9373   -1.5600 H   0  0  0  0  0  0  0  0  0  0  0  0
    5.6348    1.7418   -2.4511 H   0  0  0  0  0  0  0  0  0  0  0  0
    5.3235    2.7329   -0.1787 H   0  0  0  0  0  0  0  0  0  0  0  0
    6.8616    1.8799   -0.2853 H   0  0  0  0  0  0  0  0  0  0  0  0
    5.6856    1.3001    1.8355 H   0  0  0  0  0  0  0  0  0  0  0  0
    7.1071   -0.4400    0.7548 H   0  0  0  0  0  0  0  0  0  0  0  0
    5.7389   -1.1820    1.5808 H   0  0  0  0  0  0  0  0  0  0  0  0
    6.0325   -2.1680   -0.6913 H   0  0  0  0  0  0  0  0  0  0  0  0
    5.6859   -0.7410   -2.7077 H   0  0  0  0  0  0  0  0  0  0  0  0
    7.0758   -0.1793   -1.7817 H   0  0  0  0  0  0  0  0  0  0  0  0
    3.7117   -1.8163   -1.5085 H   0  0  0  0  0  0  0  0  0  0  0  0
    3.7299   -1.9926    0.2386 H   0  0  0  0  0  0  0  0  0  0  0  0
    3.3740    1.6678    1.0591 H   0  0  0  0  0  0  0  0  0  0  0  0
    3.5200    0.0598    1.7453 H   0  0  0  0  0  0  0  0  0  0  0  0
   -4.3920    0.4355   -1.7034 H   0  0  0  0  0  0  0  0  0  0  0  0
   -3.5839    1.9991   -1.7861 H   0  0  0  0  0  0  0  0  0  0  0  0
   -6.2650    0.2977   -0.2000 H   0  0  0  0  0  0  0  0  0  0  0  0
   -7.5265    1.1234    1.7495 H   0  0  0  0  0  0  0  0  0  0  0  0
   -6.6089    2.9519    3.1520 H   0  0  0  0  0  0  0  0  0  0  0  0
   -4.4129    3.9616    2.5917 H   0  0  0  0  0  0  0  0  0  0  0  0
   -3.1323    3.1530    0.6436 H   0  0  0  0  0  0  0  0  0  0  0  0
   -3.6776   -1.2549    2.0937 H   0  0  0  0  0  0  0  0  0  0  0  0
   -5.4951   -2.8867    2.4511 H   0  0  0  0  0  0  0  0  0  0  0  0
   -6.3231   -4.2686    0.5635 H   0  0  0  0  0  0  0  0  0  0  0  0
   -5.3172   -4.0211   -1.6905 H   0  0  0  0  0  0  0  0  0  0  0  0
   -3.4916   -2.3993   -2.0659 H   0  0  0  0  0  0  0  0  0  0  0  0
  1  2  3  0
  2  3  1  0
  3  4  1  0
  4  5  1  0
  5  6  2  0
  5  7  1  0
  8  7  1  1
  8  9  1  0
  9 10  1  0
 10 11  1  0
 11 12  1  0
 12 13  1  0
 13 14  1  0
 14 15  1  0
 14 16  1  0
 12 17  1  0
  4 18  2  0
 18 19  1  0
 19 20  1  0
 20 21  1  0
 21 22  2  0
 22 23  1  0
 23 24  2  0
 24 25  1  0
 25 26  2  0
 19 27  1  0
 27 28  1  0
 28 29  2  0
 29 30  1  0
 30 31  2  0
 31 32  1  0
 32 33  2  0
 27  3  2  0
 33 28  1  0
 16  8  1  0
 26 21  1  0
 17  8  1  0
 15 10  1  0
  7 34  1  0
  9 35  1  0
  9 36  1  0
 10 37  1  6
 11 38  1  0
 11 39  1  0
 12 40  1  1
 13 41  1  0
 13 42  1  0
 14 43  1  6
 15 44  1  0
 15 45  1  0
 16 46  1  0
 16 47  1  0
 17 48  1  0
 17 49  1  0
 20 50  1  0
 20 51  1  0
 22 52  1  0
 23 53  1  0
 24 54  1  0
 25 55  1  0
 26 56  1  0
 29 57  1  0
 30 58  1  0
 31 59  1  0
 32 60  1  0
 33 61  1  0
M  END
>  <_SMILES>  (75) 
N#Cc1c(C(=O)N[C@]23C[C@H]4C[C@H](C[C@H](C4)C2)C3)nn(Cc2ccccc2)c1-c1ccccc1

$$$$

     RDKit          3D

 42 44  0  0  0  0  0  0  0  0999 V2000
    6.1713    1.1907    0.6278 C   0  0  0  0  0  0  0  0  0  0  0  0
    5.2580    1.6859   -0.4789 C   0  0  0  0  0  0  0  0  0  0  0  0
    3.8992    1.2465   -0.2844 N   0  0  0  0  0  0  0  0  0  0  0  0
    3.4443    0.0058   -0.6750 C   0  0  0  0  0  0  0  0  0  0  0  0
    4.1229   -0.8083   -1.2934 O   0  0  0  0  0  0  0  0  0  0  0  0
    2.0553   -0.2545   -0.2646 C   0  0  0  0  0  0  0  0  0  0  0  0
    1.2962   -1.4210   -0.5237 C   0  0  0  0  0  0  0  0  0  0  0  0
    0.0622   -1.2106    0.0550 C   0  0  0  0  0  0  0  0  0  0  0  0
   -1.1039   -2.0783    0.0992 C   0  0  0  0  0  0  0  0  0  0  0  0
   -1.2506   -3.0088    1.1334 C   0  0  0  0  0  0  0  0  0  0  0  0
   -2.3749   -3.8352    1.1799 C   0  0  0  0  0  0  0  0  0  0  0  0
   -3.3539   -3.7381    0.1916 C   0  0  0  0  0  0  0  0  0  0  0  0
   -3.2084   -2.8186   -0.8463 C   0  0  0  0  0  0  0  0  0  0  0  0
   -2.0841   -1.9927   -0.8950 C   0  0  0  0  0  0  0  0  0  0  0  0
    0.1307    0.0485    0.6062 N   0  0  0  0  0  0  0  0  0  0  0  0
   -0.9051    0.7427    1.3674 C   0  0  0  0  0  0  0  0  0  0  0  0
   -1.9291    1.4029    0.4765 C   0  0  0  0  0  0  0  0  0  0  0  0
   -3.2769    1.0179    0.5375 C   0  0  0  0  0  0  0  0  0  0  0  0
   -4.2274    1.6307   -0.2806 C   0  0  0  0  0  0  0  0  0  0  0  0
   -3.8439    2.6384   -1.1630 C   0  0  0  0  0  0  0  0  0  0  0  0
   -2.5101    3.0355   -1.2283 C   0  0  0  0  0  0  0  0  0  0  0  0
   -1.5578    2.4239   -0.4117 C   0  0  0  0  0  0  0  0  0  0  0  0
    1.3402    0.6410    0.4477 N   0  0  0  0  0  0  0  0  0  0  0  0
    5.8260    1.5423    1.6058 H   0  0  0  0  0  0  0  0  0  0  0  0
    6.1987    0.0965    0.6582 H   0  0  0  0  0  0  0  0  0  0  0  0
    7.1914    1.5546    0.4722 H   0  0  0  0  0  0  0  0  0  0  0  0
    5.2473    2.7800   -0.4995 H   0  0  0  0  0  0  0  0  0  0  0  0
    5.6167    1.3256   -1.4488 H   0  0  0  0  0  0  0  0  0  0  0  0
    3.2504    1.7840    0.2849 H   0  0  0  0  0  0  0  0  0  0  0  0
    1.6201   -2.2997   -1.0651 H   0  0  0  0  0  0  0  0  0  0  0  0
   -0.4891   -3.0983    1.9047 H   0  0  0  0  0  0  0  0  0  0  0  0
   -2.4840   -4.5587    1.9838 H   0  0  0  0  0  0  0  0  0  0  0  0
   -4.2275   -4.3842    0.2262 H   0  0  0  0  0  0  0  0  0  0  0  0
   -3.9679   -2.7448   -1.6204 H   0  0  0  0  0  0  0  0  0  0  0  0
   -1.9807   -1.2774   -1.7086 H   0  0  0  0  0  0  0  0  0  0  0  0
   -0.4165    1.4967    1.9962 H   0  0  0  0  0  0  0  0  0  0  0  0
   -1.3618    0.0101    2.0421 H   0  0  0  0  0  0  0  0  0  0  0  0
   -3.5964    0.2281    1.2148 H   0  0  0  0  0  0  0  0  0  0  0  0
   -5.2678    1.3200   -0.2303 H   0  0  0  0  0  0  0  0  0  0  0  0
   -4.5844    3.1145   -1.8003 H   0  0  0  0  0  0  0  0  0  0  0  0
   -2.2096    3.8214   -1.9165 H   0  0  0  0  0  0  0  0  0  0  0  0
   -0.5191    2.7449   -0.4767 H   0  0  0  0  0  0  0  0  0  0  0  0
  1  2  1  0
  2  3  1  0
  3  4  1  0
  4  5  2  0
  4  6  1  0
  6  7  1  0
  7  8  2  0
  8  9  1  0
  9 10  2  0
 10 11  1  0
 11 12  2  0
 12 13  1  0
 13 14  2  0
  8 15  1  0
 15 16  1  0
 16 17  1  0
 17 18  2  0
 18 19  1  0
 19 20  2  0
 20 21  1  0
 21 22  2  0
 15 23  1  0
 23  6  2  0
 14  9  1  0
 22 17  1  0
  1 24  1  0
  1 25  1  0
  1 26  1  0
  2 27  1  0
  2 28  1  0
  3 29  1  0
  7 30  1  0
 10 31  1  0
 11 32  1  0
 12 33  1  0
 13 34  1  0
 14 35  1  0
 16 36  1  0
 16 37  1  0
 18 38  1  0
 19 39  1  0
 20 40  1  0
 21 41  1  0
 22 42  1  0
M  END
>  <_SMILES>  (76) 
CCNC(=O)c1cc(-c2ccccc2)n(Cc2ccccc2)n1

$$$$

     RDKit          3D

 63 65  0  0  0  0  0  0  0  0999 V2000
   -3.5446    4.3624   -1.6037 C   0  0  0  0  0  0  0  0  0  0  0  0
   -2.5123    3.2521   -1.4898 C   0  0  0  0  0  0  0  0  0  0  0  0
   -3.1449    1.8759   -1.6957 C   0  0  0  0  0  0  0  0  0  0  0  0
   -2.1020    0.7624   -1.5796 C   0  0  0  0  0  0  0  0  0  0  0  0
   -2.7375   -0.6166   -1.7795 C   0  0  0  0  0  0  0  0  0  0  0  0
   -1.7161   -1.7555   -1.7678 C   0  0  0  0  0  0  0  0  0  0  0  0
   -1.0675   -1.9508   -0.4822 N   0  0  0  0  0  0  0  0  0  0  0  0
    0.1433   -1.3939   -0.2816 N   0  0  0  0  0  0  0  0  0  0  0  0
    0.4531   -1.7173    0.9905 C   0  0  0  0  0  0  0  0  0  0  0  0
    1.7157   -1.2591    1.6026 C   0  0  0  0  0  0  0  0  0  0  0  0
    2.0789   -1.5810    2.7298 O   0  0  0  0  0  0  0  0  0  0  0  0
    2.4477   -0.4411    0.7675 N   0  0  0  0  0  0  0  0  0  0  0  0
    3.8033   -0.0462    1.0643 C   0  0  0  0  0  0  0  0  0  0  0  0
    4.2320    1.1844    0.2555 C   0  0  0  0  0  0  0  0  0  0  0  0
    3.3739    2.4176    0.6046 C   0  0  0  0  0  0  0  0  0  0  0  0
    4.0748    3.7523    0.3368 C   0  0  0  0  0  0  0  0  0  0  0  0
    5.1109    3.6420   -0.7718 C   0  0  0  0  0  0  0  0  0  0  0  0
    6.2040    2.6304   -0.4257 C   0  0  0  0  0  0  0  0  0  0  0  0
    5.7197    1.4840    0.4662 C   0  0  0  0  0  0  0  0  0  0  0  0
   -0.5677   -2.5205    1.5813 C   0  0  0  0  0  0  0  0  0  0  0  0
   -0.5714   -3.0786    2.9584 C   0  0  0  0  0  0  0  0  0  0  0  0
   -1.5349   -2.6609    0.5972 C   0  0  0  0  0  0  0  0  0  0  0  0
   -2.8091   -3.3678    0.6294 C   0  0  0  0  0  0  0  0  0  0  0  0
   -3.9184   -2.7889    1.2557 C   0  0  0  0  0  0  0  0  0  0  0  0
   -5.1398   -3.4639    1.2868 C   0  0  0  0  0  0  0  0  0  0  0  0
   -5.2562   -4.7226    0.6982 C   0  0  0  0  0  0  0  0  0  0  0  0
   -4.1517   -5.3095    0.0817 C   0  0  0  0  0  0  0  0  0  0  0  0
   -2.9297   -4.6353    0.0494 C   0  0  0  0  0  0  0  0  0  0  0  0
   -4.3303    4.2464   -0.8503 H   0  0  0  0  0  0  0  0  0  0  0  0
   -4.0139    4.3618   -2.5927 H   0  0  0  0  0  0  0  0  0  0  0  0
   -3.0708    5.3374   -1.4531 H   0  0  0  0  0  0  0  0  0  0  0  0
   -1.7248    3.4154   -2.2347 H   0  0  0  0  0  0  0  0  0  0  0  0
   -2.0395    3.3008   -0.5019 H   0  0  0  0  0  0  0  0  0  0  0  0
   -3.9343    1.7189   -0.9506 H   0  0  0  0  0  0  0  0  0  0  0  0
   -3.6196    1.8340   -2.6836 H   0  0  0  0  0  0  0  0  0  0  0  0
   -1.3150    0.9170   -2.3276 H   0  0  0  0  0  0  0  0  0  0  0  0
   -1.6289    0.8172   -0.5925 H   0  0  0  0  0  0  0  0  0  0  0  0
   -3.4988   -0.7813   -1.0085 H   0  0  0  0  0  0  0  0  0  0  0  0
   -3.2563   -0.6336   -2.7459 H   0  0  0  0  0  0  0  0  0  0  0  0
   -2.2010   -2.6987   -2.0404 H   0  0  0  0  0  0  0  0  0  0  0  0
   -0.9314   -1.5784   -2.5132 H   0  0  0  0  0  0  0  0  0  0  0  0
    2.0891   -0.4007   -0.1842 H   0  0  0  0  0  0  0  0  0  0  0  0
    3.8994    0.1367    2.1409 H   0  0  0  0  0  0  0  0  0  0  0  0
    4.4415   -0.9037    0.8213 H   0  0  0  0  0  0  0  0  0  0  0  0
    4.0819    0.9591   -0.8101 H   0  0  0  0  0  0  0  0  0  0  0  0
    3.0670    2.3957    1.6578 H   0  0  0  0  0  0  0  0  0  0  0  0
    2.4470    2.3740    0.0183 H   0  0  0  0  0  0  0  0  0  0  0  0
    4.5690    4.0916    1.2561 H   0  0  0  0  0  0  0  0  0  0  0  0
    3.3289    4.5150    0.0857 H   0  0  0  0  0  0  0  0  0  0  0  0
    5.5642    4.6202   -0.9682 H   0  0  0  0  0  0  0  0  0  0  0  0
    4.6129    3.3372   -1.7009 H   0  0  0  0  0  0  0  0  0  0  0  0
    7.0351    3.1390    0.0779 H   0  0  0  0  0  0  0  0  0  0  0  0
    6.6152    2.2261   -1.3587 H   0  0  0  0  0  0  0  0  0  0  0  0
    5.8919    1.7486    1.5179 H   0  0  0  0  0  0  0  0  0  0  0  0
    6.3285    0.5937    0.2681 H   0  0  0  0  0  0  0  0  0  0  0  0
   -1.4671   -3.6753    3.1552 H   0  0  0  0  0  0  0  0  0  0  0  0
   -0.5391   -2.2714    3.6972 H   0  0  0  0  0  0  0  0  0  0  0  0
    0.2980   -3.7261    3.1107 H   0  0  0  0  0  0  0  0  0  0  0  0
   -3.8357   -1.8098    1.7220 H   0  0  0  0  0  0  0  0  0  0  0  0
   -5.9986   -3.0095    1.7739 H   0  0  0  0  0  0  0  0  0  0  0  0
   -6.2067   -5.2495    0.7260 H   0  0  0  0  0  0  0  0  0  0  0  0
   -4.2403   -6.2949   -0.3685 H   0  0  0  0  0  0  0  0  0  0  0  0
   -2.0714   -5.1068   -0.4236 H   0  0  0  0  0  0  0  0  0  0  0  0
  1  2  1  0
  2  3  1  0
  3  4  1  0
  4  5  1  0
  5  6  1  0
  6  7  1  0
  7  8  1  0
  8  9  2  0
  9 10  1  0
 10 11  2  0
 10 12  1  0
 12 13  1  0
 13 14  1  0
 14 15  1  0
 15 16  1  0
 16 17  1  0
 17 18  1  0
 18 19  1  0
  9 20  1  0
 20 21  1  0
 20 22  2  0
 22 23  1  0
 23 24  2  0
 24 25  1  0
 25 26  2  0
 26 27  1  0
 27 28  2  0
 22  7  1  0
 28 23  1  0
 19 14  1  0
  1 29  1  0
  1 30  1  0
  1 31  1  0
  2 32  1  0
  2 33  1  0
  3 34  1  0
  3 35  1  0
  4 36  1  0
  4 37  1  0
  5 38  1  0
  5 39  1  0
  6 40  1  0
  6 41  1  0
 12 42  1  0
 13 43  1  0
 13 44  1  0
 14 45  1  0
 15 46  1  0
 15 47  1  0
 16 48  1  0
 16 49  1  0
 17 50  1  0
 17 51  1  0
 18 52  1  0
 18 53  1  0
 19 54  1  0
 19 55  1  0
 21 56  1  0
 21 57  1  0
 21 58  1  0
 24 59  1  0
 25 60  1  0
 26 61  1  0
 27 62  1  0
 28 63  1  0
M  END
>  <_SMILES>  (77) 
CCCCCCn1nc(C(=O)NCC2CCCCC2)c(C)c1-c1ccccc1

$$$$

     RDKit          3D

 51 55  0  0  0  0  0  0  0  0999 V2000
    1.9724   -0.5637   -1.9119 C   0  0  0  0  0  0  0  0  0  0  0  0
    1.9944   -0.3399   -0.4295 C   0  0  0  0  0  0  0  0  0  0  0  0
    3.1795   -0.2580    0.3007 C   0  0  0  0  0  0  0  0  0  0  0  0
    4.4164   -0.4460   -0.3641 N   0  0  0  0  0  0  0  0  0  0  0  0
    5.7227   -0.1525    0.0893 C   0  0  0  0  0  0  0  0  0  0  0  0
    6.8103   -0.8272   -0.4887 C   0  0  0  0  0  0  0  0  0  0  0  0
    8.1258   -0.5286   -0.1209 C   0  0  0  0  0  0  0  0  0  0  0  0
    8.3768    0.4698    0.8153 C   0  0  0  0  0  0  0  0  0  0  0  0
    7.3138    1.1748    1.3721 C   0  0  0  0  0  0  0  0  0  0  0  0
    5.9995    0.8728    1.0010 C   0  0  0  0  0  0  0  0  0  0  0  0
    3.1818   -0.0126    1.6252 N   0  0  0  0  0  0  0  0  0  0  0  0
    2.0073    0.1345    2.2389 C   0  0  0  0  0  0  0  0  0  0  0  0
    0.8138    0.0560    1.6585 N   0  0  0  0  0  0  0  0  0  0  0  0
    0.8317   -0.1867    0.3210 C   0  0  0  0  0  0  0  0  0  0  0  0
   -0.5551   -0.2811   -0.2823 C   0  0  0  0  0  0  0  0  0  0  0  0
   -0.7498   -0.5017   -1.4697 O   0  0  0  0  0  0  0  0  0  0  0  0
   -1.5699   -0.0920    0.6345 N   0  0  0  0  0  0  0  0  0  0  0  0
   -2.9736    0.0127    0.3035 C   0  0  2  0  0  0  0  0  0  0  0  0
   -3.7400    0.1063    1.6419 C   0  0  0  0  0  0  0  0  0  0  0  0
   -5.0659    0.3156    1.4466 C   0  0  0  0  0  0  0  0  0  0  0  0
   -5.4462    1.5541    0.6491 C   0  0  0  0  0  0  0  0  0  0  0  0
   -4.8137    1.4075   -0.7468 C   0  0  2  0  0  0  0  0  0  0  0  0
   -5.3797    0.1380   -1.4252 C   0  0  0  0  0  0  0  0  0  0  0  0
   -5.0967   -1.1104   -0.5553 C   0  0  2  0  0  0  0  0  0  0  0  0
   -5.7450   -0.9139    0.8458 C   0  0  0  0  0  0  0  0  0  0  0  0
   -3.5534   -1.2516   -0.4047 C   0  0  0  0  0  0  0  0  0  0  0  0
   -3.2859    1.2589   -0.5656 C   0  0  0  0  0  0  0  0  0  0  0  0
    1.5152   -1.5309   -2.1440 H   0  0  0  0  0  0  0  0  0  0  0  0
    2.9691   -0.5654   -2.3623 H   0  0  0  0  0  0  0  0  0  0  0  0
    1.4229    0.2408   -2.4118 H   0  0  0  0  0  0  0  0  0  0  0  0
    4.3949   -1.3227   -0.8740 H   0  0  0  0  0  0  0  0  0  0  0  0
    6.6445   -1.6003   -1.2343 H   0  0  0  0  0  0  0  0  0  0  0  0
    8.9523   -1.0718   -0.5713 H   0  0  0  0  0  0  0  0  0  0  0  0
    9.3978    0.7062    1.1022 H   0  0  0  0  0  0  0  0  0  0  0  0
    7.5020    1.9678    2.0909 H   0  0  0  0  0  0  0  0  0  0  0  0
    5.1932    1.4594    1.4320 H   0  0  0  0  0  0  0  0  0  0  0  0
    2.0324    0.3316    3.3050 H   0  0  0  0  0  0  0  0  0  0  0  0
   -1.2590    0.1879    1.5613 H   0  0  0  0  0  0  0  0  0  0  0  0
   -3.4625   -0.7254    2.2960 H   0  0  0  0  0  0  0  0  0  0  0  0
   -6.5363    1.6482    0.5807 H   0  0  0  0  0  0  0  0  0  0  0  0
   -5.0783    2.4555    1.1542 H   0  0  0  0  0  0  0  0  0  0  0  0
   -5.0360    2.2892   -1.3574 H   0  0  0  0  0  0  0  0  0  0  0  0
   -4.9298    0.0130   -2.4177 H   0  0  0  0  0  0  0  0  0  0  0  0
   -6.4609    0.2477   -1.5743 H   0  0  0  0  0  0  0  0  0  0  0  0
   -5.5095   -2.0038   -1.0362 H   0  0  0  0  0  0  0  0  0  0  0  0
   -5.5876   -1.7970    1.4768 H   0  0  0  0  0  0  0  0  0  0  0  0
   -6.8269   -0.7598    0.7628 H   0  0  0  0  0  0  0  0  0  0  0  0
   -3.1042   -1.3885   -1.3952 H   0  0  0  0  0  0  0  0  0  0  0  0
   -3.3201   -2.1570    0.1716 H   0  0  0  0  0  0  0  0  0  0  0  0
   -2.8066    1.1768   -1.5487 H   0  0  0  0  0  0  0  0  0  0  0  0
   -2.8783    2.1636   -0.0947 H   0  0  0  0  0  0  0  0  0  0  0  0
  1  2  1  0
  2  3  1  0
  3  4  1  0
  4  5  1  0
  5  6  2  0
  6  7  1  0
  7  8  2  0
  8  9  1  0
  9 10  2  0
  3 11  2  0
 11 12  1  0
 12 13  2  0
 13 14  1  0
 14 15  1  0
 15 16  2  0
 15 17  1  0
 18 17  1  1
 18 19  1  0
 19 20  2  0
 20 21  1  0
 21 22  1  0
 22 23  1  0
 23 24  1  0
 24 25  1  0
 24 26  1  0
 22 27  1  0
 14  2  2  0
 26 18  1  0
 10  5  1  0
 27 18  1  0
 25 20  1  0
  1 28  1  0
  1 29  1  0
  1 30  1  0
  4 31  1  0
  6 32  1  0
  7 33  1  0
  8 34  1  0
  9 35  1  0
 10 36  1  0
 12 37  1  0
 17 38  1  0
 19 39  1  0
 21 40  1  0
 21 41  1  0
 22 42  1  6
 23 43  1  0
 23 44  1  0
 24 45  1  6
 25 46  1  0
 25 47  1  0
 26 48  1  0
 26 49  1  0
 27 50  1  0
 27 51  1  0
M  END
>  <_SMILES>  (78) 
Cc1c(Nc2ccccc2)ncnc1C(=O)N[C@]12C=C3C[C@H](C[C@H](C3)C1)C2

$$$$

     RDKit          3D

 51 55  0  0  0  0  0  0  0  0999 V2000
    1.9012    2.2432   -0.8066 C   0  0  0  0  0  0  0  0  0  0  0  0
    1.9427    0.8331   -0.2966 C   0  0  0  0  0  0  0  0  0  0  0  0
    0.8912    0.0416    0.0345 C   0  0  0  0  0  0  0  0  0  0  0  0
   -0.5301    0.5455   -0.1992 C   0  0  0  0  0  0  0  0  0  0  0  0
   -0.8133    1.5156   -0.8886 O   0  0  0  0  0  0  0  0  0  0  0  0
   -1.4609   -0.2567    0.4242 N   0  0  0  0  0  0  0  0  0  0  0  0
   -2.8886   -0.1603    0.2262 C   0  0  2  0  0  0  0  0  0  0  0  0
   -3.5395   -1.1679    1.2006 C   0  0  0  0  0  0  0  0  0  0  0  0
   -4.8828   -1.2387    1.0257 C   0  0  0  0  0  0  0  0  0  0  0  0
   -5.5757    0.0446    1.4804 C   0  0  0  0  0  0  0  0  0  0  0  0
   -5.0455    1.1654    0.5400 C   0  0  2  0  0  0  0  0  0  0  0  0
   -5.4377    0.8316   -0.9195 C   0  0  0  0  0  0  0  0  0  0  0  0
   -4.8515   -0.5378   -1.3356 C   0  0  2  0  0  0  0  0  0  0  0  0
   -5.3653   -1.6180   -0.3664 C   0  0  0  0  0  0  0  0  0  0  0  0
   -3.3102   -0.4941   -1.2287 C   0  0  0  0  0  0  0  0  0  0  0  0
   -3.4916    1.2251    0.6182 C   0  0  0  0  0  0  0  0  0  0  0  0
    0.9710   -1.2511    0.5747 N   0  0  0  0  0  0  0  0  0  0  0  0
    2.1634   -1.7204    0.7385 C   0  0  0  0  0  0  0  0  0  0  0  0
    3.3021   -1.0562    0.4321 N   0  0  0  0  0  0  0  0  0  0  0  0
    3.3024    0.2111   -0.0935 C   0  0  0  0  0  0  0  0  0  0  0  0
    4.3633    0.8921   -0.4256 N   0  0  0  0  0  0  0  0  0  0  0  0
    5.6312    0.3267   -0.2474 C   0  0  0  0  0  0  0  0  0  0  0  0
    6.3240    0.5127    0.9514 C   0  0  0  0  0  0  0  0  0  0  0  0
    7.5831   -0.0613    1.1353 C   0  0  0  0  0  0  0  0  0  0  0  0
    8.1595   -0.8162    0.1141 C   0  0  0  0  0  0  0  0  0  0  0  0
    7.4819   -0.9899   -1.0923 C   0  0  0  0  0  0  0  0  0  0  0  0
    6.2229   -0.4146   -1.2730 C   0  0  0  0  0  0  0  0  0  0  0  0
    1.7817    2.2515   -1.8943 H   0  0  0  0  0  0  0  0  0  0  0  0
    1.0932    2.8212   -0.3489 H   0  0  0  0  0  0  0  0  0  0  0  0
    2.8133    2.7973   -0.5631 H   0  0  0  0  0  0  0  0  0  0  0  0
   -1.0739   -1.1188    0.7996 H   0  0  0  0  0  0  0  0  0  0  0  0
   -3.1811   -0.9931    2.2191 H   0  0  0  0  0  0  0  0  0  0  0  0
   -6.6647   -0.0529    1.4046 H   0  0  0  0  0  0  0  0  0  0  0  0
   -5.3392    0.2685    2.5276 H   0  0  0  0  0  0  0  0  0  0  0  0
   -5.4727    2.1310    0.8314 H   0  0  0  0  0  0  0  0  0  0  0  0
   -6.5304    0.8114   -1.0135 H   0  0  0  0  0  0  0  0  0  0  0  0
   -5.0718    1.6149   -1.5944 H   0  0  0  0  0  0  0  0  0  0  0  0
   -5.1506   -0.7771   -2.3618 H   0  0  0  0  0  0  0  0  0  0  0  0
   -6.4595   -1.6819   -0.3905 H   0  0  0  0  0  0  0  0  0  0  0  0
   -4.9809   -2.6077   -0.6421 H   0  0  0  0  0  0  0  0  0  0  0  0
   -2.9152    0.2526   -1.9284 H   0  0  0  0  0  0  0  0  0  0  0  0
   -2.8894   -1.4614   -1.5349 H   0  0  0  0  0  0  0  0  0  0  0  0
   -3.1838    1.5054    1.6346 H   0  0  0  0  0  0  0  0  0  0  0  0
   -3.1263    2.0160   -0.0471 H   0  0  0  0  0  0  0  0  0  0  0  0
    2.3277   -2.7282    1.1535 H   0  0  0  0  0  0  0  0  0  0  0  0
    4.1953   -1.5047    0.5791 H   0  0  0  0  0  0  0  0  0  0  0  0
    5.8806    1.1143    1.7404 H   0  0  0  0  0  0  0  0  0  0  0  0
    8.1180    0.0908    2.0693 H   0  0  0  0  0  0  0  0  0  0  0  0
    9.1443   -1.2560    0.2527 H   0  0  0  0  0  0  0  0  0  0  0  0
    7.9376   -1.5622   -1.8962 H   0  0  0  0  0  0  0  0  0  0  0  0
    5.7006   -0.5359   -2.2184 H   0  0  0  0  0  0  0  0  0  0  0  0
  1  2  1  0
  2  3  2  0
  3  4  1  0
  4  5  2  0
  4  6  1  0
  7  6  1  6
  7  8  1  0
  8  9  2  0
  9 10  1  0
 10 11  1  0
 11 12  1  0
 12 13  1  0
 13 14  1  0
 13 15  1  0
 11 16  1  0
  3 17  1  0
 17 18  2  0
 18 19  1  0
 19 20  1  0
 20 21  2  0
 21 22  1  0
 22 23  2  0
 23 24  1  0
 24 25  2  0
 25 26  1  0
 26 27  2  0
 20  2  1  0
 27 22  1  0
 15  7  1  0
 16  7  1  0
 14  9  1  0
  1 28  1  0
  1 29  1  0
  1 30  1  0
  6 31  1  0
  8 32  1  0
 10 33  1  0
 10 34  1  0
 11 35  1  1
 12 36  1  0
 12 37  1  0
 13 38  1  6
 14 39  1  0
 14 40  1  0
 15 41  1  0
 15 42  1  0
 16 43  1  0
 16 44  1  0
 18 45  1  0
 19 46  1  0
 23 47  1  0
 24 48  1  0
 25 49  1  0
 26 50  1  0
 27 51  1  0
M  END
>  <_SMILES>  (79) 
Cc1c(C(=O)N[C@]23C=C4C[C@H](C[C@H](C4)C2)C3)nc[nH]/c1=N\c1ccccc1

$$$$

     RDKit          3D

 51 55  0  0  0  0  0  0  0  0999 V2000
    2.5891    0.7952   -0.4632 C   0  0  0  0  0  0  0  0  0  0  0  0
    2.2510   -0.6627   -0.3982 C   0  0  0  0  0  0  0  0  0  0  0  0
    0.9957   -1.1790   -0.2934 C   0  0  0  0  0  0  0  0  0  0  0  0
   -0.1832   -0.2540    0.0090 C   0  0  0  0  0  0  0  0  0  0  0  0
   -0.0729    0.8914    0.4251 O   0  0  0  0  0  0  0  0  0  0  0  0
   -1.3896   -0.8791   -0.2091 N   0  0  0  0  0  0  0  0  0  0  0  0
   -2.6853   -0.2593   -0.0574 C   0  0  2  0  0  0  0  0  0  0  0  0
   -3.7422   -1.3598   -0.3039 C   0  0  0  0  0  0  0  0  0  0  0  0
   -5.0023   -0.8579   -0.2854 C   0  0  0  0  0  0  0  0  0  0  0  0
   -5.4100   -0.4164    1.1192 C   0  0  0  0  0  0  0  0  0  0  0  0
   -4.4444    0.7456    1.4925 C   0  0  2  0  0  0  0  0  0  0  0  0
   -4.6359    1.9072    0.4879 C   0  0  0  0  0  0  0  0  0  0  0  0
   -4.3591    1.4233   -0.9548 C   0  0  2  0  0  0  0  0  0  0  0  0
   -5.3037    0.2524   -1.2809 C   0  0  0  0  0  0  0  0  0  0  0  0
   -2.9058    0.9072   -1.0563 C   0  0  0  0  0  0  0  0  0  0  0  0
   -2.9699    0.2570    1.3876 C   0  0  0  0  0  0  0  0  0  0  0  0
    0.6394   -2.5277   -0.4472 N   0  0  0  0  0  0  0  0  0  0  0  0
    1.6028   -3.3341   -0.7450 C   0  0  0  0  0  0  0  0  0  0  0  0
    2.8947   -2.9626   -0.8725 N   0  0  0  0  0  0  0  0  0  0  0  0
    3.3401   -1.6991   -0.5921 C   0  0  0  0  0  0  0  0  0  0  0  0
    4.6365   -1.6080   -0.5021 N   0  0  0  0  0  0  0  0  0  0  0  0
    5.3131   -0.4645   -0.0776 C   0  0  0  0  0  0  0  0  0  0  0  0
    5.3259   -0.0957    1.2712 C   0  0  0  0  0  0  0  0  0  0  0  0
    6.0489    1.0222    1.6929 C   0  0  0  0  0  0  0  0  0  0  0  0
    6.7832    1.7650    0.7694 C   0  0  0  0  0  0  0  0  0  0  0  0
    6.8037    1.3841   -0.5716 C   0  0  0  0  0  0  0  0  0  0  0  0
    6.0793    0.2659   -0.9895 C   0  0  0  0  0  0  0  0  0  0  0  0
    2.8509    1.1856    0.5235 H   0  0  0  0  0  0  0  0  0  0  0  0
    1.7714    1.3971   -0.8695 H   0  0  0  0  0  0  0  0  0  0  0  0
    3.4078    0.9812   -1.1621 H   0  0  0  0  0  0  0  0  0  0  0  0
   -1.3205   -1.8365   -0.5424 H   0  0  0  0  0  0  0  0  0  0  0  0
   -3.5467   -2.2236    0.3381 H   0  0  0  0  0  0  0  0  0  0  0  0
   -5.3195   -1.2444    1.8327 H   0  0  0  0  0  0  0  0  0  0  0  0
   -6.4540   -0.0836    1.1352 H   0  0  0  0  0  0  0  0  0  0  0  0
   -4.6527    1.0923    2.5105 H   0  0  0  0  0  0  0  0  0  0  0  0
   -5.6601    2.2934    0.5596 H   0  0  0  0  0  0  0  0  0  0  0  0
   -3.9622    2.7353    0.7396 H   0  0  0  0  0  0  0  0  0  0  0  0
   -4.5167    2.2448   -1.6621 H   0  0  0  0  0  0  0  0  0  0  0  0
   -6.3534    0.5599   -1.2085 H   0  0  0  0  0  0  0  0  0  0  0  0
   -5.1453   -0.1064   -2.3052 H   0  0  0  0  0  0  0  0  0  0  0  0
   -2.2107    1.7307   -0.8524 H   0  0  0  0  0  0  0  0  0  0  0  0
   -2.7011    0.5736   -2.0825 H   0  0  0  0  0  0  0  0  0  0  0  0
   -2.7920   -0.5392    2.1230 H   0  0  0  0  0  0  0  0  0  0  0  0
   -2.2947    1.0798    1.6504 H   0  0  0  0  0  0  0  0  0  0  0  0
    1.4231   -4.4104   -0.8994 H   0  0  0  0  0  0  0  0  0  0  0  0
    3.6221   -3.6588   -0.9602 H   0  0  0  0  0  0  0  0  0  0  0  0
    4.7688   -0.6819    1.9965 H   0  0  0  0  0  0  0  0  0  0  0  0
    6.0433    1.3079    2.7414 H   0  0  0  0  0  0  0  0  0  0  0  0
    7.3483    2.6339    1.0968 H   0  0  0  0  0  0  0  0  0  0  0  0
    7.3878    1.9519   -1.2908 H   0  0  0  0  0  0  0  0  0  0  0  0
    6.1070   -0.0393   -2.0317 H   0  0  0  0  0  0  0  0  0  0  0  0
  1  2  1  0
  2  3  2  0
  3  4  1  0
  4  5  2  0
  4  6  1  0
  7  6  1  1
  7  8  1  0
  8  9  2  0
  9 10  1  0
 10 11  1  0
 11 12  1  0
 12 13  1  0
 13 14  1  0
 13 15  1  0
 11 16  1  0
  3 17  1  0
 17 18  2  0
 18 19  1  0
 19 20  1  0
 20 21  2  0
 21 22  1  0
 22 23  2  0
 23 24  1  0
 24 25  2  0
 25 26  1  0
 26 27  2  0
 20  2  1  0
 27 22  1  0
 15  7  1  0
 16  7  1  0
 14  9  1  0
  1 28  1  0
  1 29  1  0
  1 30  1  0
  6 31  1  0
  8 32  1  0
 10 33  1  0
 10 34  1  0
 11 35  1  1
 12 36  1  0
 12 37  1  0
 13 38  1  6
 14 39  1  0
 14 40  1  0
 15 41  1  0
 15 42  1  0
 16 43  1  0
 16 44  1  0
 18 45  1  0
 19 46  1  0
 23 47  1  0
 24 48  1  0
 25 49  1  0
 26 50  1  0
 27 51  1  0
M  END
>  <_SMILES>  (80) 
Cc1c(C(=O)N[C@]23C=C4C[C@H](C[C@H](C4)C2)C3)nc[nH]/c1=N/c1ccccc1

$$$$

     RDKit          3D

 51 55  0  0  0  0  0  0  0  0999 V2000
    1.8768    1.4756   -1.7404 C   0  0  0  0  0  0  0  0  0  0  0  0
    1.9628    0.3002   -0.8150 C   0  0  0  0  0  0  0  0  0  0  0  0
    0.9487   -0.4575   -0.3616 C   0  0  0  0  0  0  0  0  0  0  0  0
   -0.4650   -0.2241   -0.8042 C   0  0  0  0  0  0  0  0  0  0  0  0
   -0.7638   -0.0561   -1.9769 O   0  0  0  0  0  0  0  0  0  0  0  0
   -1.3461   -0.2711    0.2526 N   0  0  0  0  0  0  0  0  0  0  0  0
   -2.7879   -0.1118    0.1580 C   0  0  2  0  0  0  0  0  0  0  0  0
   -3.3905   -1.3208   -0.5804 C   0  0  0  0  0  0  0  0  0  0  0  0
   -4.7473   -1.2833   -0.5663 C   0  0  0  0  0  0  0  0  0  0  0  0
   -5.4123   -1.2742    0.8012 C   0  0  0  0  0  0  0  0  0  0  0  0
   -4.9368   -0.0017    1.5251 C   0  0  2  0  0  0  0  0  0  0  0  0
   -5.3841    1.2363    0.7168 C   0  0  0  0  0  0  0  0  0  0  0  0
   -4.8056    1.1767   -0.7152 C   0  0  2  0  0  0  0  0  0  0  0  0
   -5.2917   -0.1297   -1.4107 C   0  0  0  0  0  0  0  0  0  0  0  0
   -3.2527    1.1633   -0.6109 C   0  0  0  0  0  0  0  0  0  0  0  0
   -3.3943   -0.0418    1.5913 C   0  0  0  0  0  0  0  0  0  0  0  0
    1.1688   -1.4863    0.5286 N   0  0  0  0  0  0  0  0  0  0  0  0
    2.4432   -1.8151    0.8542 C   0  0  0  0  0  0  0  0  0  0  0  0
    3.4947   -1.1670    0.4944 N   0  0  0  0  0  0  0  0  0  0  0  0
    3.3387   -0.0507   -0.3054 C   0  0  0  0  0  0  0  0  0  0  0  0
    4.3560    0.6891   -0.6313 N   0  0  0  0  0  0  0  0  0  0  0  0
    5.6315    0.3488   -0.1600 C   0  0  0  0  0  0  0  0  0  0  0  0
    6.1188    0.9091    1.0238 C   0  0  0  0  0  0  0  0  0  0  0  0
    7.4044    0.6035    1.4760 C   0  0  0  0  0  0  0  0  0  0  0  0
    8.2155   -0.2575    0.7375 C   0  0  0  0  0  0  0  0  0  0  0  0
    7.7435   -0.8081   -0.4535 C   0  0  0  0  0  0  0  0  0  0  0  0
    6.4574   -0.4998   -0.9023 C   0  0  0  0  0  0  0  0  0  0  0  0
    2.3307    1.2313   -2.7063 H   0  0  0  0  0  0  0  0  0  0  0  0
    0.8515    1.8060   -1.9235 H   0  0  0  0  0  0  0  0  0  0  0  0
    2.4022    2.3394   -1.3185 H   0  0  0  0  0  0  0  0  0  0  0  0
   -0.9485   -0.3277    1.1812 H   0  0  0  0  0  0  0  0  0  0  0  0
   -2.9179   -1.4423   -1.5600 H   0  0  0  0  0  0  0  0  0  0  0  0
   -6.5037   -1.2879    0.7001 H   0  0  0  0  0  0  0  0  0  0  0  0
   -5.1313   -2.1733    1.3631 H   0  0  0  0  0  0  0  0  0  0  0  0
   -5.3571    0.0386    2.5357 H   0  0  0  0  0  0  0  0  0  0  0  0
   -6.4794    1.2766    0.6734 H   0  0  0  0  0  0  0  0  0  0  0  0
   -5.0486    2.1518    1.2189 H   0  0  0  0  0  0  0  0  0  0  0  0
   -5.1348    2.0502   -1.2883 H   0  0  0  0  0  0  0  0  0  0  0  0
   -6.3860   -0.1672   -1.4590 H   0  0  0  0  0  0  0  0  0  0  0  0
   -4.9169   -0.1867   -2.4399 H   0  0  0  0  0  0  0  0  0  0  0  0
   -2.8385    1.1959   -1.6250 H   0  0  0  0  0  0  0  0  0  0  0  0
   -2.8965    2.0668   -0.0999 H   0  0  0  0  0  0  0  0  0  0  0  0
   -3.0186    0.8457    2.1174 H   0  0  0  0  0  0  0  0  0  0  0  0
   -3.0753   -0.9109    2.1832 H   0  0  0  0  0  0  0  0  0  0  0  0
    0.4215   -2.1655    0.6297 H   0  0  0  0  0  0  0  0  0  0  0  0
    2.5230   -2.7199    1.4787 H   0  0  0  0  0  0  0  0  0  0  0  0
    5.4889    1.5855    1.5934 H   0  0  0  0  0  0  0  0  0  0  0  0
    7.7712    1.0398    2.4007 H   0  0  0  0  0  0  0  0  0  0  0  0
    9.2164   -0.4956    1.0873 H   0  0  0  0  0  0  0  0  0  0  0  0
    8.3744   -1.4742   -1.0351 H   0  0  0  0  0  0  0  0  0  0  0  0
    6.0907   -0.9222   -1.8330 H   0  0  0  0  0  0  0  0  0  0  0  0
  1  2  1  0
  2  3  2  0
  3  4  1  0
  4  5  2  0
  4  6  1  0
  7  6  1  1
  7  8  1  0
  8  9  2  0
  9 10  1  0
 10 11  1  0
 11 12  1  0
 12 13  1  0
 13 14  1  0
 13 15  1  0
 11 16  1  0
  3 17  1  0
 17 18  1  0
 18 19  2  0
 19 20  1  0
 20 21  2  0
 21 22  1  0
 22 23  2  0
 23 24  1  0
 24 25  2  0
 25 26  1  0
 26 27  2  0
 20  2  1  0
 27 22  1  0
 15  7  1  0
 16  7  1  0
 14  9  1  0
  1 28  1  0
  1 29  1  0
  1 30  1  0
  6 31  1  0
  8 32  1  0
 10 33  1  0
 10 34  1  0
 11 35  1  1
 12 36  1  0
 12 37  1  0
 13 38  1  6
 14 39  1  0
 14 40  1  0
 15 41  1  0
 15 42  1  0
 16 43  1  0
 16 44  1  0
 17 45  1  0
 18 46  1  0
 23 47  1  0
 24 48  1  0
 25 49  1  0
 26 50  1  0
 27 51  1  0
M  END
>  <_SMILES>  (81) 
Cc1c(C(=O)N[C@]23C=C4C[C@H](C[C@H](C4)C2)C3)[nH]cn/c1=N\c1ccccc1

$$$$

     RDKit          3D

 51 55  0  0  0  0  0  0  0  0999 V2000
    2.4808    0.8966    0.2448 C   0  0  0  0  0  0  0  0  0  0  0  0
    2.2719   -0.1473   -0.8067 C   0  0  0  0  0  0  0  0  0  0  0  0
    1.1188   -0.8161   -1.0053 C   0  0  0  0  0  0  0  0  0  0  0  0
   -0.0474   -0.6432   -0.0787 C   0  0  0  0  0  0  0  0  0  0  0  0
    0.0739   -0.7054    1.1358 O   0  0  0  0  0  0  0  0  0  0  0  0
   -1.2243   -0.4335   -0.7628 N   0  0  0  0  0  0  0  0  0  0  0  0
   -2.5254   -0.2191   -0.1493 C   0  0  2  0  0  0  0  0  0  0  0  0
   -2.9847   -1.5100    0.5523 C   0  0  0  0  0  0  0  0  0  0  0  0
   -4.2548   -1.3960    1.0173 C   0  0  0  0  0  0  0  0  0  0  0  0
   -4.3501   -0.3924    2.1677 C   0  0  0  0  0  0  0  0  0  0  0  0
   -3.9753    0.9923    1.5604 C   0  0  2  0  0  0  0  0  0  0  0  0
   -4.9855    1.3497    0.4465 C   0  0  0  0  0  0  0  0  0  0  0  0
   -4.9786    0.2615   -0.6499 C   0  0  2  0  0  0  0  0  0  0  0  0
   -5.3308   -1.0953   -0.0142 C   0  0  0  0  0  0  0  0  0  0  0  0
   -3.5612    0.1494   -1.2532 C   0  0  0  0  0  0  0  0  0  0  0  0
   -2.5579    0.9137    0.9224 C   0  0  0  0  0  0  0  0  0  0  0  0
    0.9443   -1.6282   -2.1012 N   0  0  0  0  0  0  0  0  0  0  0  0
    1.8668   -1.6013   -3.0907 C   0  0  0  0  0  0  0  0  0  0  0  0
    3.0042   -1.0043   -3.0150 N   0  0  0  0  0  0  0  0  0  0  0  0
    3.3800   -0.4714   -1.7921 C   0  0  0  0  0  0  0  0  0  0  0  0
    4.6605   -0.3442   -1.6836 N   0  0  0  0  0  0  0  0  0  0  0  0
    5.2963    0.0512   -0.5078 C   0  0  0  0  0  0  0  0  0  0  0  0
    5.8850    1.3157   -0.4280 C   0  0  0  0  0  0  0  0  0  0  0  0
    6.5609    1.7117    0.7279 C   0  0  0  0  0  0  0  0  0  0  0  0
    6.6707    0.8332    1.8050 C   0  0  0  0  0  0  0  0  0  0  0  0
    6.1165   -0.4435    1.7215 C   0  0  0  0  0  0  0  0  0  0  0  0
    5.4413   -0.8357    0.5638 C   0  0  0  0  0  0  0  0  0  0  0  0
    3.0774    1.7272   -0.1433 H   0  0  0  0  0  0  0  0  0  0  0  0
    1.5387    1.3512    0.5683 H   0  0  0  0  0  0  0  0  0  0  0  0
    2.9655    0.4775    1.1301 H   0  0  0  0  0  0  0  0  0  0  0  0
   -1.1519   -0.2507   -1.7547 H   0  0  0  0  0  0  0  0  0  0  0  0
   -2.2314   -1.8415    1.2736 H   0  0  0  0  0  0  0  0  0  0  0  0
   -5.3627   -0.3781    2.5870 H   0  0  0  0  0  0  0  0  0  0  0  0
   -3.6637   -0.6610    2.9799 H   0  0  0  0  0  0  0  0  0  0  0  0
   -3.9923    1.7603    2.3413 H   0  0  0  0  0  0  0  0  0  0  0  0
   -5.9918    1.4415    0.8734 H   0  0  0  0  0  0  0  0  0  0  0  0
   -4.7323    2.3230    0.0088 H   0  0  0  0  0  0  0  0  0  0  0  0
   -5.7031    0.5128   -1.4320 H   0  0  0  0  0  0  0  0  0  0  0  0
   -5.3588   -1.8880   -0.7718 H   0  0  0  0  0  0  0  0  0  0  0  0
   -6.3203   -1.0673    0.4566 H   0  0  0  0  0  0  0  0  0  0  0  0
   -3.5591   -0.6106   -2.0468 H   0  0  0  0  0  0  0  0  0  0  0  0
   -3.2821    1.0974   -1.7316 H   0  0  0  0  0  0  0  0  0  0  0  0
   -1.8288    0.7338    1.7207 H   0  0  0  0  0  0  0  0  0  0  0  0
   -2.2900    1.8757    0.4674 H   0  0  0  0  0  0  0  0  0  0  0  0
    0.0694   -2.1315   -2.1885 H   0  0  0  0  0  0  0  0  0  0  0  0
    1.5508   -2.1133   -4.0141 H   0  0  0  0  0  0  0  0  0  0  0  0
    5.8152    1.9913   -1.2760 H   0  0  0  0  0  0  0  0  0  0  0  0
    7.0092    2.7000    0.7818 H   0  0  0  0  0  0  0  0  0  0  0  0
    7.2011    1.1378    2.7035 H   0  0  0  0  0  0  0  0  0  0  0  0
    6.2168   -1.1374    2.5517 H   0  0  0  0  0  0  0  0  0  0  0  0
    5.0285   -1.8381    0.4920 H   0  0  0  0  0  0  0  0  0  0  0  0
  1  2  1  0
  2  3  2  0
  3  4  1  0
  4  5  2  0
  4  6  1  0
  7  6  1  6
  7  8  1  0
  8  9  2  0
  9 10  1  0
 10 11  1  0
 11 12  1  0
 12 13  1  0
 13 14  1  0
 13 15  1  0
 11 16  1  0
  3 17  1  0
 17 18  1  0
 18 19  2  0
 19 20  1  0
 20 21  2  0
 21 22  1  0
 22 23  2  0
 23 24  1  0
 24 25  2  0
 25 26  1  0
 26 27  2  0
 20  2  1  0
 27 22  1  0
 15  7  1  0
 16  7  1  0
 14  9  1  0
  1 28  1  0
  1 29  1  0
  1 30  1  0
  6 31  1  0
  8 32  1  0
 10 33  1  0
 10 34  1  0
 11 35  1  1
 12 36  1  0
 12 37  1  0
 13 38  1  6
 14 39  1  0
 14 40  1  0
 15 41  1  0
 15 42  1  0
 16 43  1  0
 16 44  1  0
 17 45  1  0
 18 46  1  0
 23 47  1  0
 24 48  1  0
 25 49  1  0
 26 50  1  0
 27 51  1  0
M  END
>  <_SMILES>  (82) 
Cc1c(C(=O)N[C@]23C=C4C[C@H](C[C@H](C4)C2)C3)[nH]cn/c1=N/c1ccccc1

$$$$

     RDKit          3D

 39 42  0  0  0  0  0  0  0  0999 V2000
    3.2542    2.4021   -0.8391 N   0  0  0  0  0  0  0  0  0  0  0  0
    2.4532    1.5788   -0.6735 C   0  0  0  0  0  0  0  0  0  0  0  0
    1.4830    0.5500   -0.4814 C   0  0  0  0  0  0  0  0  0  0  0  0
    1.6621   -0.8436   -0.6214 C   0  0  0  0  0  0  0  0  0  0  0  0
    2.8596   -1.6054   -0.9865 C   0  0  0  0  0  0  0  0  0  0  0  0
    3.0950   -2.8497   -0.3929 C   0  0  0  0  0  0  0  0  0  0  0  0
    4.2322   -3.5531   -0.7502 C   0  0  0  0  0  0  0  0  0  0  0  0
    5.1358   -3.1081   -1.6472 N   0  0  0  0  0  0  0  0  0  0  0  0
    4.8853   -1.9122   -2.2189 C   0  0  0  0  0  0  0  0  0  0  0  0
    3.7751   -1.1341   -1.9298 C   0  0  0  0  0  0  0  0  0  0  0  0
    0.5163   -1.4839   -0.3656 N   0  0  0  0  0  0  0  0  0  0  0  0
   -0.3906   -0.5313   -0.0115 N   0  0  0  0  0  0  0  0  0  0  0  0
   -1.6830   -0.9614    0.4344 C   0  0  0  0  0  0  0  0  0  0  0  0
   -2.5742   -0.1148    1.1041 C   0  0  0  0  0  0  0  0  0  0  0  0
   -3.8246   -0.5876    1.5199 C   0  0  0  0  0  0  0  0  0  0  0  0
   -4.1942   -1.9087    1.2819 C   0  0  0  0  0  0  0  0  0  0  0  0
   -3.3113   -2.7667    0.6345 C   0  0  0  0  0  0  0  0  0  0  0  0
   -2.0620   -2.2996    0.2179 C   0  0  0  0  0  0  0  0  0  0  0  0
    0.1524    0.7478   -0.1426 C   0  0  0  0  0  0  0  0  0  0  0  0
   -0.5578    2.0199   -0.0288 C   0  0  0  0  0  0  0  0  0  0  0  0
   -0.2563    2.9096    1.0105 C   0  0  0  0  0  0  0  0  0  0  0  0
   -0.9219    4.1332    1.1039 C   0  0  0  0  0  0  0  0  0  0  0  0
   -1.8854    4.4783    0.1574 C   0  0  0  0  0  0  0  0  0  0  0  0
   -2.1823    3.6040   -0.8868 C   0  0  0  0  0  0  0  0  0  0  0  0
   -1.5177    2.3803   -0.9840 C   0  0  0  0  0  0  0  0  0  0  0  0
    2.4063   -3.2676    0.3349 H   0  0  0  0  0  0  0  0  0  0  0  0
    4.4518   -4.5221   -0.3112 H   0  0  0  0  0  0  0  0  0  0  0  0
    5.6237   -1.5838   -2.9455 H   0  0  0  0  0  0  0  0  0  0  0  0
    3.6425   -0.1957   -2.4557 H   0  0  0  0  0  0  0  0  0  0  0  0
   -2.3324    0.9099    1.3588 H   0  0  0  0  0  0  0  0  0  0  0  0
   -4.5078    0.0795    2.0408 H   0  0  0  0  0  0  0  0  0  0  0  0
   -5.1656   -2.2708    1.6084 H   0  0  0  0  0  0  0  0  0  0  0  0
   -3.5909   -3.8013    0.4521 H   0  0  0  0  0  0  0  0  0  0  0  0
   -1.3965   -2.9967   -0.2892 H   0  0  0  0  0  0  0  0  0  0  0  0
    0.4949    2.6599    1.7568 H   0  0  0  0  0  0  0  0  0  0  0  0
   -0.6845    4.8204    1.9124 H   0  0  0  0  0  0  0  0  0  0  0  0
   -2.4000    5.4335    0.2294 H   0  0  0  0  0  0  0  0  0  0  0  0
   -2.9281    3.8777   -1.6291 H   0  0  0  0  0  0  0  0  0  0  0  0
   -1.7563    1.7137   -1.8103 H   0  0  0  0  0  0  0  0  0  0  0  0
  1  2  3  0
  2  3  1  0
  3  4  1  0
  4  5  1  0
  5  6  2  0
  6  7  1  0
  7  8  2  0
  8  9  1  0
  9 10  2  0
  4 11  2  0
 11 12  1  0
 12 13  1  0
 13 14  2  0
 14 15  1  0
 15 16  2  0
 16 17  1  0
 17 18  2  0
 12 19  1  0
 19 20  1  0
 20 21  2  0
 21 22  1  0
 22 23  2  0
 23 24  1  0
 24 25  2  0
 19  3  2  0
 25 20  1  0
 10  5  1  0
 18 13  1  0
  6 26  1  0
  7 27  1  0
  9 28  1  0
 10 29  1  0
 14 30  1  0
 15 31  1  0
 16 32  1  0
 17 33  1  0
 18 34  1  0
 21 35  1  0
 22 36  1  0
 23 37  1  0
 24 38  1  0
 25 39  1  0
M  END
>  <_SMILES>  (83) 
N#Cc1c(-c2ccncc2)nn(-c2ccccc2)c1-c1ccccc1

$$$$

     RDKit          3D

 64 70  0  0  0  0  0  0  0  0999 V2000
    1.0667   -2.0810    1.7201 O   0  0  0  0  0  0  0  0  0  0  0  0
    0.7079   -1.2365    0.9046 C   0  0  0  0  0  0  0  0  0  0  0  0
    1.5933   -0.4313    0.2125 N   0  0  0  0  0  0  0  0  0  0  0  0
    3.0341   -0.4052    0.3838 C   0  0  2  0  0  0  0  0  0  0  0  0
    3.3793    0.2309    1.7410 C   0  0  0  0  0  0  0  0  0  0  0  0
    4.7171    0.4192    1.8724 C   0  0  0  0  0  0  0  0  0  0  0  0
    5.4699   -0.9080    1.9780 C   0  0  0  0  0  0  0  0  0  0  0  0
    5.2586   -1.6301    0.6139 C   0  0  2  0  0  0  0  0  0  0  0  0
    5.8530   -0.7636   -0.5187 C   0  0  0  0  0  0  0  0  0  0  0  0
    5.1779    0.6249   -0.5368 C   0  0  2  0  0  0  0  0  0  0  0  0
    5.3835    1.3035    0.8296 C   0  0  0  0  0  0  0  0  0  0  0  0
    3.6594    0.4536   -0.7575 C   0  0  0  0  0  0  0  0  0  0  0  0
    3.7343   -1.7998    0.3475 C   0  0  0  0  0  0  0  0  0  0  0  0
   -0.7191   -0.9804    0.6010 C   0  0  0  0  0  0  0  0  0  0  0  0
   -1.6637   -1.1743    1.5409 N   0  0  0  0  0  0  0  0  0  0  0  0
   -2.8197   -0.8123    0.9526 N   0  0  0  0  0  0  0  0  0  0  0  0
   -4.0505   -0.8429    1.7344 C   0  0  0  0  0  0  0  0  0  0  0  0
   -4.5509    0.5447    2.0571 C   0  0  0  0  0  0  0  0  0  0  0  0
   -3.7889    1.4087    2.8590 C   0  0  0  0  0  0  0  0  0  0  0  0
   -4.2518    2.6901    3.1599 C   0  0  0  0  0  0  0  0  0  0  0  0
   -5.4822    3.1205    2.6679 C   0  0  0  0  0  0  0  0  0  0  0  0
   -6.2520    2.2698    1.8768 C   0  0  0  0  0  0  0  0  0  0  0  0
   -5.7912    0.9873    1.5743 C   0  0  0  0  0  0  0  0  0  0  0  0
   -2.6692   -0.4623   -0.3619 C   0  0  0  0  0  0  0  0  0  0  0  0
   -3.8061   -0.0329   -1.3339 C   0  0  0  0  0  0  0  0  0  0  0  0
   -3.9114   -0.6701   -2.6956 C   0  0  0  0  0  0  0  0  0  0  0  0
   -4.9181   -1.0041   -1.6390 C   0  0  0  0  0  0  0  0  0  0  0  0
   -1.3133   -0.5162   -0.6201 C   0  0  0  0  0  0  0  0  0  0  0  0
   -0.7041   -0.1992   -1.8973 C   0  0  0  0  0  0  0  0  0  0  0  0
    0.0103   -1.1736   -2.5943 C   0  0  0  0  0  0  0  0  0  0  0  0
    0.6073   -0.8148   -3.7900 C   0  0  0  0  0  0  0  0  0  0  0  0
    0.5399    0.4257   -4.3192 N   0  0  0  0  0  0  0  0  0  0  0  0
   -0.1637    1.3477   -3.6283 C   0  0  0  0  0  0  0  0  0  0  0  0
   -0.7945    1.0893   -2.4240 C   0  0  0  0  0  0  0  0  0  0  0  0
    1.1910    0.3860   -0.2240 H   0  0  0  0  0  0  0  0  0  0  0  0
    2.8780   -0.3099    2.5501 H   0  0  0  0  0  0  0  0  0  0  0  0
    6.5347   -0.7355    2.1722 H   0  0  0  0  0  0  0  0  0  0  0  0
    5.0808   -1.5143    2.8050 H   0  0  0  0  0  0  0  0  0  0  0  0
    5.7471   -2.6105    0.6302 H   0  0  0  0  0  0  0  0  0  0  0  0
    6.9341   -0.6503   -0.3716 H   0  0  0  0  0  0  0  0  0  0  0  0
    5.7107   -1.2613   -1.4857 H   0  0  0  0  0  0  0  0  0  0  0  0
    5.6082    1.2406   -1.3340 H   0  0  0  0  0  0  0  0  0  0  0  0
    4.9349    2.3044    0.8419 H   0  0  0  0  0  0  0  0  0  0  0  0
    6.4494    1.4277    1.0535 H   0  0  0  0  0  0  0  0  0  0  0  0
    3.4714   -0.0175   -1.7313 H   0  0  0  0  0  0  0  0  0  0  0  0
    3.1833    1.4432   -0.7960 H   0  0  0  0  0  0  0  0  0  0  0  0
    3.3312   -2.4772    1.1080 H   0  0  0  0  0  0  0  0  0  0  0  0
    3.5669   -2.2847   -0.6226 H   0  0  0  0  0  0  0  0  0  0  0  0
   -4.7848   -1.4217    1.1654 H   0  0  0  0  0  0  0  0  0  0  0  0
   -3.8563   -1.3930    2.6631 H   0  0  0  0  0  0  0  0  0  0  0  0
   -2.8257    1.0849    3.2526 H   0  0  0  0  0  0  0  0  0  0  0  0
   -3.6520    3.3507    3.7808 H   0  0  0  0  0  0  0  0  0  0  0  0
   -5.8427    4.1181    2.9049 H   0  0  0  0  0  0  0  0  0  0  0  0
   -7.2140    2.6054    1.4980 H   0  0  0  0  0  0  0  0  0  0  0  0
   -6.4089    0.3377    0.9582 H   0  0  0  0  0  0  0  0  0  0  0  0
   -4.0758    1.0174   -1.2625 H   0  0  0  0  0  0  0  0  0  0  0  0
   -4.2254   -0.0432   -3.5224 H   0  0  0  0  0  0  0  0  0  0  0  0
   -3.2097   -1.4464   -2.9776 H   0  0  0  0  0  0  0  0  0  0  0  0
   -5.9204   -0.6077   -1.7532 H   0  0  0  0  0  0  0  0  0  0  0  0
   -4.8815   -2.0051   -1.2248 H   0  0  0  0  0  0  0  0  0  0  0  0
    0.1036   -2.1885   -2.2219 H   0  0  0  0  0  0  0  0  0  0  0  0
    1.1744   -1.5366   -4.3711 H   0  0  0  0  0  0  0  0  0  0  0  0
   -0.2056    2.3338   -4.0824 H   0  0  0  0  0  0  0  0  0  0  0  0
   -1.3390    1.8762   -1.9131 H   0  0  0  0  0  0  0  0  0  0  0  0
  1  2  2  0
  2  3  1  0
  4  3  1  6
  4  5  1  0
  5  6  2  0
  6  7  1  0
  7  8  1  0
  8  9  1  0
  9 10  1  0
 10 11  1  0
 10 12  1  0
  8 13  1  0
  2 14  1  0
 14 15  2  0
 15 16  1  0
 16 17  1  0
 17 18  1  0
 18 19  2  0
 19 20  1  0
 20 21  2  0
 21 22  1  0
 22 23  2  0
 16 24  1  0
 24 25  1  0
 25 26  1  0
 26 27  1  0
 24 28  2  0
 28 29  1  0
 29 30  2  0
 30 31  1  0
 31 32  2  0
 32 33  1  0
 33 34  2  0
 12  4  1  0
 28 14  1  0
 34 29  1  0
 13  4  1  0
 23 18  1  0
 27 25  1  0
 11  6  1  0
  3 35  1  0
  5 36  1  0
  7 37  1  0
  7 38  1  0
  8 39  1  1
  9 40  1  0
  9 41  1  0
 10 42  1  6
 11 43  1  0
 11 44  1  0
 12 45  1  0
 12 46  1  0
 13 47  1  0
 13 48  1  0
 17 49  1  0
 17 50  1  0
 19 51  1  0
 20 52  1  0
 21 53  1  0
 22 54  1  0
 23 55  1  0
 25 56  1  0
 26 57  1  0
 26 58  1  0
 27 59  1  0
 27 60  1  0
 30 61  1  0
 31 62  1  0
 33 63  1  0
 34 64  1  0
M  END
>  <_SMILES>  (84) 
O=C(N[C@]12C=C3C[C@H](C[C@H](C3)C1)C2)c1nn(Cc2ccccc2)c(C2CC2)c1-c1ccncc1

$$$$

     RDKit          3D

 69 73  0  0  0  0  0  0  0  0999 V2000
   -0.1628   -2.3943    2.3081 C   0  0  0  0  0  0  0  0  0  0  0  0
   -0.7105   -1.3369    1.4196 C   0  0  0  0  0  0  0  0  0  0  0  0
   -0.0280   -0.6828    0.3500 C   0  0  0  0  0  0  0  0  0  0  0  0
    1.3575   -0.9007   -0.1074 C   0  0  0  0  0  0  0  0  0  0  0  0
    2.1344   -1.6891    0.4242 O   0  0  0  0  0  0  0  0  0  0  0  0
    1.6959   -0.1144   -1.1917 N   0  0  0  0  0  0  0  0  0  0  0  0
    3.0643    0.0199   -1.6359 C   0  0  1  0  0  0  0  0  0  0  0  0
    3.1581    0.5160   -3.0907 C   0  0  0  0  0  0  0  0  0  0  0  0
    4.0169    1.7855   -2.9633 C   0  0  1  0  0  0  0  0  0  0  0  0
    3.4955    2.3765   -1.6538 C   0  0  0  0  0  0  0  0  0  0  0  0
    3.8227    1.1159   -0.8456 C   0  0  2  0  0  0  0  0  0  0  0  0
    5.3435    1.0043   -1.1050 C   0  0  1  0  0  0  0  0  0  0  0  0
    5.9062   -0.2876   -0.7789 N   0  0  0  0  0  0  0  0  0  0  0  0
    6.1120   -0.6473    0.5401 C   0  0  0  0  0  0  0  0  0  0  0  0
    5.9988    0.1329    1.4787 O   0  0  0  0  0  0  0  0  0  0  0  0
    6.5093   -2.0925    0.7009 C   0  0  0  0  0  0  0  0  0  0  0  0
    6.6602   -2.4562    2.1607 C   0  0  0  0  0  0  0  0  0  0  0  0
    7.0507   -3.7591    2.2410 F   0  0  0  0  0  0  0  0  0  0  0  0
    5.4598    1.3806   -2.5947 C   0  0  0  0  0  0  0  0  0  0  0  0
   -0.8201    0.2306   -0.2491 N   0  0  0  0  0  0  0  0  0  0  0  0
   -1.9821    0.1567    0.4289 N   0  0  0  0  0  0  0  0  0  0  0  0
   -3.0835    1.0138    0.0220 C   0  0  0  0  0  0  0  0  0  0  0  0
   -3.9550    0.3437   -1.0351 C   0  0  0  0  0  0  0  0  0  0  0  0
   -5.1607    1.1863   -1.3669 C   0  0  0  0  0  0  0  0  0  0  0  0
   -6.3251    1.0889   -0.5925 C   0  0  0  0  0  0  0  0  0  0  0  0
   -7.4339    1.8845   -0.8828 C   0  0  0  0  0  0  0  0  0  0  0  0
   -7.3877    2.7855   -1.9449 C   0  0  0  0  0  0  0  0  0  0  0  0
   -6.2323    2.8930   -2.7172 C   0  0  0  0  0  0  0  0  0  0  0  0
   -5.1216    2.0987   -2.4290 C   0  0  0  0  0  0  0  0  0  0  0  0
   -1.9756   -0.7706    1.4421 C   0  0  0  0  0  0  0  0  0  0  0  0
   -3.1170   -1.0497    2.3041 C   0  0  0  0  0  0  0  0  0  0  0  0
   -3.9705   -2.1201    2.0154 C   0  0  0  0  0  0  0  0  0  0  0  0
   -5.0724   -2.3800    2.8319 C   0  0  0  0  0  0  0  0  0  0  0  0
   -5.3223   -1.5753    3.9428 C   0  0  0  0  0  0  0  0  0  0  0  0
   -4.4694   -0.5133    4.2415 C   0  0  0  0  0  0  0  0  0  0  0  0
   -3.3673   -0.2518    3.4257 C   0  0  0  0  0  0  0  0  0  0  0  0
   -0.8947   -2.7210    3.0530 H   0  0  0  0  0  0  0  0  0  0  0  0
    0.7158   -2.0240    2.8460 H   0  0  0  0  0  0  0  0  0  0  0  0
    0.1307   -3.2711    1.7220 H   0  0  0  0  0  0  0  0  0  0  0  0
    0.9924    0.5824   -1.4286 H   0  0  0  0  0  0  0  0  0  0  0  0
    3.5401   -0.9609   -1.5341 H   0  0  0  0  0  0  0  0  0  0  0  0
    3.6254   -0.2292   -3.7431 H   0  0  0  0  0  0  0  0  0  0  0  0
    2.1720    0.7577   -3.5044 H   0  0  0  0  0  0  0  0  0  0  0  0
    3.9562    2.4409   -3.8343 H   0  0  0  0  0  0  0  0  0  0  0  0
    4.0557    3.2587   -1.3260 H   0  0  0  0  0  0  0  0  0  0  0  0
    2.4269    2.6134   -1.6803 H   0  0  0  0  0  0  0  0  0  0  0  0
    3.5623    1.1697    0.2145 H   0  0  0  0  0  0  0  0  0  0  0  0
    5.8687    1.7587   -0.5038 H   0  0  0  0  0  0  0  0  0  0  0  0
    5.8567   -1.0305   -1.4656 H   0  0  0  0  0  0  0  0  0  0  0  0
    5.7501   -2.7330    0.2384 H   0  0  0  0  0  0  0  0  0  0  0  0
    7.4543   -2.2667    0.1749 H   0  0  0  0  0  0  0  0  0  0  0  0
    7.4219   -1.8474    2.6575 H   0  0  0  0  0  0  0  0  0  0  0  0
    5.7173   -2.3516    2.7062 H   0  0  0  0  0  0  0  0  0  0  0  0
    5.8365    0.5677   -3.2243 H   0  0  0  0  0  0  0  0  0  0  0  0
    6.1342    2.2374   -2.7076 H   0  0  0  0  0  0  0  0  0  0  0  0
   -2.6505    1.9474   -0.3587 H   0  0  0  0  0  0  0  0  0  0  0  0
   -3.6583    1.2765    0.9164 H   0  0  0  0  0  0  0  0  0  0  0  0
   -3.3715    0.1554   -1.9458 H   0  0  0  0  0  0  0  0  0  0  0  0
   -4.2915   -0.6444   -0.6969 H   0  0  0  0  0  0  0  0  0  0  0  0
   -6.3754    0.3922    0.2422 H   0  0  0  0  0  0  0  0  0  0  0  0
   -8.3344    1.8016   -0.2797 H   0  0  0  0  0  0  0  0  0  0  0  0
   -8.2520    3.4045   -2.1708 H   0  0  0  0  0  0  0  0  0  0  0  0
   -6.1965    3.5966   -3.5450 H   0  0  0  0  0  0  0  0  0  0  0  0
   -4.2268    2.1962   -3.0399 H   0  0  0  0  0  0  0  0  0  0  0  0
   -3.7804   -2.7573    1.1547 H   0  0  0  0  0  0  0  0  0  0  0  0
   -5.7322   -3.2133    2.6043 H   0  0  0  0  0  0  0  0  0  0  0  0
   -6.1781   -1.7807    4.5811 H   0  0  0  0  0  0  0  0  0  0  0  0
   -4.6593    0.1084    5.1127 H   0  0  0  0  0  0  0  0  0  0  0  0
   -2.7037    0.5741    3.6717 H   0  0  0  0  0  0  0  0  0  0  0  0
  1  2  1  0
  2  3  1  0
  3  4  1  0
  4  5  2  0
  4  6  1  0
  6  7  1  0
  7  8  1  0
  8  9  1  0
  9 10  1  0
 10 11  1  0
 11 12  1  0
 12 13  1  0
 13 14  1  0
 14 15  2  0
 14 16  1  0
 16 17  1  0
 17 18  1  0
 12 19  1  0
  3 20  2  0
 20 21  1  0
 21 22  1  0
 22 23  1  0
 23 24  1  0
 24 25  2  0
 25 26  1  0
 26 27  2  0
 27 28  1  0
 28 29  2  0
 21 30  1  0
 30 31  1  0
 31 32  2  0
 32 33  1  0
 33 34  2  0
 34 35  1  0
 35 36  2  0
 30  2  2  0
 36 31  1  0
 11  7  1  0
 29 24  1  0
 19  9  1  0
  1 37  1  0
  1 38  1  0
  1 39  1  0
  6 40  1  0
  7 41  1  6
  8 42  1  0
  8 43  1  0
  9 44  1  6
 10 45  1  0
 10 46  1  0
 11 47  1  1
 12 48  1  1
 13 49  1  0
 16 50  1  0
 16 51  1  0
 17 52  1  0
 17 53  1  0
 19 54  1  0
 19 55  1  0
 22 56  1  0
 22 57  1  0
 23 58  1  0
 23 59  1  0
 25 60  1  0
 26 61  1  0
 27 62  1  0
 28 63  1  0
 29 64  1  0
 32 65  1  0
 33 66  1  0
 34 67  1  0
 35 68  1  0
 36 69  1  0
M  END
>  <_SMILES>  (85) 
Cc1c(C(=O)N[C@H]2C[C@H]3C[C@@H]2[C@@H](NC(=O)CCF)C3)nn(CCc2ccccc2)c1-c1ccccc1

$$$$

     RDKit          3D

 58 63  0  0  0  0  0  0  0  0999 V2000
   -1.3907   -3.0202   -0.9096 C   0  0  0  0  0  0  0  0  0  0  0  0
   -1.5014   -1.5553   -0.6857 C   0  0  0  0  0  0  0  0  0  0  0  0
   -0.4260   -0.6436   -0.4657 C   0  0  0  0  0  0  0  0  0  0  0  0
    1.0207   -0.9413   -0.4106 C   0  0  0  0  0  0  0  0  0  0  0  0
    1.4768   -2.0656   -0.5866 O   0  0  0  0  0  0  0  0  0  0  0  0
    1.7771    0.1810   -0.1572 N   0  0  0  0  0  0  0  0  0  0  0  0
    3.2198    0.2806   -0.1854 C   0  0  2  0  0  0  0  0  0  0  0  0
    3.7181    0.1336   -1.6346 C   0  0  0  0  0  0  0  0  0  0  0  0
    5.0521    0.3669   -1.7261 C   0  0  0  0  0  0  0  0  0  0  0  0
    5.5329    1.7349   -1.2670 C   0  0  0  0  0  0  0  0  0  0  0  0
    5.1742    1.8638    0.2245 C   0  0  2  0  0  0  0  0  0  0  0  0
    5.9039    0.7574    1.0173 C   0  0  0  0  0  0  0  0  0  0  0  0
    5.5053   -0.6353    0.4792 C   0  0  2  0  0  0  0  0  0  0  0  0
    5.8683   -0.7246   -1.0328 C   0  0  0  0  0  0  0  0  0  0  0  0
    3.9676   -0.8020    0.6542 C   0  0  0  0  0  0  0  0  0  0  0  0
    3.6480    1.6733    0.3641 C   0  0  0  0  0  0  0  0  0  0  0  0
   -0.8794    0.6165   -0.3058 N   0  0  0  0  0  0  0  0  0  0  0  0
   -2.2213    0.5048   -0.4107 N   0  0  0  0  0  0  0  0  0  0  0  0
   -3.0338    1.7092   -0.2605 C   0  0  0  0  0  0  0  0  0  0  0  0
   -3.3926    1.9722    1.1729 C   0  0  0  0  0  0  0  0  0  0  0  0
   -4.7411    1.5823    1.7256 C   0  0  0  0  0  0  0  0  0  0  0  0
   -4.4126    3.0325    1.5085 C   0  0  0  0  0  0  0  0  0  0  0  0
   -2.6506   -0.7792   -0.6475 C   0  0  0  0  0  0  0  0  0  0  0  0
   -4.0473   -1.1696   -0.7923 C   0  0  0  0  0  0  0  0  0  0  0  0
   -4.7223   -0.9547   -1.9989 C   0  0  0  0  0  0  0  0  0  0  0  0
   -6.0599   -1.3314   -2.1325 C   0  0  0  0  0  0  0  0  0  0  0  0
   -6.7264   -1.9299   -1.0638 C   0  0  0  0  0  0  0  0  0  0  0  0
   -6.0560   -2.1570    0.1374 C   0  0  0  0  0  0  0  0  0  0  0  0
   -4.7185   -1.7810    0.2723 C   0  0  0  0  0  0  0  0  0  0  0  0
   -0.9407   -3.5062   -0.0380 H   0  0  0  0  0  0  0  0  0  0  0  0
   -2.3672   -3.4825   -1.0827 H   0  0  0  0  0  0  0  0  0  0  0  0
   -0.7673   -3.2271   -1.7854 H   0  0  0  0  0  0  0  0  0  0  0  0
    1.2269    1.0366   -0.1703 H   0  0  0  0  0  0  0  0  0  0  0  0
    3.3522   -0.8024   -2.0670 H   0  0  0  0  0  0  0  0  0  0  0  0
    6.6130    1.8369   -1.4244 H   0  0  0  0  0  0  0  0  0  0  0  0
    5.0477    2.5225   -1.8565 H   0  0  0  0  0  0  0  0  0  0  0  0
    5.4675    2.8498    0.6008 H   0  0  0  0  0  0  0  0  0  0  0  0
    6.9891    0.8920    0.9317 H   0  0  0  0  0  0  0  0  0  0  0  0
    5.6538    0.8335    2.0824 H   0  0  0  0  0  0  0  0  0  0  0  0
    6.0325   -1.4168    1.0372 H   0  0  0  0  0  0  0  0  0  0  0  0
    6.9412   -0.5663   -1.1909 H   0  0  0  0  0  0  0  0  0  0  0  0
    5.6211   -1.7143   -1.4358 H   0  0  0  0  0  0  0  0  0  0  0  0
    3.6926   -0.7193    1.7134 H   0  0  0  0  0  0  0  0  0  0  0  0
    3.6956   -1.8159    0.3400 H   0  0  0  0  0  0  0  0  0  0  0  0
    3.3516    1.7721    1.4166 H   0  0  0  0  0  0  0  0  0  0  0  0
    3.1290    2.4744   -0.1802 H   0  0  0  0  0  0  0  0  0  0  0  0
   -2.4414    2.5437   -0.6545 H   0  0  0  0  0  0  0  0  0  0  0  0
   -3.9174    1.6117   -0.8989 H   0  0  0  0  0  0  0  0  0  0  0  0
   -2.5293    1.9030    1.8276 H   0  0  0  0  0  0  0  0  0  0  0  0
   -4.7817    1.2148    2.7450 H   0  0  0  0  0  0  0  0  0  0  0  0
   -5.4714    1.1282    1.0650 H   0  0  0  0  0  0  0  0  0  0  0  0
   -4.2348    3.6484    2.3833 H   0  0  0  0  0  0  0  0  0  0  0  0
   -4.9168    3.5495    0.6998 H   0  0  0  0  0  0  0  0  0  0  0  0
   -4.2082   -0.5006   -2.8429 H   0  0  0  0  0  0  0  0  0  0  0  0
   -6.5798   -1.1639   -3.0723 H   0  0  0  0  0  0  0  0  0  0  0  0
   -7.7670   -2.2261   -1.1697 H   0  0  0  0  0  0  0  0  0  0  0  0
   -6.5730   -2.6300    0.9683 H   0  0  0  0  0  0  0  0  0  0  0  0
   -4.2027   -1.9642    1.2123 H   0  0  0  0  0  0  0  0  0  0  0  0
  1  2  1  0
  2  3  1  0
  3  4  1  0
  4  5  2  0
  4  6  1  0
  7  6  1  6
  7  8  1  0
  8  9  2  0
  9 10  1  0
 10 11  1  0
 11 12  1  0
 12 13  1  0
 13 14  1  0
 13 15  1  0
 11 16  1  0
  3 17  2  0
 17 18  1  0
 18 19  1  0
 19 20  1  0
 20 21  1  0
 21 22  1  0
 18 23  1  0
 23 24  1  0
 24 25  2  0
 25 26  1  0
 26 27  2  0
 27 28  1  0
 28 29  2  0
 23  2  2  0
 29 24  1  0
 15  7  1  0
 22 20  1  0
 16  7  1  0
 14  9  1  0
  1 30  1  0
  1 31  1  0
  1 32  1  0
  6 33  1  0
  8 34  1  0
 10 35  1  0
 10 36  1  0
 11 37  1  1
 12 38  1  0
 12 39  1  0
 13 40  1  1
 14 41  1  0
 14 42  1  0
 15 43  1  0
 15 44  1  0
 16 45  1  0
 16 46  1  0
 19 47  1  0
 19 48  1  0
 20 49  1  0
 21 50  1  0
 21 51  1  0
 22 52  1  0
 22 53  1  0
 25 54  1  0
 26 55  1  0
 27 56  1  0
 28 57  1  0
 29 58  1  0
M  END
>  <_SMILES>  (86) 
Cc1c(C(=O)N[C@]23C=C4C[C@H](C[C@H](C4)C2)C3)nn(CC2CC2)c1-c1ccccc1

$$$$

     RDKit          3D

 55 59  0  0  0  0  0  0  0  0999 V2000
    0.1881   -2.6451   -0.8845 C   0  0  0  0  0  0  0  0  0  0  0  0
    1.1180   -1.8595   -0.0312 C   0  0  0  0  0  0  0  0  0  0  0  0
    0.9166   -0.5481    0.5173 C   0  0  0  0  0  0  0  0  0  0  0  0
   -0.2706    0.3294    0.4096 C   0  0  0  0  0  0  0  0  0  0  0  0
   -0.1832    1.5479    0.3030 O   0  0  0  0  0  0  0  0  0  0  0  0
   -1.4734   -0.3515    0.4772 N   0  0  0  0  0  0  0  0  0  0  0  0
   -2.7852    0.2710    0.5352 C   0  0  2  0  0  0  0  0  0  0  0  0
   -2.9733    0.9447    1.9053 C   0  0  0  0  0  0  0  0  0  0  0  0
   -4.2431    1.3975    2.0633 C   0  0  0  0  0  0  0  0  0  0  0  0
   -4.5504    2.5660    1.1253 C   0  0  0  0  0  0  0  0  0  0  0  0
   -4.4656    1.9889   -0.3193 C   0  0  2  0  0  0  0  0  0  0  0  0
   -5.5220    0.8738   -0.4853 C   0  0  0  0  0  0  0  0  0  0  0  0
   -5.2839   -0.2434    0.5534 C   0  0  2  0  0  0  0  0  0  0  0  0
   -5.3512    0.3603    1.9679 C   0  0  0  0  0  0  0  0  0  0  0  0
   -3.8707   -0.8339    0.3564 C   0  0  0  0  0  0  0  0  0  0  0  0
   -3.0580    1.3635   -0.5463 C   0  0  0  0  0  0  0  0  0  0  0  0
    1.9971   -0.1563    1.2147 N   0  0  0  0  0  0  0  0  0  0  0  0
    2.8849   -1.1557    1.0760 N   0  0  0  0  0  0  0  0  0  0  0  0
    4.1890   -1.0130    1.7009 C   0  0  0  0  0  0  0  0  0  0  0  0
    5.3777   -1.0138    0.7327 C   0  0  0  0  0  0  0  0  0  0  0  0
    5.3118   -0.0511   -0.4301 C   0  0  0  0  0  0  0  0  0  0  0  0
    5.7855   -0.4582   -1.6872 C   0  0  0  0  0  0  0  0  0  0  0  0
    5.7545    0.4123   -2.7784 C   0  0  0  0  0  0  0  0  0  0  0  0
    5.2571    1.7035   -2.6258 C   0  0  0  0  0  0  0  0  0  0  0  0
    4.7975    2.1257   -1.3810 C   0  0  0  0  0  0  0  0  0  0  0  0
    4.8323    1.2577   -0.2873 C   0  0  0  0  0  0  0  0  0  0  0  0
    2.3845   -2.2255    0.3917 C   0  0  0  0  0  0  0  0  0  0  0  0
    3.0763   -3.4439    0.1635 C   0  0  0  0  0  0  0  0  0  0  0  0
    3.6543   -4.4346   -0.0062 N   0  0  0  0  0  0  0  0  0  0  0  0
   -0.3647   -1.9920   -1.5671 H   0  0  0  0  0  0  0  0  0  0  0  0
   -0.5298   -3.1896   -0.2633 H   0  0  0  0  0  0  0  0  0  0  0  0
    0.7271   -3.3734   -1.4988 H   0  0  0  0  0  0  0  0  0  0  0  0
   -1.4125   -1.2697    0.8935 H   0  0  0  0  0  0  0  0  0  0  0  0
   -2.1703    1.6669    2.0854 H   0  0  0  0  0  0  0  0  0  0  0  0
   -3.8282    3.3798    1.2635 H   0  0  0  0  0  0  0  0  0  0  0  0
   -5.5466    2.9751    1.3288 H   0  0  0  0  0  0  0  0  0  0  0  0
   -4.6439    2.7846   -1.0508 H   0  0  0  0  0  0  0  0  0  0  0  0
   -5.4729    0.4587   -1.4992 H   0  0  0  0  0  0  0  0  0  0  0  0
   -6.5277    1.2928   -0.3580 H   0  0  0  0  0  0  0  0  0  0  0  0
   -6.0400   -1.0278    0.4401 H   0  0  0  0  0  0  0  0  0  0  0  0
   -5.2097   -0.4139    2.7319 H   0  0  0  0  0  0  0  0  0  0  0  0
   -6.3281    0.8207    2.1558 H   0  0  0  0  0  0  0  0  0  0  0  0
   -3.7878   -1.2870   -0.6403 H   0  0  0  0  0  0  0  0  0  0  0  0
   -3.7120   -1.6461    1.0792 H   0  0  0  0  0  0  0  0  0  0  0  0
   -2.3197    2.1713   -0.5051 H   0  0  0  0  0  0  0  0  0  0  0  0
   -2.9898    0.9292   -1.5518 H   0  0  0  0  0  0  0  0  0  0  0  0
    4.1774   -0.0856    2.2866 H   0  0  0  0  0  0  0  0  0  0  0  0
    4.2883   -1.8357    2.4190 H   0  0  0  0  0  0  0  0  0  0  0  0
    5.5085   -2.0310    0.3443 H   0  0  0  0  0  0  0  0  0  0  0  0
    6.2906   -0.7913    1.2999 H   0  0  0  0  0  0  0  0  0  0  0  0
    6.1823   -1.4615   -1.8297 H   0  0  0  0  0  0  0  0  0  0  0  0
    6.1189    0.0818   -3.7475 H   0  0  0  0  0  0  0  0  0  0  0  0
    5.2277    2.3813   -3.4745 H   0  0  0  0  0  0  0  0  0  0  0  0
    4.4052    3.1323   -1.2583 H   0  0  0  0  0  0  0  0  0  0  0  0
    4.4632    1.6214    0.6693 H   0  0  0  0  0  0  0  0  0  0  0  0
  1  2  1  0
  2  3  1  0
  3  4  1  0
  4  5  2  0
  4  6  1  0
  7  6  1  1
  7  8  1  0
  8  9  2  0
  9 10  1  0
 10 11  1  0
 11 12  1  0
 12 13  1  0
 13 14  1  0
 13 15  1  0
 11 16  1  0
  3 17  2  0
 17 18  1  0
 18 19  1  0
 19 20  1  0
 20 21  1  0
 21 22  2  0
 22 23  1  0
 23 24  2  0
 24 25  1  0
 25 26  2  0
 18 27  1  0
 27 28  1  0
 28 29  3  0
 27  2  2  0
 15  7  1  0
 26 21  1  0
 16  7  1  0
 14  9  1  0
  1 30  1  0
  1 31  1  0
  1 32  1  0
  6 33  1  0
  8 34  1  0
 10 35  1  0
 10 36  1  0
 11 37  1  6
 12 38  1  0
 12 39  1  0
 13 40  1  1
 14 41  1  0
 14 42  1  0
 15 43  1  0
 15 44  1  0
 16 45  1  0
 16 46  1  0
 19 47  1  0
 19 48  1  0
 20 49  1  0
 20 50  1  0
 22 51  1  0
 23 52  1  0
 24 53  1  0
 25 54  1  0
 26 55  1  0
M  END
>  <_SMILES>  (87) 
Cc1c(C(=O)N[C@]23C=C4C[C@H](C[C@H](C4)C2)C3)nn(CCc2ccccc2)c1C#N

$$$$

     RDKit          3D

 61 66  0  0  0  0  0  0  0  0999 V2000
    0.5731   -3.3933   -1.1162 C   0  0  0  0  0  0  0  0  0  0  0  0
    0.9598   -1.9869   -0.8336 C   0  0  0  0  0  0  0  0  0  0  0  0
    0.0927   -0.9276   -0.4291 C   0  0  0  0  0  0  0  0  0  0  0  0
   -1.3663   -0.9836   -0.2072 C   0  0  0  0  0  0  0  0  0  0  0  0
   -2.0345   -1.9948   -0.3945 O   0  0  0  0  0  0  0  0  0  0  0  0
   -1.8841    0.2205    0.2155 N   0  0  0  0  0  0  0  0  0  0  0  0
   -3.2905    0.5126    0.3451 C   0  0  2  0  0  0  0  0  0  0  0  0
   -3.3972    1.9326    0.9442 C   0  0  0  0  0  0  0  0  0  0  0  0
   -4.6851    2.3527    1.0130 C   0  0  0  0  0  0  0  0  0  0  0  0
   -5.4583    2.3834   -0.2968 C   0  0  0  0  0  0  0  0  0  0  0  0
   -5.4936    0.9424   -0.8373 C   0  0  2  0  0  0  0  0  0  0  0  0
   -6.2140    0.0373    0.1893 C   0  0  0  0  0  0  0  0  0  0  0  0
   -5.4957    0.0974    1.5589 C   0  0  2  0  0  0  0  0  0  0  0  0
   -5.4751    1.5704    2.0607 C   0  0  0  0  0  0  0  0  0  0  0  0
   -4.0373   -0.4096    1.3592 C   0  0  0  0  0  0  0  0  0  0  0  0
   -4.0350    0.4628   -1.0150 C   0  0  0  0  0  0  0  0  0  0  0  0
    0.7752    0.2236   -0.2609 N   0  0  0  0  0  0  0  0  0  0  0  0
    2.0511   -0.1005   -0.5483 N   0  0  0  0  0  0  0  0  0  0  0  0
    3.0673    0.9345   -0.4621 C   0  0  0  0  0  0  0  0  0  0  0  0
    3.6052    1.0912    0.9576 C   0  0  0  0  0  0  0  0  0  0  0  0
    4.6893    2.1277    1.0210 C   0  0  0  0  0  0  0  0  0  0  0  0
    4.3425    3.5866    1.1609 C   0  0  0  0  0  0  0  0  0  0  0  0
    4.9648    2.8485    2.3144 C   0  0  0  0  0  0  0  0  0  0  0  0
    2.2219   -1.4168   -0.9003 C   0  0  0  0  0  0  0  0  0  0  0  0
    3.5037   -2.0118   -1.2538 C   0  0  0  0  0  0  0  0  0  0  0  0
    3.9223   -2.0393   -2.5884 C   0  0  0  0  0  0  0  0  0  0  0  0
    5.1534   -2.6039   -2.9264 C   0  0  0  0  0  0  0  0  0  0  0  0
    5.9682   -3.1464   -1.9332 C   0  0  0  0  0  0  0  0  0  0  0  0
    5.5522   -3.1292   -0.6024 C   0  0  0  0  0  0  0  0  0  0  0  0
    4.3212   -2.5654   -0.2628 C   0  0  0  0  0  0  0  0  0  0  0  0
   -0.1369   -3.4338   -1.9484 H   0  0  0  0  0  0  0  0  0  0  0  0
    1.4374   -4.0080   -1.3855 H   0  0  0  0  0  0  0  0  0  0  0  0
    0.1053   -3.8455   -0.2358 H   0  0  0  0  0  0  0  0  0  0  0  0
   -1.2093    0.9818    0.1933 H   0  0  0  0  0  0  0  0  0  0  0  0
   -2.8037    2.0027    1.8605 H   0  0  0  0  0  0  0  0  0  0  0  0
   -6.4715    2.7701   -0.1368 H   0  0  0  0  0  0  0  0  0  0  0  0
   -4.9671    3.0579   -1.0089 H   0  0  0  0  0  0  0  0  0  0  0  0
   -6.0193    0.9113   -1.7978 H   0  0  0  0  0  0  0  0  0  0  0  0
   -7.2557    0.3617    0.3033 H   0  0  0  0  0  0  0  0  0  0  0  0
   -6.2378   -0.9965   -0.1763 H   0  0  0  0  0  0  0  0  0  0  0  0
   -6.0170   -0.5372    2.2838 H   0  0  0  0  0  0  0  0  0  0  0  0
   -4.9981    1.6413    3.0457 H   0  0  0  0  0  0  0  0  0  0  0  0
   -6.4912    1.9687    2.1599 H   0  0  0  0  0  0  0  0  0  0  0  0
   -4.0598   -1.4467    1.0049 H   0  0  0  0  0  0  0  0  0  0  0  0
   -3.5153   -0.4213    2.3256 H   0  0  0  0  0  0  0  0  0  0  0  0
   -4.0309   -0.5555   -1.4226 H   0  0  0  0  0  0  0  0  0  0  0  0
   -3.5235    1.0958   -1.7526 H   0  0  0  0  0  0  0  0  0  0  0  0
    3.8708    0.6931   -1.1659 H   0  0  0  0  0  0  0  0  0  0  0  0
    2.6127    1.8693   -0.8126 H   0  0  0  0  0  0  0  0  0  0  0  0
    2.7841    1.3478    1.6392 H   0  0  0  0  0  0  0  0  0  0  0  0
    4.0141    0.1380    1.3132 H   0  0  0  0  0  0  0  0  0  0  0  0
    5.5469    1.8636    0.4106 H   0  0  0  0  0  0  0  0  0  0  0  0
    3.2998    3.8717    1.2478 H   0  0  0  0  0  0  0  0  0  0  0  0
    4.9548    4.3084    0.6317 H   0  0  0  0  0  0  0  0  0  0  0  0
    5.9967    3.0717    2.5622 H   0  0  0  0  0  0  0  0  0  0  0  0
    4.3410    2.6359    3.1755 H   0  0  0  0  0  0  0  0  0  0  0  0
    3.2906   -1.6245   -3.3706 H   0  0  0  0  0  0  0  0  0  0  0  0
    5.4745   -2.6242   -3.9646 H   0  0  0  0  0  0  0  0  0  0  0  0
    6.9255   -3.5888   -2.1975 H   0  0  0  0  0  0  0  0  0  0  0  0
    6.1840   -3.5593    0.1705 H   0  0  0  0  0  0  0  0  0  0  0  0
    4.0017   -2.5647    0.7768 H   0  0  0  0  0  0  0  0  0  0  0  0
  1  2  1  0
  2  3  1  0
  3  4  1  0
  4  5  2  0
  4  6  1  0
  7  6  1  6
  7  8  1  0
  8  9  2  0
  9 10  1  0
 10 11  1  0
 11 12  1  0
 12 13  1  0
 13 14  1  0
 13 15  1  0
 11 16  1  0
  3 17  2  0
 17 18  1  0
 18 19  1  0
 19 20  1  0
 20 21  1  0
 21 22  1  0
 22 23  1  0
 18 24  1  0
 24 25  1  0
 25 26  2  0
 26 27  1  0
 27 28  2  0
 28 29  1  0
 29 30  2  0
 24  2  2  0
 30 25  1  0
 15  7  1  0
 23 21  1  0
 16  7  1  0
 14  9  1  0
  1 31  1  0
  1 32  1  0
  1 33  1  0
  6 34  1  0
  8 35  1  0
 10 36  1  0
 10 37  1  0
 11 38  1  6
 12 39  1  0
 12 40  1  0
 13 41  1  1
 14 42  1  0
 14 43  1  0
 15 44  1  0
 15 45  1  0
 16 46  1  0
 16 47  1  0
 19 48  1  0
 19 49  1  0
 20 50  1  0
 20 51  1  0
 21 52  1  0
 22 53  1  0
 22 54  1  0
 23 55  1  0
 23 56  1  0
 26 57  1  0
 27 58  1  0
 28 59  1  0
 29 60  1  0
 30 61  1  0
M  END
>  <_SMILES>  (88) 
Cc1c(C(=O)N[C@]23C=C4C[C@H](C[C@H](C4)C2)C3)nn(CCC2CC2)c1-c1ccccc1

$$$$

     RDKit          3D

 51 55  0  0  0  0  0  0  0  0999 V2000
    1.6688    0.6140    1.3185 C   0  0  0  0  0  0  0  0  0  0  0  0
    1.9825    0.3130   -0.1031 C   0  0  0  0  0  0  0  0  0  0  0  0
    1.0957    0.3788   -1.2280 C   0  0  0  0  0  0  0  0  0  0  0  0
   -0.3463    0.7042   -1.2422 C   0  0  0  0  0  0  0  0  0  0  0  0
   -0.8630    1.3938   -2.1151 O   0  0  0  0  0  0  0  0  0  0  0  0
   -1.0501    0.1285   -0.1987 N   0  0  0  0  0  0  0  0  0  0  0  0
   -2.4935    0.1549   -0.0445 C   0  0  2  0  0  0  0  0  0  0  0  0
   -3.1415   -0.7434   -1.1123 C   0  0  0  0  0  0  0  0  0  0  0  0
   -4.4764   -0.8749   -0.9047 C   0  0  0  0  0  0  0  0  0  0  0  0
   -4.9004   -1.4653    0.4310 C   0  0  0  0  0  0  0  0  0  0  0  0
   -4.3868   -0.5156    1.5283 C   0  0  2  0  0  0  0  0  0  0  0  0
   -5.0357    0.8727    1.3398 C   0  0  0  0  0  0  0  0  0  0  0  0
   -4.7023    1.4304   -0.0618 C   0  0  2  0  0  0  0  0  0  0  0  0
   -5.2209    0.4391   -1.1460 C   0  0  0  0  0  0  0  0  0  0  0  0
   -3.1554    1.5626   -0.1776 C   0  0  0  0  0  0  0  0  0  0  0  0
   -2.8558   -0.3916    1.3700 C   0  0  0  0  0  0  0  0  0  0  0  0
    1.7485    0.0857   -2.3647 N   0  0  0  0  0  0  0  0  0  0  0  0
    3.0001   -0.2025   -1.9787 N   0  0  0  0  0  0  0  0  0  0  0  0
    3.9532   -0.6222   -2.9812 C   0  0  0  0  0  0  0  0  0  0  0  0
    3.2110   -0.0632   -0.6296 C   0  0  0  0  0  0  0  0  0  0  0  0
    4.4918   -0.2935    0.0341 C   0  0  0  0  0  0  0  0  0  0  0  0
    5.5781    0.5566   -0.2111 C   0  0  0  0  0  0  0  0  0  0  0  0
    6.8038    0.3386    0.4251 C   0  0  0  0  0  0  0  0  0  0  0  0
    6.9537   -0.7267    1.3136 C   0  0  0  0  0  0  0  0  0  0  0  0
    5.8766   -1.5733    1.5705 C   0  0  0  0  0  0  0  0  0  0  0  0
    4.6571   -1.3519    0.9349 C   0  0  0  0  0  0  0  0  0  0  0  0
    3.6372   -2.1828    1.2010 F   0  0  0  0  0  0  0  0  0  0  0  0
    2.5592    0.9438    1.8632 H   0  0  0  0  0  0  0  0  0  0  0  0
    1.2742   -0.2769    1.8170 H   0  0  0  0  0  0  0  0  0  0  0  0
    0.9272    1.4152    1.3973 H   0  0  0  0  0  0  0  0  0  0  0  0
   -0.5769   -0.6492    0.2412 H   0  0  0  0  0  0  0  0  0  0  0  0
   -2.8291   -0.4266   -2.1127 H   0  0  0  0  0  0  0  0  0  0  0  0
   -4.4757   -2.4695    0.5512 H   0  0  0  0  0  0  0  0  0  0  0  0
   -5.9905   -1.5713    0.4775 H   0  0  0  0  0  0  0  0  0  0  0  0
   -4.6330   -0.9130    2.5189 H   0  0  0  0  0  0  0  0  0  0  0  0
   -4.6756    1.5620    2.1131 H   0  0  0  0  0  0  0  0  0  0  0  0
   -6.1232    0.7950    1.4598 H   0  0  0  0  0  0  0  0  0  0  0  0
   -5.1728    2.4105   -0.1958 H   0  0  0  0  0  0  0  0  0  0  0  0
   -5.0212    0.8234   -2.1536 H   0  0  0  0  0  0  0  0  0  0  0  0
   -6.3037    0.2927   -1.0608 H   0  0  0  0  0  0  0  0  0  0  0  0
   -2.9282    2.0300   -1.1416 H   0  0  0  0  0  0  0  0  0  0  0  0
   -2.7702    2.2391    0.5959 H   0  0  0  0  0  0  0  0  0  0  0  0
   -2.4496    0.2704    2.1461 H   0  0  0  0  0  0  0  0  0  0  0  0
   -2.3928   -1.3753    1.5297 H   0  0  0  0  0  0  0  0  0  0  0  0
    3.4153   -0.9845   -3.8616 H   0  0  0  0  0  0  0  0  0  0  0  0
    4.5699    0.2396   -3.2467 H   0  0  0  0  0  0  0  0  0  0  0  0
    4.5671   -1.4309   -2.5776 H   0  0  0  0  0  0  0  0  0  0  0  0
    5.4740    1.4016   -0.8888 H   0  0  0  0  0  0  0  0  0  0  0  0
    7.6412    1.0053    0.2307 H   0  0  0  0  0  0  0  0  0  0  0  0
    7.9075   -0.8934    1.8085 H   0  0  0  0  0  0  0  0  0  0  0  0
    5.9768   -2.4041    2.2619 H   0  0  0  0  0  0  0  0  0  0  0  0
  1  2  1  0
  2  3  1  0
  3  4  1  0
  4  5  2  0
  4  6  1  0
  7  6  1  6
  7  8  1  0
  8  9  2  0
  9 10  1  0
 10 11  1  0
 11 12  1  0
 12 13  1  0
 13 14  1  0
 13 15  1  0
 11 16  1  0
  3 17  2  0
 17 18  1  0
 18 19  1  0
 18 20  1  0
 20 21  1  0
 21 22  2  0
 22 23  1  0
 23 24  2  0
 24 25  1  0
 25 26  2  0
 26 27  1  0
 20  2  2  0
 26 21  1  0
 15  7  1  0
 16  7  1  0
 14  9  1  0
  1 28  1  0
  1 29  1  0
  1 30  1  0
  6 31  1  0
  8 32  1  0
 10 33  1  0
 10 34  1  0
 11 35  1  1
 12 36  1  0
 12 37  1  0
 13 38  1  6
 14 39  1  0
 14 40  1  0
 15 41  1  0
 15 42  1  0
 16 43  1  0
 16 44  1  0
 19 45  1  0
 19 46  1  0
 19 47  1  0
 22 48  1  0
 23 49  1  0
 24 50  1  0
 25 51  1  0
M  END
>  <_SMILES>  (89) 
Cc1c(C(=O)N[C@]23C=C4C[C@H](C[C@H](C4)C2)C3)nn(C)c1-c1ccccc1F

$$$$

     RDKit          3D

 46 50  0  0  0  0  0  0  0  0999 V2000
   -0.7163    2.1265    1.5990 O   0  0  0  0  0  0  0  0  0  0  0  0
   -0.0674    1.2205    1.0903 C   0  0  0  0  0  0  0  0  0  0  0  0
   -0.6198    0.2433    0.2886 N   0  0  0  0  0  0  0  0  0  0  0  0
   -2.0334    0.1310   -0.0399 C   0  0  2  0  0  0  0  0  0  0  0  0
   -2.4713    1.3276   -0.9046 C   0  0  0  0  0  0  0  0  0  0  0  0
   -3.7470    1.1827   -1.3453 C   0  0  0  0  0  0  0  0  0  0  0  0
   -4.0341   -0.0455   -2.1940 C   0  0  0  0  0  0  0  0  0  0  0  0
   -3.7338   -1.2762   -1.3203 C   0  0  2  0  0  0  0  0  0  0  0  0
   -4.6671   -1.2614   -0.0896 C   0  0  0  0  0  0  0  0  0  0  0  0
   -4.4649    0.0406    0.7182 C   0  0  2  0  0  0  0  0  0  0  0  0
   -4.7567    1.2648   -0.1996 C   0  0  0  0  0  0  0  0  0  0  0  0
   -2.9846    0.0901    1.1957 C   0  0  0  0  0  0  0  0  0  0  0  0
   -2.2650   -1.1795   -0.8523 C   0  0  0  0  0  0  0  0  0  0  0  0
    1.3566    1.0645    1.3078 C   0  0  0  0  0  0  0  0  0  0  0  0
    2.1140    1.5498    2.3591 C   0  0  0  0  0  0  0  0  0  0  0  0
    3.4593    1.1683    2.1451 C   0  0  0  0  0  0  0  0  0  0  0  0
    3.5228    0.4668    0.9541 C   0  0  0  0  0  0  0  0  0  0  0  0
    4.6650   -0.1206    0.2516 C   0  0  0  0  0  0  0  0  0  0  0  0
    5.9205    0.4999    0.3015 C   0  0  0  0  0  0  0  0  0  0  0  0
    7.0163   -0.0497   -0.3691 C   0  0  0  0  0  0  0  0  0  0  0  0
    6.8700   -1.2296   -1.0945 C   0  0  0  0  0  0  0  0  0  0  0  0
    5.6297   -1.8613   -1.1480 C   0  0  0  0  0  0  0  0  0  0  0  0
    4.5332   -1.3105   -0.4784 C   0  0  0  0  0  0  0  0  0  0  0  0
    2.2399    0.4441    0.4511 N   0  0  0  0  0  0  0  0  0  0  0  0
   -0.0756   -0.5976    0.1765 H   0  0  0  0  0  0  0  0  0  0  0  0
   -2.2352    2.2705   -0.4026 H   0  0  0  0  0  0  0  0  0  0  0  0
   -5.0764   -0.0454   -2.5337 H   0  0  0  0  0  0  0  0  0  0  0  0
   -3.4046   -0.0389   -3.0922 H   0  0  0  0  0  0  0  0  0  0  0  0
   -3.8869   -2.1956   -1.8957 H   0  0  0  0  0  0  0  0  0  0  0  0
   -5.7121   -1.3385   -0.4140 H   0  0  0  0  0  0  0  0  0  0  0  0
   -4.4628   -2.1321    0.5451 H   0  0  0  0  0  0  0  0  0  0  0  0
   -5.1375    0.0525    1.5827 H   0  0  0  0  0  0  0  0  0  0  0  0
   -4.6441    2.2042    0.3552 H   0  0  0  0  0  0  0  0  0  0  0  0
   -5.7826    1.2335   -0.5841 H   0  0  0  0  0  0  0  0  0  0  0  0
   -2.8563    0.9726    1.8327 H   0  0  0  0  0  0  0  0  0  0  0  0
   -2.7566   -0.7814    1.8224 H   0  0  0  0  0  0  0  0  0  0  0  0
   -1.5981   -1.2092   -1.7251 H   0  0  0  0  0  0  0  0  0  0  0  0
   -2.0109   -2.0539   -0.2388 H   0  0  0  0  0  0  0  0  0  0  0  0
    1.7240    2.1174    3.1956 H   0  0  0  0  0  0  0  0  0  0  0  0
    4.2970    1.3863    2.7955 H   0  0  0  0  0  0  0  0  0  0  0  0
    6.0546    1.4266    0.8547 H   0  0  0  0  0  0  0  0  0  0  0  0
    7.9826    0.4460   -0.3243 H   0  0  0  0  0  0  0  0  0  0  0  0
    7.7231   -1.6579   -1.6142 H   0  0  0  0  0  0  0  0  0  0  0  0
    5.5167   -2.7873   -1.7059 H   0  0  0  0  0  0  0  0  0  0  0  0
    3.5836   -1.8366   -0.5181 H   0  0  0  0  0  0  0  0  0  0  0  0
    1.9923    0.0792   -0.4577 H   0  0  0  0  0  0  0  0  0  0  0  0
  1  2  2  0
  2  3  1  0
  4  3  1  1
  4  5  1  0
  5  6  2  0
  6  7  1  0
  7  8  1  0
  8  9  1  0
  9 10  1  0
 10 11  1  0
 10 12  1  0
  8 13  1  0
  2 14  1  0
 14 15  2  0
 15 16  1  0
 16 17  2  0
 17 18  1  0
 18 19  2  0
 19 20  1  0
 20 21  2  0
 21 22  1  0
 22 23  2  0
 17 24  1  0
 12  4  1  0
 24 14  1  0
 13  4  1  0
 23 18  1  0
 11  6  1  0
  3 25  1  0
  5 26  1  0
  7 27  1  0
  7 28  1  0
  8 29  1  6
  9 30  1  0
  9 31  1  0
 10 32  1  1
 11 33  1  0
 11 34  1  0
 12 35  1  0
 12 36  1  0
 13 37  1  0
 13 38  1  0
 15 39  1  0
 16 40  1  0
 19 41  1  0
 20 42  1  0
 21 43  1  0
 22 44  1  0
 23 45  1  0
 24 46  1  0
M  END
>  <_SMILES>  (90) 
O=C(N[C@]12C=C3C[C@H](C[C@H](C3)C1)C2)c1ccc(-c2ccccc2)[nH]1

$$$$

     RDKit          3D

 49 53  0  0  0  0  0  0  0  0999 V2000
   -0.9972   -2.9013   -0.3757 O   0  0  0  0  0  0  0  0  0  0  0  0
   -0.3881   -1.9500    0.0991 C   0  0  0  0  0  0  0  0  0  0  0  0
   -0.9250   -0.7075    0.3468 N   0  0  0  0  0  0  0  0  0  0  0  0
   -2.2433   -0.2424   -0.0242 C   0  0  2  0  0  0  0  0  0  0  0  0
   -2.3234   -0.0911   -1.5541 C   0  0  0  0  0  0  0  0  0  0  0  0
   -3.4931    0.4828   -1.9348 C   0  0  0  0  0  0  0  0  0  0  0  0
   -4.6870   -0.4374   -1.6775 C   0  0  0  0  0  0  0  0  0  0  0  0
   -4.7635   -0.6173   -0.1322 C   0  0  2  0  0  0  0  0  0  0  0  0
   -4.9939    0.7598    0.5300 C   0  0  0  0  0  0  0  0  0  0  0  0
   -3.8492    1.7278    0.1590 C   0  0  2  0  0  0  0  0  0  0  0  0
   -3.7830    1.8661   -1.3728 C   0  0  0  0  0  0  0  0  0  0  0  0
   -2.5045    1.1411    0.6413 C   0  0  0  0  0  0  0  0  0  0  0  0
   -3.4133   -1.1883    0.3910 C   0  0  0  0  0  0  0  0  0  0  0  0
    1.0391   -2.0265    0.4547 C   0  0  0  0  0  0  0  0  0  0  0  0
    1.8858   -3.1576    0.3492 C   0  0  0  0  0  0  0  0  0  0  0  0
    3.1025   -2.7213    0.7928 C   0  0  0  0  0  0  0  0  0  0  0  0
    4.5671   -3.5673    0.9619 Cl  0  0  0  0  0  0  0  0  0  0  0  0
    2.9784   -1.3990    1.1098 N   0  0  0  0  0  0  0  0  0  0  0  0
    3.9868   -0.4857    1.6371 C   0  0  0  0  0  0  0  0  0  0  0  0
    4.6197    0.3445    0.5472 C   0  0  0  0  0  0  0  0  0  0  0  0
    5.6934   -0.1660   -0.2014 C   0  0  0  0  0  0  0  0  0  0  0  0
    6.2677    0.5840   -1.2299 C   0  0  0  0  0  0  0  0  0  0  0  0
    5.7785    1.8541   -1.5245 C   0  0  0  0  0  0  0  0  0  0  0  0
    4.7166    2.3784   -0.7896 C   0  0  0  0  0  0  0  0  0  0  0  0
    4.1470    1.6249    0.2373 C   0  0  0  0  0  0  0  0  0  0  0  0
    3.1169    2.1440    0.9688 O   0  0  0  0  0  0  0  0  0  0  0  0
    1.7030   -0.9569    0.9454 N   0  0  0  0  0  0  0  0  0  0  0  0
   -0.2234   -0.0213    0.6178 H   0  0  0  0  0  0  0  0  0  0  0  0
   -2.0570   -1.0336   -2.0418 H   0  0  0  0  0  0  0  0  0  0  0  0
   -4.5510   -1.4045   -2.1768 H   0  0  0  0  0  0  0  0  0  0  0  0
   -5.6098    0.0056   -2.0693 H   0  0  0  0  0  0  0  0  0  0  0  0
   -5.5825   -1.2978    0.1249 H   0  0  0  0  0  0  0  0  0  0  0  0
   -5.9541    1.1747    0.1999 H   0  0  0  0  0  0  0  0  0  0  0  0
   -5.0501    0.6472    1.6195 H   0  0  0  0  0  0  0  0  0  0  0  0
   -4.0213    2.7061    0.6205 H   0  0  0  0  0  0  0  0  0  0  0  0
   -4.7247    2.2565   -1.7759 H   0  0  0  0  0  0  0  0  0  0  0  0
   -2.9929    2.5667   -1.6696 H   0  0  0  0  0  0  0  0  0  0  0  0
   -2.5091    1.0401    1.7345 H   0  0  0  0  0  0  0  0  0  0  0  0
   -1.6929    1.8409    0.3984 H   0  0  0  0  0  0  0  0  0  0  0  0
   -3.4433   -1.3004    1.4822 H   0  0  0  0  0  0  0  0  0  0  0  0
   -3.2846   -2.1949   -0.0224 H   0  0  0  0  0  0  0  0  0  0  0  0
    1.6208   -4.1458    0.0013 H   0  0  0  0  0  0  0  0  0  0  0  0
    4.7469   -1.0669    2.1698 H   0  0  0  0  0  0  0  0  0  0  0  0
    3.5000    0.1368    2.3970 H   0  0  0  0  0  0  0  0  0  0  0  0
    6.0946   -1.1549    0.0081 H   0  0  0  0  0  0  0  0  0  0  0  0
    7.0964    0.1743   -1.8025 H   0  0  0  0  0  0  0  0  0  0  0  0
    6.2261    2.4360   -2.3261 H   0  0  0  0  0  0  0  0  0  0  0  0
    4.3508    3.3726   -1.0271 H   0  0  0  0  0  0  0  0  0  0  0  0
    2.8234    2.9708    0.5520 H   0  0  0  0  0  0  0  0  0  0  0  0
  1  2  2  0
  2  3  1  0
  4  3  1  6
  4  5  1  0
  5  6  2  0
  6  7  1  0
  7  8  1  0
  8  9  1  0
  9 10  1  0
 10 11  1  0
 10 12  1  0
  8 13  1  0
  2 14  1  0
 14 15  1  0
 15 16  2  0
 16 17  1  0
 16 18  1  0
 18 19  1  0
 19 20  1  0
 20 21  2  0
 21 22  1  0
 22 23  2  0
 23 24  1  0
 24 25  2  0
 25 26  1  0
 18 27  1  0
 12  4  1  0
 27 14  2  0
 13  4  1  0
 25 20  1  0
 11  6  1  0
  3 28  1  0
  5 29  1  0
  7 30  1  0
  7 31  1  0
  8 32  1  6
  9 33  1  0
  9 34  1  0
 10 35  1  1
 11 36  1  0
 11 37  1  0
 12 38  1  0
 12 39  1  0
 13 40  1  0
 13 41  1  0
 15 42  1  0
 19 43  1  0
 19 44  1  0
 21 45  1  0
 22 46  1  0
 23 47  1  0
 24 48  1  0
 26 49  1  0
M  END
>  <_SMILES>  (91) 
O=C(N[C@]12C=C3C[C@H](C[C@H](C3)C1)C2)c1cc(Cl)n(Cc2ccccc2O)n1

$$$$

     RDKit          3D

 57 62  0  0  0  0  0  0  0  0999 V2000
   -1.3675   -2.3705    0.3797 N   0  0  0  0  0  0  0  0  0  0  0  0
   -0.8940   -1.1530    0.2202 C   0  0  0  0  0  0  0  0  0  0  0  0
   -1.5987   -0.0351    0.2116 N   0  0  0  0  0  0  0  0  0  0  0  0
   -3.0365    0.1480    0.3382 C   0  0  2  0  0  0  0  0  0  0  0  0
   -3.5583   -0.5655    1.5877 C   0  0  0  0  0  0  0  0  0  0  0  0
   -4.9090   -0.4684    1.6670 C   0  0  0  0  0  0  0  0  0  0  0  0
   -5.3501    0.9626    1.9897 C   0  0  0  0  0  0  0  0  0  0  0  0
   -4.8958    1.8239    0.7717 C   0  0  2  0  0  0  0  0  0  0  0  0
   -5.6189    1.3197   -0.5008 C   0  0  0  0  0  0  0  0  0  0  0  0
   -5.2887   -0.1707   -0.7525 C   0  0  2  0  0  0  0  0  0  0  0  0
   -5.7124   -0.9918    0.4819 C   0  0  0  0  0  0  0  0  0  0  0  0
   -3.7619   -0.3356   -0.9364 C   0  0  0  0  0  0  0  0  0  0  0  0
   -3.3634    1.6535    0.5496 C   0  0  0  0  0  0  0  0  0  0  0  0
    0.5530   -0.9539    0.0310 C   0  0  0  0  0  0  0  0  0  0  0  0
    1.5649   -1.9138   -0.0015 C   0  0  0  0  0  0  0  0  0  0  0  0
    2.7399   -1.1956   -0.1554 C   0  0  0  0  0  0  0  0  0  0  0  0
    4.0971   -1.7419   -0.0957 C   0  0  0  0  0  0  0  0  0  0  0  0
    4.5745   -2.4704   -1.1973 C   0  0  0  0  0  0  0  0  0  0  0  0
    5.8607   -3.0135   -1.1858 C   0  0  0  0  0  0  0  0  0  0  0  0
    6.6793   -2.8461   -0.0713 C   0  0  0  0  0  0  0  0  0  0  0  0
    6.2128   -2.1423    1.0387 C   0  0  0  0  0  0  0  0  0  0  0  0
    4.9257   -1.5968    1.0324 C   0  0  0  0  0  0  0  0  0  0  0  0
    4.3533   -0.6819    2.5983 Br  0  0  0  0  0  0  0  0  0  0  0  0
    2.3733    0.1509   -0.2728 N   0  0  0  0  0  0  0  0  0  0  0  0
    3.1548    1.3209   -0.5347 C   0  0  0  0  0  0  0  0  0  0  0  0
    2.5680    2.5869   -0.3454 C   0  0  0  0  0  0  0  0  0  0  0  0
    3.2948    3.7574   -0.5824 C   0  0  0  0  0  0  0  0  0  0  0  0
    4.6136    3.6805   -1.0201 C   0  0  0  0  0  0  0  0  0  0  0  0
    5.1954    2.4335   -1.2253 C   0  0  0  0  0  0  0  0  0  0  0  0
    6.8201    2.3343   -1.7856 Cl  0  0  0  0  0  0  0  0  0  0  0  0
    4.4762    1.2574   -0.9913 C   0  0  0  0  0  0  0  0  0  0  0  0
    1.0157    0.2912   -0.1113 N   0  0  0  0  0  0  0  0  0  0  0  0
   -2.3504   -2.5292    0.5547 H   0  0  0  0  0  0  0  0  0  0  0  0
   -0.7602   -3.1787    0.3803 H   0  0  0  0  0  0  0  0  0  0  0  0
   -1.0015    0.7859    0.0744 H   0  0  0  0  0  0  0  0  0  0  0  0
   -2.9870   -0.2644    2.4715 H   0  0  0  0  0  0  0  0  0  0  0  0
   -4.8817    1.3179    2.9155 H   0  0  0  0  0  0  0  0  0  0  0  0
   -6.4357    1.0146    2.1294 H   0  0  0  0  0  0  0  0  0  0  0  0
   -5.1358    2.8780    0.9477 H   0  0  0  0  0  0  0  0  0  0  0  0
   -5.3152    1.9204   -1.3667 H   0  0  0  0  0  0  0  0  0  0  0  0
   -6.7025    1.4461   -0.3861 H   0  0  0  0  0  0  0  0  0  0  0  0
   -5.8164   -0.5262   -1.6441 H   0  0  0  0  0  0  0  0  0  0  0  0
   -5.5073   -2.0587    0.3315 H   0  0  0  0  0  0  0  0  0  0  0  0
   -6.7876   -0.8946    0.6716 H   0  0  0  0  0  0  0  0  0  0  0  0
   -3.4212    0.2361   -1.8089 H   0  0  0  0  0  0  0  0  0  0  0  0
   -3.5284   -1.3872   -1.1439 H   0  0  0  0  0  0  0  0  0  0  0  0
   -2.8172    2.0494    1.4163 H   0  0  0  0  0  0  0  0  0  0  0  0
   -3.0377    2.2411   -0.3182 H   0  0  0  0  0  0  0  0  0  0  0  0
    1.5042   -2.9864    0.1218 H   0  0  0  0  0  0  0  0  0  0  0  0
    3.9562   -2.6099   -2.0820 H   0  0  0  0  0  0  0  0  0  0  0  0
    6.2281   -3.5659   -2.0485 H   0  0  0  0  0  0  0  0  0  0  0  0
    7.6827   -3.2674   -0.0647 H   0  0  0  0  0  0  0  0  0  0  0  0
    6.8621   -2.0275    1.9042 H   0  0  0  0  0  0  0  0  0  0  0  0
    1.5441    2.6892    0.0074 H   0  0  0  0  0  0  0  0  0  0  0  0
    2.8336    4.7294   -0.4217 H   0  0  0  0  0  0  0  0  0  0  0  0
    5.1789    4.5911   -1.2032 H   0  0  0  0  0  0  0  0  0  0  0  0
    4.9781    0.3236   -1.2080 H   0  0  0  0  0  0  0  0  0  0  0  0
  1  2  1  0
  2  3  2  0
  4  3  1  6
  4  5  1  0
  5  6  2  0
  6  7  1  0
  7  8  1  0
  8  9  1  0
  9 10  1  0
 10 11  1  0
 10 12  1  0
  8 13  1  0
  2 14  1  0
 14 15  1  0
 15 16  2  0
 16 17  1  0
 17 18  2  0
 18 19  1  0
 19 20  2  0
 20 21  1  0
 21 22  2  0
 22 23  1  0
 16 24  1  0
 24 25  1  0
 25 26  2  0
 26 27  1  0
 27 28  2  0
 28 29  1  0
 29 30  1  0
 29 31  2  0
 24 32  1  0
 12  4  1  0
 32 14  2  0
 13  4  1  0
 22 17  1  0
 31 25  1  0
 11  6  1  0
  1 33  1  0
  1 34  1  0
  3 35  1  0
  5 36  1  0
  7 37  1  0
  7 38  1  0
  8 39  1  1
  9 40  1  0
  9 41  1  0
 10 42  1  6
 11 43  1  0
 11 44  1  0
 12 45  1  0
 12 46  1  0
 13 47  1  0
 13 48  1  0
 15 49  1  0
 18 50  1  0
 19 51  1  0
 20 52  1  0
 21 53  1  0
 26 54  1  0
 27 55  1  0
 28 56  1  0
 31 57  1  0
M  CHG  1   3   1
M  END
>  <_SMILES>  (92) 
N/C(=[NH+]\[C@]12C=C3C[C@H](C[C@H](C3)C1)C2)c1cc(-c2ccccc2Br)n(-c2cccc(Cl)c2)n1

$$$$

     RDKit          3D

 57 62  0  0  0  0  0  0  0  0999 V2000
   -0.6445    2.8206    2.5040 N   0  0  0  0  0  0  0  0  0  0  0  0
   -0.9648    1.8829    1.6315 C   0  0  0  0  0  0  0  0  0  0  0  0
   -2.2132    1.7647    1.2174 N   0  0  0  0  0  0  0  0  0  0  0  0
   -2.8534    0.9071    0.2096 C   0  0  2  0  0  0  0  0  0  0  0  0
   -1.9875    0.7061   -1.0265 C   0  0  0  0  0  0  0  0  0  0  0  0
   -2.5774   -0.1478   -1.8993 C   0  0  0  0  0  0  0  0  0  0  0  0
   -2.9715   -1.5220   -1.3704 C   0  0  0  0  0  0  0  0  0  0  0  0
   -3.9931   -1.2996   -0.2371 C   0  0  2  0  0  0  0  0  0  0  0  0
   -5.2268   -0.5638   -0.8122 C   0  0  0  0  0  0  0  0  0  0  0  0
   -4.8003    0.7822   -1.4459 C   0  0  2  0  0  0  0  0  0  0  0  0
   -3.7774    0.5027   -2.5881 C   0  0  0  0  0  0  0  0  0  0  0  0
   -4.1263    1.6424   -0.3334 C   0  0  0  0  0  0  0  0  0  0  0  0
   -3.3326   -0.4156    0.8464 C   0  0  0  0  0  0  0  0  0  0  0  0
    0.2034    1.0921    1.2029 C   0  0  0  0  0  0  0  0  0  0  0  0
    0.2996   -0.2438    0.8190 C   0  0  0  0  0  0  0  0  0  0  0  0
    1.6444   -0.4699    0.5735 C   0  0  0  0  0  0  0  0  0  0  0  0
    2.2482   -1.7490    0.1987 C   0  0  0  0  0  0  0  0  0  0  0  0
    2.9301   -2.4835    1.1822 C   0  0  0  0  0  0  0  0  0  0  0  0
    3.5070   -3.7171    0.8747 C   0  0  0  0  0  0  0  0  0  0  0  0
    3.4020   -4.2353   -0.4139 C   0  0  0  0  0  0  0  0  0  0  0  0
    2.7182   -3.5237   -1.3993 C   0  0  0  0  0  0  0  0  0  0  0  0
    2.1394   -2.2875   -1.0967 C   0  0  0  0  0  0  0  0  0  0  0  0
    1.2501   -1.3676   -2.5031 Br  0  0  0  0  0  0  0  0  0  0  0  0
    2.2955    0.7426    0.8106 N   0  0  0  0  0  0  0  0  0  0  0  0
    3.6608    1.1346    0.6296 C   0  0  0  0  0  0  0  0  0  0  0  0
    4.0893    2.3698    1.1541 C   0  0  0  0  0  0  0  0  0  0  0  0
    5.4129    2.7948    1.0039 C   0  0  0  0  0  0  0  0  0  0  0  0
    6.3258    1.9975    0.3207 C   0  0  0  0  0  0  0  0  0  0  0  0
    5.9074    0.7838   -0.2153 C   0  0  0  0  0  0  0  0  0  0  0  0
    7.0294   -0.1969   -1.0771 Cl  0  0  0  0  0  0  0  0  0  0  0  0
    4.5854    0.3510   -0.0701 C   0  0  0  0  0  0  0  0  0  0  0  0
    1.4100    1.6626    1.3172 N   0  0  0  0  0  0  0  0  0  0  0  0
   -1.2875    3.4869    2.8976 H   0  0  0  0  0  0  0  0  0  0  0  0
    0.3511    2.9015    2.7175 H   0  0  0  0  0  0  0  0  0  0  0  0
   -2.8655    2.4003    1.6572 H   0  0  0  0  0  0  0  0  0  0  0  0
   -1.6285    1.6576   -1.4285 H   0  0  0  0  0  0  0  0  0  0  0  0
   -2.0859   -2.0525   -1.0009 H   0  0  0  0  0  0  0  0  0  0  0  0
   -3.3996   -2.1339   -2.1729 H   0  0  0  0  0  0  0  0  0  0  0  0
   -4.2979   -2.2592    0.1941 H   0  0  0  0  0  0  0  0  0  0  0  0
   -5.9606   -0.3871   -0.0165 H   0  0  0  0  0  0  0  0  0  0  0  0
   -5.7163   -1.1914   -1.5670 H   0  0  0  0  0  0  0  0  0  0  0  0
   -5.6764    1.3034   -1.8464 H   0  0  0  0  0  0  0  0  0  0  0  0
   -4.2015   -0.1622   -3.3489 H   0  0  0  0  0  0  0  0  0  0  0  0
   -3.4866    1.4340   -3.0890 H   0  0  0  0  0  0  0  0  0  0  0  0
   -3.8576    2.6274   -0.7386 H   0  0  0  0  0  0  0  0  0  0  0  0
   -4.8380    1.8271    0.4817 H   0  0  0  0  0  0  0  0  0  0  0  0
   -2.5067   -0.9573    1.3157 H   0  0  0  0  0  0  0  0  0  0  0  0
   -4.0498   -0.2106    1.6519 H   0  0  0  0  0  0  0  0  0  0  0  0
   -0.4661   -0.9975    0.7270 H   0  0  0  0  0  0  0  0  0  0  0  0
    3.0223   -2.1020    2.1973 H   0  0  0  0  0  0  0  0  0  0  0  0
    4.0405   -4.2760    1.6411 H   0  0  0  0  0  0  0  0  0  0  0  0
    3.8551   -5.1955   -0.6528 H   0  0  0  0  0  0  0  0  0  0  0  0
    2.6479   -3.9410   -2.4016 H   0  0  0  0  0  0  0  0  0  0  0  0
    3.4082    3.0219    1.6965 H   0  0  0  0  0  0  0  0  0  0  0  0
    5.7315    3.7483    1.4196 H   0  0  0  0  0  0  0  0  0  0  0  0
    7.3548    2.3284    0.2031 H   0  0  0  0  0  0  0  0  0  0  0  0
    4.3230   -0.5849   -0.5446 H   0  0  0  0  0  0  0  0  0  0  0  0
  1  2  1  0
  2  3  2  0
  4  3  1  1
  4  5  1  0
  5  6  2  0
  6  7  1  0
  7  8  1  0
  8  9  1  0
  9 10  1  0
 10 11  1  0
 10 12  1  0
  8 13  1  0
  2 14  1  0
 14 15  1  0
 15 16  2  0
 16 17  1  0
 17 18  2  0
 18 19  1  0
 19 20  2  0
 20 21  1  0
 21 22  2  0
 22 23  1  0
 16 24  1  0
 24 25  1  0
 25 26  2  0
 26 27  1  0
 27 28  2  0
 28 29  1  0
 29 30  1  0
 29 31  2  0
 24 32  1  0
 12  4  1  0
 32 14  2  0
 13  4  1  0
 22 17  1  0
 31 25  1  0
 11  6  1  0
  1 33  1  0
  1 34  1  0
  3 35  1  0
  5 36  1  0
  7 37  1  0
  7 38  1  0
  8 39  1  1
  9 40  1  0
  9 41  1  0
 10 42  1  6
 11 43  1  0
 11 44  1  0
 12 45  1  0
 12 46  1  0
 13 47  1  0
 13 48  1  0
 15 49  1  0
 18 50  1  0
 19 51  1  0
 20 52  1  0
 21 53  1  0
 26 54  1  0
 27 55  1  0
 28 56  1  0
 31 57  1  0
M  CHG  1   3   1
M  END
>  <_SMILES>  (93) 
N/C(=[NH+]/[C@]12C=C3C[C@H](C[C@H](C3)C1)C2)c1cc(-c2ccccc2Br)n(-c2cccc(Cl)c2)n1

$$$$

     RDKit          3D

 42 45  0  0  0  0  0  0  0  0999 V2000
    0.0789    2.1784   -1.0328 O   0  0  0  0  0  0  0  0  0  0  0  0
    0.5781    1.1128   -0.6957 C   0  0  0  0  0  0  0  0  0  0  0  0
    2.0315    0.8898   -0.8971 C   0  0  0  0  0  0  0  0  0  0  0  0
    2.7869    0.1275   -0.0907 C   0  0  0  0  0  0  0  0  0  0  0  0
    4.2319   -0.0671   -0.2746 C   0  0  0  0  0  0  0  0  0  0  0  0
    5.0822    0.9700   -0.6806 C   0  0  0  0  0  0  0  0  0  0  0  0
    6.4556    0.7509   -0.8167 C   0  0  0  0  0  0  0  0  0  0  0  0
    6.9941   -0.5035   -0.5383 C   0  0  0  0  0  0  0  0  0  0  0  0
    6.1614   -1.5380   -0.1180 C   0  0  0  0  0  0  0  0  0  0  0  0
    4.7881   -1.3193    0.0189 C   0  0  0  0  0  0  0  0  0  0  0  0
   -0.1093    0.0391   -0.1930 N   0  0  0  0  0  0  0  0  0  0  0  0
   -1.5532    0.0043   -0.0687 C   0  0  2  0  0  0  0  0  0  0  0  0
   -1.8971   -1.3104    0.6688 C   0  0  0  0  0  0  0  0  0  0  0  0
   -3.2371   -1.5062    0.7451 C   0  0  0  0  0  0  0  0  0  0  0  0
   -3.8966   -0.5029    1.6900 C   0  0  0  0  0  0  0  0  0  0  0  0
   -3.6692    0.8948    1.0444 C   0  0  2  0  0  0  0  0  0  0  0  0
   -4.3568    0.9313   -0.3417 C   0  0  0  0  0  0  0  0  0  0  0  0
   -3.7880   -0.1796   -1.2554 C   0  0  2  0  0  0  0  0  0  0  0  0
   -3.9945   -1.5443   -0.5738 C   0  0  0  0  0  0  0  0  0  0  0  0
   -2.2690    0.0345   -1.4447 C   0  0  0  0  0  0  0  0  0  0  0  0
   -2.1452    1.1341    0.8317 C   0  0  0  0  0  0  0  0  0  0  0  0
    2.4492    1.4497   -1.7271 H   0  0  0  0  0  0  0  0  0  0  0  0
    2.3525   -0.3902    0.7605 H   0  0  0  0  0  0  0  0  0  0  0  0
    4.6908    1.9640   -0.8840 H   0  0  0  0  0  0  0  0  0  0  0  0
    7.1049    1.5628   -1.1344 H   0  0  0  0  0  0  0  0  0  0  0  0
    8.0626   -0.6726   -0.6434 H   0  0  0  0  0  0  0  0  0  0  0  0
    6.5803   -2.5158    0.1055 H   0  0  0  0  0  0  0  0  0  0  0  0
    4.1571   -2.1410    0.3497 H   0  0  0  0  0  0  0  0  0  0  0  0
    0.3651   -0.8530   -0.1978 H   0  0  0  0  0  0  0  0  0  0  0  0
   -1.3363   -1.3765    1.6058 H   0  0  0  0  0  0  0  0  0  0  0  0
   -3.4466   -0.5500    2.6891 H   0  0  0  0  0  0  0  0  0  0  0  0
   -4.9654   -0.7177    1.8022 H   0  0  0  0  0  0  0  0  0  0  0  0
   -4.0846    1.6765    1.6896 H   0  0  0  0  0  0  0  0  0  0  0  0
   -4.2066    1.9122   -0.8089 H   0  0  0  0  0  0  0  0  0  0  0  0
   -5.4386    0.7951   -0.2217 H   0  0  0  0  0  0  0  0  0  0  0  0
   -4.2942   -0.1614   -2.2266 H   0  0  0  0  0  0  0  0  0  0  0  0
   -5.0588   -1.7423   -0.4010 H   0  0  0  0  0  0  0  0  0  0  0  0
   -3.6154   -2.3589   -1.2029 H   0  0  0  0  0  0  0  0  0  0  0  0
   -1.8634   -0.7462   -2.1022 H   0  0  0  0  0  0  0  0  0  0  0  0
   -2.0947    0.9907   -1.9527 H   0  0  0  0  0  0  0  0  0  0  0  0
   -1.9948    2.1201    0.3769 H   0  0  0  0  0  0  0  0  0  0  0  0
   -1.6358    1.1581    1.8045 H   0  0  0  0  0  0  0  0  0  0  0  0
  1  2  2  0
  2  3  1  0
  3  4  2  0
  4  5  1  0
  5  6  2  0
  6  7  1  0
  7  8  2  0
  8  9  1  0
  9 10  2  0
  2 11  1  0
 12 11  1  6
 12 13  1  0
 13 14  2  0
 14 15  1  0
 15 16  1  0
 16 17  1  0
 17 18  1  0
 18 19  1  0
 18 20  1  0
 16 21  1  0
 10  5  1  0
 20 12  1  0
 21 12  1  0
 19 14  1  0
  3 22  1  0
  4 23  1  0
  6 24  1  0
  7 25  1  0
  8 26  1  0
  9 27  1  0
 10 28  1  0
 11 29  1  0
 13 30  1  0
 15 31  1  0
 15 32  1  0
 16 33  1  1
 17 34  1  0
 17 35  1  0
 18 36  1  6
 19 37  1  0
 19 38  1  0
 20 39  1  0
 20 40  1  0
 21 41  1  0
 21 42  1  0
M  END
>  <_SMILES>  (94) 
O=C(/C=C/c1ccccc1)N[C@]12C=C3C[C@H](C[C@H](C3)C1)C2

$$$$

     RDKit          3D

 51 55  0  0  0  0  0  0  0  0999 V2000
    1.8514    3.7856    0.0538 C   0  0  0  0  0  0  0  0  0  0  0  0
    2.1400    2.3286   -0.0126 C   0  0  0  0  0  0  0  0  0  0  0  0
    1.1868    1.2771    0.0036 C   0  0  0  0  0  0  0  0  0  0  0  0
   -0.2854    1.3816    0.0911 C   0  0  0  0  0  0  0  0  0  0  0  0
   -0.8740    2.4561    0.1298 O   0  0  0  0  0  0  0  0  0  0  0  0
   -0.8997    0.1494    0.1068 N   0  0  0  0  0  0  0  0  0  0  0  0
   -2.3209   -0.1121    0.0314 C   0  0  2  0  0  0  0  0  0  0  0  0
   -2.8372    0.2529   -1.3720 C   0  0  0  0  0  0  0  0  0  0  0  0
   -4.1337   -0.1148   -1.5340 C   0  0  0  0  0  0  0  0  0  0  0  0
   -4.4455   -1.5930   -1.3572 C   0  0  0  0  0  0  0  0  0  0  0  0
   -4.0696   -1.9650    0.0886 C   0  0  2  0  0  0  0  0  0  0  0  0
   -4.9246   -1.1275    1.0646 C   0  0  0  0  0  0  0  0  0  0  0  0
   -4.6978    0.3803    0.8133 C   0  0  2  0  0  0  0  0  0  0  0  0
   -5.0734    0.7171   -0.6604 C   0  0  0  0  0  0  0  0  0  0  0  0
   -3.1907    0.6909    1.0485 C   0  0  0  0  0  0  0  0  0  0  0  0
   -2.5770   -1.6257    0.2934 C   0  0  0  0  0  0  0  0  0  0  0  0
    1.7857    0.0792   -0.1084 N   0  0  0  0  0  0  0  0  0  0  0  0
    3.1217    0.3321   -0.0975 N   0  0  0  0  0  0  0  0  0  0  0  0
    4.0211   -0.7796   -0.0268 C   0  0  0  0  0  0  0  0  0  0  0  0
    3.5308   -2.0678   -0.3142 C   0  0  0  0  0  0  0  0  0  0  0  0
    4.3708   -3.1842   -0.2530 C   0  0  0  0  0  0  0  0  0  0  0  0
    5.7038   -3.0254    0.1096 C   0  0  0  0  0  0  0  0  0  0  0  0
    6.7405   -4.3951    0.1893 Cl  0  0  0  0  0  0  0  0  0  0  0  0
    6.1996   -1.7615    0.4189 C   0  0  0  0  0  0  0  0  0  0  0  0
    5.3607   -0.6410    0.3567 C   0  0  0  0  0  0  0  0  0  0  0  0
    3.3692    1.6998   -0.1589 C   0  0  0  0  0  0  0  0  0  0  0  0
    4.6954    2.3293   -0.3987 C   0  0  0  0  0  0  0  0  0  0  0  0
    1.1913    4.0104    0.8977 H   0  0  0  0  0  0  0  0  0  0  0  0
    2.7632    4.3742    0.1912 H   0  0  0  0  0  0  0  0  0  0  0  0
    1.3663    4.1202   -0.8686 H   0  0  0  0  0  0  0  0  0  0  0  0
   -0.2548   -0.6160   -0.0714 H   0  0  0  0  0  0  0  0  0  0  0  0
   -2.5885    1.2918   -1.6086 H   0  0  0  0  0  0  0  0  0  0  0  0
   -3.8709   -2.1883   -2.0774 H   0  0  0  0  0  0  0  0  0  0  0  0
   -5.5059   -1.7897   -1.5534 H   0  0  0  0  0  0  0  0  0  0  0  0
   -4.2411   -3.0329    0.2617 H   0  0  0  0  0  0  0  0  0  0  0  0
   -4.6640   -1.3784    2.1000 H   0  0  0  0  0  0  0  0  0  0  0  0
   -5.9860   -1.3705    0.9326 H   0  0  0  0  0  0  0  0  0  0  0  0
   -5.3135    0.9708    1.5004 H   0  0  0  0  0  0  0  0  0  0  0  0
   -4.9482    1.7883   -0.8600 H   0  0  0  0  0  0  0  0  0  0  0  0
   -6.1199    0.4662   -0.8680 H   0  0  0  0  0  0  0  0  0  0  0  0
   -3.0437    1.7714    0.9412 H   0  0  0  0  0  0  0  0  0  0  0  0
   -2.9046    0.4377    2.0773 H   0  0  0  0  0  0  0  0  0  0  0  0
   -1.9671   -2.2390   -0.3843 H   0  0  0  0  0  0  0  0  0  0  0  0
   -2.2677   -1.8907    1.3130 H   0  0  0  0  0  0  0  0  0  0  0  0
    2.4925   -2.2197   -0.6050 H   0  0  0  0  0  0  0  0  0  0  0  0
    3.9756   -4.1688   -0.4885 H   0  0  0  0  0  0  0  0  0  0  0  0
    7.2366   -1.6401    0.7226 H   0  0  0  0  0  0  0  0  0  0  0  0
    5.7840    0.3085    0.6605 H   0  0  0  0  0  0  0  0  0  0  0  0
    5.2353    2.4673    0.5427 H   0  0  0  0  0  0  0  0  0  0  0  0
    4.5792    3.3173   -0.8569 H   0  0  0  0  0  0  0  0  0  0  0  0
    5.3040    1.7431   -1.0935 H   0  0  0  0  0  0  0  0  0  0  0  0
  1  2  1  0
  2  3  1  0
  3  4  1  0
  4  5  2  0
  4  6  1  0
  7  6  1  6
  7  8  1  0
  8  9  2  0
  9 10  1  0
 10 11  1  0
 11 12  1  0
 12 13  1  0
 13 14  1  0
 13 15  1  0
 11 16  1  0
  3 17  2  0
 17 18  1  0
 18 19  1  0
 19 20  1  0
 20 21  2  0
 21 22  1  0
 22 23  1  0
 22 24  2  0
 24 25  1  0
 18 26  1  0
 26 27  1  0
 26  2  2  0
 15  7  1  0
 25 19  2  0
 16  7  1  0
 14  9  1  0
  1 28  1  0
  1 29  1  0
  1 30  1  0
  6 31  1  0
  8 32  1  0
 10 33  1  0
 10 34  1  0
 11 35  1  6
 12 36  1  0
 12 37  1  0
 13 38  1  1
 14 39  1  0
 14 40  1  0
 15 41  1  0
 15 42  1  0
 16 43  1  0
 16 44  1  0
 20 45  1  0
 21 46  1  0
 24 47  1  0
 25 48  1  0
 27 49  1  0
 27 50  1  0
 27 51  1  0
M  END
>  <_SMILES>  (95) 
Cc1c(C(=O)N[C@]23C=C4C[C@H](C[C@H](C4)C2)C3)nn(-c2ccc(Cl)cc2)c1C

$$$$

     RDKit          3D

 58 62  0  0  0  0  0  0  0  0999 V2000
    5.4346   -3.2412    2.8130 C   0  0  0  0  0  0  0  0  0  0  0  0
    6.2327   -2.1002    2.5232 O   0  0  0  0  0  0  0  0  0  0  0  0
    5.7848   -1.2759    1.5278 C   0  0  0  0  0  0  0  0  0  0  0  0
    6.5460   -0.1216    1.3366 C   0  0  0  0  0  0  0  0  0  0  0  0
    6.1954    0.8116    0.3574 C   0  0  0  0  0  0  0  0  0  0  0  0
    5.0759    0.5986   -0.4558 C   0  0  0  0  0  0  0  0  0  0  0  0
    4.6882    1.6128   -1.5057 C   0  0  0  0  0  0  0  0  0  0  0  0
    3.4975    2.4879   -1.1051 C   0  0  0  0  0  0  0  0  0  0  0  0
    2.2133    1.9117   -1.4663 N   0  0  0  0  0  0  0  0  0  0  0  0
    1.4824    1.2895   -0.5269 N   0  0  0  0  0  0  0  0  0  0  0  0
    0.3800    0.8674   -1.1708 C   0  0  0  0  0  0  0  0  0  0  0  0
   -0.6738    0.1185   -0.4555 C   0  0  0  0  0  0  0  0  0  0  0  0
   -0.4218   -0.7855    0.3335 O   0  0  0  0  0  0  0  0  0  0  0  0
   -1.9529    0.5557   -0.7502 N   0  0  0  0  0  0  0  0  0  0  0  0
   -3.1650    0.1062   -0.0880 C   0  0  2  0  0  0  0  0  0  0  0  0
   -3.1978    0.6537    1.3491 C   0  0  0  0  0  0  0  0  0  0  0  0
   -4.3864    0.3932    1.9506 C   0  0  0  0  0  0  0  0  0  0  0  0
   -5.6270    0.9568    1.2754 C   0  0  0  0  0  0  0  0  0  0  0  0
   -5.7065    0.3225   -0.1250 C   0  0  2  0  0  0  0  0  0  0  0  0
   -5.8394   -1.2089    0.0202 C   0  0  0  0  0  0  0  0  0  0  0  0
   -4.6362   -1.7756    0.8064 C   0  0  2  0  0  0  0  0  0  0  0  0
   -4.5763   -1.1021    2.2099 C   0  0  0  0  0  0  0  0  0  0  0  0
   -3.3374   -1.4420    0.0154 C   0  0  0  0  0  0  0  0  0  0  0  0
   -4.3962    0.6548   -0.8715 C   0  0  0  0  0  0  0  0  0  0  0  0
    0.4099    1.2557   -2.5527 C   0  0  0  0  0  0  0  0  0  0  0  0
   -0.6025    0.9586   -3.5978 C   0  0  0  0  0  0  0  0  0  0  0  0
    1.5978    1.9441   -2.6842 C   0  0  0  0  0  0  0  0  0  0  0  0
    2.2538    2.7586   -4.2769 Br  0  0  0  0  0  0  0  0  0  0  0  0
    4.3212   -0.5651   -0.2667 C   0  0  0  0  0  0  0  0  0  0  0  0
    4.6701   -1.4942    0.7202 C   0  0  0  0  0  0  0  0  0  0  0  0
    5.9006   -3.7708    3.6495 H   0  0  0  0  0  0  0  0  0  0  0  0
    5.4048   -3.9276    1.9604 H   0  0  0  0  0  0  0  0  0  0  0  0
    4.4255   -2.9509    3.1239 H   0  0  0  0  0  0  0  0  0  0  0  0
    7.4172    0.0558    1.9622 H   0  0  0  0  0  0  0  0  0  0  0  0
    6.8060    1.7036    0.2410 H   0  0  0  0  0  0  0  0  0  0  0  0
    4.5094    1.0924   -2.4548 H   0  0  0  0  0  0  0  0  0  0  0  0
    5.5498    2.2691   -1.6853 H   0  0  0  0  0  0  0  0  0  0  0  0
    3.5573    3.4543   -1.6187 H   0  0  0  0  0  0  0  0  0  0  0  0
    3.4855    2.7002   -0.0292 H   0  0  0  0  0  0  0  0  0  0  0  0
   -1.9944    1.4806   -1.1559 H   0  0  0  0  0  0  0  0  0  0  0  0
   -2.2967    0.3488    1.8913 H   0  0  0  0  0  0  0  0  0  0  0  0
   -6.5235    0.7302    1.8641 H   0  0  0  0  0  0  0  0  0  0  0  0
   -5.5560    2.0492    1.2076 H   0  0  0  0  0  0  0  0  0  0  0  0
   -6.5657    0.7228   -0.6739 H   0  0  0  0  0  0  0  0  0  0  0  0
   -6.7728   -1.4541    0.5417 H   0  0  0  0  0  0  0  0  0  0  0  0
   -5.8930   -1.6755   -0.9709 H   0  0  0  0  0  0  0  0  0  0  0  0
   -4.7391   -2.8606    0.9165 H   0  0  0  0  0  0  0  0  0  0  0  0
   -5.4981   -1.2839    2.7743 H   0  0  0  0  0  0  0  0  0  0  0  0
   -3.7457   -1.5058    2.8015 H   0  0  0  0  0  0  0  0  0  0  0  0
   -2.4960   -1.9118    0.5358 H   0  0  0  0  0  0  0  0  0  0  0  0
   -3.3739   -1.8888   -0.9863 H   0  0  0  0  0  0  0  0  0  0  0  0
   -4.3153    1.7434   -0.9970 H   0  0  0  0  0  0  0  0  0  0  0  0
   -4.4207    0.2283   -1.8830 H   0  0  0  0  0  0  0  0  0  0  0  0
   -0.1432    0.8565   -4.5857 H   0  0  0  0  0  0  0  0  0  0  0  0
   -1.3452    1.7612   -3.6449 H   0  0  0  0  0  0  0  0  0  0  0  0
   -1.1223    0.0180   -3.3899 H   0  0  0  0  0  0  0  0  0  0  0  0
    3.4391   -0.7583   -0.8744 H   0  0  0  0  0  0  0  0  0  0  0  0
    4.0420   -2.3717    0.8320 H   0  0  0  0  0  0  0  0  0  0  0  0
  1  2  1  0
  2  3  1  0
  3  4  1  0
  4  5  2  0
  5  6  1  0
  6  7  1  0
  7  8  1  0
  8  9  1  0
  9 10  1  0
 10 11  2  0
 11 12  1  0
 12 13  2  0
 12 14  1  0
 15 14  1  6
 15 16  1  0
 16 17  2  0
 17 18  1  0
 18 19  1  0
 19 20  1  0
 20 21  1  0
 21 22  1  0
 21 23  1  0
 19 24  1  0
 11 25  1  0
 25 26  1  0
 25 27  2  0
 27 28  1  0
  6 29  2  0
 29 30  1  0
 30  3  2  0
 27  9  1  0
 23 15  1  0
 24 15  1  0
 22 17  1  0
  1 31  1  0
  1 32  1  0
  1 33  1  0
  4 34  1  0
  5 35  1  0
  7 36  1  0
  7 37  1  0
  8 38  1  0
  8 39  1  0
 14 40  1  0
 16 41  1  0
 18 42  1  0
 18 43  1  0
 19 44  1  6
 20 45  1  0
 20 46  1  0
 21 47  1  1
 22 48  1  0
 22 49  1  0
 23 50  1  0
 23 51  1  0
 24 52  1  0
 24 53  1  0
 26 54  1  0
 26 55  1  0
 26 56  1  0
 29 57  1  0
 30 58  1  0
M  END
>  <_SMILES>  (96) 
COc1ccc(CCn2nc(C(=O)N[C@]34C=C5C[C@H](C[C@H](C5)C3)C4)c(C)c2Br)cc1

$$$$

     RDKit          3D

 61 66  0  0  0  0  0  0  0  0999 V2000
    5.9323    2.5122    2.9825 C   0  0  0  0  0  0  0  0  0  0  0  0
    5.2528    1.4812    2.1502 C   0  0  0  0  0  0  0  0  0  0  0  0
    5.8081    0.4174    1.4743 C   0  0  0  0  0  0  0  0  0  0  0  0
    4.8366   -0.3935    0.7849 C   0  0  0  0  0  0  0  0  0  0  0  0
    5.2272   -1.6637    0.1055 C   0  0  0  0  0  0  0  0  0  0  0  0
    3.5698    0.1507    0.9337 C   0  0  0  0  0  0  0  0  0  0  0  0
    2.3396   -0.2410    0.3761 N   0  0  0  0  0  0  0  0  0  0  0  0
    1.2275   -0.0350    1.1234 N   0  0  0  0  0  0  0  0  0  0  0  0
    0.2215   -0.6109    0.4574 C   0  0  0  0  0  0  0  0  0  0  0  0
   -1.1475   -0.5940    1.0044 C   0  0  0  0  0  0  0  0  0  0  0  0
   -1.4125   -0.9493    2.1476 O   0  0  0  0  0  0  0  0  0  0  0  0
   -2.0895   -0.1193    0.1097 N   0  0  0  0  0  0  0  0  0  0  0  0
   -3.4626    0.1540    0.4769 C   0  0  2  0  0  0  0  0  0  0  0  0
   -4.1886    0.5464   -0.8307 C   0  0  0  0  0  0  0  0  0  0  0  0
   -5.4664    0.9366   -0.5970 C   0  0  0  0  0  0  0  0  0  0  0  0
   -6.3404   -0.2393   -0.1638 C   0  0  0  0  0  0  0  0  0  0  0  0
   -5.7489   -0.7255    1.1909 C   0  0  2  0  0  0  0  0  0  0  0  0
   -5.8419    0.4216    2.2260 C   0  0  0  0  0  0  0  0  0  0  0  0
   -5.0741    1.6663    1.7224 C   0  0  2  0  0  0  0  0  0  0  0  0
   -5.6568    2.0998    0.3651 C   0  0  0  0  0  0  0  0  0  0  0  0
   -3.5865    1.3048    1.5096 C   0  0  0  0  0  0  0  0  0  0  0  0
   -4.2452   -1.0879    1.0088 C   0  0  0  0  0  0  0  0  0  0  0  0
    0.6642   -1.1273   -0.7946 C   0  0  0  0  0  0  0  0  0  0  0  0
   -0.1751   -1.7766   -1.8376 C   0  0  0  0  0  0  0  0  0  0  0  0
    2.0240   -0.8317   -0.8484 C   0  0  0  0  0  0  0  0  0  0  0  0
    2.9290   -0.9413   -1.9955 C   0  0  0  0  0  0  0  0  0  0  0  0
    3.5353    0.2038   -2.5303 C   0  0  0  0  0  0  0  0  0  0  0  0
    4.3770    0.1071   -3.6407 C   0  0  0  0  0  0  0  0  0  0  0  0
    4.6141   -1.1326   -4.2312 C   0  0  0  0  0  0  0  0  0  0  0  0
    4.0097   -2.2766   -3.7140 C   0  0  0  0  0  0  0  0  0  0  0  0
    3.1686   -2.1813   -2.6030 C   0  0  0  0  0  0  0  0  0  0  0  0
    3.5590    1.5124    1.9681 S   0  0  0  0  0  0  0  0  0  0  0  0
    5.7353    3.5172    2.5948 H   0  0  0  0  0  0  0  0  0  0  0  0
    5.5865    2.4634    4.0203 H   0  0  0  0  0  0  0  0  0  0  0  0
    7.0170    2.3614    2.9836 H   0  0  0  0  0  0  0  0  0  0  0  0
    6.8701    0.1992    1.4944 H   0  0  0  0  0  0  0  0  0  0  0  0
    5.5820   -1.4661   -0.9091 H   0  0  0  0  0  0  0  0  0  0  0  0
    4.4025   -2.3809    0.0812 H   0  0  0  0  0  0  0  0  0  0  0  0
    6.0463   -2.1480    0.6495 H   0  0  0  0  0  0  0  0  0  0  0  0
   -1.7176    0.3991   -0.6753 H   0  0  0  0  0  0  0  0  0  0  0  0
   -4.0412   -0.2238   -1.5933 H   0  0  0  0  0  0  0  0  0  0  0  0
   -6.3175   -1.0418   -0.9110 H   0  0  0  0  0  0  0  0  0  0  0  0
   -7.3850    0.0724   -0.0505 H   0  0  0  0  0  0  0  0  0  0  0  0
   -6.3040   -1.5993    1.5490 H   0  0  0  0  0  0  0  0  0  0  0  0
   -6.8940    0.6796    2.3986 H   0  0  0  0  0  0  0  0  0  0  0  0
   -5.4300    0.0928    3.1878 H   0  0  0  0  0  0  0  0  0  0  0  0
   -5.1628    2.4806    2.4496 H   0  0  0  0  0  0  0  0  0  0  0  0
   -5.1442    2.9916   -0.0156 H   0  0  0  0  0  0  0  0  0  0  0  0
   -6.7191    2.3553    0.4549 H   0  0  0  0  0  0  0  0  0  0  0  0
   -3.1392    1.0167    2.4686 H   0  0  0  0  0  0  0  0  0  0  0  0
   -3.0358    2.1893    1.1622 H   0  0  0  0  0  0  0  0  0  0  0  0
   -4.1502   -1.9309    0.3111 H   0  0  0  0  0  0  0  0  0  0  0  0
   -3.8395   -1.4300    1.9677 H   0  0  0  0  0  0  0  0  0  0  0  0
    0.3655   -2.5741   -2.3536 H   0  0  0  0  0  0  0  0  0  0  0  0
   -1.0693   -2.2336   -1.4023 H   0  0  0  0  0  0  0  0  0  0  0  0
   -0.4926   -1.0380   -2.5805 H   0  0  0  0  0  0  0  0  0  0  0  0
    3.3553    1.1827   -2.0905 H   0  0  0  0  0  0  0  0  0  0  0  0
    4.8448    1.0012   -4.0453 H   0  0  0  0  0  0  0  0  0  0  0  0
    5.2688   -1.2064   -5.0960 H   0  0  0  0  0  0  0  0  0  0  0  0
    4.1938   -3.2440   -4.1743 H   0  0  0  0  0  0  0  0  0  0  0  0
    2.7137   -3.0860   -2.2064 H   0  0  0  0  0  0  0  0  0  0  0  0
  1  2  1  0
  2  3  2  0
  3  4  1  0
  4  5  1  0
  4  6  2  0
  6  7  1  0
  7  8  1  0
  8  9  2  0
  9 10  1  0
 10 11  2  0
 10 12  1  0
 13 12  1  6
 13 14  1  0
 14 15  2  0
 15 16  1  0
 16 17  1  0
 17 18  1  0
 18 19  1  0
 19 20  1  0
 19 21  1  0
 17 22  1  0
  9 23  1  0
 23 24  1  0
 23 25  2  0
 25 26  1  0
 26 27  2  0
 27 28  1  0
 28 29  2  0
 29 30  1  0
 30 31  2  0
  6 32  1  0
 32  2  1  0
 25  7  1  0
 31 26  1  0
 21 13  1  0
 22 13  1  0
 20 15  1  0
  1 33  1  0
  1 34  1  0
  1 35  1  0
  3 36  1  0
  5 37  1  0
  5 38  1  0
  5 39  1  0
 12 40  1  0
 14 41  1  0
 16 42  1  0
 16 43  1  0
 17 44  1  1
 18 45  1  0
 18 46  1  0
 19 47  1  1
 20 48  1  0
 20 49  1  0
 21 50  1  0
 21 51  1  0
 22 52  1  0
 22 53  1  0
 24 54  1  0
 24 55  1  0
 24 56  1  0
 27 57  1  0
 28 58  1  0
 29 59  1  0
 30 60  1  0
 31 61  1  0
M  END
>  <_SMILES>  (97) 
Cc1cc(C)c(-n2nc(C(=O)N[C@]34C=C5C[C@H](C[C@H](C5)C3)C4)c(C)c2-c2ccccc2)s1

$$$$

     RDKit          3D

 80 85  0  0  0  0  0  0  0  0999 V2000
    0.2427    1.4217   -2.2431 C   0  0  0  0  0  0  0  0  0  0  0  0
   -0.3584    0.5976   -1.1523 C   0  0  0  0  0  0  0  0  0  0  0  0
    0.2418   -0.5651   -0.5511 C   0  0  0  0  0  0  0  0  0  0  0  0
    1.5383   -1.2072   -0.7761 C   0  0  0  0  0  0  0  0  0  0  0  0
    1.7022   -2.4166   -0.6499 O   0  0  0  0  0  0  0  0  0  0  0  0
    2.5610   -0.3352   -1.0749 N   0  0  0  0  0  0  0  0  0  0  0  0
    3.9329   -0.7675   -1.2377 C   0  0  0  0  0  0  0  0  0  0  0  0
    4.8065   -0.5831    0.0239 C   0  0  2  0  0  0  0  0  0  0  0  0
    6.2529   -1.0435   -0.3040 C   0  0  0  0  0  0  0  0  0  0  0  0
    7.1736   -0.8734    0.9154 C   0  0  1  0  0  0  0  0  0  0  0  0
    7.1985    0.6071    1.3266 C   0  0  0  0  0  0  0  0  0  0  0  0
    5.7799    1.0768    1.6851 C   0  0  2  0  0  0  0  0  0  0  0  0
    5.2422    0.2249    2.8467 C   0  0  0  0  0  0  0  0  0  0  0  0
    5.2091   -1.2579    2.4411 C   0  0  2  0  0  0  0  0  0  0  0  0
    6.6302   -1.7167    2.0793 C   0  0  0  0  0  0  0  0  0  0  0  0
    4.2911   -1.4271    1.2172 C   0  0  0  0  0  0  0  0  0  0  0  0
    4.8615    0.9037    0.4621 C   0  0  0  0  0  0  0  0  0  0  0  0
   -0.6840   -1.0537    0.3478 C   0  0  0  0  0  0  0  0  0  0  0  0
   -1.7807   -0.2371    0.3588 N   0  0  0  0  0  0  0  0  0  0  0  0
   -2.9177   -0.4616    1.2433 C   0  0  0  0  0  0  0  0  0  0  0  0
   -4.1201   -1.1217    0.5468 C   0  0  1  0  0  0  0  0  0  0  0  0
   -3.8005   -2.5563    0.0782 C   0  0  0  0  0  0  0  0  0  0  0  0
   -5.0395   -3.4358   -0.1044 C   0  0  0  0  0  0  0  0  0  0  0  0
   -6.2916   -2.6148   -0.3842 C   0  0  1  0  0  0  0  0  0  0  0  0
   -7.4111   -3.4730   -0.5689 O   0  0  0  0  0  0  0  0  0  0  0  0
   -6.5962   -1.6546    0.7679 C   0  0  0  0  0  0  0  0  0  0  0  0
   -5.3446   -1.1193    1.4688 C   0  0  0  0  0  0  0  0  0  0  0  0
   -1.6050    0.7927   -0.5465 C   0  0  0  0  0  0  0  0  0  0  0  0
   -2.6451    1.8741   -0.7735 C   0  0  0  0  0  0  0  0  0  0  0  0
   -3.3109    1.7511   -2.1599 C   0  0  0  0  0  0  0  0  0  0  0  0
   -3.7246    3.0988   -2.7551 C   0  0  0  0  0  0  0  0  0  0  0  0
   -4.2260    4.0537   -1.6805 C   0  0  0  0  0  0  0  0  0  0  0  0
   -3.1556    4.3564   -0.6304 C   0  0  0  0  0  0  0  0  0  0  0  0
   -2.0744    3.2776   -0.5257 C   0  0  0  0  0  0  0  0  0  0  0  0
    0.9003    2.1873   -1.8194 H   0  0  0  0  0  0  0  0  0  0  0  0
   -0.5167    1.9252   -2.8457 H   0  0  0  0  0  0  0  0  0  0  0  0
    0.8259    0.7990   -2.9289 H   0  0  0  0  0  0  0  0  0  0  0  0
    2.3742    0.6524   -0.9859 H   0  0  0  0  0  0  0  0  0  0  0  0
    3.9439   -1.8167   -1.5556 H   0  0  0  0  0  0  0  0  0  0  0  0
    4.3412   -0.1741   -2.0642 H   0  0  0  0  0  0  0  0  0  0  0  0
    6.2520   -2.0953   -0.6184 H   0  0  0  0  0  0  0  0  0  0  0  0
    6.6518   -0.4643   -1.1470 H   0  0  0  0  0  0  0  0  0  0  0  0
    8.1872   -1.2035    0.6619 H   0  0  0  0  0  0  0  0  0  0  0  0
    7.6000    1.2172    0.5082 H   0  0  0  0  0  0  0  0  0  0  0  0
    7.8673    0.7462    2.1849 H   0  0  0  0  0  0  0  0  0  0  0  0
    5.8042    2.1316    1.9812 H   0  0  0  0  0  0  0  0  0  0  0  0
    5.8760    0.3567    3.7322 H   0  0  0  0  0  0  0  0  0  0  0  0
    4.2352    0.5608    3.1233 H   0  0  0  0  0  0  0  0  0  0  0  0
    4.8277   -1.8597    3.2737 H   0  0  0  0  0  0  0  0  0  0  0  0
    7.2886   -1.6200    2.9513 H   0  0  0  0  0  0  0  0  0  0  0  0
    6.6226   -2.7781    1.8024 H   0  0  0  0  0  0  0  0  0  0  0  0
    3.2743   -1.1235    1.4943 H   0  0  0  0  0  0  0  0  0  0  0  0
    4.2417   -2.4871    0.9374 H   0  0  0  0  0  0  0  0  0  0  0  0
    3.8582    1.2687    0.7146 H   0  0  0  0  0  0  0  0  0  0  0  0
    5.2261    1.5279   -0.3638 H   0  0  0  0  0  0  0  0  0  0  0  0
   -0.6254   -1.9253    0.9885 H   0  0  0  0  0  0  0  0  0  0  0  0
   -2.5711   -1.0809    2.0804 H   0  0  0  0  0  0  0  0  0  0  0  0
   -3.1862    0.5083    1.6764 H   0  0  0  0  0  0  0  0  0  0  0  0
   -4.3761   -0.5307   -0.3415 H   0  0  0  0  0  0  0  0  0  0  0  0
   -3.2585   -2.5001   -0.8743 H   0  0  0  0  0  0  0  0  0  0  0  0
   -3.1267   -3.0572    0.7843 H   0  0  0  0  0  0  0  0  0  0  0  0
   -4.8674   -4.1648   -0.9054 H   0  0  0  0  0  0  0  0  0  0  0  0
   -5.1997   -4.0375    0.8005 H   0  0  0  0  0  0  0  0  0  0  0  0
   -6.1590   -2.0441   -1.3114 H   0  0  0  0  0  0  0  0  0  0  0  0
   -7.2003   -4.0765   -1.3022 H   0  0  0  0  0  0  0  0  0  0  0  0
   -7.2497   -2.1295    1.5107 H   0  0  0  0  0  0  0  0  0  0  0  0
   -7.1800   -0.8149    0.3689 H   0  0  0  0  0  0  0  0  0  0  0  0
   -5.1352   -1.7395    2.3503 H   0  0  0  0  0  0  0  0  0  0  0  0
   -5.5481   -0.1088    1.8428 H   0  0  0  0  0  0  0  0  0  0  0  0
   -3.4508    1.7540   -0.0396 H   0  0  0  0  0  0  0  0  0  0  0  0
   -4.2046    1.1214   -2.0576 H   0  0  0  0  0  0  0  0  0  0  0  0
   -2.6767    1.2277   -2.8841 H   0  0  0  0  0  0  0  0  0  0  0  0
   -2.8687    3.5494   -3.2728 H   0  0  0  0  0  0  0  0  0  0  0  0
   -4.5014    2.9411   -3.5119 H   0  0  0  0  0  0  0  0  0  0  0  0
   -5.0999    3.6094   -1.1871 H   0  0  0  0  0  0  0  0  0  0  0  0
   -4.5698    4.9897   -2.1350 H   0  0  0  0  0  0  0  0  0  0  0  0
   -3.6443    4.4870    0.3429 H   0  0  0  0  0  0  0  0  0  0  0  0
   -2.6733    5.3146   -0.8590 H   0  0  0  0  0  0  0  0  0  0  0  0
   -1.2867    3.5057   -1.2530 H   0  0  0  0  0  0  0  0  0  0  0  0
   -1.6005    3.3356    0.4622 H   0  0  0  0  0  0  0  0  0  0  0  0
  1  2  1  0
  2  3  1  0
  3  4  1  0
  4  5  2  0
  4  6  1  0
  6  7  1  0
  8  7  1  6
  8  9  1  0
  9 10  1  0
 10 11  1  0
 11 12  1  0
 12 13  1  0
 13 14  1  0
 14 15  1  0
 14 16  1  0
 12 17  1  0
  3 18  2  0
 18 19  1  0
 19 20  1  0
 20 21  1  0
 21 22  1  0
 22 23  1  0
 23 24  1  0
 24 25  1  0
 24 26  1  0
 26 27  1  0
 19 28  1  0
 28 29  1  0
 29 30  1  0
 30 31  1  0
 31 32  1  0
 32 33  1  0
 33 34  1  0
 28  2  2  0
 34 29  1  0
 16  8  1  0
 27 21  1  0
 17  8  1  0
 15 10  1  0
  1 35  1  0
  1 36  1  0
  1 37  1  0
  6 38  1  0
  7 39  1  0
  7 40  1  0
  9 41  1  0
  9 42  1  0
 10 43  1  6
 11 44  1  0
 11 45  1  0
 12 46  1  1
 13 47  1  0
 13 48  1  0
 14 49  1  1
 15 50  1  0
 15 51  1  0
 16 52  1  0
 16 53  1  0
 17 54  1  0
 17 55  1  0
 18 56  1  0
 20 57  1  0
 20 58  1  0
 21 59  1  6
 22 60  1  0
 22 61  1  0
 23 62  1  0
 23 63  1  0
 24 64  1  6
 25 65  1  0
 26 66  1  0
 26 67  1  0
 27 68  1  0
 27 69  1  0
 29 70  1  0
 30 71  1  0
 30 72  1  0
 31 73  1  0
 31 74  1  0
 32 75  1  0
 32 76  1  0
 33 77  1  0
 33 78  1  0
 34 79  1  0
 34 80  1  0
M  END
>  <_SMILES>  (98) 
Cc1c(C(=O)NC[C@]23C[C@H]4C[C@H](C[C@H](C4)C2)C3)cn(C[C@H]2CC[C@@H](O)CC2)c1C1CCCCC1

$$$$

     RDKit          3D

 66 69  0  0  0  0  0  0  0  0999 V2000
   -6.2745   -3.7196   -0.1482 C   0  0  0  0  0  0  0  0  0  0  0  0
   -5.7795   -2.4523   -0.5608 O   0  0  0  0  0  0  0  0  0  0  0  0
   -4.9783   -1.8060    0.4343 C   0  0  1  0  0  0  0  0  0  0  0  0
   -3.5210   -2.2945    0.3628 C   0  0  0  0  0  0  0  0  0  0  0  0
   -2.6732   -1.4248   -0.5642 C   0  0  0  0  0  0  0  0  0  0  0  0
   -2.6093    0.0453   -0.0973 C   0  0  2  0  0  0  0  0  0  0  0  0
   -1.3611    0.3537    0.7532 C   0  0  0  0  0  0  0  0  0  0  0  0
   -0.1145    0.3905   -0.0023 N   0  0  0  0  0  0  0  0  0  0  0  0
    0.8017   -0.6321   -0.0154 C   0  0  0  0  0  0  0  0  0  0  0  0
    1.8663   -0.2752   -0.8269 C   0  0  0  0  0  0  0  0  0  0  0  0
    3.0495   -1.0849   -1.1441 C   0  0  0  0  0  0  0  0  0  0  0  0
    3.8473   -0.7699   -2.0222 O   0  0  0  0  0  0  0  0  0  0  0  0
    3.2090   -2.2136   -0.3700 N   0  0  0  0  0  0  0  0  0  0  0  0
    4.3923   -3.0334   -0.4603 C   0  0  0  0  0  0  0  0  0  0  0  0
    5.3610   -2.6997    0.6466 C   0  0  0  0  0  0  0  0  0  0  0  0
    6.1999   -1.5784    0.5346 C   0  0  0  0  0  0  0  0  0  0  0  0
    7.0828   -1.2502    1.5639 C   0  0  0  0  0  0  0  0  0  0  0  0
    7.1248   -2.0390    2.7066 C   0  0  0  0  0  0  0  0  0  0  0  0
    7.9712   -1.7243    3.6959 F   0  0  0  0  0  0  0  0  0  0  0  0
    6.2988   -3.1489    2.8411 C   0  0  0  0  0  0  0  0  0  0  0  0
    5.4136   -3.4789    1.8132 C   0  0  0  0  0  0  0  0  0  0  0  0
    1.5701    1.0493   -1.3075 C   0  0  0  0  0  0  0  0  0  0  0  0
    2.4383    1.8555   -2.2166 C   0  0  0  0  0  0  0  0  0  0  0  0
    0.3492    1.4408   -0.7654 C   0  0  0  0  0  0  0  0  0  0  0  0
   -0.3737    2.6995   -0.9439 C   0  0  0  0  0  0  0  0  0  0  0  0
   -1.0953    2.9349   -2.1178 C   0  0  0  0  0  0  0  0  0  0  0  0
   -1.7822    4.1363   -2.2903 C   0  0  0  0  0  0  0  0  0  0  0  0
   -1.7483    5.1106   -1.2918 C   0  0  0  0  0  0  0  0  0  0  0  0
   -1.0317    4.8903   -0.1095 C   0  0  0  0  0  0  0  0  0  0  0  0
   -0.9560    5.9551    0.9438 C   0  0  0  0  0  0  0  0  0  0  0  0
   -0.3331    3.6856    0.0495 C   0  0  0  0  0  0  0  0  0  0  0  0
   -3.8721    0.4533    0.6879 C   0  0  0  0  0  0  0  0  0  0  0  0
   -5.1004   -0.2947    0.1907 C   0  0  0  0  0  0  0  0  0  0  0  0
   -6.8487   -4.1476   -0.9744 H   0  0  0  0  0  0  0  0  0  0  0  0
   -5.4584   -4.4041    0.0979 H   0  0  0  0  0  0  0  0  0  0  0  0
   -6.9403   -3.6048    0.7125 H   0  0  0  0  0  0  0  0  0  0  0  0
   -5.3820   -2.0345    1.4295 H   0  0  0  0  0  0  0  0  0  0  0  0
   -3.0810   -2.2644    1.3674 H   0  0  0  0  0  0  0  0  0  0  0  0
   -3.4684   -3.3331    0.0204 H   0  0  0  0  0  0  0  0  0  0  0  0
   -1.6735   -1.8577   -0.6642 H   0  0  0  0  0  0  0  0  0  0  0  0
   -3.1146   -1.4571   -1.5694 H   0  0  0  0  0  0  0  0  0  0  0  0
   -2.5727    0.6584   -1.0062 H   0  0  0  0  0  0  0  0  0  0  0  0
   -1.2438   -0.3915    1.5499 H   0  0  0  0  0  0  0  0  0  0  0  0
   -1.4577    1.3249    1.2517 H   0  0  0  0  0  0  0  0  0  0  0  0
    0.6017   -1.5411    0.5349 H   0  0  0  0  0  0  0  0  0  0  0  0
    2.6345   -2.3109    0.4518 H   0  0  0  0  0  0  0  0  0  0  0  0
    4.0689   -4.0772   -0.3808 H   0  0  0  0  0  0  0  0  0  0  0  0
    4.8782   -2.9197   -1.4359 H   0  0  0  0  0  0  0  0  0  0  0  0
    6.1616   -0.9544   -0.3579 H   0  0  0  0  0  0  0  0  0  0  0  0
    7.7327   -0.3851    1.4810 H   0  0  0  0  0  0  0  0  0  0  0  0
    6.3494   -3.7476    3.7447 H   0  0  0  0  0  0  0  0  0  0  0  0
    4.7685   -4.3470    1.9272 H   0  0  0  0  0  0  0  0  0  0  0  0
    2.4837    1.3910   -3.2068 H   0  0  0  0  0  0  0  0  0  0  0  0
    3.4539    1.9253   -1.8138 H   0  0  0  0  0  0  0  0  0  0  0  0
    2.0661    2.8766   -2.3421 H   0  0  0  0  0  0  0  0  0  0  0  0
   -1.1223    2.1823   -2.9022 H   0  0  0  0  0  0  0  0  0  0  0  0
   -2.3386    4.3154   -3.2065 H   0  0  0  0  0  0  0  0  0  0  0  0
   -2.2802    6.0470   -1.4453 H   0  0  0  0  0  0  0  0  0  0  0  0
   -0.0985    6.6082    0.7548 H   0  0  0  0  0  0  0  0  0  0  0  0
   -1.8678    6.5616    0.9527 H   0  0  0  0  0  0  0  0  0  0  0  0
   -0.8517    5.5120    1.9398 H   0  0  0  0  0  0  0  0  0  0  0  0
    0.2529    3.5134    0.9500 H   0  0  0  0  0  0  0  0  0  0  0  0
   -3.7423    0.2545    1.7597 H   0  0  0  0  0  0  0  0  0  0  0  0
   -4.0269    1.5344    0.5884 H   0  0  0  0  0  0  0  0  0  0  0  0
   -5.9988    0.0780    0.6977 H   0  0  0  0  0  0  0  0  0  0  0  0
   -5.2556   -0.0852   -0.8759 H   0  0  0  0  0  0  0  0  0  0  0  0
  1  2  1  0
  2  3  1  0
  3  4  1  0
  4  5  1  0
  5  6  1  0
  6  7  1  0
  7  8  1  0
  8  9  1  0
  9 10  2  0
 10 11  1  0
 11 12  2  0
 11 13  1  0
 13 14  1  0
 14 15  1  0
 15 16  1  0
 16 17  2  0
 17 18  1  0
 18 19  1  0
 18 20  2  0
 20 21  1  0
 10 22  1  0
 22 23  1  0
 22 24  2  0
 24 25  1  0
 25 26  1  0
 26 27  2  0
 27 28  1  0
 28 29  2  0
 29 30  1  0
 29 31  1  0
  6 32  1  0
 32 33  1  0
 33  3  1  0
 24  8  1  0
 31 25  2  0
 21 15  2  0
  1 34  1  0
  1 35  1  0
  1 36  1  0
  3 37  1  1
  4 38  1  0
  4 39  1  0
  5 40  1  0
  5 41  1  0
  6 42  1  6
  7 43  1  0
  7 44  1  0
  9 45  1  0
 13 46  1  0
 14 47  1  0
 14 48  1  0
 16 49  1  0
 17 50  1  0
 20 51  1  0
 21 52  1  0
 23 53  1  0
 23 54  1  0
 23 55  1  0
 26 56  1  0
 27 57  1  0
 28 58  1  0
 30 59  1  0
 30 60  1  0
 30 61  1  0
 31 62  1  0
 32 63  1  0
 32 64  1  0
 33 65  1  0
 33 66  1  0
M  END
>  <_SMILES>  (99) 
CO[C@H]1CC[C@H](Cn2cc(C(=O)NCc3ccc(F)cc3)c(C)c2-c2cccc(C)c2)CC1

$$$$

     RDKit          3D

 64 69  0  0  0  0  0  0  0  0999 V2000
   -1.3198    1.0812   -1.2306 O   0  0  0  0  0  0  0  0  0  0  0  0
   -1.1549    0.1682   -0.4296 C   0  0  0  0  0  0  0  0  0  0  0  0
   -2.1848   -0.5349    0.1579 N   0  0  0  0  0  0  0  0  0  0  0  0
   -3.6070   -0.3284   -0.1243 C   0  0  2  0  0  0  0  0  0  0  0  0
   -3.9485   -0.6495   -1.5999 C   0  0  0  0  0  0  0  0  0  0  0  0
   -5.4569   -0.4819   -1.8546 C   0  0  1  0  0  0  0  0  0  0  0  0
   -6.2361   -1.4449   -0.9448 C   0  0  0  0  0  0  0  0  0  0  0  0
   -5.9335   -1.1349    0.5297 C   0  0  2  0  0  0  0  0  0  0  0  0
   -6.3475    0.3114    0.8414 C   0  0  0  0  0  0  0  0  0  0  0  0
   -5.5683    1.2842   -0.0570 C   0  0  2  0  0  0  0  0  0  0  0  0
   -5.8680    0.9648   -1.5316 C   0  0  0  0  0  0  0  0  0  0  0  0
   -4.0599    1.1180    0.2001 C   0  0  0  0  0  0  0  0  0  0  0  0
   -4.4251   -1.2918    0.7785 C   0  0  0  0  0  0  0  0  0  0  0  0
    0.1781   -0.3121   -0.0701 C   0  0  0  0  0  0  0  0  0  0  0  0
    1.2705   -0.2135   -0.9141 C   0  0  0  0  0  0  0  0  0  0  0  0
    2.3585   -0.7650   -0.2969 N   0  0  0  0  0  0  0  0  0  0  0  0
    3.6797   -0.8594   -0.8996 C   0  0  0  0  0  0  0  0  0  0  0  0
    4.6763    0.1942   -0.3829 C   0  0  1  0  0  0  0  0  0  0  0  0
    6.1022   -0.1693   -0.8441 C   0  0  0  0  0  0  0  0  0  0  0  0
    7.0745    1.0114   -0.8460 C   0  0  0  0  0  0  0  0  0  0  0  0
    6.6472    2.1127    0.1151 C   0  0  1  0  0  0  0  0  0  0  0  0
    7.5914    3.1765    0.0886 O   0  0  0  0  0  0  0  0  0  0  0  0
    5.2706    2.6675   -0.2542 C   0  0  0  0  0  0  0  0  0  0  0  0
    4.3159    1.6171   -0.8303 C   0  0  0  0  0  0  0  0  0  0  0  0
    2.0088   -1.2315    0.9530 C   0  0  0  0  0  0  0  0  0  0  0  0
    2.7732   -1.8751    1.9413 C   0  0  0  0  0  0  0  0  0  0  0  0
    2.1546   -2.2006    3.1503 C   0  0  0  0  0  0  0  0  0  0  0  0
    0.8198   -1.8869    3.3739 C   0  0  0  0  0  0  0  0  0  0  0  0
    0.0640   -1.2512    2.3830 C   0  0  0  0  0  0  0  0  0  0  0  0
    0.6529   -0.9307    1.1375 C   0  0  0  0  0  0  0  0  0  0  0  0
   -1.9212   -1.4212    0.5671 H   0  0  0  0  0  0  0  0  0  0  0  0
   -3.6403   -1.6746   -1.8442 H   0  0  0  0  0  0  0  0  0  0  0  0
   -3.3945    0.0075   -2.2810 H   0  0  0  0  0  0  0  0  0  0  0  0
   -5.6803   -0.7039   -2.9041 H   0  0  0  0  0  0  0  0  0  0  0  0
   -7.3124   -1.3511   -1.1342 H   0  0  0  0  0  0  0  0  0  0  0  0
   -5.9617   -2.4819   -1.1741 H   0  0  0  0  0  0  0  0  0  0  0  0
   -6.4888   -1.8254    1.1742 H   0  0  0  0  0  0  0  0  0  0  0  0
   -7.4257    0.4355    0.6823 H   0  0  0  0  0  0  0  0  0  0  0  0
   -6.1533    0.5382    1.8969 H   0  0  0  0  0  0  0  0  0  0  0  0
   -5.8690    2.3139    0.1666 H   0  0  0  0  0  0  0  0  0  0  0  0
   -5.3279    1.6623   -2.1835 H   0  0  0  0  0  0  0  0  0  0  0  0
   -6.9373    1.1033   -1.7339 H   0  0  0  0  0  0  0  0  0  0  0  0
   -3.5162    1.8485   -0.4096 H   0  0  0  0  0  0  0  0  0  0  0  0
   -3.8297    1.3596    1.2461 H   0  0  0  0  0  0  0  0  0  0  0  0
   -4.1274   -2.3317    0.5881 H   0  0  0  0  0  0  0  0  0  0  0  0
   -4.2009   -1.0988    1.8363 H   0  0  0  0  0  0  0  0  0  0  0  0
    1.3393    0.2091   -1.9092 H   0  0  0  0  0  0  0  0  0  0  0  0
    3.5574   -0.7793   -1.9868 H   0  0  0  0  0  0  0  0  0  0  0  0
    4.0454   -1.8733   -0.6957 H   0  0  0  0  0  0  0  0  0  0  0  0
    4.6643    0.1787    0.7155 H   0  0  0  0  0  0  0  0  0  0  0  0
    6.0856   -0.6033   -1.8519 H   0  0  0  0  0  0  0  0  0  0  0  0
    6.4888   -0.9557   -0.1832 H   0  0  0  0  0  0  0  0  0  0  0  0
    7.1442    1.4275   -1.8601 H   0  0  0  0  0  0  0  0  0  0  0  0
    8.0877    0.6638   -0.6102 H   0  0  0  0  0  0  0  0  0  0  0  0
    6.6218    1.7210    1.1392 H   0  0  0  0  0  0  0  0  0  0  0  0
    8.4529    2.8135    0.3557 H   0  0  0  0  0  0  0  0  0  0  0  0
    5.3624    3.4988   -0.9649 H   0  0  0  0  0  0  0  0  0  0  0  0
    4.8269    3.1108    0.6468 H   0  0  0  0  0  0  0  0  0  0  0  0
    4.3482    1.6693   -1.9265 H   0  0  0  0  0  0  0  0  0  0  0  0
    3.2929    1.8787   -0.5386 H   0  0  0  0  0  0  0  0  0  0  0  0
    3.8215   -2.1085    1.7852 H   0  0  0  0  0  0  0  0  0  0  0  0
    2.7300   -2.6932    3.9308 H   0  0  0  0  0  0  0  0  0  0  0  0
    0.3594   -2.1296    4.3285 H   0  0  0  0  0  0  0  0  0  0  0  0
   -0.9702   -0.9930    2.5926 H   0  0  0  0  0  0  0  0  0  0  0  0
  1  2  2  0
  2  3  1  0
  4  3  1  6
  4  5  1  0
  5  6  1  0
  6  7  1  0
  7  8  1  0
  8  9  1  0
  9 10  1  0
 10 11  1  0
 10 12  1  0
  8 13  1  0
  2 14  1  0
 14 15  2  0
 15 16  1  0
 16 17  1  0
 17 18  1  0
 18 19  1  0
 19 20  1  0
 20 21  1  0
 21 22  1  0
 21 23  1  0
 23 24  1  0
 16 25  1  0
 25 26  2  0
 26 27  1  0
 27 28  2  0
 28 29  1  0
 29 30  2  0
 12  4  1  0
 30 14  1  0
 13  4  1  0
 24 18  1  0
 30 25  1  0
 11  6  1  0
  3 31  1  0
  5 32  1  0
  5 33  1  0
  6 34  1  6
  7 35  1  0
  7 36  1  0
  8 37  1  1
  9 38  1  0
  9 39  1  0
 10 40  1  1
 11 41  1  0
 11 42  1  0
 12 43  1  0
 12 44  1  0
 13 45  1  0
 13 46  1  0
 15 47  1  0
 17 48  1  0
 17 49  1  0
 18 50  1  1
 19 51  1  0
 19 52  1  0
 20 53  1  0
 20 54  1  0
 21 55  1  1
 22 56  1  0
 23 57  1  0
 23 58  1  0
 24 59  1  0
 24 60  1  0
 26 61  1  0
 27 62  1  0
 28 63  1  0
 29 64  1  0
M  END
>  <_SMILES>  (100) 
O=C(N[C@]12C[C@H]3C[C@H](C[C@H](C3)C1)C2)c1cn(C[C@H]2CC[C@@H](O)CC2)c2ccccc12

$$$$

     RDKit          3D

 74 79  0  0  0  0  0  0  0  0999 V2000
   -6.0247   -3.5250    0.4187 C   0  0  0  0  0  0  0  0  0  0  0  0
   -4.9453   -2.9994   -0.4809 C   0  0  0  0  0  0  0  0  0  0  0  0
   -4.9601   -3.2799   -1.8520 C   0  0  0  0  0  0  0  0  0  0  0  0
   -3.9712   -2.7628   -2.6899 C   0  0  0  0  0  0  0  0  0  0  0  0
   -2.9692   -1.9455   -2.1667 C   0  0  0  0  0  0  0  0  0  0  0  0
   -2.9550   -1.6351   -0.8031 C   0  0  0  0  0  0  0  0  0  0  0  0
   -1.9135   -0.7623   -0.2615 C   0  0  0  0  0  0  0  0  0  0  0  0
   -0.7446   -1.1124    0.4144 C   0  0  0  0  0  0  0  0  0  0  0  0
   -0.3400   -2.5028    0.7778 C   0  0  0  0  0  0  0  0  0  0  0  0
   -0.0257    0.1033    0.6959 C   0  0  0  0  0  0  0  0  0  0  0  0
    1.2660    0.3374    1.3454 C   0  0  0  0  0  0  0  0  0  0  0  0
    1.5150    1.3788    1.9446 O   0  0  0  0  0  0  0  0  0  0  0  0
    2.1870   -0.6708    1.1745 N   0  0  0  0  0  0  0  0  0  0  0  0
    3.5437   -0.5817    1.6723 C   0  0  0  0  0  0  0  0  0  0  0  0
    4.5766   -0.1404    0.6108 C   0  0  2  0  0  0  0  0  0  0  0  0
    5.9850   -0.1294    1.2648 C   0  0  0  0  0  0  0  0  0  0  0  0
    7.0591    0.2945    0.2497 C   0  0  1  0  0  0  0  0  0  0  0  0
    7.0593   -0.6936   -0.9273 C   0  0  0  0  0  0  0  0  0  0  0  0
    5.6821   -0.6987   -1.6093 C   0  0  2  0  0  0  0  0  0  0  0  0
    5.3640    0.7162   -2.1199 C   0  0  0  0  0  0  0  0  0  0  0  0
    5.3566    1.7104   -0.9469 C   0  0  2  0  0  0  0  0  0  0  0  0
    6.7352    1.7044   -0.2683 C   0  0  0  0  0  0  0  0  0  0  0  0
    4.2846    1.2830    0.0716 C   0  0  0  0  0  0  0  0  0  0  0  0
    4.6100   -1.1224   -0.5893 C   0  0  0  0  0  0  0  0  0  0  0  0
   -0.8231    1.1356    0.2355 C   0  0  0  0  0  0  0  0  0  0  0  0
   -1.9555    0.6141   -0.3281 N   0  0  0  0  0  0  0  0  0  0  0  0
   -3.0146    1.4372   -0.8998 C   0  0  0  0  0  0  0  0  0  0  0  0
   -3.8934    2.1189    0.1653 C   0  0  1  0  0  0  0  0  0  0  0  0
   -4.8394    3.1248   -0.4968 C   0  0  0  0  0  0  0  0  0  0  0  0
   -5.7680    3.7201    0.5538 C   0  0  0  0  0  0  0  0  0  0  0  0
   -6.5897    2.6242    1.2153 C   0  0  0  0  0  0  0  0  0  0  0  0
   -5.7522    1.4597    1.6935 C   0  0  0  0  0  0  0  0  0  0  0  0
   -6.0944    0.7437    2.6306 O   0  0  0  0  0  0  0  0  0  0  0  0
   -4.6395    1.1519    0.9619 N   0  0  0  0  0  0  0  0  0  0  0  0
   -3.9401   -2.1704    0.0352 C   0  0  0  0  0  0  0  0  0  0  0  0
   -5.6326   -3.7257    1.4213 H   0  0  0  0  0  0  0  0  0  0  0  0
   -6.8364   -2.7949    0.4944 H   0  0  0  0  0  0  0  0  0  0  0  0
   -6.4311   -4.4666    0.0347 H   0  0  0  0  0  0  0  0  0  0  0  0
   -5.7415   -3.9077   -2.2749 H   0  0  0  0  0  0  0  0  0  0  0  0
   -3.9833   -2.9956   -3.7514 H   0  0  0  0  0  0  0  0  0  0  0  0
   -2.2013   -1.5493   -2.8264 H   0  0  0  0  0  0  0  0  0  0  0  0
    0.3177   -2.9190    0.0083 H   0  0  0  0  0  0  0  0  0  0  0  0
   -1.2062   -3.1640    0.8765 H   0  0  0  0  0  0  0  0  0  0  0  0
    0.1842   -2.5206    1.7383 H   0  0  0  0  0  0  0  0  0  0  0  0
    1.9606   -1.4136    0.5306 H   0  0  0  0  0  0  0  0  0  0  0  0
    3.7958   -1.5814    2.0453 H   0  0  0  0  0  0  0  0  0  0  0  0
    3.5680    0.1001    2.5305 H   0  0  0  0  0  0  0  0  0  0  0  0
    5.9983    0.5580    2.1206 H   0  0  0  0  0  0  0  0  0  0  0  0
    6.2266   -1.1253    1.6584 H   0  0  0  0  0  0  0  0  0  0  0  0
    8.0432    0.2951    0.7317 H   0  0  0  0  0  0  0  0  0  0  0  0
    7.8347   -0.4138   -1.6510 H   0  0  0  0  0  0  0  0  0  0  0  0
    7.3052   -1.7015   -0.5712 H   0  0  0  0  0  0  0  0  0  0  0  0
    5.6891   -1.4016   -2.4498 H   0  0  0  0  0  0  0  0  0  0  0  0
    6.1091    1.0217   -2.8648 H   0  0  0  0  0  0  0  0  0  0  0  0
    4.3895    0.7230   -2.6235 H   0  0  0  0  0  0  0  0  0  0  0  0
    5.1321    2.7168   -1.3176 H   0  0  0  0  0  0  0  0  0  0  0  0
    7.5047    2.0280   -0.9800 H   0  0  0  0  0  0  0  0  0  0  0  0
    6.7477    2.4214    0.5618 H   0  0  0  0  0  0  0  0  0  0  0  0
    3.3022    1.3177   -0.4146 H   0  0  0  0  0  0  0  0  0  0  0  0
    4.2555    2.0025    0.8997 H   0  0  0  0  0  0  0  0  0  0  0  0
    3.6340   -1.1535   -1.0894 H   0  0  0  0  0  0  0  0  0  0  0  0
    4.8177   -2.1413   -0.2382 H   0  0  0  0  0  0  0  0  0  0  0  0
   -0.6528    2.2050    0.2728 H   0  0  0  0  0  0  0  0  0  0  0  0
   -2.5146    2.1891   -1.5232 H   0  0  0  0  0  0  0  0  0  0  0  0
   -3.6217    0.8187   -1.5678 H   0  0  0  0  0  0  0  0  0  0  0  0
   -3.2556    2.6585    0.8776 H   0  0  0  0  0  0  0  0  0  0  0  0
   -5.4361    2.6343   -1.2764 H   0  0  0  0  0  0  0  0  0  0  0  0
   -4.2647    3.9236   -0.9795 H   0  0  0  0  0  0  0  0  0  0  0  0
   -6.4350    4.4563    0.0920 H   0  0  0  0  0  0  0  0  0  0  0  0
   -5.1759    4.2490    1.3109 H   0  0  0  0  0  0  0  0  0  0  0  0
   -7.3311    2.2291    0.5113 H   0  0  0  0  0  0  0  0  0  0  0  0
   -7.1269    3.0422    2.0736 H   0  0  0  0  0  0  0  0  0  0  0  0
   -4.1066    0.4015    1.3898 H   0  0  0  0  0  0  0  0  0  0  0  0
   -3.9277   -1.9420    1.0990 H   0  0  0  0  0  0  0  0  0  0  0  0
  1  2  1  0
  2  3  2  0
  3  4  1  0
  4  5  2  0
  5  6  1  0
  6  7  1  0
  7  8  2  0
  8  9  1  0
  8 10  1  0
 10 11  1  0
 11 12  2  0
 11 13  1  0
 13 14  1  0
 15 14  1  1
 15 16  1  0
 16 17  1  0
 17 18  1  0
 18 19  1  0
 19 20  1  0
 20 21  1  0
 21 22  1  0
 21 23  1  0
 19 24  1  0
 10 25  2  0
 25 26  1  0
 26 27  1  0
 27 28  1  0
 28 29  1  0
 29 30  1  0
 30 31  1  0
 31 32  1  0
 32 33  2  0
 32 34  1  0
  6 35  2  0
 35  2  1  0
 26  7  1  0
 34 28  1  0
 23 15  1  0
 24 15  1  0
 22 17  1  0
  1 36  1  0
  1 37  1  0
  1 38  1  0
  3 39  1  0
  4 40  1  0
  5 41  1  0
  9 42  1  0
  9 43  1  0
  9 44  1  0
 13 45  1  0
 14 46  1  0
 14 47  1  0
 16 48  1  0
 16 49  1  0
 17 50  1  1
 18 51  1  0
 18 52  1  0
 19 53  1  6
 20 54  1  0
 20 55  1  0
 21 56  1  6
 22 57  1  0
 22 58  1  0
 23 59  1  0
 23 60  1  0
 24 61  1  0
 24 62  1  0
 25 63  1  0
 27 64  1  0
 27 65  1  0
 28 66  1  1
 29 67  1  0
 29 68  1  0
 30 69  1  0
 30 70  1  0
 31 71  1  0
 31 72  1  0
 34 73  1  0
 35 74  1  0
M  END
>  <_SMILES>  (101) 
Cc1cccc(-c2c(C)c(C(=O)NC[C@]34C[C@H]5C[C@H](C[C@H](C5)C3)C4)cn2C[C@H]2CCCC(=O)N2)c1

$$$$

     RDKit          3D

 69 74  0  0  0  0  0  0  0  0999 V2000
   -6.3311    3.4276   -0.3656 C   0  0  0  0  0  0  0  0  0  0  0  0
   -5.4398    2.6031   -1.2462 C   0  0  0  0  0  0  0  0  0  0  0  0
   -5.7858    2.3630   -2.5814 C   0  0  0  0  0  0  0  0  0  0  0  0
   -4.9378    1.6283   -3.4111 C   0  0  0  0  0  0  0  0  0  0  0  0
   -3.7342    1.1300   -2.9138 C   0  0  0  0  0  0  0  0  0  0  0  0
   -3.3733    1.3621   -1.5825 C   0  0  0  0  0  0  0  0  0  0  0  0
   -2.1100    0.8344   -1.0670 C   0  0  0  0  0  0  0  0  0  0  0  0
   -0.8173    1.2789   -1.3316 C   0  0  0  0  0  0  0  0  0  0  0  0
   -0.4334    2.4485   -2.1777 C   0  0  0  0  0  0  0  0  0  0  0  0
    0.0991    0.4063   -0.6533 C   0  0  0  0  0  0  0  0  0  0  0  0
    1.5665    0.4726   -0.6726 C   0  0  0  0  0  0  0  0  0  0  0  0
    2.1771    1.1139   -1.5199 O   0  0  0  0  0  0  0  0  0  0  0  0
    2.1817   -0.2203    0.3504 N   0  0  0  0  0  0  0  0  0  0  0  0
    3.6245   -0.2288    0.6048 C   0  0  2  0  0  0  0  0  0  0  0  0
    4.1519    1.1862    0.9476 C   0  0  0  0  0  0  0  0  0  0  0  0
    5.6566    1.1401    1.2673 C   0  0  1  0  0  0  0  0  0  0  0  0
    5.8917    0.2185    2.4746 C   0  0  0  0  0  0  0  0  0  0  0  0
    5.3974   -1.2012    2.1554 C   0  0  2  0  0  0  0  0  0  0  0  0
    6.1626   -1.7455    0.9395 C   0  0  0  0  0  0  0  0  0  0  0  0
    5.9282   -0.8361   -0.2765 C   0  0  2  0  0  0  0  0  0  0  0  0
    6.4167    0.5854    0.0505 C   0  0  0  0  0  0  0  0  0  0  0  0
    4.4236   -0.7926   -0.5978 C   0  0  0  0  0  0  0  0  0  0  0  0
    3.8974   -1.1504    1.8251 C   0  0  0  0  0  0  0  0  0  0  0  0
   -0.6811   -0.5402   -0.0101 C   0  0  0  0  0  0  0  0  0  0  0  0
   -2.0095   -0.2634   -0.2327 N   0  0  0  0  0  0  0  0  0  0  0  0
   -3.1210   -1.0728    0.2568 C   0  0  2  0  0  0  0  0  0  0  0  0
   -3.0281   -1.4714    1.7368 C   0  0  0  0  0  0  0  0  0  0  0  0
   -3.9334   -2.6908    1.8092 C   0  0  1  0  0  0  0  0  0  0  0  0
   -5.2864   -2.2571    1.8072 O   0  0  0  0  0  0  0  0  0  0  0  0
   -3.5992   -3.4676    0.5391 C   0  0  0  0  0  0  0  0  0  0  0  0
   -3.2708   -2.4018   -0.5134 C   0  0  1  0  0  0  0  0  0  0  0  0
   -4.3332   -2.3460   -1.4647 O   0  0  0  0  0  0  0  0  0  0  0  0
   -4.2209    2.1126   -0.7587 C   0  0  0  0  0  0  0  0  0  0  0  0
   -6.2501    3.1090    0.6790 H   0  0  0  0  0  0  0  0  0  0  0  0
   -6.0538    4.4838   -0.4367 H   0  0  0  0  0  0  0  0  0  0  0  0
   -7.3806    3.3166   -0.6579 H   0  0  0  0  0  0  0  0  0  0  0  0
   -6.7179    2.7525   -2.9851 H   0  0  0  0  0  0  0  0  0  0  0  0
   -5.2122    1.4512   -4.4478 H   0  0  0  0  0  0  0  0  0  0  0  0
   -3.0737    0.5686   -3.5706 H   0  0  0  0  0  0  0  0  0  0  0  0
    0.3003    3.0744   -1.6595 H   0  0  0  0  0  0  0  0  0  0  0  0
   -1.2928    3.0839   -2.4119 H   0  0  0  0  0  0  0  0  0  0  0  0
    0.0019    2.1052   -3.1215 H   0  0  0  0  0  0  0  0  0  0  0  0
    1.5801   -0.5213    1.1029 H   0  0  0  0  0  0  0  0  0  0  0  0
    3.9838    1.8787    0.1143 H   0  0  0  0  0  0  0  0  0  0  0  0
    3.6008    1.5971    1.8037 H   0  0  0  0  0  0  0  0  0  0  0  0
    6.0153    2.1494    1.4984 H   0  0  0  0  0  0  0  0  0  0  0  0
    5.3652    0.6103    3.3535 H   0  0  0  0  0  0  0  0  0  0  0  0
    6.9590    0.1959    2.7267 H   0  0  0  0  0  0  0  0  0  0  0  0
    5.5644   -1.8538    3.0196 H   0  0  0  0  0  0  0  0  0  0  0  0
    5.8311   -2.7665    0.7137 H   0  0  0  0  0  0  0  0  0  0  0  0
    7.2346   -1.8013    1.1651 H   0  0  0  0  0  0  0  0  0  0  0  0
    6.4783   -1.2263   -1.1402 H   0  0  0  0  0  0  0  0  0  0  0  0
    6.2674    1.2417   -0.8157 H   0  0  0  0  0  0  0  0  0  0  0  0
    7.4939    0.5718    0.2574 H   0  0  0  0  0  0  0  0  0  0  0  0
    4.0655   -1.7995   -0.8496 H   0  0  0  0  0  0  0  0  0  0  0  0
    4.2726   -0.1809   -1.4944 H   0  0  0  0  0  0  0  0  0  0  0  0
    3.5274   -2.1644    1.6221 H   0  0  0  0  0  0  0  0  0  0  0  0
    3.3401   -0.7917    2.7010 H   0  0  0  0  0  0  0  0  0  0  0  0
   -0.3878   -1.4071    0.5654 H   0  0  0  0  0  0  0  0  0  0  0  0
   -4.0357   -0.4832    0.1326 H   0  0  0  0  0  0  0  0  0  0  0  0
   -2.0125   -1.7487    2.0360 H   0  0  0  0  0  0  0  0  0  0  0  0
   -3.3660   -0.6536    2.3821 H   0  0  0  0  0  0  0  0  0  0  0  0
   -3.7644   -3.2811    2.7144 H   0  0  0  0  0  0  0  0  0  0  0  0
   -5.8490   -3.0192    1.5816 H   0  0  0  0  0  0  0  0  0  0  0  0
   -4.4131   -4.1290    0.2258 H   0  0  0  0  0  0  0  0  0  0  0  0
   -2.7025   -4.0720    0.7213 H   0  0  0  0  0  0  0  0  0  0  0  0
   -2.3654   -2.6855   -1.0613 H   0  0  0  0  0  0  0  0  0  0  0  0
   -4.2039   -1.5446   -2.0050 H   0  0  0  0  0  0  0  0  0  0  0  0
   -3.9287    2.3143    0.2699 H   0  0  0  0  0  0  0  0  0  0  0  0
  1  2  1  0
  2  3  2  0
  3  4  1  0
  4  5  2  0
  5  6  1  0
  6  7  1  0
  7  8  2  0
  8  9  1  0
  8 10  1  0
 10 11  1  0
 11 12  2  0
 11 13  1  0
 14 13  1  6
 14 15  1  0
 15 16  1  0
 16 17  1  0
 17 18  1  0
 18 19  1  0
 19 20  1  0
 20 21  1  0
 20 22  1  0
 18 23  1  0
 10 24  2  0
 24 25  1  0
 25 26  1  0
 26 27  1  0
 27 28  1  0
 28 29  1  0
 28 30  1  0
 30 31  1  0
 31 32  1  0
  6 33  2  0
 33  2  1  0
 25  7  1  0
 31 26  1  0
 22 14  1  0
 23 14  1  0
 21 16  1  0
  1 34  1  0
  1 35  1  0
  1 36  1  0
  3 37  1  0
  4 38  1  0
  5 39  1  0
  9 40  1  0
  9 41  1  0
  9 42  1  0
 13 43  1  0
 15 44  1  0
 15 45  1  0
 16 46  1  1
 17 47  1  0
 17 48  1  0
 18 49  1  1
 19 50  1  0
 19 51  1  0
 20 52  1  6
 21 53  1  0
 21 54  1  0
 22 55  1  0
 22 56  1  0
 23 57  1  0
 23 58  1  0
 24 59  1  0
 26 60  1  1
 27 61  1  0
 27 62  1  0
 28 63  1  1
 29 64  1  0
 30 65  1  0
 30 66  1  0
 31 67  1  6
 32 68  1  0
 33 69  1  0
M  END
>  <_SMILES>  (102) 
Cc1cccc(-c2c(C)c(C(=O)N[C@]34C[C@H]5C[C@H](C[C@H](C5)C3)C4)cn2[C@@H]2C[C@@H](O)C[C@H]2O)c1

$$$$

     RDKit          3D

 86 91  0  0  0  0  0  0  0  0999 V2000
    0.1547   -2.3924    0.8726 C   0  0  0  0  0  0  0  0  0  0  0  0
   -0.1112   -0.9810    0.4574 C   0  0  0  0  0  0  0  0  0  0  0  0
    0.7434    0.1422    0.7232 C   0  0  0  0  0  0  0  0  0  0  0  0
    2.0244    0.2335    1.4286 C   0  0  0  0  0  0  0  0  0  0  0  0
    2.3106    1.2017    2.1220 O   0  0  0  0  0  0  0  0  0  0  0  0
    2.8718   -0.8281    1.2099 N   0  0  0  0  0  0  0  0  0  0  0  0
    4.2175   -0.8653    1.7506 C   0  0  0  0  0  0  0  0  0  0  0  0
    5.3103   -0.3984    0.7620 C   0  0  2  0  0  0  0  0  0  0  0  0
    6.6934   -0.5314    1.4558 C   0  0  0  0  0  0  0  0  0  0  0  0
    7.8257   -0.0898    0.5144 C   0  0  1  0  0  0  0  0  0  0  0  0
    7.8083   -0.9712   -0.7444 C   0  0  0  0  0  0  0  0  0  0  0  0
    6.4580   -0.8318   -1.4647 C   0  0  2  0  0  0  0  0  0  0  0  0
    6.2429    0.6389   -1.8583 C   0  0  0  0  0  0  0  0  0  0  0  0
    6.2537    1.5271   -0.6032 C   0  0  2  0  0  0  0  0  0  0  0  0
    7.6048    1.3769    0.1130 C   0  0  0  0  0  0  0  0  0  0  0  0
    5.1229    1.0814    0.3414 C   0  0  0  0  0  0  0  0  0  0  0  0
    5.3274   -1.2737   -0.5183 C   0  0  0  0  0  0  0  0  0  0  0  0
    0.1071    1.2432    0.1878 C   0  0  0  0  0  0  0  0  0  0  0  0
   -1.0507    0.8524   -0.4279 N   0  0  0  0  0  0  0  0  0  0  0  0
   -1.8480    1.7796   -1.2249 C   0  0  0  0  0  0  0  0  0  0  0  0
   -2.6004    2.8487   -0.4107 C   0  0  1  0  0  0  0  0  0  0  0  0
   -3.1976    3.9007   -1.3679 C   0  0  0  0  0  0  0  0  0  0  0  0
   -4.3881    4.6767   -0.7921 C   0  0  0  0  0  0  0  0  0  0  0  0
   -4.3822    4.7225    0.7297 C   0  0  2  0  0  0  0  0  0  0  0  0
   -3.1955    5.3697    1.1782 O   0  0  0  0  0  0  0  0  0  0  0  0
   -4.4213    3.3140    1.3271 C   0  0  0  0  0  0  0  0  0  0  0  0
   -3.6882    2.2557    0.4896 C   0  0  0  0  0  0  0  0  0  0  0  0
   -1.2382   -0.5016   -0.2201 C   0  0  0  0  0  0  0  0  0  0  0  0
   -2.4464   -1.2592   -0.6498 C   0  0  0  0  0  0  0  0  0  0  0  0
   -3.3111   -1.4997    0.5408 N   0  0  0  0  0  0  0  0  0  0  0  0
   -4.5189   -2.3668    0.4092 C   0  0  0  0  0  0  0  0  0  0  0  0
   -4.1239   -3.8434    0.2876 C   0  0  0  0  0  0  0  0  0  0  0  0
   -5.2009   -4.6874   -0.4027 C   0  0  0  0  0  0  0  0  0  0  0  0
   -6.5993   -4.1217   -0.1881 C   0  0  0  0  0  0  0  0  0  0  0  0
   -6.7372   -2.6998   -0.7398 C   0  0  0  0  0  0  0  0  0  0  0  0
   -5.4275   -1.9048   -0.7251 C   0  0  0  0  0  0  0  0  0  0  0  0
    0.8504   -2.8666    0.1734 H   0  0  0  0  0  0  0  0  0  0  0  0
   -0.7606   -2.9906    0.8887 H   0  0  0  0  0  0  0  0  0  0  0  0
    0.5847   -2.4289    1.8785 H   0  0  0  0  0  0  0  0  0  0  0  0
    2.6408   -1.4808    0.4769 H   0  0  0  0  0  0  0  0  0  0  0  0
    4.2529   -0.2632    2.6662 H   0  0  0  0  0  0  0  0  0  0  0  0
    4.3974   -1.9072    2.0403 H   0  0  0  0  0  0  0  0  0  0  0  0
    6.7177    0.0777    2.3688 H   0  0  0  0  0  0  0  0  0  0  0  0
    6.8614   -1.5706    1.7674 H   0  0  0  0  0  0  0  0  0  0  0  0
    8.7906   -0.1921    1.0235 H   0  0  0  0  0  0  0  0  0  0  0  0
    7.9811   -2.0194   -0.4711 H   0  0  0  0  0  0  0  0  0  0  0  0
    8.6238   -0.6792   -1.4174 H   0  0  0  0  0  0  0  0  0  0  0  0
    6.4525   -1.4589   -2.3632 H   0  0  0  0  0  0  0  0  0  0  0  0
    7.0306    0.9602   -2.5509 H   0  0  0  0  0  0  0  0  0  0  0  0
    5.2888    0.7498   -2.3881 H   0  0  0  0  0  0  0  0  0  0  0  0
    6.1026    2.5737   -0.8904 H   0  0  0  0  0  0  0  0  0  0  0  0
    7.6309    2.0177    1.0029 H   0  0  0  0  0  0  0  0  0  0  0  0
    8.4166    1.7118   -0.5443 H   0  0  0  0  0  0  0  0  0  0  0  0
    5.1076    1.7276    1.2282 H   0  0  0  0  0  0  0  0  0  0  0  0
    4.1624    1.2190   -0.1695 H   0  0  0  0  0  0  0  0  0  0  0  0
    5.4614   -2.3301   -0.2522 H   0  0  0  0  0  0  0  0  0  0  0  0
    4.3696   -1.2006   -1.0482 H   0  0  0  0  0  0  0  0  0  0  0  0
    0.4258    2.2808    0.1798 H   0  0  0  0  0  0  0  0  0  0  0  0
   -1.1405    2.2638   -1.9115 H   0  0  0  0  0  0  0  0  0  0  0  0
   -2.5382    1.2081   -1.8500 H   0  0  0  0  0  0  0  0  0  0  0  0
   -1.8732    3.3559    0.2372 H   0  0  0  0  0  0  0  0  0  0  0  0
   -3.5190    3.4329   -2.3073 H   0  0  0  0  0  0  0  0  0  0  0  0
   -2.4033    4.6069   -1.6425 H   0  0  0  0  0  0  0  0  0  0  0  0
   -5.3208    4.2098   -1.1327 H   0  0  0  0  0  0  0  0  0  0  0  0
   -4.3734    5.6931   -1.2033 H   0  0  0  0  0  0  0  0  0  0  0  0
   -5.2333    5.3010    1.1052 H   0  0  0  0  0  0  0  0  0  0  0  0
   -3.2495    6.3058    0.9142 H   0  0  0  0  0  0  0  0  0  0  0  0
   -3.9866    3.3320    2.3344 H   0  0  0  0  0  0  0  0  0  0  0  0
   -5.4638    2.9915    1.4389 H   0  0  0  0  0  0  0  0  0  0  0  0
   -3.2598    1.5173    1.1751 H   0  0  0  0  0  0  0  0  0  0  0  0
   -4.4197    1.7210   -0.1302 H   0  0  0  0  0  0  0  0  0  0  0  0
   -3.0478   -0.7318   -1.3904 H   0  0  0  0  0  0  0  0  0  0  0  0
   -2.1590   -2.2291   -1.0652 H   0  0  0  0  0  0  0  0  0  0  0  0
   -3.5969   -0.5804    0.8965 H   0  0  0  0  0  0  0  0  0  0  0  0
   -2.7095   -1.8706    1.2877 H   0  0  0  0  0  0  0  0  0  0  0  0
   -5.0532   -2.2310    1.3585 H   0  0  0  0  0  0  0  0  0  0  0  0
   -3.9476   -4.2384    1.2965 H   0  0  0  0  0  0  0  0  0  0  0  0
   -3.1822   -3.9820   -0.2538 H   0  0  0  0  0  0  0  0  0  0  0  0
   -5.1486   -5.7193   -0.0374 H   0  0  0  0  0  0  0  0  0  0  0  0
   -4.9933   -4.7265   -1.4796 H   0  0  0  0  0  0  0  0  0  0  0  0
   -7.3474   -4.7708   -0.6572 H   0  0  0  0  0  0  0  0  0  0  0  0
   -6.8223   -4.1167    0.8864 H   0  0  0  0  0  0  0  0  0  0  0  0
   -7.1141   -2.7362   -1.7692 H   0  0  0  0  0  0  0  0  0  0  0  0
   -7.4990   -2.1697   -0.1553 H   0  0  0  0  0  0  0  0  0  0  0  0
   -4.9263   -2.0499   -1.6904 H   0  0  0  0  0  0  0  0  0  0  0  0
   -5.6506   -0.8344   -0.6434 H   0  0  0  0  0  0  0  0  0  0  0  0
  1  2  1  0
  2  3  1  0
  3  4  1  0
  4  5  2  0
  4  6  1  0
  6  7  1  0
  8  7  1  1
  8  9  1  0
  9 10  1  0
 10 11  1  0
 11 12  1  0
 12 13  1  0
 13 14  1  0
 14 15  1  0
 14 16  1  0
 12 17  1  0
  3 18  2  0
 18 19  1  0
 19 20  1  0
 20 21  1  0
 21 22  1  0
 22 23  1  0
 23 24  1  0
 24 25  1  0
 24 26  1  0
 26 27  1  0
 19 28  1  0
 28 29  1  0
 29 30  1  0
 30 31  1  0
 31 32  1  0
 32 33  1  0
 33 34  1  0
 34 35  1  0
 35 36  1  0
 28  2  2  0
 36 31  1  0
 16  8  1  0
 27 21  1  0
 17  8  1  0
 15 10  1  0
  1 37  1  0
  1 38  1  0
  1 39  1  0
  6 40  1  0
  7 41  1  0
  7 42  1  0
  9 43  1  0
  9 44  1  0
 10 45  1  1
 11 46  1  0
 11 47  1  0
 12 48  1  6
 13 49  1  0
 13 50  1  0
 14 51  1  6
 15 52  1  0
 15 53  1  0
 16 54  1  0
 16 55  1  0
 17 56  1  0
 17 57  1  0
 18 58  1  0
 20 59  1  0
 20 60  1  0
 21 61  1  1
 22 62  1  0
 22 63  1  0
 23 64  1  0
 23 65  1  0
 24 66  1  1
 25 67  1  0
 26 68  1  0
 26 69  1  0
 27 70  1  0
 27 71  1  0
 29 72  1  0
 29 73  1  0
 30 74  1  0
 30 75  1  0
 31 76  1  0
 32 77  1  0
 32 78  1  0
 33 79  1  0
 33 80  1  0
 34 81  1  0
 34 82  1  0
 35 83  1  0
 35 84  1  0
 36 85  1  0
 36 86  1  0
M  CHG  1  30   1
M  END
>  <_SMILES>  (103) 
Cc1c(C(=O)NC[C@]23C[C@H]4C[C@H](C[C@H](C4)C2)C3)cn(C[C@H]2CC[C@H](O)CC2)c1C[NH2+]C1CCCCC1

$$$$

     RDKit          3D

 93 99  0  0  0  0  0  0  0  0999 V2000
    1.9020   -0.1689    1.1042 C   0  0  0  0  0  0  0  0  0  0  0  0
    1.0589    0.1945   -0.0755 C   0  0  0  0  0  0  0  0  0  0  0  0
    1.5308    0.4469   -1.4116 C   0  0  0  0  0  0  0  0  0  0  0  0
    2.8759    0.4007   -1.9934 C   0  0  0  0  0  0  0  0  0  0  0  0
    3.1792    1.0582   -2.9835 O   0  0  0  0  0  0  0  0  0  0  0  0
    3.7417   -0.4783   -1.3796 N   0  0  0  0  0  0  0  0  0  0  0  0
    5.0468   -0.7468   -1.9500 C   0  0  0  0  0  0  0  0  0  0  0  0
    6.0328   -1.4058   -0.9633 C   0  0  2  0  0  0  0  0  0  0  0  0
    5.5402   -2.8027   -0.5041 C   0  0  0  0  0  0  0  0  0  0  0  0
    6.5622   -3.4538    0.4451 C   0  0  1  0  0  0  0  0  0  0  0  0
    7.9056   -3.6116   -0.2840 C   0  0  0  0  0  0  0  0  0  0  0  0
    8.4272   -2.2358   -0.7270 C   0  0  2  0  0  0  0  0  0  0  0  0
    8.6131   -1.3399    0.5079 C   0  0  0  0  0  0  0  0  0  0  0  0
    7.2731   -1.1708    1.2413 C   0  0  2  0  0  0  0  0  0  0  0  0
    6.7549   -2.5519    1.6756 C   0  0  0  0  0  0  0  0  0  0  0  0
    6.2512   -0.5217    0.2911 C   0  0  0  0  0  0  0  0  0  0  0  0
    7.4021   -1.5874   -1.6720 C   0  0  0  0  0  0  0  0  0  0  0  0
    0.4195    0.8166   -2.1441 C   0  0  0  0  0  0  0  0  0  0  0  0
   -0.6937    0.7640   -1.3488 N   0  0  0  0  0  0  0  0  0  0  0  0
   -2.0299    1.0143   -1.8717 C   0  0  0  0  0  0  0  0  0  0  0  0
   -2.8622    2.1183   -1.1955 C   0  0  1  0  0  0  0  0  0  0  0  0
   -2.1024    3.4471   -1.0590 C   0  0  0  0  0  0  0  0  0  0  0  0
   -3.0122    4.6570   -0.8051 C   0  0  0  0  0  0  0  0  0  0  0  0
   -4.4034    4.2813   -0.3009 C   0  0  2  0  0  0  0  0  0  0  0  0
   -4.3148    3.6375    0.9740 O   0  0  0  0  0  0  0  0  0  0  0  0
   -5.1132    3.3345   -1.2691 C   0  0  0  0  0  0  0  0  0  0  0  0
   -4.1753    2.3358   -1.9603 C   0  0  0  0  0  0  0  0  0  0  0  0
   -0.3261    0.3880   -0.0706 C   0  0  0  0  0  0  0  0  0  0  0  0
   -1.2468    0.3293    1.0651 C   0  0  0  0  0  0  0  0  0  0  0  0
   -1.1563    1.2954    2.0742 C   0  0  0  0  0  0  0  0  0  0  0  0
   -2.0397    1.2805    3.1499 C   0  0  0  0  0  0  0  0  0  0  0  0
   -3.0327    0.3061    3.2177 C   0  0  0  0  0  0  0  0  0  0  0  0
   -3.1467   -0.6707    2.2142 C   0  0  0  0  0  0  0  0  0  0  0  0
   -4.2561   -1.6829    2.2759 C   0  0  0  0  0  0  0  0  0  0  0  0
   -5.4938   -1.3585    1.4609 N   0  0  0  0  0  0  0  0  0  0  0  0
   -6.0697    0.0120    1.7457 C   0  0  0  0  0  0  0  0  0  0  0  0
   -7.4422    0.1126    1.0909 C   0  0  0  0  0  0  0  0  0  0  0  0
   -7.3851   -0.1862   -0.4047 C   0  0  0  0  0  0  0  0  0  0  0  0
   -6.6863   -1.5116   -0.6907 C   0  0  0  0  0  0  0  0  0  0  0  0
   -5.3216   -1.5867   -0.0182 C   0  0  0  0  0  0  0  0  0  0  0  0
   -2.2298   -0.6631    1.1500 C   0  0  0  0  0  0  0  0  0  0  0  0
    2.8265    0.4168    1.1150 H   0  0  0  0  0  0  0  0  0  0  0  0
    2.1569   -1.2329    1.0739 H   0  0  0  0  0  0  0  0  0  0  0  0
    1.3926    0.0209    2.0527 H   0  0  0  0  0  0  0  0  0  0  0  0
    3.3089   -1.2021   -0.8273 H   0  0  0  0  0  0  0  0  0  0  0  0
    4.8875   -1.3912   -2.8232 H   0  0  0  0  0  0  0  0  0  0  0  0
    5.4616    0.1988   -2.3207 H   0  0  0  0  0  0  0  0  0  0  0  0
    4.5768   -2.7252    0.0138 H   0  0  0  0  0  0  0  0  0  0  0  0
    5.3793   -3.4514   -1.3747 H   0  0  0  0  0  0  0  0  0  0  0  0
    6.1966   -4.4370    0.7618 H   0  0  0  0  0  0  0  0  0  0  0  0
    8.6361   -4.0943    0.3768 H   0  0  0  0  0  0  0  0  0  0  0  0
    7.7844   -4.2657   -1.1562 H   0  0  0  0  0  0  0  0  0  0  0  0
    9.3852   -2.3534   -1.2457 H   0  0  0  0  0  0  0  0  0  0  0  0
    9.3564   -1.7819    1.1827 H   0  0  0  0  0  0  0  0  0  0  0  0
    9.0013   -0.3596    0.2052 H   0  0  0  0  0  0  0  0  0  0  0  0
    7.4124   -0.5348    2.1227 H   0  0  0  0  0  0  0  0  0  0  0  0
    7.4643   -3.0157    2.3719 H   0  0  0  0  0  0  0  0  0  0  0  0
    5.8052   -2.4437    2.2138 H   0  0  0  0  0  0  0  0  0  0  0  0
    6.6041    0.4745   -0.0054 H   0  0  0  0  0  0  0  0  0  0  0  0
    5.3060   -0.3744    0.8280 H   0  0  0  0  0  0  0  0  0  0  0  0
    7.7831   -0.6160   -2.0131 H   0  0  0  0  0  0  0  0  0  0  0  0
    7.2837   -2.2103   -2.5682 H   0  0  0  0  0  0  0  0  0  0  0  0
    0.3558    1.1060   -3.1869 H   0  0  0  0  0  0  0  0  0  0  0  0
   -1.9221    1.2478   -2.9389 H   0  0  0  0  0  0  0  0  0  0  0  0
   -2.5611    0.0558   -1.8195 H   0  0  0  0  0  0  0  0  0  0  0  0
   -3.1307    1.7711   -0.1935 H   0  0  0  0  0  0  0  0  0  0  0  0
   -1.5097    3.6442   -1.9613 H   0  0  0  0  0  0  0  0  0  0  0  0
   -1.3814    3.3671   -0.2369 H   0  0  0  0  0  0  0  0  0  0  0  0
   -3.1161    5.2235   -1.7392 H   0  0  0  0  0  0  0  0  0  0  0  0
   -2.5167    5.3219   -0.0875 H   0  0  0  0  0  0  0  0  0  0  0  0
   -5.0122    5.1811   -0.1597 H   0  0  0  0  0  0  0  0  0  0  0  0
   -3.8223    4.2439    1.5574 H   0  0  0  0  0  0  0  0  0  0  0  0
   -5.6221    3.9164   -2.0472 H   0  0  0  0  0  0  0  0  0  0  0  0
   -5.8904    2.7808   -0.7296 H   0  0  0  0  0  0  0  0  0  0  0  0
   -4.7029    1.3844   -2.0985 H   0  0  0  0  0  0  0  0  0  0  0  0
   -3.9471    2.7069   -2.9684 H   0  0  0  0  0  0  0  0  0  0  0  0
   -0.3937    2.0709    2.0195 H   0  0  0  0  0  0  0  0  0  0  0  0
   -1.9536    2.0342    3.9296 H   0  0  0  0  0  0  0  0  0  0  0  0
   -3.7135    0.3228    4.0673 H   0  0  0  0  0  0  0  0  0  0  0  0
   -3.9027   -2.6690    1.9512 H   0  0  0  0  0  0  0  0  0  0  0  0
   -4.6024   -1.8051    3.3098 H   0  0  0  0  0  0  0  0  0  0  0  0
   -6.1924   -2.0407    1.7802 H   0  0  0  0  0  0  0  0  0  0  0  0
   -6.1541    0.1171    2.8319 H   0  0  0  0  0  0  0  0  0  0  0  0
   -5.3814    0.7640    1.3457 H   0  0  0  0  0  0  0  0  0  0  0  0
   -8.1308   -0.5918    1.5743 H   0  0  0  0  0  0  0  0  0  0  0  0
   -7.8518    1.1165    1.2496 H   0  0  0  0  0  0  0  0  0  0  0  0
   -6.8490    0.6203   -0.9165 H   0  0  0  0  0  0  0  0  0  0  0  0
   -8.3997   -0.2046   -0.8182 H   0  0  0  0  0  0  0  0  0  0  0  0
   -7.3161   -2.3379   -0.3381 H   0  0  0  0  0  0  0  0  0  0  0  0
   -6.5702   -1.6398   -1.7727 H   0  0  0  0  0  0  0  0  0  0  0  0
   -4.8809   -2.5792   -0.1555 H   0  0  0  0  0  0  0  0  0  0  0  0
   -4.6425   -0.8216   -0.4066 H   0  0  0  0  0  0  0  0  0  0  0  0
   -2.2721   -1.4239    0.3737 H   0  0  0  0  0  0  0  0  0  0  0  0
  1  2  1  0
  2  3  1  0
  3  4  1  0
  4  5  2  0
  4  6  1  0
  6  7  1  0
  8  7  1  6
  8  9  1  0
  9 10  1  0
 10 11  1  0
 11 12  1  0
 12 13  1  0
 13 14  1  0
 14 15  1  0
 14 16  1  0
 12 17  1  0
  3 18  2  0
 18 19  1  0
 19 20  1  0
 20 21  1  0
 21 22  1  0
 22 23  1  0
 23 24  1  0
 24 25  1  0
 24 26  1  0
 26 27  1  0
 19 28  1  0
 28 29  1  0
 29 30  1  0
 30 31  2  0
 31 32  1  0
 32 33  2  0
 33 34  1  0
 34 35  1  0
 35 36  1  0
 36 37  1  0
 37 38  1  0
 38 39  1  0
 39 40  1  0
 33 41  1  0
 28  2  2  0
 41 29  2  0
 16  8  1  0
 27 21  1  0
 40 35  1  0
 17  8  1  0
 15 10  1  0
  1 42  1  0
  1 43  1  0
  1 44  1  0
  6 45  1  0
  7 46  1  0
  7 47  1  0
  9 48  1  0
  9 49  1  0
 10 50  1  1
 11 51  1  0
 11 52  1  0
 12 53  1  6
 13 54  1  0
 13 55  1  0
 14 56  1  1
 15 57  1  0
 15 58  1  0
 16 59  1  0
 16 60  1  0
 17 61  1  0
 17 62  1  0
 18 63  1  0
 20 64  1  0
 20 65  1  0
 21 66  1  1
 22 67  1  0
 22 68  1  0
 23 69  1  0
 23 70  1  0
 24 71  1  1
 25 72  1  0
 26 73  1  0
 26 74  1  0
 27 75  1  0
 27 76  1  0
 30 77  1  0
 31 78  1  0
 32 79  1  0
 34 80  1  0
 34 81  1  0
 35 82  1  0
 36 83  1  0
 36 84  1  0
 37 85  1  0
 37 86  1  0
 38 87  1  0
 38 88  1  0
 39 89  1  0
 39 90  1  0
 40 91  1  0
 40 92  1  0
 41 93  1  0
M  CHG  1  35   1
M  END
>  <_SMILES>  (104) 
Cc1c(C(=O)NC[C@]23C[C@H]4C[C@H](C[C@H](C4)C2)C3)cn(C[C@H]2CC[C@H](O)CC2)c1-c1cccc(C[NH+]2CCCCC2)c1

$$$$

     RDKit          3D

 80 85  0  0  0  0  0  0  0  0999 V2000
    0.8980   -1.4306   -0.9390 C   0  0  0  0  0  0  0  0  0  0  0  0
   -0.1250   -0.6797   -0.1476 C   0  0  0  0  0  0  0  0  0  0  0  0
    0.1381    0.4618    0.6821 C   0  0  0  0  0  0  0  0  0  0  0  0
    1.3672    1.2197    0.9341 C   0  0  0  0  0  0  0  0  0  0  0  0
    1.5944    1.7393    2.0206 O   0  0  0  0  0  0  0  0  0  0  0  0
    2.2010    1.3394   -0.1543 N   0  0  0  0  0  0  0  0  0  0  0  0
    3.4427    2.0875   -0.1020 C   0  0  0  0  0  0  0  0  0  0  0  0
    4.6990    1.1906   -0.1112 C   0  0  2  0  0  0  0  0  0  0  0  0
    5.9604    2.0931   -0.0456 C   0  0  0  0  0  0  0  0  0  0  0  0
    7.2426    1.2443   -0.0559 C   0  0  1  0  0  0  0  0  0  0  0  0
    7.2342    0.3017    1.1579 C   0  0  0  0  0  0  0  0  0  0  0  0
    6.0069   -0.6212    1.0980 C   0  0  2  0  0  0  0  0  0  0  0  0
    6.0543   -1.4462   -0.1988 C   0  0  0  0  0  0  0  0  0  0  0  0
    6.0596   -0.5109   -1.4192 C   0  0  2  0  0  0  0  0  0  0  0  0
    7.2870    0.4111   -1.3466 C   0  0  0  0  0  0  0  0  0  0  0  0
    4.7802    0.3443   -1.4079 C   0  0  0  0  0  0  0  0  0  0  0  0
    4.7267    0.2328    1.1074 C   0  0  0  0  0  0  0  0  0  0  0  0
   -1.0460    0.7343    1.3328 C   0  0  0  0  0  0  0  0  0  0  0  0
   -2.0291   -0.1036    0.8827 N   0  0  0  0  0  0  0  0  0  0  0  0
   -3.3818   -0.0459    1.4264 C   0  0  0  0  0  0  0  0  0  0  0  0
   -4.2967    0.9885    0.7359 C   0  0  1  0  0  0  0  0  0  0  0  0
   -5.7672    0.6602    1.0537 C   0  0  0  0  0  0  0  0  0  0  0  0
   -6.7275    1.6722    0.4381 C   0  0  0  0  0  0  0  0  0  0  0  0
   -6.3948    3.0954    0.8749 C   0  0  2  0  0  0  0  0  0  0  0  0
   -7.2757    4.0018    0.2267 O   0  0  0  0  0  0  0  0  0  0  0  0
   -4.9447    3.4446    0.5527 C   0  0  0  0  0  0  0  0  0  0  0  0
   -3.9704    2.4343    1.1551 C   0  0  0  0  0  0  0  0  0  0  0  0
   -1.4849   -0.9982   -0.0252 C   0  0  0  0  0  0  0  0  0  0  0  0
   -2.2137   -2.1426   -0.6933 C   0  0  2  0  0  0  0  0  0  0  0  0
   -3.4258   -1.7168   -1.5280 C   0  0  0  0  0  0  0  0  0  0  0  0
   -3.9487   -2.8936   -2.3071 N   0  0  0  0  0  0  0  0  0  0  0  0
   -3.9758   -4.2099   -1.5753 C   0  0  0  0  0  0  0  0  0  0  0  0
   -3.8094   -4.0355   -0.0692 C   0  0  1  0  0  0  0  0  0  0  0  0
   -3.7827   -5.2601    0.5132 F   0  0  0  0  0  0  0  0  0  0  0  0
   -2.5212   -3.2957    0.2789 C   0  0  0  0  0  0  0  0  0  0  0  0
    1.8852   -1.3662   -0.4722 H   0  0  0  0  0  0  0  0  0  0  0  0
    0.9601   -1.0294   -1.9551 H   0  0  0  0  0  0  0  0  0  0  0  0
    0.6547   -2.4955   -1.0003 H   0  0  0  0  0  0  0  0  0  0  0  0
    1.8749    1.0178   -1.0521 H   0  0  0  0  0  0  0  0  0  0  0  0
    3.4426    2.7456   -0.9789 H   0  0  0  0  0  0  0  0  0  0  0  0
    3.4460    2.7324    0.7843 H   0  0  0  0  0  0  0  0  0  0  0  0
    5.9370    2.7098    0.8622 H   0  0  0  0  0  0  0  0  0  0  0  0
    5.9731    2.7869   -0.8963 H   0  0  0  0  0  0  0  0  0  0  0  0
    8.1197    1.8994   -0.0088 H   0  0  0  0  0  0  0  0  0  0  0  0
    7.2193    0.8857    2.0864 H   0  0  0  0  0  0  0  0  0  0  0  0
    8.1530   -0.2973    1.1734 H   0  0  0  0  0  0  0  0  0  0  0  0
    6.0079   -1.2933    1.9634 H   0  0  0  0  0  0  0  0  0  0  0  0
    6.9511   -2.0779   -0.2077 H   0  0  0  0  0  0  0  0  0  0  0  0
    5.1899   -2.1199   -0.2465 H   0  0  0  0  0  0  0  0  0  0  0  0
    6.0979   -1.1046   -2.3393 H   0  0  0  0  0  0  0  0  0  0  0  0
    8.2066   -0.1863   -1.3754 H   0  0  0  0  0  0  0  0  0  0  0  0
    7.3105    1.0738   -2.2203 H   0  0  0  0  0  0  0  0  0  0  0  0
    4.7674    0.9997   -2.2882 H   0  0  0  0  0  0  0  0  0  0  0  0
    3.9083   -0.3149   -1.4945 H   0  0  0  0  0  0  0  0  0  0  0  0
    3.8552   -0.4331    1.0957 H   0  0  0  0  0  0  0  0  0  0  0  0
    4.6731    0.8075    2.0409 H   0  0  0  0  0  0  0  0  0  0  0  0
   -1.2469    1.4854    2.0891 H   0  0  0  0  0  0  0  0  0  0  0  0
   -3.8076   -1.0492    1.3429 H   0  0  0  0  0  0  0  0  0  0  0  0
   -3.2957    0.1615    2.5006 H   0  0  0  0  0  0  0  0  0  0  0  0
   -4.1604    0.9191   -0.3514 H   0  0  0  0  0  0  0  0  0  0  0  0
   -5.9151    0.6373    2.1412 H   0  0  0  0  0  0  0  0  0  0  0  0
   -6.0159   -0.3400    0.6794 H   0  0  0  0  0  0  0  0  0  0  0  0
   -7.7594    1.4302    0.7202 H   0  0  0  0  0  0  0  0  0  0  0  0
   -6.6949    1.6005   -0.6568 H   0  0  0  0  0  0  0  0  0  0  0  0
   -6.5642    3.1941    1.9534 H   0  0  0  0  0  0  0  0  0  0  0  0
   -7.0155    4.0885   -0.7054 H   0  0  0  0  0  0  0  0  0  0  0  0
   -4.8042    3.4882   -0.5353 H   0  0  0  0  0  0  0  0  0  0  0  0
   -4.7167    4.4522    0.9206 H   0  0  0  0  0  0  0  0  0  0  0  0
   -3.9948    2.5191    2.2489 H   0  0  0  0  0  0  0  0  0  0  0  0
   -2.9589    2.7045    0.8349 H   0  0  0  0  0  0  0  0  0  0  0  0
   -1.5152   -2.5641   -1.4309 H   0  0  0  0  0  0  0  0  0  0  0  0
   -3.1787   -0.9407   -2.2596 H   0  0  0  0  0  0  0  0  0  0  0  0
   -4.2613   -1.3708   -0.9160 H   0  0  0  0  0  0  0  0  0  0  0  0
   -4.8953   -2.6727   -2.6501 H   0  0  0  0  0  0  0  0  0  0  0  0
   -3.3815   -3.0089   -3.1607 H   0  0  0  0  0  0  0  0  0  0  0  0
   -4.9227   -4.6997   -1.8225 H   0  0  0  0  0  0  0  0  0  0  0  0
   -3.1633   -4.8180   -1.9880 H   0  0  0  0  0  0  0  0  0  0  0  0
   -4.6725   -3.4991    0.3410 H   0  0  0  0  0  0  0  0  0  0  0  0
   -1.6816   -4.0040    0.2695 H   0  0  0  0  0  0  0  0  0  0  0  0
   -2.5821   -2.9600    1.3208 H   0  0  0  0  0  0  0  0  0  0  0  0
  1  2  1  0
  2  3  1  0
  3  4  1  0
  4  5  2  0
  4  6  1  0
  6  7  1  0
  8  7  1  6
  8  9  1  0
  9 10  1  0
 10 11  1  0
 11 12  1  0
 12 13  1  0
 13 14  1  0
 14 15  1  0
 14 16  1  0
 12 17  1  0
  3 18  2  0
 18 19  1  0
 19 20  1  0
 20 21  1  0
 21 22  1  0
 22 23  1  0
 23 24  1  0
 24 25  1  0
 24 26  1  0
 26 27  1  0
 19 28  1  0
 28 29  1  0
 29 30  1  0
 30 31  1  0
 31 32  1  0
 32 33  1  0
 33 34  1  0
 33 35  1  0
 28  2  2  0
 35 29  1  0
 16  8  1  0
 27 21  1  0
 17  8  1  0
 15 10  1  0
  1 36  1  0
  1 37  1  0
  1 38  1  0
  6 39  1  0
  7 40  1  0
  7 41  1  0
  9 42  1  0
  9 43  1  0
 10 44  1  1
 11 45  1  0
 11 46  1  0
 12 47  1  1
 13 48  1  0
 13 49  1  0
 14 50  1  6
 15 51  1  0
 15 52  1  0
 16 53  1  0
 16 54  1  0
 17 55  1  0
 17 56  1  0
 18 57  1  0
 20 58  1  0
 20 59  1  0
 21 60  1  6
 22 61  1  0
 22 62  1  0
 23 63  1  0
 23 64  1  0
 24 65  1  1
 25 66  1  0
 26 67  1  0
 26 68  1  0
 27 69  1  0
 27 70  1  0
 29 71  1  6
 30 72  1  0
 30 73  1  0
 31 74  1  0
 31 75  1  0
 32 76  1  0
 32 77  1  0
 33 78  1  1
 35 79  1  0
 35 80  1  0
M  CHG  1  31   1
M  END
>  <_SMILES>  (105) 
Cc1c(C(=O)NC[C@]23C[C@H]4C[C@H](C[C@H](C4)C2)C3)cn(C[C@H]2CC[C@H](O)CC2)c1[C@@H]1C[NH2+]C[C@@H](F)C1

$$$$

     RDKit          3D

 70 75  0  0  0  0  0  0  0  0999 V2000
   -1.2047   -3.1107   -0.9975 C   0  0  0  0  0  0  0  0  0  0  0  0
   -1.4159   -1.8292   -0.2577 C   0  0  0  0  0  0  0  0  0  0  0  0
   -0.4355   -1.1797    0.5679 C   0  0  0  0  0  0  0  0  0  0  0  0
    0.9304   -1.6428    0.8478 C   0  0  0  0  0  0  0  0  0  0  0  0
    1.3280   -2.7551    0.5145 O   0  0  0  0  0  0  0  0  0  0  0  0
    1.7382   -0.7312    1.4945 N   0  0  0  0  0  0  0  0  0  0  0  0
    3.1294   -0.9967    1.7965 C   0  0  0  0  0  0  0  0  0  0  0  0
    4.1190   -0.3791    0.7830 C   0  0  2  0  0  0  0  0  0  0  0  0
    3.9302   -0.9621   -0.6408 C   0  0  0  0  0  0  0  0  0  0  0  0
    4.9592   -0.3624   -1.6157 C   0  0  1  0  0  0  0  0  0  0  0  0
    4.7785    1.1638   -1.6652 C   0  0  0  0  0  0  0  0  0  0  0  0
    4.9918    1.7653   -0.2664 C   0  0  2  0  0  0  0  0  0  0  0  0
    6.4103    1.4280    0.2194 C   0  0  0  0  0  0  0  0  0  0  0  0
    6.5977   -0.0962    0.2764 C   0  0  2  0  0  0  0  0  0  0  0  0
    6.3777   -0.6896   -1.1239 C   0  0  0  0  0  0  0  0  0  0  0  0
    5.5666   -0.6960    1.2464 C   0  0  0  0  0  0  0  0  0  0  0  0
    3.9632    1.1621    0.7069 C   0  0  0  0  0  0  0  0  0  0  0  0
   -1.0497   -0.0378    1.0499 C   0  0  0  0  0  0  0  0  0  0  0  0
   -2.3392    0.0343    0.5645 N   0  0  0  0  0  0  0  0  0  0  0  0
   -3.2279    1.1483    0.9082 C   0  0  1  0  0  0  0  0  0  0  0  0
   -3.3057    2.2050   -0.2094 C   0  0  0  0  0  0  0  0  0  0  0  0
   -4.5648    3.0765   -0.1285 C   0  0  0  0  0  0  0  0  0  0  0  0
   -5.0208    3.2731    1.3099 C   0  0  2  0  0  0  0  0  0  0  0  0
   -3.9857    3.8421    1.9952 F   0  0  0  0  0  0  0  0  0  0  0  0
   -5.3736    1.9547    1.9973 C   0  0  0  0  0  0  0  0  0  0  0  0
   -4.6176    0.7507    1.4209 C   0  0  0  0  0  0  0  0  0  0  0  0
   -2.5777   -1.0578   -0.2466 C   0  0  0  0  0  0  0  0  0  0  0  0
   -3.8328   -1.3412   -0.9399 C   0  0  0  0  0  0  0  0  0  0  0  0
   -4.0946   -0.7806   -2.1964 C   0  0  0  0  0  0  0  0  0  0  0  0
   -5.2866   -1.0736   -2.8612 C   0  0  0  0  0  0  0  0  0  0  0  0
   -6.2040   -1.9379   -2.2744 C   0  0  0  0  0  0  0  0  0  0  0  0
   -7.3476   -2.2173   -2.9131 F   0  0  0  0  0  0  0  0  0  0  0  0
   -5.9498   -2.5223   -1.0391 C   0  0  0  0  0  0  0  0  0  0  0  0
   -4.7586   -2.2295   -0.3734 C   0  0  0  0  0  0  0  0  0  0  0  0
   -2.0515   -3.3592   -1.6440 H   0  0  0  0  0  0  0  0  0  0  0  0
   -0.3171   -3.0422   -1.6348 H   0  0  0  0  0  0  0  0  0  0  0  0
   -1.0691   -3.9370   -0.2923 H   0  0  0  0  0  0  0  0  0  0  0  0
    1.3781    0.1925    1.6759 H   0  0  0  0  0  0  0  0  0  0  0  0
    3.2845   -2.0798    1.8649 H   0  0  0  0  0  0  0  0  0  0  0  0
    3.3084   -0.5806    2.7949 H   0  0  0  0  0  0  0  0  0  0  0  0
    4.0358   -2.0542   -0.6193 H   0  0  0  0  0  0  0  0  0  0  0  0
    2.9219   -0.7476   -1.0153 H   0  0  0  0  0  0  0  0  0  0  0  0
    4.8088   -0.7844   -2.6157 H   0  0  0  0  0  0  0  0  0  0  0  0
    5.4918    1.6024   -2.3740 H   0  0  0  0  0  0  0  0  0  0  0  0
    3.7742    1.4110   -2.0306 H   0  0  0  0  0  0  0  0  0  0  0  0
    4.8651    2.8529   -0.3089 H   0  0  0  0  0  0  0  0  0  0  0  0
    6.5808    1.8645    1.2112 H   0  0  0  0  0  0  0  0  0  0  0  0
    7.1527    1.8716   -0.4555 H   0  0  0  0  0  0  0  0  0  0  0  0
    7.6106   -0.3312    0.6222 H   0  0  0  0  0  0  0  0  0  0  0  0
    7.1195   -0.2845   -1.8231 H   0  0  0  0  0  0  0  0  0  0  0  0
    6.5245   -1.7763   -1.0984 H   0  0  0  0  0  0  0  0  0  0  0  0
    5.7368   -0.2958    2.2545 H   0  0  0  0  0  0  0  0  0  0  0  0
    5.7131   -1.7821    1.3112 H   0  0  0  0  0  0  0  0  0  0  0  0
    2.9536    1.4315    0.3723 H   0  0  0  0  0  0  0  0  0  0  0  0
    4.0945    1.6048    1.7027 H   0  0  0  0  0  0  0  0  0  0  0  0
   -0.6854    0.7339    1.7143 H   0  0  0  0  0  0  0  0  0  0  0  0
   -2.7358    1.6352    1.7639 H   0  0  0  0  0  0  0  0  0  0  0  0
   -3.2554    1.7554   -1.2055 H   0  0  0  0  0  0  0  0  0  0  0  0
   -2.4178    2.8475   -0.1373 H   0  0  0  0  0  0  0  0  0  0  0  0
   -5.3721    2.6139   -0.7091 H   0  0  0  0  0  0  0  0  0  0  0  0
   -4.3507    4.0470   -0.5904 H   0  0  0  0  0  0  0  0  0  0  0  0
   -5.8631    3.9695    1.3659 H   0  0  0  0  0  0  0  0  0  0  0  0
   -6.4488    1.7617    1.9027 H   0  0  0  0  0  0  0  0  0  0  0  0
   -5.1550    2.0411    3.0681 H   0  0  0  0  0  0  0  0  0  0  0  0
   -5.2225    0.3502    0.6017 H   0  0  0  0  0  0  0  0  0  0  0  0
   -4.5494   -0.0391    2.1782 H   0  0  0  0  0  0  0  0  0  0  0  0
   -3.3647   -0.1266   -2.6673 H   0  0  0  0  0  0  0  0  0  0  0  0
   -5.4990   -0.6432   -3.8344 H   0  0  0  0  0  0  0  0  0  0  0  0
   -6.6740   -3.2045   -0.6062 H   0  0  0  0  0  0  0  0  0  0  0  0
   -4.5509   -2.6937    0.5883 H   0  0  0  0  0  0  0  0  0  0  0  0
  1  2  1  0
  2  3  1  0
  3  4  1  0
  4  5  2  0
  4  6  1  0
  6  7  1  0
  8  7  1  1
  8  9  1  0
  9 10  1  0
 10 11  1  0
 11 12  1  0
 12 13  1  0
 13 14  1  0
 14 15  1  0
 14 16  1  0
 12 17  1  0
  3 18  2  0
 18 19  1  0
 19 20  1  0
 20 21  1  0
 21 22  1  0
 22 23  1  0
 23 24  1  0
 23 25  1  0
 25 26  1  0
 19 27  1  0
 27 28  1  0
 28 29  1  0
 29 30  2  0
 30 31  1  0
 31 32  1  0
 31 33  2  0
 33 34  1  0
 27  2  2  0
 34 28  2  0
 16  8  1  0
 26 20  1  0
 17  8  1  0
 15 10  1  0
  1 35  1  0
  1 36  1  0
  1 37  1  0
  6 38  1  0
  7 39  1  0
  7 40  1  0
  9 41  1  0
  9 42  1  0
 10 43  1  6
 11 44  1  0
 11 45  1  0
 12 46  1  6
 13 47  1  0
 13 48  1  0
 14 49  1  1
 15 50  1  0
 15 51  1  0
 16 52  1  0
 16 53  1  0
 17 54  1  0
 17 55  1  0
 18 56  1  0
 20 57  1  1
 21 58  1  0
 21 59  1  0
 22 60  1  0
 22 61  1  0
 23 62  1  6
 25 63  1  0
 25 64  1  0
 26 65  1  0
 26 66  1  0
 29 67  1  0
 30 68  1  0
 33 69  1  0
 34 70  1  0
M  END
>  <_SMILES>  (106) 
Cc1c(C(=O)NC[C@]23C[C@H]4C[C@H](C[C@H](C4)C2)C3)cn([C@H]2CC[C@H](F)CC2)c1-c1ccc(F)cc1

$$$$

     RDKit          3D

 73 78  0  0  0  0  0  0  0  0999 V2000
   -4.6998    1.7016    4.0593 C   0  0  0  0  0  0  0  0  0  0  0  0
   -4.5241    2.0495    2.6110 C   0  0  0  0  0  0  0  0  0  0  0  0
   -5.4362    2.8952    1.9678 C   0  0  0  0  0  0  0  0  0  0  0  0
   -5.2876    3.1980    0.6134 C   0  0  0  0  0  0  0  0  0  0  0  0
   -4.2332    2.6469   -0.1141 C   0  0  0  0  0  0  0  0  0  0  0  0
   -3.3265    1.7850    0.5097 C   0  0  0  0  0  0  0  0  0  0  0  0
   -2.2322    1.1897   -0.2544 C   0  0  0  0  0  0  0  0  0  0  0  0
   -0.9608    1.7060   -0.5004 C   0  0  0  0  0  0  0  0  0  0  0  0
   -0.4699    3.0422   -0.0519 C   0  0  0  0  0  0  0  0  0  0  0  0
   -0.2395    0.7290   -1.2718 C   0  0  0  0  0  0  0  0  0  0  0  0
    1.1332    0.7216   -1.7814 C   0  0  0  0  0  0  0  0  0  0  0  0
    1.4494    0.1168   -2.8010 O   0  0  0  0  0  0  0  0  0  0  0  0
    2.0406    1.3915   -0.9921 N   0  0  0  0  0  0  0  0  0  0  0  0
    3.4586    1.4172   -1.2831 C   0  0  0  0  0  0  0  0  0  0  0  0
    4.2838    0.3797   -0.4884 C   0  0  2  0  0  0  0  0  0  0  0  0
    4.1426    0.5955    1.0411 C   0  0  0  0  0  0  0  0  0  0  0  0
    5.0139   -0.4098    1.8151 C   0  0  1  0  0  0  0  0  0  0  0  0
    4.5728   -1.8397    1.4614 C   0  0  0  0  0  0  0  0  0  0  0  0
    4.7348   -2.0827   -0.0482 C   0  0  2  0  0  0  0  0  0  0  0  0
    6.2078   -1.8855   -0.4386 C   0  0  0  0  0  0  0  0  0  0  0  0
    6.6557   -0.4569   -0.0930 C   0  0  2  0  0  0  0  0  0  0  0  0
    6.4859   -0.2203    1.4160 C   0  0  0  0  0  0  0  0  0  0  0  0
    5.7816    0.5463   -0.8630 C   0  0  0  0  0  0  0  0  0  0  0  0
    3.8633   -1.0749   -0.8191 C   0  0  0  0  0  0  0  0  0  0  0  0
   -1.1275   -0.3047   -1.5085 C   0  0  0  0  0  0  0  0  0  0  0  0
   -2.3200   -0.0304   -0.8937 N   0  0  0  0  0  0  0  0  0  0  0  0
   -3.4868   -0.9148   -0.9212 C   0  0  1  0  0  0  0  0  0  0  0  0
   -3.9270   -1.2742   -2.3477 C   0  0  0  0  0  0  0  0  0  0  0  0
   -5.2371   -2.0675   -2.3574 C   0  0  0  0  0  0  0  0  0  0  0  0
   -5.4776   -2.8638   -1.0770 C   0  0  1  0  0  0  0  0  0  0  0  0
   -6.2492   -3.9428   -1.3750 F   0  0  0  0  0  0  0  0  0  0  0  0
   -4.1775   -3.3401   -0.4503 C   0  0  0  0  0  0  0  0  0  0  0  0
   -3.2679   -2.1735   -0.0585 C   0  0  0  0  0  0  0  0  0  0  0  0
   -3.4754    1.4886    1.8698 C   0  0  0  0  0  0  0  0  0  0  0  0
   -5.3203    0.8054    4.1559 H   0  0  0  0  0  0  0  0  0  0  0  0
   -3.7317    1.5157    4.5362 H   0  0  0  0  0  0  0  0  0  0  0  0
   -5.1772    2.5232    4.6037 H   0  0  0  0  0  0  0  0  0  0  0  0
   -6.2671    3.3283    2.5207 H   0  0  0  0  0  0  0  0  0  0  0  0
   -5.9943    3.8636    0.1246 H   0  0  0  0  0  0  0  0  0  0  0  0
   -4.1216    2.8884   -1.1685 H   0  0  0  0  0  0  0  0  0  0  0  0
   -1.2938    3.7493    0.0859 H   0  0  0  0  0  0  0  0  0  0  0  0
    0.0611    2.9504    0.9007 H   0  0  0  0  0  0  0  0  0  0  0  0
    0.2060    3.4814   -0.7922 H   0  0  0  0  0  0  0  0  0  0  0  0
    1.7299    1.7157   -0.0888 H   0  0  0  0  0  0  0  0  0  0  0  0
    3.7994    2.4304   -1.0399 H   0  0  0  0  0  0  0  0  0  0  0  0
    3.6076    1.2747   -2.3599 H   0  0  0  0  0  0  0  0  0  0  0  0
    4.4363    1.6190    1.3071 H   0  0  0  0  0  0  0  0  0  0  0  0
    3.0974    0.4759    1.3525 H   0  0  0  0  0  0  0  0  0  0  0  0
    4.8994   -0.2440    2.8922 H   0  0  0  0  0  0  0  0  0  0  0  0
    5.1720   -2.5662    2.0239 H   0  0  0  0  0  0  0  0  0  0  0  0
    3.5275   -1.9934    1.7561 H   0  0  0  0  0  0  0  0  0  0  0  0
    4.4215   -3.1037   -0.2933 H   0  0  0  0  0  0  0  0  0  0  0  0
    6.3395   -2.0710   -1.5117 H   0  0  0  0  0  0  0  0  0  0  0  0
    6.8361   -2.6132    0.0896 H   0  0  0  0  0  0  0  0  0  0  0  0
    7.7066   -0.3216   -0.3721 H   0  0  0  0  0  0  0  0  0  0  0  0
    7.1192   -0.9176    1.9780 H   0  0  0  0  0  0  0  0  0  0  0  0
    6.8178    0.7921    1.6769 H   0  0  0  0  0  0  0  0  0  0  0  0
    6.1152    1.5683   -0.6406 H   0  0  0  0  0  0  0  0  0  0  0  0
    5.9192    0.3992   -1.9422 H   0  0  0  0  0  0  0  0  0  0  0  0
    3.9535   -1.2588   -1.8972 H   0  0  0  0  0  0  0  0  0  0  0  0
    2.8123   -1.2427   -0.5545 H   0  0  0  0  0  0  0  0  0  0  0  0
   -0.9772   -1.2218   -2.0648 H   0  0  0  0  0  0  0  0  0  0  0  0
   -4.3178   -0.3545   -0.4766 H   0  0  0  0  0  0  0  0  0  0  0  0
   -4.0411   -0.3717   -2.9606 H   0  0  0  0  0  0  0  0  0  0  0  0
   -3.1511   -1.8783   -2.8356 H   0  0  0  0  0  0  0  0  0  0  0  0
   -6.0809   -1.3810   -2.4999 H   0  0  0  0  0  0  0  0  0  0  0  0
   -5.2522   -2.7349   -3.2274 H   0  0  0  0  0  0  0  0  0  0  0  0
   -6.0375   -2.2575   -0.3559 H   0  0  0  0  0  0  0  0  0  0  0  0
   -4.3842   -3.9682    0.4238 H   0  0  0  0  0  0  0  0  0  0  0  0
   -3.6555   -3.9908   -1.1637 H   0  0  0  0  0  0  0  0  0  0  0  0
   -3.4480   -1.9087    0.9917 H   0  0  0  0  0  0  0  0  0  0  0  0
   -2.2271   -2.5175   -0.1011 H   0  0  0  0  0  0  0  0  0  0  0  0
   -2.7675    0.8176    2.3522 H   0  0  0  0  0  0  0  0  0  0  0  0
  1  2  1  0
  2  3  2  0
  3  4  1  0
  4  5  2  0
  5  6  1  0
  6  7  1  0
  7  8  2  0
  8  9  1  0
  8 10  1  0
 10 11  1  0
 11 12  2  0
 11 13  1  0
 13 14  1  0
 15 14  1  6
 15 16  1  0
 16 17  1  0
 17 18  1  0
 18 19  1  0
 19 20  1  0
 20 21  1  0
 21 22  1  0
 21 23  1  0
 19 24  1  0
 10 25  2  0
 25 26  1  0
 26 27  1  0
 27 28  1  0
 28 29  1  0
 29 30  1  0
 30 31  1  0
 30 32  1  0
 32 33  1  0
  6 34  2  0
 34  2  1  0
 26  7  1  0
 33 27  1  0
 23 15  1  0
 24 15  1  0
 22 17  1  0
  1 35  1  0
  1 36  1  0
  1 37  1  0
  3 38  1  0
  4 39  1  0
  5 40  1  0
  9 41  1  0
  9 42  1  0
  9 43  1  0
 13 44  1  0
 14 45  1  0
 14 46  1  0
 16 47  1  0
 16 48  1  0
 17 49  1  1
 18 50  1  0
 18 51  1  0
 19 52  1  1
 20 53  1  0
 20 54  1  0
 21 55  1  6
 22 56  1  0
 22 57  1  0
 23 58  1  0
 23 59  1  0
 24 60  1  0
 24 61  1  0
 25 62  1  0
 27 63  1  1
 28 64  1  0
 28 65  1  0
 29 66  1  0
 29 67  1  0
 30 68  1  1
 32 69  1  0
 32 70  1  0
 33 71  1  0
 33 72  1  0
 34 73  1  0
M  END
>  <_SMILES>  (107) 
Cc1cccc(-c2c(C)c(C(=O)NC[C@]34C[C@H]5C[C@H](C[C@H](C5)C3)C4)cn2[C@H]2CC[C@@H](F)CC2)c1

$$$$

     RDKit          3D

 79 83  0  0  0  0  0  0  0  0999 V2000
   -2.7511   -4.8776    1.7410 C   0  0  0  0  0  0  0  0  0  0  0  0
   -3.9480   -3.9787    1.4644 C   0  0  0  0  0  0  0  0  0  0  0  0
   -3.8782   -3.2610    0.1129 C   0  0  0  0  0  0  0  0  0  0  0  0
   -2.8130   -2.2014    0.0640 C   0  0  0  0  0  0  0  0  0  0  0  0
   -1.5119   -2.2889   -0.4273 C   0  0  0  0  0  0  0  0  0  0  0  0
   -0.8701   -3.4715   -1.0756 C   0  0  0  0  0  0  0  0  0  0  0  0
   -0.8557   -1.0356   -0.1705 C   0  0  0  0  0  0  0  0  0  0  0  0
    0.5311   -0.6786   -0.4971 C   0  0  0  0  0  0  0  0  0  0  0  0
    1.2333   -1.3628   -1.2357 O   0  0  0  0  0  0  0  0  0  0  0  0
    0.9958    0.4729    0.1061 N   0  0  0  0  0  0  0  0  0  0  0  0
    2.3722    0.9030   -0.0304 C   0  0  0  0  0  0  0  0  0  0  0  0
    3.2815    0.1783    0.9652 C   0  0  0  0  0  0  0  0  0  0  0  0
    4.7785    0.5696    0.9192 C   0  0  2  0  0  0  0  0  0  0  0  0
    5.4151    0.2521   -0.4579 C   0  0  0  0  0  0  0  0  0  0  0  0
    6.9161    0.5953   -0.4570 C   0  0  1  0  0  0  0  0  0  0  0  0
    7.0922    2.0918   -0.1506 C   0  0  0  0  0  0  0  0  0  0  0  0
    6.4929    2.4214    1.2267 C   0  0  2  0  0  0  0  0  0  0  0  0
    7.2065    1.5877    2.3020 C   0  0  0  0  0  0  0  0  0  0  0  0
    7.0330    0.0901    2.0057 C   0  0  2  0  0  0  0  0  0  0  0  0
    7.6278   -0.2304    0.6258 C   0  0  0  0  0  0  0  0  0  0  0  0
    5.5347   -0.2522    2.0003 C   0  0  0  0  0  0  0  0  0  0  0  0
    4.9928    2.0744    1.2221 C   0  0  0  0  0  0  0  0  0  0  0  0
   -1.8013   -0.2334    0.4433 C   0  0  0  0  0  0  0  0  0  0  0  0
   -2.9946   -0.9112    0.5152 N   0  0  0  0  0  0  0  0  0  0  0  0
   -4.2052   -0.3283    1.0755 C   0  0  0  0  0  0  0  0  0  0  0  0
   -5.0497    0.5489    0.1244 C   0  0  1  0  0  0  0  0  0  0  0  0
   -4.3087    1.8046   -0.3609 C   0  0  0  0  0  0  0  0  0  0  0  0
   -5.2006    2.6843   -1.2345 C   0  0  0  0  0  0  0  0  0  0  0  0
   -5.7688    1.9086   -2.4273 C   0  0  2  0  0  0  0  0  0  0  0  0
   -6.7202    2.7010   -3.1436 O   0  0  0  0  0  0  0  0  0  0  0  0
   -6.1231    3.6574   -4.0089 C   0  0  0  0  0  0  0  0  0  0  0  0
   -6.5005    0.6525   -1.9476 C   0  0  0  0  0  0  0  0  0  0  0  0
   -5.6188   -0.2312   -1.0690 C   0  0  0  0  0  0  0  0  0  0  0  0
   -2.9018   -5.4242    2.6775 H   0  0  0  0  0  0  0  0  0  0  0  0
   -2.6170   -5.6117    0.9404 H   0  0  0  0  0  0  0  0  0  0  0  0
   -1.8285   -4.2985    1.8408 H   0  0  0  0  0  0  0  0  0  0  0  0
   -4.8518   -4.6000    1.4778 H   0  0  0  0  0  0  0  0  0  0  0  0
   -4.0488   -3.2563    2.2825 H   0  0  0  0  0  0  0  0  0  0  0  0
   -3.7195   -3.9934   -0.6870 H   0  0  0  0  0  0  0  0  0  0  0  0
   -4.8552   -2.8165   -0.0978 H   0  0  0  0  0  0  0  0  0  0  0  0
   -1.5345   -4.3388   -1.1066 H   0  0  0  0  0  0  0  0  0  0  0  0
    0.0296   -3.7663   -0.5258 H   0  0  0  0  0  0  0  0  0  0  0  0
   -0.5899   -3.2328   -2.1066 H   0  0  0  0  0  0  0  0  0  0  0  0
    0.4319    0.8922    0.8293 H   0  0  0  0  0  0  0  0  0  0  0  0
    2.3753    1.9821    0.1466 H   0  0  0  0  0  0  0  0  0  0  0  0
    2.6903    0.7206   -1.0611 H   0  0  0  0  0  0  0  0  0  0  0  0
    3.1925   -0.9044    0.8027 H   0  0  0  0  0  0  0  0  0  0  0  0
    2.8955    0.3566    1.9784 H   0  0  0  0  0  0  0  0  0  0  0  0
    5.2789   -0.8093   -0.7016 H   0  0  0  0  0  0  0  0  0  0  0  0
    4.9241    0.8252   -1.2533 H   0  0  0  0  0  0  0  0  0  0  0  0
    7.3468    0.3663   -1.4382 H   0  0  0  0  0  0  0  0  0  0  0  0
    8.1570    2.3549   -0.1683 H   0  0  0  0  0  0  0  0  0  0  0  0
    6.6030    2.6937   -0.9263 H   0  0  0  0  0  0  0  0  0  0  0  0
    6.6234    3.4883    1.4401 H   0  0  0  0  0  0  0  0  0  0  0  0
    6.7983    1.8243    3.2923 H   0  0  0  0  0  0  0  0  0  0  0  0
    8.2729    1.8432    2.3279 H   0  0  0  0  0  0  0  0  0  0  0  0
    7.5442   -0.5002    2.7744 H   0  0  0  0  0  0  0  0  0  0  0  0
    8.7022   -0.0088    0.6204 H   0  0  0  0  0  0  0  0  0  0  0  0
    7.5226   -1.3009    0.4109 H   0  0  0  0  0  0  0  0  0  0  0  0
    5.1104   -0.0511    2.9927 H   0  0  0  0  0  0  0  0  0  0  0  0
    5.4060   -1.3269    1.8162 H   0  0  0  0  0  0  0  0  0  0  0  0
    4.4906    2.6959    0.4712 H   0  0  0  0  0  0  0  0  0  0  0  0
    4.5511    2.3311    2.1934 H   0  0  0  0  0  0  0  0  0  0  0  0
   -1.7396    0.7855    0.8000 H   0  0  0  0  0  0  0  0  0  0  0  0
   -3.8917    0.2680    1.9423 H   0  0  0  0  0  0  0  0  0  0  0  0
   -4.8218   -1.1386    1.4765 H   0  0  0  0  0  0  0  0  0  0  0  0
   -5.9069    0.8946    0.7207 H   0  0  0  0  0  0  0  0  0  0  0  0
   -3.4261    1.5258   -0.9475 H   0  0  0  0  0  0  0  0  0  0  0  0
   -3.9572    2.3875    0.4984 H   0  0  0  0  0  0  0  0  0  0  0  0
   -4.6222    3.5473   -1.5825 H   0  0  0  0  0  0  0  0  0  0  0  0
   -6.0224    3.0986   -0.6363 H   0  0  0  0  0  0  0  0  0  0  0  0
   -4.9578    1.6046   -3.1021 H   0  0  0  0  0  0  0  0  0  0  0  0
   -5.5686    4.4089   -3.4412 H   0  0  0  0  0  0  0  0  0  0  0  0
   -6.9212    4.1645   -4.5581 H   0  0  0  0  0  0  0  0  0  0  0  0
   -5.4646    3.1661   -4.7315 H   0  0  0  0  0  0  0  0  0  0  0  0
   -6.8549    0.0805   -2.8140 H   0  0  0  0  0  0  0  0  0  0  0  0
   -7.4052    0.9397   -1.3952 H   0  0  0  0  0  0  0  0  0  0  0  0
   -6.2173   -1.0761   -0.7108 H   0  0  0  0  0  0  0  0  0  0  0  0
   -4.8060   -0.6420   -1.6796 H   0  0  0  0  0  0  0  0  0  0  0  0
  1  2  1  0
  2  3  1  0
  3  4  1  0
  4  5  2  0
  5  6  1  0
  5  7  1  0
  7  8  1  0
  8  9  2  0
  8 10  1  0
 10 11  1  0
 11 12  1  0
 13 12  1  6
 13 14  1  0
 14 15  1  0
 15 16  1  0
 16 17  1  0
 17 18  1  0
 18 19  1  0
 19 20  1  0
 19 21  1  0
 17 22  1  0
  7 23  2  0
 23 24  1  0
 24 25  1  0
 25 26  1  0
 26 27  1  0
 27 28  1  0
 28 29  1  0
 29 30  1  0
 30 31  1  0
 29 32  1  0
 32 33  1  0
 24  4  1  0
 33 26  1  0
 21 13  1  0
 22 13  1  0
 20 15  1  0
  1 34  1  0
  1 35  1  0
  1 36  1  0
  2 37  1  0
  2 38  1  0
  3 39  1  0
  3 40  1  0
  6 41  1  0
  6 42  1  0
  6 43  1  0
 10 44  1  0
 11 45  1  0
 11 46  1  0
 12 47  1  0
 12 48  1  0
 14 49  1  0
 14 50  1  0
 15 51  1  6
 16 52  1  0
 16 53  1  0
 17 54  1  1
 18 55  1  0
 18 56  1  0
 19 57  1  1
 20 58  1  0
 20 59  1  0
 21 60  1  0
 21 61  1  0
 22 62  1  0
 22 63  1  0
 23 64  1  0
 25 65  1  0
 25 66  1  0
 26 67  1  1
 27 68  1  0
 27 69  1  0
 28 70  1  0
 28 71  1  0
 29 72  1  6
 31 73  1  0
 31 74  1  0
 31 75  1  0
 32 76  1  0
 32 77  1  0
 33 78  1  0
 33 79  1  0
M  END
>  <_SMILES>  (108) 
CCCc1c(C)c(C(=O)NCC[C@]23C[C@H]4C[C@H](C[C@H](C4)C2)C3)cn1C[C@H]1CC[C@H](OC)CC1

$$$$

     RDKit          3D

 67 71  0  0  0  0  0  0  0  0999 V2000
    1.2147   -3.8692   -1.3842 C   0  0  0  0  0  0  0  0  0  0  0  0
    1.4593   -2.6830   -0.5103 C   0  0  0  0  0  0  0  0  0  0  0  0
    0.6331   -1.5065   -0.4617 C   0  0  0  0  0  0  0  0  0  0  0  0
   -0.5717   -1.2357   -1.2564 C   0  0  0  0  0  0  0  0  0  0  0  0
   -1.1431   -2.1055   -1.9064 O   0  0  0  0  0  0  0  0  0  0  0  0
   -1.0056    0.0730   -1.2251 N   0  0  0  0  0  0  0  0  0  0  0  0
   -2.1846    0.5244   -1.9336 C   0  0  0  0  0  0  0  0  0  0  0  0
   -3.4189    0.7070   -1.0236 C   0  0  2  0  0  0  0  0  0  0  0  0
   -3.8568   -0.6302   -0.3730 C   0  0  0  0  0  0  0  0  0  0  0  0
   -5.1134   -0.4282    0.4924 C   0  0  1  0  0  0  0  0  0  0  0  0
   -4.8068    0.5967    1.5970 C   0  0  0  0  0  0  0  0  0  0  0  0
   -4.3988    1.9404    0.9708 C   0  0  2  0  0  0  0  0  0  0  0  0
   -5.5463    2.4579    0.0891 C   0  0  0  0  0  0  0  0  0  0  0  0
   -5.8557    1.4413   -1.0212 C   0  0  2  0  0  0  0  0  0  0  0  0
   -6.2574    0.1005   -0.3869 C   0  0  0  0  0  0  0  0  0  0  0  0
   -4.5988    1.2358   -1.8827 C   0  0  0  0  0  0  0  0  0  0  0  0
   -3.1435    1.7353    0.1041 C   0  0  0  0  0  0  0  0  0  0  0  0
    1.1811   -0.6997    0.5211 C   0  0  0  0  0  0  0  0  0  0  0  0
    2.3213   -1.2917    1.0139 N   0  0  0  0  0  0  0  0  0  0  0  0
    3.1156   -0.7024    2.0833 C   0  0  0  0  0  0  0  0  0  0  0  0
    4.1531    0.3635    1.6725 C   0  0  0  0  0  0  0  0  0  0  0  0
    3.5162    1.6425    1.1055 C   0  0  0  0  0  0  0  0  0  0  0  0
    4.5728    2.7032    0.7987 C   0  0  0  0  0  0  0  0  0  0  0  0
    5.6478    2.1672   -0.1420 C   0  0  0  0  0  0  0  0  0  0  0  0
    6.2769    0.8853    0.3950 C   0  0  0  0  0  0  0  0  0  0  0  0
    5.2210   -0.1736    0.7099 C   0  0  0  0  0  0  0  0  0  0  0  0
    2.4958   -2.5166    0.4035 C   0  0  0  0  0  0  0  0  0  0  0  0
    3.5676   -3.3642    0.7872 C   0  0  0  0  0  0  0  0  0  0  0  0
    4.5487   -3.7466   -0.0375 C   0  0  0  0  0  0  0  0  0  0  0  0
    4.7626   -3.2747   -1.6710 Cl  0  0  0  0  0  0  0  0  0  0  0  0
    0.2123   -4.2728   -1.2092 H   0  0  0  0  0  0  0  0  0  0  0  0
    1.3015   -3.5887   -2.4388 H   0  0  0  0  0  0  0  0  0  0  0  0
    1.9246   -4.6781   -1.1895 H   0  0  0  0  0  0  0  0  0  0  0  0
   -0.4488    0.7555   -0.7347 H   0  0  0  0  0  0  0  0  0  0  0  0
   -1.9152    1.4806   -2.3976 H   0  0  0  0  0  0  0  0  0  0  0  0
   -2.4131   -0.1755   -2.7457 H   0  0  0  0  0  0  0  0  0  0  0  0
   -3.0543   -1.0346    0.2559 H   0  0  0  0  0  0  0  0  0  0  0  0
   -4.0598   -1.3794   -1.1489 H   0  0  0  0  0  0  0  0  0  0  0  0
   -5.4063   -1.3821    0.9450 H   0  0  0  0  0  0  0  0  0  0  0  0
   -5.6882    0.7336    2.2355 H   0  0  0  0  0  0  0  0  0  0  0  0
   -4.0017    0.2236    2.2418 H   0  0  0  0  0  0  0  0  0  0  0  0
   -4.1852    2.6670    1.7626 H   0  0  0  0  0  0  0  0  0  0  0  0
   -6.4409    2.6284    0.7006 H   0  0  0  0  0  0  0  0  0  0  0  0
   -5.2736    3.4243   -0.3523 H   0  0  0  0  0  0  0  0  0  0  0  0
   -6.6748    1.8145   -1.6460 H   0  0  0  0  0  0  0  0  0  0  0  0
   -6.4960   -0.6290   -1.1705 H   0  0  0  0  0  0  0  0  0  0  0  0
   -7.1649    0.2283    0.2160 H   0  0  0  0  0  0  0  0  0  0  0  0
   -4.8217    0.5301   -2.6935 H   0  0  0  0  0  0  0  0  0  0  0  0
   -4.3229    2.1852   -2.3600 H   0  0  0  0  0  0  0  0  0  0  0  0
   -2.3189    1.3953    0.7431 H   0  0  0  0  0  0  0  0  0  0  0  0
   -2.8329    2.6954   -0.3276 H   0  0  0  0  0  0  0  0  0  0  0  0
    0.8531    0.2500    0.9205 H   0  0  0  0  0  0  0  0  0  0  0  0
    2.4031   -0.2648    2.7950 H   0  0  0  0  0  0  0  0  0  0  0  0
    3.6151   -1.5121    2.6258 H   0  0  0  0  0  0  0  0  0  0  0  0
    4.6687    0.6494    2.6011 H   0  0  0  0  0  0  0  0  0  0  0  0
    2.9713    1.4211    0.1808 H   0  0  0  0  0  0  0  0  0  0  0  0
    2.7918    2.0503    1.8200 H   0  0  0  0  0  0  0  0  0  0  0  0
    4.0940    3.5803    0.3489 H   0  0  0  0  0  0  0  0  0  0  0  0
    5.0380    3.0374    1.7341 H   0  0  0  0  0  0  0  0  0  0  0  0
    5.2052    1.9708   -1.1264 H   0  0  0  0  0  0  0  0  0  0  0  0
    6.4240    2.9269   -0.2868 H   0  0  0  0  0  0  0  0  0  0  0  0
    6.9880    0.4887   -0.3386 H   0  0  0  0  0  0  0  0  0  0  0  0
    6.8484    1.1118    1.3035 H   0  0  0  0  0  0  0  0  0  0  0  0
    5.7135   -1.0498    1.1462 H   0  0  0  0  0  0  0  0  0  0  0  0
    4.7545   -0.4909   -0.2295 H   0  0  0  0  0  0  0  0  0  0  0  0
    3.5794   -3.7315    1.8102 H   0  0  0  0  0  0  0  0  0  0  0  0
    5.3464   -4.4052    0.2829 H   0  0  0  0  0  0  0  0  0  0  0  0
  1  2  1  0
  2  3  1  0
  3  4  1  0
  4  5  2  0
  4  6  1  0
  6  7  1  0
  8  7  1  6
  8  9  1  0
  9 10  1  0
 10 11  1  0
 11 12  1  0
 12 13  1  0
 13 14  1  0
 14 15  1  0
 14 16  1  0
 12 17  1  0
  3 18  2  0
 18 19  1  0
 19 20  1  0
 20 21  1  0
 21 22  1  0
 22 23  1  0
 23 24  1  0
 24 25  1  0
 25 26  1  0
 19 27  1  0
 27 28  1  0
 28 29  2  0
 29 30  1  0
 27  2  2  0
 16  8  1  0
 26 21  1  0
 17  8  1  0
 15 10  1  0
  1 31  1  0
  1 32  1  0
  1 33  1  0
  6 34  1  0
  7 35  1  0
  7 36  1  0
  9 37  1  0
  9 38  1  0
 10 39  1  1
 11 40  1  0
 11 41  1  0
 12 42  1  1
 13 43  1  0
 13 44  1  0
 14 45  1  6
 15 46  1  0
 15 47  1  0
 16 48  1  0
 16 49  1  0
 17 50  1  0
 17 51  1  0
 18 52  1  0
 20 53  1  0
 20 54  1  0
 21 55  1  0
 22 56  1  0
 22 57  1  0
 23 58  1  0
 23 59  1  0
 24 60  1  0
 24 61  1  0
 25 62  1  0
 25 63  1  0
 26 64  1  0
 26 65  1  0
 28 66  1  0
 29 67  1  0
M  END
>  <_SMILES>  (109) 
Cc1c(C(=O)NC[C@]23C[C@H]4C[C@H](C[C@H](C4)C2)C3)cn(CC2CCCCC2)c1/C=C\Cl

$$$$

     RDKit          3D

 82 87  0  0  0  0  0  0  0  0999 V2000
   -3.6489    1.8713   -5.2011 C   0  0  0  0  0  0  0  0  0  0  0  0
   -3.5943    2.1569   -3.7300 C   0  0  0  0  0  0  0  0  0  0  0  0
   -4.6281    2.8642   -3.1047 C   0  0  0  0  0  0  0  0  0  0  0  0
   -4.5864    3.1112   -1.7318 C   0  0  0  0  0  0  0  0  0  0  0  0
   -3.5175    2.6412   -0.9693 C   0  0  0  0  0  0  0  0  0  0  0  0
   -2.4918    1.9093   -1.5735 C   0  0  0  0  0  0  0  0  0  0  0  0
   -1.3791    1.4008   -0.7734 C   0  0  0  0  0  0  0  0  0  0  0  0
   -0.2149    2.0529   -0.3784 C   0  0  0  0  0  0  0  0  0  0  0  0
    0.1622    3.4636   -0.6904 C   0  0  0  0  0  0  0  0  0  0  0  0
    0.5810    1.1227    0.3809 C   0  0  0  0  0  0  0  0  0  0  0  0
    1.8901    1.3812    0.9953 C   0  0  0  0  0  0  0  0  0  0  0  0
    2.3764    2.5063    1.0598 O   0  0  0  0  0  0  0  0  0  0  0  0
    2.5420    0.2651    1.4769 N   0  0  0  0  0  0  0  0  0  0  0  0
    3.8665    0.3253    2.0590 C   0  0  0  0  0  0  0  0  0  0  0  0
    4.9985   -0.0653    1.0823 C   0  0  2  0  0  0  0  0  0  0  0  0
    5.0805    0.9007   -0.1271 C   0  0  0  0  0  0  0  0  0  0  0  0
    6.2453    0.5132   -1.0557 C   0  0  1  0  0  0  0  0  0  0  0  0
    7.5651    0.5784   -0.2715 C   0  0  0  0  0  0  0  0  0  0  0  0
    7.5177   -0.3936    0.9177 C   0  0  2  0  0  0  0  0  0  0  0  0
    7.2957   -1.8231    0.3991 C   0  0  0  0  0  0  0  0  0  0  0  0
    5.9745   -1.8996   -0.3821 C   0  0  2  0  0  0  0  0  0  0  0  0
    6.0286   -0.9208   -1.5666 C   0  0  0  0  0  0  0  0  0  0  0  0
    4.8106   -1.5084    0.5460 C   0  0  0  0  0  0  0  0  0  0  0  0
    6.3518   -0.0046    1.8413 C   0  0  0  0  0  0  0  0  0  0  0  0
   -0.1455   -0.0567    0.4175 C   0  0  0  0  0  0  0  0  0  0  0  0
   -1.3287    0.1253   -0.2557 N   0  0  0  0  0  0  0  0  0  0  0  0
   -2.3394   -0.9129   -0.4135 C   0  0  0  0  0  0  0  0  0  0  0  0
   -3.5115   -0.8094    0.5817 C   0  0  2  0  0  0  0  0  0  0  0  0
   -3.0869   -1.1111    2.0224 C   0  0  0  0  0  0  0  0  0  0  0  0
   -4.2397   -0.9778    3.0227 C   0  0  0  0  0  0  0  0  0  0  0  0
   -5.6241   -1.0522    2.3829 C   0  0  1  0  0  0  0  0  0  0  0  0
   -5.9176    0.1890    1.8907 F   0  0  0  0  0  0  0  0  0  0  0  0
   -5.7113   -2.0633    1.2253 C   0  0  0  0  0  0  0  0  0  0  0  0
   -7.1191   -1.9982    0.6012 C   0  0  0  0  0  0  0  0  0  0  0  0
   -5.5040   -3.4966    1.7577 C   0  0  0  0  0  0  0  0  0  0  0  0
   -4.6538   -1.7468    0.1318 C   0  0  0  0  0  0  0  0  0  0  0  0
   -2.5327    1.6732   -2.9532 C   0  0  0  0  0  0  0  0  0  0  0  0
   -2.6410    1.8175   -5.6260 H   0  0  0  0  0  0  0  0  0  0  0  0
   -4.1595    0.9198   -5.3786 H   0  0  0  0  0  0  0  0  0  0  0  0
   -4.1835    2.6646   -5.7340 H   0  0  0  0  0  0  0  0  0  0  0  0
   -5.4708    3.2333   -3.6849 H   0  0  0  0  0  0  0  0  0  0  0  0
   -5.3875    3.6690   -1.2541 H   0  0  0  0  0  0  0  0  0  0  0  0
   -3.4918    2.8392    0.0997 H   0  0  0  0  0  0  0  0  0  0  0  0
    1.1393    3.4980   -1.1830 H   0  0  0  0  0  0  0  0  0  0  0  0
    0.2105    4.0553    0.2293 H   0  0  0  0  0  0  0  0  0  0  0  0
   -0.5590    3.9438   -1.3585 H   0  0  0  0  0  0  0  0  0  0  0  0
    2.1278   -0.6404    1.3225 H   0  0  0  0  0  0  0  0  0  0  0  0
    3.8549   -0.3630    2.9123 H   0  0  0  0  0  0  0  0  0  0  0  0
    4.0411    1.3316    2.4576 H   0  0  0  0  0  0  0  0  0  0  0  0
    5.2147    1.9326    0.2216 H   0  0  0  0  0  0  0  0  0  0  0  0
    4.1473    0.8786   -0.7029 H   0  0  0  0  0  0  0  0  0  0  0  0
    6.2856    1.2052   -1.9044 H   0  0  0  0  0  0  0  0  0  0  0  0
    8.4050    0.3242   -0.9298 H   0  0  0  0  0  0  0  0  0  0  0  0
    7.7389    1.6008    0.0859 H   0  0  0  0  0  0  0  0  0  0  0  0
    8.4611   -0.3443    1.4728 H   0  0  0  0  0  0  0  0  0  0  0  0
    7.2761   -2.5283    1.2392 H   0  0  0  0  0  0  0  0  0  0  0  0
    8.1307   -2.1210   -0.2469 H   0  0  0  0  0  0  0  0  0  0  0  0
    5.8233   -2.9196   -0.7527 H   0  0  0  0  0  0  0  0  0  0  0  0
    5.0966   -0.9770   -2.1424 H   0  0  0  0  0  0  0  0  0  0  0  0
    6.8410   -1.2021   -2.2479 H   0  0  0  0  0  0  0  0  0  0  0  0
    4.7514   -2.2174    1.3818 H   0  0  0  0  0  0  0  0  0  0  0  0
    3.8674   -1.5940   -0.0079 H   0  0  0  0  0  0  0  0  0  0  0  0
    6.3301   -0.6794    2.7070 H   0  0  0  0  0  0  0  0  0  0  0  0
    6.5184    1.0063    2.2356 H   0  0  0  0  0  0  0  0  0  0  0  0
    0.0628   -1.0073    0.8881 H   0  0  0  0  0  0  0  0  0  0  0  0
   -1.8337   -1.8816   -0.3137 H   0  0  0  0  0  0  0  0  0  0  0  0
   -2.6995   -0.8576   -1.4471 H   0  0  0  0  0  0  0  0  0  0  0  0
   -3.8942    0.2179    0.5591 H   0  0  0  0  0  0  0  0  0  0  0  0
   -2.6791   -2.1285    2.0751 H   0  0  0  0  0  0  0  0  0  0  0  0
   -2.2768   -0.4454    2.3404 H   0  0  0  0  0  0  0  0  0  0  0  0
   -4.1332   -1.7572    3.7863 H   0  0  0  0  0  0  0  0  0  0  0  0
   -4.1484   -0.0154    3.5410 H   0  0  0  0  0  0  0  0  0  0  0  0
   -6.3737   -1.2638    3.1536 H   0  0  0  0  0  0  0  0  0  0  0  0
   -7.2184   -2.7108   -0.2256 H   0  0  0  0  0  0  0  0  0  0  0  0
   -7.8915   -2.2354    1.3415 H   0  0  0  0  0  0  0  0  0  0  0  0
   -7.3343   -0.9991    0.2060 H   0  0  0  0  0  0  0  0  0  0  0  0
   -6.2205   -3.7274    2.5542 H   0  0  0  0  0  0  0  0  0  0  0  0
   -4.4987   -3.6462    2.1625 H   0  0  0  0  0  0  0  0  0  0  0  0
   -5.6468   -4.2366    0.9617 H   0  0  0  0  0  0  0  0  0  0  0  0
   -5.1353   -1.2766   -0.7366 H   0  0  0  0  0  0  0  0  0  0  0  0
   -4.2311   -2.6865   -0.2487 H   0  0  0  0  0  0  0  0  0  0  0  0
   -1.7272    1.1127   -3.4233 H   0  0  0  0  0  0  0  0  0  0  0  0
  1  2  1  0
  2  3  2  0
  3  4  1  0
  4  5  2  0
  5  6  1  0
  6  7  1  0
  7  8  2  0
  8  9  1  0
  8 10  1  0
 10 11  1  0
 11 12  2  0
 11 13  1  0
 13 14  1  0
 15 14  1  1
 15 16  1  0
 16 17  1  0
 17 18  1  0
 18 19  1  0
 19 20  1  0
 20 21  1  0
 21 22  1  0
 21 23  1  0
 19 24  1  0
 10 25  2  0
 25 26  1  0
 26 27  1  0
 27 28  1  0
 28 29  1  0
 29 30  1  0
 30 31  1  0
 31 32  1  0
 31 33  1  0
 33 34  1  0
 33 35  1  0
 33 36  1  0
  6 37  2  0
 37  2  1  0
 26  7  1  0
 36 28  1  0
 23 15  1  0
 24 15  1  0
 22 17  1  0
  1 38  1  0
  1 39  1  0
  1 40  1  0
  3 41  1  0
  4 42  1  0
  5 43  1  0
  9 44  1  0
  9 45  1  0
  9 46  1  0
 13 47  1  0
 14 48  1  0
 14 49  1  0
 16 50  1  0
 16 51  1  0
 17 52  1  6
 18 53  1  0
 18 54  1  0
 19 55  1  1
 20 56  1  0
 20 57  1  0
 21 58  1  6
 22 59  1  0
 22 60  1  0
 23 61  1  0
 23 62  1  0
 24 63  1  0
 24 64  1  0
 25 65  1  0
 27 66  1  0
 27 67  1  0
 28 68  1  1
 29 69  1  0
 29 70  1  0
 30 71  1  0
 30 72  1  0
 31 73  1  1
 34 74  1  0
 34 75  1  0
 34 76  1  0
 35 77  1  0
 35 78  1  0
 35 79  1  0
 36 80  1  0
 36 81  1  0
 37 82  1  0
M  END
>  <_SMILES>  (110) 
Cc1cccc(-c2c(C)c(C(=O)NC[C@]34C[C@H]5C[C@H](C[C@H](C5)C3)C4)cn2C[C@@H]2CC[C@@H](F)C(C)(C)C2)c1

$$$$

     RDKit          3D

 47 49  0  0  0  0  0  0  0  0999 V2000
   -2.4666   -3.3279   -0.0126 C   0  0  0  0  0  0  0  0  0  0  0  0
   -3.1070   -2.0130   -0.2723 C   0  0  0  0  0  0  0  0  0  0  0  0
   -4.0602   -1.8007   -1.1576 N   0  0  0  0  0  0  0  0  0  0  0  0
   -4.3811   -0.4784   -1.0465 C   0  0  0  0  0  0  0  0  0  0  0  0
   -5.3286    0.1546   -1.7724 N   0  0  0  0  0  0  0  0  0  0  0  0
   -5.4744    1.4629   -1.4787 C   0  0  0  0  0  0  0  0  0  0  0  0
   -4.7471    2.1658   -0.5249 C   0  0  0  0  0  0  0  0  0  0  0  0
   -3.7703    1.5051    0.2172 C   0  0  0  0  0  0  0  0  0  0  0  0
   -3.6076    0.1500   -0.0766 C   0  0  0  0  0  0  0  0  0  0  0  0
   -2.7822   -0.8456    0.3899 N   0  0  0  0  0  0  0  0  0  0  0  0
   -1.7796   -0.6995    1.4300 C   0  0  0  0  0  0  0  0  0  0  0  0
   -0.3432   -0.5355    0.8973 C   0  0  1  0  0  0  0  0  0  0  0  0
   -0.1479    0.7955    0.1502 C   0  0  0  0  0  0  0  0  0  0  0  0
    1.2993    0.9861   -0.3097 C   0  0  0  0  0  0  0  0  0  0  0  0
    2.2736    0.8682    0.8588 C   0  0  2  0  0  0  0  0  0  0  0  0
    3.7455    1.1436    0.5441 C   0  0  0  0  0  0  0  0  0  0  0  0
    4.4117    1.7904    1.3638 O   0  0  0  0  0  0  0  0  0  0  0  0
    4.4332    0.6333   -0.7226 C   0  0  0  0  0  0  0  0  0  0  0  0
    4.2689   -0.8577   -0.9747 C   0  0  0  0  0  0  0  0  0  0  0  0
    4.0902    1.4745   -1.9460 C   0  0  0  0  0  0  0  0  0  0  0  0
    2.0989   -0.4585    1.6011 C   0  0  0  0  0  0  0  0  0  0  0  0
    0.6545   -0.6494    2.0627 C   0  0  0  0  0  0  0  0  0  0  0  0
   -2.9203   -4.1022   -0.6396 H   0  0  0  0  0  0  0  0  0  0  0  0
   -2.5968   -3.6260    1.0319 H   0  0  0  0  0  0  0  0  0  0  0  0
   -1.3982   -3.2961   -0.2425 H   0  0  0  0  0  0  0  0  0  0  0  0
   -6.2388    1.9698   -2.0633 H   0  0  0  0  0  0  0  0  0  0  0  0
   -4.9419    3.2214   -0.3635 H   0  0  0  0  0  0  0  0  0  0  0  0
   -3.1812    2.0182    0.9672 H   0  0  0  0  0  0  0  0  0  0  0  0
   -2.0616    0.1530    2.0586 H   0  0  0  0  0  0  0  0  0  0  0  0
   -1.8536   -1.5884    2.0677 H   0  0  0  0  0  0  0  0  0  0  0  0
   -0.1294   -1.3488    0.1915 H   0  0  0  0  0  0  0  0  0  0  0  0
   -0.7975    0.8360   -0.7311 H   0  0  0  0  0  0  0  0  0  0  0  0
   -0.4342    1.6330    0.7988 H   0  0  0  0  0  0  0  0  0  0  0  0
    1.5154    0.2357   -1.0760 H   0  0  0  0  0  0  0  0  0  0  0  0
    1.3997    1.9683   -0.7859 H   0  0  0  0  0  0  0  0  0  0  0  0
    1.9959    1.6684    1.5628 H   0  0  0  0  0  0  0  0  0  0  0  0
    5.5060    0.7886   -0.5349 H   0  0  0  0  0  0  0  0  0  0  0  0
    4.5286   -1.4347   -0.0811 H   0  0  0  0  0  0  0  0  0  0  0  0
    4.9303   -1.1840   -1.7848 H   0  0  0  0  0  0  0  0  0  0  0  0
    3.2478   -1.1213   -1.2616 H   0  0  0  0  0  0  0  0  0  0  0  0
    3.1121    1.2216   -2.3630 H   0  0  0  0  0  0  0  0  0  0  0  0
    4.0870    2.5425   -1.7036 H   0  0  0  0  0  0  0  0  0  0  0  0
    4.8288    1.3112   -2.7384 H   0  0  0  0  0  0  0  0  0  0  0  0
    2.7675   -0.4967    2.4696 H   0  0  0  0  0  0  0  0  0  0  0  0
    2.3768   -1.3011    0.9595 H   0  0  0  0  0  0  0  0  0  0  0  0
    0.5591   -1.6321    2.5401 H   0  0  0  0  0  0  0  0  0  0  0  0
    0.4184    0.0997    2.8294 H   0  0  0  0  0  0  0  0  0  0  0  0
  1  2  1  0
  2  3  2  0
  3  4  1  0
  4  5  1  0
  5  6  2  0
  6  7  1  0
  7  8  2  0
  8  9  1  0
  9 10  1  0
 10 11  1  0
 11 12  1  0
 12 13  1  0
 13 14  1  0
 14 15  1  0
 15 16  1  0
 16 17  2  0
 16 18  1  0
 18 19  1  0
 18 20  1  0
 15 21  1  0
 21 22  1  0
 10  2  1  0
 22 12  1  0
  9  4  2  0
  1 23  1  0
  1 24  1  0
  1 25  1  0
  6 26  1  0
  7 27  1  0
  8 28  1  0
 11 29  1  0
 11 30  1  0
 12 31  1  6
 13 32  1  0
 13 33  1  0
 14 34  1  0
 14 35  1  0
 15 36  1  1
 18 37  1  0
 19 38  1  0
 19 39  1  0
 19 40  1  0
 20 41  1  0
 20 42  1  0
 20 43  1  0
 21 44  1  0
 21 45  1  0
 22 46  1  0
 22 47  1  0
M  END
>  <_SMILES>  (111) 
Cc1nc2ncccc2n1C[C@H]1CC[C@H](C(=O)C(C)C)CC1

$$$$

     RDKit          3D

 48 50  0  0  0  0  0  0  0  0999 V2000
   -2.1533   -2.5343    0.9332 C   0  0  0  0  0  0  0  0  0  0  0  0
   -2.9639   -1.3739    0.4691 C   0  0  0  0  0  0  0  0  0  0  0  0
   -4.2069   -1.1099    0.8823 N   0  0  0  0  0  0  0  0  0  0  0  0
   -4.7098   -0.0211    0.2507 C   0  0  0  0  0  0  0  0  0  0  0  0
   -5.9644    0.5076    0.4128 N   0  0  0  0  0  0  0  0  0  0  0  0
   -6.1752    1.5921   -0.3798 C   0  0  0  0  0  0  0  0  0  0  0  0
   -5.2330    2.1293   -1.2736 C   0  0  0  0  0  0  0  0  0  0  0  0
   -3.9548    1.5545   -1.4086 C   0  0  0  0  0  0  0  0  0  0  0  0
   -3.7140    0.4434   -0.6023 C   0  0  0  0  0  0  0  0  0  0  0  0
   -2.6150   -0.4075   -0.4159 N   0  0  0  0  0  0  0  0  0  0  0  0
   -1.3286   -0.2986   -1.1263 C   0  0  0  0  0  0  0  0  0  0  0  0
   -0.4730    0.8834   -0.6259 C   0  0  1  0  0  0  0  0  0  0  0  0
    0.0697    0.6651    0.7941 C   0  0  0  0  0  0  0  0  0  0  0  0
    1.1860   -0.3822    0.8918 C   0  0  0  0  0  0  0  0  0  0  0  0
    2.0747   -0.4389   -0.3543 C   0  0  2  0  0  0  0  0  0  0  0  0
    3.5030   -0.9544   -0.1546 C   0  0  0  0  0  0  0  0  0  0  0  0
    4.0013   -1.6349   -1.0574 O   0  0  0  0  0  0  0  0  0  0  0  0
    4.2906   -0.6188    1.1152 C   0  0  0  0  0  0  0  0  0  0  0  0
    4.5120    0.8813    1.2669 C   0  0  0  0  0  0  0  0  0  0  0  0
    5.6413   -1.3408    1.1166 C   0  0  0  0  0  0  0  0  0  0  0  0
    2.0648    0.8817   -1.1205 C   0  0  0  0  0  0  0  0  0  0  0  0
    0.6586    1.2143   -1.6243 C   0  0  0  0  0  0  0  0  0  0  0  0
   -1.3877   -2.1455    1.6032 H   0  0  0  0  0  0  0  0  0  0  0  0
   -2.8225   -3.2155    1.4614 H   0  0  0  0  0  0  0  0  0  0  0  0
   -1.7262   -3.0193    0.0556 H   0  0  0  0  0  0  0  0  0  0  0  0
   -4.7434   -1.6449    1.5547 H   0  0  0  0  0  0  0  0  0  0  0  0
   -7.1615    2.0457   -0.2836 H   0  0  0  0  0  0  0  0  0  0  0  0
   -5.5009    3.0019   -1.8679 H   0  0  0  0  0  0  0  0  0  0  0  0
   -3.2130    1.9484   -2.0915 H   0  0  0  0  0  0  0  0  0  0  0  0
   -0.7875   -1.2447   -1.0425 H   0  0  0  0  0  0  0  0  0  0  0  0
   -1.5724   -0.1715   -2.1886 H   0  0  0  0  0  0  0  0  0  0  0  0
   -1.1275    1.7634   -0.5851 H   0  0  0  0  0  0  0  0  0  0  0  0
    0.4708    1.6229    1.1530 H   0  0  0  0  0  0  0  0  0  0  0  0
   -0.7393    0.4071    1.4869 H   0  0  0  0  0  0  0  0  0  0  0  0
    0.7481   -1.3754    1.0459 H   0  0  0  0  0  0  0  0  0  0  0  0
    1.7535   -0.1747    1.8030 H   0  0  0  0  0  0  0  0  0  0  0  0
    1.6162   -1.1912   -1.0150 H   0  0  0  0  0  0  0  0  0  0  0  0
    3.7282   -1.0022    1.9730 H   0  0  0  0  0  0  0  0  0  0  0  0
    5.1776    1.0978    2.1094 H   0  0  0  0  0  0  0  0  0  0  0  0
    4.9551    1.3111    0.3620 H   0  0  0  0  0  0  0  0  0  0  0  0
    3.5709    1.4045    1.4588 H   0  0  0  0  0  0  0  0  0  0  0  0
    6.2732   -1.0081    0.2854 H   0  0  0  0  0  0  0  0  0  0  0  0
    6.1823   -1.1545    2.0504 H   0  0  0  0  0  0  0  0  0  0  0  0
    5.5058   -2.4236    1.0195 H   0  0  0  0  0  0  0  0  0  0  0  0
    2.4173    1.6983   -0.4805 H   0  0  0  0  0  0  0  0  0  0  0  0
    2.7557    0.8464   -1.9717 H   0  0  0  0  0  0  0  0  0  0  0  0
    0.6269    2.2860   -1.8593 H   0  0  0  0  0  0  0  0  0  0  0  0
    0.4904    0.7000   -2.5785 H   0  0  0  0  0  0  0  0  0  0  0  0
  1  2  1  0
  2  3  2  0
  3  4  1  0
  4  5  1  0
  5  6  2  0
  6  7  1  0
  7  8  2  0
  8  9  1  0
  9 10  1  0
 10 11  1  0
 11 12  1  0
 12 13  1  0
 13 14  1  0
 14 15  1  0
 15 16  1  0
 16 17  2  0
 16 18  1  0
 18 19  1  0
 18 20  1  0
 15 21  1  0
 21 22  1  0
 10  2  1  0
 22 12  1  0
  9  4  2  0
  1 23  1  0
  1 24  1  0
  1 25  1  0
  3 26  1  0
  6 27  1  0
  7 28  1  0
  8 29  1  0
 11 30  1  0
 11 31  1  0
 12 32  1  1
 13 33  1  0
 13 34  1  0
 14 35  1  0
 14 36  1  0
 15 37  1  6
 18 38  1  0
 19 39  1  0
 19 40  1  0
 19 41  1  0
 20 42  1  0
 20 43  1  0
 20 44  1  0
 21 45  1  0
 21 46  1  0
 22 47  1  0
 22 48  1  0
M  CHG  1   3   1
M  END
>  <_SMILES>  (112) 
Cc1[nH+]c2ncccc2n1C[C@H]1CC[C@H](C(=O)C(C)C)CC1

$$$$

     RDKit          3D

 89 92  0  0  0  0  0  0  0  0999 V2000
   -5.8456   -2.9743   -2.4736 C   0  0  0  0  0  0  0  0  0  0  0  0
   -6.3054   -3.2435   -1.0479 C   0  0  0  0  0  0  0  0  0  0  0  0
   -6.4626   -2.0274   -0.0858 C   0  0  0  0  0  0  0  0  0  0  0  0
   -7.4338   -0.9902   -0.6943 C   0  0  0  0  0  0  0  0  0  0  0  0
   -7.1601   -2.5707    1.1947 C   0  0  0  0  0  0  0  0  0  0  0  0
   -5.1156   -1.3316    0.3523 C   0  0  1  0  0  0  0  0  0  0  0  0
   -4.0322   -2.2888    0.9074 C   0  0  0  0  0  0  0  0  0  0  0  0
   -2.8469   -2.4754   -0.0345 C   0  0  0  0  0  0  0  0  0  0  0  0
   -2.1335   -1.1513   -0.3973 C   0  0  2  0  0  0  0  0  0  0  0  0
   -0.8460   -0.9805    0.4560 C   0  0  0  0  0  0  0  0  0  0  0  0
    0.1788   -0.0041    0.0629 N   0  0  0  0  0  0  0  0  0  0  0  0
    0.4094   -0.1782   -1.3660 O   0  0  0  0  0  0  0  0  0  0  0  0
    0.4104    1.1251   -1.9516 C   0  0  2  0  0  0  0  0  0  0  0  0
   -0.4666    1.0921   -3.1989 C   0  0  0  0  0  0  0  0  0  0  0  0
    1.8854    1.4707   -2.3513 C   0  0  0  0  0  0  0  0  0  0  0  0
    2.2243    1.7762   -3.4945 O   0  0  0  0  0  0  0  0  0  0  0  0
    2.7891    1.4058   -1.3054 N   0  0  0  0  0  0  0  0  0  0  0  0
    4.2272    1.5354   -1.4922 C   0  0  1  0  0  0  0  0  0  0  0  0
    4.8993    2.0630   -0.2159 C   0  0  0  0  0  0  0  0  0  0  0  0
    5.5399    0.9764    0.6575 C   0  0  0  0  0  0  0  0  0  0  0  0
    4.7731   -0.3504    0.5964 C   0  0  2  0  0  0  0  0  0  0  0  0
    5.2789   -1.4315    1.5904 C   0  0  0  0  0  0  0  0  0  0  0  0
    4.8939   -1.0851    3.0337 C   0  0  0  0  0  0  0  0  0  0  0  0
    6.7867   -1.6897    1.5152 C   0  0  0  0  0  0  0  0  0  0  0  0
    4.7290   -0.8870   -0.8518 C   0  0  0  0  0  0  0  0  0  0  0  0
    4.8367    0.2011   -1.9275 C   0  0  0  0  0  0  0  0  0  0  0  0
   -0.1620    2.0460   -1.0352 O   0  0  0  0  0  0  0  0  0  0  0  0
   -0.1740    1.4019    0.2355 C   0  0  2  0  0  0  0  0  0  0  0  0
    0.7715    2.1222    1.1982 C   0  0  0  0  0  0  0  0  0  0  0  0
    1.3321    1.4598    2.3043 C   0  0  0  0  0  0  0  0  0  0  0  0
    2.1674    2.1328    3.1973 C   0  0  0  0  0  0  0  0  0  0  0  0
    2.4483    3.4841    3.0094 C   0  0  0  0  0  0  0  0  0  0  0  0
    1.9009    4.1732    1.9236 C   0  0  0  0  0  0  0  0  0  0  0  0
    2.1713    5.6368    1.7359 C   0  0  0  0  0  0  0  0  0  0  0  0
    1.0515    3.4922    1.0391 C   0  0  0  0  0  0  0  0  0  0  0  0
   -3.0931    0.0451   -0.2956 C   0  0  0  0  0  0  0  0  0  0  0  0
   -4.5236   -0.3362   -0.6676 C   0  0  0  0  0  0  0  0  0  0  0  0
   -4.8076   -2.6438   -2.5166 H   0  0  0  0  0  0  0  0  0  0  0  0
   -6.4754   -2.2375   -2.9783 H   0  0  0  0  0  0  0  0  0  0  0  0
   -5.9039   -3.9011   -3.0555 H   0  0  0  0  0  0  0  0  0  0  0  0
   -5.6354   -3.9902   -0.6063 H   0  0  0  0  0  0  0  0  0  0  0  0
   -7.2805   -3.7446   -1.1270 H   0  0  0  0  0  0  0  0  0  0  0  0
   -8.3983   -1.4499   -0.9395 H   0  0  0  0  0  0  0  0  0  0  0  0
   -7.6281   -0.1742    0.0113 H   0  0  0  0  0  0  0  0  0  0  0  0
   -7.0455   -0.5426   -1.6136 H   0  0  0  0  0  0  0  0  0  0  0  0
   -8.1480   -2.9851    0.9609 H   0  0  0  0  0  0  0  0  0  0  0  0
   -7.3091   -1.7758    1.9345 H   0  0  0  0  0  0  0  0  0  0  0  0
   -6.5815   -3.3675    1.6719 H   0  0  0  0  0  0  0  0  0  0  0  0
   -5.3922   -0.7023    1.2139 H   0  0  0  0  0  0  0  0  0  0  0  0
   -4.4441   -3.2678    1.1676 H   0  0  0  0  0  0  0  0  0  0  0  0
   -3.6530   -1.8741    1.8515 H   0  0  0  0  0  0  0  0  0  0  0  0
   -3.2027   -2.9465   -0.9575 H   0  0  0  0  0  0  0  0  0  0  0  0
   -2.1444   -3.1941    0.4034 H   0  0  0  0  0  0  0  0  0  0  0  0
   -1.8306   -1.2578   -1.4471 H   0  0  0  0  0  0  0  0  0  0  0  0
   -1.1258   -0.8003    1.5023 H   0  0  0  0  0  0  0  0  0  0  0  0
   -0.3240   -1.9465    0.4693 H   0  0  0  0  0  0  0  0  0  0  0  0
   -1.4927    0.8037   -2.9495 H   0  0  0  0  0  0  0  0  0  0  0  0
   -0.5144    2.0769   -3.6761 H   0  0  0  0  0  0  0  0  0  0  0  0
   -0.0960    0.3639   -3.9285 H   0  0  0  0  0  0  0  0  0  0  0  0
    2.4519    0.9686   -0.4532 H   0  0  0  0  0  0  0  0  0  0  0  0
    4.3800    2.2704   -2.2920 H   0  0  0  0  0  0  0  0  0  0  0  0
    5.6899    2.7716   -0.4943 H   0  0  0  0  0  0  0  0  0  0  0  0
    4.1811    2.6367    0.3811 H   0  0  0  0  0  0  0  0  0  0  0  0
    6.5712    0.8215    0.3160 H   0  0  0  0  0  0  0  0  0  0  0  0
    5.6067    1.3498    1.6850 H   0  0  0  0  0  0  0  0  0  0  0  0
    3.7346   -0.1355    0.8822 H   0  0  0  0  0  0  0  0  0  0  0  0
    4.7685   -2.3726    1.3443 H   0  0  0  0  0  0  0  0  0  0  0  0
    3.8136   -0.9305    3.1229 H   0  0  0  0  0  0  0  0  0  0  0  0
    5.3987   -0.1799    3.3852 H   0  0  0  0  0  0  0  0  0  0  0  0
    5.1668   -1.9019    3.7108 H   0  0  0  0  0  0  0  0  0  0  0  0
    7.1058   -1.9403    0.4999 H   0  0  0  0  0  0  0  0  0  0  0  0
    7.3633   -0.8211    1.8495 H   0  0  0  0  0  0  0  0  0  0  0  0
    7.0608   -2.5316    2.1608 H   0  0  0  0  0  0  0  0  0  0  0  0
    3.7851   -1.4321   -0.9848 H   0  0  0  0  0  0  0  0  0  0  0  0
    5.5203   -1.6222   -1.0342 H   0  0  0  0  0  0  0  0  0  0  0  0
    5.8975    0.3607   -2.1614 H   0  0  0  0  0  0  0  0  0  0  0  0
    4.3698   -0.1600   -2.8518 H   0  0  0  0  0  0  0  0  0  0  0  0
   -1.1698    1.5417    0.6641 H   0  0  0  0  0  0  0  0  0  0  0  0
    1.1252    0.4063    2.4806 H   0  0  0  0  0  0  0  0  0  0  0  0
    2.5959    1.6024    4.0438 H   0  0  0  0  0  0  0  0  0  0  0  0
    3.0957    3.9974    3.7166 H   0  0  0  0  0  0  0  0  0  0  0  0
    3.1501    5.9096    2.1441 H   0  0  0  0  0  0  0  0  0  0  0  0
    2.1796    5.8981    0.6725 H   0  0  0  0  0  0  0  0  0  0  0  0
    1.4007    6.2274    2.2408 H   0  0  0  0  0  0  0  0  0  0  0  0
    0.6082    4.0384    0.2071 H   0  0  0  0  0  0  0  0  0  0  0  0
   -2.7569    0.8512   -0.9551 H   0  0  0  0  0  0  0  0  0  0  0  0
   -3.0982    0.4471    0.7251 H   0  0  0  0  0  0  0  0  0  0  0  0
   -5.1341    0.5749   -0.6831 H   0  0  0  0  0  0  0  0  0  0  0  0
   -4.5329   -0.7325   -1.6844 H   0  0  0  0  0  0  0  0  0  0  0  0
  1  2  1  0
  2  3  1  0
  3  4  1  0
  3  5  1  0
  3  6  1  0
  6  7  1  0
  7  8  1  0
  8  9  1  0
  9 10  1  0
 10 11  1  0
 11 12  1  0
 12 13  1  0
 13 14  1  6
 13 15  1  0
 15 16  2  0
 15 17  1  0
 17 18  1  0
 18 19  1  0
 19 20  1  0
 20 21  1  0
 21 22  1  0
 22 23  1  0
 22 24  1  0
 21 25  1  0
 25 26  1  0
 13 27  1  0
 27 28  1  0
 28 29  1  0
 29 30  2  0
 30 31  1  0
 31 32  2  0
 32 33  1  0
 33 34  1  0
 33 35  2  0
  9 36  1  0
 36 37  1  0
 37  6  1  0
 28 11  1  0
 35 29  1  0
 26 18  1  0
  1 38  1  0
  1 39  1  0
  1 40  1  0
  2 41  1  0
  2 42  1  0
  4 43  1  0
  4 44  1  0
  4 45  1  0
  5 46  1  0
  5 47  1  0
  5 48  1  0
  6 49  1  1
  7 50  1  0
  7 51  1  0
  8 52  1  0
  8 53  1  0
  9 54  1  6
 10 55  1  0
 10 56  1  0
 14 57  1  0
 14 58  1  0
 14 59  1  0
 17 60  1  0
 18 61  1  6
 19 62  1  0
 19 63  1  0
 20 64  1  0
 20 65  1  0
 21 66  1  1
 22 67  1  0
 23 68  1  0
 23 69  1  0
 23 70  1  0
 24 71  1  0
 24 72  1  0
 24 73  1  0
 25 74  1  0
 25 75  1  0
 26 76  1  0
 26 77  1  0
 28 78  1  1
 30 79  1  0
 31 80  1  0
 32 81  1  0
 34 82  1  0
 34 83  1  0
 34 84  1  0
 35 85  1  0
 36 86  1  0
 36 87  1  0
 37 88  1  0
 37 89  1  0
M  END
>  <_SMILES>  (113) 
CCC(C)(C)[C@H]1CC[C@H](CN2O[C@](C)(C(=O)N[C@H]3CC[C@H](C(C)C)CC3)O[C@@H]2c2cccc(C)c2)CC1

$$$$

     RDKit          3D

 89 92  0  0  0  0  0  0  0  0999 V2000
   -6.7379    1.0418   -2.6052 C   0  0  0  0  0  0  0  0  0  0  0  0
   -6.3197    2.0939   -1.5826 C   0  0  0  0  0  0  0  0  0  0  0  0
   -4.8281    2.5732   -1.5975 C   0  0  0  0  0  0  0  0  0  0  0  0
   -4.2852    2.6545   -3.0364 C   0  0  0  0  0  0  0  0  0  0  0  0
   -4.8452    4.0177   -1.0226 C   0  0  0  0  0  0  0  0  0  0  0  0
   -3.9144    1.6755   -0.6697 C   0  0  1  0  0  0  0  0  0  0  0  0
   -4.0256    0.1588   -0.9366 C   0  0  0  0  0  0  0  0  0  0  0  0
   -2.9071   -0.6085   -0.2358 C   0  0  0  0  0  0  0  0  0  0  0  0
   -1.5365   -0.2803   -0.8479 C   0  0  2  0  0  0  0  0  0  0  0  0
   -0.3525   -0.5648    0.1069 C   0  0  0  0  0  0  0  0  0  0  0  0
   -0.2035   -1.9970    0.4159 N   0  0  0  0  0  0  0  0  0  0  0  0
    1.2251   -2.1836    0.6927 O   0  0  0  0  0  0  0  0  0  0  0  0
    1.3891   -2.1747    2.1172 C   0  0  1  0  0  0  0  0  0  0  0  0
    2.1790   -3.4124    2.5263 C   0  0  0  0  0  0  0  0  0  0  0  0
    2.2059   -0.8929    2.4688 C   0  0  0  0  0  0  0  0  0  0  0  0
    1.9158   -0.1367    3.3948 O   0  0  0  0  0  0  0  0  0  0  0  0
    3.3077   -0.6713    1.6497 N   0  0  0  0  0  0  0  0  0  0  0  0
    4.0821    0.5612    1.7376 C   0  0  1  0  0  0  0  0  0  0  0  0
    5.4769    0.3609    1.1270 C   0  0  0  0  0  0  0  0  0  0  0  0
    5.5050    0.6862   -0.3647 C   0  0  0  0  0  0  0  0  0  0  0  0
    5.0767    2.1396   -0.6733 C   0  0  2  0  0  0  0  0  0  0  0  0
    6.2686    3.0285   -1.1295 C   0  0  0  0  0  0  0  0  0  0  0  0
    5.7988    4.4088   -1.6008 C   0  0  0  0  0  0  0  0  0  0  0  0
    7.3697    3.1920   -0.0779 C   0  0  0  0  0  0  0  0  0  0  0  0
    4.2438    2.7557    0.4688 C   0  0  0  0  0  0  0  0  0  0  0  0
    3.3091    1.7216    1.0873 C   0  0  0  0  0  0  0  0  0  0  0  0
    0.1185   -2.1925    2.7405 O   0  0  0  0  0  0  0  0  0  0  0  0
   -0.8215   -2.3850    1.6891 C   0  0  2  0  0  0  0  0  0  0  0  0
   -1.3040   -3.8357    1.7109 C   0  0  0  0  0  0  0  0  0  0  0  0
   -1.5567   -4.4695    2.9403 C   0  0  0  0  0  0  0  0  0  0  0  0
   -2.0240   -5.7833    2.9884 C   0  0  0  0  0  0  0  0  0  0  0  0
   -2.2646   -6.4827    1.8076 C   0  0  0  0  0  0  0  0  0  0  0  0
   -2.0551   -5.8689    0.5692 C   0  0  0  0  0  0  0  0  0  0  0  0
   -2.2896   -6.6255   -0.7047 C   0  0  0  0  0  0  0  0  0  0  0  0
   -1.5705   -4.5528    0.5307 C   0  0  0  0  0  0  0  0  0  0  0  0
   -1.4873    1.1724   -1.3670 C   0  0  0  0  0  0  0  0  0  0  0  0
   -2.4234    2.1083   -0.6053 C   0  0  0  0  0  0  0  0  0  0  0  0
   -6.1661    0.1172   -2.5248 H   0  0  0  0  0  0  0  0  0  0  0  0
   -6.6426    1.4194   -3.6277 H   0  0  0  0  0  0  0  0  0  0  0  0
   -7.7924    0.7854   -2.4549 H   0  0  0  0  0  0  0  0  0  0  0  0
   -6.5759    1.7361   -0.5772 H   0  0  0  0  0  0  0  0  0  0  0  0
   -6.9765    2.9567   -1.7587 H   0  0  0  0  0  0  0  0  0  0  0  0
   -4.9523    3.2483   -3.6722 H   0  0  0  0  0  0  0  0  0  0  0  0
   -4.1826    1.6660   -3.4937 H   0  0  0  0  0  0  0  0  0  0  0  0
   -3.3022    3.1355   -3.0730 H   0  0  0  0  0  0  0  0  0  0  0  0
   -3.8594    4.4902   -1.0371 H   0  0  0  0  0  0  0  0  0  0  0  0
   -5.5074    4.6669   -1.6081 H   0  0  0  0  0  0  0  0  0  0  0  0
   -5.2058    4.0244    0.0123 H   0  0  0  0  0  0  0  0  0  0  0  0
   -4.3000    1.8252    0.3510 H   0  0  0  0  0  0  0  0  0  0  0  0
   -3.9827   -0.0596   -2.0088 H   0  0  0  0  0  0  0  0  0  0  0  0
   -4.9872   -0.2101   -0.5627 H   0  0  0  0  0  0  0  0  0  0  0  0
   -3.0968   -1.6853   -0.3109 H   0  0  0  0  0  0  0  0  0  0  0  0
   -2.9288   -0.3497    0.8292 H   0  0  0  0  0  0  0  0  0  0  0  0
   -1.3989   -0.9250   -1.7283 H   0  0  0  0  0  0  0  0  0  0  0  0
    0.5583   -0.2307   -0.4090 H   0  0  0  0  0  0  0  0  0  0  0  0
   -0.4296    0.0470    1.0150 H   0  0  0  0  0  0  0  0  0  0  0  0
    3.1595   -3.4480    2.0396 H   0  0  0  0  0  0  0  0  0  0  0  0
    2.3256   -3.4429    3.6113 H   0  0  0  0  0  0  0  0  0  0  0  0
    1.6477   -4.3271    2.2418 H   0  0  0  0  0  0  0  0  0  0  0  0
    3.3055   -1.1613    0.7610 H   0  0  0  0  0  0  0  0  0  0  0  0
    4.2140    0.7804    2.8049 H   0  0  0  0  0  0  0  0  0  0  0  0
    6.1889    1.0158    1.6443 H   0  0  0  0  0  0  0  0  0  0  0  0
    5.8275   -0.6654    1.2903 H   0  0  0  0  0  0  0  0  0  0  0  0
    4.8169    0.0028   -0.8801 H   0  0  0  0  0  0  0  0  0  0  0  0
    6.4974    0.4697   -0.7763 H   0  0  0  0  0  0  0  0  0  0  0  0
    4.4082    2.0700   -1.5448 H   0  0  0  0  0  0  0  0  0  0  0  0
    6.7246    2.5357   -1.9994 H   0  0  0  0  0  0  0  0  0  0  0  0
    6.6286    4.9634   -2.0526 H   0  0  0  0  0  0  0  0  0  0  0  0
    5.4113    5.0106   -0.7724 H   0  0  0  0  0  0  0  0  0  0  0  0
    5.0118    4.3168   -2.3565 H   0  0  0  0  0  0  0  0  0  0  0  0
    7.7808    2.2257    0.2275 H   0  0  0  0  0  0  0  0  0  0  0  0
    7.0095    3.7098    0.8158 H   0  0  0  0  0  0  0  0  0  0  0  0
    8.1999    3.7804   -0.4846 H   0  0  0  0  0  0  0  0  0  0  0  0
    4.8867    3.1668    1.2546 H   0  0  0  0  0  0  0  0  0  0  0  0
    3.6475    3.5902    0.0817 H   0  0  0  0  0  0  0  0  0  0  0  0
    2.6686    2.2004    1.8378 H   0  0  0  0  0  0  0  0  0  0  0  0
    2.6331    1.3464    0.3072 H   0  0  0  0  0  0  0  0  0  0  0  0
   -1.7026   -1.7803    1.9225 H   0  0  0  0  0  0  0  0  0  0  0  0
   -1.3820   -3.9370    3.8738 H   0  0  0  0  0  0  0  0  0  0  0  0
   -2.2007   -6.2608    3.9486 H   0  0  0  0  0  0  0  0  0  0  0  0
   -2.6225   -7.5082    1.8598 H   0  0  0  0  0  0  0  0  0  0  0  0
   -1.3669   -7.1226   -1.0196 H   0  0  0  0  0  0  0  0  0  0  0  0
   -3.0711   -7.3813   -0.5733 H   0  0  0  0  0  0  0  0  0  0  0  0
   -2.6206   -5.9525   -1.5027 H   0  0  0  0  0  0  0  0  0  0  0  0
   -1.3981   -4.0827   -0.4365 H   0  0  0  0  0  0  0  0  0  0  0  0
   -0.4650    1.5671   -1.3331 H   0  0  0  0  0  0  0  0  0  0  0  0
   -1.7722    1.1773   -2.4269 H   0  0  0  0  0  0  0  0  0  0  0  0
   -2.1113    2.1225    0.4478 H   0  0  0  0  0  0  0  0  0  0  0  0
   -2.2712    3.1278   -0.9673 H   0  0  0  0  0  0  0  0  0  0  0  0
  1  2  1  0
  2  3  1  0
  3  4  1  0
  3  5  1  0
  3  6  1  0
  6  7  1  0
  7  8  1  0
  8  9  1  0
  9 10  1  0
 10 11  1  0
 11 12  1  0
 12 13  1  0
 13 14  1  1
 13 15  1  0
 15 16  2  0
 15 17  1  0
 17 18  1  0
 18 19  1  0
 19 20  1  0
 20 21  1  0
 21 22  1  0
 22 23  1  0
 22 24  1  0
 21 25  1  0
 25 26  1  0
 13 27  1  0
 27 28  1  0
 28 29  1  0
 29 30  2  0
 30 31  1  0
 31 32  2  0
 32 33  1  0
 33 34  1  0
 33 35  2  0
  9 36  1  0
 36 37  1  0
 37  6  1  0
 28 11  1  0
 35 29  1  0
 26 18  1  0
  1 38  1  0
  1 39  1  0
  1 40  1  0
  2 41  1  0
  2 42  1  0
  4 43  1  0
  4 44  1  0
  4 45  1  0
  5 46  1  0
  5 47  1  0
  5 48  1  0
  6 49  1  1
  7 50  1  0
  7 51  1  0
  8 52  1  0
  8 53  1  0
  9 54  1  6
 10 55  1  0
 10 56  1  0
 14 57  1  0
 14 58  1  0
 14 59  1  0
 17 60  1  0
 18 61  1  1
 19 62  1  0
 19 63  1  0
 20 64  1  0
 20 65  1  0
 21 66  1  6
 22 67  1  0
 23 68  1  0
 23 69  1  0
 23 70  1  0
 24 71  1  0
 24 72  1  0
 24 73  1  0
 25 74  1  0
 25 75  1  0
 26 76  1  0
 26 77  1  0
 28 78  1  1
 30 79  1  0
 31 80  1  0
 32 81  1  0
 34 82  1  0
 34 83  1  0
 34 84  1  0
 35 85  1  0
 36 86  1  0
 36 87  1  0
 37 88  1  0
 37 89  1  0
M  END
>  <_SMILES>  (114) 
CCC(C)(C)[C@H]1CC[C@H](CN2O[C@@](C)(C(=O)N[C@H]3CC[C@H](C(C)C)CC3)O[C@@H]2c2cccc(C)c2)CC1

$$$$

     RDKit          3D

 89 92  0  0  0  0  0  0  0  0999 V2000
   -7.3778   -1.3160    0.3360 C   0  0  0  0  0  0  0  0  0  0  0  0
   -6.8069   -2.2137    1.4274 C   0  0  0  0  0  0  0  0  0  0  0  0
   -5.2765   -2.5155    1.3408 C   0  0  0  0  0  0  0  0  0  0  0  0
   -4.9289   -3.3872    2.5703 C   0  0  0  0  0  0  0  0  0  0  0  0
   -5.0110   -3.3608    0.0730 C   0  0  0  0  0  0  0  0  0  0  0  0
   -4.4099   -1.2011    1.2955 C   0  0  1  0  0  0  0  0  0  0  0  0
   -4.5886   -0.2823    2.5163 C   0  0  0  0  0  0  0  0  0  0  0  0
   -3.9110    1.0806    2.3177 C   0  0  0  0  0  0  0  0  0  0  0  0
   -2.5556    1.0262    1.5727 C   0  0  2  0  0  0  0  0  0  0  0  0
   -2.7094    1.6094    0.1410 C   0  0  0  0  0  0  0  0  0  0  0  0
   -1.5637    1.7293   -0.7629 N   0  0  0  0  0  0  0  0  0  0  0  0
   -1.1412    0.3997   -1.1807 O   0  0  0  0  0  0  0  0  0  0  0  0
    0.2497    0.5255   -1.4826 C   0  0  2  0  0  0  0  0  0  0  0  0
    0.4453    0.5028   -2.9945 C   0  0  0  0  0  0  0  0  0  0  0  0
    1.0564   -0.6512   -0.8603 C   0  0  0  0  0  0  0  0  0  0  0  0
    0.5952   -1.7771   -0.6868 O   0  0  0  0  0  0  0  0  0  0  0  0
    2.3660   -0.3206   -0.5460 N   0  0  0  0  0  0  0  0  0  0  0  0
    3.3375   -1.3010   -0.0836 C   0  0  1  0  0  0  0  0  0  0  0  0
    3.9532   -2.0636   -1.2688 C   0  0  0  0  0  0  0  0  0  0  0  0
    5.2162   -1.3847   -1.7939 C   0  0  0  0  0  0  0  0  0  0  0  0
    6.3185   -1.2478   -0.7180 C   0  0  2  0  0  0  0  0  0  0  0  0
    7.5142   -2.2121   -0.9615 C   0  0  0  0  0  0  0  0  0  0  0  0
    8.6681   -1.9409    0.0096 C   0  0  0  0  0  0  0  0  0  0  0  0
    7.1440   -3.6973   -0.9175 C   0  0  0  0  0  0  0  0  0  0  0  0
    5.7461   -1.3162    0.7126 C   0  0  0  0  0  0  0  0  0  0  0  0
    4.3940   -0.6155    0.7959 C   0  0  0  0  0  0  0  0  0  0  0  0
    0.7384    1.7809   -0.9895 O   0  0  0  0  0  0  0  0  0  0  0  0
   -0.3417    2.2694   -0.1897 C   0  0  1  0  0  0  0  0  0  0  0  0
   -0.3093    3.7815   -0.1926 C   0  0  0  0  0  0  0  0  0  0  0  0
   -0.2748    4.4929    1.0160 C   0  0  0  0  0  0  0  0  0  0  0  0
   -0.2606    5.8881    1.0178 C   0  0  0  0  0  0  0  0  0  0  0  0
   -0.2789    6.5907   -0.1868 C   0  0  0  0  0  0  0  0  0  0  0  0
   -0.3024    5.9052   -1.4056 C   0  0  0  0  0  0  0  0  0  0  0  0
   -0.3620    6.6573   -2.7018 C   0  0  0  0  0  0  0  0  0  0  0  0
   -0.3309    4.5042   -1.3985 C   0  0  0  0  0  0  0  0  0  0  0  0
   -1.9830   -0.3900    1.6458 C   0  0  0  0  0  0  0  0  0  0  0  0
   -2.9019   -1.4535    1.0412 C   0  0  0  0  0  0  0  0  0  0  0  0
   -6.9689   -0.3034    0.3895 H   0  0  0  0  0  0  0  0  0  0  0  0
   -8.4632   -1.2334    0.4573 H   0  0  0  0  0  0  0  0  0  0  0  0
   -7.1887   -1.7191   -0.6625 H   0  0  0  0  0  0  0  0  0  0  0  0
   -7.0481   -1.7681    2.4000 H   0  0  0  0  0  0  0  0  0  0  0  0
   -7.3589   -3.1632    1.3997 H   0  0  0  0  0  0  0  0  0  0  0  0
   -5.5229   -4.3091    2.5740 H   0  0  0  0  0  0  0  0  0  0  0  0
   -5.1413   -2.8646    3.5086 H   0  0  0  0  0  0  0  0  0  0  0  0
   -3.8774   -3.6872    2.5845 H   0  0  0  0  0  0  0  0  0  0  0  0
   -3.9954   -3.7707    0.0636 H   0  0  0  0  0  0  0  0  0  0  0  0
   -5.1344   -2.7674   -0.8389 H   0  0  0  0  0  0  0  0  0  0  0  0
   -5.6988   -4.2123    0.0137 H   0  0  0  0  0  0  0  0  0  0  0  0
   -4.7616   -0.6318    0.4252 H   0  0  0  0  0  0  0  0  0  0  0  0
   -4.1665   -0.7611    3.4084 H   0  0  0  0  0  0  0  0  0  0  0  0
   -5.6460   -0.1023    2.7332 H   0  0  0  0  0  0  0  0  0  0  0  0
   -3.7557    1.5257    3.3091 H   0  0  0  0  0  0  0  0  0  0  0  0
   -4.6058    1.7538    1.8001 H   0  0  0  0  0  0  0  0  0  0  0  0
   -1.8770    1.6915    2.1216 H   0  0  0  0  0  0  0  0  0  0  0  0
   -3.1162    2.6241    0.2499 H   0  0  0  0  0  0  0  0  0  0  0  0
   -3.4912    1.0594   -0.3962 H   0  0  0  0  0  0  0  0  0  0  0  0
    1.5004    0.6211   -3.2641 H   0  0  0  0  0  0  0  0  0  0  0  0
    0.0757   -0.4331   -3.4270 H   0  0  0  0  0  0  0  0  0  0  0  0
   -0.1065    1.3226   -3.4684 H   0  0  0  0  0  0  0  0  0  0  0  0
    2.6706    0.6189   -0.7864 H   0  0  0  0  0  0  0  0  0  0  0  0
    2.7924   -2.0317    0.5275 H   0  0  0  0  0  0  0  0  0  0  0  0
    3.2285   -2.1757   -2.0840 H   0  0  0  0  0  0  0  0  0  0  0  0
    4.2081   -3.0794   -0.9427 H   0  0  0  0  0  0  0  0  0  0  0  0
    5.5885   -1.9169   -2.6765 H   0  0  0  0  0  0  0  0  0  0  0  0
    4.9453   -0.3804   -2.1468 H   0  0  0  0  0  0  0  0  0  0  0  0
    6.7261   -0.2332   -0.8430 H   0  0  0  0  0  0  0  0  0  0  0  0
    7.8953   -2.0052   -1.9711 H   0  0  0  0  0  0  0  0  0  0  0  0
    9.5511   -2.5259   -0.2702 H   0  0  0  0  0  0  0  0  0  0  0  0
    8.9526   -0.8837   -0.0069 H   0  0  0  0  0  0  0  0  0  0  0  0
    8.4055   -2.2102    1.0377 H   0  0  0  0  0  0  0  0  0  0  0  0
    8.0195   -4.3148   -1.1477 H   0  0  0  0  0  0  0  0  0  0  0  0
    6.7806   -4.0004    0.0688 H   0  0  0  0  0  0  0  0  0  0  0  0
    6.3759   -3.9421   -1.6566 H   0  0  0  0  0  0  0  0  0  0  0  0
    5.6296   -2.3527    1.0469 H   0  0  0  0  0  0  0  0  0  0  0  0
    6.4416   -0.8365    1.4112 H   0  0  0  0  0  0  0  0  0  0  0  0
    4.5245    0.4350    0.5036 H   0  0  0  0  0  0  0  0  0  0  0  0
    4.0440   -0.5975    1.8352 H   0  0  0  0  0  0  0  0  0  0  0  0
   -0.1447    1.8927    0.8200 H   0  0  0  0  0  0  0  0  0  0  0  0
   -0.2634    3.9648    1.9667 H   0  0  0  0  0  0  0  0  0  0  0  0
   -0.2396    6.4300    1.9598 H   0  0  0  0  0  0  0  0  0  0  0  0
   -0.2764    7.6781   -0.1687 H   0  0  0  0  0  0  0  0  0  0  0  0
   -1.4043    6.8303   -2.9864 H   0  0  0  0  0  0  0  0  0  0  0  0
    0.1468    7.6233   -2.6171 H   0  0  0  0  0  0  0  0  0  0  0  0
    0.1357    6.0978   -3.5008 H   0  0  0  0  0  0  0  0  0  0  0  0
   -0.3749    3.9595   -2.3405 H   0  0  0  0  0  0  0  0  0  0  0  0
   -1.8186   -0.6389    2.7035 H   0  0  0  0  0  0  0  0  0  0  0  0
   -0.9916   -0.4466    1.1902 H   0  0  0  0  0  0  0  0  0  0  0  0
   -2.7371   -1.5030   -0.0423 H   0  0  0  0  0  0  0  0  0  0  0  0
   -2.5798   -2.4229    1.4332 H   0  0  0  0  0  0  0  0  0  0  0  0
  1  2  1  0
  2  3  1  0
  3  4  1  0
  3  5  1  0
  3  6  1  0
  6  7  1  0
  7  8  1  0
  8  9  1  0
  9 10  1  0
 10 11  1  0
 11 12  1  0
 12 13  1  0
 13 14  1  6
 13 15  1  0
 15 16  2  0
 15 17  1  0
 17 18  1  0
 18 19  1  0
 19 20  1  0
 20 21  1  0
 21 22  1  0
 22 23  1  0
 22 24  1  0
 21 25  1  0
 25 26  1  0
 13 27  1  0
 27 28  1  0
 28 29  1  0
 29 30  2  0
 30 31  1  0
 31 32  2  0
 32 33  1  0
 33 34  1  0
 33 35  2  0
  9 36  1  0
 36 37  1  0
 37  6  1  0
 28 11  1  0
 35 29  1  0
 26 18  1  0
  1 38  1  0
  1 39  1  0
  1 40  1  0
  2 41  1  0
  2 42  1  0
  4 43  1  0
  4 44  1  0
  4 45  1  0
  5 46  1  0
  5 47  1  0
  5 48  1  0
  6 49  1  6
  7 50  1  0
  7 51  1  0
  8 52  1  0
  8 53  1  0
  9 54  1  1
 10 55  1  0
 10 56  1  0
 14 57  1  0
 14 58  1  0
 14 59  1  0
 17 60  1  0
 18 61  1  1
 19 62  1  0
 19 63  1  0
 20 64  1  0
 20 65  1  0
 21 66  1  6
 22 67  1  0
 23 68  1  0
 23 69  1  0
 23 70  1  0
 24 71  1  0
 24 72  1  0
 24 73  1  0
 25 74  1  0
 25 75  1  0
 26 76  1  0
 26 77  1  0
 28 78  1  1
 30 79  1  0
 31 80  1  0
 32 81  1  0
 34 82  1  0
 34 83  1  0
 34 84  1  0
 35 85  1  0
 36 86  1  0
 36 87  1  0
 37 88  1  0
 37 89  1  0
M  END
>  <_SMILES>  (115) 
CCC(C)(C)[C@H]1CC[C@H](CN2O[C@](C)(C(=O)N[C@H]3CC[C@H](C(C)C)CC3)O[C@H]2c2cccc(C)c2)CC1

$$$$

     RDKit          3D

 89 92  0  0  0  0  0  0  0  0999 V2000
   -9.5056    0.6919    0.6221 C   0  0  0  0  0  0  0  0  0  0  0  0
   -8.0621    1.1789    0.5234 C   0  0  0  0  0  0  0  0  0  0  0  0
   -6.9723    0.1100    0.1875 C   0  0  0  0  0  0  0  0  0  0  0  0
   -6.8464   -0.8735    1.3640 C   0  0  0  0  0  0  0  0  0  0  0  0
   -7.4368   -0.7105   -1.0449 C   0  0  0  0  0  0  0  0  0  0  0  0
   -5.5998    0.8295   -0.1822 C   0  0  1  0  0  0  0  0  0  0  0  0
   -5.1885    2.0508    0.6732 C   0  0  0  0  0  0  0  0  0  0  0  0
   -4.4048    1.7162    1.9374 C   0  0  0  0  0  0  0  0  0  0  0  0
   -3.1533    0.8687    1.6558 C   0  0  2  0  0  0  0  0  0  0  0  0
   -2.0481    1.7201    0.9789 C   0  0  0  0  0  0  0  0  0  0  0  0
   -0.7481    1.0309    0.9351 N   0  0  0  0  0  0  0  0  0  0  0  0
    0.2422    2.1215    0.9694 O   0  0  0  0  0  0  0  0  0  0  0  0
    0.9190    2.1389   -0.2840 C   0  0  1  0  0  0  0  0  0  0  0  0
    0.8781    3.5516   -0.8515 C   0  0  0  0  0  0  0  0  0  0  0  0
    2.4126    1.7245   -0.0971 C   0  0  0  0  0  0  0  0  0  0  0  0
    3.0547    1.9439    0.9278 O   0  0  0  0  0  0  0  0  0  0  0  0
    2.9560    1.0994   -1.2156 N   0  0  0  0  0  0  0  0  0  0  0  0
    4.2304    0.4007   -1.1278 C   0  0  1  0  0  0  0  0  0  0  0  0
    4.4430   -0.4834   -2.3573 C   0  0  0  0  0  0  0  0  0  0  0  0
    5.7078   -1.3379   -2.2249 C   0  0  0  0  0  0  0  0  0  0  0  0
    6.9027   -0.6135   -1.5535 C   0  0  2  0  0  0  0  0  0  0  0  0
    7.1808   -1.1444   -0.1117 C   0  0  0  0  0  0  0  0  0  0  0  0
    8.2249   -0.3091    0.6403 C   0  0  0  0  0  0  0  0  0  0  0  0
    7.6693   -2.6019   -0.1362 C   0  0  0  0  0  0  0  0  0  0  0  0
    6.6907    0.9081   -1.6356 C   0  0  0  0  0  0  0  0  0  0  0  0
    5.4070    1.3755   -0.9467 C   0  0  0  0  0  0  0  0  0  0  0  0
    0.2333    1.2825   -1.1937 O   0  0  0  0  0  0  0  0  0  0  0  0
   -0.4824    0.3830   -0.3514 C   0  0  1  0  0  0  0  0  0  0  0  0
    0.3246   -0.9072   -0.2613 C   0  0  0  0  0  0  0  0  0  0  0  0
    0.3573   -1.7662   -1.3740 C   0  0  0  0  0  0  0  0  0  0  0  0
    1.1315   -2.9266   -1.3602 C   0  0  0  0  0  0  0  0  0  0  0  0
    1.8920   -3.2450   -0.2369 C   0  0  0  0  0  0  0  0  0  0  0  0
    1.8716   -2.4148    0.8878 C   0  0  0  0  0  0  0  0  0  0  0  0
    2.7278   -2.7256    2.0801 C   0  0  0  0  0  0  0  0  0  0  0  0
    1.0929   -1.2486    0.8648 C   0  0  0  0  0  0  0  0  0  0  0  0
   -3.5673   -0.3928    0.8916 C   0  0  0  0  0  0  0  0  0  0  0  0
   -4.3804   -0.1063   -0.3743 C   0  0  0  0  0  0  0  0  0  0  0  0
  -10.1529    1.5226    0.9238 H   0  0  0  0  0  0  0  0  0  0  0  0
   -9.8769    0.3291   -0.3405 H   0  0  0  0  0  0  0  0  0  0  0  0
   -9.6220   -0.0999    1.3664 H   0  0  0  0  0  0  0  0  0  0  0  0
   -7.8220    1.6486    1.4850 H   0  0  0  0  0  0  0  0  0  0  0  0
   -8.0350    1.9712   -0.2358 H   0  0  0  0  0  0  0  0  0  0  0  0
   -6.5073   -0.3779    2.2761 H   0  0  0  0  0  0  0  0  0  0  0  0
   -6.1600   -1.6931    1.1323 H   0  0  0  0  0  0  0  0  0  0  0  0
   -7.8054   -1.3484    1.5967 H   0  0  0  0  0  0  0  0  0  0  0  0
   -8.3499   -1.2778   -0.8343 H   0  0  0  0  0  0  0  0  0  0  0  0
   -6.6896   -1.4452   -1.3580 H   0  0  0  0  0  0  0  0  0  0  0  0
   -7.6392   -0.0556   -1.8998 H   0  0  0  0  0  0  0  0  0  0  0  0
   -5.7931    1.2569   -1.1793 H   0  0  0  0  0  0  0  0  0  0  0  0
   -6.0428    2.6816    0.9309 H   0  0  0  0  0  0  0  0  0  0  0  0
   -4.5589    2.6965    0.0459 H   0  0  0  0  0  0  0  0  0  0  0  0
   -4.1184    2.6478    2.4408 H   0  0  0  0  0  0  0  0  0  0  0  0
   -5.0525    1.1861    2.6429 H   0  0  0  0  0  0  0  0  0  0  0  0
   -2.7563    0.5497    2.6300 H   0  0  0  0  0  0  0  0  0  0  0  0
   -2.3511    2.0669   -0.0162 H   0  0  0  0  0  0  0  0  0  0  0  0
   -1.9373    2.6273    1.5892 H   0  0  0  0  0  0  0  0  0  0  0  0
    1.3710    4.2636   -0.1807 H   0  0  0  0  0  0  0  0  0  0  0  0
   -0.1581    3.8856   -0.9781 H   0  0  0  0  0  0  0  0  0  0  0  0
    1.3609    3.6031   -1.8333 H   0  0  0  0  0  0  0  0  0  0  0  0
    2.2514    0.6989   -1.8294 H   0  0  0  0  0  0  0  0  0  0  0  0
    4.1682   -0.2456   -0.2428 H   0  0  0  0  0  0  0  0  0  0  0  0
    4.5077    0.1404   -3.2587 H   0  0  0  0  0  0  0  0  0  0  0  0
    3.5807   -1.1431   -2.5134 H   0  0  0  0  0  0  0  0  0  0  0  0
    6.0053   -1.6641   -3.2296 H   0  0  0  0  0  0  0  0  0  0  0  0
    5.4431   -2.2509   -1.6826 H   0  0  0  0  0  0  0  0  0  0  0  0
    7.7978   -0.8416   -2.1496 H   0  0  0  0  0  0  0  0  0  0  0  0
    6.2521   -1.1151    0.4709 H   0  0  0  0  0  0  0  0  0  0  0  0
    9.1515   -0.2203    0.0633 H   0  0  0  0  0  0  0  0  0  0  0  0
    7.8542    0.6970    0.8570 H   0  0  0  0  0  0  0  0  0  0  0  0
    8.4709   -0.7673    1.6047 H   0  0  0  0  0  0  0  0  0  0  0  0
    8.5933   -2.6977   -0.7168 H   0  0  0  0  0  0  0  0  0  0  0  0
    7.8735   -2.9585    0.8796 H   0  0  0  0  0  0  0  0  0  0  0  0
    6.9284   -3.2799   -0.5672 H   0  0  0  0  0  0  0  0  0  0  0  0
    6.6399    1.1917   -2.6961 H   0  0  0  0  0  0  0  0  0  0  0  0
    7.5500    1.4590   -1.2391 H   0  0  0  0  0  0  0  0  0  0  0  0
    5.5945    1.5111    0.1254 H   0  0  0  0  0  0  0  0  0  0  0  0
    5.1525    2.3705   -1.3341 H   0  0  0  0  0  0  0  0  0  0  0  0
   -1.4128    0.1290   -0.8686 H   0  0  0  0  0  0  0  0  0  0  0  0
   -0.2172   -1.5254   -2.2664 H   0  0  0  0  0  0  0  0  0  0  0  0
    1.1492   -3.5792   -2.2292 H   0  0  0  0  0  0  0  0  0  0  0  0
    2.5024   -4.1452   -0.2433 H   0  0  0  0  0  0  0  0  0  0  0  0
    2.8762   -3.8055    2.1843 H   0  0  0  0  0  0  0  0  0  0  0  0
    2.2555   -2.3723    3.0027 H   0  0  0  0  0  0  0  0  0  0  0  0
    3.7045   -2.2432    1.9738 H   0  0  0  0  0  0  0  0  0  0  0  0
    1.1028   -0.5908    1.7341 H   0  0  0  0  0  0  0  0  0  0  0  0
   -2.6938   -1.0009    0.6374 H   0  0  0  0  0  0  0  0  0  0  0  0
   -4.1529   -1.0216    1.5693 H   0  0  0  0  0  0  0  0  0  0  0  0
   -4.6722   -1.0567   -0.8298 H   0  0  0  0  0  0  0  0  0  0  0  0
   -3.7142    0.3692   -1.1055 H   0  0  0  0  0  0  0  0  0  0  0  0
  1  2  1  0
  2  3  1  0
  3  4  1  0
  3  5  1  0
  3  6  1  0
  6  7  1  0
  7  8  1  0
  8  9  1  0
  9 10  1  0
 10 11  1  0
 11 12  1  0
 12 13  1  0
 13 14  1  6
 13 15  1  0
 15 16  2  0
 15 17  1  0
 17 18  1  0
 18 19  1  0
 19 20  1  0
 20 21  1  0
 21 22  1  0
 22 23  1  0
 22 24  1  0
 21 25  1  0
 25 26  1  0
 13 27  1  0
 27 28  1  0
 28 29  1  0
 29 30  2  0
 30 31  1  0
 31 32  2  0
 32 33  1  0
 33 34  1  0
 33 35  2  0
  9 36  1  0
 36 37  1  0
 37  6  1  0
 28 11  1  0
 35 29  1  0
 26 18  1  0
  1 38  1  0
  1 39  1  0
  1 40  1  0
  2 41  1  0
  2 42  1  0
  4 43  1  0
  4 44  1  0
  4 45  1  0
  5 46  1  0
  5 47  1  0
  5 48  1  0
  6 49  1  6
  7 50  1  0
  7 51  1  0
  8 52  1  0
  8 53  1  0
  9 54  1  1
 10 55  1  0
 10 56  1  0
 14 57  1  0
 14 58  1  0
 14 59  1  0
 17 60  1  0
 18 61  1  1
 19 62  1  0
 19 63  1  0
 20 64  1  0
 20 65  1  0
 21 66  1  6
 22 67  1  0
 23 68  1  0
 23 69  1  0
 23 70  1  0
 24 71  1  0
 24 72  1  0
 24 73  1  0
 25 74  1  0
 25 75  1  0
 26 76  1  0
 26 77  1  0
 28 78  1  6
 30 79  1  0
 31 80  1  0
 32 81  1  0
 34 82  1  0
 34 83  1  0
 34 84  1  0
 35 85  1  0
 36 86  1  0
 36 87  1  0
 37 88  1  0
 37 89  1  0
M  END
>  <_SMILES>  (116) 
CCC(C)(C)[C@H]1CC[C@H](CN2O[C@@](C)(C(=O)N[C@H]3CC[C@H](C(C)C)CC3)O[C@H]2c2cccc(C)c2)CC1

$$$$

     RDKit          3D

 64 70  0  0  0  0  0  0  0  0999 V2000
   -4.5856   -1.9131    2.8957 C   0  0  0  0  0  0  0  0  0  0  0  0
   -4.4673   -1.8926    1.4003 C   0  0  0  0  0  0  0  0  0  0  0  0
   -5.4006   -2.5640    0.6021 C   0  0  0  0  0  0  0  0  0  0  0  0
   -5.2638   -2.5777   -0.7869 C   0  0  0  0  0  0  0  0  0  0  0  0
   -4.1909   -1.9221   -1.3909 C   0  0  0  0  0  0  0  0  0  0  0  0
   -3.2494   -1.2490   -0.6075 C   0  0  0  0  0  0  0  0  0  0  0  0
   -2.1388   -0.5387   -1.2280 C   0  0  0  0  0  0  0  0  0  0  0  0
   -0.7929   -0.8719   -1.3059 C   0  0  0  0  0  0  0  0  0  0  0  0
   -0.1849    0.2289   -1.9901 C   0  0  0  0  0  0  0  0  0  0  0  0
   -1.0855    1.1428   -2.3494 N   0  0  0  0  0  0  0  0  0  0  0  0
   -2.2477    0.6882   -1.8433 N   0  0  0  0  0  0  0  0  0  0  0  0
   -3.4560    1.4869   -2.0327 C   0  0  0  0  0  0  0  0  0  0  0  0
   -3.8790    2.1565   -0.7748 C   0  0  0  0  0  0  0  0  0  0  0  0
   -3.4399    3.3058   -0.1544 C   0  0  0  0  0  0  0  0  0  0  0  0
   -4.1400    3.5345    1.0018 N   0  0  0  0  0  0  0  0  0  0  0  0
   -4.9861    2.5360    1.0997 C   0  0  0  0  0  0  0  0  0  0  0  0
   -4.8714    1.6766    0.0450 N   0  0  0  0  0  0  0  0  0  0  0  0
    1.1567    0.3186   -2.2384 N   0  0  0  0  0  0  0  0  0  0  0  0
    1.5023    0.8378   -3.5652 C   0  0  0  0  0  0  0  0  0  0  0  0
    1.9777    0.9523   -1.1735 C   0  0  0  0  0  0  0  0  0  0  0  0
    1.6820    0.3385    0.1602 C   0  0  1  0  0  0  0  0  0  0  0  0
    1.9064   -1.1493    0.2249 C   0  0  2  0  0  0  0  0  0  0  0  0
    0.6753   -1.9561    0.4903 C   0  0  0  0  0  0  0  0  0  0  0  0
   -0.1411   -2.1307   -0.8027 C   0  0  0  0  0  0  0  0  0  0  0  0
    2.6270   -0.2440    1.1988 C   0  0  1  0  0  0  0  0  0  0  0  0
    4.1132   -0.0021    1.0908 C   0  0  0  0  0  0  0  0  0  0  0  0
    5.0258   -1.0766    0.9465 C   0  0  0  0  0  0  0  0  0  0  0  0
    6.4073   -0.8690    0.8562 C   0  0  0  0  0  0  0  0  0  0  0  0
    6.8624    0.4273    0.9207 C   0  0  0  0  0  0  0  0  0  0  0  0
    6.0002    1.4848    1.0718 C   0  0  0  0  0  0  0  0  0  0  0  0
    4.6355    1.3030    1.1637 C   0  0  0  0  0  0  0  0  0  0  0  0
    6.6474    2.6801    1.1180 O   0  0  0  0  0  0  0  0  0  0  0  0
    8.0177    2.2506    0.9796 C   0  0  0  0  0  0  0  0  0  0  0  0
    8.1616    0.8208    0.8522 O   0  0  0  0  0  0  0  0  0  0  0  0
   -3.3831   -1.2516    0.7868 C   0  0  0  0  0  0  0  0  0  0  0  0
   -4.0260   -2.7603    3.3038 H   0  0  0  0  0  0  0  0  0  0  0  0
   -4.1948   -0.9866    3.3295 H   0  0  0  0  0  0  0  0  0  0  0  0
   -5.6327   -1.9991    3.2042 H   0  0  0  0  0  0  0  0  0  0  0  0
   -6.2345   -3.0931    1.0595 H   0  0  0  0  0  0  0  0  0  0  0  0
   -5.9868   -3.1125   -1.3982 H   0  0  0  0  0  0  0  0  0  0  0  0
   -4.0851   -1.9521   -2.4732 H   0  0  0  0  0  0  0  0  0  0  0  0
   -3.2446    2.2326   -2.8083 H   0  0  0  0  0  0  0  0  0  0  0  0
   -4.2336    0.8242   -2.4261 H   0  0  0  0  0  0  0  0  0  0  0  0
   -2.6546    3.9777   -0.4794 H   0  0  0  0  0  0  0  0  0  0  0  0
   -5.6949    2.3808    1.9020 H   0  0  0  0  0  0  0  0  0  0  0  0
   -5.3957    0.8192   -0.0765 H   0  0  0  0  0  0  0  0  0  0  0  0
    2.5693    0.6857   -3.7624 H   0  0  0  0  0  0  0  0  0  0  0  0
    1.2882    1.9097   -3.6487 H   0  0  0  0  0  0  0  0  0  0  0  0
    0.9527    0.3045   -4.3498 H   0  0  0  0  0  0  0  0  0  0  0  0
    1.7790    2.0308   -1.1325 H   0  0  0  0  0  0  0  0  0  0  0  0
    3.0370    0.8254   -1.4253 H   0  0  0  0  0  0  0  0  0  0  0  0
    0.7699    0.7630    0.5724 H   0  0  0  0  0  0  0  0  0  0  0  0
    2.5106   -1.6129   -0.5511 H   0  0  0  0  0  0  0  0  0  0  0  0
    0.0596   -1.5002    1.2751 H   0  0  0  0  0  0  0  0  0  0  0  0
    0.9817   -2.9436    0.8541 H   0  0  0  0  0  0  0  0  0  0  0  0
    0.4995   -2.5350   -1.5973 H   0  0  0  0  0  0  0  0  0  0  0  0
   -0.9106   -2.8911   -0.6217 H   0  0  0  0  0  0  0  0  0  0  0  0
    2.2504   -0.2626    2.2207 H   0  0  0  0  0  0  0  0  0  0  0  0
    4.6441   -2.0954    0.9039 H   0  0  0  0  0  0  0  0  0  0  0  0
    7.0943   -1.6994    0.7419 H   0  0  0  0  0  0  0  0  0  0  0  0
    3.9785    2.1574    1.2902 H   0  0  0  0  0  0  0  0  0  0  0  0
    8.5797    2.5824    1.8603 H   0  0  0  0  0  0  0  0  0  0  0  0
    8.4459    2.7266    0.0898 H   0  0  0  0  0  0  0  0  0  0  0  0
   -2.6411   -0.7373    1.3969 H   0  0  0  0  0  0  0  0  0  0  0  0
  1  2  1  0
  2  3  2  0
  3  4  1  0
  4  5  2  0
  5  6  1  0
  6  7  1  0
  7  8  2  0
  8  9  1  0
  9 10  2  0
 10 11  1  0
 11 12  1  0
 12 13  1  0
 13 14  2  0
 14 15  1  0
 15 16  2  0
 16 17  1  0
  9 18  1  0
 18 19  1  0
 18 20  1  0
 20 21  1  0
 21 22  1  0
 22 23  1  0
 23 24  1  0
 22 25  1  0
 25 26  1  0
 26 27  1  0
 27 28  2  0
 28 29  1  0
 29 30  2  0
 30 31  1  0
 30 32  1  0
 32 33  1  0
 33 34  1  0
  6 35  2  0
 35  2  1  0
 11  7  1  0
 17 13  1  0
 25 21  1  0
 31 26  2  0
 24  8  1  0
 34 29  1  0
  1 36  1  0
  1 37  1  0
  1 38  1  0
  3 39  1  0
  4 40  1  0
  5 41  1  0
 12 42  1  0
 12 43  1  0
 14 44  1  0
 16 45  1  0
 17 46  1  0
 19 47  1  0
 19 48  1  0
 19 49  1  0
 20 50  1  0
 20 51  1  0
 21 52  1  1
 22 53  1  6
 23 54  1  0
 23 55  1  0
 24 56  1  0
 24 57  1  0
 25 58  1  1
 27 59  1  0
 28 60  1  0
 31 61  1  0
 33 62  1  0
 33 63  1  0
 35 64  1  0
M  END
>  <_SMILES>  (117) 
Cc1cccc(-c2c3c(nn2Cc2cnc[nH]2)N(C)C[C@H]2[C@H](CC3)[C@H]2c2ccc3c(c2)OCO3)c1

$$$$

     RDKit          3D

 64 70  0  0  0  0  0  0  0  0999 V2000
   -3.4994    2.4159   -4.2013 C   0  0  0  0  0  0  0  0  0  0  0  0
   -3.7790    2.0942   -2.7635 C   0  0  0  0  0  0  0  0  0  0  0  0
   -4.9573    2.5370   -2.1526 C   0  0  0  0  0  0  0  0  0  0  0  0
   -5.2288    2.2106   -0.8237 C   0  0  0  0  0  0  0  0  0  0  0  0
   -4.3299    1.4302   -0.0960 C   0  0  0  0  0  0  0  0  0  0  0  0
   -3.1589    0.9598   -0.6964 C   0  0  0  0  0  0  0  0  0  0  0  0
   -2.2124    0.1359    0.0496 C   0  0  0  0  0  0  0  0  0  0  0  0
   -0.9163    0.4199    0.4646 C   0  0  0  0  0  0  0  0  0  0  0  0
   -0.4624   -0.7818    1.0942 C   0  0  0  0  0  0  0  0  0  0  0  0
   -1.4072   -1.7204    1.1040 N   0  0  0  0  0  0  0  0  0  0  0  0
   -2.4649   -1.1448    0.4895 N   0  0  0  0  0  0  0  0  0  0  0  0
   -3.6738   -1.9372    0.2903 C   0  0  0  0  0  0  0  0  0  0  0  0
   -4.6016   -1.8191    1.4523 C   0  0  0  0  0  0  0  0  0  0  0  0
   -4.3724   -2.0855    2.7883 C   0  0  0  0  0  0  0  0  0  0  0  0
   -5.5526   -1.8248    3.4236 N   0  0  0  0  0  0  0  0  0  0  0  0
   -6.4514   -1.4318    2.4747 C   0  0  0  0  0  0  0  0  0  0  0  0
   -5.9136   -1.4220    1.2772 N   0  0  0  0  0  0  0  0  0  0  0  0
    0.7946   -0.9404    1.6091 N   0  0  0  0  0  0  0  0  0  0  0  0
    0.8474   -1.6502    2.8901 C   0  0  0  0  0  0  0  0  0  0  0  0
    1.8336   -1.4294    0.6674 C   0  0  0  0  0  0  0  0  0  0  0  0
    1.8334   -0.6175   -0.5909 C   0  0  1  0  0  0  0  0  0  0  0  0
    2.0535    0.8572   -0.3790 C   0  0  2  0  0  0  0  0  0  0  0  0
    0.9039    1.7248   -0.7826 C   0  0  0  0  0  0  0  0  0  0  0  0
   -0.1804    1.7235    0.3096 C   0  0  0  0  0  0  0  0  0  0  0  0
    2.9787    0.0900   -1.2969 C   0  0  1  0  0  0  0  0  0  0  0  0
    4.4064   -0.2045   -0.9044 C   0  0  0  0  0  0  0  0  0  0  0  0
    4.9483   -1.5031   -1.0800 C   0  0  0  0  0  0  0  0  0  0  0  0
    6.2706   -1.8075   -0.7370 C   0  0  0  0  0  0  0  0  0  0  0  0
    7.0448   -0.7930   -0.2244 C   0  0  0  0  0  0  0  0  0  0  0  0
    6.5476    0.4756   -0.0554 C   0  0  0  0  0  0  0  0  0  0  0  0
    5.2474    0.7977   -0.3870 C   0  0  0  0  0  0  0  0  0  0  0  0
    7.4721    1.3313    0.4575 O   0  0  0  0  0  0  0  0  0  0  0  0
    8.6079    0.4524    0.5934 C   0  0  0  0  0  0  0  0  0  0  0  0
    8.3439   -0.8987    0.1615 O   0  0  0  0  0  0  0  0  0  0  0  0
   -2.8907    1.2951   -2.0304 C   0  0  0  0  0  0  0  0  0  0  0  0
   -2.4219    2.4934   -4.3812 H   0  0  0  0  0  0  0  0  0  0  0  0
   -3.9447    3.3765   -4.4809 H   0  0  0  0  0  0  0  0  0  0  0  0
   -3.9112    1.6339   -4.8466 H   0  0  0  0  0  0  0  0  0  0  0  0
   -5.6724    3.1394   -2.7081 H   0  0  0  0  0  0  0  0  0  0  0  0
   -6.1446    2.5583   -0.3532 H   0  0  0  0  0  0  0  0  0  0  0  0
   -4.5564    1.1871    0.9397 H   0  0  0  0  0  0  0  0  0  0  0  0
   -4.1516   -1.6108   -0.6386 H   0  0  0  0  0  0  0  0  0  0  0  0
   -3.3662   -2.9802    0.1526 H   0  0  0  0  0  0  0  0  0  0  0  0
   -3.4878   -2.4171    3.3158 H   0  0  0  0  0  0  0  0  0  0  0  0
   -5.7332   -1.9088    4.4144 H   0  0  0  0  0  0  0  0  0  0  0  0
   -7.4733   -1.1692    2.7139 H   0  0  0  0  0  0  0  0  0  0  0  0
    1.8442   -1.5516    3.3342 H   0  0  0  0  0  0  0  0  0  0  0  0
    0.1347   -1.2226    3.6050 H   0  0  0  0  0  0  0  0  0  0  0  0
    0.6305   -2.7181    2.7699 H   0  0  0  0  0  0  0  0  0  0  0  0
    2.8111   -1.3686    1.1599 H   0  0  0  0  0  0  0  0  0  0  0  0
    1.6574   -2.4845    0.4225 H   0  0  0  0  0  0  0  0  0  0  0  0
    1.0366   -0.9511   -1.2506 H   0  0  0  0  0  0  0  0  0  0  0  0
    2.4677    1.1854    0.5712 H   0  0  0  0  0  0  0  0  0  0  0  0
    0.4828    1.4074   -1.7440 H   0  0  0  0  0  0  0  0  0  0  0  0
    1.2741    2.7478   -0.9154 H   0  0  0  0  0  0  0  0  0  0  0  0
   -0.8975    2.5216    0.0820 H   0  0  0  0  0  0  0  0  0  0  0  0
    0.2654    1.9894    1.2771 H   0  0  0  0  0  0  0  0  0  0  0  0
    2.8367    0.2737   -2.3611 H   0  0  0  0  0  0  0  0  0  0  0  0
    4.3184   -2.2885   -1.4947 H   0  0  0  0  0  0  0  0  0  0  0  0
    6.6721   -2.8049   -0.8733 H   0  0  0  0  0  0  0  0  0  0  0  0
    4.8845    1.8107   -0.2478 H   0  0  0  0  0  0  0  0  0  0  0  0
    8.9103    0.4308    1.6468 H   0  0  0  0  0  0  0  0  0  0  0  0
    9.4358    0.8550   -0.0015 H   0  0  0  0  0  0  0  0  0  0  0  0
   -1.9828    0.9261   -2.5033 H   0  0  0  0  0  0  0  0  0  0  0  0
  1  2  1  0
  2  3  2  0
  3  4  1  0
  4  5  2  0
  5  6  1  0
  6  7  1  0
  7  8  2  0
  8  9  1  0
  9 10  2  0
 10 11  1  0
 11 12  1  0
 12 13  1  0
 13 14  2  0
 14 15  1  0
 15 16  1  0
 16 17  2  0
  9 18  1  0
 18 19  1  0
 18 20  1  0
 20 21  1  0
 21 22  1  0
 22 23  1  0
 23 24  1  0
 22 25  1  0
 25 26  1  0
 26 27  1  0
 27 28  2  0
 28 29  1  0
 29 30  2  0
 30 31  1  0
 30 32  1  0
 32 33  1  0
 33 34  1  0
  6 35  2  0
 35  2  1  0
 11  7  1  0
 17 13  1  0
 25 21  1  0
 31 26  2  0
 24  8  1  0
 34 29  1  0
  1 36  1  0
  1 37  1  0
  1 38  1  0
  3 39  1  0
  4 40  1  0
  5 41  1  0
 12 42  1  0
 12 43  1  0
 14 44  1  0
 15 45  1  0
 16 46  1  0
 19 47  1  0
 19 48  1  0
 19 49  1  0
 20 50  1  0
 20 51  1  0
 21 52  1  6
 22 53  1  1
 23 54  1  0
 23 55  1  0
 24 56  1  0
 24 57  1  0
 25 58  1  6
 27 59  1  0
 28 60  1  0
 31 61  1  0
 33 62  1  0
 33 63  1  0
 35 64  1  0
M  END
>  <_SMILES>  (118) 
Cc1cccc(-c2c3c(nn2Cc2c[nH]cn2)N(C)C[C@H]2[C@H](CC3)[C@H]2c2ccc3c(c2)OCO3)c1

$$$$

     RDKit          3D

 65 71  0  0  0  0  0  0  0  0999 V2000
    5.6209    3.2295   -2.2223 C   0  0  0  0  0  0  0  0  0  0  0  0
    4.6900    3.0113   -1.0655 C   0  0  0  0  0  0  0  0  0  0  0  0
    4.6264    3.9450   -0.0243 C   0  0  0  0  0  0  0  0  0  0  0  0
    3.7211    3.7767    1.0243 C   0  0  0  0  0  0  0  0  0  0  0  0
    2.8678    2.6741    1.0408 C   0  0  0  0  0  0  0  0  0  0  0  0
    2.9188    1.7348    0.0069 C   0  0  0  0  0  0  0  0  0  0  0  0
    2.0404    0.5742    0.0296 C   0  0  0  0  0  0  0  0  0  0  0  0
    0.8017    0.3735   -0.5633 C   0  0  0  0  0  0  0  0  0  0  0  0
    0.4217   -0.9537   -0.1791 C   0  0  0  0  0  0  0  0  0  0  0  0
    1.3867   -1.5568    0.5205 N   0  0  0  0  0  0  0  0  0  0  0  0
    2.3253   -0.5937    0.6877 N   0  0  0  0  0  0  0  0  0  0  0  0
    3.5145   -0.9095    1.4682 C   0  0  0  0  0  0  0  0  0  0  0  0
    4.2302   -2.0712    0.8841 C   0  0  0  0  0  0  0  0  0  0  0  0
    5.5630   -2.3838    0.7809 C   0  0  0  0  0  0  0  0  0  0  0  0
    5.6466   -3.6067    0.1464 N   0  0  0  0  0  0  0  0  0  0  0  0
    4.4274   -4.0657   -0.1550 C   0  0  0  0  0  0  0  0  0  0  0  0
    3.5744   -3.1526    0.2948 N   0  0  0  0  0  0  0  0  0  0  0  0
   -0.7704   -1.5265   -0.5127 N   0  0  0  0  0  0  0  0  0  0  0  0
   -0.7225   -2.9251   -0.9380 C   0  0  0  0  0  0  0  0  0  0  0  0
   -1.9196   -1.2684    0.3985 C   0  0  0  0  0  0  0  0  0  0  0  0
   -2.0370    0.1902    0.7097 C   0  0  1  0  0  0  0  0  0  0  0  0
   -2.2357    1.0688   -0.4957 C   0  0  2  0  0  0  0  0  0  0  0  0
   -1.1324    2.0463   -0.7446 C   0  0  0  0  0  0  0  0  0  0  0  0
    0.0511    1.3470   -1.4354 C   0  0  0  0  0  0  0  0  0  0  0  0
   -3.2473    1.1070    0.6280 C   0  0  1  0  0  0  0  0  0  0  0  0
   -4.6281    0.5204    0.4595 C   0  0  0  0  0  0  0  0  0  0  0  0
   -5.4260    0.8270   -0.6708 C   0  0  0  0  0  0  0  0  0  0  0  0
   -6.7117    0.2981   -0.8359 C   0  0  0  0  0  0  0  0  0  0  0  0
   -7.1904   -0.5336    0.1493 C   0  0  0  0  0  0  0  0  0  0  0  0
   -6.4425   -0.8365    1.2595 C   0  0  0  0  0  0  0  0  0  0  0  0
   -5.1737   -0.3259    1.4431 C   0  0  0  0  0  0  0  0  0  0  0  0
   -7.0947   -1.6694    2.1141 O   0  0  0  0  0  0  0  0  0  0  0  0
   -8.3499   -1.8390    1.4210 C   0  0  0  0  0  0  0  0  0  0  0  0
   -8.4084   -1.1359    0.1626 O   0  0  0  0  0  0  0  0  0  0  0  0
    3.8210    1.9124   -1.0493 C   0  0  0  0  0  0  0  0  0  0  0  0
    5.9385    2.2739   -2.6526 H   0  0  0  0  0  0  0  0  0  0  0  0
    6.5251    3.7575   -1.9017 H   0  0  0  0  0  0  0  0  0  0  0  0
    5.1222    3.8190   -2.9977 H   0  0  0  0  0  0  0  0  0  0  0  0
    5.2719    4.8219   -0.0324 H   0  0  0  0  0  0  0  0  0  0  0  0
    3.6709    4.5168    1.8199 H   0  0  0  0  0  0  0  0  0  0  0  0
    2.1535    2.5663    1.8542 H   0  0  0  0  0  0  0  0  0  0  0  0
    4.1783   -0.0431    1.5065 H   0  0  0  0  0  0  0  0  0  0  0  0
    3.1816   -1.1520    2.4824 H   0  0  0  0  0  0  0  0  0  0  0  0
    6.4761   -1.8961    1.0767 H   0  0  0  0  0  0  0  0  0  0  0  0
    6.5097   -4.0992   -0.0746 H   0  0  0  0  0  0  0  0  0  0  0  0
    4.1865   -4.9910   -0.6651 H   0  0  0  0  0  0  0  0  0  0  0  0
    2.5485   -3.1617    0.1970 H   0  0  0  0  0  0  0  0  0  0  0  0
   -1.6726   -3.2152   -1.4000 H   0  0  0  0  0  0  0  0  0  0  0  0
   -0.5324   -3.5951   -0.0916 H   0  0  0  0  0  0  0  0  0  0  0  0
    0.0601   -3.0785   -1.6902 H   0  0  0  0  0  0  0  0  0  0  0  0
   -2.8360   -1.6324   -0.0803 H   0  0  0  0  0  0  0  0  0  0  0  0
   -1.7922   -1.8326    1.3309 H   0  0  0  0  0  0  0  0  0  0  0  0
   -1.3165    0.4735    1.4719 H   0  0  0  0  0  0  0  0  0  0  0  0
   -2.5599    0.6086   -1.4260 H   0  0  0  0  0  0  0  0  0  0  0  0
   -0.8050    2.5276    0.1850 H   0  0  0  0  0  0  0  0  0  0  0  0
   -1.5128    2.8371   -1.4013 H   0  0  0  0  0  0  0  0  0  0  0  0
    0.7414    2.1199   -1.7944 H   0  0  0  0  0  0  0  0  0  0  0  0
   -0.2978    0.8163   -2.3308 H   0  0  0  0  0  0  0  0  0  0  0  0
   -3.2137    1.9962    1.2565 H   0  0  0  0  0  0  0  0  0  0  0  0
   -5.0333    1.4958   -1.4350 H   0  0  0  0  0  0  0  0  0  0  0  0
   -7.3120    0.5389   -1.7059 H   0  0  0  0  0  0  0  0  0  0  0  0
   -4.6122   -0.5748    2.3373 H   0  0  0  0  0  0  0  0  0  0  0  0
   -9.1586   -1.4748    2.0652 H   0  0  0  0  0  0  0  0  0  0  0  0
   -8.5038   -2.9077    1.2328 H   0  0  0  0  0  0  0  0  0  0  0  0
    3.8359    1.2025   -1.8741 H   0  0  0  0  0  0  0  0  0  0  0  0
  1  2  1  0
  2  3  2  0
  3  4  1  0
  4  5  2  0
  5  6  1  0
  6  7  1  0
  7  8  2  0
  8  9  1  0
  9 10  2  0
 10 11  1  0
 11 12  1  0
 12 13  1  0
 13 14  2  0
 14 15  1  0
 15 16  2  0
 16 17  1  0
  9 18  1  0
 18 19  1  0
 18 20  1  0
 20 21  1  0
 21 22  1  0
 22 23  1  0
 23 24  1  0
 22 25  1  0
 25 26  1  0
 26 27  1  0
 27 28  2  0
 28 29  1  0
 29 30  2  0
 30 31  1  0
 30 32  1  0
 32 33  1  0
 33 34  1  0
  6 35  2  0
 35  2  1  0
 11  7  1  0
 17 13  1  0
 25 21  1  0
 31 26  2  0
 24  8  1  0
 34 29  1  0
  1 36  1  0
  1 37  1  0
  1 38  1  0
  3 39  1  0
  4 40  1  0
  5 41  1  0
 12 42  1  0
 12 43  1  0
 14 44  1  0
 15 45  1  0
 16 46  1  0
 17 47  1  0
 19 48  1  0
 19 49  1  0
 19 50  1  0
 20 51  1  0
 20 52  1  0
 21 53  1  1
 22 54  1  6
 23 55  1  0
 23 56  1  0
 24 57  1  0
 24 58  1  0
 25 59  1  1
 27 60  1  0
 28 61  1  0
 31 62  1  0
 33 63  1  0
 33 64  1  0
 35 65  1  0
M  CHG  1  15   1
M  END
>  <_SMILES>  (119) 
Cc1cccc(-c2c3c(nn2Cc2c[nH+]c[nH]2)N(C)C[C@H]2[C@H](CC3)[C@H]2c2ccc3c(c2)OCO3)c1

$$$$

     RDKit          3D

 74 79  0  0  0  0  0  0  0  0999 V2000
    0.4395    0.5315    1.4090 C   0  0  0  0  0  0  0  0  0  0  0  0
   -0.5261    0.4493    0.2734 C   0  0  0  0  0  0  0  0  0  0  0  0
   -0.3385   -0.2443   -0.9749 C   0  0  0  0  0  0  0  0  0  0  0  0
    0.8058   -0.9948   -1.4964 C   0  0  0  0  0  0  0  0  0  0  0  0
    0.6809   -1.8980   -2.3176 O   0  0  0  0  0  0  0  0  0  0  0  0
    2.0311   -0.5590   -1.0378 N   0  0  0  0  0  0  0  0  0  0  0  0
    3.2588   -1.0755   -1.6056 C   0  0  0  0  0  0  0  0  0  0  0  0
    4.5055   -0.8108   -0.7364 C   0  0  2  0  0  0  0  0  0  0  0  0
    4.3534   -1.4363    0.6737 C   0  0  0  0  0  0  0  0  0  0  0  0
    5.6242   -1.2044    1.5103 C   0  0  1  0  0  0  0  0  0  0  0  0
    6.8244   -1.8520    0.8016 C   0  0  0  0  0  0  0  0  0  0  0  0
    7.0119   -1.2287   -0.5907 C   0  0  2  0  0  0  0  0  0  0  0  0
    7.2542    0.2816   -0.4439 C   0  0  0  0  0  0  0  0  0  0  0  0
    6.0562    0.9397    0.2582 C   0  0  2  0  0  0  0  0  0  0  0  0
    5.8714    0.3070    1.6475 C   0  0  0  0  0  0  0  0  0  0  0  0
    4.7845    0.7063   -0.5770 C   0  0  0  0  0  0  0  0  0  0  0  0
    5.7391   -1.4575   -1.4224 C   0  0  0  0  0  0  0  0  0  0  0  0
   -1.5231   -0.1034   -1.6744 C   0  0  0  0  0  0  0  0  0  0  0  0
   -2.3957    0.6493   -0.9370 N   0  0  0  0  0  0  0  0  0  0  0  0
   -3.7347    1.0087   -1.3879 C   0  0  0  0  0  0  0  0  0  0  0  0
   -4.8380    0.0757   -0.8592 C   0  0  1  0  0  0  0  0  0  0  0  0
   -6.2249    0.6469   -1.1721 C   0  0  0  0  0  0  0  0  0  0  0  0
   -7.3508   -0.1801   -0.5369 C   0  0  0  0  0  0  0  0  0  0  0  0
   -7.0164   -1.6678   -0.3900 C   0  0  2  0  0  0  0  0  0  0  0  0
   -6.4594   -1.8879    0.9058 O   0  0  0  0  0  0  0  0  0  0  0  0
   -6.0293   -2.1312   -1.4552 C   0  0  0  0  0  0  0  0  0  0  0  0
   -4.7065   -1.3560   -1.4160 C   0  0  0  0  0  0  0  0  0  0  0  0
   -1.7960    1.0246    0.2466 C   0  0  0  0  0  0  0  0  0  0  0  0
   -2.4460    1.8558    1.2578 C   0  0  0  0  0  0  0  0  0  0  0  0
   -3.1794    1.2656    2.2954 C   0  0  0  0  0  0  0  0  0  0  0  0
   -3.8015    2.0590    3.2626 C   0  0  0  0  0  0  0  0  0  0  0  0
   -3.6848    3.4463    3.2000 C   0  0  0  0  0  0  0  0  0  0  0  0
   -2.9472    4.0263    2.1735 C   0  0  0  0  0  0  0  0  0  0  0  0
   -2.8343    5.3601    2.1172 F   0  0  0  0  0  0  0  0  0  0  0  0
   -2.3260    3.2468    1.2041 C   0  0  0  0  0  0  0  0  0  0  0  0
   -0.0665    0.7423    2.3562 H   0  0  0  0  0  0  0  0  0  0  0  0
    0.9735   -0.4151    1.5365 H   0  0  0  0  0  0  0  0  0  0  0  0
    1.1687    1.3281    1.2312 H   0  0  0  0  0  0  0  0  0  0  0  0
    2.0381    0.3752   -0.6557 H   0  0  0  0  0  0  0  0  0  0  0  0
    3.3733   -0.6132   -2.5937 H   0  0  0  0  0  0  0  0  0  0  0  0
    3.1360   -2.1534   -1.7686 H   0  0  0  0  0  0  0  0  0  0  0  0
    4.1580   -2.5132    0.5904 H   0  0  0  0  0  0  0  0  0  0  0  0
    3.4946   -0.9997    1.1982 H   0  0  0  0  0  0  0  0  0  0  0  0
    5.4978   -1.6496    2.5035 H   0  0  0  0  0  0  0  0  0  0  0  0
    7.7330   -1.7120    1.4001 H   0  0  0  0  0  0  0  0  0  0  0  0
    6.6670   -2.9338    0.7103 H   0  0  0  0  0  0  0  0  0  0  0  0
    7.8688   -1.6934   -1.0911 H   0  0  0  0  0  0  0  0  0  0  0  0
    8.1704    0.4598    0.1323 H   0  0  0  0  0  0  0  0  0  0  0  0
    7.4058    0.7351   -1.4311 H   0  0  0  0  0  0  0  0  0  0  0  0
    6.2356    2.0155    0.3634 H   0  0  0  0  0  0  0  0  0  0  0  0
    6.7625    0.4862    2.2617 H   0  0  0  0  0  0  0  0  0  0  0  0
    5.0277    0.7795    2.1655 H   0  0  0  0  0  0  0  0  0  0  0  0
    3.9422    1.2076   -0.0854 H   0  0  0  0  0  0  0  0  0  0  0  0
    4.8989    1.1749   -1.5629 H   0  0  0  0  0  0  0  0  0  0  0  0
    5.5771   -2.5354   -1.5534 H   0  0  0  0  0  0  0  0  0  0  0  0
    5.8764   -1.0365   -2.4269 H   0  0  0  0  0  0  0  0  0  0  0  0
   -1.7988   -0.4901   -2.6480 H   0  0  0  0  0  0  0  0  0  0  0  0
   -3.7226    1.0152   -2.4850 H   0  0  0  0  0  0  0  0  0  0  0  0
   -3.9149    2.0433   -1.0748 H   0  0  0  0  0  0  0  0  0  0  0  0
   -4.7454    0.0194    0.2320 H   0  0  0  0  0  0  0  0  0  0  0  0
   -6.3060    1.6837   -0.8237 H   0  0  0  0  0  0  0  0  0  0  0  0
   -6.3688    0.6749   -2.2603 H   0  0  0  0  0  0  0  0  0  0  0  0
   -8.2444   -0.0649   -1.1623 H   0  0  0  0  0  0  0  0  0  0  0  0
   -7.5943    0.2428    0.4457 H   0  0  0  0  0  0  0  0  0  0  0  0
   -7.9403   -2.2541   -0.4434 H   0  0  0  0  0  0  0  0  0  0  0  0
   -6.2446   -2.8343    0.9745 H   0  0  0  0  0  0  0  0  0  0  0  0
   -6.4882   -2.0103   -2.4446 H   0  0  0  0  0  0  0  0  0  0  0  0
   -5.8112   -3.1991   -1.3354 H   0  0  0  0  0  0  0  0  0  0  0  0
   -3.9847   -1.9061   -0.7987 H   0  0  0  0  0  0  0  0  0  0  0  0
   -4.2922   -1.3444   -2.4316 H   0  0  0  0  0  0  0  0  0  0  0  0
   -3.2733    0.1824    2.3497 H   0  0  0  0  0  0  0  0  0  0  0  0
   -4.3749    1.5932    4.0599 H   0  0  0  0  0  0  0  0  0  0  0  0
   -4.1612    4.0776    3.9432 H   0  0  0  0  0  0  0  0  0  0  0  0
   -1.7553    3.7291    0.4170 H   0  0  0  0  0  0  0  0  0  0  0  0
  1  2  1  0
  2  3  1  0
  3  4  1  0
  4  5  2  0
  4  6  1  0
  6  7  1  0
  8  7  1  6
  8  9  1  0
  9 10  1  0
 10 11  1  0
 11 12  1  0
 12 13  1  0
 13 14  1  0
 14 15  1  0
 14 16  1  0
 12 17  1  0
  3 18  2  0
 18 19  1  0
 19 20  1  0
 20 21  1  0
 21 22  1  0
 22 23  1  0
 23 24  1  0
 24 25  1  0
 24 26  1  0
 26 27  1  0
 19 28  1  0
 28 29  1  0
 29 30  2  0
 30 31  1  0
 31 32  2  0
 32 33  1  0
 33 34  1  0
 33 35  2  0
 28  2  2  0
 35 29  1  0
 16  8  1  0
 27 21  1  0
 17  8  1  0
 15 10  1  0
  1 36  1  0
  1 37  1  0
  1 38  1  0
  6 39  1  0
  7 40  1  0
  7 41  1  0
  9 42  1  0
  9 43  1  0
 10 44  1  1
 11 45  1  0
 11 46  1  0
 12 47  1  6
 13 48  1  0
 13 49  1  0
 14 50  1  1
 15 51  1  0
 15 52  1  0
 16 53  1  0
 16 54  1  0
 17 55  1  0
 17 56  1  0
 18 57  1  0
 20 58  1  0
 20 59  1  0
 21 60  1  1
 22 61  1  0
 22 62  1  0
 23 63  1  0
 23 64  1  0
 24 65  1  1
 25 66  1  0
 26 67  1  0
 26 68  1  0
 27 69  1  0
 27 70  1  0
 30 71  1  0
 31 72  1  0
 32 73  1  0
 35 74  1  0
M  END
>  <_SMILES>  (120) 
Cc1c(C(=O)NC[C@]23C[C@H]4C[C@H](C[C@H](C4)C2)C3)cn(C[C@H]2CC[C@H](O)CC2)c1-c1cccc(F)c1

$$$$

     RDKit          3D

 74 79  0  0  0  0  0  0  0  0999 V2000
    0.3343   -1.7745   -0.3340 C   0  0  0  0  0  0  0  0  0  0  0  0
   -0.6275   -0.6649   -0.6035 C   0  0  0  0  0  0  0  0  0  0  0  0
   -0.3285    0.7408   -0.6549 C   0  0  0  0  0  0  0  0  0  0  0  0
    0.9161    1.4704   -0.4076 C   0  0  0  0  0  0  0  0  0  0  0  0
    1.1875    2.5169   -0.9873 O   0  0  0  0  0  0  0  0  0  0  0  0
    1.7203    0.9144    0.5616 N   0  0  0  0  0  0  0  0  0  0  0  0
    2.9776    1.5068    0.9689 C   0  0  0  0  0  0  0  0  0  0  0  0
    4.2121    0.7213    0.4770 C   0  0  2  0  0  0  0  0  0  0  0  0
    4.2583    0.6392   -1.0704 C   0  0  0  0  0  0  0  0  0  0  0  0
    5.5176   -0.1122   -1.5369 C   0  0  1  0  0  0  0  0  0  0  0  0
    6.7670    0.6294   -1.0365 C   0  0  0  0  0  0  0  0  0  0  0  0
    6.7566    0.7000    0.4987 C   0  0  2  0  0  0  0  0  0  0  0  0
    6.7385   -0.7252    1.0734 C   0  0  0  0  0  0  0  0  0  0  0  0
    5.4885   -1.4733    0.5837 C   0  0  2  0  0  0  0  0  0  0  0  0
    5.5027   -1.5345   -0.9526 C   0  0  0  0  0  0  0  0  0  0  0  0
    4.2302   -0.7197    1.0494 C   0  0  0  0  0  0  0  0  0  0  0  0
    5.4952    1.4480    0.9616 C   0  0  0  0  0  0  0  0  0  0  0  0
   -1.4937    1.3637   -1.0600 C   0  0  0  0  0  0  0  0  0  0  0  0
   -2.4978    0.4361   -1.1525 N   0  0  0  0  0  0  0  0  0  0  0  0
   -3.8594    0.7745   -1.5395 C   0  0  0  0  0  0  0  0  0  0  0  0
   -4.7926    1.2700   -0.4147 C   0  0  1  0  0  0  0  0  0  0  0  0
   -5.0202    0.2206    0.6829 C   0  0  0  0  0  0  0  0  0  0  0  0
   -6.0094    0.7163    1.7351 C   0  0  0  0  0  0  0  0  0  0  0  0
   -5.5766    2.0518    2.3348 C   0  0  2  0  0  0  0  0  0  0  0  0
   -6.5957    2.5030    3.2195 O   0  0  0  0  0  0  0  0  0  0  0  0
   -5.3391    3.0989    1.2484 C   0  0  0  0  0  0  0  0  0  0  0  0
   -4.3434    2.6051    0.2014 C   0  0  0  0  0  0  0  0  0  0  0  0
   -1.9795   -0.8214   -0.9135 C   0  0  0  0  0  0  0  0  0  0  0  0
   -2.7453   -2.0650   -1.0125 C   0  0  0  0  0  0  0  0  0  0  0  0
   -3.0967   -2.7685    0.1461 C   0  0  0  0  0  0  0  0  0  0  0  0
   -3.8153   -3.9622    0.0578 C   0  0  0  0  0  0  0  0  0  0  0  0
   -4.1777   -4.4660   -1.1910 C   0  0  0  0  0  0  0  0  0  0  0  0
   -3.8138   -3.7752   -2.3459 C   0  0  0  0  0  0  0  0  0  0  0  0
   -4.2963   -4.4632   -4.0395 Br  0  0  0  0  0  0  0  0  0  0  0  0
   -3.0965   -2.5822   -2.2644 C   0  0  0  0  0  0  0  0  0  0  0  0
    0.0050   -2.7142   -0.7886 H   0  0  0  0  0  0  0  0  0  0  0  0
    1.3193   -1.5477   -0.7531 H   0  0  0  0  0  0  0  0  0  0  0  0
    0.4364   -1.9356    0.7436 H   0  0  0  0  0  0  0  0  0  0  0  0
    1.3551    0.1406    1.0962 H   0  0  0  0  0  0  0  0  0  0  0  0
    2.9627    1.5388    2.0646 H   0  0  0  0  0  0  0  0  0  0  0  0
    3.0258    2.5438    0.6172 H   0  0  0  0  0  0  0  0  0  0  0  0
    3.3718    0.1215   -1.4567 H   0  0  0  0  0  0  0  0  0  0  0  0
    4.2489    1.6480   -1.5026 H   0  0  0  0  0  0  0  0  0  0  0  0
    5.5321   -0.1630   -2.6314 H   0  0  0  0  0  0  0  0  0  0  0  0
    6.7966    1.6415   -1.4585 H   0  0  0  0  0  0  0  0  0  0  0  0
    7.6719    0.1141   -1.3816 H   0  0  0  0  0  0  0  0  0  0  0  0
    7.6495    1.2288    0.8502 H   0  0  0  0  0  0  0  0  0  0  0  0
    7.6427   -1.2647    0.7655 H   0  0  0  0  0  0  0  0  0  0  0  0
    6.7479   -0.6879    2.1696 H   0  0  0  0  0  0  0  0  0  0  0  0
    5.4824   -2.4895    0.9937 H   0  0  0  0  0  0  0  0  0  0  0  0
    4.6221   -2.0794   -1.3143 H   0  0  0  0  0  0  0  0  0  0  0  0
    6.3840   -2.0896   -1.2968 H   0  0  0  0  0  0  0  0  0  0  0  0
    3.3410   -1.2746    0.7273 H   0  0  0  0  0  0  0  0  0  0  0  0
    4.2027   -0.6909    2.1462 H   0  0  0  0  0  0  0  0  0  0  0  0
    5.5165    2.4754    0.5751 H   0  0  0  0  0  0  0  0  0  0  0  0
    5.4955    1.5245    2.0567 H   0  0  0  0  0  0  0  0  0  0  0  0
   -1.6783    2.4118   -1.2622 H   0  0  0  0  0  0  0  0  0  0  0  0
   -4.3056   -0.0970   -2.0278 H   0  0  0  0  0  0  0  0  0  0  0  0
   -3.7807    1.5454   -2.3172 H   0  0  0  0  0  0  0  0  0  0  0  0
   -5.7659    1.4518   -0.8938 H   0  0  0  0  0  0  0  0  0  0  0  0
   -5.4043   -0.7056    0.2408 H   0  0  0  0  0  0  0  0  0  0  0  0
   -4.0729   -0.0196    1.1793 H   0  0  0  0  0  0  0  0  0  0  0  0
   -6.1145   -0.0302    2.5317 H   0  0  0  0  0  0  0  0  0  0  0  0
   -7.0081    0.8158    1.2900 H   0  0  0  0  0  0  0  0  0  0  0  0
   -4.6618    1.9088    2.9224 H   0  0  0  0  0  0  0  0  0  0  0  0
   -6.3012    3.3489    3.5986 H   0  0  0  0  0  0  0  0  0  0  0  0
   -6.2913    3.3580    0.7675 H   0  0  0  0  0  0  0  0  0  0  0  0
   -4.9743    4.0281    1.7026 H   0  0  0  0  0  0  0  0  0  0  0  0
   -4.2370    3.3637   -0.5828 H   0  0  0  0  0  0  0  0  0  0  0  0
   -3.3646    2.4950    0.6819 H   0  0  0  0  0  0  0  0  0  0  0  0
   -2.8155   -2.3844    1.1242 H   0  0  0  0  0  0  0  0  0  0  0  0
   -4.0907   -4.4988    0.9623 H   0  0  0  0  0  0  0  0  0  0  0  0
   -4.7367   -5.3960   -1.2534 H   0  0  0  0  0  0  0  0  0  0  0  0
   -2.8038   -2.0552   -3.1691 H   0  0  0  0  0  0  0  0  0  0  0  0
  1  2  1  0
  2  3  1  0
  3  4  1  0
  4  5  2  0
  4  6  1  0
  6  7  1  0
  8  7  1  6
  8  9  1  0
  9 10  1  0
 10 11  1  0
 11 12  1  0
 12 13  1  0
 13 14  1  0
 14 15  1  0
 14 16  1  0
 12 17  1  0
  3 18  2  0
 18 19  1  0
 19 20  1  0
 20 21  1  0
 21 22  1  0
 22 23  1  0
 23 24  1  0
 24 25  1  0
 24 26  1  0
 26 27  1  0
 19 28  1  0
 28 29  1  0
 29 30  2  0
 30 31  1  0
 31 32  2  0
 32 33  1  0
 33 34  1  0
 33 35  2  0
 28  2  2  0
 35 29  1  0
 16  8  1  0
 27 21  1  0
 17  8  1  0
 15 10  1  0
  1 36  1  0
  1 37  1  0
  1 38  1  0
  6 39  1  0
  7 40  1  0
  7 41  1  0
  9 42  1  0
  9 43  1  0
 10 44  1  6
 11 45  1  0
 11 46  1  0
 12 47  1  1
 13 48  1  0
 13 49  1  0
 14 50  1  1
 15 51  1  0
 15 52  1  0
 16 53  1  0
 16 54  1  0
 17 55  1  0
 17 56  1  0
 18 57  1  0
 20 58  1  0
 20 59  1  0
 21 60  1  6
 22 61  1  0
 22 62  1  0
 23 63  1  0
 23 64  1  0
 24 65  1  1
 25 66  1  0
 26 67  1  0
 26 68  1  0
 27 69  1  0
 27 70  1  0
 30 71  1  0
 31 72  1  0
 32 73  1  0
 35 74  1  0
M  END
>  <_SMILES>  (121) 
Cc1c(C(=O)NC[C@]23C[C@H]4C[C@H](C[C@H](C4)C2)C3)cn(C[C@H]2CC[C@H](O)CC2)c1-c1cccc(Br)c1

$$$$

     RDKit          3D

 73 78  0  0  0  0  0  0  0  0999 V2000
    1.2890    1.7363   -3.8663 C   0  0  0  0  0  0  0  0  0  0  0  0
    1.2933    1.5021   -2.3917 C   0  0  0  0  0  0  0  0  0  0  0  0
    0.1607    1.0792   -1.6114 C   0  0  0  0  0  0  0  0  0  0  0  0
   -1.1967    0.8018   -2.0965 C   0  0  0  0  0  0  0  0  0  0  0  0
   -1.5751    1.1160   -3.2207 O   0  0  0  0  0  0  0  0  0  0  0  0
   -2.0051    0.1310   -1.1992 N   0  0  0  0  0  0  0  0  0  0  0  0
   -3.3088   -0.3553   -1.5991 C   0  0  0  0  0  0  0  0  0  0  0  0
   -4.2227   -0.7348   -0.4155 C   0  0  2  0  0  0  0  0  0  0  0  0
   -3.6434   -1.9196    0.4003 C   0  0  0  0  0  0  0  0  0  0  0  0
   -4.5943   -2.3049    1.5479 C   0  0  1  0  0  0  0  0  0  0  0  0
   -4.7854   -1.0928    2.4746 C   0  0  0  0  0  0  0  0  0  0  0  0
   -5.3886    0.0829    1.6881 C   0  0  2  0  0  0  0  0  0  0  0  0
   -6.7453   -0.3414    1.1037 C   0  0  0  0  0  0  0  0  0  0  0  0
   -6.5615   -1.5494    0.1713 C   0  0  2  0  0  0  0  0  0  0  0  0
   -5.9548   -2.7172    0.9646 C   0  0  0  0  0  0  0  0  0  0  0  0
   -5.6071   -1.1652   -0.9713 C   0  0  0  0  0  0  0  0  0  0  0  0
   -4.4376    0.4664    0.5405 C   0  0  0  0  0  0  0  0  0  0  0  0
    0.6038    1.0121   -0.3006 C   0  0  0  0  0  0  0  0  0  0  0  0
    1.9358    1.3405   -0.2617 N   0  0  0  0  0  0  0  0  0  0  0  0
    2.7245    1.3778    0.9639 C   0  0  0  0  0  0  0  0  0  0  0  0
    3.5565    0.1061    1.2027 C   0  0  0  0  0  0  0  0  0  0  0  0
    2.6681   -1.1298    1.4513 C   0  0  0  0  0  0  0  0  0  0  0  0
    3.3621   -2.2390    2.2473 C   0  0  0  0  0  0  0  0  0  0  0  0
    4.8732   -2.2096    2.0744 C   0  0  0  0  0  0  0  0  0  0  0  0
    5.4696   -0.8837    2.5473 C   0  0  0  0  0  0  0  0  0  0  0  0
    4.5276    0.3106    2.3711 C   0  0  0  0  0  0  0  0  0  0  0  0
    2.3750    1.6569   -1.5291 C   0  0  0  0  0  0  0  0  0  0  0  0
    3.7425    2.0719   -1.8358 C   0  0  0  0  0  0  0  0  0  0  0  0
    4.6692    1.1416   -2.3184 C   0  0  0  0  0  0  0  0  0  0  0  0
    5.9761    1.5366   -2.6091 C   0  0  0  0  0  0  0  0  0  0  0  0
    6.3602    2.8646   -2.4260 C   0  0  0  0  0  0  0  0  0  0  0  0
    5.4379    3.7994   -1.9566 C   0  0  0  0  0  0  0  0  0  0  0  0
    4.1310    3.4050   -1.6648 C   0  0  0  0  0  0  0  0  0  0  0  0
    0.9469    0.8401   -4.3939 H   0  0  0  0  0  0  0  0  0  0  0  0
    2.2845    1.9834   -4.2468 H   0  0  0  0  0  0  0  0  0  0  0  0
    0.6218    2.5673   -4.1162 H   0  0  0  0  0  0  0  0  0  0  0  0
   -1.5330   -0.3282   -0.4353 H   0  0  0  0  0  0  0  0  0  0  0  0
   -3.7890    0.4172   -2.2125 H   0  0  0  0  0  0  0  0  0  0  0  0
   -3.1419   -1.2225   -2.2496 H   0  0  0  0  0  0  0  0  0  0  0  0
   -2.6655   -1.6603    0.8232 H   0  0  0  0  0  0  0  0  0  0  0  0
   -3.4841   -2.7864   -0.2537 H   0  0  0  0  0  0  0  0  0  0  0  0
   -4.1678   -3.1397    2.1152 H   0  0  0  0  0  0  0  0  0  0  0  0
   -3.8226   -0.7980    2.9100 H   0  0  0  0  0  0  0  0  0  0  0  0
   -5.4436   -1.3608    3.3102 H   0  0  0  0  0  0  0  0  0  0  0  0
   -5.5263    0.9413    2.3550 H   0  0  0  0  0  0  0  0  0  0  0  0
   -7.1936    0.4938    0.5517 H   0  0  0  0  0  0  0  0  0  0  0  0
   -7.4392   -0.5961    1.9142 H   0  0  0  0  0  0  0  0  0  0  0  0
   -7.5314   -1.8480   -0.2420 H   0  0  0  0  0  0  0  0  0  0  0  0
   -5.8342   -3.5912    0.3128 H   0  0  0  0  0  0  0  0  0  0  0  0
   -6.6345   -3.0143    1.7728 H   0  0  0  0  0  0  0  0  0  0  0  0
   -6.0493   -0.3494   -1.5579 H   0  0  0  0  0  0  0  0  0  0  0  0
   -5.4914   -2.0163   -1.6550 H   0  0  0  0  0  0  0  0  0  0  0  0
   -3.4810    0.7987    0.9630 H   0  0  0  0  0  0  0  0  0  0  0  0
   -4.8516    1.3196   -0.0121 H   0  0  0  0  0  0  0  0  0  0  0  0
    0.0784    0.7692    0.6132 H   0  0  0  0  0  0  0  0  0  0  0  0
    2.0321    1.5515    1.7972 H   0  0  0  0  0  0  0  0  0  0  0  0
    3.3683    2.2625    0.9095 H   0  0  0  0  0  0  0  0  0  0  0  0
    4.1580   -0.0910    0.3060 H   0  0  0  0  0  0  0  0  0  0  0  0
    2.3490   -1.5310    0.4809 H   0  0  0  0  0  0  0  0  0  0  0  0
    1.7500   -0.8520    1.9835 H   0  0  0  0  0  0  0  0  0  0  0  0
    2.9634   -3.2136    1.9435 H   0  0  0  0  0  0  0  0  0  0  0  0
    3.1217   -2.1234    3.3119 H   0  0  0  0  0  0  0  0  0  0  0  0
    5.3356   -3.0375    2.6237 H   0  0  0  0  0  0  0  0  0  0  0  0
    5.1177   -2.3629    1.0157 H   0  0  0  0  0  0  0  0  0  0  0  0
    5.7479   -0.9575    3.6056 H   0  0  0  0  0  0  0  0  0  0  0  0
    6.4024   -0.7040    1.9989 H   0  0  0  0  0  0  0  0  0  0  0  0
    3.9565    0.4596    3.2969 H   0  0  0  0  0  0  0  0  0  0  0  0
    5.1255    1.2184    2.2268 H   0  0  0  0  0  0  0  0  0  0  0  0
    4.3741    0.1060   -2.4695 H   0  0  0  0  0  0  0  0  0  0  0  0
    6.6919    0.8093   -2.9830 H   0  0  0  0  0  0  0  0  0  0  0  0
    7.3767    3.1728   -2.6565 H   0  0  0  0  0  0  0  0  0  0  0  0
    5.7339    4.8366   -1.8234 H   0  0  0  0  0  0  0  0  0  0  0  0
    3.4139    4.1411   -1.3093 H   0  0  0  0  0  0  0  0  0  0  0  0
  1  2  1  0
  2  3  1  0
  3  4  1  0
  4  5  2  0
  4  6  1  0
  6  7  1  0
  8  7  1  6
  8  9  1  0
  9 10  1  0
 10 11  1  0
 11 12  1  0
 12 13  1  0
 13 14  1  0
 14 15  1  0
 14 16  1  0
 12 17  1  0
  3 18  2  0
 18 19  1  0
 19 20  1  0
 20 21  1  0
 21 22  1  0
 22 23  1  0
 23 24  1  0
 24 25  1  0
 25 26  1  0
 19 27  1  0
 27 28  1  0
 28 29  2  0
 29 30  1  0
 30 31  2  0
 31 32  1  0
 32 33  2  0
 27  2  2  0
 33 28  1  0
 16  8  1  0
 26 21  1  0
 17  8  1  0
 15 10  1  0
  1 34  1  0
  1 35  1  0
  1 36  1  0
  6 37  1  0
  7 38  1  0
  7 39  1  0
  9 40  1  0
  9 41  1  0
 10 42  1  1
 11 43  1  0
 11 44  1  0
 12 45  1  1
 13 46  1  0
 13 47  1  0
 14 48  1  6
 15 49  1  0
 15 50  1  0
 16 51  1  0
 16 52  1  0
 17 53  1  0
 17 54  1  0
 18 55  1  0
 20 56  1  0
 20 57  1  0
 21 58  1  0
 22 59  1  0
 22 60  1  0
 23 61  1  0
 23 62  1  0
 24 63  1  0
 24 64  1  0
 25 65  1  0
 25 66  1  0
 26 67  1  0
 26 68  1  0
 29 69  1  0
 30 70  1  0
 31 71  1  0
 32 72  1  0
 33 73  1  0
M  END
>  <_SMILES>  (122) 
Cc1c(C(=O)NC[C@]23C[C@H]4C[C@H](C[C@H](C4)C2)C3)cn(CC2CCCCC2)c1-c1ccccc1

$$$$

     RDKit          3D

 72 77  0  0  0  0  0  0  0  0999 V2000
   -1.0004    4.1333    0.4473 C   0  0  0  0  0  0  0  0  0  0  0  0
   -1.0536    2.7088    0.0026 C   0  0  0  0  0  0  0  0  0  0  0  0
    0.0655    1.8047   -0.0254 C   0  0  0  0  0  0  0  0  0  0  0  0
    1.4520    2.0738    0.3766 C   0  0  0  0  0  0  0  0  0  0  0  0
    1.8165    3.1586    0.8162 O   0  0  0  0  0  0  0  0  0  0  0  0
    2.2608    0.9743    0.1993 N   0  0  0  0  0  0  0  0  0  0  0  0
    3.4976    1.1109    0.5440 C   0  0  0  0  0  0  0  0  0  0  0  0
    4.4962   -0.0273    0.4001 C   0  0  2  0  0  0  0  0  0  0  0  0
    5.6416    0.4349   -0.5273 C   0  0  0  0  0  0  0  0  0  0  0  0
    6.7093   -0.6663   -0.6472 C   0  0  1  0  0  0  0  0  0  0  0  0
    7.2746   -0.9761    0.7495 C   0  0  0  0  0  0  0  0  0  0  0  0
    6.1477   -1.4532    1.6817 C   0  0  2  0  0  0  0  0  0  0  0  0
    5.5048   -2.7196    1.0916 C   0  0  0  0  0  0  0  0  0  0  0  0
    4.9307   -2.4193   -0.3033 C   0  0  2  0  0  0  0  0  0  0  0  0
    6.0634   -1.9368   -1.2251 C   0  0  0  0  0  0  0  0  0  0  0  0
    3.8688   -1.3123   -0.1853 C   0  0  0  0  0  0  0  0  0  0  0  0
    5.0822   -0.3490    1.7926 C   0  0  0  0  0  0  0  0  0  0  0  0
   -0.4258    0.6088   -0.5193 C   0  0  0  0  0  0  0  0  0  0  0  0
   -1.7701    0.7354   -0.7587 N   0  0  0  0  0  0  0  0  0  0  0  0
   -2.5854   -0.3544   -1.2844 C   0  0  0  0  0  0  0  0  0  0  0  0
   -2.8273   -1.4980   -0.2755 C   0  0  1  0  0  0  0  0  0  0  0  0
   -3.7558   -1.0955    0.8829 C   0  0  0  0  0  0  0  0  0  0  0  0
   -5.2200   -0.9481    0.4599 C   0  0  0  0  0  0  0  0  0  0  0  0
   -5.7442   -2.1909   -0.2569 C   0  0  2  0  0  0  0  0  0  0  0  0
   -5.8197   -3.2609    0.6823 O   0  0  0  0  0  0  0  0  0  0  0  0
   -4.8389   -2.5924   -1.4210 C   0  0  0  0  0  0  0  0  0  0  0  0
   -3.3800   -2.7468   -0.9856 C   0  0  0  0  0  0  0  0  0  0  0  0
   -2.1729    2.0222   -0.4663 C   0  0  0  0  0  0  0  0  0  0  0  0
   -3.5408    2.5135   -0.6265 C   0  0  0  0  0  0  0  0  0  0  0  0
   -4.3458    2.7277    0.4994 C   0  0  0  0  0  0  0  0  0  0  0  0
   -5.6516    3.2002    0.3553 C   0  0  0  0  0  0  0  0  0  0  0  0
   -6.1575    3.4669   -0.9166 C   0  0  0  0  0  0  0  0  0  0  0  0
   -5.3526    3.2658   -2.0373 C   0  0  0  0  0  0  0  0  0  0  0  0
   -5.9785    3.5960   -3.6062 Cl  0  0  0  0  0  0  0  0  0  0  0  0
   -4.0474    2.7964   -1.8994 C   0  0  0  0  0  0  0  0  0  0  0  0
   -0.2437    4.6828   -0.1220 H   0  0  0  0  0  0  0  0  0  0  0  0
   -0.7483    4.1887    1.5111 H   0  0  0  0  0  0  0  0  0  0  0  0
   -1.9550    4.6472    0.3020 H   0  0  0  0  0  0  0  0  0  0  0  0
    3.8994    2.0550    0.9607 H   0  0  0  0  0  0  0  0  0  0  0  0
    5.2471    0.6833   -1.5214 H   0  0  0  0  0  0  0  0  0  0  0  0
    6.1001    1.3550   -0.1415 H   0  0  0  0  0  0  0  0  0  0  0  0
    7.5165   -0.3287   -1.3067 H   0  0  0  0  0  0  0  0  0  0  0  0
    7.7524   -0.0813    1.1671 H   0  0  0  0  0  0  0  0  0  0  0  0
    8.0513   -1.7471    0.6763 H   0  0  0  0  0  0  0  0  0  0  0  0
    6.5566   -1.6737    2.6740 H   0  0  0  0  0  0  0  0  0  0  0  0
    4.7087   -3.0795    1.7549 H   0  0  0  0  0  0  0  0  0  0  0  0
    6.2503   -3.5215    1.0248 H   0  0  0  0  0  0  0  0  0  0  0  0
    4.4759   -3.3253   -0.7191 H   0  0  0  0  0  0  0  0  0  0  0  0
    6.8189   -2.7247   -1.3334 H   0  0  0  0  0  0  0  0  0  0  0  0
    5.6691   -1.7336   -2.2283 H   0  0  0  0  0  0  0  0  0  0  0  0
    3.0435   -1.6594    0.4503 H   0  0  0  0  0  0  0  0  0  0  0  0
    3.4351   -1.1107   -1.1736 H   0  0  0  0  0  0  0  0  0  0  0  0
    5.5260    0.5506    2.2392 H   0  0  0  0  0  0  0  0  0  0  0  0
    4.2833   -0.6671    2.4753 H   0  0  0  0  0  0  0  0  0  0  0  0
    0.0855   -0.3277   -0.7056 H   0  0  0  0  0  0  0  0  0  0  0  0
   -3.5244    0.0540   -1.6639 H   0  0  0  0  0  0  0  0  0  0  0  0
   -2.0381   -0.7334   -2.1574 H   0  0  0  0  0  0  0  0  0  0  0  0
   -1.8587   -1.7764    0.1607 H   0  0  0  0  0  0  0  0  0  0  0  0
   -3.6925   -1.8661    1.6626 H   0  0  0  0  0  0  0  0  0  0  0  0
   -3.4113   -0.1678    1.3518 H   0  0  0  0  0  0  0  0  0  0  0  0
   -5.8215   -0.7561    1.3565 H   0  0  0  0  0  0  0  0  0  0  0  0
   -5.3326   -0.0799   -0.1972 H   0  0  0  0  0  0  0  0  0  0  0  0
   -6.7604   -2.0017   -0.6200 H   0  0  0  0  0  0  0  0  0  0  0  0
   -6.2034   -4.0280    0.2238 H   0  0  0  0  0  0  0  0  0  0  0  0
   -5.1771   -3.5460   -1.8434 H   0  0  0  0  0  0  0  0  0  0  0  0
   -4.9096   -1.8426   -2.2174 H   0  0  0  0  0  0  0  0  0  0  0  0
   -3.3010   -3.6038   -0.3041 H   0  0  0  0  0  0  0  0  0  0  0  0
   -2.7619   -2.9922   -1.8574 H   0  0  0  0  0  0  0  0  0  0  0  0
   -3.9562    2.5225    1.4946 H   0  0  0  0  0  0  0  0  0  0  0  0
   -6.2710    3.3605    1.2341 H   0  0  0  0  0  0  0  0  0  0  0  0
   -7.1740    3.8350   -1.0269 H   0  0  0  0  0  0  0  0  0  0  0  0
   -3.4226    2.6545   -2.7774 H   0  0  0  0  0  0  0  0  0  0  0  0
  1  2  1  0
  2  3  1  0
  3  4  1  0
  4  5  2  0
  4  6  1  0
  6  7  2  0
  8  7  1  1
  8  9  1  0
  9 10  1  0
 10 11  1  0
 11 12  1  0
 12 13  1  0
 13 14  1  0
 14 15  1  0
 14 16  1  0
 12 17  1  0
  3 18  2  0
 18 19  1  0
 19 20  1  0
 20 21  1  0
 21 22  1  0
 22 23  1  0
 23 24  1  0
 24 25  1  0
 24 26  1  0
 26 27  1  0
 19 28  1  0
 28 29  1  0
 29 30  2  0
 30 31  1  0
 31 32  2  0
 32 33  1  0
 33 34  1  0
 33 35  2  0
 28  2  2  0
 35 29  1  0
 16  8  1  0
 27 21  1  0
 17  8  1  0
 15 10  1  0
  1 36  1  0
  1 37  1  0
  1 38  1  0
  7 39  1  0
  9 40  1  0
  9 41  1  0
 10 42  1  6
 11 43  1  0
 11 44  1  0
 12 45  1  1
 13 46  1  0
 13 47  1  0
 14 48  1  6
 15 49  1  0
 15 50  1  0
 16 51  1  0
 16 52  1  0
 17 53  1  0
 17 54  1  0
 18 55  1  0
 20 56  1  0
 20 57  1  0
 21 58  1  1
 22 59  1  0
 22 60  1  0
 23 61  1  0
 23 62  1  0
 24 63  1  6
 25 64  1  0
 26 65  1  0
 26 66  1  0
 27 67  1  0
 27 68  1  0
 30 69  1  0
 31 70  1  0
 32 71  1  0
 35 72  1  0
M  END
>  <_SMILES>  (123) 
Cc1c(C(=O)/N=C/[C@]23C[C@H]4C[C@H](C[C@H](C4)C2)C3)cn(C[C@H]2CC[C@H](O)CC2)c1-c1cccc(Cl)c1

$$$$

     RDKit          3D

 72 77  0  0  0  0  0  0  0  0999 V2000
   -0.5042   -0.8179   -3.6203 C   0  0  0  0  0  0  0  0  0  0  0  0
    0.3263   -0.1315   -2.5867 C   0  0  0  0  0  0  0  0  0  0  0  0
   -0.0741    1.0258   -1.8314 C   0  0  0  0  0  0  0  0  0  0  0  0
   -1.3551    1.7417   -1.8967 C   0  0  0  0  0  0  0  0  0  0  0  0
   -2.2479    1.4453   -2.6801 O   0  0  0  0  0  0  0  0  0  0  0  0
   -1.4233    2.7806   -1.0110 N   0  0  0  0  0  0  0  0  0  0  0  0
   -2.2591    2.7445   -0.0181 C   0  0  0  0  0  0  0  0  0  0  0  0
   -3.2444    1.6696    0.4457 C   0  0  2  0  0  0  0  0  0  0  0  0
   -3.5893    2.0044    1.9292 C   0  0  0  0  0  0  0  0  0  0  0  0
   -4.6304    1.0267    2.4949 C   0  0  1  0  0  0  0  0  0  0  0  0
   -5.9098    1.1105    1.6480 C   0  0  0  0  0  0  0  0  0  0  0  0
   -5.5947    0.7559    0.1861 C   0  0  2  0  0  0  0  0  0  0  0  0
   -5.0210   -0.6706    0.1268 C   0  0  0  0  0  0  0  0  0  0  0  0
   -3.7400   -0.7629    0.9750 C   0  0  2  0  0  0  0  0  0  0  0  0
   -4.0654   -0.3989    2.4300 C   0  0  0  0  0  0  0  0  0  0  0  0
   -2.6986    0.2249    0.4171 C   0  0  0  0  0  0  0  0  0  0  0  0
   -4.5551    1.7490   -0.3664 C   0  0  0  0  0  0  0  0  0  0  0  0
    0.9945    1.3320   -1.0061 C   0  0  0  0  0  0  0  0  0  0  0  0
    1.9897    0.4110   -1.2008 N   0  0  0  0  0  0  0  0  0  0  0  0
    3.2534    0.4273   -0.4739 C   0  0  0  0  0  0  0  0  0  0  0  0
    3.3192   -0.5809    0.6938 C   0  0  1  0  0  0  0  0  0  0  0  0
    4.7472   -0.6645    1.2598 C   0  0  0  0  0  0  0  0  0  0  0  0
    5.1464    0.5759    2.0627 C   0  0  0  0  0  0  0  0  0  0  0  0
    4.1362    0.9230    3.1571 C   0  0  2  0  0  0  0  0  0  0  0  0
    4.2362   -0.0147    4.2263 O   0  0  0  0  0  0  0  0  0  0  0  0
    2.6994    0.9690    2.6355 C   0  0  0  0  0  0  0  0  0  0  0  0
    2.3252   -0.2752    1.8278 C   0  0  0  0  0  0  0  0  0  0  0  0
    1.6128   -0.4809   -2.1828 C   0  0  0  0  0  0  0  0  0  0  0  0
    2.4542   -1.5794   -2.6530 C   0  0  0  0  0  0  0  0  0  0  0  0
    3.4749   -1.3398   -3.5810 C   0  0  0  0  0  0  0  0  0  0  0  0
    4.2780   -2.3888   -4.0323 C   0  0  0  0  0  0  0  0  0  0  0  0
    4.0606   -3.6836   -3.5611 C   0  0  0  0  0  0  0  0  0  0  0  0
    3.0372   -3.9239   -2.6452 C   0  0  0  0  0  0  0  0  0  0  0  0
    2.7695   -5.5220   -2.0655 Cl  0  0  0  0  0  0  0  0  0  0  0  0
    2.2309   -2.8811   -2.1926 C   0  0  0  0  0  0  0  0  0  0  0  0
    0.0250   -1.6553   -4.0844 H   0  0  0  0  0  0  0  0  0  0  0  0
   -0.7763   -0.1178   -4.4166 H   0  0  0  0  0  0  0  0  0  0  0  0
   -1.4212   -1.2111   -3.1697 H   0  0  0  0  0  0  0  0  0  0  0  0
   -2.2718    3.6743    0.5803 H   0  0  0  0  0  0  0  0  0  0  0  0
   -2.6786    1.9736    2.5427 H   0  0  0  0  0  0  0  0  0  0  0  0
   -3.9768    3.0292    2.0097 H   0  0  0  0  0  0  0  0  0  0  0  0
   -4.8575    1.2875    3.5347 H   0  0  0  0  0  0  0  0  0  0  0  0
   -6.3328    2.1209    1.7058 H   0  0  0  0  0  0  0  0  0  0  0  0
   -6.6681    0.4247    2.0454 H   0  0  0  0  0  0  0  0  0  0  0  0
   -6.5108    0.8112   -0.4125 H   0  0  0  0  0  0  0  0  0  0  0  0
   -4.8030   -0.9435   -0.9131 H   0  0  0  0  0  0  0  0  0  0  0  0
   -5.7648   -1.3881    0.4947 H   0  0  0  0  0  0  0  0  0  0  0  0
   -3.3408   -1.7825    0.9305 H   0  0  0  0  0  0  0  0  0  0  0  0
   -3.1613   -0.4736    3.0467 H   0  0  0  0  0  0  0  0  0  0  0  0
   -4.7919   -1.1100    2.8418 H   0  0  0  0  0  0  0  0  0  0  0  0
   -2.4608   -0.0953   -0.6003 H   0  0  0  0  0  0  0  0  0  0  0  0
   -1.7659    0.1584    0.9918 H   0  0  0  0  0  0  0  0  0  0  0  0
   -4.3736    1.5265   -1.4229 H   0  0  0  0  0  0  0  0  0  0  0  0
   -4.9606    2.7689   -0.3369 H   0  0  0  0  0  0  0  0  0  0  0  0
    1.1087    2.1323   -0.2859 H   0  0  0  0  0  0  0  0  0  0  0  0
    4.0452    0.2244   -1.2037 H   0  0  0  0  0  0  0  0  0  0  0  0
    3.4146    1.4547   -0.1289 H   0  0  0  0  0  0  0  0  0  0  0  0
    3.0672   -1.5732    0.3008 H   0  0  0  0  0  0  0  0  0  0  0  0
    5.4672   -0.8206    0.4474 H   0  0  0  0  0  0  0  0  0  0  0  0
    4.8217   -1.5490    1.9050 H   0  0  0  0  0  0  0  0  0  0  0  0
    5.2508    1.4292    1.3825 H   0  0  0  0  0  0  0  0  0  0  0  0
    6.1314    0.3980    2.5106 H   0  0  0  0  0  0  0  0  0  0  0  0
    4.3927    1.8991    3.5833 H   0  0  0  0  0  0  0  0  0  0  0  0
    4.0170   -0.8999    3.8925 H   0  0  0  0  0  0  0  0  0  0  0  0
    2.5681    1.8608    2.0122 H   0  0  0  0  0  0  0  0  0  0  0  0
    2.0028    1.0592    3.4776 H   0  0  0  0  0  0  0  0  0  0  0  0
    2.2900   -1.1395    2.5036 H   0  0  0  0  0  0  0  0  0  0  0  0
    1.3077   -0.1668    1.4373 H   0  0  0  0  0  0  0  0  0  0  0  0
    3.6419   -0.3340   -3.9610 H   0  0  0  0  0  0  0  0  0  0  0  0
    5.0678   -2.1970   -4.7543 H   0  0  0  0  0  0  0  0  0  0  0  0
    4.6859   -4.4991   -3.9148 H   0  0  0  0  0  0  0  0  0  0  0  0
    1.4315   -3.0770   -1.4826 H   0  0  0  0  0  0  0  0  0  0  0  0
  1  2  1  0
  2  3  1  0
  3  4  1  0
  4  5  2  0
  4  6  1  0
  6  7  2  0
  8  7  1  6
  8  9  1  0
  9 10  1  0
 10 11  1  0
 11 12  1  0
 12 13  1  0
 13 14  1  0
 14 15  1  0
 14 16  1  0
 12 17  1  0
  3 18  2  0
 18 19  1  0
 19 20  1  0
 20 21  1  0
 21 22  1  0
 22 23  1  0
 23 24  1  0
 24 25  1  0
 24 26  1  0
 26 27  1  0
 19 28  1  0
 28 29  1  0
 29 30  2  0
 30 31  1  0
 31 32  2  0
 32 33  1  0
 33 34  1  0
 33 35  2  0
 28  2  2  0
 35 29  1  0
 16  8  1  0
 27 21  1  0
 17  8  1  0
 15 10  1  0
  1 36  1  0
  1 37  1  0
  1 38  1  0
  7 39  1  0
  9 40  1  0
  9 41  1  0
 10 42  1  1
 11 43  1  0
 11 44  1  0
 12 45  1  6
 13 46  1  0
 13 47  1  0
 14 48  1  1
 15 49  1  0
 15 50  1  0
 16 51  1  0
 16 52  1  0
 17 53  1  0
 17 54  1  0
 18 55  1  0
 20 56  1  0
 20 57  1  0
 21 58  1  6
 22 59  1  0
 22 60  1  0
 23 61  1  0
 23 62  1  0
 24 63  1  1
 25 64  1  0
 26 65  1  0
 26 66  1  0
 27 67  1  0
 27 68  1  0
 30 69  1  0
 31 70  1  0
 32 71  1  0
 35 72  1  0
M  END
>  <_SMILES>  (124) 
Cc1c(C(=O)/N=C\[C@]23C[C@H]4C[C@H](C[C@H](C4)C2)C3)cn(C[C@H]2CC[C@H](O)CC2)c1-c1cccc(Cl)c1

$$$$
