
     RDKit          3D

 67 72  0  0  0  0  0  0  0  0999 V2000
    0.1222   -2.7078   -0.0473 C   0  0  0  0  0  0  0  0  0  0  0  0
   -0.7242   -1.4935    0.0893 C   0  0  0  0  0  0  0  0  0  0  0  0
   -0.3112   -0.1753    0.4691 C   0  0  0  0  0  0  0  0  0  0  0  0
    1.0524    0.3109    0.7659 C   0  0  0  0  0  0  0  0  0  0  0  0
    1.2965    1.0935    1.6785 O   0  0  0  0  0  0  0  0  0  0  0  0
    2.0166   -0.1767   -0.1017 N   0  0  0  0  0  0  0  0  0  0  0  0
    3.4230    0.2328   -0.0979 C   0  0  2  0  0  0  0  0  0  0  0  0
    4.1635   -0.5706   -1.2021 C   0  0  0  0  0  0  0  0  0  0  0  0
    5.6504   -0.1865   -1.2623 C   0  0  1  0  0  0  0  0  0  0  0  0
    5.7711    1.3157   -1.5633 C   0  0  0  0  0  0  0  0  0  0  0  0
    5.0685    2.1295   -0.4649 C   0  0  2  0  0  0  0  0  0  0  0  0
    5.7198    1.8163    0.8930 C   0  0  0  0  0  0  0  0  0  0  0  0
    5.6034    0.3140    1.2026 C   0  0  2  0  0  0  0  0  0  0  0  0
    6.3036   -0.4882    0.0950 C   0  0  0  0  0  0  0  0  0  0  0  0
    4.1159   -0.0783    1.2532 C   0  0  0  0  0  0  0  0  0  0  0  0
    3.5805    1.7399   -0.4160 C   0  0  0  0  0  0  0  0  0  0  0  0
   -1.3663    0.6527    0.5329 N   0  0  0  0  0  0  0  0  0  0  0  0
   -2.4259   -0.1023    0.1952 N   0  0  0  0  0  0  0  0  0  0  0  0
   -3.7549    0.5134    0.1783 C   0  0  1  0  0  0  0  0  0  0  0  0
   -4.2622    0.7499    1.6129 C   0  0  0  0  0  0  0  0  0  0  0  0
   -5.3518    1.8122    1.6398 C   0  0  0  0  0  0  0  0  0  0  0  0
   -4.8264    3.1703    1.1647 C   0  0  2  0  0  0  0  0  0  0  0  0
   -5.9211    3.9195    0.6387 O   0  0  0  0  0  0  0  0  0  0  0  0
   -3.7104    3.0695    0.1180 C   0  0  0  0  0  0  0  0  0  0  0  0
   -3.8073    1.7824   -0.7017 C   0  0  0  0  0  0  0  0  0  0  0  0
   -2.0974   -1.4060   -0.0899 C   0  0  0  0  0  0  0  0  0  0  0  0
   -3.0564   -2.4358   -0.4672 C   0  0  0  0  0  0  0  0  0  0  0  0
   -3.7882   -3.1118    0.5153 C   0  0  0  0  0  0  0  0  0  0  0  0
   -4.7099   -4.0948    0.1516 C   0  0  0  0  0  0  0  0  0  0  0  0
   -4.9008   -4.4083   -1.1937 C   0  0  0  0  0  0  0  0  0  0  0  0
   -4.1693   -3.7423   -2.1766 C   0  0  0  0  0  0  0  0  0  0  0  0
   -3.2470   -2.7589   -1.8149 C   0  0  0  0  0  0  0  0  0  0  0  0
    0.9328   -2.7072    0.6883 H   0  0  0  0  0  0  0  0  0  0  0  0
    0.5603   -2.7540   -1.0492 H   0  0  0  0  0  0  0  0  0  0  0  0
   -0.4590   -3.6215    0.1122 H   0  0  0  0  0  0  0  0  0  0  0  0
    1.6603   -0.5915   -0.9522 H   0  0  0  0  0  0  0  0  0  0  0  0
    4.0655   -1.6483   -1.0141 H   0  0  0  0  0  0  0  0  0  0  0  0
    3.6969   -0.3874   -2.1794 H   0  0  0  0  0  0  0  0  0  0  0  0
    6.1500   -0.7625   -2.0492 H   0  0  0  0  0  0  0  0  0  0  0  0
    5.3244    1.5398   -2.5397 H   0  0  0  0  0  0  0  0  0  0  0  0
    6.8283    1.6020   -1.6236 H   0  0  0  0  0  0  0  0  0  0  0  0
    5.1622    3.1995   -0.6816 H   0  0  0  0  0  0  0  0  0  0  0  0
    5.2352    2.4008    1.6847 H   0  0  0  0  0  0  0  0  0  0  0  0
    6.7755    2.1139    0.8785 H   0  0  0  0  0  0  0  0  0  0  0  0
    6.0745    0.0982    2.1681 H   0  0  0  0  0  0  0  0  0  0  0  0
    7.3698   -0.2323    0.0634 H   0  0  0  0  0  0  0  0  0  0  0  0
    6.2400   -1.5615    0.3119 H   0  0  0  0  0  0  0  0  0  0  0  0
    4.0182   -1.1460    1.4899 H   0  0  0  0  0  0  0  0  0  0  0  0
    3.6374    0.4628    2.0772 H   0  0  0  0  0  0  0  0  0  0  0  0
    3.0738    2.3536    0.3383 H   0  0  0  0  0  0  0  0  0  0  0  0
    3.1011    1.9752   -1.3753 H   0  0  0  0  0  0  0  0  0  0  0  0
   -4.4232   -0.2119   -0.3010 H   0  0  0  0  0  0  0  0  0  0  0  0
   -4.6470   -0.1913    2.0241 H   0  0  0  0  0  0  0  0  0  0  0  0
   -3.4456    1.0605    2.2774 H   0  0  0  0  0  0  0  0  0  0  0  0
   -5.7518    1.9161    2.6557 H   0  0  0  0  0  0  0  0  0  0  0  0
   -6.1990    1.4876    1.0216 H   0  0  0  0  0  0  0  0  0  0  0  0
   -4.4478    3.7379    2.0222 H   0  0  0  0  0  0  0  0  0  0  0  0
   -6.1959    3.5097   -0.1985 H   0  0  0  0  0  0  0  0  0  0  0  0
   -3.7372    3.9338   -0.5558 H   0  0  0  0  0  0  0  0  0  0  0  0
   -2.7396    3.0898    0.6273 H   0  0  0  0  0  0  0  0  0  0  0  0
   -3.0243    1.7663   -1.4694 H   0  0  0  0  0  0  0  0  0  0  0  0
   -4.7629    1.7936   -1.2428 H   0  0  0  0  0  0  0  0  0  0  0  0
   -3.6406   -2.8798    1.5678 H   0  0  0  0  0  0  0  0  0  0  0  0
   -5.2758   -4.6187    0.9178 H   0  0  0  0  0  0  0  0  0  0  0  0
   -5.6175   -5.1757   -1.4761 H   0  0  0  0  0  0  0  0  0  0  0  0
   -4.3159   -3.9905   -3.2247 H   0  0  0  0  0  0  0  0  0  0  0  0
   -2.6801   -2.2464   -2.5885 H   0  0  0  0  0  0  0  0  0  0  0  0
  1  2  1  0
  2  3  1  0
  3  4  1  0
  4  5  2  0
  4  6  1  0
  7  6  1  1
  7  8  1  0
  8  9  1  0
  9 10  1  0
 10 11  1  0
 11 12  1  0
 12 13  1  0
 13 14  1  0
 13 15  1  0
 11 16  1  0
  3 17  2  0
 17 18  1  0
 18 19  1  0
 19 20  1  0
 20 21  1  0
 21 22  1  0
 22 23  1  0
 22 24  1  0
 24 25  1  0
 18 26  1  0
 26 27  1  0
 27 28  2  0
 28 29  1  0
 29 30  2  0
 30 31  1  0
 31 32  2  0
 26  2  2  0
 32 27  1  0
 15  7  1  0
 25 19  1  0
 16  7  1  0
 14  9  1  0
  1 33  1  0
  1 34  1  0
  1 35  1  0
  6 36  1  0
  8 37  1  0
  8 38  1  0
  9 39  1  6
 10 40  1  0
 10 41  1  0
 11 42  1  6
 12 43  1  0
 12 44  1  0
 13 45  1  1
 14 46  1  0
 14 47  1  0
 15 48  1  0
 15 49  1  0
 16 50  1  0
 16 51  1  0
 19 52  1  6
 20 53  1  0
 20 54  1  0
 21 55  1  0
 21 56  1  0
 22 57  1  1
 23 58  1  0
 24 59  1  0
 24 60  1  0
 25 61  1  0
 25 62  1  0
 28 63  1  0
 29 64  1  0
 30 65  1  0
 31 66  1  0
 32 67  1  0
M  END
>  <_SMILES>  (1) 
Cc1c(C(=O)N[C@]23C[C@H]4C[C@H](C[C@H](C4)C2)C3)nn([C@H]2CC[C@H](O)CC2)c1-c1ccccc1

$$$$

     RDKit          3D

 64 69  0  0  0  0  0  0  0  0999 V2000
    7.5197   -3.4570   -1.8403 C   0  0  0  0  0  0  0  0  0  0  0  0
    7.3129   -2.0583   -1.6869 O   0  0  0  0  0  0  0  0  0  0  0  0
    6.0847   -1.6635   -1.2351 C   0  0  0  0  0  0  0  0  0  0  0  0
    5.9274   -0.2843   -1.0948 C   0  0  0  0  0  0  0  0  0  0  0  0
    4.7211    0.2656   -0.6402 C   0  0  0  0  0  0  0  0  0  0  0  0
    3.6482   -0.5654   -0.3076 C   0  0  0  0  0  0  0  0  0  0  0  0
    2.3879   -0.0666    0.1610 N   0  0  0  0  0  0  0  0  0  0  0  0
    1.3338   -0.9226    0.1895 N   0  0  0  0  0  0  0  0  0  0  0  0
    0.2671   -0.2016    0.5510 C   0  0  0  0  0  0  0  0  0  0  0  0
   -1.0725   -0.8212    0.6216 C   0  0  0  0  0  0  0  0  0  0  0  0
   -1.2586   -1.9546    1.0520 O   0  0  0  0  0  0  0  0  0  0  0  0
   -2.0845   -0.0141    0.1276 N   0  0  0  0  0  0  0  0  0  0  0  0
   -3.4827   -0.4275   -0.0166 C   0  0  2  0  0  0  0  0  0  0  0  0
   -4.2886    0.7780   -0.5735 C   0  0  0  0  0  0  0  0  0  0  0  0
   -5.7703    0.4145   -0.7585 C   0  0  1  0  0  0  0  0  0  0  0  0
   -5.8816   -0.7639   -1.7386 C   0  0  0  0  0  0  0  0  0  0  0  0
   -5.1137   -1.9772   -1.1905 C   0  0  2  0  0  0  0  0  0  0  0  0
   -5.7032   -2.3763    0.1731 C   0  0  0  0  0  0  0  0  0  0  0  0
   -5.5958   -1.2021    1.1611 C   0  0  2  0  0  0  0  0  0  0  0  0
   -6.3616    0.0055    0.5991 C   0  0  0  0  0  0  0  0  0  0  0  0
   -4.1141   -0.8268    1.3415 C   0  0  0  0  0  0  0  0  0  0  0  0
   -3.6314   -1.6034   -1.0128 C   0  0  0  0  0  0  0  0  0  0  0  0
    0.6398    1.1403    0.8443 C   0  0  0  0  0  0  0  0  0  0  0  0
   -0.2327    2.2266    1.3681 C   0  0  0  0  0  0  0  0  0  0  0  0
    2.0087    1.2032    0.6016 C   0  0  0  0  0  0  0  0  0  0  0  0
    2.8908    2.3391    0.8580 C   0  0  0  0  0  0  0  0  0  0  0  0
    2.8387    3.4719    0.0358 C   0  0  0  0  0  0  0  0  0  0  0  0
    3.6669    4.5659    0.2930 C   0  0  0  0  0  0  0  0  0  0  0  0
    4.5431    4.5379    1.3772 C   0  0  0  0  0  0  0  0  0  0  0  0
    4.5900    3.4196    2.2086 C   0  0  0  0  0  0  0  0  0  0  0  0
    3.7629    2.3244    1.9540 C   0  0  0  0  0  0  0  0  0  0  0  0
    3.8079   -1.9543   -0.4677 C   0  0  0  0  0  0  0  0  0  0  0  0
    5.0164   -2.4986   -0.9225 C   0  0  0  0  0  0  0  0  0  0  0  0
    7.4248   -3.9779   -0.8817 H   0  0  0  0  0  0  0  0  0  0  0  0
    8.5423   -3.6061   -2.2000 H   0  0  0  0  0  0  0  0  0  0  0  0
    6.8392   -3.8769   -2.5884 H   0  0  0  0  0  0  0  0  0  0  0  0
    6.7528    0.3769   -1.3501 H   0  0  0  0  0  0  0  0  0  0  0  0
    4.6661    1.3456   -0.5961 H   0  0  0  0  0  0  0  0  0  0  0  0
   -1.7793    0.7743   -0.4271 H   0  0  0  0  0  0  0  0  0  0  0  0
   -3.8671    1.1022   -1.5346 H   0  0  0  0  0  0  0  0  0  0  0  0
   -4.1987    1.6372    0.1047 H   0  0  0  0  0  0  0  0  0  0  0  0
   -6.3166    1.2778   -1.1546 H   0  0  0  0  0  0  0  0  0  0  0  0
   -6.9358   -1.0256   -1.8918 H   0  0  0  0  0  0  0  0  0  0  0  0
   -5.4794   -0.4767   -2.7179 H   0  0  0  0  0  0  0  0  0  0  0  0
   -5.2008   -2.8158   -1.8904 H   0  0  0  0  0  0  0  0  0  0  0  0
   -5.1716   -3.2499    0.5700 H   0  0  0  0  0  0  0  0  0  0  0  0
   -6.7535   -2.6698    0.0546 H   0  0  0  0  0  0  0  0  0  0  0  0
   -6.0228   -1.4923    2.1276 H   0  0  0  0  0  0  0  0  0  0  0  0
   -7.4239   -0.2435    0.4860 H   0  0  0  0  0  0  0  0  0  0  0  0
   -6.3046    0.8458    1.3019 H   0  0  0  0  0  0  0  0  0  0  0  0
   -3.5875   -1.6779    1.7877 H   0  0  0  0  0  0  0  0  0  0  0  0
   -4.0220    0.0003    2.0577 H   0  0  0  0  0  0  0  0  0  0  0  0
   -3.0791   -2.4839   -0.6635 H   0  0  0  0  0  0  0  0  0  0  0  0
   -3.1955   -1.3331   -1.9835 H   0  0  0  0  0  0  0  0  0  0  0  0
    0.3317    2.9361    1.9813 H   0  0  0  0  0  0  0  0  0  0  0  0
   -0.6891    2.7775    0.5397 H   0  0  0  0  0  0  0  0  0  0  0  0
   -1.0308    1.8229    1.9992 H   0  0  0  0  0  0  0  0  0  0  0  0
    2.1589    3.5057   -0.8123 H   0  0  0  0  0  0  0  0  0  0  0  0
    3.6282    5.4404   -0.3516 H   0  0  0  0  0  0  0  0  0  0  0  0
    5.1879    5.3902    1.5773 H   0  0  0  0  0  0  0  0  0  0  0  0
    5.2692    3.4003    3.0573 H   0  0  0  0  0  0  0  0  0  0  0  0
    3.8040    1.4607    2.6145 H   0  0  0  0  0  0  0  0  0  0  0  0
    2.9951   -2.6403   -0.2295 H   0  0  0  0  0  0  0  0  0  0  0  0
    5.0814   -3.5772   -1.0188 H   0  0  0  0  0  0  0  0  0  0  0  0
  1  2  1  0
  2  3  1  0
  3  4  1  0
  4  5  2  0
  5  6  1  0
  6  7  1  0
  7  8  1  0
  8  9  2  0
  9 10  1  0
 10 11  2  0
 10 12  1  0
 13 12  1  1
 13 14  1  0
 14 15  1  0
 15 16  1  0
 16 17  1  0
 17 18  1  0
 18 19  1  0
 19 20  1  0
 19 21  1  0
 17 22  1  0
  9 23  1  0
 23 24  1  0
 23 25  2  0
 25 26  1  0
 26 27  2  0
 27 28  1  0
 28 29  2  0
 29 30  1  0
 30 31  2  0
  6 32  2  0
 32 33  1  0
 33  3  2  0
 25  7  1  0
 31 26  1  0
 21 13  1  0
 22 13  1  0
 20 15  1  0
  1 34  1  0
  1 35  1  0
  1 36  1  0
  4 37  1  0
  5 38  1  0
 12 39  1  0
 14 40  1  0
 14 41  1  0
 15 42  1  6
 16 43  1  0
 16 44  1  0
 17 45  1  6
 18 46  1  0
 18 47  1  0
 19 48  1  1
 20 49  1  0
 20 50  1  0
 21 51  1  0
 21 52  1  0
 22 53  1  0
 22 54  1  0
 24 55  1  0
 24 56  1  0
 24 57  1  0
 27 58  1  0
 28 59  1  0
 29 60  1  0
 30 61  1  0
 31 62  1  0
 32 63  1  0
 33 64  1  0
M  END
>  <_SMILES>  (2) 
COc1ccc(-n2nc(C(=O)N[C@]34C[C@H]5C[C@H](C[C@H](C5)C3)C4)c(C)c2-c2ccccc2)cc1

$$$$

     RDKit          3D

 47 51  0  0  0  0  0  0  0  0999 V2000
    2.5015    0.0724   -1.9484 C   0  0  0  0  0  0  0  0  0  0  0  0
    2.3567   -0.2024   -0.4940 C   0  0  0  0  0  0  0  0  0  0  0  0
    3.3837   -0.2399    0.5048 C   0  0  0  0  0  0  0  0  0  0  0  0
    4.8153    0.0267    0.3616 C   0  0  0  0  0  0  0  0  0  0  0  0
    5.7512   -0.8196    0.9726 C   0  0  0  0  0  0  0  0  0  0  0  0
    7.1204   -0.5761    0.8425 C   0  0  0  0  0  0  0  0  0  0  0  0
    7.5661    0.5203    0.1066 C   0  0  0  0  0  0  0  0  0  0  0  0
    6.6448    1.3767   -0.4943 C   0  0  0  0  0  0  0  0  0  0  0  0
    5.2747    1.1335   -0.3648 C   0  0  0  0  0  0  0  0  0  0  0  0
    2.8732   -0.5813    1.6980 N   0  0  0  0  0  0  0  0  0  0  0  0
    1.5673   -0.7401    1.4695 N   0  0  0  0  0  0  0  0  0  0  0  0
    1.1768   -0.4690    0.1901 C   0  0  0  0  0  0  0  0  0  0  0  0
   -0.1848   -0.5386   -0.2836 C   0  0  0  0  0  0  0  0  0  0  0  0
   -0.4783   -0.7873   -1.4467 O   0  0  0  0  0  0  0  0  0  0  0  0
   -1.1326   -0.2696    0.6870 N   0  0  0  0  0  0  0  0  0  0  0  0
   -2.5524   -0.1836    0.3922 C   0  0  2  0  0  0  0  0  0  0  0  0
   -2.9241    1.0307   -0.5246 C   0  0  0  0  0  0  0  0  0  0  0  0
   -4.4597    1.1203   -0.7644 C   0  0  2  0  0  0  0  0  0  0  0  0
   -5.1922    1.1527    0.5778 C   0  0  0  0  0  0  0  0  0  0  0  0
   -4.8063   -0.2179    1.1505 C   0  0  2  0  0  0  0  0  0  0  0  0
   -3.3762   -0.0958    1.6912 C   0  0  0  0  0  0  0  0  0  0  0  0
   -4.6657   -1.1423   -0.1080 C   0  0  1  0  0  0  0  0  0  0  0  0
   -4.9774   -0.2184   -1.2947 C   0  0  0  0  0  0  0  0  0  0  0  0
   -3.1678   -1.4760   -0.1727 C   0  0  0  0  0  0  0  0  0  0  0  0
    2.2540    1.1167   -2.1630 H   0  0  0  0  0  0  0  0  0  0  0  0
    3.5211   -0.1199   -2.2953 H   0  0  0  0  0  0  0  0  0  0  0  0
    1.8423   -0.5688   -2.5410 H   0  0  0  0  0  0  0  0  0  0  0  0
    5.4120   -1.6741    1.5546 H   0  0  0  0  0  0  0  0  0  0  0  0
    7.8359   -1.2407    1.3194 H   0  0  0  0  0  0  0  0  0  0  0  0
    8.6315    0.7112    0.0076 H   0  0  0  0  0  0  0  0  0  0  0  0
    6.9919    2.2383   -1.0587 H   0  0  0  0  0  0  0  0  0  0  0  0
    4.5718    1.8244   -0.8228 H   0  0  0  0  0  0  0  0  0  0  0  0
    0.9842   -1.0510    2.2382 H   0  0  0  0  0  0  0  0  0  0  0  0
   -0.8170    0.2768    1.4763 H   0  0  0  0  0  0  0  0  0  0  0  0
   -2.5720    1.9617   -0.0626 H   0  0  0  0  0  0  0  0  0  0  0  0
   -2.4188    0.9445   -1.4936 H   0  0  0  0  0  0  0  0  0  0  0  0
   -4.7213    1.9625   -1.4104 H   0  0  0  0  0  0  0  0  0  0  0  0
   -6.2772    1.2190    0.4321 H   0  0  0  0  0  0  0  0  0  0  0  0
   -4.8844    1.9916    1.2102 H   0  0  0  0  0  0  0  0  0  0  0  0
   -5.5138   -0.5785    1.9010 H   0  0  0  0  0  0  0  0  0  0  0  0
   -3.1454   -0.9300    2.3666 H   0  0  0  0  0  0  0  0  0  0  0  0
   -3.1977    0.8317    2.2468 H   0  0  0  0  0  0  0  0  0  0  0  0
   -5.2974   -2.0336   -0.0879 H   0  0  0  0  0  0  0  0  0  0  0  0
   -4.4892   -0.5245   -2.2255 H   0  0  0  0  0  0  0  0  0  0  0  0
   -6.0580   -0.1766   -1.4775 H   0  0  0  0  0  0  0  0  0  0  0  0
   -2.9341   -2.3395    0.4633 H   0  0  0  0  0  0  0  0  0  0  0  0
   -2.8326   -1.7166   -1.1864 H   0  0  0  0  0  0  0  0  0  0  0  0
  1  2  1  0
  2  3  1  0
  3  4  1  0
  4  5  2  0
  5  6  1  0
  6  7  2  0
  7  8  1  0
  8  9  2  0
  3 10  2  0
 10 11  1  0
 11 12  1  0
 12 13  1  0
 13 14  2  0
 13 15  1  0
 16 15  1  1
 16 17  1  0
 17 18  1  0
 18 19  1  0
 19 20  1  0
 20 21  1  0
 20 22  1  0
 22 23  1  0
 22 24  1  0
 12  2  2  0
 21 16  1  0
  9  4  1  0
 24 16  1  0
 23 18  1  0
  1 25  1  0
  1 26  1  0
  1 27  1  0
  5 28  1  0
  6 29  1  0
  7 30  1  0
  8 31  1  0
  9 32  1  0
 11 33  1  0
 15 34  1  0
 17 35  1  0
 17 36  1  0
 18 37  1  6
 19 38  1  0
 19 39  1  0
 20 40  1  1
 21 41  1  0
 21 42  1  0
 22 43  1  1
 23 44  1  0
 23 45  1  0
 24 46  1  0
 24 47  1  0
M  END
>  <_SMILES>  (3) 
Cc1c(-c2ccccc2)n[nH]c1C(=O)N[C@]12C[C@@H]3C[C@H](C1)[C@@H](C3)C2

$$$$

     RDKit          3D

 47 51  0  0  0  0  0  0  0  0999 V2000
    2.5487    0.9277    1.7833 C   0  0  0  0  0  0  0  0  0  0  0  0
    2.3751    0.2937    0.4506 C   0  0  0  0  0  0  0  0  0  0  0  0
    1.1404   -0.1254   -0.1388 C   0  0  0  0  0  0  0  0  0  0  0  0
   -0.2208   -0.0020    0.4225 C   0  0  0  0  0  0  0  0  0  0  0  0
   -0.4591    0.5503    1.4914 O   0  0  0  0  0  0  0  0  0  0  0  0
   -1.1836   -0.5597   -0.3918 N   0  0  0  0  0  0  0  0  0  0  0  0
   -2.6066   -0.4523   -0.1758 C   0  0  2  0  0  0  0  0  0  0  0  0
   -3.1386    1.0151   -0.2988 C   0  0  0  0  0  0  0  0  0  0  0  0
   -4.6821    1.0845   -0.1086 C   0  0  2  0  0  0  0  0  0  0  0  0
   -5.0693    0.4118    1.2100 C   0  0  0  0  0  0  0  0  0  0  0  0
   -4.6167   -1.0316    0.9442 C   0  0  2  0  0  0  0  0  0  0  0  0
   -3.0944   -1.0744    1.1435 C   0  0  0  0  0  0  0  0  0  0  0  0
   -4.8143   -1.2219   -0.6000 C   0  0  1  0  0  0  0  0  0  0  0  0
   -5.3668    0.1258   -1.0840 C   0  0  0  0  0  0  0  0  0  0  0  0
   -3.3885   -1.3505   -1.1511 C   0  0  0  0  0  0  0  0  0  0  0  0
    1.3436   -0.6804   -1.3528 N   0  0  0  0  0  0  0  0  0  0  0  0
    2.6716   -0.6057   -1.5240 N   0  0  0  0  0  0  0  0  0  0  0  0
    3.3477   -0.0312   -0.4822 C   0  0  0  0  0  0  0  0  0  0  0  0
    4.7931    0.1589   -0.5034 C   0  0  0  0  0  0  0  0  0  0  0  0
    5.6505   -0.9204   -0.7538 C   0  0  0  0  0  0  0  0  0  0  0  0
    7.0344   -0.7323   -0.7852 C   0  0  0  0  0  0  0  0  0  0  0  0
    7.5716    0.5352   -0.5681 C   0  0  0  0  0  0  0  0  0  0  0  0
    6.7272    1.6150   -0.3171 C   0  0  0  0  0  0  0  0  0  0  0  0
    5.3436    1.4275   -0.2844 C   0  0  0  0  0  0  0  0  0  0  0  0
    2.1585    1.9503    1.7711 H   0  0  0  0  0  0  0  0  0  0  0  0
    3.6005    0.9687    2.0813 H   0  0  0  0  0  0  0  0  0  0  0  0
    2.0168    0.3601    2.5536 H   0  0  0  0  0  0  0  0  0  0  0  0
   -0.8244   -0.8783   -1.2893 H   0  0  0  0  0  0  0  0  0  0  0  0
   -2.6586    1.6554    0.4509 H   0  0  0  0  0  0  0  0  0  0  0  0
   -2.8736    1.4217   -1.2831 H   0  0  0  0  0  0  0  0  0  0  0  0
   -5.0556    2.1087   -0.1883 H   0  0  0  0  0  0  0  0  0  0  0  0
   -4.5837    0.8679    2.0786 H   0  0  0  0  0  0  0  0  0  0  0  0
   -6.1537    0.4531    1.3682 H   0  0  0  0  0  0  0  0  0  0  0  0
   -5.1452   -1.7618    1.5617 H   0  0  0  0  0  0  0  0  0  0  0  0
   -2.7665   -0.5266    2.0328 H   0  0  0  0  0  0  0  0  0  0  0  0
   -2.7455   -2.1097    1.2489 H   0  0  0  0  0  0  0  0  0  0  0  0
   -5.4525   -2.0653   -0.8745 H   0  0  0  0  0  0  0  0  0  0  0  0
   -6.4570    0.1602   -0.9690 H   0  0  0  0  0  0  0  0  0  0  0  0
   -5.1305    0.3431   -2.1305 H   0  0  0  0  0  0  0  0  0  0  0  0
   -3.0453   -2.3920   -1.0966 H   0  0  0  0  0  0  0  0  0  0  0  0
   -3.2933   -1.0305   -2.1947 H   0  0  0  0  0  0  0  0  0  0  0  0
    3.0661   -0.9525   -2.3915 H   0  0  0  0  0  0  0  0  0  0  0  0
    5.2525   -1.9208   -0.9066 H   0  0  0  0  0  0  0  0  0  0  0  0
    7.6934   -1.5763   -0.9724 H   0  0  0  0  0  0  0  0  0  0  0  0
    8.6487    0.6811   -0.5905 H   0  0  0  0  0  0  0  0  0  0  0  0
    7.1444    2.6041   -0.1465 H   0  0  0  0  0  0  0  0  0  0  0  0
    4.6976    2.2817   -0.0940 H   0  0  0  0  0  0  0  0  0  0  0  0
  1  2  1  0
  2  3  1  0
  3  4  1  0
  4  5  2  0
  4  6  1  0
  7  6  1  6
  7  8  1  0
  8  9  1  0
  9 10  1  0
 10 11  1  0
 11 12  1  0
 11 13  1  0
 13 14  1  0
 13 15  1  0
  3 16  2  0
 16 17  1  0
 17 18  1  0
 18 19  1  0
 19 20  2  0
 20 21  1  0
 21 22  2  0
 22 23  1  0
 23 24  2  0
 18  2  2  0
 24 19  1  0
 12  7  1  0
 15  7  1  0
 14  9  1  0
  1 25  1  0
  1 26  1  0
  1 27  1  0
  6 28  1  0
  8 29  1  0
  8 30  1  0
  9 31  1  1
 10 32  1  0
 10 33  1  0
 11 34  1  1
 12 35  1  0
 12 36  1  0
 13 37  1  1
 14 38  1  0
 14 39  1  0
 15 40  1  0
 15 41  1  0
 17 42  1  0
 20 43  1  0
 21 44  1  0
 22 45  1  0
 23 46  1  0
 24 47  1  0
M  END
>  <_SMILES>  (4) 
Cc1c(C(=O)N[C@]23C[C@@H]4C[C@H](C2)[C@@H](C4)C3)n[nH]c1-c1ccccc1

$$$$

     RDKit          3D

 66 70  0  0  0  0  0  0  0  0999 V2000
    6.6629   -0.8491    3.2108 C   0  0  0  0  0  0  0  0  0  0  0  0
    5.6481   -0.4244    2.4479 C   0  0  0  0  0  0  0  0  0  0  0  0
    5.4086   -0.8772    1.0360 C   0  0  0  0  0  0  0  0  0  0  0  0
    4.0681   -1.6063    0.9093 C   0  0  0  0  0  0  0  0  0  0  0  0
    3.7990   -2.1238   -0.5081 C   0  0  0  0  0  0  0  0  0  0  0  0
    3.5210   -1.0344   -1.5481 C   0  0  0  0  0  0  0  0  0  0  0  0
    2.2543   -0.3485   -1.3506 N   0  0  0  0  0  0  0  0  0  0  0  0
    1.1234   -1.0356   -1.5872 N   0  0  0  0  0  0  0  0  0  0  0  0
    0.1289   -0.1735   -1.3229 C   0  0  0  0  0  0  0  0  0  0  0  0
   -1.2851   -0.5839   -1.4472 C   0  0  0  0  0  0  0  0  0  0  0  0
   -1.6992   -1.2812   -2.3676 O   0  0  0  0  0  0  0  0  0  0  0  0
   -2.0858   -0.1307   -0.4108 N   0  0  0  0  0  0  0  0  0  0  0  0
   -3.4953   -0.4862   -0.2314 C   0  0  2  0  0  0  0  0  0  0  0  0
   -4.0243    0.2543    1.0275 C   0  0  0  0  0  0  0  0  0  0  0  0
   -5.5026   -0.0779    1.2841 C   0  0  1  0  0  0  0  0  0  0  0  0
   -6.3342    0.3542    0.0668 C   0  0  0  0  0  0  0  0  0  0  0  0
   -5.8456   -0.3832   -1.1893 C   0  0  2  0  0  0  0  0  0  0  0  0
   -5.9876   -1.9000   -0.9756 C   0  0  0  0  0  0  0  0  0  0  0  0
   -5.1584   -2.3436    0.2417 C   0  0  2  0  0  0  0  0  0  0  0  0
   -5.6502   -1.5937    1.4899 C   0  0  0  0  0  0  0  0  0  0  0  0
   -3.6769   -2.0067   -0.0035 C   0  0  0  0  0  0  0  0  0  0  0  0
   -4.3648   -0.0436   -1.4359 C   0  0  0  0  0  0  0  0  0  0  0  0
    0.6542    1.0988   -0.9269 C   0  0  0  0  0  0  0  0  0  0  0  0
   -0.1077    2.3329   -0.5999 C   0  0  0  0  0  0  0  0  0  0  0  0
    2.0343    0.9480   -0.9524 C   0  0  0  0  0  0  0  0  0  0  0  0
    3.0799    1.9158   -0.6422 C   0  0  0  0  0  0  0  0  0  0  0  0
    3.8434    2.4895   -1.6653 C   0  0  0  0  0  0  0  0  0  0  0  0
    4.8417    3.4170   -1.3623 C   0  0  0  0  0  0  0  0  0  0  0  0
    5.0767    3.7812   -0.0372 C   0  0  0  0  0  0  0  0  0  0  0  0
    4.3107    3.2242    0.9858 C   0  0  0  0  0  0  0  0  0  0  0  0
    3.3115    2.2973    0.6841 C   0  0  0  0  0  0  0  0  0  0  0  0
    7.3887   -1.5699    2.8470 H   0  0  0  0  0  0  0  0  0  0  0  0
    6.7878   -0.4812    4.2245 H   0  0  0  0  0  0  0  0  0  0  0  0
    4.9498    0.3028    2.8567 H   0  0  0  0  0  0  0  0  0  0  0  0
    6.2179   -1.5375    0.7009 H   0  0  0  0  0  0  0  0  0  0  0  0
    5.4324    0.0041    0.3876 H   0  0  0  0  0  0  0  0  0  0  0  0
    4.0705   -2.4690    1.5886 H   0  0  0  0  0  0  0  0  0  0  0  0
    3.2465   -0.9593    1.2384 H   0  0  0  0  0  0  0  0  0  0  0  0
    2.9478   -2.8150   -0.4668 H   0  0  0  0  0  0  0  0  0  0  0  0
    4.6607   -2.7153   -0.8411 H   0  0  0  0  0  0  0  0  0  0  0  0
    4.3296   -0.3014   -1.5833 H   0  0  0  0  0  0  0  0  0  0  0  0
    3.4671   -1.4883   -2.5456 H   0  0  0  0  0  0  0  0  0  0  0  0
   -1.5871    0.2015    0.4037 H   0  0  0  0  0  0  0  0  0  0  0  0
   -3.9029    1.3391    0.9057 H   0  0  0  0  0  0  0  0  0  0  0  0
   -3.4274   -0.0228    1.9070 H   0  0  0  0  0  0  0  0  0  0  0  0
   -5.8517    0.4522    2.1772 H   0  0  0  0  0  0  0  0  0  0  0  0
   -6.2515    1.4383   -0.0787 H   0  0  0  0  0  0  0  0  0  0  0  0
   -7.3951    0.1364    0.2409 H   0  0  0  0  0  0  0  0  0  0  0  0
   -6.4434   -0.0744   -2.0541 H   0  0  0  0  0  0  0  0  0  0  0  0
   -7.0428   -2.1585   -0.8231 H   0  0  0  0  0  0  0  0  0  0  0  0
   -5.6547   -2.4377   -1.8719 H   0  0  0  0  0  0  0  0  0  0  0  0
   -5.2708   -3.4232    0.3918 H   0  0  0  0  0  0  0  0  0  0  0  0
   -5.0752   -1.9108    2.3686 H   0  0  0  0  0  0  0  0  0  0  0  0
   -6.6995   -1.8445    1.6886 H   0  0  0  0  0  0  0  0  0  0  0  0
   -3.3179   -2.5772   -0.8684 H   0  0  0  0  0  0  0  0  0  0  0  0
   -3.0728   -2.3349    0.8525 H   0  0  0  0  0  0  0  0  0  0  0  0
   -4.0404   -0.5353   -2.3598 H   0  0  0  0  0  0  0  0  0  0  0  0
   -4.2515    1.0350   -1.6065 H   0  0  0  0  0  0  0  0  0  0  0  0
   -1.0212    2.4025   -1.1990 H   0  0  0  0  0  0  0  0  0  0  0  0
   -0.3841    2.3384    0.4591 H   0  0  0  0  0  0  0  0  0  0  0  0
    0.4814    3.2327   -0.8036 H   0  0  0  0  0  0  0  0  0  0  0  0
    3.6609    2.2218   -2.7037 H   0  0  0  0  0  0  0  0  0  0  0  0
    5.4330    3.8585   -2.1605 H   0  0  0  0  0  0  0  0  0  0  0  0
    5.8546    4.5035    0.1980 H   0  0  0  0  0  0  0  0  0  0  0  0
    4.4921    3.5113    2.0183 H   0  0  0  0  0  0  0  0  0  0  0  0
    2.7205    1.8683    1.4897 H   0  0  0  0  0  0  0  0  0  0  0  0
  1  2  2  0
  2  3  1  0
  3  4  1  0
  4  5  1  0
  5  6  1  0
  6  7  1  0
  7  8  1  0
  8  9  2  0
  9 10  1  0
 10 11  2  0
 10 12  1  0
 13 12  1  6
 13 14  1  0
 14 15  1  0
 15 16  1  0
 16 17  1  0
 17 18  1  0
 18 19  1  0
 19 20  1  0
 19 21  1  0
 17 22  1  0
  9 23  1  0
 23 24  1  0
 23 25  2  0
 25 26  1  0
 26 27  2  0
 27 28  1  0
 28 29  2  0
 29 30  1  0
 30 31  2  0
 25  7  1  0
 31 26  1  0
 21 13  1  0
 22 13  1  0
 20 15  1  0
  1 32  1  0
  1 33  1  0
  2 34  1  0
  3 35  1  0
  3 36  1  0
  4 37  1  0
  4 38  1  0
  5 39  1  0
  5 40  1  0
  6 41  1  0
  6 42  1  0
 12 43  1  0
 14 44  1  0
 14 45  1  0
 15 46  1  1
 16 47  1  0
 16 48  1  0
 17 49  1  6
 18 50  1  0
 18 51  1  0
 19 52  1  1
 20 53  1  0
 20 54  1  0
 21 55  1  0
 21 56  1  0
 22 57  1  0
 22 58  1  0
 24 59  1  0
 24 60  1  0
 24 61  1  0
 27 62  1  0
 28 63  1  0
 29 64  1  0
 30 65  1  0
 31 66  1  0
M  END
>  <_SMILES>  (5) 
C=CCCCCn1nc(C(=O)N[C@]23C[C@H]4C[C@H](C[C@H](C4)C2)C3)c(C)c1-c1ccccc1

$$$$

     RDKit          3D

 51 52  0  0  0  0  0  0  0  0999 V2000
   -2.2482    2.4153    1.9218 C   0  0  0  0  0  0  0  0  0  0  0  0
   -1.4516    1.5327    1.0309 C   0  0  0  0  0  0  0  0  0  0  0  0
   -1.8431    0.2583    0.5204 C   0  0  0  0  0  0  0  0  0  0  0  0
   -3.1070   -0.4653    0.7618 C   0  0  0  0  0  0  0  0  0  0  0  0
   -4.0003   -0.0434    1.4899 O   0  0  0  0  0  0  0  0  0  0  0  0
   -3.1693   -1.6715    0.0947 N   0  0  0  0  0  0  0  0  0  0  0  0
   -4.2085   -2.6528    0.3320 C   0  0  0  0  0  0  0  0  0  0  0  0
   -3.9017   -3.4689    1.5855 C   0  0  0  0  0  0  0  0  0  0  0  0
   -4.3574   -3.5617   -0.8831 C   0  0  0  0  0  0  0  0  0  0  0  0
   -0.8763   -0.2738   -0.2556 N   0  0  0  0  0  0  0  0  0  0  0  0
    0.1082    0.6458   -0.2372 N   0  0  0  0  0  0  0  0  0  0  0  0
    1.3161    0.3831   -1.0049 C   0  0  0  0  0  0  0  0  0  0  0  0
    2.3083   -0.4847   -0.2331 C   0  0  0  0  0  0  0  0  0  0  0  0
    3.6340   -0.6851   -0.9723 C   0  0  0  0  0  0  0  0  0  0  0  0
    3.5321   -1.3783   -2.3365 C   0  0  0  0  0  0  0  0  0  0  0  0
    2.9133   -2.7716   -2.2919 C   0  0  0  0  0  0  0  0  0  0  0  0
    3.6300   -3.6130   -1.4011 O   0  0  0  0  0  0  0  0  0  0  0  0
   -0.1817    1.7537    0.5199 C   0  0  0  0  0  0  0  0  0  0  0  0
    0.7186    2.8851    0.6978 C   0  0  0  0  0  0  0  0  0  0  0  0
    0.6029    4.0113   -0.1242 C   0  0  0  0  0  0  0  0  0  0  0  0
    1.4693    5.0933    0.0412 C   0  0  0  0  0  0  0  0  0  0  0  0
    2.4512    5.0557    1.0307 C   0  0  0  0  0  0  0  0  0  0  0  0
    2.5657    3.9392    1.8583 C   0  0  0  0  0  0  0  0  0  0  0  0
    1.6998    2.8567    1.6943 C   0  0  0  0  0  0  0  0  0  0  0  0
   -3.1932    2.6897    1.4421 H   0  0  0  0  0  0  0  0  0  0  0  0
   -1.7158    3.3407    2.1618 H   0  0  0  0  0  0  0  0  0  0  0  0
   -2.4705    1.9056    2.8648 H   0  0  0  0  0  0  0  0  0  0  0  0
   -2.2979   -1.9371   -0.3593 H   0  0  0  0  0  0  0  0  0  0  0  0
   -5.1518   -2.1163    0.4896 H   0  0  0  0  0  0  0  0  0  0  0  0
   -4.6894   -4.2054    1.7748 H   0  0  0  0  0  0  0  0  0  0  0  0
   -3.8262   -2.8225    2.4666 H   0  0  0  0  0  0  0  0  0  0  0  0
   -2.9499   -4.0029    1.4872 H   0  0  0  0  0  0  0  0  0  0  0  0
   -5.1614   -4.2893   -0.7321 H   0  0  0  0  0  0  0  0  0  0  0  0
   -4.5939   -2.9758   -1.7781 H   0  0  0  0  0  0  0  0  0  0  0  0
   -3.4314   -4.1118   -1.0850 H   0  0  0  0  0  0  0  0  0  0  0  0
    0.9981   -0.1059   -1.9327 H   0  0  0  0  0  0  0  0  0  0  0  0
    1.7641    1.3427   -1.2818 H   0  0  0  0  0  0  0  0  0  0  0  0
    2.5259   -0.0164    0.7349 H   0  0  0  0  0  0  0  0  0  0  0  0
    1.8560   -1.4553    0.0027 H   0  0  0  0  0  0  0  0  0  0  0  0
    4.1109    0.2926   -1.1163 H   0  0  0  0  0  0  0  0  0  0  0  0
    4.3085   -1.2596   -0.3255 H   0  0  0  0  0  0  0  0  0  0  0  0
    4.5507   -1.4621   -2.7363 H   0  0  0  0  0  0  0  0  0  0  0  0
    2.9708   -0.7526   -3.0389 H   0  0  0  0  0  0  0  0  0  0  0  0
    2.9312   -3.2280   -3.2870 H   0  0  0  0  0  0  0  0  0  0  0  0
    1.8701   -2.7340   -1.9655 H   0  0  0  0  0  0  0  0  0  0  0  0
    4.5413   -3.6844   -1.7330 H   0  0  0  0  0  0  0  0  0  0  0  0
   -0.1642    4.0521   -0.8942 H   0  0  0  0  0  0  0  0  0  0  0  0
    1.3748    5.9669   -0.5985 H   0  0  0  0  0  0  0  0  0  0  0  0
    3.1231    5.9002    1.1616 H   0  0  0  0  0  0  0  0  0  0  0  0
    3.3253    3.9137    2.6354 H   0  0  0  0  0  0  0  0  0  0  0  0
    1.7903    1.9948    2.3516 H   0  0  0  0  0  0  0  0  0  0  0  0
  1  2  1  0
  2  3  1  0
  3  4  1  0
  4  5  2  0
  4  6  1  0
  6  7  1  0
  7  8  1  0
  7  9  1  0
  3 10  2  0
 10 11  1  0
 11 12  1  0
 12 13  1  0
 13 14  1  0
 14 15  1  0
 15 16  1  0
 16 17  1  0
 11 18  1  0
 18 19  1  0
 19 20  2  0
 20 21  1  0
 21 22  2  0
 22 23  1  0
 23 24  2  0
 18  2  2  0
 24 19  1  0
  1 25  1  0
  1 26  1  0
  1 27  1  0
  6 28  1  0
  7 29  1  0
  8 30  1  0
  8 31  1  0
  8 32  1  0
  9 33  1  0
  9 34  1  0
  9 35  1  0
 12 36  1  0
 12 37  1  0
 13 38  1  0
 13 39  1  0
 14 40  1  0
 14 41  1  0
 15 42  1  0
 15 43  1  0
 16 44  1  0
 16 45  1  0
 17 46  1  0
 20 47  1  0
 21 48  1  0
 22 49  1  0
 23 50  1  0
 24 51  1  0
M  END
>  <_SMILES>  (6) 
Cc1c(C(=O)NC(C)C)nn(CCCCCO)c1-c1ccccc1

$$$$

     RDKit          3D

 43 47  0  0  0  0  0  0  0  0999 V2000
    0.3528   -0.7654    2.4721 O   0  0  0  0  0  0  0  0  0  0  0  0
    1.0035   -0.6000    1.4449 C   0  0  0  0  0  0  0  0  0  0  0  0
    0.4312   -0.2531    0.2306 N   0  0  0  0  0  0  0  0  0  0  0  0
   -1.0088   -0.1161   -0.0029 C   0  0  2  0  0  0  0  0  0  0  0  0
   -1.6432    0.9745    0.8975 C   0  0  0  0  0  0  0  0  0  0  0  0
   -3.1428    1.1292    0.5870 C   0  0  1  0  0  0  0  0  0  0  0  0
   -3.3180    1.5420   -0.8825 C   0  0  0  0  0  0  0  0  0  0  0  0
   -2.7148    0.4700   -1.8028 C   0  0  2  0  0  0  0  0  0  0  0  0
   -3.4264   -0.8700   -1.5589 C   0  0  0  0  0  0  0  0  0  0  0  0
   -3.2530   -1.2975   -0.0928 C   0  0  2  0  0  0  0  0  0  0  0  0
   -3.8496   -0.2164    0.8244 C   0  0  0  0  0  0  0  0  0  0  0  0
   -1.7538   -1.4554    0.2174 C   0  0  0  0  0  0  0  0  0  0  0  0
   -1.2203    0.3129   -1.4809 C   0  0  0  0  0  0  0  0  0  0  0  0
    2.4657   -0.7892    1.3850 C   0  0  0  0  0  0  0  0  0  0  0  0
    3.0732   -1.7577    2.0978 N   0  0  0  0  0  0  0  0  0  0  0  0
    4.3704   -1.6372    1.7876 N   0  0  0  0  0  0  0  0  0  0  0  0
    4.6479   -0.6408    0.8945 C   0  0  0  0  0  0  0  0  0  0  0  0
    5.8539   -0.2137    0.3298 C   0  0  0  0  0  0  0  0  0  0  0  0
    5.7974    0.8718   -0.5491 C   0  0  0  0  0  0  0  0  0  0  0  0
    4.5878    1.5015   -0.8385 C   0  0  0  0  0  0  0  0  0  0  0  0
    3.3919    1.0566   -0.2608 C   0  0  0  0  0  0  0  0  0  0  0  0
    3.4212   -0.0477    0.6161 C   0  0  0  0  0  0  0  0  0  0  0  0
    1.0160   -0.3988   -0.5821 H   0  0  0  0  0  0  0  0  0  0  0  0
   -1.5276    0.7280    1.9589 H   0  0  0  0  0  0  0  0  0  0  0  0
   -1.1292    1.9331    0.7475 H   0  0  0  0  0  0  0  0  0  0  0  0
   -3.5772    1.8949    1.2394 H   0  0  0  0  0  0  0  0  0  0  0  0
   -4.3826    1.6760   -1.1101 H   0  0  0  0  0  0  0  0  0  0  0  0
   -2.8301    2.5081   -1.0614 H   0  0  0  0  0  0  0  0  0  0  0  0
   -2.8386    0.7692   -2.8495 H   0  0  0  0  0  0  0  0  0  0  0  0
   -3.0164   -1.6393   -2.2247 H   0  0  0  0  0  0  0  0  0  0  0  0
   -4.4928   -0.7771   -1.7985 H   0  0  0  0  0  0  0  0  0  0  0  0
   -3.7666   -2.2505    0.0768 H   0  0  0  0  0  0  0  0  0  0  0  0
   -4.9243   -0.1131    0.6301 H   0  0  0  0  0  0  0  0  0  0  0  0
   -3.7434   -0.5154    1.8745 H   0  0  0  0  0  0  0  0  0  0  0  0
   -1.6363   -1.8029    1.2507 H   0  0  0  0  0  0  0  0  0  0  0  0
   -1.3210   -2.2373   -0.4203 H   0  0  0  0  0  0  0  0  0  0  0  0
   -0.7749   -0.4294   -2.1568 H   0  0  0  0  0  0  0  0  0  0  0  0
   -0.6965    1.2581   -1.6777 H   0  0  0  0  0  0  0  0  0  0  0  0
    5.0268   -2.2734    2.2257 H   0  0  0  0  0  0  0  0  0  0  0  0
    6.7982   -0.6945    0.5642 H   0  0  0  0  0  0  0  0  0  0  0  0
    6.7148    1.2373   -1.0066 H   0  0  0  0  0  0  0  0  0  0  0  0
    4.5729    2.3539   -1.5142 H   0  0  0  0  0  0  0  0  0  0  0  0
    2.4627    1.5747   -0.4813 H   0  0  0  0  0  0  0  0  0  0  0  0
  1  2  2  0
  2  3  1  0
  4  3  1  1
  4  5  1  0
  5  6  1  0
  6  7  1  0
  7  8  1  0
  8  9  1  0
  9 10  1  0
 10 11  1  0
 10 12  1  0
  8 13  1  0
  2 14  1  0
 14 15  2  0
 15 16  1  0
 16 17  1  0
 17 18  2  0
 18 19  1  0
 19 20  2  0
 20 21  1  0
 21 22  2  0
 12  4  1  0
 22 14  1  0
 13  4  1  0
 22 17  1  0
 11  6  1  0
  3 23  1  0
  5 24  1  0
  5 25  1  0
  6 26  1  1
  7 27  1  0
  7 28  1  0
  8 29  1  6
  9 30  1  0
  9 31  1  0
 10 32  1  6
 11 33  1  0
 11 34  1  0
 12 35  1  0
 12 36  1  0
 13 37  1  0
 13 38  1  0
 16 39  1  0
 18 40  1  0
 19 41  1  0
 20 42  1  0
 21 43  1  0
M  END
>  <_SMILES>  (7) 
O=C(N[C@]12C[C@H]3C[C@H](C[C@H](C3)C1)C2)c1n[nH]c2ccccc12

$$$$

     RDKit          3D

 43 47  0  0  0  0  0  0  0  0999 V2000
    0.2967   -1.9733    1.6923 O   0  0  0  0  0  0  0  0  0  0  0  0
    0.9760   -1.2739    0.9493 C   0  0  0  0  0  0  0  0  0  0  0  0
    0.4546   -0.2635    0.1739 N   0  0  0  0  0  0  0  0  0  0  0  0
   -0.9657    0.0953    0.1048 C   0  0  2  0  0  0  0  0  0  0  0  0
   -1.1114    1.3162   -0.8443 C   0  0  0  0  0  0  0  0  0  0  0  0
   -2.5817    1.7452   -0.9713 C   0  0  1  0  0  0  0  0  0  0  0  0
   -3.4028    0.5714   -1.5281 C   0  0  0  0  0  0  0  0  0  0  0  0
   -3.2944   -0.6387   -0.5867 C   0  0  2  0  0  0  0  0  0  0  0  0
   -3.8219   -0.2475    0.8044 C   0  0  0  0  0  0  0  0  0  0  0  0
   -3.0052    0.9271    1.3698 C   0  0  2  0  0  0  0  0  0  0  0  0
   -3.1164    2.1275    0.4172 C   0  0  0  0  0  0  0  0  0  0  0  0
   -1.5296    0.5063    1.4889 C   0  0  0  0  0  0  0  0  0  0  0  0
   -1.8194   -1.0617   -0.4694 C   0  0  0  0  0  0  0  0  0  0  0  0
    2.3820   -1.5176    0.7725 C   0  0  0  0  0  0  0  0  0  0  0  0
    2.9088   -2.7549    1.0474 N   0  0  0  0  0  0  0  0  0  0  0  0
    4.2154   -2.8990    0.7648 N   0  0  0  0  0  0  0  0  0  0  0  0
    4.6111   -1.6780    0.3766 C   0  0  0  0  0  0  0  0  0  0  0  0
    5.8903   -1.2301    0.0069 C   0  0  0  0  0  0  0  0  0  0  0  0
    5.9476    0.1417   -0.3166 C   0  0  0  0  0  0  0  0  0  0  0  0
    4.8143    1.0084   -0.2697 C   0  0  0  0  0  0  0  0  0  0  0  0
    3.5166    0.5886    0.0913 C   0  0  0  0  0  0  0  0  0  0  0  0
    3.4769   -0.7757    0.3887 C   0  0  0  0  0  0  0  0  0  0  0  0
    1.0328    0.0317   -0.6011 H   0  0  0  0  0  0  0  0  0  0  0  0
   -0.5099    2.1566   -0.4725 H   0  0  0  0  0  0  0  0  0  0  0  0
   -0.7128    1.0716   -1.8381 H   0  0  0  0  0  0  0  0  0  0  0  0
   -2.6597    2.6043   -1.6469 H   0  0  0  0  0  0  0  0  0  0  0  0
   -3.0417    0.3019   -2.5282 H   0  0  0  0  0  0  0  0  0  0  0  0
   -4.4532    0.8678   -1.6381 H   0  0  0  0  0  0  0  0  0  0  0  0
   -3.8857   -1.4705   -0.9856 H   0  0  0  0  0  0  0  0  0  0  0  0
   -3.7618   -1.1070    1.4833 H   0  0  0  0  0  0  0  0  0  0  0  0
   -4.8806    0.0316    0.7375 H   0  0  0  0  0  0  0  0  0  0  0  0
   -3.3906    1.2034    2.3576 H   0  0  0  0  0  0  0  0  0  0  0  0
   -2.5495    2.9772    0.8169 H   0  0  0  0  0  0  0  0  0  0  0  0
   -4.1621    2.4500    0.3407 H   0  0  0  0  0  0  0  0  0  0  0  0
   -0.9378    1.3310    1.9073 H   0  0  0  0  0  0  0  0  0  0  0  0
   -1.4556   -0.3185    2.2067 H   0  0  0  0  0  0  0  0  0  0  0  0
   -1.7511   -1.9515    0.1678 H   0  0  0  0  0  0  0  0  0  0  0  0
   -1.4370   -1.3599   -1.4545 H   0  0  0  0  0  0  0  0  0  0  0  0
    2.3979   -3.5561    1.4054 H   0  0  0  0  0  0  0  0  0  0  0  0
    6.7524   -1.8819   -0.0142 H   0  0  0  0  0  0  0  0  0  0  0  0
    6.9099    0.5646   -0.6063 H   0  0  0  0  0  0  0  0  0  0  0  0
    4.9663    2.0594   -0.5199 H   0  0  0  0  0  0  0  0  0  0  0  0
    2.6880    1.2805    0.1481 H   0  0  0  0  0  0  0  0  0  0  0  0
  1  2  2  0
  2  3  1  0
  4  3  1  1
  4  5  1  0
  5  6  1  0
  6  7  1  0
  7  8  1  0
  8  9  1  0
  9 10  1  0
 10 11  1  0
 10 12  1  0
  8 13  1  0
  2 14  1  0
 14 15  1  0
 15 16  1  0
 16 17  2  0
 17 18  1  0
 18 19  2  0
 19 20  1  0
 20 21  2  0
 21 22  1  0
 12  4  1  0
 22 14  2  0
 13  4  1  0
 22 17  1  0
 11  6  1  0
  3 23  1  0
  5 24  1  0
  5 25  1  0
  6 26  1  6
  7 27  1  0
  7 28  1  0
  8 29  1  6
  9 30  1  0
  9 31  1  0
 10 32  1  1
 11 33  1  0
 11 34  1  0
 12 35  1  0
 12 36  1  0
 13 37  1  0
 13 38  1  0
 15 39  1  0
 18 40  1  0
 19 41  1  0
 20 42  1  0
 21 43  1  0
M  END
>  <_SMILES>  (8) 
O=C(N[C@]12C[C@H]3C[C@H](C[C@H](C3)C1)C2)c1[nH]nc2ccccc12

$$$$

     RDKit          3D

 60 65  0  0  0  0  0  0  0  0999 V2000
   -2.0593   -2.8865   -0.6630 C   0  0  0  0  0  0  0  0  0  0  0  0
   -1.9839   -1.4809   -0.1871 C   0  0  0  0  0  0  0  0  0  0  0  0
   -0.7997   -0.7071    0.0019 C   0  0  0  0  0  0  0  0  0  0  0  0
    0.6000   -1.1179   -0.2330 C   0  0  0  0  0  0  0  0  0  0  0  0
    0.9118   -2.2318   -0.6400 O   0  0  0  0  0  0  0  0  0  0  0  0
    1.4986   -0.1130    0.0534 N   0  0  0  0  0  0  0  0  0  0  0  0
    2.9489   -0.1841   -0.0832 C   0  0  2  0  0  0  0  0  0  0  0  0
    3.5521    1.1776    0.3528 C   0  0  0  0  0  0  0  0  0  0  0  0
    5.0842    1.1660    0.2301 C   0  0  1  0  0  0  0  0  0  0  0  0
    5.6531    0.0546    1.1260 C   0  0  0  0  0  0  0  0  0  0  0  0
    5.0879   -1.3079    0.6946 C   0  0  2  0  0  0  0  0  0  0  0  0
    5.4708   -1.5751   -0.7710 C   0  0  0  0  0  0  0  0  0  0  0  0
    4.9045   -0.4680   -1.6763 C   0  0  2  0  0  0  0  0  0  0  0  0
    5.4706    0.8898   -1.2314 C   0  0  0  0  0  0  0  0  0  0  0  0
    3.3709   -0.4456   -1.5502 C   0  0  0  0  0  0  0  0  0  0  0  0
    3.5544   -1.2858    0.8214 C   0  0  0  0  0  0  0  0  0  0  0  0
   -1.0918    0.5313    0.4498 N   0  0  0  0  0  0  0  0  0  0  0  0
   -2.4394    0.5488    0.5275 N   0  0  0  0  0  0  0  0  0  0  0  0
   -3.1017    1.7726    0.9715 C   0  0  0  0  0  0  0  0  0  0  0  0
   -3.4795    2.6595   -0.1793 C   0  0  0  0  0  0  0  0  0  0  0  0
   -3.6340    4.1456    0.0291 C   0  0  0  0  0  0  0  0  0  0  0  0
   -2.4802    3.6174   -0.7778 C   0  0  0  0  0  0  0  0  0  0  0  0
   -3.0279   -0.6406    0.1689 C   0  0  0  0  0  0  0  0  0  0  0  0
   -4.4651   -0.8801    0.1704 C   0  0  0  0  0  0  0  0  0  0  0  0
   -5.1174   -1.2546    1.3502 C   0  0  0  0  0  0  0  0  0  0  0  0
   -6.4948   -1.4813    1.3493 C   0  0  0  0  0  0  0  0  0  0  0  0
   -7.2244   -1.3398    0.1694 C   0  0  0  0  0  0  0  0  0  0  0  0
   -6.5781   -0.9764   -1.0115 C   0  0  0  0  0  0  0  0  0  0  0  0
   -5.2008   -0.7498   -1.0124 C   0  0  0  0  0  0  0  0  0  0  0  0
   -1.6456   -2.9699   -1.6731 H   0  0  0  0  0  0  0  0  0  0  0  0
   -3.0900   -3.2526   -0.6935 H   0  0  0  0  0  0  0  0  0  0  0  0
   -1.4929   -3.5463    0.0020 H   0  0  0  0  0  0  0  0  0  0  0  0
    1.0563    0.7476    0.3703 H   0  0  0  0  0  0  0  0  0  0  0  0
    3.1380    1.9881   -0.2619 H   0  0  0  0  0  0  0  0  0  0  0  0
    3.2655    1.4029    1.3889 H   0  0  0  0  0  0  0  0  0  0  0  0
    5.4879    2.1356    0.5424 H   0  0  0  0  0  0  0  0  0  0  0  0
    5.3988    0.2510    2.1748 H   0  0  0  0  0  0  0  0  0  0  0  0
    6.7480    0.0440    1.0604 H   0  0  0  0  0  0  0  0  0  0  0  0
    5.4994   -2.0972    1.3338 H   0  0  0  0  0  0  0  0  0  0  0  0
    6.5624   -1.6171   -0.8704 H   0  0  0  0  0  0  0  0  0  0  0  0
    5.0846   -2.5519   -1.0872 H   0  0  0  0  0  0  0  0  0  0  0  0
    5.1860   -0.6619   -2.7174 H   0  0  0  0  0  0  0  0  0  0  0  0
    5.0851    1.6871   -1.8786 H   0  0  0  0  0  0  0  0  0  0  0  0
    6.5624    0.8936   -1.3375 H   0  0  0  0  0  0  0  0  0  0  0  0
    2.9533    0.3289   -2.2069 H   0  0  0  0  0  0  0  0  0  0  0  0
    2.9684   -1.4007   -1.9083 H   0  0  0  0  0  0  0  0  0  0  0  0
    3.2685   -1.1147    1.8676 H   0  0  0  0  0  0  0  0  0  0  0  0
    3.1594   -2.2730    0.5534 H   0  0  0  0  0  0  0  0  0  0  0  0
   -3.9909    1.4906    1.5437 H   0  0  0  0  0  0  0  0  0  0  0  0
   -2.4174    2.2757    1.6655 H   0  0  0  0  0  0  0  0  0  0  0  0
   -4.1827    2.1798   -0.8510 H   0  0  0  0  0  0  0  0  0  0  0  0
   -3.4169    4.5650    1.0050 H   0  0  0  0  0  0  0  0  0  0  0  0
   -4.4328    4.6522   -0.5014 H   0  0  0  0  0  0  0  0  0  0  0  0
   -1.4865    3.6649   -0.3454 H   0  0  0  0  0  0  0  0  0  0  0  0
   -2.4989    3.7604   -1.8525 H   0  0  0  0  0  0  0  0  0  0  0  0
   -4.5555   -1.3779    2.2732 H   0  0  0  0  0  0  0  0  0  0  0  0
   -6.9975   -1.7737    2.2676 H   0  0  0  0  0  0  0  0  0  0  0  0
   -8.2966   -1.5198    0.1686 H   0  0  0  0  0  0  0  0  0  0  0  0
   -7.1456   -0.8740   -1.9329 H   0  0  0  0  0  0  0  0  0  0  0  0
   -4.7040   -0.4735   -1.9397 H   0  0  0  0  0  0  0  0  0  0  0  0
  1  2  1  0
  2  3  1  0
  3  4  1  0
  4  5  2  0
  4  6  1  0
  7  6  1  6
  7  8  1  0
  8  9  1  0
  9 10  1  0
 10 11  1  0
 11 12  1  0
 12 13  1  0
 13 14  1  0
 13 15  1  0
 11 16  1  0
  3 17  2  0
 17 18  1  0
 18 19  1  0
 19 20  1  0
 20 21  1  0
 21 22  1  0
 18 23  1  0
 23 24  1  0
 24 25  2  0
 25 26  1  0
 26 27  2  0
 27 28  1  0
 28 29  2  0
 23  2  2  0
 29 24  1  0
 15  7  1  0
 22 20  1  0
 16  7  1  0
 14  9  1  0
  1 30  1  0
  1 31  1  0
  1 32  1  0
  6 33  1  0
  8 34  1  0
  8 35  1  0
  9 36  1  1
 10 37  1  0
 10 38  1  0
 11 39  1  1
 12 40  1  0
 12 41  1  0
 13 42  1  6
 14 43  1  0
 14 44  1  0
 15 45  1  0
 15 46  1  0
 16 47  1  0
 16 48  1  0
 19 49  1  0
 19 50  1  0
 20 51  1  0
 21 52  1  0
 21 53  1  0
 22 54  1  0
 22 55  1  0
 25 56  1  0
 26 57  1  0
 27 58  1  0
 28 59  1  0
 29 60  1  0
M  END
>  <_SMILES>  (9) 
Cc1c(C(=O)N[C@]23C[C@H]4C[C@H](C[C@H](C4)C2)C3)nn(CC2CC2)c1-c1ccccc1

$$$$

     RDKit          3D

 54 58  0  0  0  0  0  0  0  0999 V2000
    9.2388   -0.5405    0.9878 C   0  0  0  0  0  0  0  0  0  0  0  0
    8.0607   -0.7634    1.7516 O   0  0  0  0  0  0  0  0  0  0  0  0
    6.8725   -0.4051    1.1781 C   0  0  0  0  0  0  0  0  0  0  0  0
    5.7482   -0.6307    1.9736 C   0  0  0  0  0  0  0  0  0  0  0  0
    4.4688   -0.3104    1.5107 C   0  0  0  0  0  0  0  0  0  0  0  0
    4.2988    0.2435    0.2345 C   0  0  0  0  0  0  0  0  0  0  0  0
    2.9877    0.5621   -0.2213 N   0  0  0  0  0  0  0  0  0  0  0  0
    2.6191    1.1090   -1.4293 C   0  0  0  0  0  0  0  0  0  0  0  0
    1.2473    1.2523   -1.4208 C   0  0  0  0  0  0  0  0  0  0  0  0
    0.4075    1.8462   -2.4891 C   0  0  0  0  0  0  0  0  0  0  0  0
    0.8439    0.7384   -0.1509 C   0  0  0  0  0  0  0  0  0  0  0  0
   -0.5218    0.6275    0.4030 C   0  0  0  0  0  0  0  0  0  0  0  0
   -0.7831    0.8617    1.5782 O   0  0  0  0  0  0  0  0  0  0  0  0
   -1.4648    0.2092   -0.5220 N   0  0  0  0  0  0  0  0  0  0  0  0
   -2.8648   -0.0858   -0.2055 C   0  0  2  0  0  0  0  0  0  0  0  0
   -3.5832   -0.4895   -1.5223 C   0  0  0  0  0  0  0  0  0  0  0  0
   -5.0616   -0.8222   -1.2662 C   0  0  1  0  0  0  0  0  0  0  0  0
   -5.1505   -1.9846   -0.2650 C   0  0  0  0  0  0  0  0  0  0  0  0
   -4.4698   -1.5931    1.0562 C   0  0  2  0  0  0  0  0  0  0  0  0
   -5.1669   -0.3509    1.6369 C   0  0  0  0  0  0  0  0  0  0  0  0
   -5.0826    0.8183    0.6408 C   0  0  2  0  0  0  0  0  0  0  0  0
   -5.7605    0.4124   -0.6768 C   0  0  0  0  0  0  0  0  0  0  0  0
   -3.6035    1.1484    0.3722 C   0  0  0  0  0  0  0  0  0  0  0  0
   -2.9899   -1.2659    0.7888 C   0  0  0  0  0  0  0  0  0  0  0  0
    1.9078    0.3259    0.5567 N   0  0  0  0  0  0  0  0  0  0  0  0
    5.4266    0.4712   -0.5652 C   0  0  0  0  0  0  0  0  0  0  0  0
    6.7066    0.1469   -0.0923 C   0  0  0  0  0  0  0  0  0  0  0  0
    9.3752    0.5247    0.7738 H   0  0  0  0  0  0  0  0  0  0  0  0
   10.0930   -0.8717    1.5861 H   0  0  0  0  0  0  0  0  0  0  0  0
    9.2290   -1.1314    0.0659 H   0  0  0  0  0  0  0  0  0  0  0  0
    5.8663   -1.0591    2.9663 H   0  0  0  0  0  0  0  0  0  0  0  0
    3.6156   -0.4978    2.1610 H   0  0  0  0  0  0  0  0  0  0  0  0
    3.3433    1.3712   -2.1849 H   0  0  0  0  0  0  0  0  0  0  0  0
   -0.0604    1.0601   -3.0897 H   0  0  0  0  0  0  0  0  0  0  0  0
   -0.3793    2.4775   -2.0643 H   0  0  0  0  0  0  0  0  0  0  0  0
    1.0079    2.4709   -3.1587 H   0  0  0  0  0  0  0  0  0  0  0  0
   -1.0879   -0.2094   -1.3617 H   0  0  0  0  0  0  0  0  0  0  0  0
   -3.0842   -1.3577   -1.9737 H   0  0  0  0  0  0  0  0  0  0  0  0
   -3.5071    0.3228   -2.2577 H   0  0  0  0  0  0  0  0  0  0  0  0
   -5.5454   -1.1069   -2.2072 H   0  0  0  0  0  0  0  0  0  0  0  0
   -6.2009   -2.2431   -0.0831 H   0  0  0  0  0  0  0  0  0  0  0  0
   -4.6708   -2.8779   -0.6835 H   0  0  0  0  0  0  0  0  0  0  0  0
   -4.5408   -2.4232    1.7680 H   0  0  0  0  0  0  0  0  0  0  0  0
   -6.2171   -0.5800    1.8558 H   0  0  0  0  0  0  0  0  0  0  0  0
   -4.6982   -0.0681    2.5875 H   0  0  0  0  0  0  0  0  0  0  0  0
   -5.5863    1.6970    1.0591 H   0  0  0  0  0  0  0  0  0  0  0  0
   -6.8213    0.1949   -0.5015 H   0  0  0  0  0  0  0  0  0  0  0  0
   -5.7198    1.2437   -1.3913 H   0  0  0  0  0  0  0  0  0  0  0  0
   -3.5291    1.9930   -0.3254 H   0  0  0  0  0  0  0  0  0  0  0  0
   -3.1426    1.4832    1.3083 H   0  0  0  0  0  0  0  0  0  0  0  0
   -2.4974   -1.0299    1.7397 H   0  0  0  0  0  0  0  0  0  0  0  0
   -2.4780   -2.1515    0.3899 H   0  0  0  0  0  0  0  0  0  0  0  0
    5.3520    0.8986   -1.5599 H   0  0  0  0  0  0  0  0  0  0  0  0
    7.5529    0.3392   -0.7436 H   0  0  0  0  0  0  0  0  0  0  0  0
  1  2  1  0
  2  3  1  0
  3  4  1  0
  4  5  2  0
  5  6  1  0
  6  7  1  0
  7  8  1  0
  8  9  2  0
  9 10  1  0
  9 11  1  0
 11 12  1  0
 12 13  2  0
 12 14  1  0
 15 14  1  6
 15 16  1  0
 16 17  1  0
 17 18  1  0
 18 19  1  0
 19 20  1  0
 20 21  1  0
 21 22  1  0
 21 23  1  0
 19 24  1  0
 11 25  2  0
  6 26  2  0
 26 27  1  0
 27  3  2  0
 25  7  1  0
 23 15  1  0
 24 15  1  0
 22 17  1  0
  1 28  1  0
  1 29  1  0
  1 30  1  0
  4 31  1  0
  5 32  1  0
  8 33  1  0
 10 34  1  0
 10 35  1  0
 10 36  1  0
 14 37  1  0
 16 38  1  0
 16 39  1  0
 17 40  1  6
 18 41  1  0
 18 42  1  0
 19 43  1  1
 20 44  1  0
 20 45  1  0
 21 46  1  1
 22 47  1  0
 22 48  1  0
 23 49  1  0
 23 50  1  0
 24 51  1  0
 24 52  1  0
 26 53  1  0
 27 54  1  0
M  END
>  <_SMILES>  (10) 
COc1ccc(-n2cc(C)c(C(=O)N[C@]34C[C@H]5C[C@H](C[C@H](C5)C3)C4)n2)cc1

$$$$

     RDKit          3D

 53 57  0  0  0  0  0  0  0  0999 V2000
    2.6116    1.0170   -1.9453 C   0  0  0  0  0  0  0  0  0  0  0  0
    2.4595    0.3853   -0.6078 C   0  0  0  0  0  0  0  0  0  0  0  0
    1.2278    0.0624    0.0383 C   0  0  0  0  0  0  0  0  0  0  0  0
   -0.1459    0.2977   -0.4532 C   0  0  0  0  0  0  0  0  0  0  0  0
   -0.3887    0.8515   -1.5199 O   0  0  0  0  0  0  0  0  0  0  0  0
   -1.1054   -0.1685    0.4191 N   0  0  0  0  0  0  0  0  0  0  0  0
   -2.5505   -0.0965    0.2348 C   0  0  2  0  0  0  0  0  0  0  0  0
   -3.0403    1.3692    0.1326 C   0  0  0  0  0  0  0  0  0  0  0  0
   -4.5715    1.4192   -0.0131 C   0  0  1  0  0  0  0  0  0  0  0  0
   -4.9851    0.6472   -1.2776 C   0  0  0  0  0  0  0  0  0  0  0  0
   -4.5349   -0.8199   -1.1731 C   0  0  2  0  0  0  0  0  0  0  0  0
   -5.1840   -1.4627    0.0627 C   0  0  0  0  0  0  0  0  0  0  0  0
   -4.7676   -0.7004    1.3305 C   0  0  2  0  0  0  0  0  0  0  0  0
   -5.2205    0.7636    1.2161 C   0  0  0  0  0  0  0  0  0  0  0  0
   -3.2372   -0.7455    1.4659 C   0  0  0  0  0  0  0  0  0  0  0  0
   -3.0036   -0.8706   -1.0278 C   0  0  0  0  0  0  0  0  0  0  0  0
    1.4451   -0.5223    1.2332 N   0  0  0  0  0  0  0  0  0  0  0  0
    2.7857   -0.5657    1.3456 N   0  0  0  0  0  0  0  0  0  0  0  0
    3.3531   -1.1178    2.5559 C   0  0  0  0  0  0  0  0  0  0  0  0
    3.4540   -0.0272    0.2709 C   0  0  0  0  0  0  0  0  0  0  0  0
    4.9102    0.0631    0.1573 C   0  0  0  0  0  0  0  0  0  0  0  0
    5.5218    1.3166    0.0089 C   0  0  0  0  0  0  0  0  0  0  0  0
    6.9106    1.4137   -0.1090 C   0  0  0  0  0  0  0  0  0  0  0  0
    7.6865    0.2594   -0.0804 C   0  0  0  0  0  0  0  0  0  0  0  0
    9.0172    0.3583   -0.1925 F   0  0  0  0  0  0  0  0  0  0  0  0
    7.1046   -0.9915    0.0644 C   0  0  0  0  0  0  0  0  0  0  0  0
    5.7216   -1.0808    0.1812 C   0  0  0  0  0  0  0  0  0  0  0  0
    5.1719   -2.2964    0.3246 F   0  0  0  0  0  0  0  0  0  0  0  0
    2.0184    0.4823   -2.6940 H   0  0  0  0  0  0  0  0  0  0  0  0
    3.6505    1.0051   -2.2877 H   0  0  0  0  0  0  0  0  0  0  0  0
    2.2772    2.0588   -1.9133 H   0  0  0  0  0  0  0  0  0  0  0  0
   -0.7180   -0.5993    1.2565 H   0  0  0  0  0  0  0  0  0  0  0  0
   -2.5829    1.8755   -0.7257 H   0  0  0  0  0  0  0  0  0  0  0  0
   -2.7311    1.9335    1.0222 H   0  0  0  0  0  0  0  0  0  0  0  0
   -4.9005    2.4614   -0.0923 H   0  0  0  0  0  0  0  0  0  0  0  0
   -4.5390    1.1139   -2.1644 H   0  0  0  0  0  0  0  0  0  0  0  0
   -6.0735    0.6958   -1.4059 H   0  0  0  0  0  0  0  0  0  0  0  0
   -4.8379   -1.3645   -2.0744 H   0  0  0  0  0  0  0  0  0  0  0  0
   -4.8818   -2.5142    0.1409 H   0  0  0  0  0  0  0  0  0  0  0  0
   -6.2762   -1.4520   -0.0393 H   0  0  0  0  0  0  0  0  0  0  0  0
   -5.2308   -1.1632    2.2090 H   0  0  0  0  0  0  0  0  0  0  0  0
   -4.9446    1.3138    2.1240 H   0  0  0  0  0  0  0  0  0  0  0  0
   -6.3133    0.8126    1.1339 H   0  0  0  0  0  0  0  0  0  0  0  0
   -2.9318   -0.2276    2.3851 H   0  0  0  0  0  0  0  0  0  0  0  0
   -2.9063   -1.7868    1.5774 H   0  0  0  0  0  0  0  0  0  0  0  0
   -2.6681   -1.9145   -0.9713 H   0  0  0  0  0  0  0  0  0  0  0  0
   -2.5446   -0.4496   -1.9302 H   0  0  0  0  0  0  0  0  0  0  0  0
    2.6269   -1.0205    3.3679 H   0  0  0  0  0  0  0  0  0  0  0  0
    3.5758   -2.1722    2.3774 H   0  0  0  0  0  0  0  0  0  0  0  0
    4.2579   -0.5660    2.8199 H   0  0  0  0  0  0  0  0  0  0  0  0
    4.9201    2.2233   -0.0135 H   0  0  0  0  0  0  0  0  0  0  0  0
    7.3904    2.3812   -0.2241 H   0  0  0  0  0  0  0  0  0  0  0  0
    7.7173   -1.8849    0.0837 H   0  0  0  0  0  0  0  0  0  0  0  0
  1  2  1  0
  2  3  1  0
  3  4  1  0
  4  5  2  0
  4  6  1  0
  7  6  1  1
  7  8  1  0
  8  9  1  0
  9 10  1  0
 10 11  1  0
 11 12  1  0
 12 13  1  0
 13 14  1  0
 13 15  1  0
 11 16  1  0
  3 17  2  0
 17 18  1  0
 18 19  1  0
 18 20  1  0
 20 21  1  0
 21 22  1  0
 22 23  2  0
 23 24  1  0
 24 25  1  0
 24 26  2  0
 26 27  1  0
 27 28  1  0
 20  2  2  0
 27 21  2  0
 15  7  1  0
 16  7  1  0
 14  9  1  0
  1 29  1  0
  1 30  1  0
  1 31  1  0
  6 32  1  0
  8 33  1  0
  8 34  1  0
  9 35  1  6
 10 36  1  0
 10 37  1  0
 11 38  1  6
 12 39  1  0
 12 40  1  0
 13 41  1  1
 14 42  1  0
 14 43  1  0
 15 44  1  0
 15 45  1  0
 16 46  1  0
 16 47  1  0
 19 48  1  0
 19 49  1  0
 19 50  1  0
 22 51  1  0
 23 52  1  0
 26 53  1  0
M  END
>  <_SMILES>  (11) 
Cc1c(C(=O)N[C@]23C[C@H]4C[C@H](C[C@H](C4)C2)C3)nn(C)c1-c1ccc(F)cc1F

$$$$

     RDKit          3D

 66 70  0  0  0  0  0  0  0  0999 V2000
   -6.3964   -1.6034   -4.5512 C   0  0  0  0  0  0  0  0  0  0  0  0
   -6.3134   -1.9724   -3.1798 O   0  0  0  0  0  0  0  0  0  0  0  0
   -4.9947   -1.8182   -2.6440 C   0  0  0  0  0  0  0  0  0  0  0  0
   -4.7301   -0.3806   -2.2148 C   0  0  0  0  0  0  0  0  0  0  0  0
   -3.4360   -0.2419   -1.5753 N   0  0  0  0  0  0  0  0  0  0  0  0
   -2.3448   -0.1910   -2.3558 N   0  0  0  0  0  0  0  0  0  0  0  0
   -1.3123   -0.0669   -1.5041 C   0  0  0  0  0  0  0  0  0  0  0  0
    0.0709    0.0333   -2.0137 C   0  0  0  0  0  0  0  0  0  0  0  0
    0.4833   -0.6180   -2.9704 O   0  0  0  0  0  0  0  0  0  0  0  0
    0.8583    0.9657   -1.3546 N   0  0  0  0  0  0  0  0  0  0  0  0
    2.1570    1.3447   -1.8715 C   0  0  0  0  0  0  0  0  0  0  0  0
    3.2708    0.3423   -1.5491 C   0  0  0  0  0  0  0  0  0  0  0  0
    3.8964    0.4021   -0.1302 C   0  0  2  0  0  0  0  0  0  0  0  0
    2.8552    0.1695    0.9901 C   0  0  0  0  0  0  0  0  0  0  0  0
    3.5273    0.1717    2.3753 C   0  0  1  0  0  0  0  0  0  0  0  0
    4.5807   -0.9447    2.4343 C   0  0  0  0  0  0  0  0  0  0  0  0
    5.6463   -0.7168    1.3516 C   0  0  2  0  0  0  0  0  0  0  0  0
    6.3233    0.6436    1.5779 C   0  0  0  0  0  0  0  0  0  0  0  0
    5.2769    1.7668    1.5154 C   0  0  2  0  0  0  0  0  0  0  0  0
    4.2136    1.5291    2.6003 C   0  0  0  0  0  0  0  0  0  0  0  0
    4.6003    1.7594    0.1320 C   0  0  0  0  0  0  0  0  0  0  0  0
    4.9702   -0.7195   -0.0284 C   0  0  0  0  0  0  0  0  0  0  0  0
   -1.7773   -0.0452   -0.1481 C   0  0  0  0  0  0  0  0  0  0  0  0
   -0.9633    0.0249    1.0925 C   0  0  0  0  0  0  0  0  0  0  0  0
   -3.1588   -0.1451   -0.2356 C   0  0  0  0  0  0  0  0  0  0  0  0
   -4.1659   -0.1745    0.8169 C   0  0  0  0  0  0  0  0  0  0  0  0
   -4.6164    1.0197    1.3901 C   0  0  0  0  0  0  0  0  0  0  0  0
   -5.5832    0.9944    2.3969 C   0  0  0  0  0  0  0  0  0  0  0  0
   -6.1002   -0.2235    2.8369 C   0  0  0  0  0  0  0  0  0  0  0  0
   -5.6498   -1.4171    2.2742 C   0  0  0  0  0  0  0  0  0  0  0  0
   -4.6829   -1.3938    1.2677 C   0  0  0  0  0  0  0  0  0  0  0  0
   -6.1597   -0.5448   -4.6868 H   0  0  0  0  0  0  0  0  0  0  0  0
   -5.7260   -2.2215   -5.1560 H   0  0  0  0  0  0  0  0  0  0  0  0
   -7.4225   -1.7732   -4.8886 H   0  0  0  0  0  0  0  0  0  0  0  0
   -4.9343   -2.4776   -1.7710 H   0  0  0  0  0  0  0  0  0  0  0  0
   -4.2456   -2.1777   -3.3603 H   0  0  0  0  0  0  0  0  0  0  0  0
   -4.7447    0.3006   -3.0732 H   0  0  0  0  0  0  0  0  0  0  0  0
   -5.5115   -0.0280   -1.5340 H   0  0  0  0  0  0  0  0  0  0  0  0
    0.3812    1.6184   -0.7486 H   0  0  0  0  0  0  0  0  0  0  0  0
    2.0644    1.4327   -2.9608 H   0  0  0  0  0  0  0  0  0  0  0  0
    2.3850    2.3433   -1.4905 H   0  0  0  0  0  0  0  0  0  0  0  0
    4.0780    0.5141   -2.2745 H   0  0  0  0  0  0  0  0  0  0  0  0
    2.9081   -0.6763   -1.7382 H   0  0  0  0  0  0  0  0  0  0  0  0
    2.3404   -0.7861    0.8322 H   0  0  0  0  0  0  0  0  0  0  0  0
    2.0924    0.9558    0.9760 H   0  0  0  0  0  0  0  0  0  0  0  0
    2.7713    0.0073    3.1513 H   0  0  0  0  0  0  0  0  0  0  0  0
    5.0512   -0.9644    3.4250 H   0  0  0  0  0  0  0  0  0  0  0  0
    4.1013   -1.9208    2.2901 H   0  0  0  0  0  0  0  0  0  0  0  0
    6.3960   -1.5146    1.3974 H   0  0  0  0  0  0  0  0  0  0  0  0
    7.0971    0.8091    0.8183 H   0  0  0  0  0  0  0  0  0  0  0  0
    6.8266    0.6540    2.5525 H   0  0  0  0  0  0  0  0  0  0  0  0
    5.7639    2.7342    1.6817 H   0  0  0  0  0  0  0  0  0  0  0  0
    4.6793    1.5534    3.5932 H   0  0  0  0  0  0  0  0  0  0  0  0
    3.4689    2.3343    2.5786 H   0  0  0  0  0  0  0  0  0  0  0  0
    3.8808    2.5851    0.0897 H   0  0  0  0  0  0  0  0  0  0  0  0
    5.3503    1.9530   -0.6455 H   0  0  0  0  0  0  0  0  0  0  0  0
    5.7315   -0.5850   -0.8080 H   0  0  0  0  0  0  0  0  0  0  0  0
    4.5092   -1.6999   -0.2065 H   0  0  0  0  0  0  0  0  0  0  0  0
   -1.5306   -0.3048    1.9686 H   0  0  0  0  0  0  0  0  0  0  0  0
   -0.0864   -0.6237    1.0133 H   0  0  0  0  0  0  0  0  0  0  0  0
   -0.6295    1.0508    1.2750 H   0  0  0  0  0  0  0  0  0  0  0  0
   -4.2198    1.9747    1.0541 H   0  0  0  0  0  0  0  0  0  0  0  0
   -5.9332    1.9243    2.8376 H   0  0  0  0  0  0  0  0  0  0  0  0
   -6.8536   -0.2430    3.6205 H   0  0  0  0  0  0  0  0  0  0  0  0
   -6.0506   -2.3667    2.6198 H   0  0  0  0  0  0  0  0  0  0  0  0
   -4.3337   -2.3318    0.8422 H   0  0  0  0  0  0  0  0  0  0  0  0
  1  2  1  0
  2  3  1  0
  3  4  1  0
  4  5  1  0
  5  6  1  0
  6  7  2  0
  7  8  1  0
  8  9  2  0
  8 10  1  0
 10 11  1  0
 11 12  1  0
 13 12  1  6
 13 14  1  0
 14 15  1  0
 15 16  1  0
 16 17  1  0
 17 18  1  0
 18 19  1  0
 19 20  1  0
 19 21  1  0
 17 22  1  0
  7 23  1  0
 23 24  1  0
 23 25  2  0
 25 26  1  0
 26 27  2  0
 27 28  1  0
 28 29  2  0
 29 30  1  0
 30 31  2  0
 25  5  1  0
 31 26  1  0
 21 13  1  0
 22 13  1  0
 20 15  1  0
  1 32  1  0
  1 33  1  0
  1 34  1  0
  3 35  1  0
  3 36  1  0
  4 37  1  0
  4 38  1  0
 10 39  1  0
 11 40  1  0
 11 41  1  0
 12 42  1  0
 12 43  1  0
 14 44  1  0
 14 45  1  0
 15 46  1  1
 16 47  1  0
 16 48  1  0
 17 49  1  6
 18 50  1  0
 18 51  1  0
 19 52  1  1
 20 53  1  0
 20 54  1  0
 21 55  1  0
 21 56  1  0
 22 57  1  0
 22 58  1  0
 24 59  1  0
 24 60  1  0
 24 61  1  0
 27 62  1  0
 28 63  1  0
 29 64  1  0
 30 65  1  0
 31 66  1  0
M  END
>  <_SMILES>  (12) 
COCCn1nc(C(=O)NCC[C@]23C[C@H]4C[C@H](C[C@H](C4)C2)C3)c(C)c1-c1ccccc1

$$$$

     RDKit          3D

 76 81  0  0  0  0  0  0  0  0999 V2000
   -1.4005    0.6378    2.7405 C   0  0  0  0  0  0  0  0  0  0  0  0
   -0.2002    0.5219    1.8689 C   0  0  0  0  0  0  0  0  0  0  0  0
   -0.1634    0.3318    0.4471 C   0  0  0  0  0  0  0  0  0  0  0  0
   -1.2851    0.2163   -0.5101 C   0  0  0  0  0  0  0  0  0  0  0  0
   -1.2428   -0.5436   -1.4729 O   0  0  0  0  0  0  0  0  0  0  0  0
   -2.3525    1.0523   -0.2370 N   0  0  0  0  0  0  0  0  0  0  0  0
   -3.5423    1.1913   -1.0831 C   0  0  2  0  0  0  0  0  0  0  0  0
   -4.2989   -0.1508   -1.2443 C   0  0  0  0  0  0  0  0  0  0  0  0
   -5.5680    0.0453   -2.0921 C   0  0  2  0  0  0  0  0  0  0  0  0
   -5.1700    0.5862   -3.4753 C   0  0  0  0  0  0  0  0  0  0  0  0
   -4.4581    1.9449   -3.3323 C   0  0  2  0  0  0  0  0  0  0  0  0
   -3.1842    1.7431   -2.4853 C   0  0  0  0  0  0  0  0  0  0  0  0
   -5.3655    2.9743   -2.6181 C   0  0  1  0  0  0  0  0  0  0  0  0
   -6.5636    3.3988   -3.4703 C   0  0  0  0  0  0  0  0  0  0  0  0
   -5.7820    2.4062   -1.2409 C   0  0  1  0  0  0  0  0  0  0  0  0
   -6.4938    1.0506   -1.3914 C   0  0  0  0  0  0  0  0  0  0  0  0
   -4.5097    2.1957   -0.3977 C   0  0  0  0  0  0  0  0  0  0  0  0
    1.1071    0.2335    0.0179 N   0  0  0  0  0  0  0  0  0  0  0  0
    1.8552    0.3512    1.1225 N   0  0  0  0  0  0  0  0  0  0  0  0
    3.2917    0.1929    0.9702 C   0  0  0  0  0  0  0  0  0  0  0  0
    3.6395   -1.2023    0.4442 C   0  0  0  0  0  0  0  0  0  0  0  0
    5.1123   -1.3038    0.0844 C   0  0  0  0  0  0  0  0  0  0  0  0
    5.3850   -2.5906   -0.6678 N   0  0  0  0  0  0  0  0  0  0  0  0
    6.7529   -2.5563   -1.3522 C   0  0  0  0  0  0  0  0  0  0  0  0
    6.9836   -3.8635   -2.1168 C   0  0  0  0  0  0  0  0  0  0  0  0
    6.8861   -4.9898   -1.2397 O   0  0  0  0  0  0  0  0  0  0  0  0
    5.5864   -5.0870   -0.6487 C   0  0  0  0  0  0  0  0  0  0  0  0
    5.2727   -3.8468    0.1963 C   0  0  0  0  0  0  0  0  0  0  0  0
    1.1305    0.5448    2.2670 C   0  0  0  0  0  0  0  0  0  0  0  0
    1.7163    0.6893    3.5930 C   0  0  0  0  0  0  0  0  0  0  0  0
    1.7359   -0.3964    4.4759 C   0  0  0  0  0  0  0  0  0  0  0  0
    2.3076   -0.2609    5.7420 C   0  0  0  0  0  0  0  0  0  0  0  0
    2.8593    0.9590    6.1313 C   0  0  0  0  0  0  0  0  0  0  0  0
    2.8358    2.0463    5.2587 C   0  0  0  0  0  0  0  0  0  0  0  0
    2.2640    1.9135    3.9923 C   0  0  0  0  0  0  0  0  0  0  0  0
   -2.2017   -0.0225    2.3938 H   0  0  0  0  0  0  0  0  0  0  0  0
   -1.1769    0.3594    3.7749 H   0  0  0  0  0  0  0  0  0  0  0  0
   -1.7709    1.6677    2.7404 H   0  0  0  0  0  0  0  0  0  0  0  0
   -2.1699    1.8016    0.4167 H   0  0  0  0  0  0  0  0  0  0  0  0
   -3.6671   -0.9065   -1.7244 H   0  0  0  0  0  0  0  0  0  0  0  0
   -4.5648   -0.5553   -0.2588 H   0  0  0  0  0  0  0  0  0  0  0  0
   -6.0846   -0.9145   -2.2055 H   0  0  0  0  0  0  0  0  0  0  0  0
   -6.0565    0.6793   -4.1122 H   0  0  0  0  0  0  0  0  0  0  0  0
   -4.5052   -0.1291   -3.9759 H   0  0  0  0  0  0  0  0  0  0  0  0
   -4.1752    2.3180   -4.3236 H   0  0  0  0  0  0  0  0  0  0  0  0
   -2.6438    2.6941   -2.3900 H   0  0  0  0  0  0  0  0  0  0  0  0
   -2.5076    1.0599   -3.0127 H   0  0  0  0  0  0  0  0  0  0  0  0
   -4.7776    3.8875   -2.4474 H   0  0  0  0  0  0  0  0  0  0  0  0
   -7.1535    4.1583   -2.9460 H   0  0  0  0  0  0  0  0  0  0  0  0
   -7.2328    2.5698   -3.7134 H   0  0  0  0  0  0  0  0  0  0  0  0
   -6.2227    3.8372   -4.4144 H   0  0  0  0  0  0  0  0  0  0  0  0
   -6.4430    3.1137   -0.7269 H   0  0  0  0  0  0  0  0  0  0  0  0
   -7.4263    1.1621   -1.9554 H   0  0  0  0  0  0  0  0  0  0  0  0
   -6.7761    0.6681   -0.4024 H   0  0  0  0  0  0  0  0  0  0  0  0
   -4.7827    1.8330    0.6026 H   0  0  0  0  0  0  0  0  0  0  0  0
   -4.0063    3.1598   -0.2439 H   0  0  0  0  0  0  0  0  0  0  0  0
    3.6165    0.9733    0.2718 H   0  0  0  0  0  0  0  0  0  0  0  0
    3.7844    0.3749    1.9291 H   0  0  0  0  0  0  0  0  0  0  0  0
    3.3727   -1.9444    1.2058 H   0  0  0  0  0  0  0  0  0  0  0  0
    3.0374   -1.4349   -0.4430 H   0  0  0  0  0  0  0  0  0  0  0  0
    5.7592   -1.2858    0.9680 H   0  0  0  0  0  0  0  0  0  0  0  0
    5.3953   -0.4851   -0.5863 H   0  0  0  0  0  0  0  0  0  0  0  0
    4.6809   -2.6687   -1.4164 H   0  0  0  0  0  0  0  0  0  0  0  0
    6.7612   -1.6971   -2.0295 H   0  0  0  0  0  0  0  0  0  0  0  0
    7.4954   -2.4246   -0.5578 H   0  0  0  0  0  0  0  0  0  0  0  0
    7.9883   -3.8650   -2.5507 H   0  0  0  0  0  0  0  0  0  0  0  0
    6.2649   -3.9772   -2.9368 H   0  0  0  0  0  0  0  0  0  0  0  0
    4.8383   -5.2293   -1.4375 H   0  0  0  0  0  0  0  0  0  0  0  0
    5.5751   -5.9782   -0.0136 H   0  0  0  0  0  0  0  0  0  0  0  0
    5.9935   -3.7304    1.0125 H   0  0  0  0  0  0  0  0  0  0  0  0
    4.2543   -3.8982    0.5886 H   0  0  0  0  0  0  0  0  0  0  0  0
    1.2945   -1.3483    4.1897 H   0  0  0  0  0  0  0  0  0  0  0  0
    2.3108   -1.1016    6.4319 H   0  0  0  0  0  0  0  0  0  0  0  0
    3.2940    1.0676    7.1226 H   0  0  0  0  0  0  0  0  0  0  0  0
    3.2511    3.0017    5.5715 H   0  0  0  0  0  0  0  0  0  0  0  0
    2.2365    2.7747    3.3283 H   0  0  0  0  0  0  0  0  0  0  0  0
  1  2  1  0
  2  3  1  0
  3  4  1  0
  4  5  2  0
  4  6  1  0
  7  6  1  1
  7  8  1  0
  8  9  1  0
  9 10  1  0
 10 11  1  0
 11 12  1  0
 11 13  1  0
 13 14  1  0
 13 15  1  0
 15 16  1  0
 15 17  1  0
  3 18  2  0
 18 19  1  0
 19 20  1  0
 20 21  1  0
 21 22  1  0
 22 23  1  0
 23 24  1  0
 24 25  1  0
 25 26  1  0
 26 27  1  0
 27 28  1  0
 19 29  1  0
 29 30  1  0
 30 31  2  0
 31 32  1  0
 32 33  2  0
 33 34  1  0
 34 35  2  0
 29  2  2  0
 35 30  1  0
 12  7  1  0
 28 23  1  0
 17  7  1  0
 16  9  1  0
  1 36  1  0
  1 37  1  0
  1 38  1  0
  6 39  1  0
  8 40  1  0
  8 41  1  0
  9 42  1  6
 10 43  1  0
 10 44  1  0
 11 45  1  6
 12 46  1  0
 12 47  1  0
 13 48  1  1
 14 49  1  0
 14 50  1  0
 14 51  1  0
 15 52  1  1
 16 53  1  0
 16 54  1  0
 17 55  1  0
 17 56  1  0
 20 57  1  0
 20 58  1  0
 21 59  1  0
 21 60  1  0
 22 61  1  0
 22 62  1  0
 23 63  1  0
 24 64  1  0
 24 65  1  0
 25 66  1  0
 25 67  1  0
 27 68  1  0
 27 69  1  0
 28 70  1  0
 28 71  1  0
 31 72  1  0
 32 73  1  0
 33 74  1  0
 34 75  1  0
 35 76  1  0
M  CHG  1  23   1
M  END
>  <_SMILES>  (13) 
Cc1c(C(=O)N[C@]23C[C@@H]4C[C@H](C2)[C@@H](C)[C@@H](C4)C3)nn(CCC[NH+]2CCOCC2)c1-c1ccccc1

$$$$

     RDKit          3D

 76 81  0  0  0  0  0  0  0  0999 V2000
    0.5846   -2.9419   -0.4724 C   0  0  0  0  0  0  0  0  0  0  0  0
   -0.5420   -2.0183   -0.7756 C   0  0  0  0  0  0  0  0  0  0  0  0
   -0.6019   -0.5988   -0.5935 C   0  0  0  0  0  0  0  0  0  0  0  0
    0.4118    0.3550   -0.0892 C   0  0  0  0  0  0  0  0  0  0  0  0
    0.0770    1.4041    0.4573 O   0  0  0  0  0  0  0  0  0  0  0  0
    1.7240   -0.0059   -0.3159 N   0  0  0  0  0  0  0  0  0  0  0  0
    2.8912    0.8164    0.0251 C   0  0  2  0  0  0  0  0  0  0  0  0
    2.8991    2.1470   -0.7656 C   0  0  0  0  0  0  0  0  0  0  0  0
    4.1605    2.9618   -0.4322 C   0  0  2  0  0  0  0  0  0  0  0  0
    5.4062    2.1472   -0.8177 C   0  0  0  0  0  0  0  0  0  0  0  0
    5.4414    0.8272   -0.0237 C   0  0  2  0  0  0  0  0  0  0  0  0
    4.1710    0.0255   -0.3583 C   0  0  0  0  0  0  0  0  0  0  0  0
    5.5025    1.1609    1.4851 C   0  0  2  0  0  0  0  0  0  0  0  0
    5.7357   -0.0753    2.3565 C   0  0  0  0  0  0  0  0  0  0  0  0
    4.2243    1.9378    1.8778 C   0  0  1  0  0  0  0  0  0  0  0  0
    4.1874    3.2561    1.0780 C   0  0  0  0  0  0  0  0  0  0  0  0
    2.9565    1.1284    1.5413 C   0  0  0  0  0  0  0  0  0  0  0  0
   -1.8236   -0.1385   -0.9159 N   0  0  0  0  0  0  0  0  0  0  0  0
   -2.5025   -1.2013   -1.3547 N   0  0  0  0  0  0  0  0  0  0  0  0
   -3.8824   -1.0378   -1.7822 C   0  0  0  0  0  0  0  0  0  0  0  0
   -4.3620    0.4074   -2.0030 C   0  0  0  0  0  0  0  0  0  0  0  0
   -5.1422    1.0415   -0.8480 C   0  0  0  0  0  0  0  0  0  0  0  0
   -4.3572    1.6981    0.2424 N   0  0  0  0  0  0  0  0  0  0  0  0
   -3.8963    0.7942    1.3752 C   0  0  0  0  0  0  0  0  0  0  0  0
   -2.9790    1.5646    2.3329 C   0  0  0  0  0  0  0  0  0  0  0  0
   -3.2976    2.9617    2.2864 O   0  0  0  0  0  0  0  0  0  0  0  0
   -2.8686    3.5384    1.0400 C   0  0  0  0  0  0  0  0  0  0  0  0
   -3.2811    2.6875   -0.1764 C   0  0  0  0  0  0  0  0  0  0  0  0
   -1.7889   -2.3693   -1.2786 C   0  0  0  0  0  0  0  0  0  0  0  0
   -2.3224   -3.6723   -1.6533 C   0  0  0  0  0  0  0  0  0  0  0  0
   -2.2581   -4.1032   -2.9829 C   0  0  0  0  0  0  0  0  0  0  0  0
   -2.7783   -5.3475   -3.3425 C   0  0  0  0  0  0  0  0  0  0  0  0
   -3.3599   -6.1665   -2.3756 C   0  0  0  0  0  0  0  0  0  0  0  0
   -3.4188   -5.7458   -1.0477 C   0  0  0  0  0  0  0  0  0  0  0  0
   -2.8999   -4.5016   -0.6855 C   0  0  0  0  0  0  0  0  0  0  0  0
    0.2347   -3.9677   -0.3196 H   0  0  0  0  0  0  0  0  0  0  0  0
    1.1040   -2.6392    0.4422 H   0  0  0  0  0  0  0  0  0  0  0  0
    1.3022   -2.9499   -1.2987 H   0  0  0  0  0  0  0  0  0  0  0  0
    1.8772   -0.7422   -0.9913 H   0  0  0  0  0  0  0  0  0  0  0  0
    2.0115    2.7470   -0.5318 H   0  0  0  0  0  0  0  0  0  0  0  0
    2.8576    1.9463   -1.8442 H   0  0  0  0  0  0  0  0  0  0  0  0
    4.1485    3.9039   -0.9917 H   0  0  0  0  0  0  0  0  0  0  0  0
    6.3128    2.7309   -0.6160 H   0  0  0  0  0  0  0  0  0  0  0  0
    5.3983    1.9371   -1.8944 H   0  0  0  0  0  0  0  0  0  0  0  0
    6.3277    0.2529   -0.3178 H   0  0  0  0  0  0  0  0  0  0  0  0
    4.1843   -0.9462    0.1504 H   0  0  0  0  0  0  0  0  0  0  0  0
    4.1593   -0.2045   -1.4327 H   0  0  0  0  0  0  0  0  0  0  0  0
    6.3674    1.8179    1.6549 H   0  0  0  0  0  0  0  0  0  0  0  0
    5.8161    0.2120    3.4104 H   0  0  0  0  0  0  0  0  0  0  0  0
    6.6723   -0.5682    2.0747 H   0  0  0  0  0  0  0  0  0  0  0  0
    4.9355   -0.8150    2.2756 H   0  0  0  0  0  0  0  0  0  0  0  0
    4.2395    2.1670    2.9498 H   0  0  0  0  0  0  0  0  0  0  0  0
    3.3040    3.8417    1.3614 H   0  0  0  0  0  0  0  0  0  0  0  0
    5.0643    3.8676    1.3238 H   0  0  0  0  0  0  0  0  0  0  0  0
    2.9240    0.1992    2.1225 H   0  0  0  0  0  0  0  0  0  0  0  0
    2.0809    1.7068    1.8589 H   0  0  0  0  0  0  0  0  0  0  0  0
   -4.5109   -1.5584   -1.0515 H   0  0  0  0  0  0  0  0  0  0  0  0
   -3.9591   -1.5697   -2.7381 H   0  0  0  0  0  0  0  0  0  0  0  0
   -5.0799    0.3517   -2.8341 H   0  0  0  0  0  0  0  0  0  0  0  0
   -3.5630    1.0619   -2.3666 H   0  0  0  0  0  0  0  0  0  0  0  0
   -5.7666    1.8440   -1.2600 H   0  0  0  0  0  0  0  0  0  0  0  0
   -5.8227    0.3235   -0.3764 H   0  0  0  0  0  0  0  0  0  0  0  0
   -5.0244    2.3116    0.7326 H   0  0  0  0  0  0  0  0  0  0  0  0
   -3.4278   -0.1065    0.9842 H   0  0  0  0  0  0  0  0  0  0  0  0
   -4.8135    0.4992    1.8978 H   0  0  0  0  0  0  0  0  0  0  0  0
   -1.9230    1.4158    2.0877 H   0  0  0  0  0  0  0  0  0  0  0  0
   -3.1279    1.2099    3.3577 H   0  0  0  0  0  0  0  0  0  0  0  0
   -1.7834    3.6877    1.0608 H   0  0  0  0  0  0  0  0  0  0  0  0
   -3.3307    4.5288    0.9731 H   0  0  0  0  0  0  0  0  0  0  0  0
   -2.4295    2.1378   -0.5690 H   0  0  0  0  0  0  0  0  0  0  0  0
   -3.6911    3.3188   -0.9716 H   0  0  0  0  0  0  0  0  0  0  0  0
   -1.7967   -3.4804   -3.7459 H   0  0  0  0  0  0  0  0  0  0  0  0
   -2.7229   -5.6839   -4.3753 H   0  0  0  0  0  0  0  0  0  0  0  0
   -3.7581   -7.1393   -2.6560 H   0  0  0  0  0  0  0  0  0  0  0  0
   -3.8610   -6.3935   -0.2942 H   0  0  0  0  0  0  0  0  0  0  0  0
   -2.9402   -4.1931    0.3562 H   0  0  0  0  0  0  0  0  0  0  0  0
  1  2  1  0
  2  3  1  0
  3  4  1  0
  4  5  2  0
  4  6  1  0
  7  6  1  1
  7  8  1  0
  8  9  1  0
  9 10  1  0
 10 11  1  0
 11 12  1  0
 11 13  1  0
 13 14  1  0
 13 15  1  0
 15 16  1  0
 15 17  1  0
  3 18  2  0
 18 19  1  0
 19 20  1  0
 20 21  1  0
 21 22  1  0
 22 23  1  0
 23 24  1  0
 24 25  1  0
 25 26  1  0
 26 27  1  0
 27 28  1  0
 19 29  1  0
 29 30  1  0
 30 31  2  0
 31 32  1  0
 32 33  2  0
 33 34  1  0
 34 35  2  0
 29  2  2  0
 35 30  1  0
 12  7  1  0
 28 23  1  0
 17  7  1  0
 16  9  1  0
  1 36  1  0
  1 37  1  0
  1 38  1  0
  6 39  1  0
  8 40  1  0
  8 41  1  0
  9 42  1  6
 10 43  1  0
 10 44  1  0
 11 45  1  6
 12 46  1  0
 12 47  1  0
 13 48  1  6
 14 49  1  0
 14 50  1  0
 14 51  1  0
 15 52  1  1
 16 53  1  0
 16 54  1  0
 17 55  1  0
 17 56  1  0
 20 57  1  0
 20 58  1  0
 21 59  1  0
 21 60  1  0
 22 61  1  0
 22 62  1  0
 23 63  1  0
 24 64  1  0
 24 65  1  0
 25 66  1  0
 25 67  1  0
 27 68  1  0
 27 69  1  0
 28 70  1  0
 28 71  1  0
 31 72  1  0
 32 73  1  0
 33 74  1  0
 34 75  1  0
 35 76  1  0
M  CHG  1  23   1
M  END
>  <_SMILES>  (14) 
Cc1c(C(=O)N[C@]23C[C@@H]4C[C@H](C2)[C@H](C)[C@@H](C4)C3)nn(CCC[NH+]2CCOCC2)c1-c1ccccc1

$$$$

     RDKit          3D

 63 68  0  0  0  0  0  0  0  0999 V2000
   -1.1881   -3.1116    0.5853 C   0  0  0  0  0  0  0  0  0  0  0  0
   -1.3443   -1.6738    0.2403 C   0  0  0  0  0  0  0  0  0  0  0  0
   -0.2960   -0.7288    0.0588 C   0  0  0  0  0  0  0  0  0  0  0  0
    1.1603   -0.9535    0.1675 C   0  0  0  0  0  0  0  0  0  0  0  0
    1.6514   -2.0436    0.4397 O   0  0  0  0  0  0  0  0  0  0  0  0
    1.8894    0.1917   -0.0705 N   0  0  0  0  0  0  0  0  0  0  0  0
    3.3424    0.3136   -0.0426 C   0  0  2  0  0  0  0  0  0  0  0  0
    3.7199    1.7830   -0.3694 C   0  0  0  0  0  0  0  0  0  0  0  0
    5.2446    1.9764   -0.3553 C   0  0  1  0  0  0  0  0  0  0  0  0
    5.7854    1.6164    1.0374 C   0  0  0  0  0  0  0  0  0  0  0  0
    5.4448    0.1554    1.3711 C   0  0  2  0  0  0  0  0  0  0  0  0
    6.0761   -0.7669    0.3143 C   0  0  0  0  0  0  0  0  0  0  0  0
    5.5398   -0.4150   -1.0838 C   0  0  2  0  0  0  0  0  0  0  0  0
    5.8799    1.0493   -1.4034 C   0  0  0  0  0  0  0  0  0  0  0  0
    4.0119   -0.5978   -1.1008 C   0  0  0  0  0  0  0  0  0  0  0  0
    3.9168   -0.0272    1.3547 C   0  0  0  0  0  0  0  0  0  0  0  0
   -0.7879    0.4876   -0.2439 N   0  0  0  0  0  0  0  0  0  0  0  0
   -2.1306    0.3248   -0.2626 N   0  0  0  0  0  0  0  0  0  0  0  0
   -2.9256    1.5044   -0.5638 C   0  0  0  0  0  0  0  0  0  0  0  0
   -3.7159    2.0615    0.6276 C   0  0  0  0  0  0  0  0  0  0  0  0
   -4.9658    2.6658    0.0046 C   0  0  0  0  0  0  0  0  0  0  0  0
   -5.2852    1.7185   -1.1400 C   0  0  0  0  0  0  0  0  0  0  0  0
   -3.9206    1.3786   -1.7292 C   0  0  0  0  0  0  0  0  0  0  0  0
   -2.5202   -0.9651    0.0296 C   0  0  0  0  0  0  0  0  0  0  0  0
   -3.8923   -1.4579    0.0940 C   0  0  0  0  0  0  0  0  0  0  0  0
   -4.6057   -1.4141    1.2968 C   0  0  0  0  0  0  0  0  0  0  0  0
   -5.9068   -1.9160    1.3644 C   0  0  0  0  0  0  0  0  0  0  0  0
   -6.4959   -2.4815    0.2346 C   0  0  0  0  0  0  0  0  0  0  0  0
   -5.7817   -2.5553   -0.9602 C   0  0  0  0  0  0  0  0  0  0  0  0
   -4.4808   -2.0530   -1.0280 C   0  0  0  0  0  0  0  0  0  0  0  0
   -0.6631   -3.2202    1.5399 H   0  0  0  0  0  0  0  0  0  0  0  0
   -2.1528   -3.6190    0.6786 H   0  0  0  0  0  0  0  0  0  0  0  0
   -0.6139   -3.6295   -0.1897 H   0  0  0  0  0  0  0  0  0  0  0  0
    1.3120    1.0033   -0.2816 H   0  0  0  0  0  0  0  0  0  0  0  0
    3.2541    2.4628    0.3567 H   0  0  0  0  0  0  0  0  0  0  0  0
    3.3202    2.0656   -1.3526 H   0  0  0  0  0  0  0  0  0  0  0  0
    5.4877    3.0191   -0.5882 H   0  0  0  0  0  0  0  0  0  0  0  0
    6.8720    1.7642    1.0672 H   0  0  0  0  0  0  0  0  0  0  0  0
    5.3524    2.2842    1.7922 H   0  0  0  0  0  0  0  0  0  0  0  0
    5.8357   -0.0973    2.3631 H   0  0  0  0  0  0  0  0  0  0  0  0
    7.1680   -0.6636    0.3326 H   0  0  0  0  0  0  0  0  0  0  0  0
    5.8516   -1.8146    0.5491 H   0  0  0  0  0  0  0  0  0  0  0  0
    5.9981   -1.0720   -1.8315 H   0  0  0  0  0  0  0  0  0  0  0  0
    5.5148    1.3090   -2.4046 H   0  0  0  0  0  0  0  0  0  0  0  0
    6.9680    1.1873   -1.4155 H   0  0  0  0  0  0  0  0  0  0  0  0
    3.6193   -0.3676   -2.0999 H   0  0  0  0  0  0  0  0  0  0  0  0
    3.7758   -1.6522   -0.9143 H   0  0  0  0  0  0  0  0  0  0  0  0
    3.4560    0.6127    2.1187 H   0  0  0  0  0  0  0  0  0  0  0  0
    3.6772   -1.0599    1.6348 H   0  0  0  0  0  0  0  0  0  0  0  0
   -2.2016    2.2776   -0.8625 H   0  0  0  0  0  0  0  0  0  0  0  0
   -3.1396    2.8107    1.1809 H   0  0  0  0  0  0  0  0  0  0  0  0
   -3.9939    1.2834    1.3427 H   0  0  0  0  0  0  0  0  0  0  0  0
   -4.7482    3.6681   -0.3828 H   0  0  0  0  0  0  0  0  0  0  0  0
   -5.7887    2.7466    0.7204 H   0  0  0  0  0  0  0  0  0  0  0  0
   -5.7725    0.8164   -0.7564 H   0  0  0  0  0  0  0  0  0  0  0  0
   -5.9520    2.1718   -1.8793 H   0  0  0  0  0  0  0  0  0  0  0  0
   -3.6691    2.1260   -2.4931 H   0  0  0  0  0  0  0  0  0  0  0  0
   -3.9140    0.4097   -2.2330 H   0  0  0  0  0  0  0  0  0  0  0  0
   -4.1486   -0.9966    2.1909 H   0  0  0  0  0  0  0  0  0  0  0  0
   -6.4565   -1.8740    2.3012 H   0  0  0  0  0  0  0  0  0  0  0  0
   -7.5073   -2.8763    0.2887 H   0  0  0  0  0  0  0  0  0  0  0  0
   -6.2340   -3.0106   -1.8374 H   0  0  0  0  0  0  0  0  0  0  0  0
   -3.9265   -2.1314   -1.9606 H   0  0  0  0  0  0  0  0  0  0  0  0
  1  2  1  0
  2  3  1  0
  3  4  1  0
  4  5  2  0
  4  6  1  0
  7  6  1  1
  7  8  1  0
  8  9  1  0
  9 10  1  0
 10 11  1  0
 11 12  1  0
 12 13  1  0
 13 14  1  0
 13 15  1  0
 11 16  1  0
  3 17  2  0
 17 18  1  0
 18 19  1  0
 19 20  1  0
 20 21  1  0
 21 22  1  0
 22 23  1  0
 18 24  1  0
 24 25  1  0
 25 26  2  0
 26 27  1  0
 27 28  2  0
 28 29  1  0
 29 30  2  0
 24  2  2  0
 30 25  1  0
 15  7  1  0
 23 19  1  0
 16  7  1  0
 14  9  1  0
  1 31  1  0
  1 32  1  0
  1 33  1  0
  6 34  1  0
  8 35  1  0
  8 36  1  0
  9 37  1  6
 10 38  1  0
 10 39  1  0
 11 40  1  1
 12 41  1  0
 12 42  1  0
 13 43  1  6
 14 44  1  0
 14 45  1  0
 15 46  1  0
 15 47  1  0
 16 48  1  0
 16 49  1  0
 19 50  1  0
 20 51  1  0
 20 52  1  0
 21 53  1  0
 21 54  1  0
 22 55  1  0
 22 56  1  0
 23 57  1  0
 23 58  1  0
 26 59  1  0
 27 60  1  0
 28 61  1  0
 29 62  1  0
 30 63  1  0
M  END
>  <_SMILES>  (15) 
Cc1c(C(=O)N[C@]23C[C@H]4C[C@H](C[C@H](C4)C2)C3)nn(C2CCCC2)c1-c1ccccc1

$$$$

     RDKit          3D

 49 53  0  0  0  0  0  0  0  0999 V2000
   -0.1057    2.4636   -0.7153 O   0  0  0  0  0  0  0  0  0  0  0  0
    0.2811    1.6914    0.1542 C   0  0  0  0  0  0  0  0  0  0  0  0
   -0.4978    0.6922    0.7039 N   0  0  0  0  0  0  0  0  0  0  0  0
   -1.8455    0.3359    0.2571 C   0  0  2  0  0  0  0  0  0  0  0  0
   -1.8465   -0.1558   -1.2112 C   0  0  0  0  0  0  0  0  0  0  0  0
   -3.2630   -0.5785   -1.6393 C   0  0  1  0  0  0  0  0  0  0  0  0
   -3.7475   -1.7217   -0.7335 C   0  0  0  0  0  0  0  0  0  0  0  0
   -3.7783   -1.2548    0.7304 C   0  0  2  0  0  0  0  0  0  0  0  0
   -4.7314   -0.0572    0.8631 C   0  0  0  0  0  0  0  0  0  0  0  0
   -4.2518    1.0955   -0.0324 C   0  0  2  0  0  0  0  0  0  0  0  0
   -4.2152    0.6209   -1.4952 C   0  0  0  0  0  0  0  0  0  0  0  0
   -2.8360    1.5196    0.3974 C   0  0  0  0  0  0  0  0  0  0  0  0
   -2.3648   -0.8226    1.1515 C   0  0  0  0  0  0  0  0  0  0  0  0
    1.6358    1.6657    0.7640 C   0  0  0  0  0  0  0  0  0  0  0  0
    2.7537    2.2753    0.3531 C   0  0  0  0  0  0  0  0  0  0  0  0
    3.3932    1.8202    1.3990 N   0  0  0  0  0  0  0  0  0  0  0  0
    4.7301    1.2121    1.3473 C   0  0  0  0  0  0  0  0  0  0  0  0
    4.8599    0.0628    0.3683 C   0  0  0  0  0  0  0  0  0  0  0  0
    5.3336    0.2836   -0.9338 C   0  0  0  0  0  0  0  0  0  0  0  0
    5.4484   -0.7758   -1.8356 C   0  0  0  0  0  0  0  0  0  0  0  0
    5.0883   -2.0651   -1.4478 C   0  0  0  0  0  0  0  0  0  0  0  0
    4.6092   -2.2966   -0.1598 C   0  0  0  0  0  0  0  0  0  0  0  0
    4.4934   -1.2386    0.7431 C   0  0  0  0  0  0  0  0  0  0  0  0
    2.2687    1.0689    1.7400 N   0  0  0  0  0  0  0  0  0  0  0  0
    0.0100    0.0136    1.2588 H   0  0  0  0  0  0  0  0  0  0  0  0
   -1.4870    0.6303   -1.8862 H   0  0  0  0  0  0  0  0  0  0  0  0
   -1.1540   -0.9999   -1.3271 H   0  0  0  0  0  0  0  0  0  0  0  0
   -3.2478   -0.9150   -2.6820 H   0  0  0  0  0  0  0  0  0  0  0  0
   -4.7479   -2.0475   -1.0440 H   0  0  0  0  0  0  0  0  0  0  0  0
   -3.0839   -2.5889   -0.8369 H   0  0  0  0  0  0  0  0  0  0  0  0
   -4.1217   -2.0736    1.3724 H   0  0  0  0  0  0  0  0  0  0  0  0
   -4.7757    0.2732    1.9082 H   0  0  0  0  0  0  0  0  0  0  0  0
   -5.7486   -0.3542    0.5797 H   0  0  0  0  0  0  0  0  0  0  0  0
   -4.9362    1.9459    0.0631 H   0  0  0  0  0  0  0  0  0  0  0  0
   -3.8875    1.4401   -2.1470 H   0  0  0  0  0  0  0  0  0  0  0  0
   -5.2237    0.3386   -1.8216 H   0  0  0  0  0  0  0  0  0  0  0  0
   -2.5221    2.3719   -0.2157 H   0  0  0  0  0  0  0  0  0  0  0  0
   -2.8516    1.8773    1.4353 H   0  0  0  0  0  0  0  0  0  0  0  0
   -2.3698   -0.5126    2.2051 H   0  0  0  0  0  0  0  0  0  0  0  0
   -1.6836   -1.6821    1.0892 H   0  0  0  0  0  0  0  0  0  0  0  0
    2.9932    2.9048   -0.5003 H   0  0  0  0  0  0  0  0  0  0  0  0
    4.9996    0.8621    2.3519 H   0  0  0  0  0  0  0  0  0  0  0  0
    5.4653    1.9890    1.1005 H   0  0  0  0  0  0  0  0  0  0  0  0
    5.6097    1.2855   -1.2546 H   0  0  0  0  0  0  0  0  0  0  0  0
    5.8140   -0.5940   -2.8428 H   0  0  0  0  0  0  0  0  0  0  0  0
    5.1749   -2.8883   -2.1519 H   0  0  0  0  0  0  0  0  0  0  0  0
    4.3202   -3.3003    0.1400 H   0  0  0  0  0  0  0  0  0  0  0  0
    4.1050   -1.4284    1.7410 H   0  0  0  0  0  0  0  0  0  0  0  0
    1.9375    1.2119    2.6968 H   0  0  0  0  0  0  0  0  0  0  0  0
  1  2  2  0
  2  3  1  0
  4  3  1  1
  4  5  1  0
  5  6  1  0
  6  7  1  0
  7  8  1  0
  8  9  1  0
  9 10  1  0
 10 11  1  0
 10 12  1  0
  8 13  1  0
  2 14  1  0
 14 15  2  0
 15 16  1  0
 16 17  1  0
 17 18  1  0
 18 19  2  0
 19 20  1  0
 20 21  2  0
 21 22  1  0
 22 23  2  0
 16 24  1  0
 12  4  1  0
 24 14  1  0
 13  4  1  0
 23 18  1  0
 11  6  1  0
  3 25  1  0
  5 26  1  0
  5 27  1  0
  6 28  1  6
  7 29  1  0
  7 30  1  0
  8 31  1  1
  9 32  1  0
  9 33  1  0
 10 34  1  6
 11 35  1  0
 11 36  1  0
 12 37  1  0
 12 38  1  0
 13 39  1  0
 13 40  1  0
 15 41  1  0
 17 42  1  0
 17 43  1  0
 19 44  1  0
 20 45  1  0
 21 46  1  0
 22 47  1  0
 23 48  1  0
 24 49  1  0
M  END
>  <_SMILES>  (16) 
O=C(N[C@]12C[C@H]3C[C@H](C[C@H](C3)C1)C2)c1cn(Cc2ccccc2)[nH]1

$$$$

     RDKit          3D

 60 65  0  0  0  0  0  0  0  0999 V2000
   -1.4098   -0.1814    3.5896 O   0  0  0  0  0  0  0  0  0  0  0  0
   -1.0364   -0.5310    2.4781 C   0  0  0  0  0  0  0  0  0  0  0  0
   -1.5475   -1.5729    1.7534 N   0  0  0  0  0  0  0  0  0  0  0  0
   -2.8006   -2.2717    1.9545 C   0  0  2  0  0  0  0  0  0  0  0  0
   -3.1586   -2.9609    0.6239 C   0  0  0  0  0  0  0  0  0  0  0  0
   -3.6554   -1.9699   -0.4587 C   0  0  2  0  0  0  0  0  0  0  0  0
   -2.5795   -0.9520   -0.9046 C   0  0  0  0  0  0  0  0  0  0  0  0
   -2.7114    0.4770   -0.3260 C   0  0  2  0  0  0  0  0  0  0  0  0
   -1.4050    1.3007   -0.3256 C   0  0  0  0  0  0  0  0  0  0  0  0
   -0.1787    0.8898    0.4614 C   0  0  0  0  0  0  0  0  0  0  0  0
   -0.0116    0.1667    1.6945 C   0  0  0  0  0  0  0  0  0  0  0  0
    1.2791    0.0810    2.0525 N   0  0  0  0  0  0  0  0  0  0  0  0
    1.9405    0.7667    1.1038 N   0  0  0  0  0  0  0  0  0  0  0  0
    3.3857    0.9323    1.2347 C   0  0  0  0  0  0  0  0  0  0  0  0
    4.1518   -0.0602    0.3914 C   0  0  0  0  0  0  0  0  0  0  0  0
    4.0883   -1.4348    0.6712 C   0  0  0  0  0  0  0  0  0  0  0  0
    4.7957   -2.3519   -0.1090 C   0  0  0  0  0  0  0  0  0  0  0  0
    5.5744   -1.9003   -1.1716 C   0  0  0  0  0  0  0  0  0  0  0  0
    6.4419   -3.0295   -2.1371 Cl  0  0  0  0  0  0  0  0  0  0  0  0
    5.6546   -0.5395   -1.4586 C   0  0  0  0  0  0  0  0  0  0  0  0
    4.9483    0.3783   -0.6776 C   0  0  0  0  0  0  0  0  0  0  0  0
    1.1206    1.2670    0.1217 C   0  0  0  0  0  0  0  0  0  0  0  0
    1.5985    2.0537   -1.0096 C   0  0  0  0  0  0  0  0  0  0  0  0
    1.7021    3.4449   -0.9071 C   0  0  0  0  0  0  0  0  0  0  0  0
    2.1642    4.1953   -1.9896 C   0  0  0  0  0  0  0  0  0  0  0  0
    2.5196    3.5593   -3.1788 C   0  0  0  0  0  0  0  0  0  0  0  0
    2.4096    2.1738   -3.2894 C   0  0  0  0  0  0  0  0  0  0  0  0
    1.9468    1.4220   -2.2084 C   0  0  0  0  0  0  0  0  0  0  0  0
   -3.5603    0.6844    0.9453 C   0  0  0  0  0  0  0  0  0  0  0  0
   -4.5307   -0.4503    1.2999 C   0  0  1  0  0  0  0  0  0  0  0  0
   -4.9008   -1.2530    0.0560 C   0  0  0  0  0  0  0  0  0  0  0  0
   -3.9774   -1.3839    2.3970 C   0  0  0  0  0  0  0  0  0  0  0  0
   -0.9098   -1.9459    1.0608 H   0  0  0  0  0  0  0  0  0  0  0  0
   -2.6069   -3.0285    2.7230 H   0  0  0  0  0  0  0  0  0  0  0  0
   -2.3000   -3.5251    0.2380 H   0  0  0  0  0  0  0  0  0  0  0  0
   -3.9506   -3.6980    0.8123 H   0  0  0  0  0  0  0  0  0  0  0  0
   -3.9332   -2.5705   -1.3347 H   0  0  0  0  0  0  0  0  0  0  0  0
   -2.6735   -0.8504   -1.9966 H   0  0  0  0  0  0  0  0  0  0  0  0
   -1.5715   -1.3584   -0.7828 H   0  0  0  0  0  0  0  0  0  0  0  0
   -3.3192    0.9866   -1.0944 H   0  0  0  0  0  0  0  0  0  0  0  0
   -1.1020    1.3841   -1.3791 H   0  0  0  0  0  0  0  0  0  0  0  0
   -1.6495    2.3260   -0.0133 H   0  0  0  0  0  0  0  0  0  0  0  0
    3.6275    1.9669    0.9684 H   0  0  0  0  0  0  0  0  0  0  0  0
    3.6484    0.8062    2.2920 H   0  0  0  0  0  0  0  0  0  0  0  0
    3.4808   -1.7977    1.5001 H   0  0  0  0  0  0  0  0  0  0  0  0
    4.7340   -3.4127    0.1183 H   0  0  0  0  0  0  0  0  0  0  0  0
    6.2627   -0.1866   -2.2872 H   0  0  0  0  0  0  0  0  0  0  0  0
    5.0169    1.4380   -0.9181 H   0  0  0  0  0  0  0  0  0  0  0  0
    1.4196    3.9508    0.0135 H   0  0  0  0  0  0  0  0  0  0  0  0
    2.2422    5.2764   -1.9068 H   0  0  0  0  0  0  0  0  0  0  0  0
    2.8767    4.1450   -4.0223 H   0  0  0  0  0  0  0  0  0  0  0  0
    2.6818    1.6781   -4.2178 H   0  0  0  0  0  0  0  0  0  0  0  0
    1.8649    0.3414   -2.3038 H   0  0  0  0  0  0  0  0  0  0  0  0
   -2.9569    0.9707    1.8092 H   0  0  0  0  0  0  0  0  0  0  0  0
   -4.1719    1.5818    0.7644 H   0  0  0  0  0  0  0  0  0  0  0  0
   -5.4438    0.0069    1.7036 H   0  0  0  0  0  0  0  0  0  0  0  0
   -5.6821   -1.9838    0.2999 H   0  0  0  0  0  0  0  0  0  0  0  0
   -5.3178   -0.5975   -0.7184 H   0  0  0  0  0  0  0  0  0  0  0  0
   -3.7298   -0.8023    3.2904 H   0  0  0  0  0  0  0  0  0  0  0  0
   -4.7952   -2.0511    2.7041 H   0  0  0  0  0  0  0  0  0  0  0  0
  1  2  2  0
  2  3  1  0
  3  4  1  0
  4  5  1  0
  5  6  1  0
  6  7  1  0
  7  8  1  0
  8  9  1  0
  9 10  1  0
 10 11  1  0
 11 12  2  0
 12 13  1  0
 13 14  1  0
 14 15  1  0
 15 16  1  0
 16 17  2  0
 17 18  1  0
 18 19  1  0
 18 20  2  0
 20 21  1  0
 13 22  1  0
 22 23  1  0
 23 24  2  0
 24 25  1  0
 25 26  2  0
 26 27  1  0
 27 28  2  0
  8 29  1  0
 29 30  1  0
 30 31  1  0
 30 32  1  0
 11  2  1  0
 21 15  2  0
 28 23  1  0
 32  4  1  0
 31  6  1  0
 22 10  2  0
  3 33  1  0
  4 34  1  1
  5 35  1  0
  5 36  1  0
  6 37  1  6
  7 38  1  0
  7 39  1  0
  8 40  1  6
  9 41  1  0
  9 42  1  0
 14 43  1  0
 14 44  1  0
 16 45  1  0
 17 46  1  0
 20 47  1  0
 21 48  1  0
 24 49  1  0
 25 50  1  0
 26 51  1  0
 27 52  1  0
 28 53  1  0
 29 54  1  0
 29 55  1  0
 30 56  1  1
 31 57  1  0
 31 58  1  0
 32 59  1  0
 32 60  1  0
M  END
>  <_SMILES>  (17) 
O=C1N[C@@H]2C[C@@H]3C[C@H](Cc4c1nn(Cc1ccc(Cl)cc1)c4-c1ccccc1)C[C@@H](C3)C2

$$$$

     RDKit          3D

 57 58  0  0  0  0  0  0  0  0999 V2000
    0.7946    2.8917   -0.2727 C   0  0  0  0  0  0  0  0  0  0  0  0
    0.1141    1.6710    0.2335 C   0  0  0  0  0  0  0  0  0  0  0  0
    0.7049    0.4382    0.6567 C   0  0  0  0  0  0  0  0  0  0  0  0
    2.1185    0.0303    0.6525 C   0  0  0  0  0  0  0  0  0  0  0  0
    2.6286   -0.7049    1.4981 O   0  0  0  0  0  0  0  0  0  0  0  0
    2.8745    0.4898   -0.4202 N   0  0  0  0  0  0  0  0  0  0  0  0
    4.1717   -0.1086   -0.6790 C   0  0  0  0  0  0  0  0  0  0  0  0
    5.2267    0.1780    0.4150 C   0  0  0  0  0  0  0  0  0  0  0  0
    6.0499   -1.0340    0.8182 N   0  0  0  0  0  0  0  0  0  0  0  0
    6.8309   -1.6527   -0.3003 C   0  0  0  0  0  0  0  0  0  0  0  0
    5.2609   -2.0507    1.6075 C   0  0  0  0  0  0  0  0  0  0  0  0
   -0.2315   -0.4127    1.1010 N   0  0  0  0  0  0  0  0  0  0  0  0
   -1.3984    0.2386    0.9457 N   0  0  0  0  0  0  0  0  0  0  0  0
   -2.6276   -0.4351    1.3309 C   0  0  0  0  0  0  0  0  0  0  0  0
   -3.4319   -0.9954    0.1551 C   0  0  0  0  0  0  0  0  0  0  0  0
   -2.7010   -2.1166   -0.5893 C   0  0  0  0  0  0  0  0  0  0  0  0
   -3.5024   -2.6859   -1.7665 C   0  0  0  0  0  0  0  0  0  0  0  0
   -4.8064   -3.3739   -1.3775 C   0  0  0  0  0  0  0  0  0  0  0  0
   -4.5499   -4.3941   -0.4247 O   0  0  0  0  0  0  0  0  0  0  0  0
   -1.2501    1.5043    0.4325 C   0  0  0  0  0  0  0  0  0  0  0  0
   -2.3502    2.4278    0.1798 C   0  0  0  0  0  0  0  0  0  0  0  0
   -2.9588    3.1121    1.2379 C   0  0  0  0  0  0  0  0  0  0  0  0
   -4.0075    3.9996    0.9904 C   0  0  0  0  0  0  0  0  0  0  0  0
   -4.4489    4.2114   -0.3149 C   0  0  0  0  0  0  0  0  0  0  0  0
   -3.8411    3.5398   -1.3747 C   0  0  0  0  0  0  0  0  0  0  0  0
   -2.7918    2.6525   -1.1291 C   0  0  0  0  0  0  0  0  0  0  0  0
    0.9550    2.8160   -1.3527 H   0  0  0  0  0  0  0  0  0  0  0  0
    1.7642    3.0318    0.2153 H   0  0  0  0  0  0  0  0  0  0  0  0
    0.2025    3.7916   -0.0782 H   0  0  0  0  0  0  0  0  0  0  0  0
    2.3352    0.8232   -1.2128 H   0  0  0  0  0  0  0  0  0  0  0  0
    4.0041   -1.1805   -0.8233 H   0  0  0  0  0  0  0  0  0  0  0  0
    4.5218    0.3002   -1.6331 H   0  0  0  0  0  0  0  0  0  0  0  0
    5.9454    0.9206    0.0485 H   0  0  0  0  0  0  0  0  0  0  0  0
    4.7961    0.5823    1.3371 H   0  0  0  0  0  0  0  0  0  0  0  0
    6.7430   -0.6720    1.4858 H   0  0  0  0  0  0  0  0  0  0  0  0
    7.5144   -2.3883    0.1322 H   0  0  0  0  0  0  0  0  0  0  0  0
    6.1399   -2.1330   -0.9970 H   0  0  0  0  0  0  0  0  0  0  0  0
    7.4009   -0.8622   -0.7951 H   0  0  0  0  0  0  0  0  0  0  0  0
    4.8238   -1.5451    2.4714 H   0  0  0  0  0  0  0  0  0  0  0  0
    5.9614   -2.8160    1.9534 H   0  0  0  0  0  0  0  0  0  0  0  0
    4.5021   -2.4968    0.9618 H   0  0  0  0  0  0  0  0  0  0  0  0
   -2.3635   -1.2374    2.0305 H   0  0  0  0  0  0  0  0  0  0  0  0
   -3.2321    0.2849    1.8925 H   0  0  0  0  0  0  0  0  0  0  0  0
   -3.6845   -0.1960   -0.5500 H   0  0  0  0  0  0  0  0  0  0  0  0
   -4.3780   -1.3767    0.5550 H   0  0  0  0  0  0  0  0  0  0  0  0
   -1.7543   -1.7336   -0.9883 H   0  0  0  0  0  0  0  0  0  0  0  0
   -2.4431   -2.9199    0.1109 H   0  0  0  0  0  0  0  0  0  0  0  0
   -2.8623   -3.4198   -2.2723 H   0  0  0  0  0  0  0  0  0  0  0  0
   -3.7135   -1.8909   -2.4911 H   0  0  0  0  0  0  0  0  0  0  0  0
   -5.2620   -3.8314   -2.2618 H   0  0  0  0  0  0  0  0  0  0  0  0
   -5.5224   -2.6646   -0.9525 H   0  0  0  0  0  0  0  0  0  0  0  0
   -5.3954   -4.8440   -0.2523 H   0  0  0  0  0  0  0  0  0  0  0  0
   -2.6184    2.9634    2.2602 H   0  0  0  0  0  0  0  0  0  0  0  0
   -4.4789    4.5285    1.8153 H   0  0  0  0  0  0  0  0  0  0  0  0
   -5.2660    4.9032   -0.5064 H   0  0  0  0  0  0  0  0  0  0  0  0
   -4.1855    3.7083   -2.3920 H   0  0  0  0  0  0  0  0  0  0  0  0
   -2.3277    2.1335   -1.9641 H   0  0  0  0  0  0  0  0  0  0  0  0
  1  2  1  0
  2  3  1  0
  3  4  1  0
  4  5  2  0
  4  6  1  0
  6  7  1  0
  7  8  1  0
  8  9  1  0
  9 10  1  0
  9 11  1  0
  3 12  2  0
 12 13  1  0
 13 14  1  0
 14 15  1  0
 15 16  1  0
 16 17  1  0
 17 18  1  0
 18 19  1  0
 13 20  1  0
 20 21  1  0
 21 22  2  0
 22 23  1  0
 23 24  2  0
 24 25  1  0
 25 26  2  0
 20  2  2  0
 26 21  1  0
  1 27  1  0
  1 28  1  0
  1 29  1  0
  6 30  1  0
  7 31  1  0
  7 32  1  0
  8 33  1  0
  8 34  1  0
  9 35  1  0
 10 36  1  0
 10 37  1  0
 10 38  1  0
 11 39  1  0
 11 40  1  0
 11 41  1  0
 14 42  1  0
 14 43  1  0
 15 44  1  0
 15 45  1  0
 16 46  1  0
 16 47  1  0
 17 48  1  0
 17 49  1  0
 18 50  1  0
 18 51  1  0
 19 52  1  0
 22 53  1  0
 23 54  1  0
 24 55  1  0
 25 56  1  0
 26 57  1  0
M  CHG  1   9   1
M  END
>  <_SMILES>  (18) 
Cc1c(C(=O)NCC[NH+](C)C)nn(CCCCCO)c1-c1ccccc1

$$$$

     RDKit          3D

 50 53  0  0  0  0  0  0  0  0999 V2000
    5.8299    1.8556   -1.9688 C   0  0  0  0  0  0  0  0  0  0  0  0
    4.8670    0.8115   -2.0179 O   0  0  0  0  0  0  0  0  0  0  0  0
    4.7005    0.1429   -0.7655 C   0  0  0  0  0  0  0  0  0  0  0  0
    3.6871    0.8823    0.1067 C   0  0  0  0  0  0  0  0  0  0  0  0
    3.4982    0.2293    1.4728 C   0  0  0  0  0  0  0  0  0  0  0  0
    2.9401   -1.1105    1.4069 N   0  0  0  0  0  0  0  0  0  0  0  0
    3.7892   -2.1549    1.5296 N   0  0  0  0  0  0  0  0  0  0  0  0
    3.0030   -3.2229    1.4264 C   0  0  0  0  0  0  0  0  0  0  0  0
    1.6598   -2.8727    1.2204 C   0  0  0  0  0  0  0  0  0  0  0  0
    1.6299   -1.4858    1.1971 C   0  0  0  0  0  0  0  0  0  0  0  0
    0.5234   -0.5679    1.0172 C   0  0  0  0  0  0  0  0  0  0  0  0
    0.6035    0.6294    1.2659 O   0  0  0  0  0  0  0  0  0  0  0  0
   -0.6254   -1.1481    0.5210 N   0  0  0  0  0  0  0  0  0  0  0  0
   -1.8510   -0.4212    0.1716 C   0  0  2  0  0  0  0  0  0  0  0  0
   -1.6049    0.5969   -0.9693 C   0  0  0  0  0  0  0  0  0  0  0  0
   -2.9162    1.3037   -1.3560 C   0  0  1  0  0  0  0  0  0  0  0  0
   -3.9341    0.2580   -1.8379 C   0  0  0  0  0  0  0  0  0  0  0  0
   -4.2157   -0.7556   -0.7178 C   0  0  2  0  0  0  0  0  0  0  0  0
   -4.7801   -0.0184    0.5062 C   0  0  0  0  0  0  0  0  0  0  0  0
   -3.7670    1.0246    1.0023 C   0  0  2  0  0  0  0  0  0  0  0  0
   -3.4817    2.0320   -0.1247 C   0  0  0  0  0  0  0  0  0  0  0  0
   -2.4569    0.3171    1.3922 C   0  0  0  0  0  0  0  0  0  0  0  0
   -2.9025   -1.4511   -0.3256 C   0  0  0  0  0  0  0  0  0  0  0  0
    5.5303    2.6357   -1.2641 H   0  0  0  0  0  0  0  0  0  0  0  0
    6.8120    1.4578   -1.6955 H   0  0  0  0  0  0  0  0  0  0  0  0
    5.9024    2.3004   -2.9651 H   0  0  0  0  0  0  0  0  0  0  0  0
    4.3277   -0.8590   -1.0009 H   0  0  0  0  0  0  0  0  0  0  0  0
    5.6657    0.0250   -0.2590 H   0  0  0  0  0  0  0  0  0  0  0  0
    4.0137    1.9172    0.2580 H   0  0  0  0  0  0  0  0  0  0  0  0
    2.7349    0.9492   -0.4331 H   0  0  0  0  0  0  0  0  0  0  0  0
    2.8479    0.8325    2.1131 H   0  0  0  0  0  0  0  0  0  0  0  0
    4.4610    0.1614    1.9948 H   0  0  0  0  0  0  0  0  0  0  0  0
    3.4413   -4.2096    1.5066 H   0  0  0  0  0  0  0  0  0  0  0  0
    0.8256   -3.5511    1.1177 H   0  0  0  0  0  0  0  0  0  0  0  0
   -0.5457   -2.0935    0.1768 H   0  0  0  0  0  0  0  0  0  0  0  0
   -1.1830    0.0871   -1.8454 H   0  0  0  0  0  0  0  0  0  0  0  0
   -0.8674    1.3508   -0.6693 H   0  0  0  0  0  0  0  0  0  0  0  0
   -2.7229    2.0266   -2.1564 H   0  0  0  0  0  0  0  0  0  0  0  0
   -3.5483   -0.2600   -2.7245 H   0  0  0  0  0  0  0  0  0  0  0  0
   -4.8658    0.7527   -2.1386 H   0  0  0  0  0  0  0  0  0  0  0  0
   -4.9393   -1.5007   -1.0668 H   0  0  0  0  0  0  0  0  0  0  0  0
   -5.7261    0.4719    0.2454 H   0  0  0  0  0  0  0  0  0  0  0  0
   -5.0029   -0.7351    1.3062 H   0  0  0  0  0  0  0  0  0  0  0  0
   -4.1752    1.5501    1.8729 H   0  0  0  0  0  0  0  0  0  0  0  0
   -2.7693    2.7906    0.2220 H   0  0  0  0  0  0  0  0  0  0  0  0
   -4.4038    2.5613   -0.3947 H   0  0  0  0  0  0  0  0  0  0  0  0
   -1.7591    1.0626    1.7899 H   0  0  0  0  0  0  0  0  0  0  0  0
   -2.6439   -0.3936    2.2079 H   0  0  0  0  0  0  0  0  0  0  0  0
   -3.0973   -2.1980    0.4557 H   0  0  0  0  0  0  0  0  0  0  0  0
   -2.5087   -2.0063   -1.1876 H   0  0  0  0  0  0  0  0  0  0  0  0
  1  2  1  0
  2  3  1  0
  3  4  1  0
  4  5  1  0
  5  6  1  0
  6  7  1  0
  7  8  2  0
  8  9  1  0
  9 10  2  0
 10 11  1  0
 11 12  2  0
 11 13  1  0
 14 13  1  1
 14 15  1  0
 15 16  1  0
 16 17  1  0
 17 18  1  0
 18 19  1  0
 19 20  1  0
 20 21  1  0
 20 22  1  0
 18 23  1  0
 10  6  1  0
 22 14  1  0
 23 14  1  0
 21 16  1  0
  1 24  1  0
  1 25  1  0
  1 26  1  0
  3 27  1  0
  3 28  1  0
  4 29  1  0
  4 30  1  0
  5 31  1  0
  5 32  1  0
  8 33  1  0
  9 34  1  0
 13 35  1  0
 15 36  1  0
 15 37  1  0
 16 38  1  6
 17 39  1  0
 17 40  1  0
 18 41  1  6
 19 42  1  0
 19 43  1  0
 20 44  1  1
 21 45  1  0
 21 46  1  0
 22 47  1  0
 22 48  1  0
 23 49  1  0
 23 50  1  0
M  END
>  <_SMILES>  (19) 
COCCCn1nccc1C(=O)N[C@]12C[C@H]3C[C@H](C[C@H](C3)C1)C2

$$$$

     RDKit          3D

 47 51  0  0  0  0  0  0  0  0999 V2000
    0.3397   -0.8496    1.2190 O   0  0  0  0  0  0  0  0  0  0  0  0
    0.3954    0.0477    0.3835 C   0  0  0  0  0  0  0  0  0  0  0  0
   -0.7315    0.5775   -0.2270 N   0  0  0  0  0  0  0  0  0  0  0  0
   -2.1009    0.1014   -0.0031 C   0  0  2  0  0  0  0  0  0  0  0  0
   -2.2750   -1.3711   -0.4502 C   0  0  0  0  0  0  0  0  0  0  0  0
   -3.7330   -1.8258   -0.2597 C   0  0  1  0  0  0  0  0  0  0  0  0
   -4.1183   -1.6855    1.2228 C   0  0  0  0  0  0  0  0  0  0  0  0
   -3.9870   -0.2189    1.6681 C   0  0  2  0  0  0  0  0  0  0  0  0
   -4.9100    0.6573    0.8074 C   0  0  0  0  0  0  0  0  0  0  0  0
   -4.5227    0.5283   -0.6735 C   0  0  2  0  0  0  0  0  0  0  0  0
   -4.6571   -0.9392   -1.1094 C   0  0  0  0  0  0  0  0  0  0  0  0
   -3.0635    0.9758   -0.8534 C   0  0  0  0  0  0  0  0  0  0  0  0
   -2.5294    0.2385    1.4802 C   0  0  0  0  0  0  0  0  0  0  0  0
    1.6757    0.6405   -0.0667 C   0  0  0  0  0  0  0  0  0  0  0  0
    1.8915    1.8436   -0.7848 C   0  0  0  0  0  0  0  0  0  0  0  0
    3.2531    1.9381   -0.9441 C   0  0  0  0  0  0  0  0  0  0  0  0
    3.8107    0.8373   -0.3367 N   0  0  0  0  0  0  0  0  0  0  0  0
    5.1799    0.4714   -0.2180 C   0  0  0  0  0  0  0  0  0  0  0  0
    5.5151   -0.7120    0.4684 C   0  0  0  0  0  0  0  0  0  0  0  0
    6.8513   -1.0977    0.6022 C   0  0  0  0  0  0  0  0  0  0  0  0
    7.8513   -0.3060    0.0529 C   0  0  0  0  0  0  0  0  0  0  0  0
    9.1318   -0.6758    0.1809 F   0  0  0  0  0  0  0  0  0  0  0  0
    7.5424    0.8631   -0.6272 C   0  0  0  0  0  0  0  0  0  0  0  0
    6.2093    1.2477   -0.7604 C   0  0  0  0  0  0  0  0  0  0  0  0
    5.9683    2.3834   -1.4285 F   0  0  0  0  0  0  0  0  0  0  0  0
    2.8503    0.0432    0.1964 N   0  0  0  0  0  0  0  0  0  0  0  0
   -0.5807    1.1611   -1.0365 H   0  0  0  0  0  0  0  0  0  0  0  0
   -1.9836   -1.4827   -1.5029 H   0  0  0  0  0  0  0  0  0  0  0  0
   -1.6161   -2.0348    0.1219 H   0  0  0  0  0  0  0  0  0  0  0  0
   -3.8365   -2.8713   -0.5711 H   0  0  0  0  0  0  0  0  0  0  0  0
   -5.1481   -2.0313    1.3754 H   0  0  0  0  0  0  0  0  0  0  0  0
   -3.4737   -2.3237    1.8396 H   0  0  0  0  0  0  0  0  0  0  0  0
   -4.2691   -0.1264    2.7229 H   0  0  0  0  0  0  0  0  0  0  0  0
   -4.8362    1.7046    1.1249 H   0  0  0  0  0  0  0  0  0  0  0  0
   -5.9547    0.3544    0.9497 H   0  0  0  0  0  0  0  0  0  0  0  0
   -5.1807    1.1569   -1.2838 H   0  0  0  0  0  0  0  0  0  0  0  0
   -4.4012   -1.0402   -2.1713 H   0  0  0  0  0  0  0  0  0  0  0  0
   -5.6975   -1.2689   -0.9999 H   0  0  0  0  0  0  0  0  0  0  0  0
   -2.9620    2.0323   -0.5707 H   0  0  0  0  0  0  0  0  0  0  0  0
   -2.7889    0.9160   -1.9152 H   0  0  0  0  0  0  0  0  0  0  0  0
   -1.8860   -0.3598    2.1350 H   0  0  0  0  0  0  0  0  0  0  0  0
   -2.4187    1.2799    1.8099 H   0  0  0  0  0  0  0  0  0  0  0  0
    1.1618    2.5624   -1.1282 H   0  0  0  0  0  0  0  0  0  0  0  0
    3.8456    2.7000   -1.4260 H   0  0  0  0  0  0  0  0  0  0  0  0
    4.7435   -1.3447    0.9072 H   0  0  0  0  0  0  0  0  0  0  0  0
    7.1129   -2.0092    1.1316 H   0  0  0  0  0  0  0  0  0  0  0  0
    8.3326    1.4720   -1.0517 H   0  0  0  0  0  0  0  0  0  0  0  0
  1  2  2  0
  2  3  1  0
  4  3  1  1
  4  5  1  0
  5  6  1  0
  6  7  1  0
  7  8  1  0
  8  9  1  0
  9 10  1  0
 10 11  1  0
 10 12  1  0
  8 13  1  0
  2 14  1  0
 14 15  1  0
 15 16  2  0
 16 17  1  0
 17 18  1  0
 18 19  1  0
 19 20  2  0
 20 21  1  0
 21 22  1  0
 21 23  2  0
 23 24  1  0
 24 25  1  0
 17 26  1  0
 12  4  1  0
 26 14  2  0
 13  4  1  0
 24 18  2  0
 11  6  1  0
  3 27  1  0
  5 28  1  0
  5 29  1  0
  6 30  1  6
  7 31  1  0
  7 32  1  0
  8 33  1  1
  9 34  1  0
  9 35  1  0
 10 36  1  6
 11 37  1  0
 11 38  1  0
 12 39  1  0
 12 40  1  0
 13 41  1  0
 13 42  1  0
 15 43  1  0
 16 44  1  0
 19 45  1  0
 20 46  1  0
 23 47  1  0
M  END
>  <_SMILES>  (20) 
O=C(N[C@]12C[C@H]3C[C@H](C[C@H](C3)C1)C2)c1ccn(-c2ccc(F)cc2F)n1

$$$$

     RDKit          3D

 60 65  0  0  0  0  0  0  0  0999 V2000
   -0.5680    2.2832   -0.1786 C   0  0  0  0  0  0  0  0  0  0  0  0
   -1.2585    0.9726   -0.3233 C   0  0  0  0  0  0  0  0  0  0  0  0
   -0.6748   -0.2731   -0.6909 C   0  0  0  0  0  0  0  0  0  0  0  0
    0.7491   -0.5794   -0.9385 C   0  0  0  0  0  0  0  0  0  0  0  0
    1.1277   -1.2781   -1.8720 O   0  0  0  0  0  0  0  0  0  0  0  0
    1.6047   -0.0220   -0.0017 N   0  0  0  0  0  0  0  0  0  0  0  0
    3.0503   -0.2563    0.0463 C   0  0  2  0  0  0  0  0  0  0  0  0
    3.7579    0.2073   -1.2526 C   0  0  0  0  0  0  0  0  0  0  0  0
    5.2789   -0.0026   -1.1458 C   0  0  1  0  0  0  0  0  0  0  0  0
    5.8245    0.8200    0.0314 C   0  0  0  0  0  0  0  0  0  0  0  0
    5.1549    0.3704    1.3389 C   0  0  2  0  0  0  0  0  0  0  0  0
    5.4482   -1.1194    1.5755 C   0  0  0  0  0  0  0  0  0  0  0  0
    4.9012   -1.9545    0.4069 C   0  0  2  0  0  0  0  0  0  0  0  0
    5.5675   -1.4937   -0.9008 C   0  0  0  0  0  0  0  0  0  0  0  0
    3.3799   -1.7473    0.3017 C   0  0  0  0  0  0  0  0  0  0  0  0
    3.6359    0.5727    1.2222 C   0  0  0  0  0  0  0  0  0  0  0  0
   -1.6128   -1.2187   -0.8139 N   0  0  0  0  0  0  0  0  0  0  0  0
   -2.7880   -0.6427   -0.4803 N   0  0  0  0  0  0  0  0  0  0  0  0
   -3.9550   -1.4575   -0.3874 C   0  0  0  0  0  0  0  0  0  0  0  0
   -5.0278   -1.1088    0.4471 C   0  0  0  0  0  0  0  0  0  0  0  0
   -6.1442   -1.9411    0.5364 C   0  0  0  0  0  0  0  0  0  0  0  0
   -7.1534   -1.5957    1.3458 F   0  0  0  0  0  0  0  0  0  0  0  0
   -6.2246   -3.1222   -0.1833 C   0  0  0  0  0  0  0  0  0  0  0  0
   -5.1620   -3.4722   -1.0027 C   0  0  0  0  0  0  0  0  0  0  0  0
   -5.2360   -4.6085   -1.7099 F   0  0  0  0  0  0  0  0  0  0  0  0
   -4.0331   -2.6586   -1.1082 C   0  0  0  0  0  0  0  0  0  0  0  0
   -3.0709   -3.0404   -1.9602 F   0  0  0  0  0  0  0  0  0  0  0  0
   -2.6205    0.7164   -0.2035 C   0  0  0  0  0  0  0  0  0  0  0  0
   -3.6890    1.6889    0.0271 C   0  0  0  0  0  0  0  0  0  0  0  0
   -3.7793    2.3599    1.2537 C   0  0  0  0  0  0  0  0  0  0  0  0
   -4.7946    3.2925    1.4730 C   0  0  0  0  0  0  0  0  0  0  0  0
   -5.7188    3.5673    0.4661 C   0  0  0  0  0  0  0  0  0  0  0  0
   -5.6265    2.9156   -0.7627 C   0  0  0  0  0  0  0  0  0  0  0  0
   -4.6123    1.9824   -0.9847 C   0  0  0  0  0  0  0  0  0  0  0  0
   -0.2244    2.4173    0.8519 H   0  0  0  0  0  0  0  0  0  0  0  0
    0.2978    2.3503   -0.8449 H   0  0  0  0  0  0  0  0  0  0  0  0
   -1.2310    3.1167   -0.4306 H   0  0  0  0  0  0  0  0  0  0  0  0
    1.1649    0.3128    0.8449 H   0  0  0  0  0  0  0  0  0  0  0  0
    3.5386    1.2659   -1.4441 H   0  0  0  0  0  0  0  0  0  0  0  0
    3.3871   -0.3444   -2.1237 H   0  0  0  0  0  0  0  0  0  0  0  0
    5.7615    0.3191   -2.0755 H   0  0  0  0  0  0  0  0  0  0  0  0
    6.9118    0.6949    0.1045 H   0  0  0  0  0  0  0  0  0  0  0  0
    5.6375    1.8875   -0.1383 H   0  0  0  0  0  0  0  0  0  0  0  0
    5.5439    0.9613    2.1757 H   0  0  0  0  0  0  0  0  0  0  0  0
    4.9904   -1.4471    2.5170 H   0  0  0  0  0  0  0  0  0  0  0  0
    6.5291   -1.2773    1.6753 H   0  0  0  0  0  0  0  0  0  0  0  0
    5.1177   -3.0149    0.5781 H   0  0  0  0  0  0  0  0  0  0  0  0
    5.1947   -2.0908   -1.7420 H   0  0  0  0  0  0  0  0  0  0  0  0
    6.6504   -1.6606   -0.8473 H   0  0  0  0  0  0  0  0  0  0  0  0
    2.8919   -2.0891    1.2239 H   0  0  0  0  0  0  0  0  0  0  0  0
    2.9872   -2.3782   -0.5046 H   0  0  0  0  0  0  0  0  0  0  0  0
    3.1532    0.2831    2.1654 H   0  0  0  0  0  0  0  0  0  0  0  0
    3.4130    1.6387    1.0798 H   0  0  0  0  0  0  0  0  0  0  0  0
   -5.0230   -0.2281    1.0787 H   0  0  0  0  0  0  0  0  0  0  0  0
   -7.0965   -3.7609   -0.1064 H   0  0  0  0  0  0  0  0  0  0  0  0
   -3.0653    2.1558    2.0481 H   0  0  0  0  0  0  0  0  0  0  0  0
   -4.8646    3.8062    2.4286 H   0  0  0  0  0  0  0  0  0  0  0  0
   -6.5088    4.2947    0.6369 H   0  0  0  0  0  0  0  0  0  0  0  0
   -6.3419    3.1378   -1.5508 H   0  0  0  0  0  0  0  0  0  0  0  0
   -4.5457    1.4930   -1.9542 H   0  0  0  0  0  0  0  0  0  0  0  0
  1  2  1  0
  2  3  1  0
  3  4  1  0
  4  5  2  0
  4  6  1  0
  7  6  1  6
  7  8  1  0
  8  9  1  0
  9 10  1  0
 10 11  1  0
 11 12  1  0
 12 13  1  0
 13 14  1  0
 13 15  1  0
 11 16  1  0
  3 17  2  0
 17 18  1  0
 18 19  1  0
 19 20  2  0
 20 21  1  0
 21 22  1  0
 21 23  2  0
 23 24  1  0
 24 25  1  0
 24 26  2  0
 26 27  1  0
 18 28  1  0
 28 29  1  0
 29 30  2  0
 30 31  1  0
 31 32  2  0
 32 33  1  0
 33 34  2  0
 28  2  2  0
 34 29  1  0
 15  7  1  0
 26 19  1  0
 16  7  1  0
 14  9  1  0
  1 35  1  0
  1 36  1  0
  1 37  1  0
  6 38  1  0
  8 39  1  0
  8 40  1  0
  9 41  1  6
 10 42  1  0
 10 43  1  0
 11 44  1  1
 12 45  1  0
 12 46  1  0
 13 47  1  1
 14 48  1  0
 14 49  1  0
 15 50  1  0
 15 51  1  0
 16 52  1  0
 16 53  1  0
 20 54  1  0
 23 55  1  0
 30 56  1  0
 31 57  1  0
 32 58  1  0
 33 59  1  0
 34 60  1  0
M  END
>  <_SMILES>  (21) 
Cc1c(C(=O)N[C@]23C[C@H]4C[C@H](C[C@H](C4)C2)C3)nn(-c2cc(F)cc(F)c2F)c1-c1ccccc1

$$$$

     RDKit          3D

 57 61  0  0  0  0  0  0  0  0999 V2000
    0.4029   -0.0452   -4.3880 C   0  0  0  0  0  0  0  0  0  0  0  0
   -0.2359   -0.5708   -3.1537 C   0  0  0  0  0  0  0  0  0  0  0  0
    0.3154   -0.5362   -1.8368 C   0  0  0  0  0  0  0  0  0  0  0  0
    1.6151    0.0218   -1.4098 C   0  0  0  0  0  0  0  0  0  0  0  0
    2.4292    0.5050   -2.1900 O   0  0  0  0  0  0  0  0  0  0  0  0
    1.8090   -0.0700   -0.0480 N   0  0  0  0  0  0  0  0  0  0  0  0
    3.0343    0.2651    0.6359 C   0  0  2  0  0  0  0  0  0  0  0  0
    4.2288   -0.6720    0.2533 C   0  0  0  0  0  0  0  0  0  0  0  0
    5.5191   -0.3109    1.0458 C   0  0  2  0  0  0  0  0  0  0  0  0
    5.2229   -0.3167    2.5463 C   0  0  0  0  0  0  0  0  0  0  0  0
    4.1869    0.8119    2.6405 C   0  0  2  0  0  0  0  0  0  0  0  0
    2.8470    0.2371    2.1635 C   0  0  0  0  0  0  0  0  0  0  0  0
    4.6009    1.8178    1.5105 C   0  0  1  0  0  0  0  0  0  0  0  0
    5.8365    1.1748    0.8635 C   0  0  0  0  0  0  0  0  0  0  0  0
    3.4581    1.7361    0.4877 C   0  0  0  0  0  0  0  0  0  0  0  0
   -0.5170   -1.1119   -0.9458 N   0  0  0  0  0  0  0  0  0  0  0  0
   -1.5872   -1.4836   -1.6756 N   0  0  0  0  0  0  0  0  0  0  0  0
   -2.6997   -2.1531   -1.0038 C   0  0  0  0  0  0  0  0  0  0  0  0
   -3.7194   -1.1753   -0.4913 C   0  0  0  0  0  0  0  0  0  0  0  0
   -4.1074   -1.1033    0.7926 C   0  0  0  0  0  0  0  0  0  0  0  0
   -5.1033   -0.1454    1.2893 C   0  0  0  0  0  0  0  0  0  0  0  0
   -6.0299   -0.5654    2.2520 C   0  0  0  0  0  0  0  0  0  0  0  0
   -6.9745    0.3266    2.7659 C   0  0  0  0  0  0  0  0  0  0  0  0
   -6.9935    1.6501    2.3307 C   0  0  0  0  0  0  0  0  0  0  0  0
   -6.0655    2.0838    1.3862 C   0  0  0  0  0  0  0  0  0  0  0  0
   -5.1214    1.1917    0.8714 C   0  0  0  0  0  0  0  0  0  0  0  0
   -1.4693   -1.1868   -3.0119 C   0  0  0  0  0  0  0  0  0  0  0  0
   -2.5209   -1.5122   -4.0104 C   0  0  0  0  0  0  0  0  0  0  0  0
    1.3691   -0.5319   -4.5555 H   0  0  0  0  0  0  0  0  0  0  0  0
   -0.2123   -0.2206   -5.2747 H   0  0  0  0  0  0  0  0  0  0  0  0
    0.5660    1.0340   -4.3031 H   0  0  0  0  0  0  0  0  0  0  0  0
    1.0715   -0.5792    0.4351 H   0  0  0  0  0  0  0  0  0  0  0  0
    4.4385   -0.5981   -0.8205 H   0  0  0  0  0  0  0  0  0  0  0  0
    3.9571   -1.7160    0.4547 H   0  0  0  0  0  0  0  0  0  0  0  0
    6.3564   -0.9600    0.7764 H   0  0  0  0  0  0  0  0  0  0  0  0
    6.1202   -0.0668    3.1252 H   0  0  0  0  0  0  0  0  0  0  0  0
    4.8492   -1.2820    2.9024 H   0  0  0  0  0  0  0  0  0  0  0  0
    4.1281    1.2515    3.6391 H   0  0  0  0  0  0  0  0  0  0  0  0
    2.0161    0.8834    2.4753 H   0  0  0  0  0  0  0  0  0  0  0  0
    2.6408   -0.7675    2.5491 H   0  0  0  0  0  0  0  0  0  0  0  0
    4.7865    2.8372    1.8574 H   0  0  0  0  0  0  0  0  0  0  0  0
    5.9744    1.4545   -0.1858 H   0  0  0  0  0  0  0  0  0  0  0  0
    6.7463    1.4518    1.4098 H   0  0  0  0  0  0  0  0  0  0  0  0
    3.7752    1.9994   -0.5265 H   0  0  0  0  0  0  0  0  0  0  0  0
    2.6413    2.4158    0.7628 H   0  0  0  0  0  0  0  0  0  0  0  0
   -2.2708   -2.7630   -0.2000 H   0  0  0  0  0  0  0  0  0  0  0  0
   -3.1622   -2.8377   -1.7219 H   0  0  0  0  0  0  0  0  0  0  0  0
   -4.1534   -0.5071   -1.2315 H   0  0  0  0  0  0  0  0  0  0  0  0
   -3.6920   -1.7816    1.5347 H   0  0  0  0  0  0  0  0  0  0  0  0
   -6.0298   -1.5940    2.6052 H   0  0  0  0  0  0  0  0  0  0  0  0
   -7.6933   -0.0120    3.5074 H   0  0  0  0  0  0  0  0  0  0  0  0
   -7.7265    2.3450    2.7321 H   0  0  0  0  0  0  0  0  0  0  0  0
   -6.0703    3.1186    1.0539 H   0  0  0  0  0  0  0  0  0  0  0  0
   -4.3923    1.5563    0.1516 H   0  0  0  0  0  0  0  0  0  0  0  0
   -3.4989   -1.1452   -3.6837 H   0  0  0  0  0  0  0  0  0  0  0  0
   -2.3107   -1.0553   -4.9815 H   0  0  0  0  0  0  0  0  0  0  0  0
   -2.5855   -2.5950   -4.1572 H   0  0  0  0  0  0  0  0  0  0  0  0
  1  2  1  0
  2  3  1  0
  3  4  1  0
  4  5  2  0
  4  6  1  0
  7  6  1  6
  7  8  1  0
  8  9  1  0
  9 10  1  0
 10 11  1  0
 11 12  1  0
 11 13  1  0
 13 14  1  0
 13 15  1  0
  3 16  2  0
 16 17  1  0
 17 18  1  0
 18 19  1  0
 19 20  2  0
 20 21  1  0
 21 22  2  0
 22 23  1  0
 23 24  2  0
 24 25  1  0
 25 26  2  0
 17 27  1  0
 27 28  1  0
 27  2  2  0
 12  7  1  0
 26 21  1  0
 15  7  1  0
 14  9  1  0
  1 29  1  0
  1 30  1  0
  1 31  1  0
  6 32  1  0
  8 33  1  0
  8 34  1  0
  9 35  1  1
 10 36  1  0
 10 37  1  0
 11 38  1  1
 12 39  1  0
 12 40  1  0
 13 41  1  1
 14 42  1  0
 14 43  1  0
 15 44  1  0
 15 45  1  0
 18 46  1  0
 18 47  1  0
 19 48  1  0
 20 49  1  0
 22 50  1  0
 23 51  1  0
 24 52  1  0
 25 53  1  0
 26 54  1  0
 28 55  1  0
 28 56  1  0
 28 57  1  0
M  END
>  <_SMILES>  (22) 
Cc1c(C(=O)N[C@]23C[C@@H]4C[C@H](C2)[C@@H](C4)C3)nn(C/C=C/c2ccccc2)c1C

$$$$

     RDKit          3D

 69 73  0  0  0  0  0  0  0  0999 V2000
    0.2316    3.8627    0.6260 C   0  0  0  0  0  0  0  0  0  0  0  0
    0.9137    2.6170    0.1894 C   0  0  0  0  0  0  0  0  0  0  0  0
    0.2999    1.3553   -0.0699 C   0  0  0  0  0  0  0  0  0  0  0  0
   -1.1294    0.9994    0.0436 C   0  0  0  0  0  0  0  0  0  0  0  0
   -1.9935    1.7979    0.3888 O   0  0  0  0  0  0  0  0  0  0  0  0
   -1.3690   -0.3200   -0.2750 N   0  0  0  0  0  0  0  0  0  0  0  0
   -2.6591   -0.9998   -0.2377 C   0  0  1  0  0  0  0  0  0  0  0  0
   -3.2589   -1.0019    1.1889 C   0  0  0  0  0  0  0  0  0  0  0  0
   -4.5916   -1.7687    1.2135 C   0  0  2  0  0  0  0  0  0  0  0  0
   -4.3526   -3.2204    0.7732 C   0  0  0  0  0  0  0  0  0  0  0  0
   -3.7756   -3.2478   -0.6497 C   0  0  1  0  0  0  0  0  0  0  0  0
   -4.7670   -2.5805   -1.6155 C   0  0  0  0  0  0  0  0  0  0  0  0
   -5.0202   -1.1147   -1.1975 C   0  0  1  0  0  0  0  0  0  0  0  0
   -6.0131   -0.4547   -2.1588 C   0  0  0  0  0  0  0  0  0  0  0  0
   -5.5804   -1.0994    0.2440 C   0  0  0  0  0  0  0  0  0  0  0  0
   -3.6732   -0.3529   -1.2131 C   0  0  0  0  0  0  0  0  0  0  0  0
   -2.4494   -2.4735   -0.6728 C   0  0  0  0  0  0  0  0  0  0  0  0
    1.2118    0.4405   -0.4587 N   0  0  0  0  0  0  0  0  0  0  0  0
    2.3857    1.1016   -0.4188 N   0  0  0  0  0  0  0  0  0  0  0  0
    3.5985    0.3812   -0.7665 C   0  0  0  0  0  0  0  0  0  0  0  0
    4.3779   -0.1442    0.4402 C   0  0  0  0  0  0  0  0  0  0  0  0
    3.6348   -1.1625    1.3123 C   0  0  0  0  0  0  0  0  0  0  0  0
    3.1600   -2.4341    0.5989 C   0  0  0  0  0  0  0  0  0  0  0  0
    4.2634   -3.2300   -0.0882 C   0  0  0  0  0  0  0  0  0  0  0  0
    5.2863   -3.5509    0.8418 O   0  0  0  0  0  0  0  0  0  0  0  0
    2.2644    2.4215   -0.0575 C   0  0  0  0  0  0  0  0  0  0  0  0
    3.3796    3.3542    0.0441 C   0  0  0  0  0  0  0  0  0  0  0  0
    3.9472    3.6385    1.2908 C   0  0  0  0  0  0  0  0  0  0  0  0
    5.0157    4.5312    1.3894 C   0  0  0  0  0  0  0  0  0  0  0  0
    5.5169    5.1485    0.2440 C   0  0  0  0  0  0  0  0  0  0  0  0
    4.9485    4.8775   -1.0002 C   0  0  0  0  0  0  0  0  0  0  0  0
    3.8804    3.9843   -1.1004 C   0  0  0  0  0  0  0  0  0  0  0  0
    0.9297    4.7002    0.7178 H   0  0  0  0  0  0  0  0  0  0  0  0
   -0.5380    4.1511   -0.0972 H   0  0  0  0  0  0  0  0  0  0  0  0
   -0.2435    3.7154    1.6012 H   0  0  0  0  0  0  0  0  0  0  0  0
   -0.5266   -0.8356   -0.5220 H   0  0  0  0  0  0  0  0  0  0  0  0
   -3.4279    0.0219    1.5436 H   0  0  0  0  0  0  0  0  0  0  0  0
   -2.5525   -1.4582    1.8949 H   0  0  0  0  0  0  0  0  0  0  0  0
   -5.0049   -1.7552    2.2284 H   0  0  0  0  0  0  0  0  0  0  0  0
   -5.2937   -3.7828    0.8074 H   0  0  0  0  0  0  0  0  0  0  0  0
   -3.6617   -3.7140    1.4678 H   0  0  0  0  0  0  0  0  0  0  0  0
   -3.6028   -4.2851   -0.9576 H   0  0  0  0  0  0  0  0  0  0  0  0
   -5.7100   -3.1423   -1.6218 H   0  0  0  0  0  0  0  0  0  0  0  0
   -4.3700   -2.6208   -2.6380 H   0  0  0  0  0  0  0  0  0  0  0  0
   -6.9728   -0.9832   -2.1600 H   0  0  0  0  0  0  0  0  0  0  0  0
   -5.6297   -0.4559   -3.1851 H   0  0  0  0  0  0  0  0  0  0  0  0
   -6.2056    0.5860   -1.8754 H   0  0  0  0  0  0  0  0  0  0  0  0
   -6.5440   -1.6240    0.2816 H   0  0  0  0  0  0  0  0  0  0  0  0
   -5.7714   -0.0676    0.5662 H   0  0  0  0  0  0  0  0  0  0  0  0
   -3.8475    0.6971   -0.9469 H   0  0  0  0  0  0  0  0  0  0  0  0
   -3.2564   -0.3427   -2.2296 H   0  0  0  0  0  0  0  0  0  0  0  0
   -1.7238   -2.9633   -0.0094 H   0  0  0  0  0  0  0  0  0  0  0  0
   -2.0154   -2.5117   -1.6810 H   0  0  0  0  0  0  0  0  0  0  0  0
    4.2294    1.0605   -1.3496 H   0  0  0  0  0  0  0  0  0  0  0  0
    3.3197   -0.4343   -1.4434 H   0  0  0  0  0  0  0  0  0  0  0  0
    5.3147   -0.5881    0.0834 H   0  0  0  0  0  0  0  0  0  0  0  0
    4.6700    0.6970    1.0799 H   0  0  0  0  0  0  0  0  0  0  0  0
    2.7666   -0.6792    1.7768 H   0  0  0  0  0  0  0  0  0  0  0  0
    4.2943   -1.4453    2.1425 H   0  0  0  0  0  0  0  0  0  0  0  0
    2.6914   -3.0747    1.3569 H   0  0  0  0  0  0  0  0  0  0  0  0
    2.3802   -2.1938   -0.1312 H   0  0  0  0  0  0  0  0  0  0  0  0
    4.7041   -2.6669   -0.9163 H   0  0  0  0  0  0  0  0  0  0  0  0
    3.8532   -4.1629   -0.4884 H   0  0  0  0  0  0  0  0  0  0  0  0
    5.9315   -4.1110    0.3773 H   0  0  0  0  0  0  0  0  0  0  0  0
    3.5598    3.1655    2.1905 H   0  0  0  0  0  0  0  0  0  0  0  0
    5.4540    4.7475    2.3603 H   0  0  0  0  0  0  0  0  0  0  0  0
    6.3467    5.8464    0.3221 H   0  0  0  0  0  0  0  0  0  0  0  0
    5.3332    5.3663   -1.8916 H   0  0  0  0  0  0  0  0  0  0  0  0
    3.4366    3.7885   -2.0738 H   0  0  0  0  0  0  0  0  0  0  0  0
  1  2  1  0
  2  3  1  0
  3  4  1  0
  4  5  2  0
  4  6  1  0
  7  6  1  1
  7  8  1  0
  8  9  1  0
  9 10  1  0
 10 11  1  0
 11 12  1  0
 12 13  1  0
 13 14  1  6
 13 15  1  0
 13 16  1  0
 11 17  1  0
  3 18  2  0
 18 19  1  0
 19 20  1  0
 20 21  1  0
 21 22  1  0
 22 23  1  0
 23 24  1  0
 24 25  1  0
 19 26  1  0
 26 27  1  0
 27 28  2  0
 28 29  1  0
 29 30  2  0
 30 31  1  0
 31 32  2  0
 26  2  2  0
 32 27  1  0
 16  7  1  0
 17  7  1  0
 15  9  1  0
  1 33  1  0
  1 34  1  0
  1 35  1  0
  6 36  1  0
  8 37  1  0
  8 38  1  0
  9 39  1  1
 10 40  1  0
 10 41  1  0
 11 42  1  6
 12 43  1  0
 12 44  1  0
 14 45  1  0
 14 46  1  0
 14 47  1  0
 15 48  1  0
 15 49  1  0
 16 50  1  0
 16 51  1  0
 17 52  1  0
 17 53  1  0
 20 54  1  0
 20 55  1  0
 21 56  1  0
 21 57  1  0
 22 58  1  0
 22 59  1  0
 23 60  1  0
 23 61  1  0
 24 62  1  0
 24 63  1  0
 25 64  1  0
 28 65  1  0
 29 66  1  0
 30 67  1  0
 31 68  1  0
 32 69  1  0
M  END
>  <_SMILES>  (23) 
Cc1c(C(=O)N[C@@]23C[C@@H]4C[C@@H](C[C@@](C)(C4)C2)C3)nn(CCCCCO)c1-c1ccccc1

$$$$

     RDKit          3D

 74 77  0  0  0  0  0  0  0  0999 V2000
    3.0915    0.6476   -0.1475 O   0  0  0  0  0  0  0  0  0  0  0  0
    2.3054   -0.1661    0.3275 C   0  0  0  0  0  0  0  0  0  0  0  0
    2.6871   -1.1856    1.1760 N   0  0  0  0  0  0  0  0  0  0  0  0
    4.0726   -1.5163    1.4414 C   0  0  0  0  0  0  0  0  0  0  0  0
    4.2041   -2.2306    2.7957 C   0  0  0  0  0  0  0  0  0  0  0  0
    5.4371   -3.1324    2.8970 C   0  0  0  0  0  0  0  0  0  0  0  0
    6.5694   -2.6552    1.9991 C   0  0  0  0  0  0  0  0  0  0  0  0
    6.1563   -2.6359    0.5266 C   0  0  0  0  0  0  0  0  0  0  0  0
    4.6662   -2.3608    0.3110 C   0  0  0  0  0  0  0  0  0  0  0  0
    0.8549   -0.1720    0.0445 C   0  0  0  0  0  0  0  0  0  0  0  0
    0.0662   -1.1415    0.5554 N   0  0  0  0  0  0  0  0  0  0  0  0
   -1.1657   -0.8442    0.1040 N   0  0  0  0  0  0  0  0  0  0  0  0
   -2.2715   -1.7191    0.4645 C   0  0  0  0  0  0  0  0  0  0  0  0
   -2.4511   -2.8543   -0.5419 C   0  0  0  0  0  0  0  0  0  0  0  0
   -3.6248   -3.7767   -0.2038 C   0  0  0  0  0  0  0  0  0  0  0  0
   -4.9895   -3.1012   -0.3813 C   0  0  0  0  0  0  0  0  0  0  0  0
   -6.1415   -4.0788   -0.1729 C   0  0  0  0  0  0  0  0  0  0  0  0
   -6.1435   -4.5720    1.1592 O   0  0  0  0  0  0  0  0  0  0  0  0
   -1.2125    0.2810   -0.6800 C   0  0  0  0  0  0  0  0  0  0  0  0
   -2.4271    0.7993   -1.2972 C   0  0  0  0  0  0  0  0  0  0  0  0
   -3.2920    1.6247   -0.5700 C   0  0  0  0  0  0  0  0  0  0  0  0
   -4.4579    2.1146   -1.1606 C   0  0  0  0  0  0  0  0  0  0  0  0
   -4.7629    1.7841   -2.4805 C   0  0  0  0  0  0  0  0  0  0  0  0
   -3.9014    0.9679   -3.2126 C   0  0  0  0  0  0  0  0  0  0  0  0
   -2.7345    0.4784   -2.6236 C   0  0  0  0  0  0  0  0  0  0  0  0
    0.0940    0.7471   -0.7450 C   0  0  0  0  0  0  0  0  0  0  0  0
    0.5852    1.9495   -1.4935 C   0  0  0  0  0  0  0  0  0  0  0  0
    0.3353    3.2838   -0.7638 C   0  0  0  0  0  0  0  0  0  0  0  0
    1.1816    3.4408    0.5059 C   0  0  0  0  0  0  0  0  0  0  0  0
    0.8402    4.7264    1.2662 C   0  0  0  0  0  0  0  0  0  0  0  0
    0.3095    5.8472    0.3728 C   0  0  0  0  0  0  0  0  0  0  0  0
    0.9106    5.7829   -1.0226 C   0  0  0  0  0  0  0  0  0  0  0  0
    0.5919    4.4617   -1.7269 C   0  0  0  0  0  0  0  0  0  0  0  0
    1.9444   -1.8520    1.3768 H   0  0  0  0  0  0  0  0  0  0  0  0
    4.6302   -0.5714    1.4886 H   0  0  0  0  0  0  0  0  0  0  0  0
    3.3150   -2.8378    3.0095 H   0  0  0  0  0  0  0  0  0  0  0  0
    4.2388   -1.4705    3.5869 H   0  0  0  0  0  0  0  0  0  0  0  0
    5.1610   -4.1555    2.6116 H   0  0  0  0  0  0  0  0  0  0  0  0
    5.7726   -3.1801    3.9392 H   0  0  0  0  0  0  0  0  0  0  0  0
    7.4504   -3.2947    2.1252 H   0  0  0  0  0  0  0  0  0  0  0  0
    6.8707   -1.6457    2.3061 H   0  0  0  0  0  0  0  0  0  0  0  0
    6.7526   -1.8770    0.0055 H   0  0  0  0  0  0  0  0  0  0  0  0
    6.4071   -3.5952    0.0579 H   0  0  0  0  0  0  0  0  0  0  0  0
    4.1261   -3.3153    0.2499 H   0  0  0  0  0  0  0  0  0  0  0  0
    4.5252   -1.8745   -0.6618 H   0  0  0  0  0  0  0  0  0  0  0  0
   -2.0597   -2.1173    1.4641 H   0  0  0  0  0  0  0  0  0  0  0  0
   -3.1695   -1.1014    0.5487 H   0  0  0  0  0  0  0  0  0  0  0  0
   -2.5808   -2.4522   -1.5538 H   0  0  0  0  0  0  0  0  0  0  0  0
   -1.5332   -3.4556   -0.5687 H   0  0  0  0  0  0  0  0  0  0  0  0
   -3.5733   -4.6508   -0.8647 H   0  0  0  0  0  0  0  0  0  0  0  0
   -3.5162   -4.1484    0.8220 H   0  0  0  0  0  0  0  0  0  0  0  0
   -5.0871   -2.2812    0.3385 H   0  0  0  0  0  0  0  0  0  0  0  0
   -5.0621   -2.6726   -1.3874 H   0  0  0  0  0  0  0  0  0  0  0  0
   -7.1017   -3.5878   -0.3607 H   0  0  0  0  0  0  0  0  0  0  0  0
   -6.0589   -4.9315   -0.8541 H   0  0  0  0  0  0  0  0  0  0  0  0
   -6.3164   -3.8195    1.7502 H   0  0  0  0  0  0  0  0  0  0  0  0
   -3.0567    1.8967    0.4565 H   0  0  0  0  0  0  0  0  0  0  0  0
   -5.1242    2.7595   -0.5935 H   0  0  0  0  0  0  0  0  0  0  0  0
   -5.6686    2.1699   -2.9419 H   0  0  0  0  0  0  0  0  0  0  0  0
   -4.1347    0.7175   -4.2443 H   0  0  0  0  0  0  0  0  0  0  0  0
   -2.0650   -0.1520   -3.2045 H   0  0  0  0  0  0  0  0  0  0  0  0
    1.6488    1.8465   -1.7335 H   0  0  0  0  0  0  0  0  0  0  0  0
    0.0735    1.9745   -2.4653 H   0  0  0  0  0  0  0  0  0  0  0  0
   -0.7208    3.3242   -0.4645 H   0  0  0  0  0  0  0  0  0  0  0  0
    2.2449    3.4563    0.2334 H   0  0  0  0  0  0  0  0  0  0  0  0
    1.0471    2.5918    1.1844 H   0  0  0  0  0  0  0  0  0  0  0  0
    0.0922    4.5116    2.0392 H   0  0  0  0  0  0  0  0  0  0  0  0
    1.7372    5.0676    1.7973 H   0  0  0  0  0  0  0  0  0  0  0  0
    0.5220    6.8178    0.8349 H   0  0  0  0  0  0  0  0  0  0  0  0
   -0.7826    5.7695    0.2990 H   0  0  0  0  0  0  0  0  0  0  0  0
    1.9994    5.8987   -0.9485 H   0  0  0  0  0  0  0  0  0  0  0  0
    0.5503    6.6201   -1.6311 H   0  0  0  0  0  0  0  0  0  0  0  0
    1.4164    4.2315   -2.4136 H   0  0  0  0  0  0  0  0  0  0  0  0
   -0.2976    4.5920   -2.3566 H   0  0  0  0  0  0  0  0  0  0  0  0
  1  2  2  0
  2  3  1  0
  3  4  1  0
  4  5  1  0
  5  6  1  0
  6  7  1  0
  7  8  1  0
  8  9  1  0
  2 10  1  0
 10 11  2  0
 11 12  1  0
 12 13  1  0
 13 14  1  0
 14 15  1  0
 15 16  1  0
 16 17  1  0
 17 18  1  0
 12 19  1  0
 19 20  1  0
 20 21  2  0
 21 22  1  0
 22 23  2  0
 23 24  1  0
 24 25  2  0
 19 26  2  0
 26 27  1  0
 27 28  1  0
 28 29  1  0
 29 30  1  0
 30 31  1  0
 31 32  1  0
 32 33  1  0
  9  4  1  0
 26 10  1  0
 33 28  1  0
 25 20  1  0
  3 34  1  0
  4 35  1  0
  5 36  1  0
  5 37  1  0
  6 38  1  0
  6 39  1  0
  7 40  1  0
  7 41  1  0
  8 42  1  0
  8 43  1  0
  9 44  1  0
  9 45  1  0
 13 46  1  0
 13 47  1  0
 14 48  1  0
 14 49  1  0
 15 50  1  0
 15 51  1  0
 16 52  1  0
 16 53  1  0
 17 54  1  0
 17 55  1  0
 18 56  1  0
 21 57  1  0
 22 58  1  0
 23 59  1  0
 24 60  1  0
 25 61  1  0
 27 62  1  0
 27 63  1  0
 28 64  1  0
 29 65  1  0
 29 66  1  0
 30 67  1  0
 30 68  1  0
 31 69  1  0
 31 70  1  0
 32 71  1  0
 32 72  1  0
 33 73  1  0
 33 74  1  0
M  END
>  <_SMILES>  (24) 
O=C(NC1CCCCC1)c1nn(CCCCCO)c(-c2ccccc2)c1CC1CCCCC1

$$$$

     RDKit          3D

 51 55  0  0  0  0  0  0  0  0999 V2000
    5.2000   -1.8119    0.7644 C   0  0  0  0  0  0  0  0  0  0  0  0
    5.7261   -0.4146    0.5761 C   0  0  0  0  0  0  0  0  0  0  0  0
    7.0617   -0.1433    0.9216 C   0  0  0  0  0  0  0  0  0  0  0  0
    7.5986    1.1350    0.7632 C   0  0  0  0  0  0  0  0  0  0  0  0
    6.8077    2.1638    0.2627 C   0  0  0  0  0  0  0  0  0  0  0  0
    5.4772    1.9148   -0.0745 C   0  0  0  0  0  0  0  0  0  0  0  0
    4.9234    0.6335    0.0824 C   0  0  0  0  0  0  0  0  0  0  0  0
    3.5257    0.4363   -0.2645 C   0  0  0  0  0  0  0  0  0  0  0  0
    3.0208    0.6449   -1.5307 C   0  0  0  0  0  0  0  0  0  0  0  0
    1.6841    0.3456   -1.5092 N   0  0  0  0  0  0  0  0  0  0  0  0
    1.2946   -0.0205   -0.2385 C   0  0  0  0  0  0  0  0  0  0  0  0
   -0.0427   -0.4090    0.1606 C   0  0  0  0  0  0  0  0  0  0  0  0
   -0.2623   -1.1167    1.1359 O   0  0  0  0  0  0  0  0  0  0  0  0
   -1.0400    0.1160   -0.6390 N   0  0  0  0  0  0  0  0  0  0  0  0
   -2.4760   -0.0594   -0.3872 C   0  0  2  0  0  0  0  0  0  0  0  0
   -3.2554    0.6438   -1.5328 C   0  0  0  0  0  0  0  0  0  0  0  0
   -4.7733    0.5100   -1.3331 C   0  0  1  0  0  0  0  0  0  0  0  0
   -5.1496   -0.9793   -1.3176 C   0  0  0  0  0  0  0  0  0  0  0  0
   -4.4094   -1.6941   -0.1768 C   0  0  2  0  0  0  0  0  0  0  0  0
   -4.7963   -1.0470    1.1641 C   0  0  0  0  0  0  0  0  0  0  0  0
   -4.4240    0.4455    1.1593 C   0  0  2  0  0  0  0  0  0  0  0  0
   -5.1632    1.1481    0.0094 C   0  0  0  0  0  0  0  0  0  0  0  0
   -2.9059    0.5893    0.9515 C   0  0  0  0  0  0  0  0  0  0  0  0
   -2.8912   -1.5532   -0.3872 C   0  0  0  0  0  0  0  0  0  0  0  0
    2.4398    0.0078    0.5423 C   0  0  0  0  0  0  0  0  0  0  0  0
    4.6473   -2.1451   -0.1198 H   0  0  0  0  0  0  0  0  0  0  0  0
    4.5515   -1.8577    1.6445 H   0  0  0  0  0  0  0  0  0  0  0  0
    6.0171   -2.5267    0.9123 H   0  0  0  0  0  0  0  0  0  0  0  0
    7.6966   -0.9342    1.3159 H   0  0  0  0  0  0  0  0  0  0  0  0
    8.6340    1.3258    1.0326 H   0  0  0  0  0  0  0  0  0  0  0  0
    7.2219    3.1608    0.1409 H   0  0  0  0  0  0  0  0  0  0  0  0
    4.8656    2.7320   -0.4503 H   0  0  0  0  0  0  0  0  0  0  0  0
    3.5032    0.9548   -2.4486 H   0  0  0  0  0  0  0  0  0  0  0  0
    1.0771    0.3497   -2.3176 H   0  0  0  0  0  0  0  0  0  0  0  0
   -0.7836    0.9418   -1.1598 H   0  0  0  0  0  0  0  0  0  0  0  0
   -2.9835    1.7071   -1.5772 H   0  0  0  0  0  0  0  0  0  0  0  0
   -2.9690    0.2147   -2.5024 H   0  0  0  0  0  0  0  0  0  0  0  0
   -5.3002    1.0159   -2.1498 H   0  0  0  0  0  0  0  0  0  0  0  0
   -6.2333   -1.0911   -1.1897 H   0  0  0  0  0  0  0  0  0  0  0  0
   -4.8931   -1.4414   -2.2788 H   0  0  0  0  0  0  0  0  0  0  0  0
   -4.6832   -2.7551   -0.1676 H   0  0  0  0  0  0  0  0  0  0  0  0
   -4.2844   -1.5583    1.9886 H   0  0  0  0  0  0  0  0  0  0  0  0
   -5.8732   -1.1628    1.3377 H   0  0  0  0  0  0  0  0  0  0  0  0
   -4.7099    0.9007    2.1141 H   0  0  0  0  0  0  0  0  0  0  0  0
   -4.9163    2.2169    0.0027 H   0  0  0  0  0  0  0  0  0  0  0  0
   -6.2472    1.0728    0.1593 H   0  0  0  0  0  0  0  0  0  0  0  0
   -2.6264    1.6510    0.9632 H   0  0  0  0  0  0  0  0  0  0  0  0
   -2.3834    0.1257    1.7967 H   0  0  0  0  0  0  0  0  0  0  0  0
   -2.5992   -2.0256   -1.3343 H   0  0  0  0  0  0  0  0  0  0  0  0
   -2.3746   -2.1083    0.4036 H   0  0  0  0  0  0  0  0  0  0  0  0
    2.4756   -0.2490    1.5945 H   0  0  0  0  0  0  0  0  0  0  0  0
  1  2  1  0
  2  3  2  0
  3  4  1  0
  4  5  2  0
  5  6  1  0
  6  7  2  0
  7  8  1  0
  8  9  2  0
  9 10  1  0
 10 11  1  0
 11 12  1  0
 12 13  2  0
 12 14  1  0
 15 14  1  6
 15 16  1  0
 16 17  1  0
 17 18  1  0
 18 19  1  0
 19 20  1  0
 20 21  1  0
 21 22  1  0
 21 23  1  0
 19 24  1  0
 11 25  2  0
  7  2  1  0
 25  8  1  0
 23 15  1  0
 24 15  1  0
 22 17  1  0
  1 26  1  0
  1 27  1  0
  1 28  1  0
  3 29  1  0
  4 30  1  0
  5 31  1  0
  6 32  1  0
  9 33  1  0
 10 34  1  0
 14 35  1  0
 16 36  1  0
 16 37  1  0
 17 38  1  6
 18 39  1  0
 18 40  1  0
 19 41  1  1
 20 42  1  0
 20 43  1  0
 21 44  1  1
 22 45  1  0
 22 46  1  0
 23 47  1  0
 23 48  1  0
 24 49  1  0
 24 50  1  0
 25 51  1  0
M  END
>  <_SMILES>  (25) 
Cc1ccccc1-c1c[nH]c(C(=O)N[C@]23C[C@H]4C[C@H](C[C@H](C4)C2)C3)c1

$$$$

     RDKit          3D

 58 63  0  0  0  0  0  0  0  0999 V2000
   -0.8500    3.0848    0.9160 C   0  0  0  0  0  0  0  0  0  0  0  0
   -1.1134    1.6583    0.5861 C   0  0  0  0  0  0  0  0  0  0  0  0
   -0.1368    0.6847    0.2428 C   0  0  0  0  0  0  0  0  0  0  0  0
    1.3307    0.8452    0.1965 C   0  0  0  0  0  0  0  0  0  0  0  0
    1.9050    1.8768    0.5284 O   0  0  0  0  0  0  0  0  0  0  0  0
    1.9763   -0.2922   -0.2418 N   0  0  0  0  0  0  0  0  0  0  0  0
    3.4040   -0.4804   -0.2335 C   0  0  1  0  0  0  0  0  0  0  0  0
    3.8062   -1.8075   -0.9156 C   0  0  0  0  0  0  0  0  0  0  0  0
    5.2535   -1.5126   -1.3112 C   0  0  2  0  0  0  0  0  0  0  0  0
    6.1067   -1.2629   -0.0353 C   0  0  0  0  0  0  0  0  0  0  0  0
    5.4824   -0.1545    0.8595 C   0  0  1  0  0  0  0  0  0  0  0  0
    5.2567    1.1121    0.0295 C   0  0  0  0  0  0  0  0  0  0  0  0
    4.2440    0.6080   -1.0119 C   0  0  1  0  0  0  0  0  0  0  0  0
    5.0381   -0.1942   -2.0554 C   0  0  0  0  0  0  0  0  0  0  0  0
    4.0274   -0.5068    1.1788 C   0  0  0  0  0  0  0  0  0  0  0  0
   -0.7091   -0.4824   -0.0983 N   0  0  0  0  0  0  0  0  0  0  0  0
   -2.0366   -0.3243    0.1709 N   0  0  0  0  0  0  0  0  0  0  0  0
   -2.8875   -1.4620    0.0392 C   0  0  0  0  0  0  0  0  0  0  0  0
   -2.5416   -2.4379   -0.9145 C   0  0  0  0  0  0  0  0  0  0  0  0
   -3.3618   -3.5477   -1.1274 C   0  0  0  0  0  0  0  0  0  0  0  0
   -4.5240   -3.7064   -0.3782 C   0  0  0  0  0  0  0  0  0  0  0  0
   -4.8542   -2.7695    0.6009 C   0  0  0  0  0  0  0  0  0  0  0  0
   -4.0307   -1.6599    0.8196 C   0  0  0  0  0  0  0  0  0  0  0  0
   -4.3112   -0.8522    1.8824 O   0  0  0  0  0  0  0  0  0  0  0  0
   -2.3372    1.0043    0.4789 C   0  0  0  0  0  0  0  0  0  0  0  0
   -3.6817    1.5884    0.5357 C   0  0  0  0  0  0  0  0  0  0  0  0
   -4.1238    2.2449    1.6926 C   0  0  0  0  0  0  0  0  0  0  0  0
   -5.3962    2.8185    1.7409 C   0  0  0  0  0  0  0  0  0  0  0  0
   -6.2356    2.7471    0.6307 C   0  0  0  0  0  0  0  0  0  0  0  0
   -5.8033    2.1051   -0.5287 C   0  0  0  0  0  0  0  0  0  0  0  0
   -4.5306    1.5316   -0.5780 C   0  0  0  0  0  0  0  0  0  0  0  0
   -0.3910    3.1649    1.9065 H   0  0  0  0  0  0  0  0  0  0  0  0
   -0.1734    3.5330    0.1811 H   0  0  0  0  0  0  0  0  0  0  0  0
   -1.7634    3.6857    0.9165 H   0  0  0  0  0  0  0  0  0  0  0  0
    1.3568   -1.0907   -0.3631 H   0  0  0  0  0  0  0  0  0  0  0  0
    3.7149   -2.6772   -0.2558 H   0  0  0  0  0  0  0  0  0  0  0  0
    3.1909   -2.0038   -1.8035 H   0  0  0  0  0  0  0  0  0  0  0  0
    5.6871   -2.2911   -1.9442 H   0  0  0  0  0  0  0  0  0  0  0  0
    6.1858   -2.1938    0.5387 H   0  0  0  0  0  0  0  0  0  0  0  0
    7.1214   -0.9672   -0.3274 H   0  0  0  0  0  0  0  0  0  0  0  0
    6.0803    0.0273    1.7564 H   0  0  0  0  0  0  0  0  0  0  0  0
    6.1800    1.4979   -0.4143 H   0  0  0  0  0  0  0  0  0  0  0  0
    4.8177    1.9089    0.6417 H   0  0  0  0  0  0  0  0  0  0  0  0
    3.6696    1.4185   -1.4675 H   0  0  0  0  0  0  0  0  0  0  0  0
    4.4385   -0.3473   -2.9609 H   0  0  0  0  0  0  0  0  0  0  0  0
    5.9770    0.2856   -2.3498 H   0  0  0  0  0  0  0  0  0  0  0  0
    3.5838    0.2467    1.8405 H   0  0  0  0  0  0  0  0  0  0  0  0
    3.9256   -1.4770    1.6772 H   0  0  0  0  0  0  0  0  0  0  0  0
   -1.6461   -2.3272   -1.5236 H   0  0  0  0  0  0  0  0  0  0  0  0
   -3.0918   -4.2851   -1.8793 H   0  0  0  0  0  0  0  0  0  0  0  0
   -5.1605   -4.5727   -0.5399 H   0  0  0  0  0  0  0  0  0  0  0  0
   -5.7381   -2.9375    1.2096 H   0  0  0  0  0  0  0  0  0  0  0  0
   -5.2387   -0.9743    2.1432 H   0  0  0  0  0  0  0  0  0  0  0  0
   -3.4806    2.2994    2.5678 H   0  0  0  0  0  0  0  0  0  0  0  0
   -5.7291    3.3220    2.6446 H   0  0  0  0  0  0  0  0  0  0  0  0
   -7.2243    3.1971    0.6665 H   0  0  0  0  0  0  0  0  0  0  0  0
   -6.4533    2.0557   -1.3983 H   0  0  0  0  0  0  0  0  0  0  0  0
   -4.2045    1.0458   -1.4947 H   0  0  0  0  0  0  0  0  0  0  0  0
  1  2  1  0
  2  3  1  0
  3  4  1  0
  4  5  2  0
  4  6  1  0
  7  6  1  1
  7  8  1  0
  8  9  1  0
  9 10  1  0
 10 11  1  0
 11 12  1  0
 12 13  1  0
 13 14  1  0
 11 15  1  0
  3 16  2  0
 16 17  1  0
 17 18  1  0
 18 19  2  0
 19 20  1  0
 20 21  2  0
 21 22  1  0
 22 23  2  0
 23 24  1  0
 17 25  1  0
 25 26  1  0
 26 27  2  0
 27 28  1  0
 28 29  2  0
 29 30  1  0
 30 31  2  0
 25  2  2  0
 31 26  1  0
 13  7  1  0
 23 18  1  0
 15  7  1  0
 14  9  1  0
  1 32  1  0
  1 33  1  0
  1 34  1  0
  6 35  1  0
  8 36  1  0
  8 37  1  0
  9 38  1  6
 10 39  1  0
 10 40  1  0
 11 41  1  1
 12 42  1  0
 12 43  1  0
 13 44  1  6
 14 45  1  0
 14 46  1  0
 15 47  1  0
 15 48  1  0
 19 49  1  0
 20 50  1  0
 21 51  1  0
 22 52  1  0
 24 53  1  0
 27 54  1  0
 28 55  1  0
 29 56  1  0
 30 57  1  0
 31 58  1  0
M  END
>  <_SMILES>  (26) 
Cc1c(C(=O)N[C@@]23C[C@@H]4C[C@@H](C[C@H]2C4)C3)nn(-c2ccccc2O)c1-c1ccccc1

$$$$

     RDKit          3D

 66 71  0  0  0  0  0  0  0  0999 V2000
   -1.9123   -2.1296    2.6465 C   0  0  0  0  0  0  0  0  0  0  0  0
   -1.8502   -1.2986    1.4151 C   0  0  0  0  0  0  0  0  0  0  0  0
   -0.6737   -0.9112    0.7149 C   0  0  0  0  0  0  0  0  0  0  0  0
    0.7281   -1.2349    1.0449 C   0  0  0  0  0  0  0  0  0  0  0  0
    1.0603   -1.8732    2.0390 O   0  0  0  0  0  0  0  0  0  0  0  0
    1.6236   -0.7291    0.1249 N   0  0  0  0  0  0  0  0  0  0  0  0
    3.0682   -0.7332    0.3253 C   0  0  2  0  0  0  0  0  0  0  0  0
    3.4505    0.3678    1.3226 C   0  0  0  0  0  0  0  0  0  0  0  0
    4.8201    1.0409    1.1796 C   0  0  2  0  0  0  0  0  0  0  0  0
    4.7979    2.1158    0.0848 C   0  0  0  0  0  0  0  0  0  0  0  0
    4.9847    1.5499   -1.3225 C   0  0  1  0  0  0  0  0  0  0  0  0
    6.3130    0.7949   -1.3744 C   0  0  0  0  0  0  0  0  0  0  0  0
    6.2487   -0.4045   -0.4287 C   0  0  1  0  0  0  0  0  0  0  0  0
    5.9890    0.0567    1.0141 C   0  0  0  0  0  0  0  0  0  0  0  0
    5.1774   -1.3693   -0.9361 C   0  0  0  0  0  0  0  0  0  0  0  0
    3.7817   -0.7341   -1.0419 C   0  0  2  0  0  0  0  0  0  0  0  0
    3.8240    0.6356   -1.7456 C   0  0  0  0  0  0  0  0  0  0  0  0
   -0.9752   -0.1518   -0.3553 N   0  0  0  0  0  0  0  0  0  0  0  0
   -2.3250   -0.0652   -0.3510 N   0  0  0  0  0  0  0  0  0  0  0  0
   -2.9310    0.7125   -1.4197 C   0  0  0  0  0  0  0  0  0  0  0  0
   -3.5426    2.0457   -0.9693 C   0  0  0  0  0  0  0  0  0  0  0  0
   -4.7117    2.2666   -1.9181 C   0  0  0  0  0  0  0  0  0  0  0  0
   -5.2539    0.8652   -2.1452 C   0  0  0  0  0  0  0  0  0  0  0  0
   -4.0037    0.0001   -2.2599 C   0  0  0  0  0  0  0  0  0  0  0  0
   -2.9036   -0.7357    0.7057 C   0  0  0  0  0  0  0  0  0  0  0  0
   -4.3315   -0.8225    0.9940 C   0  0  0  0  0  0  0  0  0  0  0  0
   -4.9507    0.1355    1.8042 C   0  0  0  0  0  0  0  0  0  0  0  0
   -6.3101    0.0328    2.1057 C   0  0  0  0  0  0  0  0  0  0  0  0
   -7.0545   -1.0384    1.6142 C   0  0  0  0  0  0  0  0  0  0  0  0
   -6.4391   -2.0128    0.8301 C   0  0  0  0  0  0  0  0  0  0  0  0
   -5.0798   -1.9098    0.5281 C   0  0  0  0  0  0  0  0  0  0  0  0
   -2.9414   -2.2952    2.9790 H   0  0  0  0  0  0  0  0  0  0  0  0
   -1.4594   -3.1102    2.4684 H   0  0  0  0  0  0  0  0  0  0  0  0
   -1.3740   -1.6398    3.4643 H   0  0  0  0  0  0  0  0  0  0  0  0
    1.1979   -0.1171   -0.5677 H   0  0  0  0  0  0  0  0  0  0  0  0
    3.2884   -1.6931    0.8121 H   0  0  0  0  0  0  0  0  0  0  0  0
    2.6804    1.1521    1.3255 H   0  0  0  0  0  0  0  0  0  0  0  0
    3.3932   -0.0697    2.3299 H   0  0  0  0  0  0  0  0  0  0  0  0
    4.9809    1.5712    2.1294 H   0  0  0  0  0  0  0  0  0  0  0  0
    3.8731    2.7034    0.1357 H   0  0  0  0  0  0  0  0  0  0  0  0
    5.6127    2.8256    0.2832 H   0  0  0  0  0  0  0  0  0  0  0  0
    5.0303    2.3925   -2.0239 H   0  0  0  0  0  0  0  0  0  0  0  0
    6.5180    0.4620   -2.3994 H   0  0  0  0  0  0  0  0  0  0  0  0
    7.1396    1.4572   -1.0885 H   0  0  0  0  0  0  0  0  0  0  0  0
    7.2139   -0.9256   -0.4536 H   0  0  0  0  0  0  0  0  0  0  0  0
    5.8558   -0.8093    1.6740 H   0  0  0  0  0  0  0  0  0  0  0  0
    6.8991    0.5638    1.3635 H   0  0  0  0  0  0  0  0  0  0  0  0
    5.4722   -1.7178   -1.9356 H   0  0  0  0  0  0  0  0  0  0  0  0
    5.1496   -2.2675   -0.3071 H   0  0  0  0  0  0  0  0  0  0  0  0
    3.1970   -1.4020   -1.6925 H   0  0  0  0  0  0  0  0  0  0  0  0
    3.9344    0.4474   -2.8227 H   0  0  0  0  0  0  0  0  0  0  0  0
    2.8680    1.1603   -1.6320 H   0  0  0  0  0  0  0  0  0  0  0  0
   -2.1091    0.9502   -2.1118 H   0  0  0  0  0  0  0  0  0  0  0  0
   -2.8171    2.8641   -1.0274 H   0  0  0  0  0  0  0  0  0  0  0  0
   -3.9005    2.0115    0.0626 H   0  0  0  0  0  0  0  0  0  0  0  0
   -5.4637    2.9416   -1.4999 H   0  0  0  0  0  0  0  0  0  0  0  0
   -4.3558    2.6929   -2.8635 H   0  0  0  0  0  0  0  0  0  0  0  0
   -5.8813    0.8035   -3.0392 H   0  0  0  0  0  0  0  0  0  0  0  0
   -5.8589    0.5529   -1.2879 H   0  0  0  0  0  0  0  0  0  0  0  0
   -4.1887   -1.0388   -1.9787 H   0  0  0  0  0  0  0  0  0  0  0  0
   -3.6800   -0.0165   -3.3088 H   0  0  0  0  0  0  0  0  0  0  0  0
   -4.3755    0.9632    2.2127 H   0  0  0  0  0  0  0  0  0  0  0  0
   -6.7852    0.7836    2.7317 H   0  0  0  0  0  0  0  0  0  0  0  0
   -8.1119   -1.1206    1.8527 H   0  0  0  0  0  0  0  0  0  0  0  0
   -7.0148   -2.8570    0.4596 H   0  0  0  0  0  0  0  0  0  0  0  0
   -4.6060   -2.6848   -0.0702 H   0  0  0  0  0  0  0  0  0  0  0  0
  1  2  1  0
  2  3  1  0
  3  4  1  0
  4  5  2  0
  4  6  1  0
  6  7  1  0
  7  8  1  0
  8  9  1  0
  9 10  1  0
 10 11  1  0
 11 12  1  0
 12 13  1  0
 13 14  1  0
 13 15  1  0
 15 16  1  0
 16 17  1  0
  3 18  2  0
 18 19  1  0
 19 20  1  0
 20 21  1  0
 21 22  1  0
 22 23  1  0
 23 24  1  0
 19 25  1  0
 25 26  1  0
 26 27  2  0
 27 28  1  0
 28 29  2  0
 29 30  1  0
 30 31  2  0
 25  2  2  0
 31 26  1  0
 16  7  1  0
 24 20  1  0
 14  9  1  0
 17 11  1  0
  1 32  1  0
  1 33  1  0
  1 34  1  0
  6 35  1  0
  7 36  1  1
  8 37  1  0
  8 38  1  0
  9 39  1  1
 10 40  1  0
 10 41  1  0
 11 42  1  6
 12 43  1  0
 12 44  1  0
 13 45  1  1
 14 46  1  0
 14 47  1  0
 15 48  1  0
 15 49  1  0
 16 50  1  6
 17 51  1  0
 17 52  1  0
 20 53  1  0
 21 54  1  0
 21 55  1  0
 22 56  1  0
 22 57  1  0
 23 58  1  0
 23 59  1  0
 24 60  1  0
 24 61  1  0
 27 62  1  0
 28 63  1  0
 29 64  1  0
 30 65  1  0
 31 66  1  0
M  END
>  <_SMILES>  (27) 
Cc1c(C(=O)N[C@@H]2C[C@@H]3C[C@H]4C[C@@H](C3)C[C@@H]2C4)nn(C2CCCC2)c1-c1ccccc1

$$$$

     RDKit          3D

 66 71  0  0  0  0  0  0  0  0999 V2000
    0.5018    0.7307    1.4045 C   0  0  0  0  0  0  0  0  0  0  0  0
    1.2803    0.2911    0.2163 C   0  0  0  0  0  0  0  0  0  0  0  0
    0.8167    0.1608   -1.1286 C   0  0  0  0  0  0  0  0  0  0  0  0
   -0.5448    0.3793   -1.6522 C   0  0  0  0  0  0  0  0  0  0  0  0
   -0.7806    1.0212   -2.6722 O   0  0  0  0  0  0  0  0  0  0  0  0
   -1.5401   -0.2106   -0.8910 N   0  0  0  0  0  0  0  0  0  0  0  0
   -2.9634   -0.0151   -1.1670 C   0  0  1  0  0  0  0  0  0  0  0  0
   -3.7207   -1.3073   -0.8389 C   0  0  0  0  0  0  0  0  0  0  0  0
   -5.1640   -1.2042   -0.3334 C   0  0  2  0  0  0  0  0  0  0  0  0
   -6.0608   -0.2847   -1.1771 C   0  0  0  0  0  0  0  0  0  0  0  0
   -5.9970    1.2038   -0.8017 C   0  0  1  0  0  0  0  0  0  0  0  0
   -6.1704    1.3875    0.7060 C   0  0  0  0  0  0  0  0  0  0  0  0
   -5.0552    0.6401    1.4373 C   0  0  1  0  0  0  0  0  0  0  0  0
   -5.2045   -0.8555    1.1604 C   0  0  0  0  0  0  0  0  0  0  0  0
   -3.6777    1.1788    1.0206 C   0  0  0  0  0  0  0  0  0  0  0  0
   -3.4528    1.2885   -0.4992 C   0  0  2  0  0  0  0  0  0  0  0  0
   -4.6820    1.8568   -1.2257 C   0  0  0  0  0  0  0  0  0  0  0  0
    1.8163   -0.2125   -1.9399 N   0  0  0  0  0  0  0  0  0  0  0  0
    2.8982   -0.3362   -1.1451 N   0  0  0  0  0  0  0  0  0  0  0  0
    4.1406   -0.7231   -1.7936 C   0  0  0  0  0  0  0  0  0  0  0  0
    5.1944    0.3900   -1.8644 C   0  0  0  0  0  0  0  0  0  0  0  0
    6.5262   -0.3423   -1.7903 C   0  0  0  0  0  0  0  0  0  0  0  0
    6.2473   -1.4902   -0.8344 C   0  0  0  0  0  0  0  0  0  0  0  0
    4.8504   -1.9620   -1.2228 C   0  0  0  0  0  0  0  0  0  0  0  0
    2.6260   -0.0543    0.1763 C   0  0  0  0  0  0  0  0  0  0  0  0
    3.5771   -0.0959    1.2820 C   0  0  0  0  0  0  0  0  0  0  0  0
    3.6968   -1.2503    2.0645 C   0  0  0  0  0  0  0  0  0  0  0  0
    4.5804   -1.2822    3.1450 C   0  0  0  0  0  0  0  0  0  0  0  0
    5.3369   -0.1546    3.4603 C   0  0  0  0  0  0  0  0  0  0  0  0
    5.2040    1.0077    2.7023 C   0  0  0  0  0  0  0  0  0  0  0  0
    4.3204    1.0397    1.6218 C   0  0  0  0  0  0  0  0  0  0  0  0
    0.0188   -0.1285    1.8804 H   0  0  0  0  0  0  0  0  0  0  0  0
   -0.2712    1.4529    1.1235 H   0  0  0  0  0  0  0  0  0  0  0  0
    1.1422    1.2167    2.1472 H   0  0  0  0  0  0  0  0  0  0  0  0
   -1.2651   -0.7270   -0.0676 H   0  0  0  0  0  0  0  0  0  0  0  0
   -3.0394    0.1278   -2.2533 H   0  0  0  0  0  0  0  0  0  0  0  0
   -3.1492   -1.9082   -0.1176 H   0  0  0  0  0  0  0  0  0  0  0  0
   -3.7244   -1.9204   -1.7520 H   0  0  0  0  0  0  0  0  0  0  0  0
   -5.5739   -2.2205   -0.4243 H   0  0  0  0  0  0  0  0  0  0  0  0
   -5.8490   -0.4192   -2.2449 H   0  0  0  0  0  0  0  0  0  0  0  0
   -7.0992   -0.6137   -1.0328 H   0  0  0  0  0  0  0  0  0  0  0  0
   -6.8151    1.7226   -1.3169 H   0  0  0  0  0  0  0  0  0  0  0  0
   -6.1440    2.4530    0.9659 H   0  0  0  0  0  0  0  0  0  0  0  0
   -7.1518    1.0119    1.0216 H   0  0  0  0  0  0  0  0  0  0  0  0
   -5.1729    0.7989    2.5166 H   0  0  0  0  0  0  0  0  0  0  0  0
   -4.4423   -1.4194    1.7119 H   0  0  0  0  0  0  0  0  0  0  0  0
   -6.1707   -1.1872    1.5647 H   0  0  0  0  0  0  0  0  0  0  0  0
   -3.5829    2.1900    1.4402 H   0  0  0  0  0  0  0  0  0  0  0  0
   -2.8816    0.5871    1.4879 H   0  0  0  0  0  0  0  0  0  0  0  0
   -2.6543    2.0317   -0.6409 H   0  0  0  0  0  0  0  0  0  0  0  0
   -4.7441    2.9313   -1.0048 H   0  0  0  0  0  0  0  0  0  0  0  0
   -4.5581    1.7861   -2.3133 H   0  0  0  0  0  0  0  0  0  0  0  0
    3.8663   -0.9773   -2.8286 H   0  0  0  0  0  0  0  0  0  0  0  0
    5.1065    0.9725   -2.7877 H   0  0  0  0  0  0  0  0  0  0  0  0
    5.1097    1.0959   -1.0346 H   0  0  0  0  0  0  0  0  0  0  0  0
    7.3362    0.3039   -1.4403 H   0  0  0  0  0  0  0  0  0  0  0  0
    6.7997   -0.7303   -2.7787 H   0  0  0  0  0  0  0  0  0  0  0  0
    6.2564   -1.1295    0.1992 H   0  0  0  0  0  0  0  0  0  0  0  0
    6.9901   -2.2889   -0.9180 H   0  0  0  0  0  0  0  0  0  0  0  0
    4.9396   -2.7167   -2.0152 H   0  0  0  0  0  0  0  0  0  0  0  0
    4.3289   -2.4458   -0.3942 H   0  0  0  0  0  0  0  0  0  0  0  0
    3.1029   -2.1321    1.8353 H   0  0  0  0  0  0  0  0  0  0  0  0
    4.6749   -2.1850    3.7429 H   0  0  0  0  0  0  0  0  0  0  0  0
    6.0237   -0.1785    4.3027 H   0  0  0  0  0  0  0  0  0  0  0  0
    5.7831    1.8920    2.9558 H   0  0  0  0  0  0  0  0  0  0  0  0
    4.2105    1.9587    1.0504 H   0  0  0  0  0  0  0  0  0  0  0  0
  1  2  1  0
  2  3  1  0
  3  4  1  0
  4  5  2  0
  4  6  1  0
  6  7  1  0
  7  8  1  0
  8  9  1  0
  9 10  1  0
 10 11  1  0
 11 12  1  0
 12 13  1  0
 13 14  1  0
 13 15  1  0
 15 16  1  0
 16 17  1  0
  3 18  2  0
 18 19  1  0
 19 20  1  0
 20 21  1  0
 21 22  1  0
 22 23  1  0
 23 24  1  0
 19 25  1  0
 25 26  1  0
 26 27  2  0
 27 28  1  0
 28 29  2  0
 29 30  1  0
 30 31  2  0
 25  2  2  0
 31 26  1  0
 16  7  1  0
 24 20  1  0
 14  9  1  0
 17 11  1  0
  1 32  1  0
  1 33  1  0
  1 34  1  0
  6 35  1  0
  7 36  1  6
  8 37  1  0
  8 38  1  0
  9 39  1  1
 10 40  1  0
 10 41  1  0
 11 42  1  6
 12 43  1  0
 12 44  1  0
 13 45  1  1
 14 46  1  0
 14 47  1  0
 15 48  1  0
 15 49  1  0
 16 50  1  1
 17 51  1  0
 17 52  1  0
 20 53  1  0
 21 54  1  0
 21 55  1  0
 22 56  1  0
 22 57  1  0
 23 58  1  0
 23 59  1  0
 24 60  1  0
 24 61  1  0
 27 62  1  0
 28 63  1  0
 29 64  1  0
 30 65  1  0
 31 66  1  0
M  END
>  <_SMILES>  (28) 
Cc1c(C(=O)N[C@H]2C[C@@H]3C[C@H]4C[C@@H](C3)C[C@@H]2C4)nn(C2CCCC2)c1-c1ccccc1

$$$$

     RDKit          3D

 57 61  0  0  0  0  0  0  0  0999 V2000
    1.9169    1.3682    2.1121 C   0  0  0  0  0  0  0  0  0  0  0  0
    2.4792    0.2813    1.2696 C   0  0  0  0  0  0  0  0  0  0  0  0
    1.8698   -0.9766    0.9793 C   0  0  0  0  0  0  0  0  0  0  0  0
    0.5566   -1.4710    1.4274 C   0  0  0  0  0  0  0  0  0  0  0  0
   -0.2378   -0.8080    2.0924 O   0  0  0  0  0  0  0  0  0  0  0  0
    0.2695   -2.7418    0.9856 N   0  0  0  0  0  0  0  0  0  0  0  0
   -1.0072   -3.3777    1.2191 C   0  0  0  0  0  0  0  0  0  0  0  0
   -2.0502   -2.8560    0.2278 C   0  0  0  0  0  0  0  0  0  0  0  0
   -2.3688   -3.4877   -0.7741 O   0  0  0  0  0  0  0  0  0  0  0  0
   -2.5408   -1.6071    0.5601 N   0  0  0  0  0  0  0  0  0  0  0  0
   -3.4139   -0.8035   -0.2745 C   0  0  1  0  0  0  0  0  0  0  0  0
   -3.7784    0.5345    0.4670 C   0  0  0  0  0  0  0  0  0  0  0  0
   -4.6967    1.4495   -0.3919 C   0  0  1  0  0  0  0  0  0  0  0  0
   -4.0527    1.6805   -1.7617 C   0  0  0  0  0  0  0  0  0  0  0  0
   -4.0233    0.2477   -2.3163 C   0  0  1  0  0  0  0  0  0  0  0  0
   -2.8285   -0.4600   -1.6554 C   0  0  0  0  0  0  0  0  0  0  0  0
   -5.2734   -0.4316   -1.6655 C   0  0  2  0  0  0  0  0  0  0  0  0
   -6.1243   -0.9482   -2.5622 F   0  0  0  0  0  0  0  0  0  0  0  0
   -5.9323    0.6661   -0.8299 C   0  0  0  0  0  0  0  0  0  0  0  0
   -4.7123   -1.4936   -0.7195 C   0  0  0  0  0  0  0  0  0  0  0  0
    2.6579   -1.7295    0.1863 N   0  0  0  0  0  0  0  0  0  0  0  0
    3.7417   -0.9613   -0.0298 N   0  0  0  0  0  0  0  0  0  0  0  0
    4.7971   -1.4617   -0.8821 C   0  0  0  0  0  0  0  0  0  0  0  0
    3.6969    0.2548    0.6060 C   0  0  0  0  0  0  0  0  0  0  0  0
    4.7533    1.2566    0.5272 C   0  0  0  0  0  0  0  0  0  0  0  0
    5.9548    1.0757    1.2216 C   0  0  0  0  0  0  0  0  0  0  0  0
    6.9656    2.0352    1.1397 C   0  0  0  0  0  0  0  0  0  0  0  0
    6.7796    3.1803    0.3663 C   0  0  0  0  0  0  0  0  0  0  0  0
    5.5825    3.3697   -0.3230 C   0  0  0  0  0  0  0  0  0  0  0  0
    4.5706    2.4114   -0.2417 C   0  0  0  0  0  0  0  0  0  0  0  0
    2.6271    2.1895    2.2474 H   0  0  0  0  0  0  0  0  0  0  0  0
    1.6591    0.9885    3.1060 H   0  0  0  0  0  0  0  0  0  0  0  0
    1.0130    1.7781    1.6503 H   0  0  0  0  0  0  0  0  0  0  0  0
    0.9267   -3.1287    0.3119 H   0  0  0  0  0  0  0  0  0  0  0  0
   -0.8863   -4.4563    1.0837 H   0  0  0  0  0  0  0  0  0  0  0  0
   -1.3413   -3.1852    2.2440 H   0  0  0  0  0  0  0  0  0  0  0  0
   -1.9968   -1.1102    1.2678 H   0  0  0  0  0  0  0  0  0  0  0  0
   -4.2789    0.3036    1.4161 H   0  0  0  0  0  0  0  0  0  0  0  0
   -2.8582    1.0792    0.7154 H   0  0  0  0  0  0  0  0  0  0  0  0
   -4.9436    2.3809    0.1243 H   0  0  0  0  0  0  0  0  0  0  0  0
   -4.6839    2.3228   -2.3878 H   0  0  0  0  0  0  0  0  0  0  0  0
   -3.0628    2.1430   -1.6941 H   0  0  0  0  0  0  0  0  0  0  0  0
   -3.9931    0.2110   -3.4076 H   0  0  0  0  0  0  0  0  0  0  0  0
   -2.5649   -1.3592   -2.2246 H   0  0  0  0  0  0  0  0  0  0  0  0
   -1.9290    0.1622   -1.5934 H   0  0  0  0  0  0  0  0  0  0  0  0
   -6.6073    1.2740   -1.4440 H   0  0  0  0  0  0  0  0  0  0  0  0
   -6.5128    0.2778    0.0132 H   0  0  0  0  0  0  0  0  0  0  0  0
   -4.5438   -2.4287   -1.2641 H   0  0  0  0  0  0  0  0  0  0  0  0
   -5.3791   -1.7269    0.1178 H   0  0  0  0  0  0  0  0  0  0  0  0
    5.6357   -1.7591   -0.2481 H   0  0  0  0  0  0  0  0  0  0  0  0
    4.4295   -2.3243   -1.4445 H   0  0  0  0  0  0  0  0  0  0  0  0
    5.0948   -0.6753   -1.5798 H   0  0  0  0  0  0  0  0  0  0  0  0
    6.1067    0.1927    1.8381 H   0  0  0  0  0  0  0  0  0  0  0  0
    7.8959    1.8920    1.6836 H   0  0  0  0  0  0  0  0  0  0  0  0
    7.5661    3.9284    0.3049 H   0  0  0  0  0  0  0  0  0  0  0  0
    5.4357    4.2646   -0.9223 H   0  0  0  0  0  0  0  0  0  0  0  0
    3.6401    2.5696   -0.7822 H   0  0  0  0  0  0  0  0  0  0  0  0
  1  2  1  0
  2  3  1  0
  3  4  1  0
  4  5  2  0
  4  6  1  0
  6  7  1  0
  7  8  1  0
  8  9  2  0
  8 10  1  0
 11 10  1  1
 11 12  1  0
 12 13  1  0
 13 14  1  0
 14 15  1  0
 15 16  1  0
 15 17  1  0
 17 18  1  6
 17 19  1  0
 17 20  1  0
  3 21  2  0
 21 22  1  0
 22 23  1  0
 22 24  1  0
 24 25  1  0
 25 26  2  0
 26 27  1  0
 27 28  2  0
 28 29  1  0
 29 30  2  0
 24  2  2  0
 30 25  1  0
 16 11  1  0
 20 11  1  0
 19 13  1  0
  1 31  1  0
  1 32  1  0
  1 33  1  0
  6 34  1  0
  7 35  1  0
  7 36  1  0
 10 37  1  0
 12 38  1  0
 12 39  1  0
 13 40  1  1
 14 41  1  0
 14 42  1  0
 15 43  1  6
 16 44  1  0
 16 45  1  0
 19 46  1  0
 19 47  1  0
 20 48  1  0
 20 49  1  0
 23 50  1  0
 23 51  1  0
 23 52  1  0
 26 53  1  0
 27 54  1  0
 28 55  1  0
 29 56  1  0
 30 57  1  0
M  END
>  <_SMILES>  (29) 
Cc1c(C(=O)NCC(=O)N[C@@]23C[C@H]4C[C@@H](C2)[C@](F)(C4)C3)nn(C)c1-c1ccccc1

$$$$

     RDKit          3D

 57 61  0  0  0  0  0  0  0  0999 V2000
   -3.4304   -2.2541   -0.5882 C   0  0  0  0  0  0  0  0  0  0  0  0
   -3.0865   -0.8129   -0.4702 C   0  0  0  0  0  0  0  0  0  0  0  0
   -1.9021   -0.1488   -0.9302 C   0  0  0  0  0  0  0  0  0  0  0  0
   -0.7096   -0.7248   -1.5769 C   0  0  0  0  0  0  0  0  0  0  0  0
   -0.0358   -0.1362   -2.4221 O   0  0  0  0  0  0  0  0  0  0  0  0
   -0.3242   -1.9596   -1.0930 N   0  0  0  0  0  0  0  0  0  0  0  0
    0.8874   -2.6128   -1.5613 C   0  0  0  0  0  0  0  0  0  0  0  0
    2.1616   -2.1117   -0.8668 C   0  0  0  0  0  0  0  0  0  0  0  0
    3.0336   -2.8890   -0.4872 O   0  0  0  0  0  0  0  0  0  0  0  0
    2.2787   -0.7386   -0.8031 N   0  0  0  0  0  0  0  0  0  0  0  0
    3.4600   -0.0504   -0.3258 C   0  0  2  0  0  0  0  0  0  0  0  0
    4.7032   -0.2411   -1.2604 C   0  0  0  0  0  0  0  0  0  0  0  0
    5.9401    0.5497   -0.7409 C   0  0  2  0  0  0  0  0  0  0  0  0
    6.2137    0.1744    0.7192 C   0  0  0  0  0  0  0  0  0  0  0  0
    4.9275    0.6726    1.3994 C   0  0  2  0  0  0  0  0  0  0  0  0
    3.8444   -0.3838    1.1282 C   0  0  0  0  0  0  0  0  0  0  0  0
    4.4897    1.8895    0.5249 C   0  0  1  0  0  0  0  0  0  0  0  0
    4.3394    3.0212    1.2255 F   0  0  0  0  0  0  0  0  0  0  0  0
    5.5703    2.0201   -0.5486 C   0  0  0  0  0  0  0  0  0  0  0  0
    3.1904    1.4525   -0.1468 C   0  0  0  0  0  0  0  0  0  0  0  0
   -1.9735    1.1714   -0.6920 N   0  0  0  0  0  0  0  0  0  0  0  0
   -3.1543    1.3478   -0.0795 N   0  0  0  0  0  0  0  0  0  0  0  0
   -3.5309    2.6789    0.3406 C   0  0  0  0  0  0  0  0  0  0  0  0
   -3.8723    0.1898    0.0811 C   0  0  0  0  0  0  0  0  0  0  0  0
   -5.1882    0.1214    0.7058 C   0  0  0  0  0  0  0  0  0  0  0  0
   -6.3147    0.6226    0.0434 C   0  0  0  0  0  0  0  0  0  0  0  0
   -7.5726    0.5551    0.6453 C   0  0  0  0  0  0  0  0  0  0  0  0
   -7.7112   -0.0156    1.9098 C   0  0  0  0  0  0  0  0  0  0  0  0
   -6.5940   -0.5222    2.5726 C   0  0  0  0  0  0  0  0  0  0  0  0
   -5.3356   -0.4562    1.9717 C   0  0  0  0  0  0  0  0  0  0  0  0
   -3.0426   -2.6760   -1.5207 H   0  0  0  0  0  0  0  0  0  0  0  0
   -3.0086   -2.8150    0.2516 H   0  0  0  0  0  0  0  0  0  0  0  0
   -4.5142   -2.4083   -0.5904 H   0  0  0  0  0  0  0  0  0  0  0  0
   -0.6974   -2.2458   -0.1979 H   0  0  0  0  0  0  0  0  0  0  0  0
    0.7731   -3.6808   -1.3518 H   0  0  0  0  0  0  0  0  0  0  0  0
    0.9976   -2.4684   -2.6409 H   0  0  0  0  0  0  0  0  0  0  0  0
    1.6585   -0.2157   -1.4237 H   0  0  0  0  0  0  0  0  0  0  0  0
    4.9650   -1.3034   -1.3304 H   0  0  0  0  0  0  0  0  0  0  0  0
    4.4552    0.0945   -2.2754 H   0  0  0  0  0  0  0  0  0  0  0  0
    6.8120    0.4115   -1.3856 H   0  0  0  0  0  0  0  0  0  0  0  0
    7.0863    0.7155    1.1048 H   0  0  0  0  0  0  0  0  0  0  0  0
    6.3935   -0.8967    0.8563 H   0  0  0  0  0  0  0  0  0  0  0  0
    5.0595    0.8888    2.4618 H   0  0  0  0  0  0  0  0  0  0  0  0
    4.2069   -1.4078    1.2626 H   0  0  0  0  0  0  0  0  0  0  0  0
    2.9914   -0.2467    1.8053 H   0  0  0  0  0  0  0  0  0  0  0  0
    5.2111    2.4934   -1.4682 H   0  0  0  0  0  0  0  0  0  0  0  0
    6.4174    2.6116   -0.1814 H   0  0  0  0  0  0  0  0  0  0  0  0
    2.9971    1.9681   -1.0941 H   0  0  0  0  0  0  0  0  0  0  0  0
    2.3270    1.6453    0.5029 H   0  0  0  0  0  0  0  0  0  0  0  0
   -3.9562    2.6298    1.3458 H   0  0  0  0  0  0  0  0  0  0  0  0
   -4.2611    3.0676   -0.3730 H   0  0  0  0  0  0  0  0  0  0  0  0
   -2.6440    3.3182    0.3548 H   0  0  0  0  0  0  0  0  0  0  0  0
   -6.2215    1.0591   -0.9485 H   0  0  0  0  0  0  0  0  0  0  0  0
   -8.4448    0.9437    0.1257 H   0  0  0  0  0  0  0  0  0  0  0  0
   -8.6912   -0.0690    2.3775 H   0  0  0  0  0  0  0  0  0  0  0  0
   -6.7029   -0.9694    3.5575 H   0  0  0  0  0  0  0  0  0  0  0  0
   -4.4712   -0.8531    2.4988 H   0  0  0  0  0  0  0  0  0  0  0  0
  1  2  1  0
  2  3  1  0
  3  4  1  0
  4  5  2  0
  4  6  1  0
  6  7  1  0
  7  8  1  0
  8  9  2  0
  8 10  1  0
 11 10  1  6
 11 12  1  0
 12 13  1  0
 13 14  1  0
 14 15  1  0
 15 16  1  0
 15 17  1  0
 17 18  1  1
 17 19  1  0
 17 20  1  0
  3 21  2  0
 21 22  1  0
 22 23  1  0
 22 24  1  0
 24 25  1  0
 25 26  2  0
 26 27  1  0
 27 28  2  0
 28 29  1  0
 29 30  2  0
 24  2  2  0
 30 25  1  0
 16 11  1  0
 20 11  1  0
 19 13  1  0
  1 31  1  0
  1 32  1  0
  1 33  1  0
  6 34  1  0
  7 35  1  0
  7 36  1  0
 10 37  1  0
 12 38  1  0
 12 39  1  0
 13 40  1  6
 14 41  1  0
 14 42  1  0
 15 43  1  1
 16 44  1  0
 16 45  1  0
 19 46  1  0
 19 47  1  0
 20 48  1  0
 20 49  1  0
 23 50  1  0
 23 51  1  0
 23 52  1  0
 26 53  1  0
 27 54  1  0
 28 55  1  0
 29 56  1  0
 30 57  1  0
M  END
>  <_SMILES>  (30) 
Cc1c(C(=O)NCC(=O)N[C@]23C[C@@H]4C[C@H](C2)[C@@](F)(C4)C3)nn(C)c1-c1ccccc1

$$$$

     RDKit          3D

 47 50  0  0  0  0  0  0  0  0999 V2000
    0.8637   -1.9373    0.6520 C   0  0  0  0  0  0  0  0  0  0  0  0
    0.2435   -0.6024    0.4446 C   0  0  0  0  0  0  0  0  0  0  0  0
    0.9060    0.6521    0.2487 C   0  0  0  0  0  0  0  0  0  0  0  0
    2.3541    0.9217    0.1631 C   0  0  0  0  0  0  0  0  0  0  0  0
    2.8961    1.8850    0.6987 O   0  0  0  0  0  0  0  0  0  0  0  0
    3.0578   -0.0001   -0.5963 N   0  0  0  0  0  0  0  0  0  0  0  0
    4.5011    0.1319   -0.8316 C   0  0  0  0  0  0  0  0  0  0  0  0
    5.3919   -0.3051    0.3570 C   0  0  0  0  0  0  0  0  0  0  0  0
    6.3451   -0.9283   -0.6829 C   0  0  0  0  0  0  0  0  0  0  0  0
    5.1260   -1.0447   -1.6203 C   0  0  0  0  0  0  0  0  0  0  0  0
    0.0125    1.6474    0.1296 N   0  0  0  0  0  0  0  0  0  0  0  0
   -1.1887    1.0609    0.2628 N   0  0  0  0  0  0  0  0  0  0  0  0
   -2.3849    1.8684    0.2021 C   0  0  2  0  0  0  0  0  0  0  0  0
   -2.7613    2.3211   -1.1933 C   0  0  0  0  0  0  0  0  0  0  0  0
   -3.7234    3.4544   -0.9031 C   0  0  0  0  0  0  0  0  0  0  0  0
   -3.3554    4.0199    0.3637 O   0  0  0  0  0  0  0  0  0  0  0  0
   -2.3230    3.1958    0.9407 C   0  0  0  0  0  0  0  0  0  0  0  0
   -1.1111   -0.3037    0.4152 C   0  0  0  0  0  0  0  0  0  0  0  0
   -2.2660   -1.1834    0.5395 C   0  0  0  0  0  0  0  0  0  0  0  0
   -2.7258   -1.5681    1.8036 C   0  0  0  0  0  0  0  0  0  0  0  0
   -3.8376   -2.4038    1.9211 C   0  0  0  0  0  0  0  0  0  0  0  0
   -4.4914   -2.8602    0.7771 C   0  0  0  0  0  0  0  0  0  0  0  0
   -4.0339   -2.4844   -0.4855 C   0  0  0  0  0  0  0  0  0  0  0  0
   -2.9224   -1.6487   -0.6052 C   0  0  0  0  0  0  0  0  0  0  0  0
    0.2080   -2.6001    1.2251 H   0  0  0  0  0  0  0  0  0  0  0  0
    1.0701   -2.4133   -0.3117 H   0  0  0  0  0  0  0  0  0  0  0  0
    1.8033   -1.8527    1.2072 H   0  0  0  0  0  0  0  0  0  0  0  0
    2.5074   -0.6519   -1.1399 H   0  0  0  0  0  0  0  0  0  0  0  0
    4.7668    1.1128   -1.2460 H   0  0  0  0  0  0  0  0  0  0  0  0
    5.8150    0.5058    0.9556 H   0  0  0  0  0  0  0  0  0  0  0  0
    4.9327   -1.0409    1.0281 H   0  0  0  0  0  0  0  0  0  0  0  0
    7.1160   -0.2382   -1.0446 H   0  0  0  0  0  0  0  0  0  0  0  0
    6.8155   -1.8710   -0.3934 H   0  0  0  0  0  0  0  0  0  0  0  0
    5.3264   -0.8535   -2.6778 H   0  0  0  0  0  0  0  0  0  0  0  0
    4.5911   -1.9974   -1.5263 H   0  0  0  0  0  0  0  0  0  0  0  0
   -3.2166    1.2891    0.6213 H   0  0  0  0  0  0  0  0  0  0  0  0
   -1.8864    2.7041   -1.7333 H   0  0  0  0  0  0  0  0  0  0  0  0
   -3.2097    1.5332   -1.8054 H   0  0  0  0  0  0  0  0  0  0  0  0
   -4.7511    3.0864   -0.8153 H   0  0  0  0  0  0  0  0  0  0  0  0
   -3.6982    4.2307   -1.6732 H   0  0  0  0  0  0  0  0  0  0  0  0
   -1.3736    3.7256    0.8086 H   0  0  0  0  0  0  0  0  0  0  0  0
   -2.5063    3.0854    2.0139 H   0  0  0  0  0  0  0  0  0  0  0  0
   -2.2217   -1.2190    2.7020 H   0  0  0  0  0  0  0  0  0  0  0  0
   -4.1927   -2.6997    2.9050 H   0  0  0  0  0  0  0  0  0  0  0  0
   -5.3566   -3.5121    0.8699 H   0  0  0  0  0  0  0  0  0  0  0  0
   -4.5417   -2.8450   -1.3765 H   0  0  0  0  0  0  0  0  0  0  0  0
   -2.5705   -1.3664   -1.5947 H   0  0  0  0  0  0  0  0  0  0  0  0
  1  2  1  0
  2  3  1  0
  3  4  1  0
  4  5  2  0
  4  6  1  0
  6  7  1  0
  7  8  1  0
  8  9  1  0
  9 10  1  0
  3 11  2  0
 11 12  1  0
 12 13  1  0
 13 14  1  0
 14 15  1  0
 15 16  1  0
 16 17  1  0
 12 18  1  0
 18 19  1  0
 19 20  2  0
 20 21  1  0
 21 22  2  0
 22 23  1  0
 23 24  2  0
 18  2  2  0
 24 19  1  0
 10  7  1  0
 17 13  1  0
  1 25  1  0
  1 26  1  0
  1 27  1  0
  6 28  1  0
  7 29  1  0
  8 30  1  0
  8 31  1  0
  9 32  1  0
  9 33  1  0
 10 34  1  0
 10 35  1  0
 13 36  1  1
 14 37  1  0
 14 38  1  0
 15 39  1  0
 15 40  1  0
 17 41  1  0
 17 42  1  0
 20 43  1  0
 21 44  1  0
 22 45  1  0
 23 46  1  0
 24 47  1  0
M  END
>  <_SMILES>  (31) 
Cc1c(C(=O)NC2CCC2)nn([C@@H]2CCOC2)c1-c1ccccc1

$$$$

     RDKit          3D

 47 50  0  0  0  0  0  0  0  0999 V2000
    0.9230    1.6653   -1.0847 C   0  0  0  0  0  0  0  0  0  0  0  0
    0.1808    0.4704   -0.6043 C   0  0  0  0  0  0  0  0  0  0  0  0
    0.7214   -0.7783   -0.1582 C   0  0  0  0  0  0  0  0  0  0  0  0
    2.1375   -1.1690   -0.0218 C   0  0  0  0  0  0  0  0  0  0  0  0
    2.5707   -2.2703   -0.3511 O   0  0  0  0  0  0  0  0  0  0  0  0
    2.9443   -0.1881    0.5336 N   0  0  0  0  0  0  0  0  0  0  0  0
    4.3718   -0.4150    0.7919 C   0  0  0  0  0  0  0  0  0  0  0  0
    5.1259    0.8278    1.3246 C   0  0  0  0  0  0  0  0  0  0  0  0
    6.3085    0.4007    0.4316 C   0  0  0  0  0  0  0  0  0  0  0  0
    5.2777   -0.3208   -0.4600 C   0  0  0  0  0  0  0  0  0  0  0  0
   -0.2617   -1.6366    0.1560 N   0  0  0  0  0  0  0  0  0  0  0  0
   -1.4038   -0.9658   -0.0695 N   0  0  0  0  0  0  0  0  0  0  0  0
   -2.6927   -1.6096    0.1614 C   0  0  1  0  0  0  0  0  0  0  0  0
   -2.6630   -3.1280    0.2198 C   0  0  0  0  0  0  0  0  0  0  0  0
   -2.4487   -3.4001    1.6914 C   0  0  0  0  0  0  0  0  0  0  0  0
   -3.1774   -2.3805    2.3872 O   0  0  0  0  0  0  0  0  0  0  0  0
   -3.2733   -1.2352    1.5209 C   0  0  0  0  0  0  0  0  0  0  0  0
   -1.1955    0.3185   -0.5213 C   0  0  0  0  0  0  0  0  0  0  0  0
   -2.2610    1.2613   -0.8371 C   0  0  0  0  0  0  0  0  0  0  0  0
   -2.8457    1.2646   -2.1082 C   0  0  0  0  0  0  0  0  0  0  0  0
   -3.8703    2.1641   -2.4070 C   0  0  0  0  0  0  0  0  0  0  0  0
   -4.3110    3.0659   -1.4391 C   0  0  0  0  0  0  0  0  0  0  0  0
   -3.7257    3.0731   -0.1735 C   0  0  0  0  0  0  0  0  0  0  0  0
   -2.7004    2.1748    0.1269 C   0  0  0  0  0  0  0  0  0  0  0  0
    0.3208    2.2576   -1.7810 H   0  0  0  0  0  0  0  0  0  0  0  0
    1.1966    2.3063   -0.2408 H   0  0  0  0  0  0  0  0  0  0  0  0
    1.8369    1.3751   -1.6127 H   0  0  0  0  0  0  0  0  0  0  0  0
    2.4712    0.6096    0.9377 H   0  0  0  0  0  0  0  0  0  0  0  0
    4.5469   -1.3131    1.3979 H   0  0  0  0  0  0  0  0  0  0  0  0
    4.6863    1.7907    1.0378 H   0  0  0  0  0  0  0  0  0  0  0  0
    5.3273    0.8359    2.3990 H   0  0  0  0  0  0  0  0  0  0  0  0
    6.8643    1.2126   -0.0437 H   0  0  0  0  0  0  0  0  0  0  0  0
    7.0142   -0.2759    0.9270 H   0  0  0  0  0  0  0  0  0  0  0  0
    5.6063   -1.2749   -0.8804 H   0  0  0  0  0  0  0  0  0  0  0  0
    4.8806    0.3061   -1.2675 H   0  0  0  0  0  0  0  0  0  0  0  0
   -3.3438   -1.2801   -0.6555 H   0  0  0  0  0  0  0  0  0  0  0  0
   -3.6492   -3.5116   -0.0711 H   0  0  0  0  0  0  0  0  0  0  0  0
   -1.9175   -3.6090   -0.4195 H   0  0  0  0  0  0  0  0  0  0  0  0
   -1.3951   -3.3268    1.9791 H   0  0  0  0  0  0  0  0  0  0  0  0
   -2.8212   -4.3832    1.9924 H   0  0  0  0  0  0  0  0  0  0  0  0
   -4.3372   -0.9905    1.4335 H   0  0  0  0  0  0  0  0  0  0  0  0
   -2.7703   -0.3925    2.0054 H   0  0  0  0  0  0  0  0  0  0  0  0
   -2.5044    0.5697   -2.8725 H   0  0  0  0  0  0  0  0  0  0  0  0
   -4.3222    2.1637   -3.3957 H   0  0  0  0  0  0  0  0  0  0  0  0
   -5.1081    3.7674   -1.6732 H   0  0  0  0  0  0  0  0  0  0  0  0
   -4.0661    3.7806    0.5785 H   0  0  0  0  0  0  0  0  0  0  0  0
   -2.2475    2.1932    1.1156 H   0  0  0  0  0  0  0  0  0  0  0  0
  1  2  1  0
  2  3  1  0
  3  4  1  0
  4  5  2  0
  4  6  1  0
  6  7  1  0
  7  8  1  0
  8  9  1  0
  9 10  1  0
  3 11  2  0
 11 12  1  0
 12 13  1  0
 13 14  1  0
 14 15  1  0
 15 16  1  0
 16 17  1  0
 12 18  1  0
 18 19  1  0
 19 20  2  0
 20 21  1  0
 21 22  2  0
 22 23  1  0
 23 24  2  0
 18  2  2  0
 24 19  1  0
 10  7  1  0
 17 13  1  0
  1 25  1  0
  1 26  1  0
  1 27  1  0
  6 28  1  0
  7 29  1  0
  8 30  1  0
  8 31  1  0
  9 32  1  0
  9 33  1  0
 10 34  1  0
 10 35  1  0
 13 36  1  6
 14 37  1  0
 14 38  1  0
 15 39  1  0
 15 40  1  0
 17 41  1  0
 17 42  1  0
 20 43  1  0
 21 44  1  0
 22 45  1  0
 23 46  1  0
 24 47  1  0
M  END
>  <_SMILES>  (32) 
Cc1c(C(=O)NC2CCC2)nn([C@H]2CCOC2)c1-c1ccccc1

$$$$

     RDKit          3D

 84 89  0  0  0  0  0  0  0  0999 V2000
   -1.5745    0.9954   -2.8626 C   0  0  0  0  0  0  0  0  0  0  0  0
   -0.4352    0.3412   -2.1674 C   0  0  0  0  0  0  0  0  0  0  0  0
   -0.3068    0.0511   -0.7701 C   0  0  0  0  0  0  0  0  0  0  0  0
   -1.2873    0.2809    0.3111 C   0  0  0  0  0  0  0  0  0  0  0  0
   -0.9689    0.6754    1.4286 O   0  0  0  0  0  0  0  0  0  0  0  0
   -2.5963   -0.0255   -0.0412 N   0  0  0  0  0  0  0  0  0  0  0  0
   -3.7018   -0.1101    0.9158 C   0  0  2  0  0  0  0  0  0  0  0  0
   -3.4829   -1.2575    1.9300 C   0  0  0  0  0  0  0  0  0  0  0  0
   -4.6864   -1.3726    2.8803 C   0  0  2  0  0  0  0  0  0  0  0  0
   -5.9537   -1.6661    2.0620 C   0  0  0  0  0  0  0  0  0  0  0  0
   -6.2179   -0.5205    1.0662 C   0  0  2  0  0  0  0  0  0  0  0  0
   -5.0047   -0.4073    0.1243 C   0  0  0  0  0  0  0  0  0  0  0  0
   -6.4322    0.7937    1.8617 C   0  0  2  0  0  0  0  0  0  0  0  0
   -6.9232    1.9342    0.9566 C   0  0  0  0  0  0  0  0  0  0  0  0
   -7.2907    3.1206    1.7693 N   0  0  0  0  0  0  0  0  0  0  0  0
   -5.1301    1.1054    2.6423 C   0  0  1  0  0  0  0  0  0  0  0  0
   -4.8628   -0.0450    3.6354 C   0  0  0  0  0  0  0  0  0  0  0  0
   -3.9227    1.2170    1.6896 C   0  0  0  0  0  0  0  0  0  0  0  0
    0.8842   -0.5132   -0.5074 N   0  0  0  0  0  0  0  0  0  0  0  0
    1.4972   -0.5965   -1.7016 N   0  0  0  0  0  0  0  0  0  0  0  0
    2.8235   -1.1846   -1.7574 C   0  0  0  0  0  0  0  0  0  0  0  0
    3.9685   -0.1659   -1.7356 C   0  0  0  0  0  0  0  0  0  0  0  0
    3.9934    0.7883   -0.5334 C   0  0  0  0  0  0  0  0  0  0  0  0
    4.1868    0.1154    0.8325 C   0  0  0  0  0  0  0  0  0  0  0  0
    5.6184    0.2187    1.3988 C   0  0  0  0  0  0  0  0  0  0  0  0
    6.6600   -0.5033    0.5295 C   0  0  0  0  0  0  0  0  0  0  0  0
    8.0483   -0.4696    1.1556 C   0  0  0  0  0  0  0  0  0  0  0  0
    7.9849   -1.0250    2.5375 N   0  0  0  0  0  0  0  0  0  0  0  0
    7.0446   -0.2946    3.4355 C   0  0  0  0  0  0  0  0  0  0  0  0
    5.6480   -0.3368    2.8354 C   0  0  0  0  0  0  0  0  0  0  0  0
    0.7445   -0.1110   -2.7409 C   0  0  0  0  0  0  0  0  0  0  0  0
    1.1799   -0.0877   -4.1316 C   0  0  0  0  0  0  0  0  0  0  0  0
    1.7205    1.0805   -4.6803 C   0  0  0  0  0  0  0  0  0  0  0  0
    2.1365    1.1037   -6.0124 C   0  0  0  0  0  0  0  0  0  0  0  0
    2.0097   -0.0380   -6.8025 C   0  0  0  0  0  0  0  0  0  0  0  0
    1.4644   -1.2027   -6.2639 C   0  0  0  0  0  0  0  0  0  0  0  0
    1.0477   -1.2279   -4.9319 C   0  0  0  0  0  0  0  0  0  0  0  0
   -2.0389    1.7549   -2.2257 H   0  0  0  0  0  0  0  0  0  0  0  0
   -1.2526    1.4962   -3.7809 H   0  0  0  0  0  0  0  0  0  0  0  0
   -2.3332    0.2527   -3.1284 H   0  0  0  0  0  0  0  0  0  0  0  0
   -2.6660   -0.6115   -0.8655 H   0  0  0  0  0  0  0  0  0  0  0  0
   -3.3341   -2.2074    1.3998 H   0  0  0  0  0  0  0  0  0  0  0  0
   -2.5722   -1.0892    2.5177 H   0  0  0  0  0  0  0  0  0  0  0  0
   -4.5133   -2.1843    3.5958 H   0  0  0  0  0  0  0  0  0  0  0  0
   -5.8396   -2.6140    1.5215 H   0  0  0  0  0  0  0  0  0  0  0  0
   -6.8135   -1.7863    2.7326 H   0  0  0  0  0  0  0  0  0  0  0  0
   -7.1157   -0.7545    0.4820 H   0  0  0  0  0  0  0  0  0  0  0  0
   -4.8938   -1.3448   -0.4378 H   0  0  0  0  0  0  0  0  0  0  0  0
   -5.1770    0.3709   -0.6296 H   0  0  0  0  0  0  0  0  0  0  0  0
   -7.2313    0.6117    2.5957 H   0  0  0  0  0  0  0  0  0  0  0  0
   -6.1789    2.2721    0.2321 H   0  0  0  0  0  0  0  0  0  0  0  0
   -7.8310    1.6417    0.4193 H   0  0  0  0  0  0  0  0  0  0  0  0
   -7.7133    3.8528    1.1822 H   0  0  0  0  0  0  0  0  0  0  0  0
   -7.9790    2.8877    2.4984 H   0  0  0  0  0  0  0  0  0  0  0  0
   -6.4767    3.5443    2.2337 H   0  0  0  0  0  0  0  0  0  0  0  0
   -5.2340    2.0359    3.2105 H   0  0  0  0  0  0  0  0  0  0  0  0
   -3.9639    0.1719    4.2259 H   0  0  0  0  0  0  0  0  0  0  0  0
   -5.6949   -0.1265    4.3457 H   0  0  0  0  0  0  0  0  0  0  0  0
   -4.0583    2.0483    0.9877 H   0  0  0  0  0  0  0  0  0  0  0  0
   -3.0422    1.4749    2.2882 H   0  0  0  0  0  0  0  0  0  0  0  0
    2.8814   -1.7864   -2.6709 H   0  0  0  0  0  0  0  0  0  0  0  0
    2.9068   -1.8917   -0.9247 H   0  0  0  0  0  0  0  0  0  0  0  0
    3.9164    0.4457   -2.6444 H   0  0  0  0  0  0  0  0  0  0  0  0
    4.9158   -0.7129   -1.7915 H   0  0  0  0  0  0  0  0  0  0  0  0
    4.7757    1.5400   -0.6948 H   0  0  0  0  0  0  0  0  0  0  0  0
    3.0518    1.3505   -0.5157 H   0  0  0  0  0  0  0  0  0  0  0  0
    3.8713   -0.9326    0.8114 H   0  0  0  0  0  0  0  0  0  0  0  0
    3.5145    0.6180    1.5409 H   0  0  0  0  0  0  0  0  0  0  0  0
    5.8908    1.2823    1.4461 H   0  0  0  0  0  0  0  0  0  0  0  0
    6.7186   -0.0361   -0.4592 H   0  0  0  0  0  0  0  0  0  0  0  0
    6.3544   -1.5460    0.3749 H   0  0  0  0  0  0  0  0  0  0  0  0
    8.7554   -1.0875    0.5944 H   0  0  0  0  0  0  0  0  0  0  0  0
    8.4404    0.5501    1.2304 H   0  0  0  0  0  0  0  0  0  0  0  0
    7.7225   -2.0200    2.4998 H   0  0  0  0  0  0  0  0  0  0  0  0
    8.9274   -1.0050    2.9516 H   0  0  0  0  0  0  0  0  0  0  0  0
    7.0788   -0.7935    4.4085 H   0  0  0  0  0  0  0  0  0  0  0  0
    7.4187    0.7291    3.5401 H   0  0  0  0  0  0  0  0  0  0  0  0
    5.2825   -1.3721    2.8392 H   0  0  0  0  0  0  0  0  0  0  0  0
    4.9679    0.2407    3.4727 H   0  0  0  0  0  0  0  0  0  0  0  0
    1.8194    1.9791   -4.0758 H   0  0  0  0  0  0  0  0  0  0  0  0
    2.5549    2.0130   -6.4374 H   0  0  0  0  0  0  0  0  0  0  0  0
    2.3300   -0.0182   -7.8420 H   0  0  0  0  0  0  0  0  0  0  0  0
    1.3590   -2.0892   -6.8851 H   0  0  0  0  0  0  0  0  0  0  0  0
    0.6159   -2.1404   -4.5275 H   0  0  0  0  0  0  0  0  0  0  0  0
  1  2  1  0
  2  3  1  0
  3  4  1  0
  4  5  2  0
  4  6  1  0
  7  6  1  6
  7  8  1  0
  8  9  1  0
  9 10  1  0
 10 11  1  0
 11 12  1  0
 11 13  1  0
 13 14  1  0
 14 15  1  0
 13 16  1  0
 16 17  1  0
 16 18  1  0
  3 19  2  0
 19 20  1  0
 20 21  1  0
 21 22  1  0
 22 23  1  0
 23 24  1  0
 24 25  1  0
 25 26  1  0
 26 27  1  0
 27 28  1  0
 28 29  1  0
 29 30  1  0
 20 31  1  0
 31 32  1  0
 32 33  2  0
 33 34  1  0
 34 35  2  0
 35 36  1  0
 36 37  2  0
 31  2  2  0
 37 32  1  0
 12  7  1  0
 30 25  1  0
 18  7  1  0
 17  9  1  0
  1 38  1  0
  1 39  1  0
  1 40  1  0
  6 41  1  0
  8 42  1  0
  8 43  1  0
  9 44  1  1
 10 45  1  0
 10 46  1  0
 11 47  1  6
 12 48  1  0
 12 49  1  0
 13 50  1  1
 14 51  1  0
 14 52  1  0
 15 53  1  0
 15 54  1  0
 15 55  1  0
 16 56  1  1
 17 57  1  0
 17 58  1  0
 18 59  1  0
 18 60  1  0
 21 61  1  0
 21 62  1  0
 22 63  1  0
 22 64  1  0
 23 65  1  0
 23 66  1  0
 24 67  1  0
 24 68  1  0
 25 69  1  0
 26 70  1  0
 26 71  1  0
 27 72  1  0
 27 73  1  0
 28 74  1  0
 28 75  1  0
 29 76  1  0
 29 77  1  0
 30 78  1  0
 30 79  1  0
 33 80  1  0
 34 81  1  0
 35 82  1  0
 36 83  1  0
 37 84  1  0
M  CHG  2  15   1  28   1
M  END
>  <_SMILES>  (33) 
Cc1c(C(=O)N[C@]23C[C@@H]4C[C@H](C2)[C@H](C[NH3+])[C@@H](C4)C3)nn(CCCCC2CC[NH2+]CC2)c1-c1ccccc1

$$$$

     RDKit          3D

 84 89  0  0  0  0  0  0  0  0999 V2000
   -0.7422   -3.6811    1.1520 C   0  0  0  0  0  0  0  0  0  0  0  0
   -0.1888   -2.5643    0.3396 C   0  0  0  0  0  0  0  0  0  0  0  0
   -0.8758   -1.3769   -0.0508 C   0  0  0  0  0  0  0  0  0  0  0  0
   -2.2666   -0.9959    0.2665 C   0  0  0  0  0  0  0  0  0  0  0  0
   -2.9740   -1.6271    1.0441 O   0  0  0  0  0  0  0  0  0  0  0  0
   -2.6814    0.1403   -0.4011 N   0  0  0  0  0  0  0  0  0  0  0  0
   -3.9534    0.8224   -0.1964 C   0  0  2  0  0  0  0  0  0  0  0  0
   -4.0596    1.3981    1.2357 C   0  0  0  0  0  0  0  0  0  0  0  0
   -5.3877    2.1541    1.4157 C   0  0  2  0  0  0  0  0  0  0  0  0
   -6.5566    1.1877    1.1649 C   0  0  0  0  0  0  0  0  0  0  0  0
   -6.4964    0.6401   -0.2732 C   0  0  2  0  0  0  0  0  0  0  0  0
   -5.1626   -0.1144   -0.4542 C   0  0  0  0  0  0  0  0  0  0  0  0
   -6.5625    1.7910   -1.3087 C   0  0  1  0  0  0  0  0  0  0  0  0
   -7.9104    2.5295   -1.3538 C   0  0  0  0  0  0  0  0  0  0  0  0
   -9.0000    1.6046   -1.7536 N   0  0  0  0  0  0  0  0  0  0  0  0
   -5.3859    2.7642   -1.0298 C   0  0  1  0  0  0  0  0  0  0  0  0
   -5.4510    3.3114    0.4075 C   0  0  0  0  0  0  0  0  0  0  0  0
   -4.0549    2.0027   -1.1991 C   0  0  0  0  0  0  0  0  0  0  0  0
   -0.0852   -0.5779   -0.7965 N   0  0  0  0  0  0  0  0  0  0  0  0
    1.0866   -1.2457   -0.8718 N   0  0  0  0  0  0  0  0  0  0  0  0
    2.1782   -0.6311   -1.6091 C   0  0  0  0  0  0  0  0  0  0  0  0
    2.8317    0.5549   -0.8880 C   0  0  0  0  0  0  0  0  0  0  0  0
    3.5729    0.2081    0.4111 C   0  0  0  0  0  0  0  0  0  0  0  0
    4.8459   -0.6311    0.2207 C   0  0  0  0  0  0  0  0  0  0  0  0
    6.1844    0.1336    0.2673 C   0  0  0  0  0  0  0  0  0  0  0  0
    6.2898    1.2710   -0.7520 C   0  0  0  0  0  0  0  0  0  0  0  0
    7.6922    1.8797   -0.7932 C   0  0  0  0  0  0  0  0  0  0  0  0
    8.3712    1.7754    0.5349 N   0  0  0  0  0  0  0  0  0  0  0  0
    7.4528    1.8435    1.7037 C   0  0  0  0  0  0  0  0  0  0  0  0
    6.5237    0.6336    1.6878 C   0  0  0  0  0  0  0  0  0  0  0  0
    1.0760   -2.4575   -0.2217 C   0  0  0  0  0  0  0  0  0  0  0  0
    2.2001   -3.3876   -0.1597 C   0  0  0  0  0  0  0  0  0  0  0  0
    2.6205   -4.0767   -1.3034 C   0  0  0  0  0  0  0  0  0  0  0  0
    3.6866   -4.9758   -1.2332 C   0  0  0  0  0  0  0  0  0  0  0  0
    4.3315   -5.2002   -0.0178 C   0  0  0  0  0  0  0  0  0  0  0  0
    3.9084   -4.5312    1.1294 C   0  0  0  0  0  0  0  0  0  0  0  0
    2.8443   -3.6300    1.0596 C   0  0  0  0  0  0  0  0  0  0  0  0
   -0.9198   -3.3501    2.1802 H   0  0  0  0  0  0  0  0  0  0  0  0
   -1.6892   -4.0316    0.7292 H   0  0  0  0  0  0  0  0  0  0  0  0
   -0.0637   -4.5386    1.1862 H   0  0  0  0  0  0  0  0  0  0  0  0
   -1.9277    0.5954   -0.9138 H   0  0  0  0  0  0  0  0  0  0  0  0
   -3.2162    2.0721    1.4354 H   0  0  0  0  0  0  0  0  0  0  0  0
   -3.9950    0.5976    1.9829 H   0  0  0  0  0  0  0  0  0  0  0  0
   -5.4481    2.5497    2.4358 H   0  0  0  0  0  0  0  0  0  0  0  0
   -7.5107    1.6948    1.3457 H   0  0  0  0  0  0  0  0  0  0  0  0
   -6.5095    0.3564    1.8798 H   0  0  0  0  0  0  0  0  0  0  0  0
   -7.3167   -0.0684   -0.4297 H   0  0  0  0  0  0  0  0  0  0  0  0
   -5.1045   -0.5353   -1.4667 H   0  0  0  0  0  0  0  0  0  0  0  0
   -5.1542   -0.9695    0.2308 H   0  0  0  0  0  0  0  0  0  0  0  0
   -6.4079    1.3572   -2.3076 H   0  0  0  0  0  0  0  0  0  0  0  0
   -8.2089    2.9617   -0.3962 H   0  0  0  0  0  0  0  0  0  0  0  0
   -7.8928    3.3231   -2.1076 H   0  0  0  0  0  0  0  0  0  0  0  0
   -9.8844    2.1144   -1.8859 H   0  0  0  0  0  0  0  0  0  0  0  0
   -8.7934    1.1241   -2.6395 H   0  0  0  0  0  0  0  0  0  0  0  0
   -9.1787    0.8838   -1.0417 H   0  0  0  0  0  0  0  0  0  0  0  0
   -5.4143    3.5977   -1.7414 H   0  0  0  0  0  0  0  0  0  0  0  0
   -4.6144    4.0002    0.5803 H   0  0  0  0  0  0  0  0  0  0  0  0
   -6.3657    3.8948    0.5596 H   0  0  0  0  0  0  0  0  0  0  0  0
   -3.9682    1.6318   -2.2292 H   0  0  0  0  0  0  0  0  0  0  0  0
   -3.2139    2.6941   -1.0533 H   0  0  0  0  0  0  0  0  0  0  0  0
    2.9150   -1.3936   -1.8673 H   0  0  0  0  0  0  0  0  0  0  0  0
    1.7478   -0.2850   -2.5574 H   0  0  0  0  0  0  0  0  0  0  0  0
    3.5234    1.0452   -1.5817 H   0  0  0  0  0  0  0  0  0  0  0  0
    2.0584    1.2963   -0.6495 H   0  0  0  0  0  0  0  0  0  0  0  0
    3.8065    1.1420    0.9341 H   0  0  0  0  0  0  0  0  0  0  0  0
    2.8883   -0.3360    1.0723 H   0  0  0  0  0  0  0  0  0  0  0  0
    4.7993   -1.1931   -0.7182 H   0  0  0  0  0  0  0  0  0  0  0  0
    4.8766   -1.3841    1.0186 H   0  0  0  0  0  0  0  0  0  0  0  0
    6.9570   -0.6035    0.0014 H   0  0  0  0  0  0  0  0  0  0  0  0
    6.0246    0.9185   -1.7556 H   0  0  0  0  0  0  0  0  0  0  0  0
    5.5722    2.0622   -0.5011 H   0  0  0  0  0  0  0  0  0  0  0  0
    7.6534    2.9404   -1.0610 H   0  0  0  0  0  0  0  0  0  0  0  0
    8.3360    1.3566   -1.5072 H   0  0  0  0  0  0  0  0  0  0  0  0
    9.0807    2.5181    0.6101 H   0  0  0  0  0  0  0  0  0  0  0  0
    8.9017    0.8934    0.5795 H   0  0  0  0  0  0  0  0  0  0  0  0
    8.0697    1.8640    2.6071 H   0  0  0  0  0  0  0  0  0  0  0  0
    6.9011    2.7867    1.6281 H   0  0  0  0  0  0  0  0  0  0  0  0
    5.6218    0.8860    2.2563 H   0  0  0  0  0  0  0  0  0  0  0  0
    6.9956   -0.1917    2.2371 H   0  0  0  0  0  0  0  0  0  0  0  0
    2.1084   -3.9352   -2.2526 H   0  0  0  0  0  0  0  0  0  0  0  0
    4.0007   -5.5176   -2.1224 H   0  0  0  0  0  0  0  0  0  0  0  0
    5.1493   -5.9151    0.0391 H   0  0  0  0  0  0  0  0  0  0  0  0
    4.3955   -4.7254    2.0818 H   0  0  0  0  0  0  0  0  0  0  0  0
    2.5133   -3.1260    1.9650 H   0  0  0  0  0  0  0  0  0  0  0  0
  1  2  1  0
  2  3  1  0
  3  4  1  0
  4  5  2  0
  4  6  1  0
  7  6  1  1
  7  8  1  0
  8  9  1  0
  9 10  1  0
 10 11  1  0
 11 12  1  0
 11 13  1  0
 13 14  1  0
 14 15  1  0
 13 16  1  0
 16 17  1  0
 16 18  1  0
  3 19  2  0
 19 20  1  0
 20 21  1  0
 21 22  1  0
 22 23  1  0
 23 24  1  0
 24 25  1  0
 25 26  1  0
 26 27  1  0
 27 28  1  0
 28 29  1  0
 29 30  1  0
 20 31  1  0
 31 32  1  0
 32 33  2  0
 33 34  1  0
 34 35  2  0
 35 36  1  0
 36 37  2  0
 31  2  2  0
 37 32  1  0
 12  7  1  0
 30 25  1  0
 18  7  1  0
 17  9  1  0
  1 38  1  0
  1 39  1  0
  1 40  1  0
  6 41  1  0
  8 42  1  0
  8 43  1  0
  9 44  1  1
 10 45  1  0
 10 46  1  0
 11 47  1  6
 12 48  1  0
 12 49  1  0
 13 50  1  6
 14 51  1  0
 14 52  1  0
 15 53  1  0
 15 54  1  0
 15 55  1  0
 16 56  1  6
 17 57  1  0
 17 58  1  0
 18 59  1  0
 18 60  1  0
 21 61  1  0
 21 62  1  0
 22 63  1  0
 22 64  1  0
 23 65  1  0
 23 66  1  0
 24 67  1  0
 24 68  1  0
 25 69  1  0
 26 70  1  0
 26 71  1  0
 27 72  1  0
 27 73  1  0
 28 74  1  0
 28 75  1  0
 29 76  1  0
 29 77  1  0
 30 78  1  0
 30 79  1  0
 33 80  1  0
 34 81  1  0
 35 82  1  0
 36 83  1  0
 37 84  1  0
M  CHG  2  15   1  28   1
M  END
>  <_SMILES>  (34) 
Cc1c(C(=O)N[C@]23C[C@@H]4C[C@H](C2)[C@@H](C[NH3+])[C@@H](C4)C3)nn(CCCCC2CC[NH2+]CC2)c1-c1ccccc1

$$$$

     RDKit          3D

 48 50  0  0  0  0  0  0  0  0999 V2000
    2.1990    0.3615   -1.6747 C   0  0  0  0  0  0  0  0  0  0  0  0
    2.3283    0.1824   -0.2045 C   0  0  0  0  0  0  0  0  0  0  0  0
    1.2854   -0.0088    0.7616 C   0  0  0  0  0  0  0  0  0  0  0  0
   -0.1755   -0.0151    0.5749 C   0  0  0  0  0  0  0  0  0  0  0  0
   -0.9396   -0.7323    1.2222 O   0  0  0  0  0  0  0  0  0  0  0  0
   -0.6640    0.8725   -0.3669 N   0  0  0  0  0  0  0  0  0  0  0  0
   -2.0749    1.2244   -0.5118 C   0  0  0  0  0  0  0  0  0  0  0  0
   -3.0765    0.0428   -0.6366 C   0  0  2  0  0  0  0  0  0  0  0  0
   -4.3947    0.4588   -1.2993 C   0  0  0  0  0  0  0  0  0  0  0  0
   -5.3335   -0.7356   -1.4739 C   0  0  0  0  0  0  0  0  0  0  0  0
   -5.5485   -1.5022   -0.1712 C   0  0  0  0  0  0  0  0  0  0  0  0
   -4.2310   -1.8687    0.5002 C   0  0  0  0  0  0  0  0  0  0  0  0
   -3.3921   -0.6339    0.6921 N   0  0  2  0  0  0  0  0  0  0  0  0
   -3.8709    0.2342    1.8216 C   0  0  0  0  0  0  0  0  0  0  0  0
    1.7971   -0.2061    1.9874 N   0  0  0  0  0  0  0  0  0  0  0  0
    3.1233   -0.1261    1.8165 N   0  0  0  0  0  0  0  0  0  0  0  0
    3.5065    0.1150    0.5254 C   0  0  0  0  0  0  0  0  0  0  0  0
    4.9073    0.2449    0.1397 C   0  0  0  0  0  0  0  0  0  0  0  0
    5.3427    1.3629   -0.5825 C   0  0  0  0  0  0  0  0  0  0  0  0
    6.6851    1.4929   -0.9457 C   0  0  0  0  0  0  0  0  0  0  0  0
    7.6025    0.5059   -0.5914 C   0  0  0  0  0  0  0  0  0  0  0  0
    7.1796   -0.6117    0.1254 C   0  0  0  0  0  0  0  0  0  0  0  0
    5.8377   -0.7423    0.4905 C   0  0  0  0  0  0  0  0  0  0  0  0
    1.3344   -0.1853   -2.0635 H   0  0  0  0  0  0  0  0  0  0  0  0
    2.0801    1.4216   -1.9193 H   0  0  0  0  0  0  0  0  0  0  0  0
    3.0810   -0.0156   -2.2022 H   0  0  0  0  0  0  0  0  0  0  0  0
    0.0040    1.5702   -0.6793 H   0  0  0  0  0  0  0  0  0  0  0  0
   -2.3349    1.9018    0.3061 H   0  0  0  0  0  0  0  0  0  0  0  0
   -2.1170    1.8170   -1.4335 H   0  0  0  0  0  0  0  0  0  0  0  0
   -2.6025   -0.7336   -1.2526 H   0  0  0  0  0  0  0  0  0  0  0  0
   -4.8928    1.2401   -0.7135 H   0  0  0  0  0  0  0  0  0  0  0  0
   -4.1922    0.8926   -2.2860 H   0  0  0  0  0  0  0  0  0  0  0  0
   -6.2980   -0.3939   -1.8661 H   0  0  0  0  0  0  0  0  0  0  0  0
   -4.9107   -1.4162   -2.2236 H   0  0  0  0  0  0  0  0  0  0  0  0
   -6.1614   -0.8989    0.5089 H   0  0  0  0  0  0  0  0  0  0  0  0
   -6.1191   -2.4153   -0.3758 H   0  0  0  0  0  0  0  0  0  0  0  0
   -4.3861   -2.3323    1.4799 H   0  0  0  0  0  0  0  0  0  0  0  0
   -3.6468   -2.5591   -0.1186 H   0  0  0  0  0  0  0  0  0  0  0  0
   -2.4635   -0.9725    1.0316 H   0  0  0  0  0  0  0  0  0  0  0  0
   -4.0614   -0.4065    2.6871 H   0  0  0  0  0  0  0  0  0  0  0  0
   -3.0827    0.9444    2.0782 H   0  0  0  0  0  0  0  0  0  0  0  0
   -4.7826    0.7533    1.5210 H   0  0  0  0  0  0  0  0  0  0  0  0
    3.7245   -0.2337    2.6277 H   0  0  0  0  0  0  0  0  0  0  0  0
    4.6454    2.1497   -0.8588 H   0  0  0  0  0  0  0  0  0  0  0  0
    7.0169    2.3658   -1.5027 H   0  0  0  0  0  0  0  0  0  0  0  0
    8.6476    0.6069   -0.8748 H   0  0  0  0  0  0  0  0  0  0  0  0
    7.8955   -1.3842    0.3963 H   0  0  0  0  0  0  0  0  0  0  0  0
    5.5290   -1.6318    1.0349 H   0  0  0  0  0  0  0  0  0  0  0  0
  1  2  1  0
  2  3  1  0
  3  4  1  0
  4  5  2  0
  4  6  1  0
  6  7  1  0
  7  8  1  0
  8  9  1  0
  9 10  1  0
 10 11  1  0
 11 12  1  0
 12 13  1  0
 13 14  1  0
  3 15  2  0
 15 16  1  0
 16 17  1  0
 17 18  1  0
 18 19  2  0
 19 20  1  0
 20 21  2  0
 21 22  1  0
 22 23  2  0
 17  2  2  0
 23 18  1  0
 13  8  1  0
  1 24  1  0
  1 25  1  0
  1 26  1  0
  6 27  1  0
  7 28  1  0
  7 29  1  0
  8 30  1  6
  9 31  1  0
  9 32  1  0
 10 33  1  0
 10 34  1  0
 11 35  1  0
 11 36  1  0
 12 37  1  0
 12 38  1  0
 13 39  1  1
 14 40  1  0
 14 41  1  0
 14 42  1  0
 16 43  1  0
 19 44  1  0
 20 45  1  0
 21 46  1  0
 22 47  1  0
 23 48  1  0
M  CHG  1  13   1
M  END
>  <_SMILES>  (35) 
Cc1c(C(=O)NC[C@@H]2CCCC[N@@H+]2C)n[nH]c1-c1ccccc1

$$$$

     RDKit          3D

 48 50  0  0  0  0  0  0  0  0999 V2000
    2.7100   -1.8544    0.1248 C   0  0  0  0  0  0  0  0  0  0  0  0
    2.4155   -0.3975    0.1041 C   0  0  0  0  0  0  0  0  0  0  0  0
    1.1629    0.2280    0.3807 C   0  0  0  0  0  0  0  0  0  0  0  0
   -0.1185   -0.4046    0.7256 C   0  0  0  0  0  0  0  0  0  0  0  0
   -0.3127   -1.6151    0.7756 O   0  0  0  0  0  0  0  0  0  0  0  0
   -1.1337    0.5105    0.9681 N   0  0  0  0  0  0  0  0  0  0  0  0
   -2.3180    0.1180    1.7159 C   0  0  0  0  0  0  0  0  0  0  0  0
   -3.2429   -0.8581    0.9359 C   0  0  1  0  0  0  0  0  0  0  0  0
   -4.6682   -0.8930    1.4850 C   0  0  0  0  0  0  0  0  0  0  0  0
   -5.4244    0.4246    1.3101 C   0  0  0  0  0  0  0  0  0  0  0  0
   -5.0255    1.1843    0.0465 C   0  0  0  0  0  0  0  0  0  0  0  0
   -4.5026    0.2537   -1.0302 C   0  0  0  0  0  0  0  0  0  0  0  0
   -3.2627   -0.4574   -0.5503 N   0  0  2  0  0  0  0  0  0  0  0  0
   -2.9123   -1.6097   -1.4550 C   0  0  0  0  0  0  0  0  0  0  0  0
    1.2500    1.5708    0.2957 N   0  0  0  0  0  0  0  0  0  0  0  0
    2.5380    1.7890   -0.0259 N   0  0  0  0  0  0  0  0  0  0  0  0
    3.2836    0.6492   -0.1654 C   0  0  0  0  0  0  0  0  0  0  0  0
    4.6928    0.6846   -0.5401 C   0  0  0  0  0  0  0  0  0  0  0  0
    5.6022    1.4711    0.1795 C   0  0  0  0  0  0  0  0  0  0  0  0
    6.9489    1.5115   -0.1892 C   0  0  0  0  0  0  0  0  0  0  0  0
    7.3969    0.7684   -1.2795 C   0  0  0  0  0  0  0  0  0  0  0  0
    6.5009   -0.0179   -2.0007 C   0  0  0  0  0  0  0  0  0  0  0  0
    5.1543   -0.0602   -1.6324 C   0  0  0  0  0  0  0  0  0  0  0  0
    2.3002   -2.3192    1.0272 H   0  0  0  0  0  0  0  0  0  0  0  0
    3.7859   -2.0527    0.1193 H   0  0  0  0  0  0  0  0  0  0  0  0
    2.2679   -2.3423   -0.7495 H   0  0  0  0  0  0  0  0  0  0  0  0
   -0.7564    1.4545    1.0920 H   0  0  0  0  0  0  0  0  0  0  0  0
   -2.8365    1.0478    1.9659 H   0  0  0  0  0  0  0  0  0  0  0  0
   -2.0009   -0.3451    2.6574 H   0  0  0  0  0  0  0  0  0  0  0  0
   -2.8170   -1.8666    0.9864 H   0  0  0  0  0  0  0  0  0  0  0  0
   -4.6604   -1.1713    2.5455 H   0  0  0  0  0  0  0  0  0  0  0  0
   -5.2232   -1.6876    0.9687 H   0  0  0  0  0  0  0  0  0  0  0  0
   -6.4997    0.2088    1.2878 H   0  0  0  0  0  0  0  0  0  0  0  0
   -5.2656    1.0713    2.1814 H   0  0  0  0  0  0  0  0  0  0  0  0
   -5.8894    1.7450   -0.3285 H   0  0  0  0  0  0  0  0  0  0  0  0
   -4.2597    1.9312    0.2887 H   0  0  0  0  0  0  0  0  0  0  0  0
   -5.2488   -0.5057   -1.2913 H   0  0  0  0  0  0  0  0  0  0  0  0
   -4.2228    0.8073   -1.9324 H   0  0  0  0  0  0  0  0  0  0  0  0
   -2.4735    0.2037   -0.6391 H   0  0  0  0  0  0  0  0  0  0  0  0
   -3.6807   -2.3798   -1.3471 H   0  0  0  0  0  0  0  0  0  0  0  0
   -1.9312   -1.9931   -1.1706 H   0  0  0  0  0  0  0  0  0  0  0  0
   -2.8765   -1.2341   -2.4812 H   0  0  0  0  0  0  0  0  0  0  0  0
    2.8545    2.7450   -0.1561 H   0  0  0  0  0  0  0  0  0  0  0  0
    5.2808    2.0443    1.0458 H   0  0  0  0  0  0  0  0  0  0  0  0
    7.6513    2.1177    0.3781 H   0  0  0  0  0  0  0  0  0  0  0  0
    8.4460    0.7987   -1.5646 H   0  0  0  0  0  0  0  0  0  0  0  0
    6.8515   -0.5986   -2.8504 H   0  0  0  0  0  0  0  0  0  0  0  0
    4.4696   -0.6746   -2.2120 H   0  0  0  0  0  0  0  0  0  0  0  0
  1  2  1  0
  2  3  1  0
  3  4  1  0
  4  5  2  0
  4  6  1  0
  6  7  1  0
  7  8  1  0
  8  9  1  0
  9 10  1  0
 10 11  1  0
 11 12  1  0
 12 13  1  0
 13 14  1  0
  3 15  2  0
 15 16  1  0
 16 17  1  0
 17 18  1  0
 18 19  2  0
 19 20  1  0
 20 21  2  0
 21 22  1  0
 22 23  2  0
 17  2  2  0
 23 18  1  0
 13  8  1  0
  1 24  1  0
  1 25  1  0
  1 26  1  0
  6 27  1  0
  7 28  1  0
  7 29  1  0
  8 30  1  6
  9 31  1  0
  9 32  1  0
 10 33  1  0
 10 34  1  0
 11 35  1  0
 11 36  1  0
 12 37  1  0
 12 38  1  0
 13 39  1  1
 14 40  1  0
 14 41  1  0
 14 42  1  0
 16 43  1  0
 19 44  1  0
 20 45  1  0
 21 46  1  0
 22 47  1  0
 23 48  1  0
M  CHG  1  13   1
M  END
>  <_SMILES>  (36) 
Cc1c(C(=O)NC[C@H]2CCCC[N@@H+]2C)n[nH]c1-c1ccccc1

$$$$

     RDKit          3D

 48 50  0  0  0  0  0  0  0  0999 V2000
    2.3985   -0.7002   -2.0601 C   0  0  0  0  0  0  0  0  0  0  0  0
    2.4942   -0.3981   -0.6083 C   0  0  0  0  0  0  0  0  0  0  0  0
    1.4132   -0.2966    0.3194 C   0  0  0  0  0  0  0  0  0  0  0  0
   -0.0269   -0.4478    0.0622 C   0  0  0  0  0  0  0  0  0  0  0  0
   -0.5243   -0.6996   -1.0340 O   0  0  0  0  0  0  0  0  0  0  0  0
   -0.8083   -0.2780    1.1910 N   0  0  0  0  0  0  0  0  0  0  0  0
   -2.2153   -0.6008    1.1934 C   0  0  0  0  0  0  0  0  0  0  0  0
   -3.0600    0.3674    0.3157 C   0  0  2  0  0  0  0  0  0  0  0  0
   -3.6516    1.5143    1.1566 C   0  0  0  0  0  0  0  0  0  0  0  0
   -5.0174    1.1689    1.7328 C   0  0  0  0  0  0  0  0  0  0  0  0
   -6.0291    0.8663    0.6282 C   0  0  0  0  0  0  0  0  0  0  0  0
   -5.3870    0.4397   -0.6867 C   0  0  0  0  0  0  0  0  0  0  0  0
   -4.1800   -0.4116   -0.3957 N   0  0  1  0  0  0  0  0  0  0  0  0
   -3.6677   -1.0826   -1.6517 C   0  0  0  0  0  0  0  0  0  0  0  0
    1.8560   -0.0332    1.5656 N   0  0  0  0  0  0  0  0  0  0  0  0
    3.1904    0.0434    1.4240 N   0  0  0  0  0  0  0  0  0  0  0  0
    3.6339   -0.1649    0.1457 C   0  0  0  0  0  0  0  0  0  0  0  0
    5.0477   -0.0996   -0.2054 C   0  0  0  0  0  0  0  0  0  0  0  0
    5.4850    0.7512   -1.2280 C   0  0  0  0  0  0  0  0  0  0  0  0
    6.8402    0.8246   -1.5572 C   0  0  0  0  0  0  0  0  0  0  0  0
    7.7687    0.0474   -0.8677 C   0  0  0  0  0  0  0  0  0  0  0  0
    7.3440   -0.8042    0.1503 C   0  0  0  0  0  0  0  0  0  0  0  0
    5.9889   -0.8776    0.4815 C   0  0  0  0  0  0  0  0  0  0  0  0
    1.7528   -1.5672   -2.2327 H   0  0  0  0  0  0  0  0  0  0  0  0
    3.3755   -0.9335   -2.4937 H   0  0  0  0  0  0  0  0  0  0  0  0
    1.9820    0.1567   -2.5989 H   0  0  0  0  0  0  0  0  0  0  0  0
   -0.2707   -0.1968    2.0566 H   0  0  0  0  0  0  0  0  0  0  0  0
   -2.2998   -1.6342    0.8398 H   0  0  0  0  0  0  0  0  0  0  0  0
   -2.5522   -0.5873    2.2353 H   0  0  0  0  0  0  0  0  0  0  0  0
   -2.4527    0.8206   -0.4763 H   0  0  0  0  0  0  0  0  0  0  0  0
   -2.9618    1.7957    1.9612 H   0  0  0  0  0  0  0  0  0  0  0  0
   -3.7515    2.4070    0.5247 H   0  0  0  0  0  0  0  0  0  0  0  0
   -5.3868    1.9913    2.3559 H   0  0  0  0  0  0  0  0  0  0  0  0
   -4.9256    0.2970    2.3921 H   0  0  0  0  0  0  0  0  0  0  0  0
   -6.7128    0.0844    0.9812 H   0  0  0  0  0  0  0  0  0  0  0  0
   -6.6512    1.7498    0.4415 H   0  0  0  0  0  0  0  0  0  0  0  0
   -5.0520    1.2971   -1.2814 H   0  0  0  0  0  0  0  0  0  0  0  0
   -6.0910   -0.1536   -1.2798 H   0  0  0  0  0  0  0  0  0  0  0  0
   -4.4940   -1.1677    0.2262 H   0  0  0  0  0  0  0  0  0  0  0  0
   -4.4978   -1.6372   -2.0977 H   0  0  0  0  0  0  0  0  0  0  0  0
   -2.8768   -1.7809   -1.3732 H   0  0  0  0  0  0  0  0  0  0  0  0
   -3.3026   -0.3127   -2.3362 H   0  0  0  0  0  0  0  0  0  0  0  0
    3.7559    0.2573    2.2396 H   0  0  0  0  0  0  0  0  0  0  0  0
    4.7763    1.3714   -1.7716 H   0  0  0  0  0  0  0  0  0  0  0  0
    7.1720    1.4891   -2.3513 H   0  0  0  0  0  0  0  0  0  0  0  0
    8.8237    0.1033   -1.1258 H   0  0  0  0  0  0  0  0  0  0  0  0
    8.0688   -1.4156    0.6825 H   0  0  0  0  0  0  0  0  0  0  0  0
    5.6790   -1.5624    1.2672 H   0  0  0  0  0  0  0  0  0  0  0  0
  1  2  1  0
  2  3  1  0
  3  4  1  0
  4  5  2  0
  4  6  1  0
  6  7  1  0
  7  8  1  0
  8  9  1  0
  9 10  1  0
 10 11  1  0
 11 12  1  0
 12 13  1  0
 13 14  1  0
  3 15  2  0
 15 16  1  0
 16 17  1  0
 17 18  1  0
 18 19  2  0
 19 20  1  0
 20 21  2  0
 21 22  1  0
 22 23  2  0
 17  2  2  0
 23 18  1  0
 13  8  1  0
  1 24  1  0
  1 25  1  0
  1 26  1  0
  6 27  1  0
  7 28  1  0
  7 29  1  0
  8 30  1  6
  9 31  1  0
  9 32  1  0
 10 33  1  0
 10 34  1  0
 11 35  1  0
 11 36  1  0
 12 37  1  0
 12 38  1  0
 13 39  1  1
 14 40  1  0
 14 41  1  0
 14 42  1  0
 16 43  1  0
 19 44  1  0
 20 45  1  0
 21 46  1  0
 22 47  1  0
 23 48  1  0
M  CHG  1  13   1
M  END
>  <_SMILES>  (37) 
Cc1c(C(=O)NC[C@@H]2CCCC[N@H+]2C)n[nH]c1-c1ccccc1

$$$$

     RDKit          3D

 48 50  0  0  0  0  0  0  0  0999 V2000
    2.6849    1.8244    1.0552 C   0  0  0  0  0  0  0  0  0  0  0  0
    2.6279    0.6223    0.1830 C   0  0  0  0  0  0  0  0  0  0  0  0
    1.5056   -0.2373   -0.0190 C   0  0  0  0  0  0  0  0  0  0  0  0
    0.1706   -0.1524    0.5925 C   0  0  0  0  0  0  0  0  0  0  0  0
   -0.1720    0.6878    1.4214 O   0  0  0  0  0  0  0  0  0  0  0  0
   -0.6998   -1.1315    0.1488 N   0  0  0  0  0  0  0  0  0  0  0  0
   -1.9804   -1.3475    0.7797 C   0  0  0  0  0  0  0  0  0  0  0  0
   -2.9971   -0.2060    0.5174 C   0  0  1  0  0  0  0  0  0  0  0  0
   -3.4927   -0.1734   -0.9434 C   0  0  0  0  0  0  0  0  0  0  0  0
   -4.8722   -0.7822   -1.1439 C   0  0  0  0  0  0  0  0  0  0  0  0
   -5.9255   -0.1179   -0.2580 C   0  0  0  0  0  0  0  0  0  0  0  0
   -5.3458    0.5668    0.9737 C   0  0  0  0  0  0  0  0  0  0  0  0
   -4.1719   -0.2148    1.5084 N   0  0  1  0  0  0  0  0  0  0  0  0
   -4.5801   -1.5394    2.0983 C   0  0  0  0  0  0  0  0  0  0  0  0
    1.7923   -1.2266   -0.8897 N   0  0  0  0  0  0  0  0  0  0  0  0
    3.0752   -1.0011   -1.2217 N   0  0  0  0  0  0  0  0  0  0  0  0
    3.6312    0.0918   -0.6129 C   0  0  0  0  0  0  0  0  0  0  0  0
    5.0199    0.4796   -0.8320 C   0  0  0  0  0  0  0  0  0  0  0  0
    5.8876    0.6493    0.2538 C   0  0  0  0  0  0  0  0  0  0  0  0
    7.2211    1.0082    0.0456 C   0  0  0  0  0  0  0  0  0  0  0  0
    7.6976    1.2012   -1.2494 C   0  0  0  0  0  0  0  0  0  0  0  0
    6.8422    1.0368   -2.3371 C   0  0  0  0  0  0  0  0  0  0  0  0
    5.5084    0.6766   -2.1303 C   0  0  0  0  0  0  0  0  0  0  0  0
    3.5710    2.4331    0.8525 H   0  0  0  0  0  0  0  0  0  0  0  0
    1.8105    2.4625    0.8922 H   0  0  0  0  0  0  0  0  0  0  0  0
    2.7078    1.5275    2.1085 H   0  0  0  0  0  0  0  0  0  0  0  0
   -0.2563   -1.8418   -0.4369 H   0  0  0  0  0  0  0  0  0  0  0  0
   -1.7837   -1.4403    1.8535 H   0  0  0  0  0  0  0  0  0  0  0  0
   -2.3670   -2.3049    0.4148 H   0  0  0  0  0  0  0  0  0  0  0  0
   -2.5080    0.7566    0.7062 H   0  0  0  0  0  0  0  0  0  0  0  0
   -3.5302    0.8739   -1.2733 H   0  0  0  0  0  0  0  0  0  0  0  0
   -2.7738   -0.6633   -1.6104 H   0  0  0  0  0  0  0  0  0  0  0  0
   -4.8285   -1.8563   -0.9296 H   0  0  0  0  0  0  0  0  0  0  0  0
   -5.1721   -0.6971   -2.1949 H   0  0  0  0  0  0  0  0  0  0  0  0
   -6.6638   -0.8717    0.0417 H   0  0  0  0  0  0  0  0  0  0  0  0
   -6.4801    0.6283   -0.8399 H   0  0  0  0  0  0  0  0  0  0  0  0
   -4.9740    1.5703    0.7360 H   0  0  0  0  0  0  0  0  0  0  0  0
   -6.0866    0.6630    1.7746 H   0  0  0  0  0  0  0  0  0  0  0  0
   -3.8264    0.3315    2.3117 H   0  0  0  0  0  0  0  0  0  0  0  0
   -3.7704   -1.8954    2.7390 H   0  0  0  0  0  0  0  0  0  0  0  0
   -5.4708   -1.3802    2.7124 H   0  0  0  0  0  0  0  0  0  0  0  0
   -4.7858   -2.2500    1.2966 H   0  0  0  0  0  0  0  0  0  0  0  0
    3.5325   -1.6411   -1.8634 H   0  0  0  0  0  0  0  0  0  0  0  0
    5.5360    0.4949    1.2713 H   0  0  0  0  0  0  0  0  0  0  0  0
    7.8887    1.1363    0.8943 H   0  0  0  0  0  0  0  0  0  0  0  0
    8.7355    1.4826   -1.4108 H   0  0  0  0  0  0  0  0  0  0  0  0
    7.2136    1.1949   -3.3468 H   0  0  0  0  0  0  0  0  0  0  0  0
    4.8553    0.5716   -2.9933 H   0  0  0  0  0  0  0  0  0  0  0  0
  1  2  1  0
  2  3  1  0
  3  4  1  0
  4  5  2  0
  4  6  1  0
  6  7  1  0
  7  8  1  0
  8  9  1  0
  9 10  1  0
 10 11  1  0
 11 12  1  0
 12 13  1  0
 13 14  1  0
  3 15  2  0
 15 16  1  0
 16 17  1  0
 17 18  1  0
 18 19  2  0
 19 20  1  0
 20 21  2  0
 21 22  1  0
 22 23  2  0
 17  2  2  0
 23 18  1  0
 13  8  1  0
  1 24  1  0
  1 25  1  0
  1 26  1  0
  6 27  1  0
  7 28  1  0
  7 29  1  0
  8 30  1  1
  9 31  1  0
  9 32  1  0
 10 33  1  0
 10 34  1  0
 11 35  1  0
 11 36  1  0
 12 37  1  0
 12 38  1  0
 13 39  1  1
 14 40  1  0
 14 41  1  0
 14 42  1  0
 16 43  1  0
 19 44  1  0
 20 45  1  0
 21 46  1  0
 22 47  1  0
 23 48  1  0
M  CHG  1  13   1
M  END
>  <_SMILES>  (38) 
Cc1c(C(=O)NC[C@H]2CCCC[N@H+]2C)n[nH]c1-c1ccccc1

$$$$

     RDKit          3D

 48 50  0  0  0  0  0  0  0  0999 V2000
    2.1635   -0.4547   -1.0722 C   0  0  0  0  0  0  0  0  0  0  0  0
    2.3309   -0.1218    0.3670 C   0  0  0  0  0  0  0  0  0  0  0  0
    3.5718    0.1530    1.0371 C   0  0  0  0  0  0  0  0  0  0  0  0
    4.9332    0.0979    0.5044 C   0  0  0  0  0  0  0  0  0  0  0  0
    5.3702   -1.0022   -0.2461 C   0  0  0  0  0  0  0  0  0  0  0  0
    6.6719   -1.0401   -0.7531 C   0  0  0  0  0  0  0  0  0  0  0  0
    7.5477    0.0166   -0.5087 C   0  0  0  0  0  0  0  0  0  0  0  0
    7.1278    1.1086    0.2485 C   0  0  0  0  0  0  0  0  0  0  0  0
    5.8274    1.1475    0.7563 C   0  0  0  0  0  0  0  0  0  0  0  0
    3.3555    0.5242    2.3051 N   0  0  0  0  0  0  0  0  0  0  0  0
    2.0321    0.4644    2.4552 N   0  0  0  0  0  0  0  0  0  0  0  0
    1.3537    0.0386    1.3448 C   0  0  0  0  0  0  0  0  0  0  0  0
   -0.0763   -0.1036    1.3869 C   0  0  0  0  0  0  0  0  0  0  0  0
   -0.7648    0.3913    2.2746 O   0  0  0  0  0  0  0  0  0  0  0  0
   -0.6452   -0.8646    0.3873 N   0  0  0  0  0  0  0  0  0  0  0  0
   -2.0639   -1.1743    0.3892 C   0  0  0  0  0  0  0  0  0  0  0  0
   -2.9158   -0.2289   -0.5016 C   0  0  2  0  0  0  0  0  0  0  0  0
   -2.7619    1.2572   -0.1175 C   0  0  0  0  0  0  0  0  0  0  0  0
   -3.9597    2.1000   -0.5330 C   0  0  0  0  0  0  0  0  0  0  0  0
   -5.2279    1.6253    0.1776 C   0  0  0  0  0  0  0  0  0  0  0  0
   -5.1996    0.1428    0.5394 C   0  0  0  0  0  0  0  0  0  0  0  0
   -4.4120   -0.6000   -0.5131 N   0  0  2  0  0  0  0  0  0  0  0  0
   -4.7209   -2.0697   -0.5291 C   0  0  0  0  0  0  0  0  0  0  0  0
    2.1197   -1.5393   -1.2104 H   0  0  0  0  0  0  0  0  0  0  0  0
    1.2462   -0.0127   -1.4741 H   0  0  0  0  0  0  0  0  0  0  0  0
    2.9886   -0.0632   -1.6751 H   0  0  0  0  0  0  0  0  0  0  0  0
    4.7126   -1.8478   -0.4255 H   0  0  0  0  0  0  0  0  0  0  0  0
    7.0079   -1.8985   -1.3293 H   0  0  0  0  0  0  0  0  0  0  0  0
    8.5625   -0.0156   -0.8979 H   0  0  0  0  0  0  0  0  0  0  0  0
    7.8136    1.9273    0.4514 H   0  0  0  0  0  0  0  0  0  0  0  0
    5.5134    1.9997    1.3559 H   0  0  0  0  0  0  0  0  0  0  0  0
    1.6341    0.7170    3.3551 H   0  0  0  0  0  0  0  0  0  0  0  0
   -0.0184   -1.4269   -0.1749 H   0  0  0  0  0  0  0  0  0  0  0  0
   -2.1343   -2.2027    0.0201 H   0  0  0  0  0  0  0  0  0  0  0  0
   -2.4408   -1.1696    1.4182 H   0  0  0  0  0  0  0  0  0  0  0  0
   -2.5979   -0.3540   -1.5448 H   0  0  0  0  0  0  0  0  0  0  0  0
   -1.8496    1.6585   -0.5745 H   0  0  0  0  0  0  0  0  0  0  0  0
   -2.6427    1.3614    0.9666 H   0  0  0  0  0  0  0  0  0  0  0  0
   -3.7824    3.1570   -0.3044 H   0  0  0  0  0  0  0  0  0  0  0  0
   -4.0949    2.0326   -1.6196 H   0  0  0  0  0  0  0  0  0  0  0  0
   -5.3821    2.2055    1.0954 H   0  0  0  0  0  0  0  0  0  0  0  0
   -6.0914    1.8377   -0.4646 H   0  0  0  0  0  0  0  0  0  0  0  0
   -6.2162   -0.2641    0.5623 H   0  0  0  0  0  0  0  0  0  0  0  0
   -4.7179   -0.0431    1.5054 H   0  0  0  0  0  0  0  0  0  0  0  0
   -4.7694   -0.2553   -1.4152 H   0  0  0  0  0  0  0  0  0  0  0  0
   -5.7852   -2.1865   -0.7508 H   0  0  0  0  0  0  0  0  0  0  0  0
   -4.1272   -2.5327   -1.3213 H   0  0  0  0  0  0  0  0  0  0  0  0
   -4.4859   -2.4923    0.4509 H   0  0  0  0  0  0  0  0  0  0  0  0
  1  2  1  0
  2  3  1  0
  3  4  1  0
  4  5  2  0
  5  6  1  0
  6  7  2  0
  7  8  1  0
  8  9  2  0
  3 10  2  0
 10 11  1  0
 11 12  1  0
 12 13  1  0
 13 14  2  0
 13 15  1  0
 15 16  1  0
 16 17  1  0
 17 18  1  0
 18 19  1  0
 19 20  1  0
 20 21  1  0
 21 22  1  0
 22 23  1  0
 12  2  2  0
 22 17  1  0
  9  4  1  0
  1 24  1  0
  1 25  1  0
  1 26  1  0
  5 27  1  0
  6 28  1  0
  7 29  1  0
  8 30  1  0
  9 31  1  0
 11 32  1  0
 15 33  1  0
 16 34  1  0
 16 35  1  0
 17 36  1  6
 18 37  1  0
 18 38  1  0
 19 39  1  0
 19 40  1  0
 20 41  1  0
 20 42  1  0
 21 43  1  0
 21 44  1  0
 22 45  1  6
 23 46  1  0
 23 47  1  0
 23 48  1  0
M  CHG  1  22   1
M  END
>  <_SMILES>  (39) 
Cc1c(-c2ccccc2)n[nH]c1C(=O)NC[C@@H]1CCCC[N@@H+]1C

$$$$

     RDKit          3D

 48 50  0  0  0  0  0  0  0  0999 V2000
    2.1777   -1.3239   -0.0467 C   0  0  0  0  0  0  0  0  0  0  0  0
    2.3562    0.1417    0.1313 C   0  0  0  0  0  0  0  0  0  0  0  0
    3.5836    0.8743   -0.0128 C   0  0  0  0  0  0  0  0  0  0  0  0
    4.9286    0.3664   -0.2841 C   0  0  0  0  0  0  0  0  0  0  0  0
    5.4443   -0.7266    0.4256 C   0  0  0  0  0  0  0  0  0  0  0  0
    6.7290   -1.2043    0.1533 C   0  0  0  0  0  0  0  0  0  0  0  0
    7.5099   -0.5900   -0.8244 C   0  0  0  0  0  0  0  0  0  0  0  0
    7.0124    0.5065   -1.5260 C   0  0  0  0  0  0  0  0  0  0  0  0
    5.7289    0.9852   -1.2545 C   0  0  0  0  0  0  0  0  0  0  0  0
    3.3684    2.1903    0.1096 N   0  0  0  0  0  0  0  0  0  0  0  0
    2.0618    2.2999    0.3498 N   0  0  0  0  0  0  0  0  0  0  0  0
    1.3964    1.1062    0.4233 C   0  0  0  0  0  0  0  0  0  0  0  0
   -0.0103    1.0780    0.7130 C   0  0  0  0  0  0  0  0  0  0  0  0
   -0.7290    2.0726    0.6445 O   0  0  0  0  0  0  0  0  0  0  0  0
   -0.5303   -0.1337    1.1205 N   0  0  0  0  0  0  0  0  0  0  0  0
   -1.8998   -0.2134    1.5952 C   0  0  0  0  0  0  0  0  0  0  0  0
   -2.9631    0.0369    0.4850 C   0  0  1  0  0  0  0  0  0  0  0  0
   -2.9164   -1.1081   -0.5419 C   0  0  0  0  0  0  0  0  0  0  0  0
   -3.9732   -0.9612   -1.6283 C   0  0  0  0  0  0  0  0  0  0  0  0
   -5.3607   -0.8354   -1.0204 C   0  0  0  0  0  0  0  0  0  0  0  0
   -5.4244    0.3122   -0.0281 C   0  0  0  0  0  0  0  0  0  0  0  0
   -4.3874    0.1138    1.0633 N   0  0  2  0  0  0  0  0  0  0  0  0
   -4.5463    1.2006    2.1028 C   0  0  0  0  0  0  0  0  0  0  0  0
    2.9406   -1.7448   -0.7087 H   0  0  0  0  0  0  0  0  0  0  0  0
    1.2088   -1.5501   -0.5031 H   0  0  0  0  0  0  0  0  0  0  0  0
    2.2379   -1.8355    0.9188 H   0  0  0  0  0  0  0  0  0  0  0  0
    4.8629   -1.2037    1.2093 H   0  0  0  0  0  0  0  0  0  0  0  0
    7.1260   -2.0490    0.7107 H   0  0  0  0  0  0  0  0  0  0  0  0
    8.5118   -0.9581   -1.0323 H   0  0  0  0  0  0  0  0  0  0  0  0
    7.6250    0.9948   -2.2798 H   0  0  0  0  0  0  0  0  0  0  0  0
    5.3546    1.8487   -1.8009 H   0  0  0  0  0  0  0  0  0  0  0  0
    1.6691    3.2288    0.4706 H   0  0  0  0  0  0  0  0  0  0  0  0
    0.1369   -0.8249    1.4430 H   0  0  0  0  0  0  0  0  0  0  0  0
   -1.9860    0.5224    2.3998 H   0  0  0  0  0  0  0  0  0  0  0  0
   -2.0352   -1.2071    2.0364 H   0  0  0  0  0  0  0  0  0  0  0  0
   -2.7976    0.9940   -0.0210 H   0  0  0  0  0  0  0  0  0  0  0  0
   -1.9292   -1.1444   -1.0177 H   0  0  0  0  0  0  0  0  0  0  0  0
   -3.0568   -2.0707   -0.0331 H   0  0  0  0  0  0  0  0  0  0  0  0
   -3.7541   -0.0756   -2.2373 H   0  0  0  0  0  0  0  0  0  0  0  0
   -3.9387   -1.8274   -2.2985 H   0  0  0  0  0  0  0  0  0  0  0  0
   -5.6313   -1.7738   -0.5207 H   0  0  0  0  0  0  0  0  0  0  0  0
   -6.0969   -0.6740   -1.8157 H   0  0  0  0  0  0  0  0  0  0  0  0
   -5.2237    1.2782   -0.5052 H   0  0  0  0  0  0  0  0  0  0  0  0
   -6.4074    0.3393    0.4539 H   0  0  0  0  0  0  0  0  0  0  0  0
   -4.5986   -0.7817    1.5233 H   0  0  0  0  0  0  0  0  0  0  0  0
   -4.1782    2.1412    1.6851 H   0  0  0  0  0  0  0  0  0  0  0  0
   -5.6062    1.2766    2.3614 H   0  0  0  0  0  0  0  0  0  0  0  0
   -3.9903    0.9092    2.9956 H   0  0  0  0  0  0  0  0  0  0  0  0
  1  2  1  0
  2  3  1  0
  3  4  1  0
  4  5  2  0
  5  6  1  0
  6  7  2  0
  7  8  1  0
  8  9  2  0
  3 10  2  0
 10 11  1  0
 11 12  1  0
 12 13  1  0
 13 14  2  0
 13 15  1  0
 15 16  1  0
 16 17  1  0
 17 18  1  0
 18 19  1  0
 19 20  1  0
 20 21  1  0
 21 22  1  0
 22 23  1  0
 12  2  2  0
 22 17  1  0
  9  4  1  0
  1 24  1  0
  1 25  1  0
  1 26  1  0
  5 27  1  0
  6 28  1  0
  7 29  1  0
  8 30  1  0
  9 31  1  0
 11 32  1  0
 15 33  1  0
 16 34  1  0
 16 35  1  0
 17 36  1  6
 18 37  1  0
 18 38  1  0
 19 39  1  0
 19 40  1  0
 20 41  1  0
 20 42  1  0
 21 43  1  0
 21 44  1  0
 22 45  1  1
 23 46  1  0
 23 47  1  0
 23 48  1  0
M  CHG  1  22   1
M  END
>  <_SMILES>  (40) 
Cc1c(-c2ccccc2)n[nH]c1C(=O)NC[C@H]1CCCC[N@@H+]1C

$$$$

     RDKit          3D

 48 50  0  0  0  0  0  0  0  0999 V2000
    2.5267   -1.0095    1.3316 C   0  0  0  0  0  0  0  0  0  0  0  0
    2.3814   -0.2328    0.0704 C   0  0  0  0  0  0  0  0  0  0  0  0
    3.4200    0.3825   -0.7009 C   0  0  0  0  0  0  0  0  0  0  0  0
    4.8575    0.4382   -0.4333 C   0  0  0  0  0  0  0  0  0  0  0  0
    5.3440    0.7340    0.8474 C   0  0  0  0  0  0  0  0  0  0  0  0
    6.7197    0.7811    1.0889 C   0  0  0  0  0  0  0  0  0  0  0  0
    7.6198    0.5401    0.0523 C   0  0  0  0  0  0  0  0  0  0  0  0
    7.1477    0.2587   -1.2281 C   0  0  0  0  0  0  0  0  0  0  0  0
    5.7731    0.2117   -1.4708 C   0  0  0  0  0  0  0  0  0  0  0  0
    2.9108    0.9465   -1.8051 N   0  0  0  0  0  0  0  0  0  0  0  0
    1.5969    0.7553   -1.7117 N   0  0  0  0  0  0  0  0  0  0  0  0
    1.2037    0.0291   -0.6233 C   0  0  0  0  0  0  0  0  0  0  0  0
   -0.1500   -0.3205   -0.2850 C   0  0  0  0  0  0  0  0  0  0  0  0
   -0.5330   -0.5335    0.8626 O   0  0  0  0  0  0  0  0  0  0  0  0
   -1.0549   -0.3511   -1.3266 N   0  0  0  0  0  0  0  0  0  0  0  0
   -2.3509   -1.0356   -1.2637 C   0  0  0  0  0  0  0  0  0  0  0  0
   -3.1662   -1.0445    0.0693 C   0  0  2  0  0  0  0  0  0  0  0  0
   -4.6376   -1.4175   -0.1613 C   0  0  0  0  0  0  0  0  0  0  0  0
   -5.4486   -0.3021   -0.8215 C   0  0  0  0  0  0  0  0  0  0  0  0
   -5.2905    1.0313   -0.0966 C   0  0  0  0  0  0  0  0  0  0  0  0
   -3.8294    1.4045    0.1114 C   0  0  0  0  0  0  0  0  0  0  0  0
   -3.0976    0.2895    0.7953 N   0  0  1  0  0  0  0  0  0  0  0  0
   -3.3872    0.1831    2.2699 C   0  0  0  0  0  0  0  0  0  0  0  0
    2.4118   -0.3505    2.1978 H   0  0  0  0  0  0  0  0  0  0  0  0
    1.7736   -1.8010    1.3979 H   0  0  0  0  0  0  0  0  0  0  0  0
    3.5049   -1.4964    1.3908 H   0  0  0  0  0  0  0  0  0  0  0  0
    4.6623    0.9486    1.6655 H   0  0  0  0  0  0  0  0  0  0  0  0
    7.0904    1.0139    2.0841 H   0  0  0  0  0  0  0  0  0  0  0  0
    8.6901    0.5806    0.2399 H   0  0  0  0  0  0  0  0  0  0  0  0
    7.8486    0.0808   -2.0399 H   0  0  0  0  0  0  0  0  0  0  0  0
    5.4173   -0.0011   -2.4767 H   0  0  0  0  0  0  0  0  0  0  0  0
    1.0197    1.1721   -2.4331 H   0  0  0  0  0  0  0  0  0  0  0  0
   -0.6434   -0.3640   -2.2531 H   0  0  0  0  0  0  0  0  0  0  0  0
   -2.9404   -0.5895   -2.0710 H   0  0  0  0  0  0  0  0  0  0  0  0
   -2.1628   -2.0757   -1.5568 H   0  0  0  0  0  0  0  0  0  0  0  0
   -2.7090   -1.7858    0.7363 H   0  0  0  0  0  0  0  0  0  0  0  0
   -5.1030   -1.6679    0.8002 H   0  0  0  0  0  0  0  0  0  0  0  0
   -4.7006   -2.3252   -0.7734 H   0  0  0  0  0  0  0  0  0  0  0  0
   -6.5078   -0.5840   -0.8423 H   0  0  0  0  0  0  0  0  0  0  0  0
   -5.1407   -0.1852   -1.8668 H   0  0  0  0  0  0  0  0  0  0  0  0
   -5.8061    0.9825    0.8697 H   0  0  0  0  0  0  0  0  0  0  0  0
   -5.7888    1.8198   -0.6723 H   0  0  0  0  0  0  0  0  0  0  0  0
   -3.3264    1.5845   -0.8444 H   0  0  0  0  0  0  0  0  0  0  0  0
   -3.7244    2.3046    0.7260 H   0  0  0  0  0  0  0  0  0  0  0  0
   -2.0882    0.5143    0.7885 H   0  0  0  0  0  0  0  0  0  0  0  0
   -4.4319   -0.0981    2.4153 H   0  0  0  0  0  0  0  0  0  0  0  0
   -2.7208   -0.5712    2.6967 H   0  0  0  0  0  0  0  0  0  0  0  0
   -3.1802    1.1555    2.7245 H   0  0  0  0  0  0  0  0  0  0  0  0
  1  2  1  0
  2  3  1  0
  3  4  1  0
  4  5  2  0
  5  6  1  0
  6  7  2  0
  7  8  1  0
  8  9  2  0
  3 10  2  0
 10 11  1  0
 11 12  1  0
 12 13  1  0
 13 14  2  0
 13 15  1  0
 15 16  1  0
 16 17  1  0
 17 18  1  0
 18 19  1  0
 19 20  1  0
 20 21  1  0
 21 22  1  0
 22 23  1  0
 12  2  2  0
 22 17  1  0
  9  4  1  0
  1 24  1  0
  1 25  1  0
  1 26  1  0
  5 27  1  0
  6 28  1  0
  7 29  1  0
  8 30  1  0
  9 31  1  0
 11 32  1  0
 15 33  1  0
 16 34  1  0
 16 35  1  0
 17 36  1  1
 18 37  1  0
 18 38  1  0
 19 39  1  0
 19 40  1  0
 20 41  1  0
 20 42  1  0
 21 43  1  0
 21 44  1  0
 22 45  1  1
 23 46  1  0
 23 47  1  0
 23 48  1  0
M  CHG  1  22   1
M  END
>  <_SMILES>  (41) 
Cc1c(-c2ccccc2)n[nH]c1C(=O)NC[C@@H]1CCCC[N@H+]1C

$$$$

     RDKit          3D

 48 50  0  0  0  0  0  0  0  0999 V2000
    1.9331   -0.0172   -1.6359 C   0  0  0  0  0  0  0  0  0  0  0  0
    2.2731    0.1647   -0.1991 C   0  0  0  0  0  0  0  0  0  0  0  0
    3.5715    0.1067    0.4038 C   0  0  0  0  0  0  0  0  0  0  0  0
    4.8723   -0.1084   -0.2304 C   0  0  0  0  0  0  0  0  0  0  0  0
    5.7970   -0.9898    0.3472 C   0  0  0  0  0  0  0  0  0  0  0  0
    7.0405   -1.2065   -0.2507 C   0  0  0  0  0  0  0  0  0  0  0  0
    7.3737   -0.5381   -1.4271 C   0  0  0  0  0  0  0  0  0  0  0  0
    6.4685    0.3518   -2.0028 C   0  0  0  0  0  0  0  0  0  0  0  0
    5.2238    0.5691   -1.4058 C   0  0  0  0  0  0  0  0  0  0  0  0
    3.4787    0.2643    1.7315 N   0  0  0  0  0  0  0  0  0  0  0  0
    2.1876    0.5002    1.9571 N   0  0  0  0  0  0  0  0  0  0  0  0
    1.3917    0.4044    0.8505 C   0  0  0  0  0  0  0  0  0  0  0  0
   -0.0352    0.5806    0.8275 C   0  0  0  0  0  0  0  0  0  0  0  0
   -0.6630    0.9496   -0.1643 O   0  0  0  0  0  0  0  0  0  0  0  0
   -0.7031    0.2504    1.9861 N   0  0  0  0  0  0  0  0  0  0  0  0
   -2.1329    0.4674    2.2026 C   0  0  0  0  0  0  0  0  0  0  0  0
   -3.0783   -0.2333    1.1884 C   0  0  1  0  0  0  0  0  0  0  0  0
   -4.4986   -0.4223    1.7328 C   0  0  0  0  0  0  0  0  0  0  0  0
   -5.5073   -0.8320    0.6532 C   0  0  0  0  0  0  0  0  0  0  0  0
   -4.8287   -1.3723   -0.6000 C   0  0  0  0  0  0  0  0  0  0  0  0
   -3.8182   -0.3992   -1.2093 C   0  0  0  0  0  0  0  0  0  0  0  0
   -3.1643    0.4659   -0.1571 N   0  0  1  0  0  0  0  0  0  0  0  0
   -3.6818    1.8792   -0.1623 C   0  0  0  0  0  0  0  0  0  0  0  0
    0.9489   -0.4816   -1.7540 H   0  0  0  0  0  0  0  0  0  0  0  0
    1.9215    0.9499   -2.1480 H   0  0  0  0  0  0  0  0  0  0  0  0
    2.6540   -0.6694   -2.1382 H   0  0  0  0  0  0  0  0  0  0  0  0
    5.5524   -1.5101    1.2709 H   0  0  0  0  0  0  0  0  0  0  0  0
    7.7503   -1.8916    0.2061 H   0  0  0  0  0  0  0  0  0  0  0  0
    8.3441   -0.7029   -1.8892 H   0  0  0  0  0  0  0  0  0  0  0  0
    6.7368    0.8841   -2.9121 H   0  0  0  0  0  0  0  0  0  0  0  0
    4.5447    1.2864   -1.8582 H   0  0  0  0  0  0  0  0  0  0  0  0
    1.9199    0.7345    2.9064 H   0  0  0  0  0  0  0  0  0  0  0  0
   -0.1820   -0.1724    2.7455 H   0  0  0  0  0  0  0  0  0  0  0  0
   -2.3330    0.0720    3.2055 H   0  0  0  0  0  0  0  0  0  0  0  0
   -2.3018    1.5464    2.2470 H   0  0  0  0  0  0  0  0  0  0  0  0
   -2.6448   -1.2198    0.9735 H   0  0  0  0  0  0  0  0  0  0  0  0
   -4.8531    0.4901    2.2281 H   0  0  0  0  0  0  0  0  0  0  0  0
   -4.4727   -1.1954    2.5113 H   0  0  0  0  0  0  0  0  0  0  0  0
   -6.1247    0.0330    0.3824 H   0  0  0  0  0  0  0  0  0  0  0  0
   -6.1971   -1.5807    1.0597 H   0  0  0  0  0  0  0  0  0  0  0  0
   -5.5815   -1.6321   -1.3532 H   0  0  0  0  0  0  0  0  0  0  0  0
   -4.3179   -2.3114   -0.3504 H   0  0  0  0  0  0  0  0  0  0  0  0
   -3.0159   -0.9471   -1.7157 H   0  0  0  0  0  0  0  0  0  0  0  0
   -4.2965    0.2583   -1.9430 H   0  0  0  0  0  0  0  0  0  0  0  0
   -2.1714    0.5840   -0.4566 H   0  0  0  0  0  0  0  0  0  0  0  0
   -4.7279    1.8851    0.1480 H   0  0  0  0  0  0  0  0  0  0  0  0
   -3.0711    2.4852    0.5082 H   0  0  0  0  0  0  0  0  0  0  0  0
   -3.5812    2.2703   -1.1790 H   0  0  0  0  0  0  0  0  0  0  0  0
  1  2  1  0
  2  3  1  0
  3  4  1  0
  4  5  2  0
  5  6  1  0
  6  7  2  0
  7  8  1  0
  8  9  2  0
  3 10  2  0
 10 11  1  0
 11 12  1  0
 12 13  1  0
 13 14  2  0
 13 15  1  0
 15 16  1  0
 16 17  1  0
 17 18  1  0
 18 19  1  0
 19 20  1  0
 20 21  1  0
 21 22  1  0
 22 23  1  0
 12  2  2  0
 22 17  1  0
  9  4  1  0
  1 24  1  0
  1 25  1  0
  1 26  1  0
  5 27  1  0
  6 28  1  0
  7 29  1  0
  8 30  1  0
  9 31  1  0
 11 32  1  0
 15 33  1  0
 16 34  1  0
 16 35  1  0
 17 36  1  6
 18 37  1  0
 18 38  1  0
 19 39  1  0
 19 40  1  0
 20 41  1  0
 20 42  1  0
 21 43  1  0
 21 44  1  0
 22 45  1  6
 23 46  1  0
 23 47  1  0
 23 48  1  0
M  CHG  1  22   1
M  END
>  <_SMILES>  (42) 
Cc1c(-c2ccccc2)n[nH]c1C(=O)NC[C@H]1CCCC[N@H+]1C

$$$$

     RDKit          3D

 79 84  0  0  0  0  0  0  0  0999 V2000
   -2.6821   -4.0566    0.0386 C   0  0  0  0  0  0  0  0  0  0  0  0
   -2.6727   -2.5710    0.0324 C   0  0  0  0  0  0  0  0  0  0  0  0
   -1.5677   -1.7234    0.3455 C   0  0  0  0  0  0  0  0  0  0  0  0
   -0.2015   -2.1218    0.7364 C   0  0  0  0  0  0  0  0  0  0  0  0
    0.1742   -3.2887    0.7937 O   0  0  0  0  0  0  0  0  0  0  0  0
    0.6109   -1.0412    1.0129 N   0  0  0  0  0  0  0  0  0  0  0  0
    2.0499   -1.1491    1.2214 C   0  0  2  0  0  0  0  0  0  0  0  0
    2.4970   -0.0441    2.1836 C   0  0  0  0  0  0  0  0  0  0  0  0
    3.9199    0.5092    2.0459 C   0  0  2  0  0  0  0  0  0  0  0  0
    4.0060    1.5529    0.9286 C   0  0  0  0  0  0  0  0  0  0  0  0
    4.1602    0.9413   -0.4655 C   0  0  2  0  0  0  0  0  0  0  0  0
    2.9295    0.1039   -0.8665 C   0  0  0  0  0  0  0  0  0  0  0  0
    2.7818   -1.2417   -0.1357 C   0  0  1  0  0  0  0  0  0  0  0  0
    4.1246   -1.9739    0.0053 C   0  0  0  0  0  0  0  0  0  0  0  0
    5.2697   -1.0747    0.4905 C   0  0  2  0  0  0  0  0  0  0  0  0
    5.0022   -0.5707    1.9235 C   0  0  0  0  0  0  0  0  0  0  0  0
    5.4456    0.0757   -0.5350 C   0  0  2  0  0  0  0  0  0  0  0  0
    6.7477    0.8806   -0.4809 C   0  0  0  0  0  0  0  0  0  0  0  0
    6.9275    1.9571   -1.3719 C   0  0  0  0  0  0  0  0  0  0  0  0
    8.1057    2.7105   -1.3805 C   0  0  0  0  0  0  0  0  0  0  0  0
    9.1367    2.3871   -0.5079 C   0  0  0  0  0  0  0  0  0  0  0  0
   10.5888    3.3085   -0.5141 Cl  0  0  0  0  0  0  0  0  0  0  0  0
    9.0010    1.3107    0.3610 C   0  0  0  0  0  0  0  0  0  0  0  0
    7.8199    0.5587    0.3658 C   0  0  0  0  0  0  0  0  0  0  0  0
   -1.9044   -0.4216    0.2355 N   0  0  0  0  0  0  0  0  0  0  0  0
   -3.2007   -0.4438   -0.1313 N   0  0  0  0  0  0  0  0  0  0  0  0
   -3.8949    0.8216   -0.3215 C   0  0  0  0  0  0  0  0  0  0  0  0
   -4.5226    1.3263    0.9769 C   0  0  0  0  0  0  0  0  0  0  0  0
   -5.2576    2.6580    0.8088 C   0  0  0  0  0  0  0  0  0  0  0  0
   -6.5353    2.5362   -0.0293 C   0  0  0  0  0  0  0  0  0  0  0  0
   -7.3002    3.8529   -0.0998 C   0  0  0  0  0  0  0  0  0  0  0  0
   -6.5129    4.8271   -0.7695 O   0  0  0  0  0  0  0  0  0  0  0  0
   -3.7153   -1.7096   -0.2727 C   0  0  0  0  0  0  0  0  0  0  0  0
   -5.0924   -1.9971   -0.6522 C   0  0  0  0  0  0  0  0  0  0  0  0
   -5.4591   -2.0374   -2.0017 C   0  0  0  0  0  0  0  0  0  0  0  0
   -6.7810   -2.3042   -2.3624 C   0  0  0  0  0  0  0  0  0  0  0  0
   -7.7399   -2.5364   -1.3769 C   0  0  0  0  0  0  0  0  0  0  0  0
   -7.3783   -2.5063   -0.0305 C   0  0  0  0  0  0  0  0  0  0  0  0
   -6.0569   -2.2398    0.3317 C   0  0  0  0  0  0  0  0  0  0  0  0
   -1.9498   -4.4461   -0.6759 H   0  0  0  0  0  0  0  0  0  0  0  0
   -3.6614   -4.4598   -0.2364 H   0  0  0  0  0  0  0  0  0  0  0  0
   -2.4335   -4.4360    1.0350 H   0  0  0  0  0  0  0  0  0  0  0  0
    0.1838   -0.1427    0.7961 H   0  0  0  0  0  0  0  0  0  0  0  0
    2.1987   -2.1064    1.7391 H   0  0  0  0  0  0  0  0  0  0  0  0
    2.3829   -0.4382    3.2040 H   0  0  0  0  0  0  0  0  0  0  0  0
    1.7939    0.7997    2.1434 H   0  0  0  0  0  0  0  0  0  0  0  0
    4.1091    1.0478    2.9858 H   0  0  0  0  0  0  0  0  0  0  0  0
    3.1288    2.2117    0.9505 H   0  0  0  0  0  0  0  0  0  0  0  0
    4.8649    2.2065    1.1293 H   0  0  0  0  0  0  0  0  0  0  0  0
    4.2154    1.7700   -1.1806 H   0  0  0  0  0  0  0  0  0  0  0  0
    2.0153    0.7011   -0.7638 H   0  0  0  0  0  0  0  0  0  0  0  0
    3.0214   -0.1136   -1.9399 H   0  0  0  0  0  0  0  0  0  0  0  0
    2.1632   -1.8800   -0.7834 H   0  0  0  0  0  0  0  0  0  0  0  0
    4.0238   -2.8446    0.6651 H   0  0  0  0  0  0  0  0  0  0  0  0
    4.3982   -2.3834   -0.9770 H   0  0  0  0  0  0  0  0  0  0  0  0
    6.1691   -1.7025    0.5066 H   0  0  0  0  0  0  0  0  0  0  0  0
    5.9301   -0.1457    2.3231 H   0  0  0  0  0  0  0  0  0  0  0  0
    4.7680   -1.4167    2.5821 H   0  0  0  0  0  0  0  0  0  0  0  0
    5.4801   -0.3897   -1.5326 H   0  0  0  0  0  0  0  0  0  0  0  0
    6.1507    2.2190   -2.0872 H   0  0  0  0  0  0  0  0  0  0  0  0
    8.2101    3.5395   -2.0750 H   0  0  0  0  0  0  0  0  0  0  0  0
    9.8105    1.0426    1.0346 H   0  0  0  0  0  0  0  0  0  0  0  0
    7.7735   -0.2862    1.0462 H   0  0  0  0  0  0  0  0  0  0  0  0
   -3.1606    1.5411   -0.7030 H   0  0  0  0  0  0  0  0  0  0  0  0
   -4.6413    0.6761   -1.1070 H   0  0  0  0  0  0  0  0  0  0  0  0
   -5.2098    0.5763    1.3864 H   0  0  0  0  0  0  0  0  0  0  0  0
   -3.7329    1.4583    1.7278 H   0  0  0  0  0  0  0  0  0  0  0  0
   -5.5223    3.0318    1.8057 H   0  0  0  0  0  0  0  0  0  0  0  0
   -4.5797    3.3961    0.3639 H   0  0  0  0  0  0  0  0  0  0  0  0
   -6.2759    2.2266   -1.0476 H   0  0  0  0  0  0  0  0  0  0  0  0
   -7.1859    1.7653    0.3992 H   0  0  0  0  0  0  0  0  0  0  0  0
   -8.2305    3.7168   -0.6603 H   0  0  0  0  0  0  0  0  0  0  0  0
   -7.5432    4.2212    0.9020 H   0  0  0  0  0  0  0  0  0  0  0  0
   -7.0355    5.6471   -0.7963 H   0  0  0  0  0  0  0  0  0  0  0  0
   -4.7168   -1.8651   -2.7777 H   0  0  0  0  0  0  0  0  0  0  0  0
   -7.0612   -2.3357   -3.4122 H   0  0  0  0  0  0  0  0  0  0  0  0
   -8.7683   -2.7480   -1.6588 H   0  0  0  0  0  0  0  0  0  0  0  0
   -8.1239   -2.6954    0.7375 H   0  0  0  0  0  0  0  0  0  0  0  0
   -5.7826   -2.2242    1.3841 H   0  0  0  0  0  0  0  0  0  0  0  0
  1  2  1  0
  2  3  1  0
  3  4  1  0
  4  5  2  0
  4  6  1  0
  6  7  1  0
  7  8  1  0
  8  9  1  0
  9 10  1  0
 10 11  1  0
 11 12  1  0
 12 13  1  0
 13 14  1  0
 14 15  1  0
 15 16  1  0
 15 17  1  0
 17 18  1  0
 18 19  1  0
 19 20  2  0
 20 21  1  0
 21 22  1  0
 21 23  2  0
 23 24  1  0
  3 25  2  0
 25 26  1  0
 26 27  1  0
 27 28  1  0
 28 29  1  0
 29 30  1  0
 30 31  1  0
 31 32  1  0
 26 33  1  0
 33 34  1  0
 34 35  2  0
 35 36  1  0
 36 37  2  0
 37 38  1  0
 38 39  2  0
 33  2  2  0
 39 34  1  0
 13  7  1  0
 24 18  2  0
 16  9  1  0
 17 11  1  0
  1 40  1  0
  1 41  1  0
  1 42  1  0
  6 43  1  0
  7 44  1  1
  8 45  1  0
  8 46  1  0
  9 47  1  1
 10 48  1  0
 10 49  1  0
 11 50  1  6
 12 51  1  0
 12 52  1  0
 13 53  1  6
 14 54  1  0
 14 55  1  0
 15 56  1  1
 16 57  1  0
 16 58  1  0
 17 59  1  6
 19 60  1  0
 20 61  1  0
 23 62  1  0
 24 63  1  0
 27 64  1  0
 27 65  1  0
 28 66  1  0
 28 67  1  0
 29 68  1  0
 29 69  1  0
 30 70  1  0
 30 71  1  0
 31 72  1  0
 31 73  1  0
 32 74  1  0
 35 75  1  0
 36 76  1  0
 37 77  1  0
 38 78  1  0
 39 79  1  0
M  END
>  <_SMILES>  (43) 
Cc1c(C(=O)N[C@@H]2C[C@@H]3C[C@@H]4C[C@H]2C[C@H](C3)[C@@H]4c2ccc(Cl)cc2)nn(CCCCCO)c1-c1ccccc1

$$$$

     RDKit          3D

 79 84  0  0  0  0  0  0  0  0999 V2000
    0.8963   -1.9351    0.4627 C   0  0  0  0  0  0  0  0  0  0  0  0
    1.8431   -1.3244   -0.5064 C   0  0  0  0  0  0  0  0  0  0  0  0
    1.5706   -0.3060   -1.4765 C   0  0  0  0  0  0  0  0  0  0  0  0
    0.3067    0.4172   -1.7128 C   0  0  0  0  0  0  0  0  0  0  0  0
   -0.1576    0.6166   -2.8319 O   0  0  0  0  0  0  0  0  0  0  0  0
   -0.3124    0.8609   -0.5558 N   0  0  0  0  0  0  0  0  0  0  0  0
   -1.6341    1.4872   -0.5628 C   0  0  2  0  0  0  0  0  0  0  0  0
   -1.6829    2.5665    0.5240 C   0  0  0  0  0  0  0  0  0  0  0  0
   -3.0312    2.8669    1.1880 C   0  0  2  0  0  0  0  0  0  0  0  0
   -3.3474    1.8470    2.2886 C   0  0  0  0  0  0  0  0  0  0  0  0
   -3.9689    0.5477    1.7582 C   0  0  2  0  0  0  0  0  0  0  0  0
   -2.9696   -0.2132    0.8622 C   0  0  0  0  0  0  0  0  0  0  0  0
   -2.7306    0.3996   -0.5275 C   0  0  1  0  0  0  0  0  0  0  0  0
   -4.0317    0.8987   -1.1676 C   0  0  0  0  0  0  0  0  0  0  0  0
   -4.8964    1.7378   -0.2247 C   0  0  2  0  0  0  0  0  0  0  0  0
   -4.1907    3.0416    0.1974 C   0  0  0  0  0  0  0  0  0  0  0  0
   -5.2882    0.9087    1.0265 C   0  0  1  0  0  0  0  0  0  0  0  0
   -6.2749   -0.2282    0.7442 C   0  0  0  0  0  0  0  0  0  0  0  0
   -7.4657    0.0534    0.0457 C   0  0  0  0  0  0  0  0  0  0  0  0
   -8.4118   -0.9422   -0.2182 C   0  0  0  0  0  0  0  0  0  0  0  0
   -8.1918   -2.2381    0.2303 C   0  0  0  0  0  0  0  0  0  0  0  0
   -9.3523   -3.4668   -0.0880 Cl  0  0  0  0  0  0  0  0  0  0  0  0
   -7.0409   -2.5396    0.9487 C   0  0  0  0  0  0  0  0  0  0  0  0
   -6.0964   -1.5398    1.2112 C   0  0  0  0  0  0  0  0  0  0  0  0
    2.6625   -0.0468   -2.2138 N   0  0  0  0  0  0  0  0  0  0  0  0
    3.6130   -0.8621   -1.7264 N   0  0  0  0  0  0  0  0  0  0  0  0
    4.9343   -0.8147   -2.3296 C   0  0  0  0  0  0  0  0  0  0  0  0
    5.6789    0.4997   -2.0772 C   0  0  0  0  0  0  0  0  0  0  0  0
    6.0184    0.7148   -0.5994 C   0  0  0  0  0  0  0  0  0  0  0  0
    6.9017    1.9387   -0.3542 C   0  0  0  0  0  0  0  0  0  0  0  0
    6.2288    3.2609   -0.7027 C   0  0  0  0  0  0  0  0  0  0  0  0
    7.0894    4.3384   -0.3532 O   0  0  0  0  0  0  0  0  0  0  0  0
    3.1793   -1.6516   -0.6896 C   0  0  0  0  0  0  0  0  0  0  0  0
    4.0056   -2.6247    0.0130 C   0  0  0  0  0  0  0  0  0  0  0  0
    4.5561   -2.3096    1.2599 C   0  0  0  0  0  0  0  0  0  0  0  0
    5.3473   -3.2412    1.9341 C   0  0  0  0  0  0  0  0  0  0  0  0
    5.5860   -4.4931    1.3682 C   0  0  0  0  0  0  0  0  0  0  0  0
    5.0321   -4.8166    0.1301 C   0  0  0  0  0  0  0  0  0  0  0  0
    4.2414   -3.8858   -0.5458 C   0  0  0  0  0  0  0  0  0  0  0  0
   -0.1176   -1.9736    0.0521 H   0  0  0  0  0  0  0  0  0  0  0  0
    1.1843   -2.9617    0.7105 H   0  0  0  0  0  0  0  0  0  0  0  0
    0.8746   -1.3539    1.3899 H   0  0  0  0  0  0  0  0  0  0  0  0
    0.1341    0.6628    0.3282 H   0  0  0  0  0  0  0  0  0  0  0  0
   -1.7154    2.0044   -1.5282 H   0  0  0  0  0  0  0  0  0  0  0  0
   -1.3110    3.4976    0.0721 H   0  0  0  0  0  0  0  0  0  0  0  0
   -0.9526    2.3432    1.3141 H   0  0  0  0  0  0  0  0  0  0  0  0
   -2.8933    3.8335    1.6938 H   0  0  0  0  0  0  0  0  0  0  0  0
   -2.4494    1.6211    2.8771 H   0  0  0  0  0  0  0  0  0  0  0  0
   -4.0526    2.3071    2.9944 H   0  0  0  0  0  0  0  0  0  0  0  0
   -4.1858   -0.0712    2.6376 H   0  0  0  0  0  0  0  0  0  0  0  0
   -3.3481   -1.2299    0.7048 H   0  0  0  0  0  0  0  0  0  0  0  0
   -2.0175   -0.3435    1.3915 H   0  0  0  0  0  0  0  0  0  0  0  0
   -2.3783   -0.4193   -1.1720 H   0  0  0  0  0  0  0  0  0  0  0  0
   -3.8167    1.4673   -2.0810 H   0  0  0  0  0  0  0  0  0  0  0  0
   -4.6101    0.0269   -1.5007 H   0  0  0  0  0  0  0  0  0  0  0  0
   -5.7906    2.0377   -0.7830 H   0  0  0  0  0  0  0  0  0  0  0  0
   -3.8558    3.5969   -0.6876 H   0  0  0  0  0  0  0  0  0  0  0  0
   -4.9450    3.6780    0.6807 H   0  0  0  0  0  0  0  0  0  0  0  0
   -5.8550    1.5706    1.7001 H   0  0  0  0  0  0  0  0  0  0  0  0
   -7.6817    1.0633   -0.2965 H   0  0  0  0  0  0  0  0  0  0  0  0
   -9.3163   -0.6942   -0.7668 H   0  0  0  0  0  0  0  0  0  0  0  0
   -6.8708   -3.5485    1.3152 H   0  0  0  0  0  0  0  0  0  0  0  0
   -5.2264   -1.8224    1.7958 H   0  0  0  0  0  0  0  0  0  0  0  0
    4.7873   -0.9582   -3.4069 H   0  0  0  0  0  0  0  0  0  0  0  0
    5.5250   -1.6624   -1.9710 H   0  0  0  0  0  0  0  0  0  0  0  0
    6.6072    0.4864   -2.6611 H   0  0  0  0  0  0  0  0  0  0  0  0
    5.0799    1.3384   -2.4498 H   0  0  0  0  0  0  0  0  0  0  0  0
    5.0985    0.8127   -0.0113 H   0  0  0  0  0  0  0  0  0  0  0  0
    6.5466   -0.1688   -0.2209 H   0  0  0  0  0  0  0  0  0  0  0  0
    7.8399    1.8473   -0.9155 H   0  0  0  0  0  0  0  0  0  0  0  0
    7.1947    1.9562    0.7033 H   0  0  0  0  0  0  0  0  0  0  0  0
    5.2834    3.3831   -0.1644 H   0  0  0  0  0  0  0  0  0  0  0  0
    6.0281    3.3353   -1.7749 H   0  0  0  0  0  0  0  0  0  0  0  0
    7.2195    4.3091    0.6098 H   0  0  0  0  0  0  0  0  0  0  0  0
    4.3741   -1.3371    1.7109 H   0  0  0  0  0  0  0  0  0  0  0  0
    5.7759   -2.9918    2.9014 H   0  0  0  0  0  0  0  0  0  0  0  0
    6.2008   -5.2193    1.8944 H   0  0  0  0  0  0  0  0  0  0  0  0
    5.2129   -5.7950   -0.3078 H   0  0  0  0  0  0  0  0  0  0  0  0
    3.8071   -4.1509   -1.5073 H   0  0  0  0  0  0  0  0  0  0  0  0
  1  2  1  0
  2  3  1  0
  3  4  1  0
  4  5  2  0
  4  6  1  0
  6  7  1  0
  7  8  1  0
  8  9  1  0
  9 10  1  0
 10 11  1  0
 11 12  1  0
 12 13  1  0
 13 14  1  0
 14 15  1  0
 15 16  1  0
 15 17  1  0
 17 18  1  0
 18 19  1  0
 19 20  2  0
 20 21  1  0
 21 22  1  0
 21 23  2  0
 23 24  1  0
  3 25  2  0
 25 26  1  0
 26 27  1  0
 27 28  1  0
 28 29  1  0
 29 30  1  0
 30 31  1  0
 31 32  1  0
 26 33  1  0
 33 34  1  0
 34 35  2  0
 35 36  1  0
 36 37  2  0
 37 38  1  0
 38 39  2  0
 33  2  2  0
 39 34  1  0
 13  7  1  0
 24 18  2  0
 16  9  1  0
 17 11  1  0
  1 40  1  0
  1 41  1  0
  1 42  1  0
  6 43  1  0
  7 44  1  6
  8 45  1  0
  8 46  1  0
  9 47  1  1
 10 48  1  0
 10 49  1  0
 11 50  1  1
 12 51  1  0
 12 52  1  0
 13 53  1  6
 14 54  1  0
 14 55  1  0
 15 56  1  6
 16 57  1  0
 16 58  1  0
 17 59  1  1
 19 60  1  0
 20 61  1  0
 23 62  1  0
 24 63  1  0
 27 64  1  0
 27 65  1  0
 28 66  1  0
 28 67  1  0
 29 68  1  0
 29 69  1  0
 30 70  1  0
 30 71  1  0
 31 72  1  0
 31 73  1  0
 32 74  1  0
 35 75  1  0
 36 76  1  0
 37 77  1  0
 38 78  1  0
 39 79  1  0
M  END
>  <_SMILES>  (44) 
Cc1c(C(=O)N[C@@H]2C[C@@H]3C[C@@H]4C[C@H]2C[C@H](C3)[C@H]4c2ccc(Cl)cc2)nn(CCCCCO)c1-c1ccccc1

$$$$

     RDKit          3D

 61 64  0  0  0  0  0  0  0  0999 V2000
   -1.4984   -0.4343   -2.8247 C   0  0  0  0  0  0  0  0  0  0  0  0
   -1.2593   -0.4805   -1.3551 C   0  0  0  0  0  0  0  0  0  0  0  0
   -0.1003   -0.0117   -0.6687 C   0  0  0  0  0  0  0  0  0  0  0  0
    1.0989    0.6300   -1.2431 C   0  0  0  0  0  0  0  0  0  0  0  0
    1.2105    0.9071   -2.4311 O   0  0  0  0  0  0  0  0  0  0  0  0
    2.0947    0.8626   -0.3047 N   0  0  0  0  0  0  0  0  0  0  0  0
    3.2234    1.8341   -0.4403 C   0  0  2  0  0  0  0  0  0  0  0  0
    3.7809    2.0164   -1.8500 C   0  0  0  0  0  0  0  0  0  0  0  0
    4.3118    0.7254   -2.4657 C   0  0  0  0  0  0  0  0  0  0  0  0
    5.4012    0.0934   -1.6393 N   0  0  0  0  0  0  0  0  0  0  0  0
    4.9475   -0.6893   -0.4459 C   0  0  0  0  0  0  0  0  0  0  0  0
    4.8181    0.1516    0.8257 C   0  0  0  0  0  0  0  0  0  0  0  0
    4.4082    1.5857    0.5496 C   0  0  2  0  0  0  0  0  0  0  0  0
    3.6256    2.4169    1.5957 C   0  0  0  0  0  0  0  0  0  0  0  0
    2.9427    3.1250    0.3971 C   0  0  0  0  0  0  0  0  0  0  0  0
   -0.2120   -0.2042    0.6612 N   0  0  0  0  0  0  0  0  0  0  0  0
   -1.4050   -0.8121    0.8126 N   0  0  0  0  0  0  0  0  0  0  0  0
   -1.8319   -1.1472    2.1615 C   0  0  0  0  0  0  0  0  0  0  0  0
   -2.3794    0.0419    2.9545 C   0  0  0  0  0  0  0  0  0  0  0  0
   -3.6426    0.6891    2.3976 C   0  0  0  0  0  0  0  0  0  0  0  0
   -4.8108   -0.2210    2.4741 N   0  0  0  0  0  0  0  0  0  0  0  0
   -2.0949   -0.9820   -0.3656 C   0  0  0  0  0  0  0  0  0  0  0  0
   -3.4413   -1.5377   -0.4769 C   0  0  0  0  0  0  0  0  0  0  0  0
   -4.4907   -0.7337   -0.9444 C   0  0  0  0  0  0  0  0  0  0  0  0
   -5.7910   -1.2370   -1.0137 C   0  0  0  0  0  0  0  0  0  0  0  0
   -6.0503   -2.5496   -0.6244 C   0  0  0  0  0  0  0  0  0  0  0  0
   -5.0091   -3.3649   -0.1838 C   0  0  0  0  0  0  0  0  0  0  0  0
   -3.7073   -2.8642   -0.1180 C   0  0  0  0  0  0  0  0  0  0  0  0
   -0.6434   -0.8509   -3.3668 H   0  0  0  0  0  0  0  0  0  0  0  0
   -2.3798   -1.0145   -3.1133 H   0  0  0  0  0  0  0  0  0  0  0  0
   -1.6497    0.5993   -3.1513 H   0  0  0  0  0  0  0  0  0  0  0  0
    1.7502    0.6359    0.6322 H   0  0  0  0  0  0  0  0  0  0  0  0
    3.0265    2.4588   -2.5097 H   0  0  0  0  0  0  0  0  0  0  0  0
    4.5973    2.7518   -1.8366 H   0  0  0  0  0  0  0  0  0  0  0  0
    4.7688    0.9464   -3.4362 H   0  0  0  0  0  0  0  0  0  0  0  0
    3.5452   -0.0374   -2.6230 H   0  0  0  0  0  0  0  0  0  0  0  0
    6.1252    0.7816   -1.3902 H   0  0  0  0  0  0  0  0  0  0  0  0
    5.8843   -0.5685   -2.2640 H   0  0  0  0  0  0  0  0  0  0  0  0
    5.6893   -1.4803   -0.2904 H   0  0  0  0  0  0  0  0  0  0  0  0
    4.0025   -1.1757   -0.7095 H   0  0  0  0  0  0  0  0  0  0  0  0
    5.7762    0.1514    1.3599 H   0  0  0  0  0  0  0  0  0  0  0  0
    4.1004   -0.3393    1.4938 H   0  0  0  0  0  0  0  0  0  0  0  0
    5.3166    2.1420    0.2598 H   0  0  0  0  0  0  0  0  0  0  0  0
    2.9405    1.8365    2.2237 H   0  0  0  0  0  0  0  0  0  0  0  0
    4.2313    3.0607    2.2388 H   0  0  0  0  0  0  0  0  0  0  0  0
    3.4791    4.0158    0.0485 H   0  0  0  0  0  0  0  0  0  0  0  0
    1.8926    3.3907    0.5495 H   0  0  0  0  0  0  0  0  0  0  0  0
   -2.5620   -1.9577    2.1199 H   0  0  0  0  0  0  0  0  0  0  0  0
   -0.9506   -1.5534    2.6736 H   0  0  0  0  0  0  0  0  0  0  0  0
   -1.6027    0.8149    3.0148 H   0  0  0  0  0  0  0  0  0  0  0  0
   -2.5680   -0.2858    3.9846 H   0  0  0  0  0  0  0  0  0  0  0  0
   -3.5371    1.0044    1.3570 H   0  0  0  0  0  0  0  0  0  0  0  0
   -3.9074    1.5662    2.9968 H   0  0  0  0  0  0  0  0  0  0  0  0
   -4.9878   -0.5671    3.4270 H   0  0  0  0  0  0  0  0  0  0  0  0
   -4.7447   -1.0345    1.8446 H   0  0  0  0  0  0  0  0  0  0  0  0
   -5.6670    0.2738    2.1833 H   0  0  0  0  0  0  0  0  0  0  0  0
   -4.3005    0.2837   -1.2842 H   0  0  0  0  0  0  0  0  0  0  0  0
   -6.5970   -0.6210   -1.4101 H   0  0  0  0  0  0  0  0  0  0  0  0
   -7.0578   -2.9553   -0.7121 H   0  0  0  0  0  0  0  0  0  0  0  0
   -5.2077   -4.4056    0.0700 H   0  0  0  0  0  0  0  0  0  0  0  0
   -2.9022   -3.5320    0.1856 H   0  0  0  0  0  0  0  0  0  0  0  0
  1  2  1  0
  2  3  1  0
  3  4  1  0
  4  5  2  0
  4  6  1  0
  7  6  1  6
  7  8  1  0
  8  9  1  0
  9 10  1  0
 10 11  1  0
 11 12  1  0
 12 13  1  0
 13 14  1  0
 14 15  1  0
  3 16  2  0
 16 17  1  0
 17 18  1  0
 18 19  1  0
 19 20  1  0
 20 21  1  0
 17 22  1  0
 22 23  1  0
 23 24  2  0
 24 25  1  0
 25 26  2  0
 26 27  1  0
 27 28  2  0
 22  2  2  0
 28 23  1  0
 13  7  1  0
 15  7  1  0
  1 29  1  0
  1 30  1  0
  1 31  1  0
  6 32  1  0
  8 33  1  0
  8 34  1  0
  9 35  1  0
  9 36  1  0
 10 37  1  0
 10 38  1  0
 11 39  1  0
 11 40  1  0
 12 41  1  0
 12 42  1  0
 13 43  1  6
 14 44  1  0
 14 45  1  0
 15 46  1  0
 15 47  1  0
 18 48  1  0
 18 49  1  0
 19 50  1  0
 19 51  1  0
 20 52  1  0
 20 53  1  0
 21 54  1  0
 21 55  1  0
 21 56  1  0
 24 57  1  0
 25 58  1  0
 26 59  1  0
 27 60  1  0
 28 61  1  0
M  CHG  2  10   1  21   1
M  END
>  <_SMILES>  (45) 
Cc1c(C(=O)N[C@]23CC[NH2+]CC[C@@H]2CC3)nn(CCC[NH3+])c1-c1ccccc1

$$$$

     RDKit          3D

 61 64  0  0  0  0  0  0  0  0999 V2000
    1.0209   -2.9516   -1.4076 C   0  0  0  0  0  0  0  0  0  0  0  0
    1.1655   -1.7403   -0.5525 C   0  0  0  0  0  0  0  0  0  0  0  0
    0.1612   -0.7623   -0.2899 C   0  0  0  0  0  0  0  0  0  0  0  0
   -1.2201   -0.7303   -0.8056 C   0  0  0  0  0  0  0  0  0  0  0  0
   -1.6199   -1.4583   -1.7065 O   0  0  0  0  0  0  0  0  0  0  0  0
   -2.0262    0.2023   -0.1661 N   0  0  0  0  0  0  0  0  0  0  0  0
   -3.3767    0.6087   -0.6502 C   0  0  1  0  0  0  0  0  0  0  0  0
   -4.3680   -0.5573   -0.6382 C   0  0  0  0  0  0  0  0  0  0  0  0
   -4.8253   -0.9044    0.7684 C   0  0  0  0  0  0  0  0  0  0  0  0
   -6.0228   -0.0862    1.1450 N   0  0  0  0  0  0  0  0  0  0  0  0
   -5.7988    1.3468    1.4946 C   0  0  0  0  0  0  0  0  0  0  0  0
   -5.3395    2.1560    0.2878 C   0  0  0  0  0  0  0  0  0  0  0  0
   -3.8479    1.9474    0.0234 C   0  0  2  0  0  0  0  0  0  0  0  0
   -3.2861    2.7031   -1.2050 C   0  0  0  0  0  0  0  0  0  0  0  0
   -3.3252    1.3886   -1.9983 C   0  0  0  0  0  0  0  0  0  0  0  0
    0.6250    0.2055    0.5275 N   0  0  0  0  0  0  0  0  0  0  0  0
    1.8886   -0.1751    0.8091 N   0  0  0  0  0  0  0  0  0  0  0  0
    2.6867    0.6941    1.6582 C   0  0  0  0  0  0  0  0  0  0  0  0
    3.2951    1.8892    0.9166 C   0  0  0  0  0  0  0  0  0  0  0  0
    4.3358    1.4735   -0.1146 C   0  0  0  0  0  0  0  0  0  0  0  0
    4.9870    2.6833   -0.6801 N   0  0  0  0  0  0  0  0  0  0  0  0
    2.2760   -1.3313    0.1732 C   0  0  0  0  0  0  0  0  0  0  0  0
    3.6028   -1.9388    0.2640 C   0  0  0  0  0  0  0  0  0  0  0  0
    4.0878   -2.4298    1.4817 C   0  0  0  0  0  0  0  0  0  0  0  0
    5.3636   -2.9921    1.5578 C   0  0  0  0  0  0  0  0  0  0  0  0
    6.1571   -3.0813    0.4156 C   0  0  0  0  0  0  0  0  0  0  0  0
    5.6733   -2.6197   -0.8068 C   0  0  0  0  0  0  0  0  0  0  0  0
    4.3992   -2.0546   -0.8838 C   0  0  0  0  0  0  0  0  0  0  0  0
    0.9795   -2.6661   -2.4635 H   0  0  0  0  0  0  0  0  0  0  0  0
    0.1041   -3.4942   -1.1558 H   0  0  0  0  0  0  0  0  0  0  0  0
    1.8554   -3.6466   -1.2756 H   0  0  0  0  0  0  0  0  0  0  0  0
   -1.4819    0.7994    0.4577 H   0  0  0  0  0  0  0  0  0  0  0  0
   -3.9207   -1.4485   -1.0887 H   0  0  0  0  0  0  0  0  0  0  0  0
   -5.2386   -0.3327   -1.2678 H   0  0  0  0  0  0  0  0  0  0  0  0
   -5.1713   -1.9427    0.7997 H   0  0  0  0  0  0  0  0  0  0  0  0
   -4.0617   -0.7628    1.5394 H   0  0  0  0  0  0  0  0  0  0  0  0
   -6.7402   -0.1588    0.4081 H   0  0  0  0  0  0  0  0  0  0  0  0
   -6.4559   -0.5376    1.9641 H   0  0  0  0  0  0  0  0  0  0  0  0
   -5.0879    1.3765    2.3267 H   0  0  0  0  0  0  0  0  0  0  0  0
   -6.7679    1.7160    1.8454 H   0  0  0  0  0  0  0  0  0  0  0  0
   -5.9443    1.9265   -0.5972 H   0  0  0  0  0  0  0  0  0  0  0  0
   -5.5022    3.2177    0.5116 H   0  0  0  0  0  0  0  0  0  0  0  0
   -3.2872    2.2027    0.9344 H   0  0  0  0  0  0  0  0  0  0  0  0
   -3.9053    3.5104   -1.6061 H   0  0  0  0  0  0  0  0  0  0  0  0
   -2.2708    3.0877   -1.0516 H   0  0  0  0  0  0  0  0  0  0  0  0
   -4.2254    1.2892   -2.6168 H   0  0  0  0  0  0  0  0  0  0  0  0
   -2.4558    1.2105   -2.6382 H   0  0  0  0  0  0  0  0  0  0  0  0
    3.4652    0.1052    2.1485 H   0  0  0  0  0  0  0  0  0  0  0  0
    2.0202    1.0542    2.4517 H   0  0  0  0  0  0  0  0  0  0  0  0
    2.5034    2.4705    0.4276 H   0  0  0  0  0  0  0  0  0  0  0  0
    3.7607    2.5501    1.6584 H   0  0  0  0  0  0  0  0  0  0  0  0
    3.8900    0.9463   -0.9614 H   0  0  0  0  0  0  0  0  0  0  0  0
    5.1336    0.8705    0.3279 H   0  0  0  0  0  0  0  0  0  0  0  0
    5.6941    2.4219   -1.3823 H   0  0  0  0  0  0  0  0  0  0  0  0
    4.3145    3.3037   -1.1513 H   0  0  0  0  0  0  0  0  0  0  0  0
    5.4753    3.2367    0.0376 H   0  0  0  0  0  0  0  0  0  0  0  0
    3.4719   -2.4054    2.3785 H   0  0  0  0  0  0  0  0  0  0  0  0
    5.7315   -3.3857    2.5035 H   0  0  0  0  0  0  0  0  0  0  0  0
    7.1421   -3.5415    0.4735 H   0  0  0  0  0  0  0  0  0  0  0  0
    6.2808   -2.7283   -1.7030 H   0  0  0  0  0  0  0  0  0  0  0  0
    4.0259   -1.7298   -1.8529 H   0  0  0  0  0  0  0  0  0  0  0  0
  1  2  1  0
  2  3  1  0
  3  4  1  0
  4  5  2  0
  4  6  1  0
  7  6  1  1
  7  8  1  0
  8  9  1  0
  9 10  1  0
 10 11  1  0
 11 12  1  0
 12 13  1  0
 13 14  1  0
 14 15  1  0
  3 16  2  0
 16 17  1  0
 17 18  1  0
 18 19  1  0
 19 20  1  0
 20 21  1  0
 17 22  1  0
 22 23  1  0
 23 24  2  0
 24 25  1  0
 25 26  2  0
 26 27  1  0
 27 28  2  0
 22  2  2  0
 28 23  1  0
 13  7  1  0
 15  7  1  0
  1 29  1  0
  1 30  1  0
  1 31  1  0
  6 32  1  0
  8 33  1  0
  8 34  1  0
  9 35  1  0
  9 36  1  0
 10 37  1  0
 10 38  1  0
 11 39  1  0
 11 40  1  0
 12 41  1  0
 12 42  1  0
 13 43  1  1
 14 44  1  0
 14 45  1  0
 15 46  1  0
 15 47  1  0
 18 48  1  0
 18 49  1  0
 19 50  1  0
 19 51  1  0
 20 52  1  0
 20 53  1  0
 21 54  1  0
 21 55  1  0
 21 56  1  0
 24 57  1  0
 25 58  1  0
 26 59  1  0
 27 60  1  0
 28 61  1  0
M  CHG  2  10   1  21   1
M  END
>  <_SMILES>  (46) 
Cc1c(C(=O)N[C@@]23CC[NH2+]CC[C@@H]2CC3)nn(CCC[NH3+])c1-c1ccccc1

$$$$

     RDKit          3D

 61 64  0  0  0  0  0  0  0  0999 V2000
   -0.5773   -1.6120    1.4169 C   0  0  0  0  0  0  0  0  0  0  0  0
   -1.2635   -0.7890    0.3830 C   0  0  0  0  0  0  0  0  0  0  0  0
   -0.7527    0.3306   -0.3526 C   0  0  0  0  0  0  0  0  0  0  0  0
    0.5806    0.9696   -0.3179 C   0  0  0  0  0  0  0  0  0  0  0  0
    0.7209    2.1694   -0.5501 O   0  0  0  0  0  0  0  0  0  0  0  0
    1.6535    0.1317   -0.0472 N   0  0  0  0  0  0  0  0  0  0  0  0
    3.0653    0.6220    0.1496 C   0  0  2  0  0  0  0  0  0  0  0  0
    3.6177    1.0453   -1.2167 C   0  0  0  0  0  0  0  0  0  0  0  0
    5.0708    1.4941   -1.2049 C   0  0  0  0  0  0  0  0  0  0  0  0
    6.0232    0.3490   -1.3369 N   0  0  0  0  0  0  0  0  0  0  0  0
    5.8470   -0.8650   -0.4834 C   0  0  0  0  0  0  0  0  0  0  0  0
    5.4183   -0.4945    0.9255 C   0  0  0  0  0  0  0  0  0  0  0  0
    3.8912   -0.4119    1.0158 C   0  0  1  0  0  0  0  0  0  0  0  0
    3.3942    0.3495    2.2722 C   0  0  0  0  0  0  0  0  0  0  0  0
    3.1734    1.5875    1.3801 C   0  0  0  0  0  0  0  0  0  0  0  0
   -1.7167    0.8665   -1.1311 N   0  0  0  0  0  0  0  0  0  0  0  0
   -2.7837    0.0571   -0.9579 N   0  0  0  0  0  0  0  0  0  0  0  0
   -4.0021    0.4080   -1.6638 C   0  0  0  0  0  0  0  0  0  0  0  0
   -4.7829    1.5612   -1.0231 C   0  0  0  0  0  0  0  0  0  0  0  0
   -3.9820    2.7441   -0.4753 C   0  0  0  0  0  0  0  0  0  0  0  0
   -2.9429    3.2155   -1.4124 N   0  0  0  0  0  0  0  0  0  0  0  0
   -2.5765   -0.9373   -0.0456 C   0  0  0  0  0  0  0  0  0  0  0  0
   -3.5982   -1.8935    0.3614 C   0  0  0  0  0  0  0  0  0  0  0  0
   -3.8630   -3.0199   -0.4256 C   0  0  0  0  0  0  0  0  0  0  0  0
   -4.8509   -3.9275   -0.0402 C   0  0  0  0  0  0  0  0  0  0  0  0
   -5.5735   -3.7160    1.1329 C   0  0  0  0  0  0  0  0  0  0  0  0
   -5.3079   -2.6004    1.9254 C   0  0  0  0  0  0  0  0  0  0  0  0
   -4.3212   -1.6905    1.5425 C   0  0  0  0  0  0  0  0  0  0  0  0
    0.0771   -0.9923    2.0376 H   0  0  0  0  0  0  0  0  0  0  0  0
   -1.2918   -2.0977    2.0885 H   0  0  0  0  0  0  0  0  0  0  0  0
    0.0241   -2.3934    0.9420 H   0  0  0  0  0  0  0  0  0  0  0  0
    1.4493   -0.8583    0.0266 H   0  0  0  0  0  0  0  0  0  0  0  0
    3.0286    1.8938   -1.5853 H   0  0  0  0  0  0  0  0  0  0  0  0
    3.4824    0.2382   -1.9484 H   0  0  0  0  0  0  0  0  0  0  0  0
    5.3570    2.0591   -0.3154 H   0  0  0  0  0  0  0  0  0  0  0  0
    5.2719    2.1265   -2.0764 H   0  0  0  0  0  0  0  0  0  0  0  0
    6.9712    0.7197   -1.1687 H   0  0  0  0  0  0  0  0  0  0  0  0
    6.0455    0.0458   -2.3219 H   0  0  0  0  0  0  0  0  0  0  0  0
    6.8221   -1.3621   -0.4776 H   0  0  0  0  0  0  0  0  0  0  0  0
    5.1247   -1.5148   -0.9885 H   0  0  0  0  0  0  0  0  0  0  0  0
    5.9016    0.4310    1.2591 H   0  0  0  0  0  0  0  0  0  0  0  0
    5.7549   -1.2809    1.6126 H   0  0  0  0  0  0  0  0  0  0  0  0
    3.4885   -1.4336    0.9587 H   0  0  0  0  0  0  0  0  0  0  0  0
    4.1134    0.4796    3.0857 H   0  0  0  0  0  0  0  0  0  0  0  0
    2.4681   -0.0582    2.6946 H   0  0  0  0  0  0  0  0  0  0  0  0
    4.0303    2.2686    1.3703 H   0  0  0  0  0  0  0  0  0  0  0  0
    2.2879    2.1782    1.6316 H   0  0  0  0  0  0  0  0  0  0  0  0
   -3.7037    0.6791   -2.6845 H   0  0  0  0  0  0  0  0  0  0  0  0
   -4.6349   -0.4803   -1.7513 H   0  0  0  0  0  0  0  0  0  0  0  0
   -5.5060    1.9301   -1.7615 H   0  0  0  0  0  0  0  0  0  0  0  0
   -5.3807    1.1597   -0.1946 H   0  0  0  0  0  0  0  0  0  0  0  0
   -4.6420    3.5950   -0.2799 H   0  0  0  0  0  0  0  0  0  0  0  0
   -3.4721    2.4851    0.4583 H   0  0  0  0  0  0  0  0  0  0  0  0
   -2.4487    4.0393   -1.0479 H   0  0  0  0  0  0  0  0  0  0  0  0
   -3.2878    3.4379   -2.3520 H   0  0  0  0  0  0  0  0  0  0  0  0
   -2.2046    2.4803   -1.5029 H   0  0  0  0  0  0  0  0  0  0  0  0
   -3.3035   -3.2068   -1.3392 H   0  0  0  0  0  0  0  0  0  0  0  0
   -5.0559   -4.8049   -0.6501 H   0  0  0  0  0  0  0  0  0  0  0  0
   -6.3400   -4.4275    1.4347 H   0  0  0  0  0  0  0  0  0  0  0  0
   -5.8676   -2.4471    2.8457 H   0  0  0  0  0  0  0  0  0  0  0  0
   -4.1204   -0.8330    2.1797 H   0  0  0  0  0  0  0  0  0  0  0  0
  1  2  1  0
  2  3  1  0
  3  4  1  0
  4  5  2  0
  4  6  1  0
  7  6  1  6
  7  8  1  0
  8  9  1  0
  9 10  1  0
 10 11  1  0
 11 12  1  0
 12 13  1  0
 13 14  1  0
 14 15  1  0
  3 16  2  0
 16 17  1  0
 17 18  1  0
 18 19  1  0
 19 20  1  0
 20 21  1  0
 17 22  1  0
 22 23  1  0
 23 24  2  0
 24 25  1  0
 25 26  2  0
 26 27  1  0
 27 28  2  0
 22  2  2  0
 28 23  1  0
 13  7  1  0
 15  7  1  0
  1 29  1  0
  1 30  1  0
  1 31  1  0
  6 32  1  0
  8 33  1  0
  8 34  1  0
  9 35  1  0
  9 36  1  0
 10 37  1  0
 10 38  1  0
 11 39  1  0
 11 40  1  0
 12 41  1  0
 12 42  1  0
 13 43  1  1
 14 44  1  0
 14 45  1  0
 15 46  1  0
 15 47  1  0
 18 48  1  0
 18 49  1  0
 19 50  1  0
 19 51  1  0
 20 52  1  0
 20 53  1  0
 21 54  1  0
 21 55  1  0
 21 56  1  0
 24 57  1  0
 25 58  1  0
 26 59  1  0
 27 60  1  0
 28 61  1  0
M  CHG  2  10   1  21   1
M  END
>  <_SMILES>  (47) 
Cc1c(C(=O)N[C@]23CC[NH2+]CC[C@H]2CC3)nn(CCC[NH3+])c1-c1ccccc1

$$$$

     RDKit          3D

 61 64  0  0  0  0  0  0  0  0999 V2000
    0.3490   -3.1704    0.7708 C   0  0  0  0  0  0  0  0  0  0  0  0
    0.7347   -1.8233    0.2657 C   0  0  0  0  0  0  0  0  0  0  0  0
   -0.1403   -0.7237    0.0250 C   0  0  0  0  0  0  0  0  0  0  0  0
   -1.6102   -0.6937    0.1646 C   0  0  0  0  0  0  0  0  0  0  0  0
   -2.2594   -1.6129    0.6497 O   0  0  0  0  0  0  0  0  0  0  0  0
   -2.1859    0.4768   -0.3163 N   0  0  0  0  0  0  0  0  0  0  0  0
   -3.5607    0.5770   -0.9128 C   0  0  1  0  0  0  0  0  0  0  0  0
   -4.6180   -0.3581   -0.3308 C   0  0  0  0  0  0  0  0  0  0  0  0
   -4.8763   -0.1402    1.1571 C   0  0  0  0  0  0  0  0  0  0  0  0
   -5.3034    1.2695    1.4725 N   0  0  0  0  0  0  0  0  0  0  0  0
   -4.2030    2.2824    1.5421 C   0  0  0  0  0  0  0  0  0  0  0  0
   -3.8935    2.9469    0.1995 C   0  0  0  0  0  0  0  0  0  0  0  0
   -4.1354    2.0291   -0.9824 C   0  0  1  0  0  0  0  0  0  0  0  0
   -3.3679    2.2035   -2.3153 C   0  0  0  0  0  0  0  0  0  0  0  0
   -3.4683    0.6641   -2.4739 C   0  0  0  0  0  0  0  0  0  0  0  0
    0.5427    0.3541   -0.4143 N   0  0  0  0  0  0  0  0  0  0  0  0
    1.8022   -0.1024   -0.5899 N   0  0  0  0  0  0  0  0  0  0  0  0
    2.7690    0.7885   -1.2119 C   0  0  0  0  0  0  0  0  0  0  0  0
    4.0239    1.1025   -0.3916 C   0  0  0  0  0  0  0  0  0  0  0  0
    3.7186    1.6029    1.0113 C   0  0  0  0  0  0  0  0  0  0  0  0
    5.0011    1.8473    1.7233 N   0  0  0  0  0  0  0  0  0  0  0  0
    1.9902   -1.3849   -0.1318 C   0  0  0  0  0  0  0  0  0  0  0  0
    3.2644   -2.0968   -0.1295 C   0  0  0  0  0  0  0  0  0  0  0  0
    3.8638   -2.4490    1.0877 C   0  0  0  0  0  0  0  0  0  0  0  0
    5.0912   -3.1137    1.1028 C   0  0  0  0  0  0  0  0  0  0  0  0
    5.7237   -3.4343   -0.0970 C   0  0  0  0  0  0  0  0  0  0  0  0
    5.1254   -3.1035   -1.3119 C   0  0  0  0  0  0  0  0  0  0  0  0
    3.8962   -2.4418   -1.3298 C   0  0  0  0  0  0  0  0  0  0  0  0
    1.1994   -3.8578    0.8000 H   0  0  0  0  0  0  0  0  0  0  0  0
   -0.4130   -3.6173    0.1241 H   0  0  0  0  0  0  0  0  0  0  0  0
   -0.0552   -3.0933    1.7852 H   0  0  0  0  0  0  0  0  0  0  0  0
   -1.4532    1.0673   -0.7208 H   0  0  0  0  0  0  0  0  0  0  0  0
   -4.3504   -1.4049   -0.5125 H   0  0  0  0  0  0  0  0  0  0  0  0
   -5.5687   -0.2224   -0.8650 H   0  0  0  0  0  0  0  0  0  0  0  0
   -4.0184   -0.3621    1.7957 H   0  0  0  0  0  0  0  0  0  0  0  0
   -5.7063   -0.7784    1.4788 H   0  0  0  0  0  0  0  0  0  0  0  0
   -5.7379    1.2325    2.4059 H   0  0  0  0  0  0  0  0  0  0  0  0
   -6.0651    1.5740    0.8503 H   0  0  0  0  0  0  0  0  0  0  0  0
   -3.3215    1.7848    1.9600 H   0  0  0  0  0  0  0  0  0  0  0  0
   -4.5220    3.0417    2.2644 H   0  0  0  0  0  0  0  0  0  0  0  0
   -2.8550    3.2986    0.2172 H   0  0  0  0  0  0  0  0  0  0  0  0
   -4.5142    3.8444    0.0872 H   0  0  0  0  0  0  0  0  0  0  0  0
   -5.2189    2.0381   -1.1942 H   0  0  0  0  0  0  0  0  0  0  0  0
   -3.8794    2.7892   -3.0837 H   0  0  0  0  0  0  0  0  0  0  0  0
   -2.3441    2.5794   -2.2099 H   0  0  0  0  0  0  0  0  0  0  0  0
   -2.6021    0.1861   -2.9408 H   0  0  0  0  0  0  0  0  0  0  0  0
   -4.3720    0.3341   -3.0005 H   0  0  0  0  0  0  0  0  0  0  0  0
    3.0437    0.3374   -2.1719 H   0  0  0  0  0  0  0  0  0  0  0  0
    2.2483    1.7270   -1.4407 H   0  0  0  0  0  0  0  0  0  0  0  0
    4.6731    0.2232   -0.3352 H   0  0  0  0  0  0  0  0  0  0  0  0
    4.6034    1.8617   -0.9326 H   0  0  0  0  0  0  0  0  0  0  0  0
    3.1703    0.8733    1.6127 H   0  0  0  0  0  0  0  0  0  0  0  0
    3.1761    2.5526    0.9980 H   0  0  0  0  0  0  0  0  0  0  0  0
    5.5645    0.9875    1.7996 H   0  0  0  0  0  0  0  0  0  0  0  0
    5.5843    2.5521    1.2503 H   0  0  0  0  0  0  0  0  0  0  0  0
    4.8414    2.1847    2.6826 H   0  0  0  0  0  0  0  0  0  0  0  0
    3.3674   -2.2356    2.0316 H   0  0  0  0  0  0  0  0  0  0  0  0
    5.5435   -3.4114    2.0466 H   0  0  0  0  0  0  0  0  0  0  0  0
    6.6700   -3.9727   -0.0881 H   0  0  0  0  0  0  0  0  0  0  0  0
    5.6069   -3.3856   -2.2466 H   0  0  0  0  0  0  0  0  0  0  0  0
    3.4309   -2.2244   -2.2891 H   0  0  0  0  0  0  0  0  0  0  0  0
  1  2  1  0
  2  3  1  0
  3  4  1  0
  4  5  2  0
  4  6  1  0
  7  6  1  1
  7  8  1  0
  8  9  1  0
  9 10  1  0
 10 11  1  0
 11 12  1  0
 12 13  1  0
 13 14  1  0
 14 15  1  0
  3 16  2  0
 16 17  1  0
 17 18  1  0
 18 19  1  0
 19 20  1  0
 20 21  1  0
 17 22  1  0
 22 23  1  0
 23 24  2  0
 24 25  1  0
 25 26  2  0
 26 27  1  0
 27 28  2  0
 22  2  2  0
 28 23  1  0
 13  7  1  0
 15  7  1  0
  1 29  1  0
  1 30  1  0
  1 31  1  0
  6 32  1  0
  8 33  1  0
  8 34  1  0
  9 35  1  0
  9 36  1  0
 10 37  1  0
 10 38  1  0
 11 39  1  0
 11 40  1  0
 12 41  1  0
 12 42  1  0
 13 43  1  6
 14 44  1  0
 14 45  1  0
 15 46  1  0
 15 47  1  0
 18 48  1  0
 18 49  1  0
 19 50  1  0
 19 51  1  0
 20 52  1  0
 20 53  1  0
 21 54  1  0
 21 55  1  0
 21 56  1  0
 24 57  1  0
 25 58  1  0
 26 59  1  0
 27 60  1  0
 28 61  1  0
M  CHG  2  10   1  21   1
M  END
>  <_SMILES>  (48) 
Cc1c(C(=O)N[C@@]23CC[NH2+]CC[C@H]2CC3)nn(CCC[NH3+])c1-c1ccccc1

$$$$

     RDKit          3D

 41 44  0  0  0  0  0  0  0  0999 V2000
   -3.2608    1.3782   -1.8837 C   0  0  0  0  0  0  0  0  0  0  0  0
   -2.2709    0.5005   -1.3015 N   0  0  0  0  0  0  0  0  0  0  0  0
   -1.1279    0.2801   -1.9739 N   0  0  0  0  0  0  0  0  0  0  0  0
   -0.4388   -0.5930   -1.2176 C   0  0  0  0  0  0  0  0  0  0  0  0
    0.8978   -1.0844   -1.6207 C   0  0  0  0  0  0  0  0  0  0  0  0
    1.5558   -0.5680   -2.5233 O   0  0  0  0  0  0  0  0  0  0  0  0
    1.3317   -2.1951   -0.8779 N   0  0  0  0  0  0  0  0  0  0  0  0
    2.4469   -2.9105   -1.2438 N   0  0  0  0  0  0  0  0  0  0  0  0
    3.6018   -2.3088   -1.2857 C   0  0  0  0  0  0  0  0  0  0  0  0
    3.9825   -0.9777   -0.7683 C   0  0  0  0  0  0  0  0  0  0  0  0
    4.8664   -0.2060   -1.5354 C   0  0  0  0  0  0  0  0  0  0  0  0
    5.2873    1.0576   -1.0929 C   0  0  0  0  0  0  0  0  0  0  0  0
    4.8126    1.5184    0.1458 C   0  0  0  0  0  0  0  0  0  0  0  0
    4.9578    2.6665    0.9504 C   0  0  0  0  0  0  0  0  0  0  0  0
    4.2650    2.5818    2.0904 N   0  0  0  0  0  0  0  0  0  0  0  0
    3.6333    1.3456    2.0428 O   0  0  0  0  0  0  0  0  0  0  0  0
    3.9581    0.7150    0.8809 C   0  0  0  0  0  0  0  0  0  0  0  0
    3.5164   -0.5413    0.4787 C   0  0  0  0  0  0  0  0  0  0  0  0
   -1.1797   -0.9085   -0.0433 C   0  0  0  0  0  0  0  0  0  0  0  0
   -2.3497   -0.1777   -0.1109 C   0  0  0  0  0  0  0  0  0  0  0  0
   -3.4596   -0.1019    0.8301 C   0  0  0  0  0  0  0  0  0  0  0  0
   -3.7722    1.1039    1.4696 C   0  0  0  0  0  0  0  0  0  0  0  0
   -4.8350    1.1686    2.3730 C   0  0  0  0  0  0  0  0  0  0  0  0
   -5.5892    0.0285    2.6459 C   0  0  0  0  0  0  0  0  0  0  0  0
   -5.2794   -1.1779    2.0199 C   0  0  0  0  0  0  0  0  0  0  0  0
   -4.2158   -1.2442    1.1173 C   0  0  0  0  0  0  0  0  0  0  0  0
   -3.1473    2.3663   -1.4319 H   0  0  0  0  0  0  0  0  0  0  0  0
   -3.0986    1.4376   -2.9634 H   0  0  0  0  0  0  0  0  0  0  0  0
   -4.2579    0.9746   -1.6921 H   0  0  0  0  0  0  0  0  0  0  0  0
    0.5825   -2.7912   -0.5413 H   0  0  0  0  0  0  0  0  0  0  0  0
    4.4306   -2.8808   -1.7388 H   0  0  0  0  0  0  0  0  0  0  0  0
    5.2109   -0.5693   -2.5021 H   0  0  0  0  0  0  0  0  0  0  0  0
    5.9549    1.6608   -1.7010 H   0  0  0  0  0  0  0  0  0  0  0  0
    5.5383    3.5577    0.7595 H   0  0  0  0  0  0  0  0  0  0  0  0
    2.8629   -1.1362    1.1029 H   0  0  0  0  0  0  0  0  0  0  0  0
   -0.8901   -1.5557    0.7727 H   0  0  0  0  0  0  0  0  0  0  0  0
   -3.1822    1.9981    1.2812 H   0  0  0  0  0  0  0  0  0  0  0  0
   -5.0700    2.1072    2.8686 H   0  0  0  0  0  0  0  0  0  0  0  0
   -6.4155    0.0790    3.3506 H   0  0  0  0  0  0  0  0  0  0  0  0
   -5.8653   -2.0679    2.2350 H   0  0  0  0  0  0  0  0  0  0  0  0
   -3.9878   -2.1914    0.6342 H   0  0  0  0  0  0  0  0  0  0  0  0
  1  2  1  0
  2  3  1  0
  3  4  2  0
  4  5  1  0
  5  6  2  0
  5  7  1  0
  7  8  1  0
  8  9  2  0
  9 10  1  0
 10 11  2  0
 11 12  1  0
 12 13  2  0
 13 14  1  0
 14 15  2  0
 15 16  1  0
 16 17  1  0
 17 18  2  0
  4 19  1  0
 19 20  2  0
 20 21  1  0
 21 22  2  0
 22 23  1  0
 23 24  2  0
 24 25  1  0
 25 26  2  0
 20  2  1  0
 26 21  1  0
 18 10  1  0
 17 13  1  0
  1 27  1  0
  1 28  1  0
  1 29  1  0
  7 30  1  0
  9 31  1  0
 11 32  1  0
 12 33  1  0
 14 34  1  0
 18 35  1  0
 19 36  1  0
 22 37  1  0
 23 38  1  0
 24 39  1  0
 25 40  1  0
 26 41  1  0
M  END
>  <_SMILES>  (49) 
Cn1nc(C(=O)N/N=C\c2ccc3cnoc3c2)cc1-c1ccccc1

$$$$

     RDKit          3D

 41 44  0  0  0  0  0  0  0  0999 V2000
   -4.1417   -2.5702   -0.9061 C   0  0  0  0  0  0  0  0  0  0  0  0
   -3.1290   -1.5932   -0.5750 N   0  0  0  0  0  0  0  0  0  0  0  0
   -1.8390   -1.9037   -0.7907 N   0  0  0  0  0  0  0  0  0  0  0  0
   -1.1421   -0.8477   -0.3346 C   0  0  0  0  0  0  0  0  0  0  0  0
    0.3382   -0.8172   -0.3811 C   0  0  0  0  0  0  0  0  0  0  0  0
    1.0147   -1.8263   -0.5731 O   0  0  0  0  0  0  0  0  0  0  0  0
    0.8735    0.4642   -0.2020 N   0  0  0  0  0  0  0  0  0  0  0  0
    2.2022    0.7995   -0.3247 N   0  0  0  0  0  0  0  0  0  0  0  0
    3.0830   -0.0495    0.1038 C   0  0  0  0  0  0  0  0  0  0  0  0
    4.5337    0.2033   -0.0345 C   0  0  0  0  0  0  0  0  0  0  0  0
    4.9981    1.3760   -0.6493 C   0  0  0  0  0  0  0  0  0  0  0  0
    6.3728    1.6255   -0.7837 C   0  0  0  0  0  0  0  0  0  0  0  0
    7.2710    0.6686   -0.2856 C   0  0  0  0  0  0  0  0  0  0  0  0
    8.6682    0.5021   -0.2022 C   0  0  0  0  0  0  0  0  0  0  0  0
    9.0103   -0.6425    0.3967 N   0  0  0  0  0  0  0  0  0  0  0  0
    7.8086   -1.2597    0.7196 O   0  0  0  0  0  0  0  0  0  0  0  0
    6.7726   -0.4759    0.3125 C   0  0  0  0  0  0  0  0  0  0  0  0
    5.4184   -0.7617    0.4645 C   0  0  0  0  0  0  0  0  0  0  0  0
   -2.0347    0.1406    0.1692 C   0  0  0  0  0  0  0  0  0  0  0  0
   -3.3120   -0.3490   -0.0245 C   0  0  0  0  0  0  0  0  0  0  0  0
   -4.6013    0.2499    0.2987 C   0  0  0  0  0  0  0  0  0  0  0  0
   -5.5447    0.5023   -0.7050 C   0  0  0  0  0  0  0  0  0  0  0  0
   -6.7758    1.0803   -0.3879 C   0  0  0  0  0  0  0  0  0  0  0  0
   -7.0705    1.4138    0.9330 C   0  0  0  0  0  0  0  0  0  0  0  0
   -6.1340    1.1742    1.9372 C   0  0  0  0  0  0  0  0  0  0  0  0
   -4.9021    0.5974    1.6210 C   0  0  0  0  0  0  0  0  0  0  0  0
   -4.9232   -2.5529   -0.1429 H   0  0  0  0  0  0  0  0  0  0  0  0
   -3.6876   -3.5645   -0.9324 H   0  0  0  0  0  0  0  0  0  0  0  0
   -4.5498   -2.3178   -1.8876 H   0  0  0  0  0  0  0  0  0  0  0  0
    0.2537    1.2465   -0.3800 H   0  0  0  0  0  0  0  0  0  0  0  0
    2.8077   -0.9858    0.6194 H   0  0  0  0  0  0  0  0  0  0  0  0
    4.2891    2.1081   -1.0330 H   0  0  0  0  0  0  0  0  0  0  0  0
    6.7236    2.5351   -1.2621 H   0  0  0  0  0  0  0  0  0  0  0  0
    9.4507    1.1615   -0.5494 H   0  0  0  0  0  0  0  0  0  0  0  0
    5.0875   -1.6783    0.9374 H   0  0  0  0  0  0  0  0  0  0  0  0
   -1.7895    1.0931    0.6177 H   0  0  0  0  0  0  0  0  0  0  0  0
   -5.3242    0.2646   -1.7431 H   0  0  0  0  0  0  0  0  0  0  0  0
   -7.5026    1.2755   -1.1724 H   0  0  0  0  0  0  0  0  0  0  0  0
   -8.0286    1.8646    1.1795 H   0  0  0  0  0  0  0  0  0  0  0  0
   -6.3621    1.4365    2.9672 H   0  0  0  0  0  0  0  0  0  0  0  0
   -4.1832    0.4128    2.4161 H   0  0  0  0  0  0  0  0  0  0  0  0
  1  2  1  0
  2  3  1  0
  3  4  2  0
  4  5  1  0
  5  6  2  0
  5  7  1  0
  7  8  1  0
  8  9  2  0
  9 10  1  0
 10 11  2  0
 11 12  1  0
 12 13  2  0
 13 14  1  0
 14 15  2  0
 15 16  1  0
 16 17  1  0
 17 18  2  0
  4 19  1  0
 19 20  2  0
 20 21  1  0
 21 22  2  0
 22 23  1  0
 23 24  2  0
 24 25  1  0
 25 26  2  0
 20  2  1  0
 26 21  1  0
 18 10  1  0
 17 13  1  0
  1 27  1  0
  1 28  1  0
  1 29  1  0
  7 30  1  0
  9 31  1  0
 11 32  1  0
 12 33  1  0
 14 34  1  0
 18 35  1  0
 19 36  1  0
 22 37  1  0
 23 38  1  0
 24 39  1  0
 25 40  1  0
 26 41  1  0
M  END
>  <_SMILES>  (50) 
Cn1nc(C(=O)N/N=C/c2ccc3cnoc3c2)cc1-c1ccccc1

$$$$

     RDKit          3D

 57 60  0  0  0  0  0  0  0  0999 V2000
   -8.0329    1.8681   -0.3362 C   0  0  0  0  0  0  0  0  0  0  0  0
   -6.6564    1.8029   -0.6837 O   0  0  0  0  0  0  0  0  0  0  0  0
   -5.8445    0.9949    0.0690 C   0  0  0  0  0  0  0  0  0  0  0  0
   -6.2733    0.1009    1.0529 C   0  0  0  0  0  0  0  0  0  0  0  0
   -7.5749   -0.0694    1.3296 F   0  0  0  0  0  0  0  0  0  0  0  0
   -5.3659   -0.6589    1.7899 C   0  0  0  0  0  0  0  0  0  0  0  0
   -3.9893   -0.5431    1.5681 C   0  0  0  0  0  0  0  0  0  0  0  0
   -3.5265    0.3638    0.5985 C   0  0  0  0  0  0  0  0  0  0  0  0
   -4.4604    1.0913   -0.1736 C   0  0  0  0  0  0  0  0  0  0  0  0
   -3.9276    1.9409   -1.1184 O   0  0  0  0  0  0  0  0  0  0  0  0
   -4.4297    1.7044   -2.4332 C   0  0  0  0  0  0  0  0  0  0  0  0
   -2.0453    0.5168    0.3294 C   0  0  0  0  0  0  0  0  0  0  0  0
   -1.1435   -0.0484    1.4389 C   0  0  2  0  0  0  0  0  0  0  0  0
    0.2486   -0.0825    1.0058 N   0  0  0  0  0  0  0  0  0  0  0  0
    1.2886   -0.2070    1.9137 C   0  0  0  0  0  0  0  0  0  0  0  0
    1.0964   -0.3608    3.1171 O   0  0  0  0  0  0  0  0  0  0  0  0
    2.6322   -0.1061    1.3095 C   0  0  0  0  0  0  0  0  0  0  0  0
    3.6185    0.5599    1.9329 N   0  0  0  0  0  0  0  0  0  0  0  0
    4.6719    0.4691    1.1074 N   0  0  0  0  0  0  0  0  0  0  0  0
    5.9106    1.1114    1.4848 C   0  0  0  0  0  0  0  0  0  0  0  0
    4.4191   -0.2444   -0.0370 C   0  0  0  0  0  0  0  0  0  0  0  0
    5.4042   -0.4934   -1.0827 C   0  0  0  0  0  0  0  0  0  0  0  0
    5.2956    0.1541   -2.3185 C   0  0  0  0  0  0  0  0  0  0  0  0
    6.2378   -0.0818   -3.3214 C   0  0  0  0  0  0  0  0  0  0  0  0
    7.2898   -0.9687   -3.0958 C   0  0  0  0  0  0  0  0  0  0  0  0
    7.4001   -1.6224   -1.8693 C   0  0  0  0  0  0  0  0  0  0  0  0
    6.4591   -1.3870   -0.8652 C   0  0  0  0  0  0  0  0  0  0  0  0
    3.0940   -0.6452    0.0627 C   0  0  0  0  0  0  0  0  0  0  0  0
    2.3399   -1.4893   -0.9006 C   0  0  0  0  0  0  0  0  0  0  0  0
   -1.6369   -1.4435    1.8319 C   0  0  0  0  0  0  0  0  0  0  0  0
   -3.0429   -1.3548    2.4169 C   0  0  0  0  0  0  0  0  0  0  0  0
   -8.1691    2.1715    0.7070 H   0  0  0  0  0  0  0  0  0  0  0  0
   -8.4971    2.6348   -0.9644 H   0  0  0  0  0  0  0  0  0  0  0  0
   -8.5360    0.9201   -0.5509 H   0  0  0  0  0  0  0  0  0  0  0  0
   -5.7510   -1.3379    2.5466 H   0  0  0  0  0  0  0  0  0  0  0  0
   -3.6187    1.9101   -3.1388 H   0  0  0  0  0  0  0  0  0  0  0  0
   -4.7508    0.6677   -2.5881 H   0  0  0  0  0  0  0  0  0  0  0  0
   -5.2449    2.3988   -2.6561 H   0  0  0  0  0  0  0  0  0  0  0  0
   -1.8238    0.0118   -0.6206 H   0  0  0  0  0  0  0  0  0  0  0  0
   -1.7958    1.5774    0.1978 H   0  0  0  0  0  0  0  0  0  0  0  0
   -1.1966    0.6096    2.3169 H   0  0  0  0  0  0  0  0  0  0  0  0
    0.4834    0.2795    0.0913 H   0  0  0  0  0  0  0  0  0  0  0  0
    5.7138    1.8421    2.2740 H   0  0  0  0  0  0  0  0  0  0  0  0
    6.3274    1.6241    0.6146 H   0  0  0  0  0  0  0  0  0  0  0  0
    6.5960    0.3425    1.8492 H   0  0  0  0  0  0  0  0  0  0  0  0
    4.4801    0.8488   -2.5047 H   0  0  0  0  0  0  0  0  0  0  0  0
    6.1507    0.4259   -4.2786 H   0  0  0  0  0  0  0  0  0  0  0  0
    8.0222   -1.1534   -3.8778 H   0  0  0  0  0  0  0  0  0  0  0  0
    8.2162   -2.3193   -1.6959 H   0  0  0  0  0  0  0  0  0  0  0  0
    6.5486   -1.9123    0.0832 H   0  0  0  0  0  0  0  0  0  0  0  0
    1.6349   -2.1460   -0.3812 H   0  0  0  0  0  0  0  0  0  0  0  0
    1.7807   -0.8601   -1.6000 H   0  0  0  0  0  0  0  0  0  0  0  0
    3.0108   -2.1306   -1.4811 H   0  0  0  0  0  0  0  0  0  0  0  0
   -0.9723   -1.9115    2.5669 H   0  0  0  0  0  0  0  0  0  0  0  0
   -1.6348   -2.1002    0.9514 H   0  0  0  0  0  0  0  0  0  0  0  0
   -3.4350   -2.3713    2.5417 H   0  0  0  0  0  0  0  0  0  0  0  0
   -2.9954   -0.8939    3.4115 H   0  0  0  0  0  0  0  0  0  0  0  0
  1  2  1  0
  2  3  1  0
  3  4  1  0
  4  5  1  0
  4  6  2  0
  6  7  1  0
  7  8  2  0
  8  9  1  0
  9 10  1  0
 10 11  1  0
  8 12  1  0
 12 13  1  0
 13 14  1  0
 14 15  1  0
 15 16  2  0
 15 17  1  0
 17 18  2  0
 18 19  1  0
 19 20  1  0
 19 21  1  0
 21 22  1  0
 22 23  2  0
 23 24  1  0
 24 25  2  0
 25 26  1  0
 26 27  2  0
 21 28  2  0
 28 29  1  0
 13 30  1  0
 30 31  1  0
  9  3  2  0
 28 17  1  0
 31  7  1  0
 27 22  1  0
  1 32  1  0
  1 33  1  0
  1 34  1  0
  6 35  1  0
 11 36  1  0
 11 37  1  0
 11 38  1  0
 12 39  1  0
 12 40  1  0
 13 41  1  1
 14 42  1  0
 20 43  1  0
 20 44  1  0
 20 45  1  0
 23 46  1  0
 24 47  1  0
 25 48  1  0
 26 49  1  0
 27 50  1  0
 29 51  1  0
 29 52  1  0
 29 53  1  0
 30 54  1  0
 30 55  1  0
 31 56  1  0
 31 57  1  0
M  END
>  <_SMILES>  (51) 
COc1c(F)cc2c(c1OC)C[C@H](NC(=O)c1nn(C)c(-c3ccccc3)c1C)CC2

$$$$

     RDKit          3D

 57 61  0  0  0  0  0  0  0  0999 V2000
    0.5991    2.0315   -0.1316 O   0  0  0  0  0  0  0  0  0  0  0  0
    0.8966    0.8971    0.2335 C   0  0  0  0  0  0  0  0  0  0  0  0
   -0.0615   -0.0930    0.4188 N   0  0  0  0  0  0  0  0  0  0  0  0
   -1.5351    0.0739    0.1883 C   0  0  2  0  0  0  0  0  0  0  0  0
   -1.6985    0.4058   -1.3230 C   0  0  0  0  0  0  0  0  0  0  0  0
   -2.9224   -0.0827   -2.0893 C   0  0  2  0  0  0  0  0  0  0  0  0
   -2.6942    0.1770   -3.4876 O   0  0  0  0  0  0  0  0  0  0  0  0
   -4.2292    0.6219   -1.7601 C   0  0  0  0  0  0  0  0  0  0  0  0
   -4.8606    0.3961   -0.3817 C   0  0  1  0  0  0  0  0  0  0  0  0
   -4.7250   -1.0344    0.1562 C   0  0  0  0  0  0  0  0  0  0  0  0
   -3.6010   -1.2601    1.1712 C   0  0  2  0  0  0  0  0  0  0  0  0
   -3.6855   -0.2135    2.2727 C   0  0  0  0  0  0  0  0  0  0  0  0
   -3.4367    1.1554    1.6602 C   0  0  2  0  0  0  0  0  0  0  0  0
   -4.5176    1.4951    0.6353 C   0  0  0  0  0  0  0  0  0  0  0  0
   -2.0169    1.2378    1.0981 C   0  0  0  0  0  0  0  0  0  0  0  0
   -2.1799   -1.2861    0.5894 C   0  0  0  0  0  0  0  0  0  0  0  0
    2.2834    0.4890    0.4959 C   0  0  0  0  0  0  0  0  0  0  0  0
    3.3526    1.3284    0.4073 N   0  0  0  0  0  0  0  0  0  0  0  0
    4.3719    0.4724    0.7392 N   0  0  0  0  0  0  0  0  0  0  0  0
    5.7348    0.9659    0.7829 C   0  0  0  0  0  0  0  0  0  0  0  0
    6.2741    1.3905   -0.5824 C   0  0  0  0  0  0  0  0  0  0  0  0
    6.3046    0.2584   -1.5995 C   0  0  0  0  0  0  0  0  0  0  0  0
    7.0545   -0.8327   -1.0819 O   0  0  0  0  0  0  0  0  0  0  0  0
    4.0150   -0.8290    1.0155 C   0  0  0  0  0  0  0  0  0  0  0  0
    4.4305   -2.1242    1.3731 C   0  0  0  0  0  0  0  0  0  0  0  0
    3.2408   -2.8227    1.4106 C   0  0  0  0  0  0  0  0  0  0  0  0
    2.1510   -2.0539    1.1023 O   0  0  0  0  0  0  0  0  0  0  0  0
    2.6737   -0.8242    0.8637 C   0  0  0  0  0  0  0  0  0  0  0  0
    0.2722   -1.0153    0.6770 H   0  0  0  0  0  0  0  0  0  0  0  0
   -0.8325   -0.0220   -1.8521 H   0  0  0  0  0  0  0  0  0  0  0  0
   -1.5857    1.4855   -1.4920 H   0  0  0  0  0  0  0  0  0  0  0  0
   -3.0308   -1.1670   -2.0171 H   0  0  0  0  0  0  0  0  0  0  0  0
   -1.8498   -0.2350   -3.7378 H   0  0  0  0  0  0  0  0  0  0  0  0
   -4.1336    1.6960   -1.9686 H   0  0  0  0  0  0  0  0  0  0  0  0
   -4.9629    0.2805   -2.5068 H   0  0  0  0  0  0  0  0  0  0  0  0
   -5.9361    0.5343   -0.5774 H   0  0  0  0  0  0  0  0  0  0  0  0
   -5.6668   -1.2685    0.6745 H   0  0  0  0  0  0  0  0  0  0  0  0
   -4.6687   -1.7668   -0.6569 H   0  0  0  0  0  0  0  0  0  0  0  0
   -3.7775   -2.2453    1.6243 H   0  0  0  0  0  0  0  0  0  0  0  0
   -2.9469   -0.4218    3.0568 H   0  0  0  0  0  0  0  0  0  0  0  0
   -4.6707   -0.2430    2.7548 H   0  0  0  0  0  0  0  0  0  0  0  0
   -3.5079    1.9050    2.4602 H   0  0  0  0  0  0  0  0  0  0  0  0
   -4.2825    2.4417    0.1341 H   0  0  0  0  0  0  0  0  0  0  0  0
   -5.4363    1.6968    1.2057 H   0  0  0  0  0  0  0  0  0  0  0  0
   -1.3540    1.2793    1.9760 H   0  0  0  0  0  0  0  0  0  0  0  0
   -1.8808    2.2064    0.6009 H   0  0  0  0  0  0  0  0  0  0  0  0
   -1.5626   -1.7302    1.3861 H   0  0  0  0  0  0  0  0  0  0  0  0
   -2.1099   -2.0112   -0.2301 H   0  0  0  0  0  0  0  0  0  0  0  0
    5.7339    1.8229    1.4669 H   0  0  0  0  0  0  0  0  0  0  0  0
    6.3677    0.1942    1.2350 H   0  0  0  0  0  0  0  0  0  0  0  0
    7.2953    1.7627   -0.4348 H   0  0  0  0  0  0  0  0  0  0  0  0
    5.6824    2.2202   -0.9862 H   0  0  0  0  0  0  0  0  0  0  0  0
    6.7820    0.6007   -2.5233 H   0  0  0  0  0  0  0  0  0  0  0  0
    5.2966   -0.0916   -1.8423 H   0  0  0  0  0  0  0  0  0  0  0  0
    7.1137   -1.4942   -1.7941 H   0  0  0  0  0  0  0  0  0  0  0  0
    5.4247   -2.4979    1.5692 H   0  0  0  0  0  0  0  0  0  0  0  0
    3.0090   -3.8561    1.6346 H   0  0  0  0  0  0  0  0  0  0  0  0
  1  2  2  0
  2  3  1  0
  4  3  1  6
  4  5  1  0
  5  6  1  0
  6  7  1  0
  6  8  1  0
  8  9  1  0
  9 10  1  0
 10 11  1  0
 11 12  1  0
 12 13  1  0
 13 14  1  0
 13 15  1  0
 11 16  1  0
  2 17  1  0
 17 18  2  0
 18 19  1  0
 19 20  1  0
 20 21  1  0
 21 22  1  0
 22 23  1  0
 19 24  1  0
 24 25  1  0
 25 26  2  0
 26 27  1  0
 27 28  1  0
 15  4  1  0
 28 17  1  0
 16  4  1  0
 28 24  2  0
 14  9  1  0
  3 29  1  0
  5 30  1  0
  5 31  1  0
  6 32  1  6
  7 33  1  0
  8 34  1  0
  8 35  1  0
  9 36  1  6
 10 37  1  0
 10 38  1  0
 11 39  1  1
 12 40  1  0
 12 41  1  0
 13 42  1  1
 14 43  1  0
 14 44  1  0
 15 45  1  0
 15 46  1  0
 16 47  1  0
 16 48  1  0
 20 49  1  0
 20 50  1  0
 21 51  1  0
 21 52  1  0
 22 53  1  0
 22 54  1  0
 23 55  1  0
 25 56  1  0
 26 57  1  0
M  END
>  <_SMILES>  (52) 
O=C(N[C@]12C[C@H](O)C[C@H]3C[C@H](C[C@H](C3)C1)C2)c1nn(CCCO)c2ccoc12

$$$$

     RDKit          3D

 57 61  0  0  0  0  0  0  0  0999 V2000
    0.1218    0.4184    2.5910 O   0  0  0  0  0  0  0  0  0  0  0  0
    0.6303    0.5014    1.4793 C   0  0  0  0  0  0  0  0  0  0  0  0
   -0.0841    0.4652    0.2947 N   0  0  0  0  0  0  0  0  0  0  0  0
   -1.5351    0.1391    0.1560 C   0  0  2  0  0  0  0  0  0  0  0  0
   -1.6843   -1.3332    0.6308 C   0  0  0  0  0  0  0  0  0  0  0  0
   -2.7269   -2.2419   -0.0074 C   0  0  1  0  0  0  0  0  0  0  0  0
   -2.4479   -3.5688    0.4777 O   0  0  0  0  0  0  0  0  0  0  0  0
   -4.1738   -1.9380    0.3506 C   0  0  0  0  0  0  0  0  0  0  0  0
   -4.8097   -0.6545   -0.1977 C   0  0  1  0  0  0  0  0  0  0  0  0
   -4.7924    0.5105    0.8026 C   0  0  0  0  0  0  0  0  0  0  0  0
   -3.7120    1.5682    0.5859 C   0  0  2  0  0  0  0  0  0  0  0  0
   -3.6643    1.9990   -0.8712 C   0  0  0  0  0  0  0  0  0  0  0  0
   -3.2814    0.7953   -1.7200 C   0  0  2  0  0  0  0  0  0  0  0  0
   -4.3716   -0.2766   -1.6195 C   0  0  0  0  0  0  0  0  0  0  0  0
   -1.8636    0.3340   -1.3521 C   0  0  0  0  0  0  0  0  0  0  0  0
   -2.3258    1.1276    1.0583 C   0  0  0  0  0  0  0  0  0  0  0  0
    2.0679    0.6360    1.2536 C   0  0  0  0  0  0  0  0  0  0  0  0
    2.6292    0.6746    0.0072 N   0  0  0  0  0  0  0  0  0  0  0  0
    3.9530    0.7945    0.3531 N   0  0  0  0  0  0  0  0  0  0  0  0
    4.9614    0.8586   -0.6887 C   0  0  0  0  0  0  0  0  0  0  0  0
    5.4150   -0.5281   -1.1263 C   0  0  0  0  0  0  0  0  0  0  0  0
    6.4834   -0.4405   -2.2044 C   0  0  0  0  0  0  0  0  0  0  0  0
    6.8564   -1.7439   -2.6267 O   0  0  0  0  0  0  0  0  0  0  0  0
    4.2418    0.8304    1.7009 C   0  0  0  0  0  0  0  0  0  0  0  0
    5.2316    0.9225    2.6969 C   0  0  0  0  0  0  0  0  0  0  0  0
    4.4915    0.8665    3.8598 C   0  0  0  0  0  0  0  0  0  0  0  0
    3.1473    0.7489    3.6404 O   0  0  0  0  0  0  0  0  0  0  0  0
    3.0277    0.7287    2.2904 C   0  0  0  0  0  0  0  0  0  0  0  0
    0.5160    0.4144   -0.5269 H   0  0  0  0  0  0  0  0  0  0  0  0
   -0.7205   -1.8405    0.4634 H   0  0  0  0  0  0  0  0  0  0  0  0
   -1.7969   -1.3710    1.7233 H   0  0  0  0  0  0  0  0  0  0  0  0
   -2.5843   -2.2998   -1.0887 H   0  0  0  0  0  0  0  0  0  0  0  0
   -3.0554   -4.1830    0.0315 H   0  0  0  0  0  0  0  0  0  0  0  0
   -4.7754   -2.7768   -0.0320 H   0  0  0  0  0  0  0  0  0  0  0  0
   -4.3074   -2.0030    1.4386 H   0  0  0  0  0  0  0  0  0  0  0  0
   -5.8750   -0.9232   -0.2819 H   0  0  0  0  0  0  0  0  0  0  0  0
   -4.7671    0.1468    1.8368 H   0  0  0  0  0  0  0  0  0  0  0  0
   -5.7593    1.0262    0.7068 H   0  0  0  0  0  0  0  0  0  0  0  0
   -3.9940    2.4410    1.1906 H   0  0  0  0  0  0  0  0  0  0  0  0
   -2.9383    2.8103   -1.0067 H   0  0  0  0  0  0  0  0  0  0  0  0
   -4.6384    2.3948   -1.1847 H   0  0  0  0  0  0  0  0  0  0  0  0
   -3.2491    1.1162   -2.7702 H   0  0  0  0  0  0  0  0  0  0  0  0
   -4.1035   -1.1616   -2.2072 H   0  0  0  0  0  0  0  0  0  0  0  0
   -5.2590    0.1322   -2.1253 H   0  0  0  0  0  0  0  0  0  0  0  0
   -1.5833   -0.5526   -1.9334 H   0  0  0  0  0  0  0  0  0  0  0  0
   -1.1999    1.1230   -1.7401 H   0  0  0  0  0  0  0  0  0  0  0  0
   -2.3980    0.7482    2.0853 H   0  0  0  0  0  0  0  0  0  0  0  0
   -1.7377    2.0543    1.1430 H   0  0  0  0  0  0  0  0  0  0  0  0
    5.8025    1.4464   -0.3036 H   0  0  0  0  0  0  0  0  0  0  0  0
    4.5268    1.4135   -1.5284 H   0  0  0  0  0  0  0  0  0  0  0  0
    5.8029   -1.0943   -0.2698 H   0  0  0  0  0  0  0  0  0  0  0  0
    4.5637   -1.1117   -1.4995 H   0  0  0  0  0  0  0  0  0  0  0  0
    6.1112    0.1018   -3.0792 H   0  0  0  0  0  0  0  0  0  0  0  0
    7.3775    0.0742   -1.8379 H   0  0  0  0  0  0  0  0  0  0  0  0
    7.1855   -2.2318   -1.8524 H   0  0  0  0  0  0  0  0  0  0  0  0
    6.3030    1.0146    2.6052 H   0  0  0  0  0  0  0  0  0  0  0  0
    4.7676    0.8976    4.9059 H   0  0  0  0  0  0  0  0  0  0  0  0
  1  2  2  0
  2  3  1  0
  4  3  1  6
  4  5  1  0
  5  6  1  0
  6  7  1  0
  6  8  1  0
  8  9  1  0
  9 10  1  0
 10 11  1  0
 11 12  1  0
 12 13  1  0
 13 14  1  0
 13 15  1  0
 11 16  1  0
  2 17  1  0
 17 18  2  0
 18 19  1  0
 19 20  1  0
 20 21  1  0
 21 22  1  0
 22 23  1  0
 19 24  1  0
 24 25  1  0
 25 26  2  0
 26 27  1  0
 27 28  1  0
 15  4  1  0
 28 17  1  0
 16  4  1  0
 28 24  2  0
 14  9  1  0
  3 29  1  0
  5 30  1  0
  5 31  1  0
  6 32  1  6
  7 33  1  0
  8 34  1  0
  8 35  1  0
  9 36  1  6
 10 37  1  0
 10 38  1  0
 11 39  1  1
 12 40  1  0
 12 41  1  0
 13 42  1  6
 14 43  1  0
 14 44  1  0
 15 45  1  0
 15 46  1  0
 16 47  1  0
 16 48  1  0
 20 49  1  0
 20 50  1  0
 21 51  1  0
 21 52  1  0
 22 53  1  0
 22 54  1  0
 23 55  1  0
 25 56  1  0
 26 57  1  0
M  END
>  <_SMILES>  (53) 
O=C(N[C@]12C[C@@H](O)C[C@H]3C[C@H](C[C@H](C3)C1)C2)c1nn(CCCO)c2ccoc12

$$$$

     RDKit          3D

 79 84  0  0  0  0  0  0  0  0999 V2000
   -0.5238   -3.0113   -0.7428 C   0  0  0  0  0  0  0  0  0  0  0  0
   -0.1231   -1.7348   -0.0722 C   0  0  0  0  0  0  0  0  0  0  0  0
   -0.9612   -0.5771    0.0876 C   0  0  0  0  0  0  0  0  0  0  0  0
   -2.3329   -0.4351   -0.4051 C   0  0  0  0  0  0  0  0  0  0  0  0
   -2.7373   -1.0423   -1.3872 O   0  0  0  0  0  0  0  0  0  0  0  0
   -3.1461    0.4187    0.3210 N   0  0  0  0  0  0  0  0  0  0  0  0
   -4.4694    0.7466   -0.1454 C   0  0  1  0  0  0  0  0  0  0  0  0
   -4.4336    1.7091   -1.3494 C   0  0  0  0  0  0  0  0  0  0  0  0
   -5.7385    1.6844   -2.1584 C   0  0  0  0  0  0  0  0  0  0  0  0
   -6.9685    1.3839   -1.2827 C   0  0  2  0  0  0  0  0  0  0  0  0
   -8.2386    1.4232   -2.1388 C   0  0  0  0  0  0  0  0  0  0  0  0
   -7.0495    2.4287   -0.1381 C   0  0  0  0  0  0  0  0  0  0  0  0
   -6.5818    1.6554    1.0842 C   0  0  1  0  0  0  0  0  0  0  0  0
   -7.2616    0.3141    0.8926 C   0  0  0  0  0  0  0  0  0  0  0  0
   -6.8356    0.0011   -0.5426 C   0  0  2  0  0  0  0  0  0  0  0  0
   -5.3706   -0.4628   -0.4681 C   0  0  0  0  0  0  0  0  0  0  0  0
   -5.0832    1.4551    1.0396 N   0  0  0  0  0  0  0  0  0  0  0  0
   -0.1994    0.3616    0.7646 C   0  0  0  0  0  0  0  0  0  0  0  0
    1.0488   -0.1691    0.9975 N   0  0  0  0  0  0  0  0  0  0  0  0
    2.1401    0.5536    1.6435 C   0  0  0  0  0  0  0  0  0  0  0  0
    3.2794    0.9202    0.6798 C   0  0  0  0  0  0  0  0  0  0  0  0
    4.6327    0.4784    1.2371 C   0  0  0  0  0  0  0  0  0  0  0  0
    5.7584    0.8304    0.2830 N   0  0  0  0  0  0  0  0  0  0  0  0
    7.0831    0.9501    1.0226 C   0  0  0  0  0  0  0  0  0  0  0  0
    8.2741    0.8720    0.0699 C   0  0  0  0  0  0  0  0  0  0  0  0
    7.9287    1.3276   -1.3388 C   0  0  0  0  0  0  0  0  0  0  0  0
    6.8025    0.4829   -1.9336 C   0  0  0  0  0  0  0  0  0  0  0  0
    5.8735   -0.1221   -0.8850 C   0  0  0  0  0  0  0  0  0  0  0  0
    1.1071   -1.4615    0.5179 C   0  0  0  0  0  0  0  0  0  0  0  0
    2.2891   -2.3212    0.6027 C   0  0  0  0  0  0  0  0  0  0  0  0
    2.7154   -2.8315    1.8341 C   0  0  0  0  0  0  0  0  0  0  0  0
    3.8409   -3.6552    1.9033 C   0  0  0  0  0  0  0  0  0  0  0  0
    4.5387   -3.9840    0.7416 C   0  0  0  0  0  0  0  0  0  0  0  0
    4.1087   -3.4970   -0.4916 C   0  0  0  0  0  0  0  0  0  0  0  0
    2.9873   -2.6682   -0.5612 C   0  0  0  0  0  0  0  0  0  0  0  0
   -0.4897   -2.8914   -1.8302 H   0  0  0  0  0  0  0  0  0  0  0  0
    0.1359   -3.8399   -0.4683 H   0  0  0  0  0  0  0  0  0  0  0  0
   -1.5396   -3.2990   -0.4531 H   0  0  0  0  0  0  0  0  0  0  0  0
   -2.6516    1.0165    0.9659 H   0  0  0  0  0  0  0  0  0  0  0  0
   -3.6164    1.4502   -2.0345 H   0  0  0  0  0  0  0  0  0  0  0  0
   -4.2133    2.7322   -1.0178 H   0  0  0  0  0  0  0  0  0  0  0  0
   -5.6578    0.9210   -2.9438 H   0  0  0  0  0  0  0  0  0  0  0  0
   -5.8534    2.6435   -2.6790 H   0  0  0  0  0  0  0  0  0  0  0  0
   -8.3762    2.4097   -2.5951 H   0  0  0  0  0  0  0  0  0  0  0  0
   -9.1296    1.2042   -1.5401 H   0  0  0  0  0  0  0  0  0  0  0  0
   -8.1907    0.6830   -2.9451 H   0  0  0  0  0  0  0  0  0  0  0  0
   -8.0865    2.7531    0.0181 H   0  0  0  0  0  0  0  0  0  0  0  0
   -6.4596    3.3329   -0.3215 H   0  0  0  0  0  0  0  0  0  0  0  0
   -6.8200    2.1447    2.0321 H   0  0  0  0  0  0  0  0  0  0  0  0
   -8.3515    0.4106    0.9645 H   0  0  0  0  0  0  0  0  0  0  0  0
   -6.9397   -0.4396    1.6186 H   0  0  0  0  0  0  0  0  0  0  0  0
   -7.4582   -0.7860   -0.9805 H   0  0  0  0  0  0  0  0  0  0  0  0
   -5.2522   -1.2551    0.2826 H   0  0  0  0  0  0  0  0  0  0  0  0
   -5.1016   -0.9136   -1.4302 H   0  0  0  0  0  0  0  0  0  0  0  0
   -4.6307    2.3657    1.1632 H   0  0  0  0  0  0  0  0  0  0  0  0
   -4.8330    0.8875    1.8571 H   0  0  0  0  0  0  0  0  0  0  0  0
   -0.4206    1.3760    1.0677 H   0  0  0  0  0  0  0  0  0  0  0  0
    1.7162    1.4682    2.0753 H   0  0  0  0  0  0  0  0  0  0  0  0
    2.4776   -0.0611    2.4846 H   0  0  0  0  0  0  0  0  0  0  0  0
    3.1084    0.4942   -0.3137 H   0  0  0  0  0  0  0  0  0  0  0  0
    3.2877    2.0093    0.5439 H   0  0  0  0  0  0  0  0  0  0  0  0
    4.6895   -0.5971    1.4243 H   0  0  0  0  0  0  0  0  0  0  0  0
    4.8297    1.0117    2.1744 H   0  0  0  0  0  0  0  0  0  0  0  0
    5.5587    1.7618   -0.1061 H   0  0  0  0  0  0  0  0  0  0  0  0
    7.0542    1.9162    1.5377 H   0  0  0  0  0  0  0  0  0  0  0  0
    7.1332    0.1467    1.7663 H   0  0  0  0  0  0  0  0  0  0  0  0
    9.1012    1.4688    0.4708 H   0  0  0  0  0  0  0  0  0  0  0  0
    8.6367   -0.1634    0.0317 H   0  0  0  0  0  0  0  0  0  0  0  0
    8.8117    1.2771   -1.9857 H   0  0  0  0  0  0  0  0  0  0  0  0
    7.6210    2.3805   -1.3121 H   0  0  0  0  0  0  0  0  0  0  0  0
    7.2245   -0.3310   -2.5354 H   0  0  0  0  0  0  0  0  0  0  0  0
    6.2256    1.1055   -2.6284 H   0  0  0  0  0  0  0  0  0  0  0  0
    6.2555   -1.0725   -0.4962 H   0  0  0  0  0  0  0  0  0  0  0  0
    4.8804   -0.2826   -1.3114 H   0  0  0  0  0  0  0  0  0  0  0  0
    2.1560   -2.6208    2.7432 H   0  0  0  0  0  0  0  0  0  0  0  0
    4.1536   -4.0716    2.8590 H   0  0  0  0  0  0  0  0  0  0  0  0
    5.3940   -4.6554    0.7943 H   0  0  0  0  0  0  0  0  0  0  0  0
    4.6256   -3.7942   -1.4017 H   0  0  0  0  0  0  0  0  0  0  0  0
    2.6408   -2.3203   -1.5327 H   0  0  0  0  0  0  0  0  0  0  0  0
  1  2  1  0
  2  3  1  0
  3  4  1  0
  4  5  2  0
  4  6  1  0
  7  6  1  1
  7  8  1  0
  8  9  1  0
  9 10  1  0
 10 11  1  6
 10 12  1  0
 12 13  1  0
 13 14  1  0
 14 15  1  0
 15 16  1  0
 13 17  1  0
  3 18  2  0
 18 19  1  0
 19 20  1  0
 20 21  1  0
 21 22  1  0
 22 23  1  0
 23 24  1  0
 24 25  1  0
 25 26  1  0
 26 27  1  0
 27 28  1  0
 19 29  1  0
 29 30  1  0
 30 31  2  0
 31 32  1  0
 32 33  2  0
 33 34  1  0
 34 35  2  0
 29  2  2  0
 35 30  1  0
 16  7  1  0
 28 23  1  0
 17  7  1  0
 15 10  1  0
  1 36  1  0
  1 37  1  0
  1 38  1  0
  6 39  1  0
  8 40  1  0
  8 41  1  0
  9 42  1  0
  9 43  1  0
 11 44  1  0
 11 45  1  0
 11 46  1  0
 12 47  1  0
 12 48  1  0
 13 49  1  1
 14 50  1  0
 14 51  1  0
 15 52  1  6
 16 53  1  0
 16 54  1  0
 17 55  1  0
 17 56  1  0
 18 57  1  0
 20 58  1  0
 20 59  1  0
 21 60  1  0
 21 61  1  0
 22 62  1  0
 22 63  1  0
 23 64  1  0
 24 65  1  0
 24 66  1  0
 25 67  1  0
 25 68  1  0
 26 69  1  0
 26 70  1  0
 27 71  1  0
 27 72  1  0
 28 73  1  0
 28 74  1  0
 31 75  1  0
 32 76  1  0
 33 77  1  0
 34 78  1  0
 35 79  1  0
M  CHG  2  17   1  23   1
M  END
>  <_SMILES>  (54) 
Cc1c(C(=O)N[C@@]23CC[C@]4(C)C[C@@H](C[C@@H]4C2)[NH2+]3)cn(CCC[NH+]2CCCCC2)c1-c1ccccc1

$$$$

     RDKit          3D

 79 84  0  0  0  0  0  0  0  0999 V2000
   -0.5506   -2.7853   -0.3202 C   0  0  0  0  0  0  0  0  0  0  0  0
   -0.1526   -1.4363    0.1909 C   0  0  0  0  0  0  0  0  0  0  0  0
   -0.9254   -0.2322    0.0578 C   0  0  0  0  0  0  0  0  0  0  0  0
   -2.2150   -0.0973   -0.6220 C   0  0  0  0  0  0  0  0  0  0  0  0
   -2.5810   -0.8757   -1.4915 O   0  0  0  0  0  0  0  0  0  0  0  0
   -3.0169    0.9396   -0.1669 N   0  0  0  0  0  0  0  0  0  0  0  0
   -4.3973    1.0068   -0.5782 C   0  0  2  0  0  0  0  0  0  0  0  0
   -5.2556   -0.1035    0.0623 C   0  0  0  0  0  0  0  0  0  0  0  0
   -6.5574   -0.3558   -0.7122 C   0  0  0  0  0  0  0  0  0  0  0  0
   -7.0940    0.9170   -1.3924 C   0  0  1  0  0  0  0  0  0  0  0  0
   -8.4162    0.6091   -2.1025 C   0  0  0  0  0  0  0  0  0  0  0  0
   -7.2939    2.0235   -0.3228 C   0  0  0  0  0  0  0  0  0  0  0  0
   -6.1215    2.9624   -0.5575 C   0  0  2  0  0  0  0  0  0  0  0  0
   -6.0596    3.0223   -2.0710 C   0  0  0  0  0  0  0  0  0  0  0  0
   -6.0484    1.5282   -2.3979 C   0  0  1  0  0  0  0  0  0  0  0  0
   -4.6224    1.0315   -2.1037 C   0  0  0  0  0  0  0  0  0  0  0  0
   -4.8413    2.3466   -0.0395 N   0  0  0  0  0  0  0  0  0  0  0  0
   -0.1926    0.7696    0.6727 C   0  0  0  0  0  0  0  0  0  0  0  0
    0.9836    0.2321    1.1411 N   0  0  0  0  0  0  0  0  0  0  0  0
    2.0338    1.0086    1.7969 C   0  0  0  0  0  0  0  0  0  0  0  0
    3.3477    1.0424    1.0011 C   0  0  0  0  0  0  0  0  0  0  0  0
    4.5340    0.5969    1.8579 C   0  0  0  0  0  0  0  0  0  0  0  0
    5.6787    0.1116    0.9929 N   0  0  0  0  0  0  0  0  0  0  0  0
    6.7644   -0.5420    1.8174 C   0  0  0  0  0  0  0  0  0  0  0  0
    7.6906   -1.3282    0.8949 C   0  0  0  0  0  0  0  0  0  0  0  0
    7.8683   -0.6893   -0.4820 C   0  0  0  0  0  0  0  0  0  0  0  0
    7.6369    0.8127   -0.4270 C   0  0  0  0  0  0  0  0  0  0  0  0
    6.2344    1.1692    0.0609 C   0  0  0  0  0  0  0  0  0  0  0  0
    1.0147   -1.1239    0.8815 C   0  0  0  0  0  0  0  0  0  0  0  0
    2.1247   -2.0093    1.2384 C   0  0  0  0  0  0  0  0  0  0  0  0
    2.9588   -2.5246    0.2364 C   0  0  0  0  0  0  0  0  0  0  0  0
    4.0162   -3.3750    0.5647 C   0  0  0  0  0  0  0  0  0  0  0  0
    4.2431   -3.7191    1.8962 C   0  0  0  0  0  0  0  0  0  0  0  0
    3.4088   -3.2224    2.8977 C   0  0  0  0  0  0  0  0  0  0  0  0
    2.3490   -2.3734    2.5702 C   0  0  0  0  0  0  0  0  0  0  0  0
   -1.6018   -2.9897   -0.0927 H   0  0  0  0  0  0  0  0  0  0  0  0
    0.0399   -3.5851    0.1366 H   0  0  0  0  0  0  0  0  0  0  0  0
   -0.4102   -2.8330   -1.4047 H   0  0  0  0  0  0  0  0  0  0  0  0
   -2.7583    1.2316    0.7663 H   0  0  0  0  0  0  0  0  0  0  0  0
   -4.7076   -1.0532    0.1028 H   0  0  0  0  0  0  0  0  0  0  0  0
   -5.4794    0.1390    1.1093 H   0  0  0  0  0  0  0  0  0  0  0  0
   -7.3036   -0.7779   -0.0273 H   0  0  0  0  0  0  0  0  0  0  0  0
   -6.3763   -1.1251   -1.4748 H   0  0  0  0  0  0  0  0  0  0  0  0
   -8.2807   -0.1670   -2.8639 H   0  0  0  0  0  0  0  0  0  0  0  0
   -9.1722    0.2559   -1.3926 H   0  0  0  0  0  0  0  0  0  0  0  0
   -8.8164    1.4980   -2.6026 H   0  0  0  0  0  0  0  0  0  0  0  0
   -8.2304    2.5684   -0.4989 H   0  0  0  0  0  0  0  0  0  0  0  0
   -7.3371    1.6443    0.7037 H   0  0  0  0  0  0  0  0  0  0  0  0
   -6.2356    3.9373   -0.0768 H   0  0  0  0  0  0  0  0  0  0  0  0
   -6.9532    3.5058   -2.4833 H   0  0  0  0  0  0  0  0  0  0  0  0
   -5.1813    3.5586   -2.4452 H   0  0  0  0  0  0  0  0  0  0  0  0
   -6.3010    1.3480   -3.4480 H   0  0  0  0  0  0  0  0  0  0  0  0
   -4.5063    0.0326   -2.5393 H   0  0  0  0  0  0  0  0  0  0  0  0
   -3.8795    1.6679   -2.6021 H   0  0  0  0  0  0  0  0  0  0  0  0
   -4.0787    2.9950   -0.2631 H   0  0  0  0  0  0  0  0  0  0  0  0
   -4.8956    2.2999    0.9827 H   0  0  0  0  0  0  0  0  0  0  0  0
   -0.3897    1.8285    0.7776 H   0  0  0  0  0  0  0  0  0  0  0  0
    2.1510    0.5890    2.8019 H   0  0  0  0  0  0  0  0  0  0  0  0
    1.6556    2.0302    1.9218 H   0  0  0  0  0  0  0  0  0  0  0  0
    3.5257    2.0704    0.6606 H   0  0  0  0  0  0  0  0  0  0  0  0
    3.2765    0.4364    0.0909 H   0  0  0  0  0  0  0  0  0  0  0  0
    4.9106    1.4146    2.4824 H   0  0  0  0  0  0  0  0  0  0  0  0
    4.2643   -0.2412    2.5046 H   0  0  0  0  0  0  0  0  0  0  0  0
    5.2907   -0.6452    0.4097 H   0  0  0  0  0  0  0  0  0  0  0  0
    7.2918    0.2552    2.3532 H   0  0  0  0  0  0  0  0  0  0  0  0
    6.2937   -1.2112    2.5449 H   0  0  0  0  0  0  0  0  0  0  0  0
    7.3091   -2.3481    0.7628 H   0  0  0  0  0  0  0  0  0  0  0  0
    8.6654   -1.4318    1.3866 H   0  0  0  0  0  0  0  0  0  0  0  0
    8.8706   -0.9093   -0.8664 H   0  0  0  0  0  0  0  0  0  0  0  0
    7.1575   -1.1382   -1.1873 H   0  0  0  0  0  0  0  0  0  0  0  0
    8.3791    1.2659    0.2427 H   0  0  0  0  0  0  0  0  0  0  0  0
    7.8037    1.2594   -1.4138 H   0  0  0  0  0  0  0  0  0  0  0  0
    5.5378    1.2326   -0.7815 H   0  0  0  0  0  0  0  0  0  0  0  0
    6.2444    2.1261    0.5938 H   0  0  0  0  0  0  0  0  0  0  0  0
    2.7639   -2.2936   -0.8098 H   0  0  0  0  0  0  0  0  0  0  0  0
    4.6338   -3.8072   -0.2206 H   0  0  0  0  0  0  0  0  0  0  0  0
    5.0412   -4.4145    2.1513 H   0  0  0  0  0  0  0  0  0  0  0  0
    3.5606   -3.5287    3.9313 H   0  0  0  0  0  0  0  0  0  0  0  0
    1.6818   -2.0275    3.3573 H   0  0  0  0  0  0  0  0  0  0  0  0
  1  2  1  0
  2  3  1  0
  3  4  1  0
  4  5  2  0
  4  6  1  0
  7  6  1  6
  7  8  1  0
  8  9  1  0
  9 10  1  0
 10 11  1  6
 10 12  1  0
 12 13  1  0
 13 14  1  0
 14 15  1  0
 15 16  1  0
 13 17  1  0
  3 18  2  0
 18 19  1  0
 19 20  1  0
 20 21  1  0
 21 22  1  0
 22 23  1  0
 23 24  1  0
 24 25  1  0
 25 26  1  0
 26 27  1  0
 27 28  1  0
 19 29  1  0
 29 30  1  0
 30 31  2  0
 31 32  1  0
 32 33  2  0
 33 34  1  0
 34 35  2  0
 29  2  2  0
 35 30  1  0
 16  7  1  0
 28 23  1  0
 17  7  1  0
 15 10  1  0
  1 36  1  0
  1 37  1  0
  1 38  1  0
  6 39  1  0
  8 40  1  0
  8 41  1  0
  9 42  1  0
  9 43  1  0
 11 44  1  0
 11 45  1  0
 11 46  1  0
 12 47  1  0
 12 48  1  0
 13 49  1  1
 14 50  1  0
 14 51  1  0
 15 52  1  6
 16 53  1  0
 16 54  1  0
 17 55  1  0
 17 56  1  0
 18 57  1  0
 20 58  1  0
 20 59  1  0
 21 60  1  0
 21 61  1  0
 22 62  1  0
 22 63  1  0
 23 64  1  0
 24 65  1  0
 24 66  1  0
 25 67  1  0
 25 68  1  0
 26 69  1  0
 26 70  1  0
 27 71  1  0
 27 72  1  0
 28 73  1  0
 28 74  1  0
 31 75  1  0
 32 76  1  0
 33 77  1  0
 34 78  1  0
 35 79  1  0
M  CHG  2  17   1  23   1
M  END
>  <_SMILES>  (55) 
Cc1c(C(=O)N[C@]23CC[C@@]4(C)C[C@H](C[C@H]4C2)[NH2+]3)cn(CCC[NH+]2CCCCC2)c1-c1ccccc1

$$$$

     RDKit          3D

 73 78  0  0  0  0  0  0  0  0999 V2000
    3.3117   -2.3396    1.4438 C   0  0  0  0  0  0  0  0  0  0  0  0
    3.4627   -0.9047    1.0044 C   0  0  0  0  0  0  0  0  0  0  0  0
    2.9203    0.0046    1.6315 O   0  0  0  0  0  0  0  0  0  0  0  0
    4.2262   -0.6927   -0.1272 N   0  0  0  0  0  0  0  0  0  0  0  0
    5.0828   -1.6931   -0.7504 C   0  0  0  0  0  0  0  0  0  0  0  0
    5.8388   -0.9462   -1.8381 C   0  0  0  0  0  0  0  0  0  0  0  0
    5.8804    0.4796   -1.3008 C   0  0  0  0  0  0  0  0  0  0  0  0
    4.5021    0.6478   -0.6436 C   0  0  1  0  0  0  0  0  0  0  0  0
    3.4663    1.1364   -1.6816 C   0  0  0  0  0  0  0  0  0  0  0  0
    2.0792    1.4561   -1.1115 C   0  0  0  0  0  0  0  0  0  0  0  0
    1.1118    0.2693   -1.1962 C   0  0  0  0  0  0  0  0  0  0  0  0
   -0.0957    0.3834   -0.2412 C   0  0  1  0  0  0  0  0  0  0  0  0
   -1.2325    1.2692   -0.7779 C   0  0  0  0  0  0  0  0  0  0  0  0
   -1.0014    2.7256   -0.6952 C   0  0  0  0  0  0  0  0  0  0  0  0
   -0.8483    3.4947   -1.8576 C   0  0  0  0  0  0  0  0  0  0  0  0
   -0.6277    4.8706   -1.7726 C   0  0  0  0  0  0  0  0  0  0  0  0
   -0.5577    5.4893   -0.5260 C   0  0  0  0  0  0  0  0  0  0  0  0
   -0.7078    4.7341    0.6358 C   0  0  0  0  0  0  0  0  0  0  0  0
   -0.9294    3.3579    0.5526 C   0  0  0  0  0  0  0  0  0  0  0  0
   -2.4160    0.7825   -1.2230 C   0  0  0  0  0  0  0  0  0  0  0  0
   -3.5959    1.5366   -1.7565 C   0  0  0  0  0  0  0  0  0  0  0  0
   -2.5157   -0.7049   -1.1806 C   0  0  0  0  0  0  0  0  0  0  0  0
   -1.5458   -1.5118   -0.8583 N   0  0  0  0  0  0  0  0  0  0  0  0
   -0.6061   -0.9847    0.0090 N   0  0  0  0  0  0  0  0  0  0  0  0
   -0.6675   -1.5171    1.4381 C   0  0  1  0  0  0  0  0  0  0  0  0
   -1.7100   -0.7095    2.3128 C   0  0  0  0  0  0  0  0  0  0  0  0
   -2.8604   -1.6871    2.6312 C   0  0  1  0  0  0  0  0  0  0  0  0
   -4.3398   -1.2808    2.4808 C   0  0  0  0  0  0  0  0  0  0  0  0
   -4.8526   -2.0150    1.1921 C   0  0  2  0  0  0  0  0  0  0  0  0
   -4.0009   -3.3444    1.2571 C   0  0  0  0  0  0  0  0  0  0  0  0
   -2.6709   -2.7150    1.5435 C   0  0  2  0  0  0  0  0  0  0  0  0
   -1.1963   -3.0136    1.5289 C   0  0  0  0  0  0  0  0  0  0  0  0
   -4.6108   -1.0620    0.0468 N   0  0  0  0  0  0  0  0  0  0  0  0
   -3.9333   -1.3779   -1.1407 C   0  0  0  0  0  0  0  0  0  0  0  0
   -4.3112   -2.1584   -1.9944 O   0  0  0  0  0  0  0  0  0  0  0  0
    2.6347   -2.3870    2.3019 H   0  0  0  0  0  0  0  0  0  0  0  0
    4.2787   -2.7469    1.7486 H   0  0  0  0  0  0  0  0  0  0  0  0
    2.8820   -2.9383    0.6364 H   0  0  0  0  0  0  0  0  0  0  0  0
    4.4830   -2.5173   -1.1464 H   0  0  0  0  0  0  0  0  0  0  0  0
    5.7703   -2.0816    0.0088 H   0  0  0  0  0  0  0  0  0  0  0  0
    5.2816   -0.9807   -2.7813 H   0  0  0  0  0  0  0  0  0  0  0  0
    6.8338   -1.3628   -2.0180 H   0  0  0  0  0  0  0  0  0  0  0  0
    6.0931    1.2195   -2.0778 H   0  0  0  0  0  0  0  0  0  0  0  0
    6.6651    0.5559   -0.5374 H   0  0  0  0  0  0  0  0  0  0  0  0
    4.5595    1.3659    0.1826 H   0  0  0  0  0  0  0  0  0  0  0  0
    3.3709    0.4244   -2.5103 H   0  0  0  0  0  0  0  0  0  0  0  0
    3.8572    2.0658   -2.1173 H   0  0  0  0  0  0  0  0  0  0  0  0
    2.1698    1.8299   -0.0863 H   0  0  0  0  0  0  0  0  0  0  0  0
    1.6640    2.2768   -1.7052 H   0  0  0  0  0  0  0  0  0  0  0  0
    1.6519   -0.6558   -0.9692 H   0  0  0  0  0  0  0  0  0  0  0  0
    0.7679    0.1537   -2.2329 H   0  0  0  0  0  0  0  0  0  0  0  0
    0.2473    0.7593    0.7299 H   0  0  0  0  0  0  0  0  0  0  0  0
   -0.8896    3.0230   -2.8371 H   0  0  0  0  0  0  0  0  0  0  0  0
   -0.5066    5.4579   -2.6791 H   0  0  0  0  0  0  0  0  0  0  0  0
   -0.3833    6.5602   -0.4594 H   0  0  0  0  0  0  0  0  0  0  0  0
   -0.6499    5.2162    1.6084 H   0  0  0  0  0  0  0  0  0  0  0  0
   -1.0447    2.7859    1.4703 H   0  0  0  0  0  0  0  0  0  0  0  0
   -3.9285    1.1001   -2.7044 H   0  0  0  0  0  0  0  0  0  0  0  0
   -4.4303    1.5073   -1.0498 H   0  0  0  0  0  0  0  0  0  0  0  0
   -3.3862    2.5901   -1.9527 H   0  0  0  0  0  0  0  0  0  0  0  0
    0.3449   -1.4395    1.8443 H   0  0  0  0  0  0  0  0  0  0  0  0
   -2.0766    0.1884    1.8085 H   0  0  0  0  0  0  0  0  0  0  0  0
   -1.2363   -0.3892    3.2475 H   0  0  0  0  0  0  0  0  0  0  0  0
   -2.7029   -2.1259    3.6247 H   0  0  0  0  0  0  0  0  0  0  0  0
   -4.8969   -1.6712    3.3420 H   0  0  0  0  0  0  0  0  0  0  0  0
   -4.4815   -0.1955    2.4681 H   0  0  0  0  0  0  0  0  0  0  0  0
   -5.9284   -2.2069    1.2301 H   0  0  0  0  0  0  0  0  0  0  0  0
   -4.0290   -3.8966    0.3134 H   0  0  0  0  0  0  0  0  0  0  0  0
   -4.3327   -3.9919    2.0749 H   0  0  0  0  0  0  0  0  0  0  0  0
   -2.6852   -2.1787    0.6354 H   0  0  0  0  0  0  0  0  0  0  0  0
   -0.8752   -3.6216    0.6784 H   0  0  0  0  0  0  0  0  0  0  0  0
   -0.8730   -3.4869    2.4617 H   0  0  0  0  0  0  0  0  0  0  0  0
   -4.2676   -0.1853    0.4135 H   0  0  0  0  0  0  0  0  0  0  0  0
  1  2  1  0
  2  3  2  0
  2  4  1  0
  4  5  1  0
  5  6  1  0
  6  7  1  0
  7  8  1  0
  8  9  1  0
  9 10  1  0
 10 11  1  0
 11 12  1  0
 12 13  1  0
 13 14  1  0
 14 15  2  0
 15 16  1  0
 16 17  2  0
 17 18  1  0
 18 19  2  0
 13 20  2  0
 20 21  1  0
 20 22  1  0
 22 23  2  0
 23 24  1  0
 24 25  1  0
 25 26  1  0
 26 27  1  0
 27 28  1  0
 28 29  1  0
 29 30  1  0
 30 31  1  0
 31 32  1  0
 29 33  1  0
 33 34  1  0
 34 35  2  0
  8  4  1  0
 24 12  1  0
 32 25  1  0
 19 14  1  0
 34 22  1  0
 31 27  1  0
  1 36  1  0
  1 37  1  0
  1 38  1  0
  5 39  1  0
  5 40  1  0
  6 41  1  0
  6 42  1  0
  7 43  1  0
  7 44  1  0
  8 45  1  1
  9 46  1  0
  9 47  1  0
 10 48  1  0
 10 49  1  0
 11 50  1  0
 11 51  1  0
 12 52  1  1
 15 53  1  0
 16 54  1  0
 17 55  1  0
 18 56  1  0
 19 57  1  0
 21 58  1  0
 21 59  1  0
 21 60  1  0
 25 61  1  1
 26 62  1  0
 26 63  1  0
 27 64  1  1
 28 65  1  0
 28 66  1  0
 29 67  1  1
 30 68  1  0
 30 69  1  0
 31 70  1  6
 32 71  1  0
 32 72  1  0
 33 73  1  0
M  END
>  <_SMILES>  (56) 
CC(=O)N1CCC[C@H]1CCC[C@H]1C(c2ccccc2)=C(C)C2=NN1[C@H]1C[C@H]3C[C@H](C[C@@H]3C1)NC2=O

$$$$

     RDKit          3D

 73 78  0  0  0  0  0  0  0  0999 V2000
    3.7023   -1.7777    2.7747 C   0  0  0  0  0  0  0  0  0  0  0  0
    4.0556   -2.3393    1.4237 C   0  0  0  0  0  0  0  0  0  0  0  0
    3.9413   -3.5470    1.2071 O   0  0  0  0  0  0  0  0  0  0  0  0
    4.4929   -1.4600    0.4562 N   0  0  0  0  0  0  0  0  0  0  0  0
    4.9995   -1.9754   -0.8050 C   0  0  0  0  0  0  0  0  0  0  0  0
    5.9708   -0.9086   -1.2789 C   0  0  0  0  0  0  0  0  0  0  0  0
    5.3068    0.3761   -0.8078 C   0  0  0  0  0  0  0  0  0  0  0  0
    4.6952   -0.0096    0.5514 C   0  0  1  0  0  0  0  0  0  0  0  0
    3.4429    0.8260    0.8668 C   0  0  0  0  0  0  0  0  0  0  0  0
    2.1892    0.4247    0.0804 C   0  0  0  0  0  0  0  0  0  0  0  0
    1.0095    1.3505    0.4079 C   0  0  0  0  0  0  0  0  0  0  0  0
   -0.2901    0.9100   -0.2976 C   0  0  2  0  0  0  0  0  0  0  0  0
   -1.4109    1.9299   -0.1039 C   0  0  0  0  0  0  0  0  0  0  0  0
   -1.3058    3.1371   -0.9449 C   0  0  0  0  0  0  0  0  0  0  0  0
   -0.8969    4.3565   -0.3891 C   0  0  0  0  0  0  0  0  0  0  0  0
   -0.7974    5.4964   -1.1885 C   0  0  0  0  0  0  0  0  0  0  0  0
   -1.1080    5.4259   -2.5456 C   0  0  0  0  0  0  0  0  0  0  0  0
   -1.5203    4.2173   -3.1052 C   0  0  0  0  0  0  0  0  0  0  0  0
   -1.6203    3.0757   -2.3080 C   0  0  0  0  0  0  0  0  0  0  0  0
   -2.4647    1.7389    0.7221 C   0  0  0  0  0  0  0  0  0  0  0  0
   -3.6292    2.6530    0.9368 C   0  0  0  0  0  0  0  0  0  0  0  0
   -2.4122    0.4452    1.4534 C   0  0  0  0  0  0  0  0  0  0  0  0
   -1.5041   -0.4746    1.3173 N   0  0  0  0  0  0  0  0  0  0  0  0
   -0.7136   -0.4045    0.2278 N   0  0  0  0  0  0  0  0  0  0  0  0
   -0.8662   -1.5608   -0.6845 C   0  0  1  0  0  0  0  0  0  0  0  0
   -1.0862   -2.9096    0.0462 C   0  0  0  0  0  0  0  0  0  0  0  0
   -2.5216   -3.3933   -0.2384 C   0  0  1  0  0  0  0  0  0  0  0  0
   -3.4606   -3.6128    0.9599 C   0  0  0  0  0  0  0  0  0  0  0  0
   -4.1984   -2.2846    1.2029 C   0  0  2  0  0  0  0  0  0  0  0  0
   -4.2584   -1.6517   -0.2030 C   0  0  0  0  0  0  0  0  0  0  0  0
   -3.1925   -2.3204   -1.0852 C   0  0  1  0  0  0  0  0  0  0  0  0
   -2.0714   -1.4312   -1.6267 C   0  0  0  0  0  0  0  0  0  0  0  0
   -3.5235   -1.5121    2.2445 N   0  0  0  0  0  0  0  0  0  0  0  0
   -3.6292   -0.1205    2.2256 C   0  0  0  0  0  0  0  0  0  0  0  0
   -4.5647    0.5430    2.6242 O   0  0  0  0  0  0  0  0  0  0  0  0
    3.7446   -2.5816    3.5165 H   0  0  0  0  0  0  0  0  0  0  0  0
    4.4132   -1.0099    3.0868 H   0  0  0  0  0  0  0  0  0  0  0  0
    2.6864   -1.3768    2.7533 H   0  0  0  0  0  0  0  0  0  0  0  0
    4.1490   -2.0726   -1.4891 H   0  0  0  0  0  0  0  0  0  0  0  0
    5.4778   -2.9523   -0.6875 H   0  0  0  0  0  0  0  0  0  0  0  0
    6.1335   -0.9350   -2.3597 H   0  0  0  0  0  0  0  0  0  0  0  0
    6.9397   -1.0301   -0.7798 H   0  0  0  0  0  0  0  0  0  0  0  0
    6.0163    1.2045   -0.7186 H   0  0  0  0  0  0  0  0  0  0  0  0
    4.5401    0.6722   -1.5319 H   0  0  0  0  0  0  0  0  0  0  0  0
    5.4444    0.1584    1.3353 H   0  0  0  0  0  0  0  0  0  0  0  0
    3.6692    1.8845    0.6845 H   0  0  0  0  0  0  0  0  0  0  0  0
    3.2179    0.7539    1.9365 H   0  0  0  0  0  0  0  0  0  0  0  0
    1.9252   -0.6090    0.3260 H   0  0  0  0  0  0  0  0  0  0  0  0
    2.3817    0.4609   -0.9970 H   0  0  0  0  0  0  0  0  0  0  0  0
    0.8550    1.3728    1.4947 H   0  0  0  0  0  0  0  0  0  0  0  0
    1.2791    2.3689    0.1038 H   0  0  0  0  0  0  0  0  0  0  0  0
   -0.0905    0.7809   -1.3690 H   0  0  0  0  0  0  0  0  0  0  0  0
   -0.6538    4.4249    0.6689 H   0  0  0  0  0  0  0  0  0  0  0  0
   -0.4802    6.4399   -0.7516 H   0  0  0  0  0  0  0  0  0  0  0  0
   -1.0330    6.3149   -3.1670 H   0  0  0  0  0  0  0  0  0  0  0  0
   -1.7683    4.1651   -4.1623 H   0  0  0  0  0  0  0  0  0  0  0  0
   -1.9525    2.1423   -2.7564 H   0  0  0  0  0  0  0  0  0  0  0  0
   -3.7028    2.9370    1.9915 H   0  0  0  0  0  0  0  0  0  0  0  0
   -4.5606    2.1661    0.6303 H   0  0  0  0  0  0  0  0  0  0  0  0
   -3.5610    3.5809    0.3630 H   0  0  0  0  0  0  0  0  0  0  0  0
    0.0663   -1.6055   -1.2596 H   0  0  0  0  0  0  0  0  0  0  0  0
   -0.8505   -2.8806    1.1146 H   0  0  0  0  0  0  0  0  0  0  0  0
   -0.3939   -3.6442   -0.3868 H   0  0  0  0  0  0  0  0  0  0  0  0
   -2.4493   -4.3338   -0.8000 H   0  0  0  0  0  0  0  0  0  0  0  0
   -4.2037   -4.3700    0.6769 H   0  0  0  0  0  0  0  0  0  0  0  0
   -2.9321   -3.9887    1.8421 H   0  0  0  0  0  0  0  0  0  0  0  0
   -5.2110   -2.4609    1.5828 H   0  0  0  0  0  0  0  0  0  0  0  0
   -4.2104   -0.5619   -0.2279 H   0  0  0  0  0  0  0  0  0  0  0  0
   -5.2385   -1.9046   -0.6316 H   0  0  0  0  0  0  0  0  0  0  0  0
   -3.7111   -2.7784   -1.9379 H   0  0  0  0  0  0  0  0  0  0  0  0
   -1.7723   -1.8271   -2.6064 H   0  0  0  0  0  0  0  0  0  0  0  0
   -2.3988   -0.4008   -1.7918 H   0  0  0  0  0  0  0  0  0  0  0  0
   -2.5249   -1.7171    2.1873 H   0  0  0  0  0  0  0  0  0  0  0  0
  1  2  1  0
  2  3  2  0
  2  4  1  0
  4  5  1  0
  5  6  1  0
  6  7  1  0
  7  8  1  0
  8  9  1  0
  9 10  1  0
 10 11  1  0
 11 12  1  0
 12 13  1  0
 13 14  1  0
 14 15  2  0
 15 16  1  0
 16 17  2  0
 17 18  1  0
 18 19  2  0
 13 20  2  0
 20 21  1  0
 20 22  1  0
 22 23  2  0
 23 24  1  0
 24 25  1  0
 25 26  1  0
 26 27  1  0
 27 28  1  0
 28 29  1  0
 29 30  1  0
 30 31  1  0
 31 32  1  0
 29 33  1  0
 33 34  1  0
 34 35  2  0
  8  4  1  0
 24 12  1  0
 32 25  1  0
 19 14  1  0
 34 22  1  0
 31 27  1  0
  1 36  1  0
  1 37  1  0
  1 38  1  0
  5 39  1  0
  5 40  1  0
  6 41  1  0
  6 42  1  0
  7 43  1  0
  7 44  1  0
  8 45  1  1
  9 46  1  0
  9 47  1  0
 10 48  1  0
 10 49  1  0
 11 50  1  0
 11 51  1  0
 12 52  1  6
 15 53  1  0
 16 54  1  0
 17 55  1  0
 18 56  1  0
 19 57  1  0
 21 58  1  0
 21 59  1  0
 21 60  1  0
 25 61  1  6
 26 62  1  0
 26 63  1  0
 27 64  1  6
 28 65  1  0
 28 66  1  0
 29 67  1  1
 30 68  1  0
 30 69  1  0
 31 70  1  6
 32 71  1  0
 32 72  1  0
 33 73  1  0
M  END
>  <_SMILES>  (57) 
CC(=O)N1CCC[C@H]1CCC[C@@H]1C(c2ccccc2)=C(C)C2=NN1[C@H]1C[C@H]3C[C@H](C[C@H]3C1)NC2=O

$$$$

     RDKit          3D

 73 78  0  0  0  0  0  0  0  0999 V2000
    4.8872    0.6563    2.7662 C   0  0  0  0  0  0  0  0  0  0  0  0
    3.8719    0.4844    1.6641 C   0  0  0  0  0  0  0  0  0  0  0  0
    2.7581    0.0271    1.9152 O   0  0  0  0  0  0  0  0  0  0  0  0
    4.2711    0.8666    0.3989 N   0  0  0  0  0  0  0  0  0  0  0  0
    5.4689    1.6415    0.1031 C   0  0  0  0  0  0  0  0  0  0  0  0
    5.1618    2.3334   -1.2148 C   0  0  0  0  0  0  0  0  0  0  0  0
    4.2663    1.3241   -1.9143 C   0  0  0  0  0  0  0  0  0  0  0  0
    3.3888    0.7878   -0.7732 C   0  0  1  0  0  0  0  0  0  0  0  0
    2.8629   -0.6237   -1.0846 C   0  0  0  0  0  0  0  0  0  0  0  0
    1.3465   -0.7692   -0.8732 C   0  0  0  0  0  0  0  0  0  0  0  0
    0.5295   -0.1125   -1.9918 C   0  0  0  0  0  0  0  0  0  0  0  0
   -0.9681    0.1841   -1.7234 C   0  0  2  0  0  0  0  0  0  0  0  0
   -1.3636    1.1050   -0.5573 C   0  0  0  0  0  0  0  0  0  0  0  0
   -0.4230    2.1800   -0.1854 C   0  0  0  0  0  0  0  0  0  0  0  0
    0.2132    2.1790    1.0626 C   0  0  0  0  0  0  0  0  0  0  0  0
    1.0790    3.2162    1.4161 C   0  0  0  0  0  0  0  0  0  0  0  0
    1.3125    4.2647    0.5284 C   0  0  0  0  0  0  0  0  0  0  0  0
    0.6798    4.2784   -0.7135 C   0  0  0  0  0  0  0  0  0  0  0  0
   -0.1866    3.2421   -1.0688 C   0  0  0  0  0  0  0  0  0  0  0  0
   -2.5896    1.0605    0.0206 C   0  0  0  0  0  0  0  0  0  0  0  0
   -3.1519    1.9848    1.0582 C   0  0  0  0  0  0  0  0  0  0  0  0
   -3.5134    0.0505   -0.5763 C   0  0  0  0  0  0  0  0  0  0  0  0
   -3.2330   -0.7087   -1.5993 N   0  0  0  0  0  0  0  0  0  0  0  0
   -1.8837   -0.9883   -1.7765 N   0  0  0  0  0  0  0  0  0  0  0  0
   -1.4913   -2.4024   -1.3218 C   0  0  1  0  0  0  0  0  0  0  0  0
   -1.2389   -2.4873    0.2386 C   0  0  0  0  0  0  0  0  0  0  0  0
   -2.3462   -3.3869    0.8182 C   0  0  1  0  0  0  0  0  0  0  0  0
   -3.1040   -3.0069    2.1028 C   0  0  0  0  0  0  0  0  0  0  0  0
   -4.5267   -2.5506    1.6321 C   0  0  2  0  0  0  0  0  0  0  0  0
   -4.7357   -3.4913    0.3784 C   0  0  0  0  0  0  0  0  0  0  0  0
   -3.3949   -3.2798   -0.2583 C   0  0  2  0  0  0  0  0  0  0  0  0
   -2.6527   -3.4752   -1.5529 C   0  0  0  0  0  0  0  0  0  0  0  0
   -4.4387   -1.0597    1.4132 N   0  0  0  0  0  0  0  0  0  0  0  0
   -4.7832   -0.3996    0.2252 C   0  0  0  0  0  0  0  0  0  0  0  0
   -5.9104   -0.2739   -0.2171 O   0  0  0  0  0  0  0  0  0  0  0  0
    5.8732    0.3097    2.4460 H   0  0  0  0  0  0  0  0  0  0  0  0
    4.5868    0.0551    3.6297 H   0  0  0  0  0  0  0  0  0  0  0  0
    4.9320    1.7062    3.0666 H   0  0  0  0  0  0  0  0  0  0  0  0
    5.6978    2.3568    0.8974 H   0  0  0  0  0  0  0  0  0  0  0  0
    6.3017    0.9376   -0.0014 H   0  0  0  0  0  0  0  0  0  0  0  0
    4.6060    3.2616   -1.0346 H   0  0  0  0  0  0  0  0  0  0  0  0
    6.0629    2.5757   -1.7844 H   0  0  0  0  0  0  0  0  0  0  0  0
    3.6742    1.7703   -2.7188 H   0  0  0  0  0  0  0  0  0  0  0  0
    4.8873    0.5286   -2.3452 H   0  0  0  0  0  0  0  0  0  0  0  0
    2.5695    1.4885   -0.5916 H   0  0  0  0  0  0  0  0  0  0  0  0
    3.3736   -1.3628   -0.4548 H   0  0  0  0  0  0  0  0  0  0  0  0
    3.0861   -0.9026   -2.1222 H   0  0  0  0  0  0  0  0  0  0  0  0
    1.0598   -0.3878    0.1077 H   0  0  0  0  0  0  0  0  0  0  0  0
    1.1444   -1.8420   -0.8700 H   0  0  0  0  0  0  0  0  0  0  0  0
    0.6059   -0.7429   -2.8880 H   0  0  0  0  0  0  0  0  0  0  0  0
    1.0093    0.8344   -2.2683 H   0  0  0  0  0  0  0  0  0  0  0  0
   -1.2756    0.7508   -2.6178 H   0  0  0  0  0  0  0  0  0  0  0  0
    0.0593    1.3595    1.7619 H   0  0  0  0  0  0  0  0  0  0  0  0
    1.5769    3.1948    2.3821 H   0  0  0  0  0  0  0  0  0  0  0  0
    1.9859    5.0713    0.8056 H   0  0  0  0  0  0  0  0  0  0  0  0
    0.8545    5.0996   -1.4038 H   0  0  0  0  0  0  0  0  0  0  0  0
   -0.6853    3.2766   -2.0350 H   0  0  0  0  0  0  0  0  0  0  0  0
   -4.1896    2.2469    0.8255 H   0  0  0  0  0  0  0  0  0  0  0  0
   -3.1258    1.5144    2.0457 H   0  0  0  0  0  0  0  0  0  0  0  0
   -2.6085    2.9317    1.1230 H   0  0  0  0  0  0  0  0  0  0  0  0
   -0.6151   -2.6921   -1.9077 H   0  0  0  0  0  0  0  0  0  0  0  0
   -1.2276   -1.5043    0.7154 H   0  0  0  0  0  0  0  0  0  0  0  0
   -0.2714   -2.9603    0.4377 H   0  0  0  0  0  0  0  0  0  0  0  0
   -1.9733   -4.4153    0.9077 H   0  0  0  0  0  0  0  0  0  0  0  0
   -2.5690   -2.2682    2.7077 H   0  0  0  0  0  0  0  0  0  0  0  0
   -3.2192   -3.9082    2.7186 H   0  0  0  0  0  0  0  0  0  0  0  0
   -5.2834   -2.7155    2.4042 H   0  0  0  0  0  0  0  0  0  0  0  0
   -5.5728   -3.1641   -0.2450 H   0  0  0  0  0  0  0  0  0  0  0  0
   -4.8852   -4.5324    0.6817 H   0  0  0  0  0  0  0  0  0  0  0  0
   -3.5764   -2.2503   -0.3888 H   0  0  0  0  0  0  0  0  0  0  0  0
   -3.2487   -3.2573   -2.4436 H   0  0  0  0  0  0  0  0  0  0  0  0
   -2.2382   -4.4859   -1.6276 H   0  0  0  0  0  0  0  0  0  0  0  0
   -3.5440   -0.7284    1.7456 H   0  0  0  0  0  0  0  0  0  0  0  0
  1  2  1  0
  2  3  2  0
  2  4  1  0
  4  5  1  0
  5  6  1  0
  6  7  1  0
  7  8  1  0
  8  9  1  0
  9 10  1  0
 10 11  1  0
 11 12  1  0
 12 13  1  0
 13 14  1  0
 14 15  2  0
 15 16  1  0
 16 17  2  0
 17 18  1  0
 18 19  2  0
 13 20  2  0
 20 21  1  0
 20 22  1  0
 22 23  2  0
 23 24  1  0
 24 25  1  0
 25 26  1  0
 26 27  1  0
 27 28  1  0
 28 29  1  0
 29 30  1  0
 30 31  1  0
 31 32  1  0
 29 33  1  0
 33 34  1  0
 34 35  2  0
  8  4  1  0
 24 12  1  0
 32 25  1  0
 19 14  1  0
 34 22  1  0
 31 27  1  0
  1 36  1  0
  1 37  1  0
  1 38  1  0
  5 39  1  0
  5 40  1  0
  6 41  1  0
  6 42  1  0
  7 43  1  0
  7 44  1  0
  8 45  1  1
  9 46  1  0
  9 47  1  0
 10 48  1  0
 10 49  1  0
 11 50  1  0
 11 51  1  0
 12 52  1  6
 15 53  1  0
 16 54  1  0
 17 55  1  0
 18 56  1  0
 19 57  1  0
 21 58  1  0
 21 59  1  0
 21 60  1  0
 25 61  1  6
 26 62  1  0
 26 63  1  0
 27 64  1  1
 28 65  1  0
 28 66  1  0
 29 67  1  1
 30 68  1  0
 30 69  1  0
 31 70  1  6
 32 71  1  0
 32 72  1  0
 33 73  1  0
M  END
>  <_SMILES>  (58) 
CC(=O)N1CCC[C@H]1CCC[C@@H]1C(c2ccccc2)=C(C)C2=NN1[C@H]1C[C@H]3C[C@H](C[C@@H]3C1)NC2=O

$$$$

     RDKit          3D

 73 78  0  0  0  0  0  0  0  0999 V2000
    6.5362   -1.0291    1.1658 C   0  0  0  0  0  0  0  0  0  0  0  0
    5.3421   -0.2624    1.6757 C   0  0  0  0  0  0  0  0  0  0  0  0
    4.7900   -0.5933    2.7236 O   0  0  0  0  0  0  0  0  0  0  0  0
    4.9268    0.8083    0.9101 N   0  0  0  0  0  0  0  0  0  0  0  0
    5.7008    1.4245   -0.1576 C   0  0  0  0  0  0  0  0  0  0  0  0
    5.2515    2.8759   -0.1566 C   0  0  0  0  0  0  0  0  0  0  0  0
    3.7883    2.7685    0.2415 C   0  0  0  0  0  0  0  0  0  0  0  0
    3.7832    1.6460    1.2902 C   0  0  1  0  0  0  0  0  0  0  0  0
    2.4494    0.8817    1.3198 C   0  0  0  0  0  0  0  0  0  0  0  0
    1.2550    1.7882    1.6332 C   0  0  0  0  0  0  0  0  0  0  0  0
   -0.0443    1.0226    1.9061 C   0  0  0  0  0  0  0  0  0  0  0  0
   -0.5487    0.0710    0.7985 C   0  0  2  0  0  0  0  0  0  0  0  0
   -1.1662    0.7847   -0.4139 C   0  0  0  0  0  0  0  0  0  0  0  0
   -0.2131    1.3046   -1.4172 C   0  0  0  0  0  0  0  0  0  0  0  0
    0.5830    0.4268   -2.1639 C   0  0  0  0  0  0  0  0  0  0  0  0
    1.4726    0.9181   -3.1221 C   0  0  0  0  0  0  0  0  0  0  0  0
    1.5708    2.2902   -3.3463 C   0  0  0  0  0  0  0  0  0  0  0  0
    0.7815    3.1732   -2.6121 C   0  0  0  0  0  0  0  0  0  0  0  0
   -0.1066    2.6832   -1.6526 C   0  0  0  0  0  0  0  0  0  0  0  0
   -2.5024    0.8669   -0.6332 C   0  0  0  0  0  0  0  0  0  0  0  0
   -3.2085    1.4556   -1.8178 C   0  0  0  0  0  0  0  0  0  0  0  0
   -3.3582    0.2349    0.4315 C   0  0  0  0  0  0  0  0  0  0  0  0
   -2.8737   -0.3416    1.5009 N   0  0  0  0  0  0  0  0  0  0  0  0
   -1.5604   -0.8219    1.4088 N   0  0  0  0  0  0  0  0  0  0  0  0
   -1.3975   -2.3572    1.3030 C   0  0  2  0  0  0  0  0  0  0  0  0
   -1.5577   -2.8779   -0.1598 C   0  0  0  0  0  0  0  0  0  0  0  0
   -3.0157   -2.5539   -0.3561 C   0  0  1  0  0  0  0  0  0  0  0  0
   -4.0229   -2.9175   -1.4025 C   0  0  0  0  0  0  0  0  0  0  0  0
   -5.2947   -2.5652   -0.6010 C   0  0  1  0  0  0  0  0  0  0  0  0
   -5.0364   -3.3892    0.6931 C   0  0  0  0  0  0  0  0  0  0  0  0
   -3.7002   -2.7981    1.0236 C   0  0  1  0  0  0  0  0  0  0  0  0
   -2.5710   -3.1591    1.9649 C   0  0  0  0  0  0  0  0  0  0  0  0
   -5.5366   -1.0600   -0.3512 N   0  0  0  0  0  0  0  0  0  0  0  0
   -4.8898    0.0979    0.1501 C   0  0  0  0  0  0  0  0  0  0  0  0
   -5.5745    1.1096    0.3152 O   0  0  0  0  0  0  0  0  0  0  0  0
    7.4542   -0.4908    1.4145 H   0  0  0  0  0  0  0  0  0  0  0  0
    6.4680   -1.1845    0.0858 H   0  0  0  0  0  0  0  0  0  0  0  0
    6.5625   -2.0135    1.6429 H   0  0  0  0  0  0  0  0  0  0  0  0
    5.4293    0.9247   -1.0938 H   0  0  0  0  0  0  0  0  0  0  0  0
    6.7772    1.3281    0.0056 H   0  0  0  0  0  0  0  0  0  0  0  0
    5.8026    3.4422    0.6037 H   0  0  0  0  0  0  0  0  0  0  0  0
    5.3976    3.3636   -1.1241 H   0  0  0  0  0  0  0  0  0  0  0  0
    3.3906    3.7095    0.6329 H   0  0  0  0  0  0  0  0  0  0  0  0
    3.1975    2.4862   -0.6371 H   0  0  0  0  0  0  0  0  0  0  0  0
    4.0014    2.0575    2.2840 H   0  0  0  0  0  0  0  0  0  0  0  0
    2.3034    0.3818    0.3558 H   0  0  0  0  0  0  0  0  0  0  0  0
    2.4936    0.0865    2.0720 H   0  0  0  0  0  0  0  0  0  0  0  0
    1.1020    2.5124    0.8300 H   0  0  0  0  0  0  0  0  0  0  0  0
    1.4863    2.3785    2.5293 H   0  0  0  0  0  0  0  0  0  0  0  0
   -0.8298    1.7507    2.1501 H   0  0  0  0  0  0  0  0  0  0  0  0
    0.1082    0.4386    2.8248 H   0  0  0  0  0  0  0  0  0  0  0  0
    0.2675   -0.5852    0.4803 H   0  0  0  0  0  0  0  0  0  0  0  0
    0.5112   -0.6475   -2.0141 H   0  0  0  0  0  0  0  0  0  0  0  0
    2.0840    0.2282   -3.6981 H   0  0  0  0  0  0  0  0  0  0  0  0
    2.2599    2.6714   -4.0955 H   0  0  0  0  0  0  0  0  0  0  0  0
    0.8549    4.2436   -2.7863 H   0  0  0  0  0  0  0  0  0  0  0  0
   -0.7153    3.3845   -1.0851 H   0  0  0  0  0  0  0  0  0  0  0  0
   -2.5310    1.7773   -2.6123 H   0  0  0  0  0  0  0  0  0  0  0  0
   -3.8800    0.7200   -2.2728 H   0  0  0  0  0  0  0  0  0  0  0  0
   -3.7966    2.3277   -1.5143 H   0  0  0  0  0  0  0  0  0  0  0  0
   -0.4281   -2.6195    1.7364 H   0  0  0  0  0  0  0  0  0  0  0  0
   -0.9069   -2.3597   -0.8688 H   0  0  0  0  0  0  0  0  0  0  0  0
   -1.3679   -3.9545   -0.2281 H   0  0  0  0  0  0  0  0  0  0  0  0
   -2.9236   -1.5223   -0.6279 H   0  0  0  0  0  0  0  0  0  0  0  0
   -3.9811   -3.9822   -1.6552 H   0  0  0  0  0  0  0  0  0  0  0  0
   -3.9307   -2.3279   -2.3202 H   0  0  0  0  0  0  0  0  0  0  0  0
   -6.1891   -2.9280   -1.1179 H   0  0  0  0  0  0  0  0  0  0  0  0
   -5.7950   -3.2084    1.4613 H   0  0  0  0  0  0  0  0  0  0  0  0
   -4.9758   -4.4640    0.4921 H   0  0  0  0  0  0  0  0  0  0  0  0
   -4.1009   -1.9193    1.5155 H   0  0  0  0  0  0  0  0  0  0  0  0
   -2.7573   -2.8394    2.9949 H   0  0  0  0  0  0  0  0  0  0  0  0
   -2.3716   -4.2361    1.9567 H   0  0  0  0  0  0  0  0  0  0  0  0
   -6.5231   -0.8361   -0.4088 H   0  0  0  0  0  0  0  0  0  0  0  0
  1  2  1  0
  2  3  2  0
  2  4  1  0
  4  5  1  0
  5  6  1  0
  6  7  1  0
  7  8  1  0
  8  9  1  0
  9 10  1  0
 10 11  1  0
 11 12  1  0
 12 13  1  0
 13 14  1  0
 14 15  2  0
 15 16  1  0
 16 17  2  0
 17 18  1  0
 18 19  2  0
 13 20  2  0
 20 21  1  0
 20 22  1  0
 22 23  2  0
 23 24  1  0
 24 25  1  0
 25 26  1  0
 26 27  1  0
 27 28  1  0
 28 29  1  0
 29 30  1  0
 30 31  1  0
 31 32  1  0
 29 33  1  0
 33 34  1  0
 34 35  2  0
  8  4  1  0
 24 12  1  0
 32 25  1  0
 19 14  1  0
 34 22  1  0
 31 27  1  0
  1 36  1  0
  1 37  1  0
  1 38  1  0
  5 39  1  0
  5 40  1  0
  6 41  1  0
  6 42  1  0
  7 43  1  0
  7 44  1  0
  8 45  1  1
  9 46  1  0
  9 47  1  0
 10 48  1  0
 10 49  1  0
 11 50  1  0
 11 51  1  0
 12 52  1  6
 15 53  1  0
 16 54  1  0
 17 55  1  0
 18 56  1  0
 19 57  1  0
 21 58  1  0
 21 59  1  0
 21 60  1  0
 25 61  1  1
 26 62  1  0
 26 63  1  0
 27 64  1  6
 28 65  1  0
 28 66  1  0
 29 67  1  6
 30 68  1  0
 30 69  1  0
 31 70  1  1
 32 71  1  0
 32 72  1  0
 33 73  1  0
M  END
>  <_SMILES>  (59) 
CC(=O)N1CCC[C@H]1CCC[C@@H]1C(c2ccccc2)=C(C)C2=NN1[C@@H]1C[C@H]3C[C@@H](C[C@H]3C1)NC2=O

$$$$

     RDKit          3D

 73 78  0  0  0  0  0  0  0  0999 V2000
    4.9324    1.0980   -2.6888 C   0  0  0  0  0  0  0  0  0  0  0  0
    5.9136    0.2275   -1.9484 C   0  0  0  0  0  0  0  0  0  0  0  0
    7.1012    0.2270   -2.2778 O   0  0  0  0  0  0  0  0  0  0  0  0
    5.4419   -0.5429   -0.9071 N   0  0  0  0  0  0  0  0  0  0  0  0
    6.3084   -1.5466   -0.3112 C   0  0  0  0  0  0  0  0  0  0  0  0
    5.3487   -2.6193    0.1710 C   0  0  0  0  0  0  0  0  0  0  0  0
    4.1521   -1.8027    0.6324 C   0  0  0  0  0  0  0  0  0  0  0  0
    4.0677   -0.6586   -0.3948 C   0  0  1  0  0  0  0  0  0  0  0  0
    3.5441    0.6359    0.2495 C   0  0  0  0  0  0  0  0  0  0  0  0
    2.1537    0.5257    0.8886 C   0  0  0  0  0  0  0  0  0  0  0  0
    1.0606    0.1359   -0.1137 C   0  0  0  0  0  0  0  0  0  0  0  0
   -0.3600    0.2096    0.4916 C   0  0  1  0  0  0  0  0  0  0  0  0
   -1.0828    1.5148    0.1633 C   0  0  0  0  0  0  0  0  0  0  0  0
   -0.6082    2.6893    0.9208 C   0  0  0  0  0  0  0  0  0  0  0  0
    0.2457    3.6258    0.3222 C   0  0  0  0  0  0  0  0  0  0  0  0
    0.6953    4.7312    1.0458 C   0  0  0  0  0  0  0  0  0  0  0  0
    0.2917    4.9099    2.3682 C   0  0  0  0  0  0  0  0  0  0  0  0
   -0.5634    3.9864    2.9683 C   0  0  0  0  0  0  0  0  0  0  0  0
   -1.0141    2.8793    2.2473 C   0  0  0  0  0  0  0  0  0  0  0  0
   -2.1231    1.6261   -0.6972 C   0  0  0  0  0  0  0  0  0  0  0  0
   -2.8609    2.8863   -1.0362 C   0  0  0  0  0  0  0  0  0  0  0  0
   -2.5291    0.3421   -1.3630 C   0  0  0  0  0  0  0  0  0  0  0  0
   -1.8720   -0.7814   -1.2060 N   0  0  0  0  0  0  0  0  0  0  0  0
   -1.1328   -0.9425   -0.0058 N   0  0  0  0  0  0  0  0  0  0  0  0
   -1.6533   -1.9953    1.0328 C   0  0  2  0  0  0  0  0  0  0  0  0
   -2.1899   -3.3225    0.3964 C   0  0  0  0  0  0  0  0  0  0  0  0
   -3.4002   -2.7742   -0.3153 C   0  0  1  0  0  0  0  0  0  0  0  0
   -4.6577   -3.3084   -0.9566 C   0  0  0  0  0  0  0  0  0  0  0  0
   -5.3608   -1.9201   -1.2029 C   0  0  1  0  0  0  0  0  0  0  0  0
   -5.3548   -1.4165    0.2744 C   0  0  0  0  0  0  0  0  0  0  0  0
   -3.8845   -1.5751    0.5568 C   0  0  1  0  0  0  0  0  0  0  0  0
   -2.9677   -1.5362    1.7513 C   0  0  0  0  0  0  0  0  0  0  0  0
   -4.5177   -1.0920   -2.2029 N   0  0  0  0  0  0  0  0  0  0  0  0
   -4.0372    0.2131   -1.9642 C   0  0  0  0  0  0  0  0  0  0  0  0
   -4.7704    1.1846   -2.0800 O   0  0  0  0  0  0  0  0  0  0  0  0
    4.8710    2.0745   -2.2029 H   0  0  0  0  0  0  0  0  0  0  0  0
    5.2889    1.2383   -3.7143 H   0  0  0  0  0  0  0  0  0  0  0  0
    3.9434    0.6408   -2.7518 H   0  0  0  0  0  0  0  0  0  0  0  0
    7.0425   -1.9346   -1.0236 H   0  0  0  0  0  0  0  0  0  0  0  0
    6.8349   -1.0760    0.5265 H   0  0  0  0  0  0  0  0  0  0  0  0
    5.0559   -3.2696   -0.6621 H   0  0  0  0  0  0  0  0  0  0  0  0
    5.7733   -3.2415    0.9633 H   0  0  0  0  0  0  0  0  0  0  0  0
    3.2325   -2.3943    0.6725 H   0  0  0  0  0  0  0  0  0  0  0  0
    4.3506   -1.4162    1.6399 H   0  0  0  0  0  0  0  0  0  0  0  0
    3.4380   -0.9599   -1.2392 H   0  0  0  0  0  0  0  0  0  0  0  0
    4.2536    0.9681    1.0190 H   0  0  0  0  0  0  0  0  0  0  0  0
    3.5127    1.4435   -0.4875 H   0  0  0  0  0  0  0  0  0  0  0  0
    2.1720   -0.2016    1.7087 H   0  0  0  0  0  0  0  0  0  0  0  0
    1.9214    1.4917    1.3468 H   0  0  0  0  0  0  0  0  0  0  0  0
    1.2602   -0.8909   -0.4458 H   0  0  0  0  0  0  0  0  0  0  0  0
    1.1299    0.7648   -1.0105 H   0  0  0  0  0  0  0  0  0  0  0  0
   -0.3041    0.0888    1.5806 H   0  0  0  0  0  0  0  0  0  0  0  0
    0.5656    3.4982   -0.7094 H   0  0  0  0  0  0  0  0  0  0  0  0
    1.3581    5.4543    0.5773 H   0  0  0  0  0  0  0  0  0  0  0  0
    0.6402    5.7728    2.9304 H   0  0  0  0  0  0  0  0  0  0  0  0
   -0.8828    4.1313    3.9973 H   0  0  0  0  0  0  0  0  0  0  0  0
   -1.6880    2.1718    2.7247 H   0  0  0  0  0  0  0  0  0  0  0  0
   -2.3444    3.7923   -0.7094 H   0  0  0  0  0  0  0  0  0  0  0  0
   -3.8453    2.8955   -0.5582 H   0  0  0  0  0  0  0  0  0  0  0  0
   -2.9797    2.9833   -2.1204 H   0  0  0  0  0  0  0  0  0  0  0  0
   -0.8398   -2.1964    1.7365 H   0  0  0  0  0  0  0  0  0  0  0  0
   -1.4587   -3.7742   -0.2817 H   0  0  0  0  0  0  0  0  0  0  0  0
   -2.4667   -4.0540    1.1630 H   0  0  0  0  0  0  0  0  0  0  0  0
   -2.8934   -2.5184   -1.2375 H   0  0  0  0  0  0  0  0  0  0  0  0
   -5.2328   -3.9503   -0.2811 H   0  0  0  0  0  0  0  0  0  0  0  0
   -4.4666   -3.8462   -1.8908 H   0  0  0  0  0  0  0  0  0  0  0  0
   -6.3662   -2.0297   -1.6167 H   0  0  0  0  0  0  0  0  0  0  0  0
   -5.7048   -0.3827    0.3603 H   0  0  0  0  0  0  0  0  0  0  0  0
   -5.9667   -2.0515    0.9238 H   0  0  0  0  0  0  0  0  0  0  0  0
   -3.6116   -0.6070    0.1901 H   0  0  0  0  0  0  0  0  0  0  0  0
   -3.2763   -2.2437    2.5279 H   0  0  0  0  0  0  0  0  0  0  0  0
   -2.8728   -0.5386    2.1917 H   0  0  0  0  0  0  0  0  0  0  0  0
   -3.7605   -1.6467   -2.5821 H   0  0  0  0  0  0  0  0  0  0  0  0
  1  2  1  0
  2  3  2  0
  2  4  1  0
  4  5  1  0
  5  6  1  0
  6  7  1  0
  7  8  1  0
  8  9  1  0
  9 10  1  0
 10 11  1  0
 11 12  1  0
 12 13  1  0
 13 14  1  0
 14 15  2  0
 15 16  1  0
 16 17  2  0
 17 18  1  0
 18 19  2  0
 13 20  2  0
 20 21  1  0
 20 22  1  0
 22 23  2  0
 23 24  1  0
 24 25  1  0
 25 26  1  0
 26 27  1  0
 27 28  1  0
 28 29  1  0
 29 30  1  0
 30 31  1  0
 31 32  1  0
 29 33  1  0
 33 34  1  0
 34 35  2  0
  8  4  1  0
 24 12  1  0
 32 25  1  0
 19 14  1  0
 34 22  1  0
 31 27  1  0
  1 36  1  0
  1 37  1  0
  1 38  1  0
  5 39  1  0
  5 40  1  0
  6 41  1  0
  6 42  1  0
  7 43  1  0
  7 44  1  0
  8 45  1  6
  9 46  1  0
  9 47  1  0
 10 48  1  0
 10 49  1  0
 11 50  1  0
 11 51  1  0
 12 52  1  1
 15 53  1  0
 16 54  1  0
 17 55  1  0
 18 56  1  0
 19 57  1  0
 21 58  1  0
 21 59  1  0
 21 60  1  0
 25 61  1  1
 26 62  1  0
 26 63  1  0
 27 64  1  6
 28 65  1  0
 28 66  1  0
 29 67  1  6
 30 68  1  0
 30 69  1  0
 31 70  1  6
 32 71  1  0
 32 72  1  0
 33 73  1  0
M  END
>  <_SMILES>  (60) 
CC(=O)N1CCC[C@H]1CCC[C@H]1C(c2ccccc2)=C(C)C2=NN1[C@@H]1C[C@H]3C[C@@H](C[C@H]3C1)NC2=O

$$$$

     RDKit          3D

 73 78  0  0  0  0  0  0  0  0999 V2000
    6.0993   -1.5807    2.3181 C   0  0  0  0  0  0  0  0  0  0  0  0
    4.7513   -0.9555    2.0626 C   0  0  0  0  0  0  0  0  0  0  0  0
    3.8853   -0.9569    2.9365 O   0  0  0  0  0  0  0  0  0  0  0  0
    4.5602   -0.3899    0.8169 N   0  0  0  0  0  0  0  0  0  0  0  0
    5.6234   -0.0506   -0.1165 C   0  0  0  0  0  0  0  0  0  0  0  0
    5.1065    1.1856   -0.8307 C   0  0  0  0  0  0  0  0  0  0  0  0
    3.6083    0.9304   -0.8976 C   0  0  0  0  0  0  0  0  0  0  0  0
    3.2937    0.2536    0.4437 C   0  0  1  0  0  0  0  0  0  0  0  0
    2.1227   -0.7423    0.3552 C   0  0  0  0  0  0  0  0  0  0  0  0
    0.7459   -0.0863    0.1833 C   0  0  0  0  0  0  0  0  0  0  0  0
    0.3753    0.2034   -1.2793 C   0  0  0  0  0  0  0  0  0  0  0  0
   -1.0935    0.6318   -1.5163 C   0  0  2  0  0  0  0  0  0  0  0  0
   -1.5219    1.7789   -0.5625 C   0  0  0  0  0  0  0  0  0  0  0  0
   -0.8004    3.0576   -0.7640 C   0  0  0  0  0  0  0  0  0  0  0  0
   -0.9504    3.7609   -1.9667 C   0  0  0  0  0  0  0  0  0  0  0  0
   -0.2618    4.9571   -2.1803 C   0  0  0  0  0  0  0  0  0  0  0  0
    0.5818    5.4630   -1.1935 C   0  0  0  0  0  0  0  0  0  0  0  0
    0.7339    4.7771    0.0096 C   0  0  0  0  0  0  0  0  0  0  0  0
    0.0447    3.5817    0.2246 C   0  0  0  0  0  0  0  0  0  0  0  0
   -2.4966    1.6736    0.3744 C   0  0  0  0  0  0  0  0  0  0  0  0
   -2.9996    2.6973    1.3403 C   0  0  0  0  0  0  0  0  0  0  0  0
   -3.2301    0.3986    0.3090 C   0  0  0  0  0  0  0  0  0  0  0  0
   -3.1284   -0.4583   -0.6411 N   0  0  0  0  0  0  0  0  0  0  0  0
   -2.0665   -0.4841   -1.4826 N   0  0  0  0  0  0  0  0  0  0  0  0
   -1.8303   -1.8960   -2.0257 C   0  0  1  0  0  0  0  0  0  0  0  0
   -1.0807   -2.8941   -1.0294 C   0  0  0  0  0  0  0  0  0  0  0  0
   -2.1115   -2.9295    0.0672 C   0  0  2  0  0  0  0  0  0  0  0  0
   -2.4304   -3.4782    1.4333 C   0  0  0  0  0  0  0  0  0  0  0  0
   -3.8005   -2.6861    1.6618 C   0  0  2  0  0  0  0  0  0  0  0  0
   -4.5134   -2.8414    0.2786 C   0  0  0  0  0  0  0  0  0  0  0  0
   -3.3990   -3.2454   -0.7001 C   0  0  1  0  0  0  0  0  0  0  0  0
   -3.2203   -2.6132   -2.0991 C   0  0  0  0  0  0  0  0  0  0  0  0
   -3.5240   -1.2633    2.0916 N   0  0  0  0  0  0  0  0  0  0  0  0
   -4.1074   -0.1527    1.4544 C   0  0  0  0  0  0  0  0  0  0  0  0
   -5.2047    0.3165    1.7006 O   0  0  0  0  0  0  0  0  0  0  0  0
    6.0164   -2.2865    3.1502 H   0  0  0  0  0  0  0  0  0  0  0  0
    6.8217   -0.8044    2.5822 H   0  0  0  0  0  0  0  0  0  0  0  0
    6.4440   -2.1377    1.4428 H   0  0  0  0  0  0  0  0  0  0  0  0
    5.7369   -0.8919   -0.8087 H   0  0  0  0  0  0  0  0  0  0  0  0
    6.5749    0.1354    0.3879 H   0  0  0  0  0  0  0  0  0  0  0  0
    5.3031    2.0805   -0.2279 H   0  0  0  0  0  0  0  0  0  0  0  0
    5.5612    1.3264   -1.8150 H   0  0  0  0  0  0  0  0  0  0  0  0
    3.3943    0.2606   -1.7393 H   0  0  0  0  0  0  0  0  0  0  0  0
    3.0443    1.8566   -1.0397 H   0  0  0  0  0  0  0  0  0  0  0  0
    3.0855    1.0121    1.2093 H   0  0  0  0  0  0  0  0  0  0  0  0
    2.3040   -1.4798   -0.4365 H   0  0  0  0  0  0  0  0  0  0  0  0
    2.0797   -1.3217    1.2848 H   0  0  0  0  0  0  0  0  0  0  0  0
    0.7104    0.8253    0.7855 H   0  0  0  0  0  0  0  0  0  0  0  0
   -0.0027   -0.7539    0.6192 H   0  0  0  0  0  0  0  0  0  0  0  0
    0.6103   -0.6646   -1.9051 H   0  0  0  0  0  0  0  0  0  0  0  0
    1.0183    1.0092   -1.6481 H   0  0  0  0  0  0  0  0  0  0  0  0
   -1.1642    0.9900   -2.5513 H   0  0  0  0  0  0  0  0  0  0  0  0
   -1.6158    3.3903   -2.7438 H   0  0  0  0  0  0  0  0  0  0  0  0
   -0.3896    5.4966   -3.1154 H   0  0  0  0  0  0  0  0  0  0  0  0
    1.1144    6.3961   -1.3592 H   0  0  0  0  0  0  0  0  0  0  0  0
    1.3853    5.1748    0.7837 H   0  0  0  0  0  0  0  0  0  0  0  0
    0.1726    3.0660    1.1732 H   0  0  0  0  0  0  0  0  0  0  0  0
   -2.5758    3.6907    1.1740 H   0  0  0  0  0  0  0  0  0  0  0  0
   -4.0860    2.8064    1.2553 H   0  0  0  0  0  0  0  0  0  0  0  0
   -2.7603    2.3989    2.3661 H   0  0  0  0  0  0  0  0  0  0  0  0
   -1.3489   -1.8162   -3.0039 H   0  0  0  0  0  0  0  0  0  0  0  0
   -0.1109   -2.5261   -0.7001 H   0  0  0  0  0  0  0  0  0  0  0  0
   -0.9377   -3.8762   -1.4944 H   0  0  0  0  0  0  0  0  0  0  0  0
   -1.9666   -1.9070    0.3926 H   0  0  0  0  0  0  0  0  0  0  0  0
   -1.6779   -3.2309    2.1880 H   0  0  0  0  0  0  0  0  0  0  0  0
   -2.5958   -4.5606    1.4212 H   0  0  0  0  0  0  0  0  0  0  0  0
   -4.3803   -3.1396    2.4714 H   0  0  0  0  0  0  0  0  0  0  0  0
   -5.2302   -3.6699    0.3435 H   0  0  0  0  0  0  0  0  0  0  0  0
   -5.0874   -1.9699   -0.0416 H   0  0  0  0  0  0  0  0  0  0  0  0
   -3.4751   -4.3329   -0.8524 H   0  0  0  0  0  0  0  0  0  0  0  0
   -3.1602   -3.4165   -2.8444 H   0  0  0  0  0  0  0  0  0  0  0  0
   -4.0501   -1.9627   -2.3935 H   0  0  0  0  0  0  0  0  0  0  0  0
   -2.5230   -1.1292    2.1401 H   0  0  0  0  0  0  0  0  0  0  0  0
  1  2  1  0
  2  3  2  0
  2  4  1  0
  4  5  1  0
  5  6  1  0
  6  7  1  0
  7  8  1  0
  8  9  1  0
  9 10  1  0
 10 11  1  0
 11 12  1  0
 12 13  1  0
 13 14  1  0
 14 15  2  0
 15 16  1  0
 16 17  2  0
 17 18  1  0
 18 19  2  0
 13 20  2  0
 20 21  1  0
 20 22  1  0
 22 23  2  0
 23 24  1  0
 24 25  1  0
 25 26  1  0
 26 27  1  0
 27 28  1  0
 28 29  1  0
 29 30  1  0
 30 31  1  0
 31 32  1  0
 29 33  1  0
 33 34  1  0
 34 35  2  0
  8  4  1  0
 24 12  1  0
 32 25  1  0
 19 14  1  0
 34 22  1  0
 31 27  1  0
  1 36  1  0
  1 37  1  0
  1 38  1  0
  5 39  1  0
  5 40  1  0
  6 41  1  0
  6 42  1  0
  7 43  1  0
  7 44  1  0
  8 45  1  1
  9 46  1  0
  9 47  1  0
 10 48  1  0
 10 49  1  0
 11 50  1  0
 11 51  1  0
 12 52  1  6
 15 53  1  0
 16 54  1  0
 17 55  1  0
 18 56  1  0
 19 57  1  0
 21 58  1  0
 21 59  1  0
 21 60  1  0
 25 61  1  6
 26 62  1  0
 26 63  1  0
 27 64  1  1
 28 65  1  0
 28 66  1  0
 29 67  1  1
 30 68  1  0
 30 69  1  0
 31 70  1  6
 32 71  1  0
 32 72  1  0
 33 73  1  0
M  END
>  <_SMILES>  (61) 
CC(=O)N1CCC[C@H]1CCC[C@@H]1C(c2ccccc2)=C(C)C2=NN1[C@H]1C[C@@H]3C[C@H](C[C@H]3C1)NC2=O

$$$$

     RDKit          3D

 73 78  0  0  0  0  0  0  0  0999 V2000
    6.7245   -0.9326   -2.4658 C   0  0  0  0  0  0  0  0  0  0  0  0
    5.8284   -0.4555   -1.3510 C   0  0  0  0  0  0  0  0  0  0  0  0
    5.8018   -1.0488   -0.2737 O   0  0  0  0  0  0  0  0  0  0  0  0
    5.0673    0.6658   -1.6115 N   0  0  0  0  0  0  0  0  0  0  0  0
    5.2719    1.5796   -2.7255 C   0  0  0  0  0  0  0  0  0  0  0  0
    4.8055    2.9243   -2.1938 C   0  0  0  0  0  0  0  0  0  0  0  0
    3.6612    2.5376   -1.2698 C   0  0  0  0  0  0  0  0  0  0  0  0
    4.1492    1.2336   -0.6185 C   0  0  1  0  0  0  0  0  0  0  0  0
    2.9844    0.2951   -0.2633 C   0  0  0  0  0  0  0  0  0  0  0  0
    2.0385    0.9030    0.7797 C   0  0  0  0  0  0  0  0  0  0  0  0
    0.9502   -0.0771    1.2519 C   0  0  0  0  0  0  0  0  0  0  0  0
   -0.1027   -0.4260    0.1740 C   0  0  1  0  0  0  0  0  0  0  0  0
   -1.0543   -1.5943    0.4754 C   0  0  0  0  0  0  0  0  0  0  0  0
   -0.5444   -2.6723    1.3393 C   0  0  0  0  0  0  0  0  0  0  0  0
    0.3692   -3.6049    0.8325 C   0  0  0  0  0  0  0  0  0  0  0  0
    0.8578   -4.6251    1.6500 C   0  0  0  0  0  0  0  0  0  0  0  0
    0.4341   -4.7217    2.9748 C   0  0  0  0  0  0  0  0  0  0  0  0
   -0.4791   -3.7998    3.4849 C   0  0  0  0  0  0  0  0  0  0  0  0
   -0.9687   -2.7777    2.6702 C   0  0  0  0  0  0  0  0  0  0  0  0
   -2.2729   -1.7014   -0.1081 C   0  0  0  0  0  0  0  0  0  0  0  0
   -3.2381   -2.8442   -0.0029 C   0  0  0  0  0  0  0  0  0  0  0  0
   -2.6101   -0.5780   -1.0420 C   0  0  0  0  0  0  0  0  0  0  0  0
   -1.8539    0.4654   -1.2501 N   0  0  0  0  0  0  0  0  0  0  0  0
   -0.9155    0.7466   -0.2696 N   0  0  0  0  0  0  0  0  0  0  0  0
   -1.3482    1.8338    0.7131 C   0  0  1  0  0  0  0  0  0  0  0  0
   -2.1932    3.0283    0.0875 C   0  0  0  0  0  0  0  0  0  0  0  0
   -3.5311    2.3510   -0.0135 C   0  0  2  0  0  0  0  0  0  0  0  0
   -4.9372    2.5340   -0.4865 C   0  0  0  0  0  0  0  0  0  0  0  0
   -5.4108    1.0431   -0.2545 C   0  0  2  0  0  0  0  0  0  0  0  0
   -4.7863    0.6339    1.0983 C   0  0  0  0  0  0  0  0  0  0  0  0
   -3.7057    1.6798    1.3386 C   0  0  1  0  0  0  0  0  0  0  0  0
   -2.3082    1.2770    1.7930 C   0  0  0  0  0  0  0  0  0  0  0  0
   -5.0776    0.0864   -1.3579 N   0  0  0  0  0  0  0  0  0  0  0  0
   -3.9532   -0.6198   -1.7875 C   0  0  0  0  0  0  0  0  0  0  0  0
   -4.0347   -1.3346   -2.7842 O   0  0  0  0  0  0  0  0  0  0  0  0
    7.0025   -1.9750   -2.2830 H   0  0  0  0  0  0  0  0  0  0  0  0
    6.2071   -0.8898   -3.4278 H   0  0  0  0  0  0  0  0  0  0  0  0
    7.6319   -0.3242   -2.4958 H   0  0  0  0  0  0  0  0  0  0  0  0
    6.3150    1.6061   -3.0509 H   0  0  0  0  0  0  0  0  0  0  0  0
    4.6416    1.2385   -3.5538 H   0  0  0  0  0  0  0  0  0  0  0  0
    4.5011    3.6102   -2.9889 H   0  0  0  0  0  0  0  0  0  0  0  0
    5.6057    3.3998   -1.6140 H   0  0  0  0  0  0  0  0  0  0  0  0
    3.4396    3.3148   -0.5322 H   0  0  0  0  0  0  0  0  0  0  0  0
    2.7566    2.3667   -1.8667 H   0  0  0  0  0  0  0  0  0  0  0  0
    4.7414    1.4562    0.2783 H   0  0  0  0  0  0  0  0  0  0  0  0
    2.4346    0.0471   -1.1786 H   0  0  0  0  0  0  0  0  0  0  0  0
    3.3716   -0.6531    0.1253 H   0  0  0  0  0  0  0  0  0  0  0  0
    2.6275    1.2005    1.6563 H   0  0  0  0  0  0  0  0  0  0  0  0
    1.5849    1.8158    0.3831 H   0  0  0  0  0  0  0  0  0  0  0  0
    1.4625   -0.9830    1.5954 H   0  0  0  0  0  0  0  0  0  0  0  0
    0.4576    0.3401    2.1381 H   0  0  0  0  0  0  0  0  0  0  0  0
    0.4432   -0.7391   -0.7261 H   0  0  0  0  0  0  0  0  0  0  0  0
    0.7072   -3.5422   -0.1996 H   0  0  0  0  0  0  0  0  0  0  0  0
    1.5709   -5.3433    1.2531 H   0  0  0  0  0  0  0  0  0  0  0  0
    0.8174   -5.5162    3.6102 H   0  0  0  0  0  0  0  0  0  0  0  0
   -0.8082   -3.8765    4.5179 H   0  0  0  0  0  0  0  0  0  0  0  0
   -1.6785   -2.0638    3.0802 H   0  0  0  0  0  0  0  0  0  0  0  0
   -2.9087   -3.6260    0.6863 H   0  0  0  0  0  0  0  0  0  0  0  0
   -4.2155   -2.5028    0.3492 H   0  0  0  0  0  0  0  0  0  0  0  0
   -3.3704   -3.3205   -0.9800 H   0  0  0  0  0  0  0  0  0  0  0  0
   -0.4416    2.2461    1.1614 H   0  0  0  0  0  0  0  0  0  0  0  0
   -1.7915    3.3498   -0.8780 H   0  0  0  0  0  0  0  0  0  0  0  0
   -2.2258    3.8824    0.7723 H   0  0  0  0  0  0  0  0  0  0  0  0
   -3.2956    1.7002   -0.8224 H   0  0  0  0  0  0  0  0  0  0  0  0
   -5.0180    2.8338   -1.5357 H   0  0  0  0  0  0  0  0  0  0  0  0
   -5.4972    3.2337    0.1425 H   0  0  0  0  0  0  0  0  0  0  0  0
   -6.5045    1.0214   -0.1888 H   0  0  0  0  0  0  0  0  0  0  0  0
   -4.4141   -0.3890    1.1186 H   0  0  0  0  0  0  0  0  0  0  0  0
   -5.5398    0.7099    1.8916 H   0  0  0  0  0  0  0  0  0  0  0  0
   -4.0955    2.4125    2.0609 H   0  0  0  0  0  0  0  0  0  0  0  0
   -2.0927    1.7851    2.7420 H   0  0  0  0  0  0  0  0  0  0  0  0
   -2.2163    0.2113    1.9943 H   0  0  0  0  0  0  0  0  0  0  0  0
   -5.8243   -0.0421   -2.0303 H   0  0  0  0  0  0  0  0  0  0  0  0
  1  2  1  0
  2  3  2  0
  2  4  1  0
  4  5  1  0
  5  6  1  0
  6  7  1  0
  7  8  1  0
  8  9  1  0
  9 10  1  0
 10 11  1  0
 11 12  1  0
 12 13  1  0
 13 14  1  0
 14 15  2  0
 15 16  1  0
 16 17  2  0
 17 18  1  0
 18 19  2  0
 13 20  2  0
 20 21  1  0
 20 22  1  0
 22 23  2  0
 23 24  1  0
 24 25  1  0
 25 26  1  0
 26 27  1  0
 27 28  1  0
 28 29  1  0
 29 30  1  0
 30 31  1  0
 31 32  1  0
 29 33  1  0
 33 34  1  0
 34 35  2  0
  8  4  1  0
 24 12  1  0
 32 25  1  0
 19 14  1  0
 34 22  1  0
 31 27  1  0
  1 36  1  0
  1 37  1  0
  1 38  1  0
  5 39  1  0
  5 40  1  0
  6 41  1  0
  6 42  1  0
  7 43  1  0
  7 44  1  0
  8 45  1  1
  9 46  1  0
  9 47  1  0
 10 48  1  0
 10 49  1  0
 11 50  1  0
 11 51  1  0
 12 52  1  6
 15 53  1  0
 16 54  1  0
 17 55  1  0
 18 56  1  0
 19 57  1  0
 21 58  1  0
 21 59  1  0
 21 60  1  0
 25 61  1  1
 26 62  1  0
 26 63  1  0
 27 64  1  6
 28 65  1  0
 28 66  1  0
 29 67  1  1
 30 68  1  0
 30 69  1  0
 31 70  1  1
 32 71  1  0
 32 72  1  0
 33 73  1  0
M  END
>  <_SMILES>  (62) 
CC(=O)N1CCC[C@H]1CCC[C@H]1C(c2ccccc2)=C(C)C2=NN1[C@H]1C[C@@H]3C[C@H](C[C@H]3C1)NC2=O

$$$$

     RDKit          3D

 73 78  0  0  0  0  0  0  0  0999 V2000
    5.3222   -0.4420    1.8653 C   0  0  0  0  0  0  0  0  0  0  0  0
    6.0785   -0.3028    0.5691 C   0  0  0  0  0  0  0  0  0  0  0  0
    7.2931   -0.5030    0.5323 O   0  0  0  0  0  0  0  0  0  0  0  0
    5.3594    0.0502   -0.5523 N   0  0  0  0  0  0  0  0  0  0  0  0
    6.0525    0.3044   -1.8050 C   0  0  0  0  0  0  0  0  0  0  0  0
    4.9538    0.6019   -2.8113 C   0  0  0  0  0  0  0  0  0  0  0  0
    3.8493    1.1934   -1.9434 C   0  0  0  0  0  0  0  0  0  0  0  0
    3.9298    0.3699   -0.6494 C   0  0  1  0  0  0  0  0  0  0  0  0
    3.0740   -0.9108   -0.7019 C   0  0  0  0  0  0  0  0  0  0  0  0
    1.5597   -0.6704   -0.6337 C   0  0  0  0  0  0  0  0  0  0  0  0
    1.0958   -0.1718    0.7425 C   0  0  0  0  0  0  0  0  0  0  0  0
   -0.4225    0.0883    0.8591 C   0  0  1  0  0  0  0  0  0  0  0  0
   -0.9489    1.1524   -0.1030 C   0  0  0  0  0  0  0  0  0  0  0  0
   -0.4843    2.5251    0.1781 C   0  0  0  0  0  0  0  0  0  0  0  0
   -0.9848    3.2288    1.2802 C   0  0  0  0  0  0  0  0  0  0  0  0
   -0.5329    4.5210    1.5544 C   0  0  0  0  0  0  0  0  0  0  0  0
    0.4194    5.1179    0.7295 C   0  0  0  0  0  0  0  0  0  0  0  0
    0.9189    4.4268   -0.3730 C   0  0  0  0  0  0  0  0  0  0  0  0
    0.4678    3.1354   -0.6497 C   0  0  0  0  0  0  0  0  0  0  0  0
   -1.8184    0.8978   -1.1067 C   0  0  0  0  0  0  0  0  0  0  0  0
   -2.4304    1.8808   -2.0537 C   0  0  0  0  0  0  0  0  0  0  0  0
   -2.1734   -0.5384   -1.2253 C   0  0  0  0  0  0  0  0  0  0  0  0
   -1.7434   -1.4998   -0.4661 N   0  0  0  0  0  0  0  0  0  0  0  0
   -1.1664   -1.1779    0.7062 N   0  0  0  0  0  0  0  0  0  0  0  0
   -1.8690   -1.7676    1.8699 C   0  0  1  0  0  0  0  0  0  0  0  0
   -3.0942   -0.9490    2.3060 C   0  0  0  0  0  0  0  0  0  0  0  0
   -4.3443   -1.6479    1.7673 C   0  0  1  0  0  0  0  0  0  0  0  0
   -4.9032   -1.1539    0.4232 C   0  0  0  0  0  0  0  0  0  0  0  0
   -4.8468   -2.3174   -0.5898 C   0  0  2  0  0  0  0  0  0  0  0  0
   -4.6990   -3.5602    0.3059 C   0  0  0  0  0  0  0  0  0  0  0  0
   -3.9706   -3.1122    1.5843 C   0  0  1  0  0  0  0  0  0  0  0  0
   -2.4306   -3.1896    1.6099 C   0  0  0  0  0  0  0  0  0  0  0  0
   -3.7723   -2.2771   -1.5817 N   0  0  0  0  0  0  0  0  0  0  0  0
   -3.3641   -1.0388   -2.0817 C   0  0  0  0  0  0  0  0  0  0  0  0
   -3.9125   -0.3906   -2.9497 O   0  0  0  0  0  0  0  0  0  0  0  0
    6.0386   -0.5115    2.6901 H   0  0  0  0  0  0  0  0  0  0  0  0
    4.7221   -1.3537    1.8562 H   0  0  0  0  0  0  0  0  0  0  0  0
    4.6924    0.4303    2.0513 H   0  0  0  0  0  0  0  0  0  0  0  0
    6.7063    1.1721   -1.6611 H   0  0  0  0  0  0  0  0  0  0  0  0
    6.6657   -0.5564   -2.0890 H   0  0  0  0  0  0  0  0  0  0  0  0
    5.2832    1.2807   -3.6029 H   0  0  0  0  0  0  0  0  0  0  0  0
    4.6081   -0.3258   -3.2817 H   0  0  0  0  0  0  0  0  0  0  0  0
    4.0871    2.2424   -1.7246 H   0  0  0  0  0  0  0  0  0  0  0  0
    2.8748    1.1699   -2.4360 H   0  0  0  0  0  0  0  0  0  0  0  0
    3.6470    0.9882    0.2059 H   0  0  0  0  0  0  0  0  0  0  0  0
    3.2945   -1.4611   -1.6255 H   0  0  0  0  0  0  0  0  0  0  0  0
    3.3537   -1.5888    0.1114 H   0  0  0  0  0  0  0  0  0  0  0  0
    1.2545    0.0247   -1.4208 H   0  0  0  0  0  0  0  0  0  0  0  0
    1.0649   -1.6241   -0.8525 H   0  0  0  0  0  0  0  0  0  0  0  0
    1.6289    0.7482    1.0049 H   0  0  0  0  0  0  0  0  0  0  0  0
    1.3823   -0.9167    1.4967 H   0  0  0  0  0  0  0  0  0  0  0  0
   -0.6111    0.4308    1.8852 H   0  0  0  0  0  0  0  0  0  0  0  0
   -1.7343    2.7806    1.9284 H   0  0  0  0  0  0  0  0  0  0  0  0
   -0.9266    5.0641    2.4100 H   0  0  0  0  0  0  0  0  0  0  0  0
    0.7686    6.1252    0.9433 H   0  0  0  0  0  0  0  0  0  0  0  0
    1.6566    4.8955   -1.0194 H   0  0  0  0  0  0  0  0  0  0  0  0
    0.8613    2.6103   -1.5165 H   0  0  0  0  0  0  0  0  0  0  0  0
   -2.2018    1.6081   -3.0890 H   0  0  0  0  0  0  0  0  0  0  0  0
   -2.0703    2.9026   -1.9086 H   0  0  0  0  0  0  0  0  0  0  0  0
   -3.5168    1.9134   -1.9225 H   0  0  0  0  0  0  0  0  0  0  0  0
   -1.1239   -1.8068    2.6734 H   0  0  0  0  0  0  0  0  0  0  0  0
   -3.0508    0.1053    2.0171 H   0  0  0  0  0  0  0  0  0  0  0  0
   -3.1399   -0.9754    3.4029 H   0  0  0  0  0  0  0  0  0  0  0  0
   -5.1439   -1.5496    2.5133 H   0  0  0  0  0  0  0  0  0  0  0  0
   -4.4464   -0.2207    0.0896 H   0  0  0  0  0  0  0  0  0  0  0  0
   -5.9634   -0.9119    0.5825 H   0  0  0  0  0  0  0  0  0  0  0  0
   -5.7752   -2.3595   -1.1704 H   0  0  0  0  0  0  0  0  0  0  0  0
   -4.1985   -4.3997   -0.1876 H   0  0  0  0  0  0  0  0  0  0  0  0
   -5.7045   -3.8995    0.5877 H   0  0  0  0  0  0  0  0  0  0  0  0
   -4.3457   -3.7101    2.4251 H   0  0  0  0  0  0  0  0  0  0  0  0
   -2.0139   -3.6779    0.7234 H   0  0  0  0  0  0  0  0  0  0  0  0
   -2.1430   -3.8251    2.4582 H   0  0  0  0  0  0  0  0  0  0  0  0
   -2.9430   -2.6912   -1.1544 H   0  0  0  0  0  0  0  0  0  0  0  0
  1  2  1  0
  2  3  2  0
  2  4  1  0
  4  5  1  0
  5  6  1  0
  6  7  1  0
  7  8  1  0
  8  9  1  0
  9 10  1  0
 10 11  1  0
 11 12  1  0
 12 13  1  0
 13 14  1  0
 14 15  2  0
 15 16  1  0
 16 17  2  0
 17 18  1  0
 18 19  2  0
 13 20  2  0
 20 21  1  0
 20 22  1  0
 22 23  2  0
 23 24  1  0
 24 25  1  0
 25 26  1  0
 26 27  1  0
 27 28  1  0
 28 29  1  0
 29 30  1  0
 30 31  1  0
 31 32  1  0
 29 33  1  0
 33 34  1  0
 34 35  2  0
  8  4  1  0
 24 12  1  0
 32 25  1  0
 19 14  1  0
 34 22  1  0
 31 27  1  0
  1 36  1  0
  1 37  1  0
  1 38  1  0
  5 39  1  0
  5 40  1  0
  6 41  1  0
  6 42  1  0
  7 43  1  0
  7 44  1  0
  8 45  1  1
  9 46  1  0
  9 47  1  0
 10 48  1  0
 10 49  1  0
 11 50  1  0
 11 51  1  0
 12 52  1  1
 15 53  1  0
 16 54  1  0
 17 55  1  0
 18 56  1  0
 19 57  1  0
 21 58  1  0
 21 59  1  0
 21 60  1  0
 25 61  1  1
 26 62  1  0
 26 63  1  0
 27 64  1  1
 28 65  1  0
 28 66  1  0
 29 67  1  6
 30 68  1  0
 30 69  1  0
 31 70  1  1
 32 71  1  0
 32 72  1  0
 33 73  1  0
M  END
>  <_SMILES>  (63) 
CC(=O)N1CCC[C@H]1CCC[C@H]1C(c2ccccc2)=C(C)C2=NN1[C@H]1C[C@H]3C[C@H](C[C@H]3C1)NC2=O

$$$$

     RDKit          3D

 66 71  0  0  0  0  0  0  0  0999 V2000
    7.5817    3.6997    0.5382 C   0  0  0  0  0  0  0  0  0  0  0  0
    6.8753    2.9801   -0.4620 O   0  0  0  0  0  0  0  0  0  0  0  0
    6.1372    1.9063   -0.0428 C   0  0  0  0  0  0  0  0  0  0  0  0
    6.0203    1.4552    1.2723 C   0  0  0  0  0  0  0  0  0  0  0  0
    5.2284    0.3388    1.5671 C   0  0  0  0  0  0  0  0  0  0  0  0
    4.5359   -0.3387    0.5543 C   0  0  0  0  0  0  0  0  0  0  0  0
    3.6713   -1.5433    0.8689 C   0  0  0  0  0  0  0  0  0  0  0  0
    2.2031   -1.2846    0.7130 C   0  0  0  0  0  0  0  0  0  0  0  0
    1.3748   -0.3534    1.3313 C   0  0  0  0  0  0  0  0  0  0  0  0
    1.7475    0.6749    2.3338 C   0  0  0  0  0  0  0  0  0  0  0  0
    0.0833   -0.5795    0.7737 C   0  0  0  0  0  0  0  0  0  0  0  0
   -1.1736    0.1570    1.0146 C   0  0  0  0  0  0  0  0  0  0  0  0
   -1.2690    1.1045    1.7889 O   0  0  0  0  0  0  0  0  0  0  0  0
   -2.2167   -0.3347    0.2572 N   0  0  0  0  0  0  0  0  0  0  0  0
   -3.5437    0.2505    0.1271 C   0  0  2  0  0  0  0  0  0  0  0  0
   -4.2801    0.3171    1.4886 C   0  0  0  0  0  0  0  0  0  0  0  0
   -5.6950    0.8964    1.3116 C   0  0  1  0  0  0  0  0  0  0  0  0
   -5.5914    2.3087    0.7110 C   0  0  0  0  0  0  0  0  0  0  0  0
   -4.8926    2.2517   -0.6580 C   0  0  2  0  0  0  0  0  0  0  0  0
   -5.6986    1.3440   -1.6008 C   0  0  0  0  0  0  0  0  0  0  0  0
   -5.7990   -0.0710   -1.0092 C   0  0  2  0  0  0  0  0  0  0  0  0
   -6.4970   -0.0029    0.3579 C   0  0  0  0  0  0  0  0  0  0  0  0
   -4.3840   -0.6419   -0.8246 C   0  0  0  0  0  0  0  0  0  0  0  0
   -3.4778    1.6727   -0.4813 C   0  0  0  0  0  0  0  0  0  0  0  0
    0.0929   -1.6287   -0.0668 N   0  0  0  0  0  0  0  0  0  0  0  0
    1.3883   -1.9993   -0.1389 N   0  0  0  0  0  0  0  0  0  0  0  0
    1.7704   -3.2244   -0.8909 C   0  0  0  0  0  0  0  0  0  0  0  0
    2.4321   -2.9348   -2.1803 C   0  0  0  0  0  0  0  0  0  0  0  0
    1.7016   -2.7195   -3.1990 O   0  0  0  0  0  0  0  0  0  0  0  0
    3.7055   -2.9419   -2.2008 O   0  0  0  0  0  0  0  0  0  0  0  0
    0.8669   -4.4641   -0.8552 C   0  0  0  0  0  0  0  0  0  0  0  0
    2.1801   -4.4981   -0.1449 C   0  0  0  0  0  0  0  0  0  0  0  0
    4.6671    0.1138   -0.7638 C   0  0  0  0  0  0  0  0  0  0  0  0
    5.4592    1.2273   -1.0563 C   0  0  0  0  0  0  0  0  0  0  0  0
    8.1142    4.5198    0.0469 H   0  0  0  0  0  0  0  0  0  0  0  0
    8.3282    3.0662    1.0287 H   0  0  0  0  0  0  0  0  0  0  0  0
    6.8948    4.1405    1.2684 H   0  0  0  0  0  0  0  0  0  0  0  0
    6.5311    1.9452    2.0928 H   0  0  0  0  0  0  0  0  0  0  0  0
    5.1522    0.0010    2.5974 H   0  0  0  0  0  0  0  0  0  0  0  0
    4.0248   -2.3823    0.2649 H   0  0  0  0  0  0  0  0  0  0  0  0
    3.8463   -1.8537    1.9080 H   0  0  0  0  0  0  0  0  0  0  0  0
    1.9970    1.6180    1.8379 H   0  0  0  0  0  0  0  0  0  0  0  0
    0.9329    0.8588    3.0402 H   0  0  0  0  0  0  0  0  0  0  0  0
    2.6080    0.3551    2.9284 H   0  0  0  0  0  0  0  0  0  0  0  0
   -1.9106   -1.0545   -0.4009 H   0  0  0  0  0  0  0  0  0  0  0  0
   -4.3393   -0.6843    1.9349 H   0  0  0  0  0  0  0  0  0  0  0  0
   -3.7292    0.9392    2.2034 H   0  0  0  0  0  0  0  0  0  0  0  0
   -6.1980    0.9443    2.2839 H   0  0  0  0  0  0  0  0  0  0  0  0
   -6.5930    2.7426    0.6016 H   0  0  0  0  0  0  0  0  0  0  0  0
   -5.0328    2.9647    1.3899 H   0  0  0  0  0  0  0  0  0  0  0  0
   -4.8280    3.2599   -1.0823 H   0  0  0  0  0  0  0  0  0  0  0  0
   -6.7027    1.7587   -1.7526 H   0  0  0  0  0  0  0  0  0  0  0  0
   -5.2179    1.3055   -2.5860 H   0  0  0  0  0  0  0  0  0  0  0  0
   -6.3726   -0.7146   -1.6855 H   0  0  0  0  0  0  0  0  0  0  0  0
   -6.5906   -1.0101    0.7821 H   0  0  0  0  0  0  0  0  0  0  0  0
   -7.5148    0.3889    0.2402 H   0  0  0  0  0  0  0  0  0  0  0  0
   -4.4452   -1.6641   -0.4276 H   0  0  0  0  0  0  0  0  0  0  0  0
   -3.8888   -0.7228   -1.8016 H   0  0  0  0  0  0  0  0  0  0  0  0
   -2.8916    2.3429    0.1592 H   0  0  0  0  0  0  0  0  0  0  0  0
   -2.9621    1.6455   -1.4503 H   0  0  0  0  0  0  0  0  0  0  0  0
    0.7612   -5.0217   -1.7797 H   0  0  0  0  0  0  0  0  0  0  0  0
   -0.0406   -4.4093   -0.2670 H   0  0  0  0  0  0  0  0  0  0  0  0
    2.9835   -5.0855   -0.5769 H   0  0  0  0  0  0  0  0  0  0  0  0
    2.1741   -4.4794    0.9373 H   0  0  0  0  0  0  0  0  0  0  0  0
    4.1595   -0.4091   -1.5755 H   0  0  0  0  0  0  0  0  0  0  0  0
    5.5460    1.5570   -2.0882 H   0  0  0  0  0  0  0  0  0  0  0  0
  1  2  1  0
  2  3  1  0
  3  4  1  0
  4  5  2  0
  5  6  1  0
  6  7  1  0
  7  8  1  0
  8  9  2  0
  9 10  1  0
  9 11  1  0
 11 12  1  0
 12 13  2  0
 12 14  1  0
 15 14  1  1
 15 16  1  0
 16 17  1  0
 17 18  1  0
 18 19  1  0
 19 20  1  0
 20 21  1  0
 21 22  1  0
 21 23  1  0
 19 24  1  0
 11 25  2  0
 25 26  1  0
 26 27  1  0
 27 28  1  0
 28 29  2  0
 28 30  1  0
 27 31  1  0
 31 32  1  0
  6 33  2  0
 33 34  1  0
 34  3  2  0
 26  8  1  0
 32 27  1  0
 23 15  1  0
 24 15  1  0
 22 17  1  0
  1 35  1  0
  1 36  1  0
  1 37  1  0
  4 38  1  0
  5 39  1  0
  7 40  1  0
  7 41  1  0
 10 42  1  0
 10 43  1  0
 10 44  1  0
 14 45  1  0
 16 46  1  0
 16 47  1  0
 17 48  1  1
 18 49  1  0
 18 50  1  0
 19 51  1  6
 20 52  1  0
 20 53  1  0
 21 54  1  6
 22 55  1  0
 22 56  1  0
 23 57  1  0
 23 58  1  0
 24 59  1  0
 24 60  1  0
 31 61  1  0
 31 62  1  0
 32 63  1  0
 32 64  1  0
 33 65  1  0
 34 66  1  0
M  CHG  1  30  -1
M  END
>  <_SMILES>  (64) 
COc1ccc(Cc2c(C)c(C(=O)N[C@]34C[C@H]5C[C@H](C[C@H](C5)C3)C4)nn2C2(C(=O)[O-])CC2)cc1

$$$$

     RDKit          3D

 53 55  0  0  0  0  0  0  0  0999 V2000
    1.6718   -3.2209    1.7084 C   0  0  0  0  0  0  0  0  0  0  0  0
    0.8642   -2.0432    1.6955 O   0  0  0  0  0  0  0  0  0  0  0  0
    0.2590   -1.7925    0.4911 C   0  0  0  0  0  0  0  0  0  0  0  0
    0.4064   -2.5074   -0.4930 O   0  0  0  0  0  0  0  0  0  0  0  0
   -0.5947   -0.5007    0.5680 C   0  0  2  0  0  0  0  0  0  0  0  0
    0.2816    0.6905    1.0767 C   0  0  0  0  0  0  0  0  0  0  0  0
    1.6887    0.8373    0.4753 C   0  0  0  0  0  0  0  0  0  0  0  0
    2.3683    2.1148    0.9784 C   0  0  0  0  0  0  0  0  0  0  0  0
    3.7637    2.2744    0.3781 C   0  0  0  0  0  0  0  0  0  0  0  0
    4.4468    3.5414    0.8758 C   0  0  0  0  0  0  0  0  0  0  0  0
    5.7314    3.6651    0.2803 O   0  0  0  0  0  0  0  0  0  0  0  0
   -1.6973   -0.7429    1.6751 C   0  0  0  0  0  0  0  0  0  0  0  0
   -2.8944   -1.4787    1.1732 C   0  0  0  0  0  0  0  0  0  0  0  0
   -3.2418   -1.4863   -0.1154 C   0  0  0  0  0  0  0  0  0  0  0  0
   -2.4990   -0.7559   -1.0971 C   0  0  0  0  0  0  0  0  0  0  0  0
   -1.2731   -0.2693   -0.8085 C   0  0  0  0  0  0  0  0  0  0  0  0
   -0.6058    0.4882   -1.8774 C   0  0  0  0  0  0  0  0  0  0  0  0
    0.1989   -0.1664   -2.8179 C   0  0  0  0  0  0  0  0  0  0  0  0
    0.8152    0.5549   -3.8422 C   0  0  0  0  0  0  0  0  0  0  0  0
    0.6210    1.9319   -3.9412 C   0  0  0  0  0  0  0  0  0  0  0  0
   -0.1961    2.5885   -3.0222 C   0  0  0  0  0  0  0  0  0  0  0  0
   -0.8139    1.8687   -1.9979 C   0  0  0  0  0  0  0  0  0  0  0  0
   -4.5073   -2.2326   -0.3564 C   0  0  0  0  0  0  0  0  0  0  0  0
   -4.7097   -2.9628    0.9772 C   0  0  0  0  0  0  0  0  0  0  0  0
   -3.8670   -2.2199    2.0214 C   0  0  0  0  0  0  0  0  0  0  0  0
    2.0970   -3.3281    2.7101 H   0  0  0  0  0  0  0  0  0  0  0  0
    1.0640   -4.1055    1.4942 H   0  0  0  0  0  0  0  0  0  0  0  0
    2.4939   -3.1294    0.9917 H   0  0  0  0  0  0  0  0  0  0  0  0
    0.4135    0.5931    2.1640 H   0  0  0  0  0  0  0  0  0  0  0  0
   -0.2749    1.6265    0.9353 H   0  0  0  0  0  0  0  0  0  0  0  0
    2.3073   -0.0232    0.7537 H   0  0  0  0  0  0  0  0  0  0  0  0
    1.6598    0.8636   -0.6142 H   0  0  0  0  0  0  0  0  0  0  0  0
    2.4389    2.0875    2.0725 H   0  0  0  0  0  0  0  0  0  0  0  0
    1.7554    2.9851    0.7139 H   0  0  0  0  0  0  0  0  0  0  0  0
    4.3842    1.4041    0.6255 H   0  0  0  0  0  0  0  0  0  0  0  0
    3.7059    2.3001   -0.7173 H   0  0  0  0  0  0  0  0  0  0  0  0
    4.5694    3.5262    1.9635 H   0  0  0  0  0  0  0  0  0  0  0  0
    3.8649    4.4289    0.6085 H   0  0  0  0  0  0  0  0  0  0  0  0
    6.2396    2.8689    0.5109 H   0  0  0  0  0  0  0  0  0  0  0  0
   -1.2789   -1.2889    2.5288 H   0  0  0  0  0  0  0  0  0  0  0  0
   -2.0477    0.2214    2.0683 H   0  0  0  0  0  0  0  0  0  0  0  0
   -2.9618   -0.6030   -2.0691 H   0  0  0  0  0  0  0  0  0  0  0  0
    0.3519   -1.2422   -2.7565 H   0  0  0  0  0  0  0  0  0  0  0  0
    1.4443    0.0395   -4.5632 H   0  0  0  0  0  0  0  0  0  0  0  0
    1.1014    2.4918   -4.7394 H   0  0  0  0  0  0  0  0  0  0  0  0
   -0.3558    3.6602   -3.1056 H   0  0  0  0  0  0  0  0  0  0  0  0
   -1.4575    2.3898   -1.2932 H   0  0  0  0  0  0  0  0  0  0  0  0
   -5.3329   -1.5418   -0.5585 H   0  0  0  0  0  0  0  0  0  0  0  0
   -4.4252   -2.9442   -1.1836 H   0  0  0  0  0  0  0  0  0  0  0  0
   -4.3537   -3.9976    0.8869 H   0  0  0  0  0  0  0  0  0  0  0  0
   -5.7659   -3.0108    1.2620 H   0  0  0  0  0  0  0  0  0  0  0  0
   -3.3763   -2.9241    2.6996 H   0  0  0  0  0  0  0  0  0  0  0  0
   -4.4777   -1.5239    2.6056 H   0  0  0  0  0  0  0  0  0  0  0  0
  1  2  1  0
  2  3  1  0
  3  4  2  0
  3  5  1  0
  5  6  1  1
  6  7  1  0
  7  8  1  0
  8  9  1  0
  9 10  1  0
 10 11  1  0
  5 12  1  0
 12 13  1  0
 13 14  2  0
 14 15  1  0
 15 16  2  0
 16 17  1  0
 17 18  2  0
 18 19  1  0
 19 20  2  0
 20 21  1  0
 21 22  2  0
 14 23  1  0
 23 24  1  0
 24 25  1  0
 16  5  1  0
 22 17  1  0
 25 13  1  0
  1 26  1  0
  1 27  1  0
  1 28  1  0
  6 29  1  0
  6 30  1  0
  7 31  1  0
  7 32  1  0
  8 33  1  0
  8 34  1  0
  9 35  1  0
  9 36  1  0
 10 37  1  0
 10 38  1  0
 11 39  1  0
 12 40  1  0
 12 41  1  0
 15 42  1  0
 18 43  1  0
 19 44  1  0
 20 45  1  0
 21 46  1  0
 22 47  1  0
 23 48  1  0
 23 49  1  0
 24 50  1  0
 24 51  1  0
 25 52  1  0
 25 53  1  0
M  END
>  <_SMILES>  (65) 
COC(=O)[C@]1(CCCCCO)CC2=C(C=C1c1ccccc1)CCC2

$$$$

     RDKit          3D

 53 55  0  0  0  0  0  0  0  0999 V2000
   -0.3837    1.1951    3.3422 C   0  0  0  0  0  0  0  0  0  0  0  0
   -0.0362    0.7405    2.0342 O   0  0  0  0  0  0  0  0  0  0  0  0
   -1.0007   -0.0104    1.4229 C   0  0  0  0  0  0  0  0  0  0  0  0
   -2.0783   -0.2712    1.9480 O   0  0  0  0  0  0  0  0  0  0  0  0
   -0.5805   -0.4415   -0.0037 C   0  0  1  0  0  0  0  0  0  0  0  0
    0.9735   -0.5486   -0.1400 C   0  0  0  0  0  0  0  0  0  0  0  0
    1.6374   -1.6176    0.7467 C   0  0  0  0  0  0  0  0  0  0  0  0
    3.1645   -1.6457    0.6083 C   0  0  0  0  0  0  0  0  0  0  0  0
    3.8506   -0.4138    1.2089 C   0  0  0  0  0  0  0  0  0  0  0  0
    5.3708   -0.5368    1.1841 C   0  0  0  0  0  0  0  0  0  0  0  0
    5.8487   -0.6238   -0.1511 O   0  0  0  0  0  0  0  0  0  0  0  0
   -1.1957   -1.8675   -0.2633 C   0  0  0  0  0  0  0  0  0  0  0  0
   -2.5536   -1.8460   -0.8843 C   0  0  0  0  0  0  0  0  0  0  0  0
   -3.0598   -0.7761   -1.5015 C   0  0  0  0  0  0  0  0  0  0  0  0
   -2.3267    0.4460   -1.6303 C   0  0  0  0  0  0  0  0  0  0  0  0
   -1.1750    0.6288   -0.9538 C   0  0  0  0  0  0  0  0  0  0  0  0
   -0.4904    1.9208   -1.1334 C   0  0  0  0  0  0  0  0  0  0  0  0
    0.3962    2.1048   -2.2024 C   0  0  0  0  0  0  0  0  0  0  0  0
    1.0342    3.3328   -2.3863 C   0  0  0  0  0  0  0  0  0  0  0  0
    0.7818    4.3876   -1.5106 C   0  0  0  0  0  0  0  0  0  0  0  0
   -0.1130    4.2183   -0.4550 C   0  0  0  0  0  0  0  0  0  0  0  0
   -0.7521    2.9909   -0.2698 C   0  0  0  0  0  0  0  0  0  0  0  0
   -4.4102   -1.0392   -2.0722 C   0  0  0  0  0  0  0  0  0  0  0  0
   -4.7868   -2.3711   -1.4130 C   0  0  0  0  0  0  0  0  0  0  0  0
   -3.4789   -3.0117   -0.9340 C   0  0  0  0  0  0  0  0  0  0  0  0
   -0.5517    0.3454    4.0112 H   0  0  0  0  0  0  0  0  0  0  0  0
    0.4544    1.7803    3.7302 H   0  0  0  0  0  0  0  0  0  0  0  0
   -1.2668    1.8403    3.3020 H   0  0  0  0  0  0  0  0  0  0  0  0
    1.2239   -0.7689   -1.1869 H   0  0  0  0  0  0  0  0  0  0  0  0
    1.4319    0.4211    0.0821 H   0  0  0  0  0  0  0  0  0  0  0  0
    1.3733   -1.4682    1.7992 H   0  0  0  0  0  0  0  0  0  0  0  0
    1.2652   -2.6097    0.4682 H   0  0  0  0  0  0  0  0  0  0  0  0
    3.5357   -2.5417    1.1215 H   0  0  0  0  0  0  0  0  0  0  0  0
    3.4349   -1.7524   -0.4489 H   0  0  0  0  0  0  0  0  0  0  0  0
    3.5200   -0.2736    2.2443 H   0  0  0  0  0  0  0  0  0  0  0  0
    3.5618    0.4784    0.6430 H   0  0  0  0  0  0  0  0  0  0  0  0
    5.7003   -1.4296    1.7246 H   0  0  0  0  0  0  0  0  0  0  0  0
    5.8329    0.3351    1.6579 H   0  0  0  0  0  0  0  0  0  0  0  0
    5.5578    0.1785   -0.6175 H   0  0  0  0  0  0  0  0  0  0  0  0
   -1.2385   -2.4351    0.6750 H   0  0  0  0  0  0  0  0  0  0  0  0
   -0.5526   -2.4361   -0.9480 H   0  0  0  0  0  0  0  0  0  0  0  0
   -2.7357    1.2132   -2.2830 H   0  0  0  0  0  0  0  0  0  0  0  0
    0.5938    1.2914   -2.8967 H   0  0  0  0  0  0  0  0  0  0  0  0
    1.7234    3.4673   -3.2158 H   0  0  0  0  0  0  0  0  0  0  0  0
    1.2760    5.3448   -1.6557 H   0  0  0  0  0  0  0  0  0  0  0  0
   -0.3190    5.0438    0.2213 H   0  0  0  0  0  0  0  0  0  0  0  0
   -1.4594    2.8777    0.5484 H   0  0  0  0  0  0  0  0  0  0  0  0
   -4.3577   -1.1378   -3.1618 H   0  0  0  0  0  0  0  0  0  0  0  0
   -5.1342   -0.2590   -1.8182 H   0  0  0  0  0  0  0  0  0  0  0  0
   -5.4407   -2.1826   -0.5512 H   0  0  0  0  0  0  0  0  0  0  0  0
   -5.3377   -3.0257   -2.0963 H   0  0  0  0  0  0  0  0  0  0  0  0
   -3.1169   -3.7606   -1.6459 H   0  0  0  0  0  0  0  0  0  0  0  0
   -3.6104   -3.4811    0.0453 H   0  0  0  0  0  0  0  0  0  0  0  0
  1  2  1  0
  2  3  1  0
  3  4  2  0
  3  5  1  0
  5  6  1  1
  6  7  1  0
  7  8  1  0
  8  9  1  0
  9 10  1  0
 10 11  1  0
  5 12  1  0
 12 13  1  0
 13 14  2  0
 14 15  1  0
 15 16  2  0
 16 17  1  0
 17 18  2  0
 18 19  1  0
 19 20  2  0
 20 21  1  0
 21 22  2  0
 14 23  1  0
 23 24  1  0
 24 25  1  0
 16  5  1  0
 22 17  1  0
 25 13  1  0
  1 26  1  0
  1 27  1  0
  1 28  1  0
  6 29  1  0
  6 30  1  0
  7 31  1  0
  7 32  1  0
  8 33  1  0
  8 34  1  0
  9 35  1  0
  9 36  1  0
 10 37  1  0
 10 38  1  0
 11 39  1  0
 12 40  1  0
 12 41  1  0
 15 42  1  0
 18 43  1  0
 19 44  1  0
 20 45  1  0
 21 46  1  0
 22 47  1  0
 23 48  1  0
 23 49  1  0
 24 50  1  0
 24 51  1  0
 25 52  1  0
 25 53  1  0
M  END
>  <_SMILES>  (66) 
COC(=O)[C@@]1(CCCCCO)CC2=C(C=C1c1ccccc1)CCC2

$$$$

     RDKit          3D

 37 39  0  0  0  0  0  0  0  0999 V2000
   -4.4253    0.1150    3.9563 C   0  0  0  0  0  0  0  0  0  0  0  0
   -3.4489    0.1914    2.8447 C   0  0  0  0  0  0  0  0  0  0  0  0
   -2.2215    0.8873    2.8080 C   0  0  0  0  0  0  0  0  0  0  0  0
   -1.6961    0.6365    1.5570 C   0  0  0  0  0  0  0  0  0  0  0  0
   -0.4236    1.0999    0.9179 C   0  0  0  0  0  0  0  0  0  0  0  0
    0.4574    0.0157    0.4344 N   0  0  0  0  0  0  0  0  0  0  0  0
    0.9212   -0.7992    1.4449 N   0  0  0  0  0  0  0  0  0  0  0  0
    1.2143   -2.0200    1.1319 C   0  0  0  0  0  0  0  0  0  0  0  0
    1.1380   -2.6846   -0.1889 C   0  0  0  0  0  0  0  0  0  0  0  0
    1.4819   -2.0581   -1.3213 C   0  0  0  0  0  0  0  0  0  0  0  0
    1.9374   -0.6587   -1.4018 C   0  0  0  0  0  0  0  0  0  0  0  0
    2.8658   -0.3397   -2.4072 C   0  0  0  0  0  0  0  0  0  0  0  0
    3.3114    0.9779   -2.5555 C   0  0  0  0  0  0  0  0  0  0  0  0
    4.2890    1.3029   -3.6014 N   0  0  0  0  0  0  0  0  0  0  0  0
    4.6635    2.4804   -3.6944 O   0  0  0  0  0  0  0  0  0  0  0  0
    4.6788    0.3812   -4.3322 O   0  0  0  0  0  0  0  0  0  0  0  0
    2.8339    1.9858   -1.7156 C   0  0  0  0  0  0  0  0  0  0  0  0
    1.8978    1.6710   -0.7251 C   0  0  0  0  0  0  0  0  0  0  0  0
    1.4244    0.3558   -0.5512 C   0  0  0  0  0  0  0  0  0  0  0  0
   -2.6023   -0.1832    0.9380 N   0  0  0  0  0  0  0  0  0  0  0  0
   -2.5163   -0.7660   -0.3805 C   0  0  0  0  0  0  0  0  0  0  0  0
   -3.6851   -0.4502    1.6955 N   0  0  0  0  0  0  0  0  0  0  0  0
   -5.3949    0.5165    3.6444 H   0  0  0  0  0  0  0  0  0  0  0  0
   -4.5655   -0.9232    4.2740 H   0  0  0  0  0  0  0  0  0  0  0  0
   -4.0834    0.6907    4.8224 H   0  0  0  0  0  0  0  0  0  0  0  0
   -1.7760    1.4859    3.5899 H   0  0  0  0  0  0  0  0  0  0  0  0
    0.1263    1.7252    1.6343 H   0  0  0  0  0  0  0  0  0  0  0  0
   -0.7153    1.7490    0.0807 H   0  0  0  0  0  0  0  0  0  0  0  0
    1.5450   -2.6833    1.9488 H   0  0  0  0  0  0  0  0  0  0  0  0
    0.8381   -3.7253   -0.1840 H   0  0  0  0  0  0  0  0  0  0  0  0
    1.4455   -2.6097   -2.2572 H   0  0  0  0  0  0  0  0  0  0  0  0
    3.2422   -1.1243   -3.0615 H   0  0  0  0  0  0  0  0  0  0  0  0
    3.1780    3.0139   -1.8104 H   0  0  0  0  0  0  0  0  0  0  0  0
    1.5658    2.4747   -0.0731 H   0  0  0  0  0  0  0  0  0  0  0  0
   -3.5248   -0.9872   -0.7407 H   0  0  0  0  0  0  0  0  0  0  0  0
   -1.9345   -1.6874   -0.3084 H   0  0  0  0  0  0  0  0  0  0  0  0
   -2.0420   -0.0569   -1.0622 H   0  0  0  0  0  0  0  0  0  0  0  0
  1  2  1  0
  2  3  1  0
  3  4  2  0
  4  5  1  0
  5  6  1  0
  6  7  1  0
  7  8  2  0
  8  9  1  0
  9 10  2  0
 10 11  1  0
 11 12  1  0
 12 13  2  0
 13 14  1  0
 14 15  2  0
 14 16  1  0
 13 17  1  0
 17 18  2  0
 18 19  1  0
  4 20  1  0
 20 21  1  0
 20 22  1  0
 22  2  2  0
 19  6  1  0
 19 11  2  0
  1 23  1  0
  1 24  1  0
  1 25  1  0
  3 26  1  0
  5 27  1  0
  5 28  1  0
  8 29  1  0
  9 30  1  0
 10 31  1  0
 12 32  1  0
 17 33  1  0
 18 34  1  0
 21 35  1  0
 21 36  1  0
 21 37  1  0
M  CHG  2  14   1  16  -1
M  END
>  <_SMILES>  (67) 
Cc1cc(CN2N=CC=Cc3cc([N+](=O)[O-])ccc32)n(C)n1

$$$$

     RDKit          3D

 62 65  0  0  0  0  0  0  0  0999 V2000
    0.7690   -3.3040   -0.6866 C   0  0  0  0  0  0  0  0  0  0  0  0
    1.5322   -2.0182   -0.9676 C   0  0  0  0  0  0  0  0  0  0  0  0
    1.8627   -1.2653    0.2825 C   0  0  0  0  0  0  0  0  0  0  0  0
    3.1211   -1.2161    0.9394 C   0  0  0  0  0  0  0  0  0  0  0  0
    4.4120   -1.8580    0.5447 C   0  0  0  0  0  0  0  0  0  0  0  0
    5.2078   -0.9960   -0.4388 C   0  0  0  0  0  0  0  0  0  0  0  0
    6.5090   -1.6628   -0.8675 C   0  0  0  0  0  0  0  0  0  0  0  0
    7.4773   -1.6322    0.1705 O   0  0  0  0  0  0  0  0  0  0  0  0
    3.0673   -0.4925    2.0573 N   0  0  0  0  0  0  0  0  0  0  0  0
    1.7787   -0.1007    2.1554 N   0  0  0  0  0  0  0  0  0  0  0  0
    1.4232    0.7218    3.3113 C   0  0  0  0  0  0  0  0  0  0  0  0
    0.6884   -0.0761    4.3863 C   0  0  0  0  0  0  0  0  0  0  0  0
    0.7077    2.0250    2.9542 C   0  0  0  0  0  0  0  0  0  0  0  0
    1.0123   -0.5071    1.0873 C   0  0  0  0  0  0  0  0  0  0  0  0
   -0.3913   -0.2194    0.9121 C   0  0  0  0  0  0  0  0  0  0  0  0
   -1.2247   -0.3744    1.7947 O   0  0  0  0  0  0  0  0  0  0  0  0
   -0.6913    0.2804   -0.3352 N   0  0  0  0  0  0  0  0  0  0  0  0
   -2.0179    0.7211   -0.7717 C   0  0  2  0  0  0  0  0  0  0  0  0
   -3.0577   -0.4260   -0.7053 C   0  0  0  0  0  0  0  0  0  0  0  0
   -4.4268    0.0540   -1.2188 C   0  0  1  0  0  0  0  0  0  0  0  0
   -4.9032    1.2371   -0.3586 C   0  0  0  0  0  0  0  0  0  0  0  0
   -3.8960    2.3964   -0.4474 C   0  0  2  0  0  0  0  0  0  0  0  0
   -3.7617    2.8396   -1.9129 C   0  0  0  0  0  0  0  0  0  0  0  0
   -3.2779    1.6630   -2.7750 C   0  0  2  0  0  0  0  0  0  0  0  0
   -4.2902    0.5113   -2.6793 C   0  0  0  0  0  0  0  0  0  0  0  0
   -1.9158    1.1812   -2.2513 C   0  0  0  0  0  0  0  0  0  0  0  0
   -2.5268    1.9187    0.0675 C   0  0  0  0  0  0  0  0  0  0  0  0
    1.3433   -3.9689   -0.0325 H   0  0  0  0  0  0  0  0  0  0  0  0
    0.5676   -3.8368   -1.6213 H   0  0  0  0  0  0  0  0  0  0  0  0
   -0.1908   -3.1006   -0.2002 H   0  0  0  0  0  0  0  0  0  0  0  0
    2.4526   -2.2668   -1.5083 H   0  0  0  0  0  0  0  0  0  0  0  0
    0.9501   -1.3899   -1.6493 H   0  0  0  0  0  0  0  0  0  0  0  0
    5.0084   -2.0497    1.4451 H   0  0  0  0  0  0  0  0  0  0  0  0
    4.2078   -2.8395    0.0996 H   0  0  0  0  0  0  0  0  0  0  0  0
    5.4259   -0.0242    0.0214 H   0  0  0  0  0  0  0  0  0  0  0  0
    4.5980   -0.8056   -1.3303 H   0  0  0  0  0  0  0  0  0  0  0  0
    6.3507   -2.7013   -1.1756 H   0  0  0  0  0  0  0  0  0  0  0  0
    6.9336   -1.1226   -1.7196 H   0  0  0  0  0  0  0  0  0  0  0  0
    7.1257   -2.1114    0.9392 H   0  0  0  0  0  0  0  0  0  0  0  0
    2.3851    1.0237    3.7511 H   0  0  0  0  0  0  0  0  0  0  0  0
   -0.3071   -0.3902    4.0645 H   0  0  0  0  0  0  0  0  0  0  0  0
    1.2486   -0.9791    4.6533 H   0  0  0  0  0  0  0  0  0  0  0  0
    0.5682    0.5243    5.2945 H   0  0  0  0  0  0  0  0  0  0  0  0
    0.6894    2.6955    3.8205 H   0  0  0  0  0  0  0  0  0  0  0  0
   -0.3303    1.8648    2.6529 H   0  0  0  0  0  0  0  0  0  0  0  0
    1.2209    2.5454    2.1383 H   0  0  0  0  0  0  0  0  0  0  0  0
    0.0992    0.5353   -0.9126 H   0  0  0  0  0  0  0  0  0  0  0  0
   -2.7135   -1.2819   -1.3006 H   0  0  0  0  0  0  0  0  0  0  0  0
   -3.1742   -0.7939    0.3205 H   0  0  0  0  0  0  0  0  0  0  0  0
   -5.1521   -0.7649   -1.1550 H   0  0  0  0  0  0  0  0  0  0  0  0
   -5.8904    1.5730   -0.6994 H   0  0  0  0  0  0  0  0  0  0  0  0
   -5.0180    0.9195    0.6850 H   0  0  0  0  0  0  0  0  0  0  0  0
   -4.2459    3.2373    0.1618 H   0  0  0  0  0  0  0  0  0  0  0  0
   -3.0554    3.6755   -1.9885 H   0  0  0  0  0  0  0  0  0  0  0  0
   -4.7273    3.2042   -2.2842 H   0  0  0  0  0  0  0  0  0  0  0  0
   -3.1810    1.9843   -3.8181 H   0  0  0  0  0  0  0  0  0  0  0  0
   -3.9644   -0.3279   -3.3061 H   0  0  0  0  0  0  0  0  0  0  0  0
   -5.2651    0.8359   -3.0634 H   0  0  0  0  0  0  0  0  0  0  0  0
   -1.5475    0.3576   -2.8777 H   0  0  0  0  0  0  0  0  0  0  0  0
   -1.1783    1.9898   -2.3451 H   0  0  0  0  0  0  0  0  0  0  0  0
   -1.8031    2.7434    0.0260 H   0  0  0  0  0  0  0  0  0  0  0  0
   -2.6183    1.6447    1.1252 H   0  0  0  0  0  0  0  0  0  0  0  0
  1  2  1  0
  2  3  1  0
  3  4  1  0
  4  5  1  0
  5  6  1  0
  6  7  1  0
  7  8  1  0
  4  9  2  0
  9 10  1  0
 10 11  1  0
 11 12  1  0
 11 13  1  0
 10 14  1  0
 14 15  1  0
 15 16  2  0
 15 17  1  0
 18 17  1  1
 18 19  1  0
 19 20  1  0
 20 21  1  0
 21 22  1  0
 22 23  1  0
 23 24  1  0
 24 25  1  0
 24 26  1  0
 22 27  1  0
 14  3  2  0
 26 18  1  0
 27 18  1  0
 25 20  1  0
  1 28  1  0
  1 29  1  0
  1 30  1  0
  2 31  1  0
  2 32  1  0
  5 33  1  0
  5 34  1  0
  6 35  1  0
  6 36  1  0
  7 37  1  0
  7 38  1  0
  8 39  1  0
 11 40  1  0
 12 41  1  0
 12 42  1  0
 12 43  1  0
 13 44  1  0
 13 45  1  0
 13 46  1  0
 17 47  1  0
 19 48  1  0
 19 49  1  0
 20 50  1  6
 21 51  1  0
 21 52  1  0
 22 53  1  1
 23 54  1  0
 23 55  1  0
 24 56  1  6
 25 57  1  0
 25 58  1  0
 26 59  1  0
 26 60  1  0
 27 61  1  0
 27 62  1  0
M  END
>  <_SMILES>  (68) 
CCc1c(CCCO)nn(C(C)C)c1C(=O)N[C@]12C[C@H]3C[C@H](C[C@H](C3)C1)C2

$$$$

     RDKit          3D

 77 81  0  0  0  0  0  0  0  0999 V2000
    5.0131    0.2287   -2.7867 C   0  0  0  0  0  0  0  0  0  0  0  0
    4.7273   -1.0273   -2.1821 O   0  0  0  0  0  0  0  0  0  0  0  0
    5.5081   -1.2541   -1.0042 C   0  0  1  0  0  0  0  0  0  0  0  0
    4.9891   -0.4814    0.2236 C   0  0  1  0  0  0  0  0  0  0  0  0
    3.5317   -0.4735    0.2668 N   0  0  0  0  0  0  0  0  0  0  0  0
    2.8173    0.2235    1.2178 C   0  0  0  0  0  0  0  0  0  0  0  0
    3.3636    0.8137    2.1462 O   0  0  0  0  0  0  0  0  0  0  0  0
    1.3554    0.1705    1.0302 C   0  0  0  0  0  0  0  0  0  0  0  0
    0.5467   -0.0765    2.0607 N   0  0  0  0  0  0  0  0  0  0  0  0
   -0.6999   -0.0559    1.5597 N   0  0  0  0  0  0  0  0  0  0  0  0
   -1.7483   -0.1755    2.5601 C   0  0  0  0  0  0  0  0  0  0  0  0
   -2.3453    1.1788    2.9408 C   0  0  0  0  0  0  0  0  0  0  0  0
   -3.5477    1.0074    3.8687 C   0  0  0  0  0  0  0  0  0  0  0  0
   -4.1660    2.3362    4.3160 C   0  0  0  0  0  0  0  0  0  0  0  0
   -4.6963    3.2063    3.1812 C   0  0  0  0  0  0  0  0  0  0  0  0
   -5.5986    2.4631    2.3745 O   0  0  0  0  0  0  0  0  0  0  0  0
   -0.7463    0.1201    0.1831 C   0  0  0  0  0  0  0  0  0  0  0  0
   -1.9974    0.1281   -0.7299 C   0  0  2  0  0  0  0  0  0  0  0  0
   -1.7218   -0.7216   -2.0141 C   0  0  0  0  0  0  0  0  0  0  0  0
   -2.8986   -0.6657   -3.0023 C   0  0  1  0  0  0  0  0  0  0  0  0
   -4.1463   -1.2493   -2.3331 C   0  0  0  0  0  0  0  0  0  0  0  0
   -4.4819   -0.4320   -1.0825 C   0  0  2  0  0  0  0  0  0  0  0  0
   -4.7556    1.0265   -1.4794 C   0  0  0  0  0  0  0  0  0  0  0  0
   -3.5092    1.6251   -2.1465 C   0  0  2  0  0  0  0  0  0  0  0  0
   -3.1585    0.7981   -3.3938 C   0  0  0  0  0  0  0  0  0  0  0  0
   -2.3297    1.5863   -1.1570 C   0  0  0  0  0  0  0  0  0  0  0  0
   -3.2898   -0.4695   -0.1070 C   0  0  0  0  0  0  0  0  0  0  0  0
    0.5964    0.3499   -0.1672 C   0  0  0  0  0  0  0  0  0  0  0  0
    1.1843    0.7244   -1.4853 C   0  0  0  0  0  0  0  0  0  0  0  0
    5.6356   -1.2607    1.3795 C   0  0  2  0  0  0  0  0  0  0  0  0
    6.9975   -0.8465    1.5227 O   0  0  0  0  0  0  0  0  0  0  0  0
    5.6179   -2.7299    0.9443 C   0  0  0  0  0  0  0  0  0  0  0  0
    5.3731   -2.7233   -0.5743 C   0  0  2  0  0  0  0  0  0  0  0  0
    6.3212   -3.6422   -1.3335 C   0  0  0  0  0  0  0  0  0  0  0  0
    4.7651    1.0533   -2.1127 H   0  0  0  0  0  0  0  0  0  0  0  0
    6.0660    0.2826   -3.0793 H   0  0  0  0  0  0  0  0  0  0  0  0
    4.3976    0.3218   -3.6856 H   0  0  0  0  0  0  0  0  0  0  0  0
    6.5629   -1.0152   -1.1972 H   0  0  0  0  0  0  0  0  0  0  0  0
    5.3255    0.5613    0.1998 H   0  0  0  0  0  0  0  0  0  0  0  0
    3.0376   -0.9576   -0.4730 H   0  0  0  0  0  0  0  0  0  0  0  0
   -2.4839   -0.9031    2.2197 H   0  0  0  0  0  0  0  0  0  0  0  0
   -1.2993   -0.6304    3.4539 H   0  0  0  0  0  0  0  0  0  0  0  0
   -1.5802    1.7913    3.4342 H   0  0  0  0  0  0  0  0  0  0  0  0
   -2.6409    1.7237    2.0398 H   0  0  0  0  0  0  0  0  0  0  0  0
   -4.3106    0.3939    3.3742 H   0  0  0  0  0  0  0  0  0  0  0  0
   -3.2363    0.4540    4.7635 H   0  0  0  0  0  0  0  0  0  0  0  0
   -4.9988    2.0988    4.9898 H   0  0  0  0  0  0  0  0  0  0  0  0
   -3.4355    2.9087    4.8992 H   0  0  0  0  0  0  0  0  0  0  0  0
   -3.8836    3.5775    2.5499 H   0  0  0  0  0  0  0  0  0  0  0  0
   -5.2289    4.0694    3.5936 H   0  0  0  0  0  0  0  0  0  0  0  0
   -5.9501    3.0748    1.7049 H   0  0  0  0  0  0  0  0  0  0  0  0
   -0.8369   -0.3728   -2.5504 H   0  0  0  0  0  0  0  0  0  0  0  0
   -1.5170   -1.7644   -1.7358 H   0  0  0  0  0  0  0  0  0  0  0  0
   -2.6553   -1.2487   -3.8978 H   0  0  0  0  0  0  0  0  0  0  0  0
   -4.9915   -1.2350   -3.0320 H   0  0  0  0  0  0  0  0  0  0  0  0
   -3.9739   -2.2983   -2.0627 H   0  0  0  0  0  0  0  0  0  0  0  0
   -5.3691   -0.8522   -0.5953 H   0  0  0  0  0  0  0  0  0  0  0  0
   -5.6099    1.0752   -2.1657 H   0  0  0  0  0  0  0  0  0  0  0  0
   -5.0260    1.6138   -0.5932 H   0  0  0  0  0  0  0  0  0  0  0  0
   -3.7098    2.6627   -2.4365 H   0  0  0  0  0  0  0  0  0  0  0  0
   -3.9798    0.8499   -4.1192 H   0  0  0  0  0  0  0  0  0  0  0  0
   -2.2728    1.2185   -3.8858 H   0  0  0  0  0  0  0  0  0  0  0  0
   -2.5719    2.1927   -0.2749 H   0  0  0  0  0  0  0  0  0  0  0  0
   -1.4652    2.0702   -1.6234 H   0  0  0  0  0  0  0  0  0  0  0  0
   -3.1170   -1.5059    0.2093 H   0  0  0  0  0  0  0  0  0  0  0  0
   -3.6005    0.1033    0.7693 H   0  0  0  0  0  0  0  0  0  0  0  0
    0.5079    1.3398   -2.0809 H   0  0  0  0  0  0  0  0  0  0  0  0
    1.4403   -0.1725   -2.0579 H   0  0  0  0  0  0  0  0  0  0  0  0
    2.0967    1.3157   -1.3549 H   0  0  0  0  0  0  0  0  0  0  0  0
    5.1340   -1.1123    2.3403 H   0  0  0  0  0  0  0  0  0  0  0  0
    7.2996   -1.1716    2.3896 H   0  0  0  0  0  0  0  0  0  0  0  0
    6.5453   -3.2466    1.2147 H   0  0  0  0  0  0  0  0  0  0  0  0
    4.7874   -3.2547    1.4310 H   0  0  0  0  0  0  0  0  0  0  0  0
    4.3508   -3.0731   -0.7733 H   0  0  0  0  0  0  0  0  0  0  0  0
    6.1194   -3.6052   -2.4090 H   0  0  0  0  0  0  0  0  0  0  0  0
    6.2011   -4.6788   -1.0018 H   0  0  0  0  0  0  0  0  0  0  0  0
    7.3665   -3.3560   -1.1753 H   0  0  0  0  0  0  0  0  0  0  0  0
  1  2  1  0
  2  3  1  0
  3  4  1  0
  4  5  1  0
  5  6  1  0
  6  7  2  0
  6  8  1  0
  8  9  2  0
  9 10  1  0
 10 11  1  0
 11 12  1  0
 12 13  1  0
 13 14  1  0
 14 15  1  0
 15 16  1  0
 10 17  1  0
 18 17  1  1
 18 19  1  0
 19 20  1  0
 20 21  1  0
 21 22  1  0
 22 23  1  0
 23 24  1  0
 24 25  1  0
 24 26  1  0
 22 27  1  0
 17 28  2  0
 28 29  1  0
  4 30  1  0
 30 31  1  0
 30 32  1  0
 32 33  1  0
 33 34  1  0
 33  3  1  0
 28  8  1  0
 26 18  1  0
 27 18  1  0
 25 20  1  0
  1 35  1  0
  1 36  1  0
  1 37  1  0
  3 38  1  6
  4 39  1  6
  5 40  1  0
 11 41  1  0
 11 42  1  0
 12 43  1  0
 12 44  1  0
 13 45  1  0
 13 46  1  0
 14 47  1  0
 14 48  1  0
 15 49  1  0
 15 50  1  0
 16 51  1  0
 19 52  1  0
 19 53  1  0
 20 54  1  6
 21 55  1  0
 21 56  1  0
 22 57  1  1
 23 58  1  0
 23 59  1  0
 24 60  1  6
 25 61  1  0
 25 62  1  0
 26 63  1  0
 26 64  1  0
 27 65  1  0
 27 66  1  0
 29 67  1  0
 29 68  1  0
 29 69  1  0
 30 70  1  1
 31 71  1  0
 32 72  1  0
 32 73  1  0
 33 74  1  1
 34 75  1  0
 34 76  1  0
 34 77  1  0
M  END
>  <_SMILES>  (69) 
CO[C@H]1[C@@H](NC(=O)c2nn(CCCCCO)c([C@]34C[C@H]5C[C@H](C[C@H](C5)C3)C4)c2C)[C@H](O)C[C@@H]1C

$$$$

     RDKit          3D

 59 63  0  0  0  0  0  0  0  0999 V2000
   -1.6912    2.9325    0.3224 C   0  0  0  0  0  0  0  0  0  0  0  0
   -1.7837    1.4796    0.0209 C   0  0  0  0  0  0  0  0  0  0  0  0
   -0.7071    0.5487    0.0008 C   0  0  0  0  0  0  0  0  0  0  0  0
    0.7228    0.8060    0.2695 C   0  0  0  0  0  0  0  0  0  0  0  0
    1.1617    1.9147    0.5556 O   0  0  0  0  0  0  0  0  0  0  0  0
    1.4924   -0.3322    0.1616 N   0  0  0  0  0  0  0  0  0  0  0  0
    2.9340   -0.4242    0.3630 C   0  0  2  0  0  0  0  0  0  0  0  0
    3.7084    0.4619   -0.6439 C   0  0  0  0  0  0  0  0  0  0  0  0
    5.2265    0.3102   -0.4423 C   0  0  1  0  0  0  0  0  0  0  0  0
    5.5900    0.7225    0.9944 C   0  0  0  0  0  0  0  0  0  0  0  0
    4.8538   -0.1738    2.0047 C   0  0  2  0  0  0  0  0  0  0  0  0
    5.2538   -1.6387    1.7684 C   0  0  0  0  0  0  0  0  0  0  0  0
    4.8854   -2.0589    0.3369 C   0  0  2  0  0  0  0  0  0  0  0  0
    5.6244   -1.1575   -0.6645 C   0  0  0  0  0  0  0  0  0  0  0  0
    3.3699   -1.8966    0.1382 C   0  0  0  0  0  0  0  0  0  0  0  0
    3.3355   -0.0222    1.8037 C   0  0  0  0  0  0  0  0  0  0  0  0
   -1.1416   -0.6878   -0.3099 N   0  0  0  0  0  0  0  0  0  0  0  0
   -2.4756   -0.5513   -0.4861 N   0  0  0  0  0  0  0  0  0  0  0  0
   -3.2223   -1.7588   -0.8387 C   0  0  0  0  0  0  0  0  0  0  0  0
   -4.2286   -2.1787    0.2308 C   0  0  0  0  0  0  0  0  0  0  0  0
   -3.8543   -1.6924   -2.2275 C   0  0  0  0  0  0  0  0  0  0  0  0
   -2.9153    0.7403   -0.2976 C   0  0  0  0  0  0  0  0  0  0  0  0
   -4.2932    1.2013   -0.4163 C   0  0  0  0  0  0  0  0  0  0  0  0
   -4.7712    1.6889   -1.6378 C   0  0  0  0  0  0  0  0  0  0  0  0
   -6.0813    2.1592   -1.7438 C   0  0  0  0  0  0  0  0  0  0  0  0
   -6.9151    2.1585   -0.6264 C   0  0  0  0  0  0  0  0  0  0  0  0
   -6.4382    1.6957    0.5993 C   0  0  0  0  0  0  0  0  0  0  0  0
   -5.1282    1.2252    0.7063 C   0  0  0  0  0  0  0  0  0  0  0  0
   -1.0303    3.4296   -0.3949 H   0  0  0  0  0  0  0  0  0  0  0  0
   -1.2930    3.0884    1.3302 H   0  0  0  0  0  0  0  0  0  0  0  0
   -2.6667    3.4253    0.2713 H   0  0  0  0  0  0  0  0  0  0  0  0
    0.9564   -1.1623   -0.0842 H   0  0  0  0  0  0  0  0  0  0  0  0
    3.4357    1.5174   -0.5261 H   0  0  0  0  0  0  0  0  0  0  0  0
    3.4390    0.1883   -1.6725 H   0  0  0  0  0  0  0  0  0  0  0  0
    5.7588    0.9490   -1.1559 H   0  0  0  0  0  0  0  0  0  0  0  0
    6.6737    0.6417    1.1435 H   0  0  0  0  0  0  0  0  0  0  0  0
    5.3232    1.7733    1.1616 H   0  0  0  0  0  0  0  0  0  0  0  0
    5.1219    0.1220    3.0251 H   0  0  0  0  0  0  0  0  0  0  0  0
    4.7459   -2.2876    2.4924 H   0  0  0  0  0  0  0  0  0  0  0  0
    6.3315   -1.7637    1.9301 H   0  0  0  0  0  0  0  0  0  0  0  0
    5.1702   -3.1043    0.1735 H   0  0  0  0  0  0  0  0  0  0  0  0
    6.7085   -1.2742   -0.5447 H   0  0  0  0  0  0  0  0  0  0  0  0
    5.3831   -1.4601   -1.6909 H   0  0  0  0  0  0  0  0  0  0  0  0
    3.0925   -2.2220   -0.8735 H   0  0  0  0  0  0  0  0  0  0  0  0
    2.8330   -2.5591    0.8303 H   0  0  0  0  0  0  0  0  0  0  0  0
    2.7985   -0.6434    2.5326 H   0  0  0  0  0  0  0  0  0  0  0  0
    3.0487    1.0148    2.0147 H   0  0  0  0  0  0  0  0  0  0  0  0
   -2.4682   -2.5581   -0.8820 H   0  0  0  0  0  0  0  0  0  0  0  0
   -3.7780   -2.1574    1.2288 H   0  0  0  0  0  0  0  0  0  0  0  0
   -5.1102   -1.5329    0.2422 H   0  0  0  0  0  0  0  0  0  0  0  0
   -4.5797   -3.1991    0.0416 H   0  0  0  0  0  0  0  0  0  0  0  0
   -4.1864   -2.6882   -2.5412 H   0  0  0  0  0  0  0  0  0  0  0  0
   -4.7308   -1.0400   -2.2499 H   0  0  0  0  0  0  0  0  0  0  0  0
   -3.1384   -1.3265   -2.9714 H   0  0  0  0  0  0  0  0  0  0  0  0
   -4.1239    1.7073   -2.5116 H   0  0  0  0  0  0  0  0  0  0  0  0
   -6.4483    2.5328   -2.6963 H   0  0  0  0  0  0  0  0  0  0  0  0
   -7.9340    2.5287   -0.7083 H   0  0  0  0  0  0  0  0  0  0  0  0
   -7.0836    1.7079    1.4739 H   0  0  0  0  0  0  0  0  0  0  0  0
   -4.7609    0.8800    1.6701 H   0  0  0  0  0  0  0  0  0  0  0  0
  1  2  1  0
  2  3  1  0
  3  4  1  0
  4  5  2  0
  4  6  1  0
  7  6  1  1
  7  8  1  0
  8  9  1  0
  9 10  1  0
 10 11  1  0
 11 12  1  0
 12 13  1  0
 13 14  1  0
 13 15  1  0
 11 16  1  0
  3 17  2  0
 17 18  1  0
 18 19  1  0
 19 20  1  0
 19 21  1  0
 18 22  1  0
 22 23  1  0
 23 24  2  0
 24 25  1  0
 25 26  2  0
 26 27  1  0
 27 28  2  0
 22  2  2  0
 28 23  1  0
 15  7  1  0
 16  7  1  0
 14  9  1  0
  1 29  1  0
  1 30  1  0
  1 31  1  0
  6 32  1  0
  8 33  1  0
  8 34  1  0
  9 35  1  6
 10 36  1  0
 10 37  1  0
 11 38  1  1
 12 39  1  0
 12 40  1  0
 13 41  1  6
 14 42  1  0
 14 43  1  0
 15 44  1  0
 15 45  1  0
 16 46  1  0
 16 47  1  0
 19 48  1  0
 20 49  1  0
 20 50  1  0
 20 51  1  0
 21 52  1  0
 21 53  1  0
 21 54  1  0
 24 55  1  0
 25 56  1  0
 26 57  1  0
 27 58  1  0
 28 59  1  0
M  END
>  <_SMILES>  (70) 
Cc1c(C(=O)N[C@]23C[C@H]4C[C@H](C[C@H](C4)C2)C3)nn(C(C)C)c1-c1ccccc1

$$$$

     RDKit          3D

 60 64  0  0  0  0  0  0  0  0999 V2000
   -2.5174   -2.7842    0.1555 C   0  0  0  0  0  0  0  0  0  0  0  0
   -2.4100   -1.3023    0.1822 C   0  0  0  0  0  0  0  0  0  0  0  0
   -1.3015   -0.5365    0.6531 C   0  0  0  0  0  0  0  0  0  0  0  0
   -0.0285   -1.0341    1.2111 C   0  0  0  0  0  0  0  0  0  0  0  0
    0.2308   -2.2259    1.3456 O   0  0  0  0  0  0  0  0  0  0  0  0
    0.8360   -0.0183    1.5558 N   0  0  0  0  0  0  0  0  0  0  0  0
    2.1723   -0.2310    2.0584 C   0  0  0  0  0  0  0  0  0  0  0  0
    3.2733   -0.0846    0.9850 C   0  0  2  0  0  0  0  0  0  0  0  0
    4.6564   -0.2916    1.6593 C   0  0  0  0  0  0  0  0  0  0  0  0
    5.7936   -0.1489    0.6346 C   0  0  1  0  0  0  0  0  0  0  0  0
    5.6116   -1.2006   -0.4709 C   0  0  0  0  0  0  0  0  0  0  0  0
    4.2598   -0.9962   -1.1725 C   0  0  2  0  0  0  0  0  0  0  0  0
    4.2140    0.4134   -1.7853 C   0  0  0  0  0  0  0  0  0  0  0  0
    4.3901    1.4725   -0.6847 C   0  0  2  0  0  0  0  0  0  0  0  0
    5.7414    1.2564    0.0147 C   0  0  0  0  0  0  0  0  0  0  0  0
    3.2550    1.3278    0.3446 C   0  0  0  0  0  0  0  0  0  0  0  0
    3.1243   -1.1372   -0.1431 C   0  0  0  0  0  0  0  0  0  0  0  0
   -1.5380    0.7863    0.5335 N   0  0  0  0  0  0  0  0  0  0  0  0
   -2.7681    0.8577   -0.0127 N   0  0  0  0  0  0  0  0  0  0  0  0
   -3.3423    2.1671   -0.2544 C   0  0  0  0  0  0  0  0  0  0  0  0
   -4.0365    2.7153    0.9819 C   0  0  0  0  0  0  0  0  0  0  0  0
   -4.6079    3.9883    0.6894 O   0  0  0  0  0  0  0  0  0  0  0  0
   -3.3440   -0.3683   -0.2401 C   0  0  0  0  0  0  0  0  0  0  0  0
   -4.6764   -0.5610   -0.7978 C   0  0  0  0  0  0  0  0  0  0  0  0
   -5.7584   -0.8333    0.0464 C   0  0  0  0  0  0  0  0  0  0  0  0
   -7.0359   -1.0159   -0.4857 C   0  0  0  0  0  0  0  0  0  0  0  0
   -7.2364   -0.9321   -1.8630 C   0  0  0  0  0  0  0  0  0  0  0  0
   -6.1603   -0.6704   -2.7103 C   0  0  0  0  0  0  0  0  0  0  0  0
   -4.8820   -0.4878   -2.1799 C   0  0  0  0  0  0  0  0  0  0  0  0
   -1.7038   -3.2160   -0.4362 H   0  0  0  0  0  0  0  0  0  0  0  0
   -3.4611   -3.1174   -0.2870 H   0  0  0  0  0  0  0  0  0  0  0  0
   -2.4634   -3.1888    1.1712 H   0  0  0  0  0  0  0  0  0  0  0  0
    0.4937    0.9193    1.3600 H   0  0  0  0  0  0  0  0  0  0  0  0
    2.3219    0.5082    2.8538 H   0  0  0  0  0  0  0  0  0  0  0  0
    2.2259   -1.2235    2.5209 H   0  0  0  0  0  0  0  0  0  0  0  0
    4.7047   -1.2848    2.1245 H   0  0  0  0  0  0  0  0  0  0  0  0
    4.7967    0.4398    2.4659 H   0  0  0  0  0  0  0  0  0  0  0  0
    6.7590   -0.2980    1.1310 H   0  0  0  0  0  0  0  0  0  0  0  0
    6.4276   -1.1230   -1.1998 H   0  0  0  0  0  0  0  0  0  0  0  0
    5.6628   -2.2088   -0.0419 H   0  0  0  0  0  0  0  0  0  0  0  0
    4.1367   -1.7460   -1.9620 H   0  0  0  0  0  0  0  0  0  0  0  0
    3.2593    0.5662   -2.3035 H   0  0  0  0  0  0  0  0  0  0  0  0
    5.0050    0.5202   -2.5378 H   0  0  0  0  0  0  0  0  0  0  0  0
    4.3600    2.4741   -1.1280 H   0  0  0  0  0  0  0  0  0  0  0  0
    6.5598    1.3787   -0.7054 H   0  0  0  0  0  0  0  0  0  0  0  0
    5.8865    2.0156    0.7931 H   0  0  0  0  0  0  0  0  0  0  0  0
    3.3614    2.0962    1.1210 H   0  0  0  0  0  0  0  0  0  0  0  0
    2.2948    1.5129   -0.1531 H   0  0  0  0  0  0  0  0  0  0  0  0
    3.1341   -2.1495    0.2806 H   0  0  0  0  0  0  0  0  0  0  0  0
    2.1633   -1.0181   -0.6581 H   0  0  0  0  0  0  0  0  0  0  0  0
   -2.5344    2.8370   -0.5731 H   0  0  0  0  0  0  0  0  0  0  0  0
   -4.0354    2.1074   -1.0994 H   0  0  0  0  0  0  0  0  0  0  0  0
   -4.8386    2.0472    1.3126 H   0  0  0  0  0  0  0  0  0  0  0  0
   -3.3277    2.8364    1.8081 H   0  0  0  0  0  0  0  0  0  0  0  0
   -5.0244    4.3082    1.5090 H   0  0  0  0  0  0  0  0  0  0  0  0
   -5.6113   -0.9083    1.1213 H   0  0  0  0  0  0  0  0  0  0  0  0
   -7.8738   -1.2275    0.1736 H   0  0  0  0  0  0  0  0  0  0  0  0
   -8.2311   -1.0766   -2.2773 H   0  0  0  0  0  0  0  0  0  0  0  0
   -6.3155   -0.6125   -3.7846 H   0  0  0  0  0  0  0  0  0  0  0  0
   -4.0480   -0.2931   -2.8503 H   0  0  0  0  0  0  0  0  0  0  0  0
  1  2  1  0
  2  3  1  0
  3  4  1  0
  4  5  2  0
  4  6  1  0
  6  7  1  0
  8  7  1  1
  8  9  1  0
  9 10  1  0
 10 11  1  0
 11 12  1  0
 12 13  1  0
 13 14  1  0
 14 15  1  0
 14 16  1  0
 12 17  1  0
  3 18  2  0
 18 19  1  0
 19 20  1  0
 20 21  1  0
 21 22  1  0
 19 23  1  0
 23 24  1  0
 24 25  2  0
 25 26  1  0
 26 27  2  0
 27 28  1  0
 28 29  2  0
 23  2  2  0
 29 24  1  0
 16  8  1  0
 17  8  1  0
 15 10  1  0
  1 30  1  0
  1 31  1  0
  1 32  1  0
  6 33  1  0
  7 34  1  0
  7 35  1  0
  9 36  1  0
  9 37  1  0
 10 38  1  1
 11 39  1  0
 11 40  1  0
 12 41  1  6
 13 42  1  0
 13 43  1  0
 14 44  1  6
 15 45  1  0
 15 46  1  0
 16 47  1  0
 16 48  1  0
 17 49  1  0
 17 50  1  0
 20 51  1  0
 20 52  1  0
 21 53  1  0
 21 54  1  0
 22 55  1  0
 25 56  1  0
 26 57  1  0
 27 58  1  0
 28 59  1  0
 29 60  1  0
M  END
>  <_SMILES>  (71) 
Cc1c(C(=O)NC[C@]23C[C@H]4C[C@H](C[C@H](C4)C2)C3)nn(CCO)c1-c1ccccc1

$$$$

     RDKit          3D

 66 71  0  0  0  0  0  0  0  0999 V2000
    0.2223   -2.6105   -0.1809 C   0  0  0  0  0  0  0  0  0  0  0  0
    1.0559   -1.3838   -0.0512 C   0  0  0  0  0  0  0  0  0  0  0  0
    0.6240   -0.0343    0.1615 C   0  0  0  0  0  0  0  0  0  0  0  0
   -0.7308    0.5465    0.3033 C   0  0  0  0  0  0  0  0  0  0  0  0
   -0.8924    1.6029    0.9098 O   0  0  0  0  0  0  0  0  0  0  0  0
   -1.7462   -0.1481   -0.3191 N   0  0  0  0  0  0  0  0  0  0  0  0
   -3.1483    0.2843   -0.3691 C   0  0  2  0  0  0  0  0  0  0  0  0
   -3.7586    0.4366    1.0474 C   0  0  0  0  0  0  0  0  0  0  0  0
   -5.2413    0.8396    0.9579 C   0  0  1  0  0  0  0  0  0  0  0  0
   -5.3584    2.1709    0.1962 C   0  0  0  0  0  0  0  0  0  0  0  0
   -4.7894    2.0201   -1.2250 C   0  0  2  0  0  0  0  0  0  0  0  0
   -5.5693    0.9245   -1.9691 C   0  0  0  0  0  0  0  0  0  0  0  0
   -5.4485   -0.4097   -1.2161 C   0  0  2  0  0  0  0  0  0  0  0  0
   -6.0191   -0.2481    0.2012 C   0  0  0  0  0  0  0  0  0  0  0  0
   -3.9657   -0.8020   -1.1204 C   0  0  0  0  0  0  0  0  0  0  0  0
   -3.3062    1.6189   -1.1377 C   0  0  0  0  0  0  0  0  0  0  0  0
    1.6873    0.7832    0.2866 N   0  0  0  0  0  0  0  0  0  0  0  0
    2.7631   -0.0111    0.1444 N   0  0  0  0  0  0  0  0  0  0  0  0
    4.0853    0.5993    0.3283 C   0  0  0  0  0  0  0  0  0  0  0  0
    4.2298    1.9010   -0.4846 C   0  0  0  0  0  0  0  0  0  0  0  0
    3.7811    3.1584    0.2623 C   0  0  0  0  0  0  0  0  0  0  0  0
    2.8762    2.8133    1.3806 N   0  0  0  0  0  0  0  0  0  0  0  0
    3.4695    1.9419    2.4283 C   0  0  0  0  0  0  0  0  0  0  0  0
    4.3630    0.8620    1.8145 C   0  0  0  0  0  0  0  0  0  0  0  0
    2.4448   -1.3227   -0.0761 C   0  0  0  0  0  0  0  0  0  0  0  0
    3.4289   -2.3835   -0.2436 C   0  0  0  0  0  0  0  0  0  0  0  0
    3.9642   -2.6520   -1.5081 C   0  0  0  0  0  0  0  0  0  0  0  0
    4.9174   -3.6593   -1.6656 C   0  0  0  0  0  0  0  0  0  0  0  0
    5.3355   -4.4031   -0.5630 C   0  0  0  0  0  0  0  0  0  0  0  0
    4.7986   -4.1454    0.6977 C   0  0  0  0  0  0  0  0  0  0  0  0
    3.8455   -3.1386    0.8584 C   0  0  0  0  0  0  0  0  0  0  0  0
    0.7956   -3.5148    0.0458 H   0  0  0  0  0  0  0  0  0  0  0  0
   -0.1612   -2.7027   -1.2018 H   0  0  0  0  0  0  0  0  0  0  0  0
   -0.6236   -2.5836    0.5131 H   0  0  0  0  0  0  0  0  0  0  0  0
   -1.4714   -0.8493   -0.9924 H   0  0  0  0  0  0  0  0  0  0  0  0
   -3.2218    1.1944    1.6293 H   0  0  0  0  0  0  0  0  0  0  0  0
   -3.6595   -0.5046    1.6039 H   0  0  0  0  0  0  0  0  0  0  0  0
   -5.6538    0.9536    1.9667 H   0  0  0  0  0  0  0  0  0  0  0  0
   -6.4092    2.4819    0.1468 H   0  0  0  0  0  0  0  0  0  0  0  0
   -4.8182    2.9595    0.7343 H   0  0  0  0  0  0  0  0  0  0  0  0
   -4.8831    2.9699   -1.7633 H   0  0  0  0  0  0  0  0  0  0  0  0
   -6.6246    1.2104   -2.0581 H   0  0  0  0  0  0  0  0  0  0  0  0
   -5.1818    0.8158   -2.9896 H   0  0  0  0  0  0  0  0  0  0  0  0
   -6.0036   -1.1880   -1.7515 H   0  0  0  0  0  0  0  0  0  0  0  0
   -7.0820    0.0181    0.1495 H   0  0  0  0  0  0  0  0  0  0  0  0
   -5.9553   -1.2001    0.7423 H   0  0  0  0  0  0  0  0  0  0  0  0
   -3.8693   -1.7684   -0.6075 H   0  0  0  0  0  0  0  0  0  0  0  0
   -3.5586   -0.9500   -2.1298 H   0  0  0  0  0  0  0  0  0  0  0  0
   -2.7459    2.4224   -0.6451 H   0  0  0  0  0  0  0  0  0  0  0  0
   -2.8846    1.5252   -2.1471 H   0  0  0  0  0  0  0  0  0  0  0  0
    4.8170   -0.1200   -0.0549 H   0  0  0  0  0  0  0  0  0  0  0  0
    5.2839    2.0363   -0.7596 H   0  0  0  0  0  0  0  0  0  0  0  0
    3.6862    1.8212   -1.4349 H   0  0  0  0  0  0  0  0  0  0  0  0
    3.2387    3.8403   -0.3998 H   0  0  0  0  0  0  0  0  0  0  0  0
    4.6330    3.6948    0.6938 H   0  0  0  0  0  0  0  0  0  0  0  0
    2.4410    3.6471    1.7957 H   0  0  0  0  0  0  0  0  0  0  0  0
    2.0631    2.2837    0.9769 H   0  0  0  0  0  0  0  0  0  0  0  0
    2.6324    1.5046    2.9820 H   0  0  0  0  0  0  0  0  0  0  0  0
    4.0380    2.5850    3.1078 H   0  0  0  0  0  0  0  0  0  0  0  0
    5.4093    1.1784    1.9192 H   0  0  0  0  0  0  0  0  0  0  0  0
    4.2677   -0.0608    2.3997 H   0  0  0  0  0  0  0  0  0  0  0  0
    3.6389   -2.0891   -2.3800 H   0  0  0  0  0  0  0  0  0  0  0  0
    5.3288   -3.8723   -2.6498 H   0  0  0  0  0  0  0  0  0  0  0  0
    6.0727   -5.1933   -0.6886 H   0  0  0  0  0  0  0  0  0  0  0  0
    5.1171   -4.7376    1.5526 H   0  0  0  0  0  0  0  0  0  0  0  0
    3.4256   -2.9593    1.8453 H   0  0  0  0  0  0  0  0  0  0  0  0
  1  2  1  0
  2  3  1  0
  3  4  1  0
  4  5  2  0
  4  6  1  0
  7  6  1  1
  7  8  1  0
  8  9  1  0
  9 10  1  0
 10 11  1  0
 11 12  1  0
 12 13  1  0
 13 14  1  0
 13 15  1  0
 11 16  1  0
  3 17  2  0
 17 18  1  0
 18 19  1  0
 19 20  1  0
 20 21  1  0
 21 22  1  0
 22 23  1  0
 23 24  1  0
 18 25  1  0
 25 26  1  0
 26 27  2  0
 27 28  1  0
 28 29  2  0
 29 30  1  0
 30 31  2  0
 25  2  2  0
 31 26  1  0
 15  7  1  0
 24 19  1  0
 16  7  1  0
 14  9  1  0
  1 32  1  0
  1 33  1  0
  1 34  1  0
  6 35  1  0
  8 36  1  0
  8 37  1  0
  9 38  1  1
 10 39  1  0
 10 40  1  0
 11 41  1  6
 12 42  1  0
 12 43  1  0
 13 44  1  6
 14 45  1  0
 14 46  1  0
 15 47  1  0
 15 48  1  0
 16 49  1  0
 16 50  1  0
 19 51  1  0
 20 52  1  0
 20 53  1  0
 21 54  1  0
 21 55  1  0
 22 56  1  0
 22 57  1  0
 23 58  1  0
 23 59  1  0
 24 60  1  0
 24 61  1  0
 27 62  1  0
 28 63  1  0
 29 64  1  0
 30 65  1  0
 31 66  1  0
M  CHG  1  22   1
M  END
>  <_SMILES>  (72) 
Cc1c(C(=O)N[C@]23C[C@H]4C[C@H](C[C@H](C4)C2)C3)nn(C2CC[NH2+]CC2)c1-c1ccccc1

$$$$

     RDKit          3D

 65 69  0  0  0  0  0  0  0  0999 V2000
    0.1385   -1.7334   -2.1237 C   0  0  0  0  0  0  0  0  0  0  0  0
    0.8866   -0.5617   -1.5973 C   0  0  0  0  0  0  0  0  0  0  0  0
    0.3487    0.6661   -1.0892 C   0  0  0  0  0  0  0  0  0  0  0  0
   -1.0690    1.0452   -0.9147 C   0  0  0  0  0  0  0  0  0  0  0  0
   -1.4944    2.1682   -1.1654 O   0  0  0  0  0  0  0  0  0  0  0  0
   -1.8587    0.0229   -0.4130 N   0  0  0  0  0  0  0  0  0  0  0  0
   -3.2687    0.1654   -0.0428 C   0  0  2  0  0  0  0  0  0  0  0  0
   -4.1454    0.5966   -1.2461 C   0  0  0  0  0  0  0  0  0  0  0  0
   -5.6260    0.6830   -0.8347 C   0  0  1  0  0  0  0  0  0  0  0  0
   -6.1005   -0.6955   -0.3498 C   0  0  0  0  0  0  0  0  0  0  0  0
   -5.2615   -1.1433    0.8566 C   0  0  2  0  0  0  0  0  0  0  0  0
   -5.4156   -0.1197    1.9926 C   0  0  0  0  0  0  0  0  0  0  0  0
   -4.9380    1.2632    1.5218 C   0  0  2  0  0  0  0  0  0  0  0  0
   -5.7746    1.7023    0.3079 C   0  0  0  0  0  0  0  0  0  0  0  0
   -3.4567    1.1781    1.1132 C   0  0  0  0  0  0  0  0  0  0  0  0
   -3.7834   -1.2176    0.4424 C   0  0  0  0  0  0  0  0  0  0  0  0
    1.3353    1.5119   -0.7495 N   0  0  0  0  0  0  0  0  0  0  0  0
    2.4708    0.8465   -1.0167 N   0  0  0  0  0  0  0  0  0  0  0  0
    3.7367    1.5068   -0.7496 C   0  0  0  0  0  0  0  0  0  0  0  0
    4.3918    1.0914    0.5707 C   0  0  0  0  0  0  0  0  0  0  0  0
    3.5841    1.5146    1.8024 C   0  0  0  0  0  0  0  0  0  0  0  0
    4.2331    1.0943    3.1217 C   0  0  0  0  0  0  0  0  0  0  0  0
    5.5296    1.8237    3.4270 C   0  0  0  0  0  0  0  0  0  0  0  0
    5.9748    1.4171    4.6471 F   0  0  0  0  0  0  0  0  0  0  0  0
    2.2644   -0.4111   -1.5276 C   0  0  0  0  0  0  0  0  0  0  0  0
    3.3266   -1.3357   -1.9035 C   0  0  0  0  0  0  0  0  0  0  0  0
    3.6614   -2.4009   -1.0602 C   0  0  0  0  0  0  0  0  0  0  0  0
    4.6772   -3.2888   -1.4186 C   0  0  0  0  0  0  0  0  0  0  0  0
    5.3575   -3.1205   -2.6240 C   0  0  0  0  0  0  0  0  0  0  0  0
    5.0214   -2.0674   -3.4738 C   0  0  0  0  0  0  0  0  0  0  0  0
    4.0064   -1.1781   -3.1163 C   0  0  0  0  0  0  0  0  0  0  0  0
    0.7358   -2.2975   -2.8471 H   0  0  0  0  0  0  0  0  0  0  0  0
   -0.1332   -2.4085   -1.3062 H   0  0  0  0  0  0  0  0  0  0  0  0
   -0.7767   -1.4188   -2.6352 H   0  0  0  0  0  0  0  0  0  0  0  0
   -1.3524   -0.7526   -0.0071 H   0  0  0  0  0  0  0  0  0  0  0  0
   -3.8312    1.5715   -1.6354 H   0  0  0  0  0  0  0  0  0  0  0  0
   -4.0277   -0.1162   -2.0729 H   0  0  0  0  0  0  0  0  0  0  0  0
   -6.2292    0.9996   -1.6930 H   0  0  0  0  0  0  0  0  0  0  0  0
   -6.0130   -1.4289   -1.1608 H   0  0  0  0  0  0  0  0  0  0  0  0
   -7.1611   -0.6514   -0.0735 H   0  0  0  0  0  0  0  0  0  0  0  0
   -5.6004   -2.1278    1.1976 H   0  0  0  0  0  0  0  0  0  0  0  0
   -6.4646   -0.0662    2.3090 H   0  0  0  0  0  0  0  0  0  0  0  0
   -4.8353   -0.4392    2.8669 H   0  0  0  0  0  0  0  0  0  0  0  0
   -5.0551    1.9899    2.3335 H   0  0  0  0  0  0  0  0  0  0  0  0
   -6.8298    1.7914    0.5940 H   0  0  0  0  0  0  0  0  0  0  0  0
   -5.4518    2.6945   -0.0306 H   0  0  0  0  0  0  0  0  0  0  0  0
   -2.8475    0.8820    1.9772 H   0  0  0  0  0  0  0  0  0  0  0  0
   -3.1079    2.1754    0.8198 H   0  0  0  0  0  0  0  0  0  0  0  0
   -3.1810   -1.5679    1.2914 H   0  0  0  0  0  0  0  0  0  0  0  0
   -3.6572   -1.9664   -0.3512 H   0  0  0  0  0  0  0  0  0  0  0  0
    4.4060    1.2857   -1.5876 H   0  0  0  0  0  0  0  0  0  0  0  0
    3.5595    2.5891   -0.7661 H   0  0  0  0  0  0  0  0  0  0  0  0
    4.5454    0.0067    0.5926 H   0  0  0  0  0  0  0  0  0  0  0  0
    5.3846    1.5534    0.6078 H   0  0  0  0  0  0  0  0  0  0  0  0
    2.5896    1.0554    1.7615 H   0  0  0  0  0  0  0  0  0  0  0  0
    3.4340    2.6008    1.7943 H   0  0  0  0  0  0  0  0  0  0  0  0
    4.4137    0.0127    3.1289 H   0  0  0  0  0  0  0  0  0  0  0  0
    3.5295    1.2841    3.9415 H   0  0  0  0  0  0  0  0  0  0  0  0
    6.3125    1.5950    2.6997 H   0  0  0  0  0  0  0  0  0  0  0  0
    5.3824    2.9067    3.4665 H   0  0  0  0  0  0  0  0  0  0  0  0
    3.1360   -2.5421   -0.1186 H   0  0  0  0  0  0  0  0  0  0  0  0
    4.9363   -4.1128   -0.7588 H   0  0  0  0  0  0  0  0  0  0  0  0
    6.1468   -3.8137   -2.9040 H   0  0  0  0  0  0  0  0  0  0  0  0
    5.5462   -1.9412   -4.4174 H   0  0  0  0  0  0  0  0  0  0  0  0
    3.7448   -0.3664   -3.7916 H   0  0  0  0  0  0  0  0  0  0  0  0
  1  2  1  0
  2  3  1  0
  3  4  1  0
  4  5  2  0
  4  6  1  0
  7  6  1  6
  7  8  1  0
  8  9  1  0
  9 10  1  0
 10 11  1  0
 11 12  1  0
 12 13  1  0
 13 14  1  0
 13 15  1  0
 11 16  1  0
  3 17  2  0
 17 18  1  0
 18 19  1  0
 19 20  1  0
 20 21  1  0
 21 22  1  0
 22 23  1  0
 23 24  1  0
 18 25  1  0
 25 26  1  0
 26 27  2  0
 27 28  1  0
 28 29  2  0
 29 30  1  0
 30 31  2  0
 25  2  2  0
 31 26  1  0
 15  7  1  0
 16  7  1  0
 14  9  1  0
  1 32  1  0
  1 33  1  0
  1 34  1  0
  6 35  1  0
  8 36  1  0
  8 37  1  0
  9 38  1  6
 10 39  1  0
 10 40  1  0
 11 41  1  1
 12 42  1  0
 12 43  1  0
 13 44  1  1
 14 45  1  0
 14 46  1  0
 15 47  1  0
 15 48  1  0
 16 49  1  0
 16 50  1  0
 19 51  1  0
 19 52  1  0
 20 53  1  0
 20 54  1  0
 21 55  1  0
 21 56  1  0
 22 57  1  0
 22 58  1  0
 23 59  1  0
 23 60  1  0
 27 61  1  0
 28 62  1  0
 29 63  1  0
 30 64  1  0
 31 65  1  0
M  END
>  <_SMILES>  (73) 
Cc1c(C(=O)N[C@]23C[C@H]4C[C@H](C[C@H](C4)C2)C3)nn(CCCCCF)c1-c1ccccc1

$$$$

     RDKit          3D

 61 65  0  0  0  0  0  0  0  0999 V2000
   -1.3654    2.8090    1.6012 C   0  0  0  0  0  0  0  0  0  0  0  0
   -1.5604    1.6786    0.6560 C   0  0  0  0  0  0  0  0  0  0  0  0
   -0.5453    0.8244    0.1295 C   0  0  0  0  0  0  0  0  0  0  0  0
    0.9065    0.8642    0.4029 C   0  0  0  0  0  0  0  0  0  0  0  0
    1.4216    1.6817    1.1576 O   0  0  0  0  0  0  0  0  0  0  0  0
    1.5990   -0.1133   -0.2782 N   0  0  0  0  0  0  0  0  0  0  0  0
    3.0357   -0.3585   -0.2137 C   0  0  2  0  0  0  0  0  0  0  0  0
    3.8469    0.8676   -0.7010 C   0  0  0  0  0  0  0  0  0  0  0  0
    5.3557    0.5661   -0.6683 C   0  0  1  0  0  0  0  0  0  0  0  0
    5.7698    0.2114    0.7701 C   0  0  0  0  0  0  0  0  0  0  0  0
    4.9961   -1.0270    1.2536 C   0  0  2  0  0  0  0  0  0  0  0  0
    5.2982   -2.2098    0.3200 C   0  0  0  0  0  0  0  0  0  0  0  0
    4.8788   -1.8643   -1.1175 C   0  0  2  0  0  0  0  0  0  0  0  0
    5.6558   -0.6259   -1.5907 C   0  0  0  0  0  0  0  0  0  0  0  0
    3.3734   -1.5549   -1.1428 C   0  0  0  0  0  0  0  0  0  0  0  0
    3.4872   -0.7260    1.2214 C   0  0  0  0  0  0  0  0  0  0  0  0
   -1.0713   -0.0979   -0.7028 N   0  0  0  0  0  0  0  0  0  0  0  0
   -2.3911    0.1645   -0.7028 N   0  0  0  0  0  0  0  0  0  0  0  0
   -3.2595   -0.6849   -1.4930 C   0  0  0  0  0  0  0  0  0  0  0  0
   -3.3805   -2.1081   -0.9492 C   0  0  2  0  0  0  0  0  0  0  0  0
   -4.2128   -2.8974   -1.8254 O   0  0  0  0  0  0  0  0  0  0  0  0
   -3.9899   -2.1712    0.4559 C   0  0  0  0  0  0  0  0  0  0  0  0
   -4.1384   -3.5342    0.8561 O   0  0  0  0  0  0  0  0  0  0  0  0
   -2.7446    1.2266    0.0930 C   0  0  0  0  0  0  0  0  0  0  0  0
   -4.1097    1.7044    0.2738 C   0  0  0  0  0  0  0  0  0  0  0  0
   -4.7174    2.4971   -0.7063 C   0  0  0  0  0  0  0  0  0  0  0  0
   -6.0291    2.9429   -0.5350 C   0  0  0  0  0  0  0  0  0  0  0  0
   -6.7365    2.6031    0.6175 C   0  0  0  0  0  0  0  0  0  0  0  0
   -6.1324    1.8232    1.6028 C   0  0  0  0  0  0  0  0  0  0  0  0
   -4.8205    1.3775    1.4338 C   0  0  0  0  0  0  0  0  0  0  0  0
   -2.3033    3.3319    1.8116 H   0  0  0  0  0  0  0  0  0  0  0  0
   -0.9644    2.4453    2.5526 H   0  0  0  0  0  0  0  0  0  0  0  0
   -0.6659    3.5405    1.1839 H   0  0  0  0  0  0  0  0  0  0  0  0
    1.0062   -0.7108   -0.8506 H   0  0  0  0  0  0  0  0  0  0  0  0
    3.6443    1.7447   -0.0751 H   0  0  0  0  0  0  0  0  0  0  0  0
    3.5426    1.1408   -1.7200 H   0  0  0  0  0  0  0  0  0  0  0  0
    5.9148    1.4452   -1.0076 H   0  0  0  0  0  0  0  0  0  0  0  0
    5.5732    1.0600    1.4367 H   0  0  0  0  0  0  0  0  0  0  0  0
    6.8487    0.0176    0.8113 H   0  0  0  0  0  0  0  0  0  0  0  0
    5.3004   -1.2769    2.2761 H   0  0  0  0  0  0  0  0  0  0  0  0
    4.7629   -3.1040    0.6624 H   0  0  0  0  0  0  0  0  0  0  0  0
    6.3685   -2.4481    0.3511 H   0  0  0  0  0  0  0  0  0  0  0  0
    5.0939   -2.7109   -1.7790 H   0  0  0  0  0  0  0  0  0  0  0  0
    6.7323   -0.8369   -1.5925 H   0  0  0  0  0  0  0  0  0  0  0  0
    5.3778   -0.3804   -2.6231 H   0  0  0  0  0  0  0  0  0  0  0  0
    2.8079   -2.4442   -0.8336 H   0  0  0  0  0  0  0  0  0  0  0  0
    3.0582   -1.3346   -2.1715 H   0  0  0  0  0  0  0  0  0  0  0  0
    3.2702    0.0905    1.9205 H   0  0  0  0  0  0  0  0  0  0  0  0
    2.9248   -1.5970    1.5827 H   0  0  0  0  0  0  0  0  0  0  0  0
   -4.2483   -0.2236   -1.5782 H   0  0  0  0  0  0  0  0  0  0  0  0
   -2.8526   -0.7037   -2.5118 H   0  0  0  0  0  0  0  0  0  0  0  0
   -2.4027   -2.6031   -0.9394 H   0  0  0  0  0  0  0  0  0  0  0  0
   -5.1081   -2.5128   -1.8244 H   0  0  0  0  0  0  0  0  0  0  0  0
   -4.9892   -1.7245    0.4673 H   0  0  0  0  0  0  0  0  0  0  0  0
   -3.3654   -1.6669    1.1979 H   0  0  0  0  0  0  0  0  0  0  0  0
   -4.2866   -4.0498    0.0388 H   0  0  0  0  0  0  0  0  0  0  0  0
   -4.1704    2.7795   -1.6031 H   0  0  0  0  0  0  0  0  0  0  0  0
   -6.4964    3.5621   -1.2966 H   0  0  0  0  0  0  0  0  0  0  0  0
   -7.7564    2.9551    0.7530 H   0  0  0  0  0  0  0  0  0  0  0  0
   -6.6803    1.5679    2.5065 H   0  0  0  0  0  0  0  0  0  0  0  0
   -4.3563    0.7781    2.2142 H   0  0  0  0  0  0  0  0  0  0  0  0
  1  2  1  0
  2  3  1  0
  3  4  1  0
  4  5  2  0
  4  6  1  0
  7  6  1  1
  7  8  1  0
  8  9  1  0
  9 10  1  0
 10 11  1  0
 11 12  1  0
 12 13  1  0
 13 14  1  0
 13 15  1  0
 11 16  1  0
  3 17  2  0
 17 18  1  0
 18 19  1  0
 19 20  1  0
 20 21  1  0
 20 22  1  0
 22 23  1  0
 18 24  1  0
 24 25  1  0
 25 26  2  0
 26 27  1  0
 27 28  2  0
 28 29  1  0
 29 30  2  0
 24  2  2  0
 30 25  1  0
 15  7  1  0
 16  7  1  0
 14  9  1  0
  1 31  1  0
  1 32  1  0
  1 33  1  0
  6 34  1  0
  8 35  1  0
  8 36  1  0
  9 37  1  6
 10 38  1  0
 10 39  1  0
 11 40  1  1
 12 41  1  0
 12 42  1  0
 13 43  1  6
 14 44  1  0
 14 45  1  0
 15 46  1  0
 15 47  1  0
 16 48  1  0
 16 49  1  0
 19 50  1  0
 19 51  1  0
 20 52  1  1
 21 53  1  0
 22 54  1  0
 22 55  1  0
 23 56  1  0
 26 57  1  0
 27 58  1  0
 28 59  1  0
 29 60  1  0
 30 61  1  0
M  END
>  <_SMILES>  (74) 
Cc1c(C(=O)N[C@]23C[C@H]4C[C@H](C[C@H](C4)C2)C3)nn(C[C@H](O)CO)c1-c1ccccc1

$$$$

     RDKit          3D

 61 65  0  0  0  0  0  0  0  0999 V2000
   -1.6342    2.3646   -2.1573 C   0  0  0  0  0  0  0  0  0  0  0  0
   -1.7581    1.4857   -0.9650 C   0  0  0  0  0  0  0  0  0  0  0  0
   -0.7151    0.7311   -0.3523 C   0  0  0  0  0  0  0  0  0  0  0  0
    0.7056    0.6557   -0.7522 C   0  0  0  0  0  0  0  0  0  0  0  0
    1.1648    1.2632   -1.7129 O   0  0  0  0  0  0  0  0  0  0  0  0
    1.4443   -0.1604    0.0784 N   0  0  0  0  0  0  0  0  0  0  0  0
    2.8833   -0.3900    0.0038 C   0  0  2  0  0  0  0  0  0  0  0  0
    3.2950   -1.0171   -1.3515 C   0  0  0  0  0  0  0  0  0  0  0  0
    4.8089   -1.2921   -1.3833 C   0  0  1  0  0  0  0  0  0  0  0  0
    5.5674    0.0296   -1.1737 C   0  0  0  0  0  0  0  0  0  0  0  0
    5.1934    0.6449    0.1856 C   0  0  2  0  0  0  0  0  0  0  0  0
    5.5536   -0.3439    1.3057 C   0  0  0  0  0  0  0  0  0  0  0  0
    4.7922   -1.6639    1.1059 C   0  0  2  0  0  0  0  0  0  0  0  0
    5.1717   -2.2696   -0.2544 C   0  0  0  0  0  0  0  0  0  0  0  0
    3.2814   -1.3827    1.1284 C   0  0  0  0  0  0  0  0  0  0  0  0
    3.6797    0.9205    0.2178 C   0  0  0  0  0  0  0  0  0  0  0  0
   -1.1710    0.0511    0.7203 N   0  0  0  0  0  0  0  0  0  0  0  0
   -2.4922    0.3370    0.7617 N   0  0  0  0  0  0  0  0  0  0  0  0
   -3.2736   -0.2141    1.8563 C   0  0  0  0  0  0  0  0  0  0  0  0
   -3.6565   -1.6878    1.6977 C   0  0  1  0  0  0  0  0  0  0  0  0
   -4.7130   -1.8484    0.7393 O   0  0  0  0  0  0  0  0  0  0  0  0
   -2.5042   -2.6208    1.3154 C   0  0  0  0  0  0  0  0  0  0  0  0
   -3.0037   -3.9642    1.3301 O   0  0  0  0  0  0  0  0  0  0  0  0
   -2.8898    1.2313   -0.2035 C   0  0  0  0  0  0  0  0  0  0  0  0
   -4.2351    1.7835   -0.3230 C   0  0  0  0  0  0  0  0  0  0  0  0
   -4.4788    3.1132    0.0421 C   0  0  0  0  0  0  0  0  0  0  0  0
   -5.7615    3.6527   -0.0727 C   0  0  0  0  0  0  0  0  0  0  0  0
   -6.8069    2.8676   -0.5563 C   0  0  0  0  0  0  0  0  0  0  0  0
   -6.5700    1.5451   -0.9284 C   0  0  0  0  0  0  0  0  0  0  0  0
   -5.2871    1.0056   -0.8156 C   0  0  0  0  0  0  0  0  0  0  0  0
   -1.2193    1.8068   -3.0030 H   0  0  0  0  0  0  0  0  0  0  0  0
   -2.6022    2.7656   -2.4724 H   0  0  0  0  0  0  0  0  0  0  0  0
   -0.9747    3.2107   -1.9396 H   0  0  0  0  0  0  0  0  0  0  0  0
    0.9112   -0.5264    0.8635 H   0  0  0  0  0  0  0  0  0  0  0  0
    3.0362   -0.3541   -2.1854 H   0  0  0  0  0  0  0  0  0  0  0  0
    2.7419   -1.9507   -1.5189 H   0  0  0  0  0  0  0  0  0  0  0  0
    5.0844   -1.7269   -2.3506 H   0  0  0  0  0  0  0  0  0  0  0  0
    5.3275    0.7317   -1.9816 H   0  0  0  0  0  0  0  0  0  0  0  0
    6.6488   -0.1492   -1.2181 H   0  0  0  0  0  0  0  0  0  0  0  0
    5.7420    1.5823    0.3304 H   0  0  0  0  0  0  0  0  0  0  0  0
    6.6344   -0.5313    1.3071 H   0  0  0  0  0  0  0  0  0  0  0  0
    5.3043    0.0888    2.2824 H   0  0  0  0  0  0  0  0  0  0  0  0
    5.0504   -2.3647    1.9076 H   0  0  0  0  0  0  0  0  0  0  0  0
    6.2459   -2.4899   -0.2801 H   0  0  0  0  0  0  0  0  0  0  0  0
    4.6477   -3.2221   -0.4003 H   0  0  0  0  0  0  0  0  0  0  0  0
    2.9959   -0.9771    2.1084 H   0  0  0  0  0  0  0  0  0  0  0  0
    2.7273   -2.3242    1.0143 H   0  0  0  0  0  0  0  0  0  0  0  0
    3.4038    1.3777    1.1771 H   0  0  0  0  0  0  0  0  0  0  0  0
    3.4326    1.6579   -0.5555 H   0  0  0  0  0  0  0  0  0  0  0  0
   -2.6661   -0.0836    2.7607 H   0  0  0  0  0  0  0  0  0  0  0  0
   -4.1713    0.4002    1.9781 H   0  0  0  0  0  0  0  0  0  0  0  0
   -4.0825   -2.0283    2.6497 H   0  0  0  0  0  0  0  0  0  0  0  0
   -4.7995   -2.8172    0.6254 H   0  0  0  0  0  0  0  0  0  0  0  0
   -2.1528   -2.4303    0.2972 H   0  0  0  0  0  0  0  0  0  0  0  0
   -1.6752   -2.5492    2.0254 H   0  0  0  0  0  0  0  0  0  0  0  0
   -2.2647   -4.5359    1.0542 H   0  0  0  0  0  0  0  0  0  0  0  0
   -3.6697    3.7354    0.4174 H   0  0  0  0  0  0  0  0  0  0  0  0
   -5.9437    4.6853    0.2131 H   0  0  0  0  0  0  0  0  0  0  0  0
   -7.8057    3.2865   -0.6464 H   0  0  0  0  0  0  0  0  0  0  0  0
   -7.3825    0.9310   -1.3078 H   0  0  0  0  0  0  0  0  0  0  0  0
   -5.1155   -0.0262   -1.1143 H   0  0  0  0  0  0  0  0  0  0  0  0
  1  2  1  0
  2  3  1  0
  3  4  1  0
  4  5  2  0
  4  6  1  0
  7  6  1  6
  7  8  1  0
  8  9  1  0
  9 10  1  0
 10 11  1  0
 11 12  1  0
 12 13  1  0
 13 14  1  0
 13 15  1  0
 11 16  1  0
  3 17  2  0
 17 18  1  0
 18 19  1  0
 19 20  1  0
 20 21  1  0
 20 22  1  0
 22 23  1  0
 18 24  1  0
 24 25  1  0
 25 26  2  0
 26 27  1  0
 27 28  2  0
 28 29  1  0
 29 30  2  0
 24  2  2  0
 30 25  1  0
 15  7  1  0
 16  7  1  0
 14  9  1  0
  1 31  1  0
  1 32  1  0
  1 33  1  0
  6 34  1  0
  8 35  1  0
  8 36  1  0
  9 37  1  6
 10 38  1  0
 10 39  1  0
 11 40  1  1
 12 41  1  0
 12 42  1  0
 13 43  1  1
 14 44  1  0
 14 45  1  0
 15 46  1  0
 15 47  1  0
 16 48  1  0
 16 49  1  0
 19 50  1  0
 19 51  1  0
 20 52  1  1
 21 53  1  0
 22 54  1  0
 22 55  1  0
 23 56  1  0
 26 57  1  0
 27 58  1  0
 28 59  1  0
 29 60  1  0
 30 61  1  0
M  END
>  <_SMILES>  (75) 
Cc1c(C(=O)N[C@]23C[C@H]4C[C@H](C[C@H](C4)C2)C3)nn(C[C@@H](O)CO)c1-c1ccccc1

$$$$

     RDKit          3D

 59 63  0  0  0  0  0  0  0  0999 V2000
   -1.8761   -3.3972    0.4386 C   0  0  0  0  0  0  0  0  0  0  0  0
   -2.0092   -2.2410    1.4182 C   0  0  0  0  0  0  0  0  0  0  0  0
   -2.0189   -0.9116    0.7340 C   0  0  0  0  0  0  0  0  0  0  0  0
   -0.8916   -0.1323    0.3286 C   0  0  0  0  0  0  0  0  0  0  0  0
    0.5444   -0.4493    0.4797 C   0  0  0  0  0  0  0  0  0  0  0  0
    0.9552   -1.4835    0.9946 O   0  0  0  0  0  0  0  0  0  0  0  0
    1.3577    0.5425   -0.0253 N   0  0  0  0  0  0  0  0  0  0  0  0
    2.8159    0.5357   -0.0527 C   0  0  2  0  0  0  0  0  0  0  0  0
    3.4138    0.4656    1.3743 C   0  0  0  0  0  0  0  0  0  0  0  0
    4.9512    0.5079    1.3196 C   0  0  1  0  0  0  0  0  0  0  0  0
    5.4609   -0.6810    0.4871 C   0  0  0  0  0  0  0  0  0  0  0  0
    4.9017   -0.6037   -0.9438 C   0  0  2  0  0  0  0  0  0  0  0  0
    5.3509    0.7149   -1.5930 C   0  0  0  0  0  0  0  0  0  0  0  0
    4.8374    1.9068   -0.7699 C   0  0  2  0  0  0  0  0  0  0  0  0
    5.4002    1.8200    0.6574 C   0  0  0  0  0  0  0  0  0  0  0  0
    3.3024    1.8544   -0.7105 C   0  0  0  0  0  0  0  0  0  0  0  0
    3.3643   -0.6463   -0.8897 C   0  0  0  0  0  0  0  0  0  0  0  0
   -1.2823    1.0172   -0.2615 N   0  0  0  0  0  0  0  0  0  0  0  0
   -2.6281    0.9655   -0.2365 N   0  0  0  0  0  0  0  0  0  0  0  0
   -3.3752    2.0703   -0.8129 C   0  0  0  0  0  0  0  0  0  0  0  0
   -3.5738    1.9098   -2.3097 C   0  0  0  0  0  0  0  0  0  0  0  0
   -3.1273   -0.1697    0.3513 C   0  0  0  0  0  0  0  0  0  0  0  0
   -4.5467   -0.4661    0.4928 C   0  0  0  0  0  0  0  0  0  0  0  0
   -5.2458   -0.0393    1.6270 C   0  0  0  0  0  0  0  0  0  0  0  0
   -6.6062   -0.3222    1.7608 C   0  0  0  0  0  0  0  0  0  0  0  0
   -7.2716   -1.0356    0.7644 C   0  0  0  0  0  0  0  0  0  0  0  0
   -6.5779   -1.4704   -0.3645 C   0  0  0  0  0  0  0  0  0  0  0  0
   -5.2176   -1.1884   -0.4996 C   0  0  0  0  0  0  0  0  0  0  0  0
   -0.9464   -3.3291   -0.1358 H   0  0  0  0  0  0  0  0  0  0  0  0
   -1.8740   -4.3507    0.9760 H   0  0  0  0  0  0  0  0  0  0  0  0
   -2.7084   -3.4106   -0.2732 H   0  0  0  0  0  0  0  0  0  0  0  0
   -1.1938   -2.2808    2.1488 H   0  0  0  0  0  0  0  0  0  0  0  0
   -2.9324   -2.3696    1.9959 H   0  0  0  0  0  0  0  0  0  0  0  0
    0.8421    1.3228   -0.4280 H   0  0  0  0  0  0  0  0  0  0  0  0
    3.0998   -0.4521    1.8856 H   0  0  0  0  0  0  0  0  0  0  0  0
    3.0386    1.2993    1.9822 H   0  0  0  0  0  0  0  0  0  0  0  0
    5.3581    0.4491    2.3353 H   0  0  0  0  0  0  0  0  0  0  0  0
    6.5575   -0.6758    0.4605 H   0  0  0  0  0  0  0  0  0  0  0  0
    5.1584   -1.6248    0.9572 H   0  0  0  0  0  0  0  0  0  0  0  0
    5.2735   -1.4501   -1.5321 H   0  0  0  0  0  0  0  0  0  0  0  0
    4.9699    0.7761   -2.6198 H   0  0  0  0  0  0  0  0  0  0  0  0
    6.4455    0.7475   -1.6570 H   0  0  0  0  0  0  0  0  0  0  0  0
    5.1579    2.8444   -1.2374 H   0  0  0  0  0  0  0  0  0  0  0  0
    6.4956    1.8715    0.6321 H   0  0  0  0  0  0  0  0  0  0  0  0
    5.0548    2.6762    1.2496 H   0  0  0  0  0  0  0  0  0  0  0  0
    2.8898    1.9451   -1.7243 H   0  0  0  0  0  0  0  0  0  0  0  0
    2.9241    2.7186   -0.1481 H   0  0  0  0  0  0  0  0  0  0  0  0
    2.9537   -0.6109   -1.9074 H   0  0  0  0  0  0  0  0  0  0  0  0
    3.0477   -1.6063   -0.4648 H   0  0  0  0  0  0  0  0  0  0  0  0
   -4.3387    2.1466   -0.3001 H   0  0  0  0  0  0  0  0  0  0  0  0
   -2.8189    2.9896   -0.5970 H   0  0  0  0  0  0  0  0  0  0  0  0
   -2.6129    1.8550   -2.8321 H   0  0  0  0  0  0  0  0  0  0  0  0
   -4.1308    0.9963   -2.5411 H   0  0  0  0  0  0  0  0  0  0  0  0
   -4.1322    2.7608   -2.7117 H   0  0  0  0  0  0  0  0  0  0  0  0
   -4.7331    0.5102    2.4132 H   0  0  0  0  0  0  0  0  0  0  0  0
   -7.1452    0.0096    2.6444 H   0  0  0  0  0  0  0  0  0  0  0  0
   -8.3303   -1.2587    0.8708 H   0  0  0  0  0  0  0  0  0  0  0  0
   -7.0949   -2.0334   -1.1373 H   0  0  0  0  0  0  0  0  0  0  0  0
   -4.6829   -1.5389   -1.3795 H   0  0  0  0  0  0  0  0  0  0  0  0
  1  2  1  0
  2  3  1  0
  3  4  1  0
  4  5  1  0
  5  6  2  0
  5  7  1  0
  8  7  1  1
  8  9  1  0
  9 10  1  0
 10 11  1  0
 11 12  1  0
 12 13  1  0
 13 14  1  0
 14 15  1  0
 14 16  1  0
 12 17  1  0
  4 18  2  0
 18 19  1  0
 19 20  1  0
 20 21  1  0
 19 22  1  0
 22 23  1  0
 23 24  2  0
 24 25  1  0
 25 26  2  0
 26 27  1  0
 27 28  2  0
 22  3  2  0
 28 23  1  0
 16  8  1  0
 17  8  1  0
 15 10  1  0
  1 29  1  0
  1 30  1  0
  1 31  1  0
  2 32  1  0
  2 33  1  0
  7 34  1  0
  9 35  1  0
  9 36  1  0
 10 37  1  1
 11 38  1  0
 11 39  1  0
 12 40  1  6
 13 41  1  0
 13 42  1  0
 14 43  1  6
 15 44  1  0
 15 45  1  0
 16 46  1  0
 16 47  1  0
 17 48  1  0
 17 49  1  0
 20 50  1  0
 20 51  1  0
 21 52  1  0
 21 53  1  0
 21 54  1  0
 24 55  1  0
 25 56  1  0
 26 57  1  0
 27 58  1  0
 28 59  1  0
M  END
>  <_SMILES>  (76) 
CCc1c(C(=O)N[C@]23C[C@H]4C[C@H](C[C@H](C4)C2)C3)nn(CC)c1-c1ccccc1

$$$$

     RDKit          3D

 66 70  0  0  0  0  0  0  0  0999 V2000
    4.6425   -4.2608   -2.0972 C   0  0  0  0  0  0  0  0  0  0  0  0
    3.6474   -3.1445   -2.2697 C   0  0  0  0  0  0  0  0  0  0  0  0
    2.6483   -3.2668   -2.9699 O   0  0  0  0  0  0  0  0  0  0  0  0
    3.9630   -2.0002   -1.5685 N   0  0  0  0  0  0  0  0  0  0  0  0
    3.0301   -0.8897   -1.5047 C   0  0  0  0  0  0  0  0  0  0  0  0
    3.7642    0.4201   -1.2329 C   0  0  0  0  0  0  0  0  0  0  0  0
    2.8375    1.6329   -1.2746 C   0  0  0  0  0  0  0  0  0  0  0  0
    1.8724    1.6554   -0.1888 N   0  0  0  0  0  0  0  0  0  0  0  0
    0.6728    1.0792   -0.3893 N   0  0  0  0  0  0  0  0  0  0  0  0
    0.0292    1.2267    0.7869 C   0  0  0  0  0  0  0  0  0  0  0  0
   -1.3385    0.7003    0.9757 C   0  0  0  0  0  0  0  0  0  0  0  0
   -1.9537    0.8031    2.0313 O   0  0  0  0  0  0  0  0  0  0  0  0
   -1.8257    0.0808   -0.1546 N   0  0  0  0  0  0  0  0  0  0  0  0
   -3.1152   -0.5883   -0.2868 C   0  0  2  0  0  0  0  0  0  0  0  0
   -3.2395   -1.1373   -1.7330 C   0  0  0  0  0  0  0  0  0  0  0  0
   -4.5816   -1.8586   -1.9350 C   0  0  1  0  0  0  0  0  0  0  0  0
   -4.6798   -3.0278   -0.9425 C   0  0  0  0  0  0  0  0  0  0  0  0
   -4.5853   -2.5024    0.4987 C   0  0  2  0  0  0  0  0  0  0  0  0
   -5.7310   -1.5079    0.7522 C   0  0  0  0  0  0  0  0  0  0  0  0
   -5.6403   -0.3327   -0.2361 C   0  0  2  0  0  0  0  0  0  0  0  0
   -5.7290   -0.8706   -1.6730 C   0  0  0  0  0  0  0  0  0  0  0  0
   -4.2936    0.3872   -0.0444 C   0  0  0  0  0  0  0  0  0  0  0  0
   -3.2384   -1.7831    0.6905 C   0  0  0  0  0  0  0  0  0  0  0  0
    0.8444    1.9142    1.7357 C   0  0  0  0  0  0  0  0  0  0  0  0
    0.4774    2.2621    3.1330 C   0  0  0  0  0  0  0  0  0  0  0  0
    2.0326    2.1786    1.0706 C   0  0  0  0  0  0  0  0  0  0  0  0
    3.2437    2.8393    1.5405 C   0  0  0  0  0  0  0  0  0  0  0  0
    3.5014    4.1715    1.1990 C   0  0  0  0  0  0  0  0  0  0  0  0
    4.6640    4.7998    1.6489 C   0  0  0  0  0  0  0  0  0  0  0  0
    5.5703    4.1019    2.4463 C   0  0  0  0  0  0  0  0  0  0  0  0
    5.3139    2.7775    2.7990 C   0  0  0  0  0  0  0  0  0  0  0  0
    4.1519    2.1478    2.3497 C   0  0  0  0  0  0  0  0  0  0  0  0
    4.2260   -5.0102   -1.4193 H   0  0  0  0  0  0  0  0  0  0  0  0
    5.5895   -3.8958   -1.6897 H   0  0  0  0  0  0  0  0  0  0  0  0
    4.8435   -4.7149   -3.0715 H   0  0  0  0  0  0  0  0  0  0  0  0
    4.6310   -2.0919   -0.8140 H   0  0  0  0  0  0  0  0  0  0  0  0
    2.3208   -1.1237   -0.7044 H   0  0  0  0  0  0  0  0  0  0  0  0
    2.4726   -0.8299   -2.4459 H   0  0  0  0  0  0  0  0  0  0  0  0
    4.2774    0.3608   -0.2655 H   0  0  0  0  0  0  0  0  0  0  0  0
    4.5461    0.5551   -1.9910 H   0  0  0  0  0  0  0  0  0  0  0  0
    3.4229    2.5563   -1.2227 H   0  0  0  0  0  0  0  0  0  0  0  0
    2.2781    1.6671   -2.2173 H   0  0  0  0  0  0  0  0  0  0  0  0
   -1.1623    0.0599   -0.9268 H   0  0  0  0  0  0  0  0  0  0  0  0
   -3.1472   -0.3168   -2.4574 H   0  0  0  0  0  0  0  0  0  0  0  0
   -2.4128   -1.8281   -1.9469 H   0  0  0  0  0  0  0  0  0  0  0  0
   -4.6473   -2.2379   -2.9609 H   0  0  0  0  0  0  0  0  0  0  0  0
   -3.8756   -3.7494   -1.1320 H   0  0  0  0  0  0  0  0  0  0  0  0
   -5.6271   -3.5620   -1.0853 H   0  0  0  0  0  0  0  0  0  0  0  0
   -4.6598   -3.3392    1.2022 H   0  0  0  0  0  0  0  0  0  0  0  0
   -5.6828   -1.1354    1.7828 H   0  0  0  0  0  0  0  0  0  0  0  0
   -6.6974   -2.0151    0.6420 H   0  0  0  0  0  0  0  0  0  0  0  0
   -6.4624    0.3683   -0.0532 H   0  0  0  0  0  0  0  0  0  0  0  0
   -5.6798   -0.0402   -2.3880 H   0  0  0  0  0  0  0  0  0  0  0  0
   -6.6945   -1.3676   -1.8283 H   0  0  0  0  0  0  0  0  0  0  0  0
   -4.2249    1.2405   -0.7320 H   0  0  0  0  0  0  0  0  0  0  0  0
   -4.2538    0.8056    0.9682 H   0  0  0  0  0  0  0  0  0  0  0  0
   -3.1568   -1.4464    1.7310 H   0  0  0  0  0  0  0  0  0  0  0  0
   -2.4123   -2.4884    0.5306 H   0  0  0  0  0  0  0  0  0  0  0  0
    0.3025    1.3538    3.7185 H   0  0  0  0  0  0  0  0  0  0  0  0
    1.2653    2.8349    3.6316 H   0  0  0  0  0  0  0  0  0  0  0  0
   -0.4333    2.8693    3.1498 H   0  0  0  0  0  0  0  0  0  0  0  0
    2.7950    4.7290    0.5881 H   0  0  0  0  0  0  0  0  0  0  0  0
    4.8589    5.8357    1.3832 H   0  0  0  0  0  0  0  0  0  0  0  0
    6.4731    4.5936    2.8003 H   0  0  0  0  0  0  0  0  0  0  0  0
    6.0157    2.2373    3.4292 H   0  0  0  0  0  0  0  0  0  0  0  0
    3.9564    1.1174    2.6375 H   0  0  0  0  0  0  0  0  0  0  0  0
  1  2  1  0
  2  3  2  0
  2  4  1  0
  4  5  1  0
  5  6  1  0
  6  7  1  0
  7  8  1  0
  8  9  1  0
  9 10  2  0
 10 11  1  0
 11 12  2  0
 11 13  1  0
 14 13  1  6
 14 15  1  0
 15 16  1  0
 16 17  1  0
 17 18  1  0
 18 19  1  0
 19 20  1  0
 20 21  1  0
 20 22  1  0
 18 23  1  0
 10 24  1  0
 24 25  1  0
 24 26  2  0
 26 27  1  0
 27 28  2  0
 28 29  1  0
 29 30  2  0
 30 31  1  0
 31 32  2  0
 26  8  1  0
 32 27  1  0
 22 14  1  0
 23 14  1  0
 21 16  1  0
  1 33  1  0
  1 34  1  0
  1 35  1  0
  4 36  1  0
  5 37  1  0
  5 38  1  0
  6 39  1  0
  6 40  1  0
  7 41  1  0
  7 42  1  0
 13 43  1  0
 15 44  1  0
 15 45  1  0
 16 46  1  6
 17 47  1  0
 17 48  1  0
 18 49  1  1
 19 50  1  0
 19 51  1  0
 20 52  1  1
 21 53  1  0
 21 54  1  0
 22 55  1  0
 22 56  1  0
 23 57  1  0
 23 58  1  0
 25 59  1  0
 25 60  1  0
 25 61  1  0
 28 62  1  0
 29 63  1  0
 30 64  1  0
 31 65  1  0
 32 66  1  0
M  END
>  <_SMILES>  (77) 
CC(=O)NCCCn1nc(C(=O)N[C@]23C[C@H]4C[C@H](C[C@H](C4)C2)C3)c(C)c1-c1ccccc1

$$$$

     RDKit          3D

 62 66  0  0  0  0  0  0  0  0999 V2000
   -0.3382   -2.7700    0.7106 C   0  0  0  0  0  0  0  0  0  0  0  0
   -0.7739   -1.3751    0.4475 C   0  0  0  0  0  0  0  0  0  0  0  0
   -0.1148   -0.1630    0.7983 C   0  0  0  0  0  0  0  0  0  0  0  0
    1.1735    0.0290    1.5389 C   0  0  0  0  0  0  0  0  0  0  0  0
    2.4436    0.1781    0.6631 C   0  0  2  0  0  0  0  0  0  0  0  0
    3.6662    0.3536    1.6087 C   0  0  0  0  0  0  0  0  0  0  0  0
    4.9686    0.5101    0.8079 C   0  0  1  0  0  0  0  0  0  0  0  0
    5.1817   -0.7410   -0.0579 C   0  0  0  0  0  0  0  0  0  0  0  0
    4.0011   -0.9164   -1.0252 C   0  0  2  0  0  0  0  0  0  0  0  0
    3.8941    0.3253   -1.9254 C   0  0  0  0  0  0  0  0  0  0  0  0
    3.6758    1.5813   -1.0660 C   0  0  2  0  0  0  0  0  0  0  0  0
    4.8575    1.7456   -0.0983 C   0  0  0  0  0  0  0  0  0  0  0  0
    2.3735    1.4229   -0.2606 C   0  0  0  0  0  0  0  0  0  0  0  0
    2.6990   -1.0718   -0.2186 C   0  0  0  0  0  0  0  0  0  0  0  0
   -0.8127    0.9087    0.4071 N   0  0  0  0  0  0  0  0  0  0  0  0
   -1.8999    0.3988   -0.1991 N   0  0  0  0  0  0  0  0  0  0  0  0
   -2.8795    1.3191   -0.7454 C   0  0  0  0  0  0  0  0  0  0  0  0
   -4.1048    1.5325    0.1450 C   0  0  0  0  0  0  0  0  0  0  0  0
   -3.8210    2.0790    1.5462 C   0  0  0  0  0  0  0  0  0  0  0  0
   -3.0993    3.4196    1.5556 C   0  0  0  0  0  0  0  0  0  0  0  0
   -3.0824    3.9192    2.8874 O   0  0  0  0  0  0  0  0  0  0  0  0
   -1.9196   -0.9739   -0.2250 C   0  0  0  0  0  0  0  0  0  0  0  0
   -2.9727   -1.7747   -0.8359 C   0  0  0  0  0  0  0  0  0  0  0  0
   -2.9843   -1.9899   -2.2184 C   0  0  0  0  0  0  0  0  0  0  0  0
   -3.9934   -2.7582   -2.8016 C   0  0  0  0  0  0  0  0  0  0  0  0
   -4.9919   -3.3184   -2.0056 C   0  0  0  0  0  0  0  0  0  0  0  0
   -4.9808   -3.1152   -0.6262 C   0  0  0  0  0  0  0  0  0  0  0  0
   -3.9718   -2.3478   -0.0418 C   0  0  0  0  0  0  0  0  0  0  0  0
    0.4933   -2.8113    1.4193 H   0  0  0  0  0  0  0  0  0  0  0  0
   -1.1582   -3.3596    1.1331 H   0  0  0  0  0  0  0  0  0  0  0  0
   -0.0137   -3.2470   -0.2198 H   0  0  0  0  0  0  0  0  0  0  0  0
    1.0731    0.9177    2.1781 H   0  0  0  0  0  0  0  0  0  0  0  0
    1.3082   -0.8100    2.2336 H   0  0  0  0  0  0  0  0  0  0  0  0
    3.5239    1.2334    2.2498 H   0  0  0  0  0  0  0  0  0  0  0  0
    3.7518   -0.5119    2.2788 H   0  0  0  0  0  0  0  0  0  0  0  0
    5.8130    0.6314    1.4957 H   0  0  0  0  0  0  0  0  0  0  0  0
    6.1183   -0.6512   -0.6220 H   0  0  0  0  0  0  0  0  0  0  0  0
    5.2785   -1.6276    0.5807 H   0  0  0  0  0  0  0  0  0  0  0  0
    4.1597   -1.8074   -1.6430 H   0  0  0  0  0  0  0  0  0  0  0  0
    3.0641    0.2055   -2.6326 H   0  0  0  0  0  0  0  0  0  0  0  0
    4.8076    0.4345   -2.5227 H   0  0  0  0  0  0  0  0  0  0  0  0
    3.6035    2.4628   -1.7129 H   0  0  0  0  0  0  0  0  0  0  0  0
    5.7882    1.8811   -0.6629 H   0  0  0  0  0  0  0  0  0  0  0  0
    4.7209    2.6474    0.5111 H   0  0  0  0  0  0  0  0  0  0  0  0
    2.1963    2.3270    0.3359 H   0  0  0  0  0  0  0  0  0  0  0  0
    1.5365    1.3368   -0.9637 H   0  0  0  0  0  0  0  0  0  0  0  0
    2.7613   -1.9704    0.4082 H   0  0  0  0  0  0  0  0  0  0  0  0
    1.8691   -1.2274   -0.9181 H   0  0  0  0  0  0  0  0  0  0  0  0
   -2.3714    2.2700   -0.9439 H   0  0  0  0  0  0  0  0  0  0  0  0
   -3.1902    0.9289   -1.7207 H   0  0  0  0  0  0  0  0  0  0  0  0
   -4.7870    2.2205   -0.3698 H   0  0  0  0  0  0  0  0  0  0  0  0
   -4.6492    0.5873    0.2528 H   0  0  0  0  0  0  0  0  0  0  0  0
   -4.7751    2.1845    2.0790 H   0  0  0  0  0  0  0  0  0  0  0  0
   -3.2466    1.3517    2.1330 H   0  0  0  0  0  0  0  0  0  0  0  0
   -2.0663    3.3207    1.2118 H   0  0  0  0  0  0  0  0  0  0  0  0
   -3.6166    4.1485    0.9241 H   0  0  0  0  0  0  0  0  0  0  0  0
   -2.4840    4.6857    2.8926 H   0  0  0  0  0  0  0  0  0  0  0  0
   -2.2038   -1.5655   -2.8457 H   0  0  0  0  0  0  0  0  0  0  0  0
   -3.9976   -2.9234   -3.8759 H   0  0  0  0  0  0  0  0  0  0  0  0
   -5.7765   -3.9183   -2.4599 H   0  0  0  0  0  0  0  0  0  0  0  0
   -5.7558   -3.5559   -0.0046 H   0  0  0  0  0  0  0  0  0  0  0  0
   -3.9690   -2.1961    1.0354 H   0  0  0  0  0  0  0  0  0  0  0  0
  1  2  1  0
  2  3  1  0
  3  4  1  0
  5  4  1  1
  5  6  1  0
  6  7  1  0
  7  8  1  0
  8  9  1  0
  9 10  1  0
 10 11  1  0
 11 12  1  0
 11 13  1  0
  9 14  1  0
  3 15  2  0
 15 16  1  0
 16 17  1  0
 17 18  1  0
 18 19  1  0
 19 20  1  0
 20 21  1  0
 16 22  1  0
 22 23  1  0
 23 24  2  0
 24 25  1  0
 25 26  2  0
 26 27  1  0
 27 28  2  0
 22  2  2  0
 28 23  1  0
 13  5  1  0
 14  5  1  0
 12  7  1  0
  1 29  1  0
  1 30  1  0
  1 31  1  0
  4 32  1  0
  4 33  1  0
  6 34  1  0
  6 35  1  0
  7 36  1  1
  8 37  1  0
  8 38  1  0
  9 39  1  6
 10 40  1  0
 10 41  1  0
 11 42  1  6
 12 43  1  0
 12 44  1  0
 13 45  1  0
 13 46  1  0
 14 47  1  0
 14 48  1  0
 17 49  1  0
 17 50  1  0
 18 51  1  0
 18 52  1  0
 19 53  1  0
 19 54  1  0
 20 55  1  0
 20 56  1  0
 21 57  1  0
 24 58  1  0
 25 59  1  0
 26 60  1  0
 27 61  1  0
 28 62  1  0
M  END
>  <_SMILES>  (78) 
Cc1c(C[C@]23C[C@H]4C[C@H](C[C@H](C4)C2)C3)nn(CCCCO)c1-c1ccccc1

$$$$

     RDKit          3D

 67 71  0  0  0  0  0  0  0  0999 V2000
    0.1122   -2.0908    0.0099 C   0  0  0  0  0  0  0  0  0  0  0  0
    0.9514   -0.9381    0.4256 C   0  0  0  0  0  0  0  0  0  0  0  0
    0.5356    0.1685    1.2291 C   0  0  0  0  0  0  0  0  0  0  0  0
   -0.8194    0.4526    1.7333 C   0  0  0  0  0  0  0  0  0  0  0  0
   -1.0679    0.7034    2.9085 O   0  0  0  0  0  0  0  0  0  0  0  0
   -1.7772    0.4257    0.7309 N   0  0  0  0  0  0  0  0  0  0  0  0
   -3.1760    0.8139    0.9040 C   0  0  2  0  0  0  0  0  0  0  0  0
   -3.8985   -0.0678    1.9543 C   0  0  0  0  0  0  0  0  0  0  0  0
   -5.3801    0.3324    2.0714 C   0  0  1  0  0  0  0  0  0  0  0  0
   -5.4730    1.8116    2.4834 C   0  0  0  0  0  0  0  0  0  0  0  0
   -4.7917    2.6993    1.4280 C   0  0  2  0  0  0  0  0  0  0  0  0
   -5.4821    2.4928    0.0705 C   0  0  0  0  0  0  0  0  0  0  0  0
   -5.3850    1.0175   -0.3491 C   0  0  2  0  0  0  0  0  0  0  0  0
   -6.0680    0.1403    0.7111 C   0  0  0  0  0  0  0  0  0  0  0  0
   -3.9043    0.6197   -0.4540 C   0  0  0  0  0  0  0  0  0  0  0  0
   -3.3096    2.3017    1.3108 C   0  0  0  0  0  0  0  0  0  0  0  0
    1.5537    1.0064    1.4609 N   0  0  0  0  0  0  0  0  0  0  0  0
    2.5946    0.4862    0.7768 N   0  0  0  0  0  0  0  0  0  0  0  0
    3.8668    1.1915    0.8432 C   0  0  0  0  0  0  0  0  0  0  0  0
    3.9259    2.4390   -0.0441 C   0  0  0  0  0  0  0  0  0  0  0  0
    3.9058    2.1598   -1.5453 C   0  0  0  0  0  0  0  0  0  0  0  0
    5.1173    1.4173   -2.1115 C   0  0  0  0  0  0  0  0  0  0  0  0
    6.0750    1.2243   -1.3138 O   0  0  0  0  0  0  0  0  0  0  0  0
    4.9962    1.0682   -3.3191 O   0  0  0  0  0  0  0  0  0  0  0  0
    2.2885   -0.6944    0.1332 C   0  0  0  0  0  0  0  0  0  0  0  0
    3.2884   -1.4759   -0.6881 C   0  0  0  0  0  0  0  0  0  0  0  0
    3.7669   -2.7316    0.0670 C   0  0  0  0  0  0  0  0  0  0  0  0
    4.2445   -3.8532   -0.8594 C   0  0  0  0  0  0  0  0  0  0  0  0
    4.8507   -3.3078   -2.1449 C   0  0  0  0  0  0  0  0  0  0  0  0
    3.8404   -2.4883   -2.9496 C   0  0  0  0  0  0  0  0  0  0  0  0
    2.7620   -1.8249   -2.0866 C   0  0  0  0  0  0  0  0  0  0  0  0
   -0.3348   -1.9007   -0.9709 H   0  0  0  0  0  0  0  0  0  0  0  0
    0.6982   -3.0125   -0.0475 H   0  0  0  0  0  0  0  0  0  0  0  0
   -0.6962   -2.2720    0.7255 H   0  0  0  0  0  0  0  0  0  0  0  0
   -1.3949    0.4588   -0.2074 H   0  0  0  0  0  0  0  0  0  0  0  0
   -3.4298    0.0271    2.9402 H   0  0  0  0  0  0  0  0  0  0  0  0
   -3.8177   -1.1271    1.6771 H   0  0  0  0  0  0  0  0  0  0  0  0
   -5.8723   -0.2926    2.8250 H   0  0  0  0  0  0  0  0  0  0  0  0
   -4.9974    1.9591    3.4608 H   0  0  0  0  0  0  0  0  0  0  0  0
   -6.5247    2.1031    2.5942 H   0  0  0  0  0  0  0  0  0  0  0  0
   -4.8686    3.7513    1.7247 H   0  0  0  0  0  0  0  0  0  0  0  0
   -5.0138    3.1306   -0.6892 H   0  0  0  0  0  0  0  0  0  0  0  0
   -6.5345    2.7954    0.1354 H   0  0  0  0  0  0  0  0  0  0  0  0
   -5.8760    0.8757   -1.3184 H   0  0  0  0  0  0  0  0  0  0  0  0
   -6.0212   -0.9142    0.4127 H   0  0  0  0  0  0  0  0  0  0  0  0
   -7.1303    0.4028    0.7875 H   0  0  0  0  0  0  0  0  0  0  0  0
   -3.8227   -0.4261   -0.7796 H   0  0  0  0  0  0  0  0  0  0  0  0
   -3.4166    1.2209   -1.2332 H   0  0  0  0  0  0  0  0  0  0  0  0
   -2.8102    2.4908    2.2687 H   0  0  0  0  0  0  0  0  0  0  0  0
   -2.8088    2.9414    0.5723 H   0  0  0  0  0  0  0  0  0  0  0  0
    3.9862    1.4971    1.8910 H   0  0  0  0  0  0  0  0  0  0  0  0
    4.6772    0.4873    0.6488 H   0  0  0  0  0  0  0  0  0  0  0  0
    4.8353    2.9991    0.2068 H   0  0  0  0  0  0  0  0  0  0  0  0
    3.0819    3.0976    0.1965 H   0  0  0  0  0  0  0  0  0  0  0  0
    3.8535    3.1209   -2.0725 H   0  0  0  0  0  0  0  0  0  0  0  0
    2.9981    1.6064   -1.8124 H   0  0  0  0  0  0  0  0  0  0  0  0
    4.1729   -0.8560   -0.8580 H   0  0  0  0  0  0  0  0  0  0  0  0
    4.5889   -2.4392    0.7343 H   0  0  0  0  0  0  0  0  0  0  0  0
    2.9879   -3.1359    0.7248 H   0  0  0  0  0  0  0  0  0  0  0  0
    3.3967   -4.5038   -1.1087 H   0  0  0  0  0  0  0  0  0  0  0  0
    4.9735   -4.4785   -0.3317 H   0  0  0  0  0  0  0  0  0  0  0  0
    5.2333   -4.1280   -2.7629 H   0  0  0  0  0  0  0  0  0  0  0  0
    5.7136   -2.6771   -1.8958 H   0  0  0  0  0  0  0  0  0  0  0  0
    4.3821   -1.7262   -3.5217 H   0  0  0  0  0  0  0  0  0  0  0  0
    3.3489   -3.1307   -3.6905 H   0  0  0  0  0  0  0  0  0  0  0  0
    2.3863   -0.9306   -2.5989 H   0  0  0  0  0  0  0  0  0  0  0  0
    1.9126   -2.5137   -2.0135 H   0  0  0  0  0  0  0  0  0  0  0  0
  1  2  1  0
  2  3  1  0
  3  4  1  0
  4  5  2  0
  4  6  1  0
  7  6  1  6
  7  8  1  0
  8  9  1  0
  9 10  1  0
 10 11  1  0
 11 12  1  0
 12 13  1  0
 13 14  1  0
 13 15  1  0
 11 16  1  0
  3 17  2  0
 17 18  1  0
 18 19  1  0
 19 20  1  0
 20 21  1  0
 21 22  1  0
 22 23  2  0
 22 24  1  0
 18 25  1  0
 25 26  1  0
 26 27  1  0
 27 28  1  0
 28 29  1  0
 29 30  1  0
 30 31  1  0
 25  2  2  0
 31 26  1  0
 15  7  1  0
 16  7  1  0
 14  9  1  0
  1 32  1  0
  1 33  1  0
  1 34  1  0
  6 35  1  0
  8 36  1  0
  8 37  1  0
  9 38  1  1
 10 39  1  0
 10 40  1  0
 11 41  1  1
 12 42  1  0
 12 43  1  0
 13 44  1  6
 14 45  1  0
 14 46  1  0
 15 47  1  0
 15 48  1  0
 16 49  1  0
 16 50  1  0
 19 51  1  0
 19 52  1  0
 20 53  1  0
 20 54  1  0
 21 55  1  0
 21 56  1  0
 26 57  1  0
 27 58  1  0
 27 59  1  0
 28 60  1  0
 28 61  1  0
 29 62  1  0
 29 63  1  0
 30 64  1  0
 30 65  1  0
 31 66  1  0
 31 67  1  0
M  CHG  1  24  -1
M  END
>  <_SMILES>  (79) 
Cc1c(C(=O)N[C@]23C[C@H]4C[C@H](C[C@H](C4)C2)C3)nn(CCCC(=O)[O-])c1C1CCCCC1

$$$$

     RDKit          3D

 69 74  0  0  0  0  0  0  0  0999 V2000
    0.4862    1.3388    2.0807 C   0  0  0  0  0  0  0  0  0  0  0  0
   -0.2997    0.3593    1.2856 C   0  0  0  0  0  0  0  0  0  0  0  0
    0.1808   -0.8180    0.6231 C   0  0  0  0  0  0  0  0  0  0  0  0
    1.5692   -1.3153    0.5289 C   0  0  0  0  0  0  0  0  0  0  0  0
    1.8604   -2.5025    0.6315 O   0  0  0  0  0  0  0  0  0  0  0  0
    2.4996   -0.3174    0.2862 N   0  0  0  0  0  0  0  0  0  0  0  0
    3.9245   -0.5505    0.0398 C   0  0  2  0  0  0  0  0  0  0  0  0
    4.1538   -1.3850   -1.2440 C   0  0  0  0  0  0  0  0  0  0  0  0
    5.6589   -1.5634   -1.5113 C   0  0  1  0  0  0  0  0  0  0  0  0
    6.3095   -0.1831   -1.6952 C   0  0  0  0  0  0  0  0  0  0  0  0
    6.1170    0.6615   -0.4258 C   0  0  2  0  0  0  0  0  0  0  0  0
    6.7674   -0.0559    0.7668 C   0  0  0  0  0  0  0  0  0  0  0  0
    6.1186   -1.4343    0.9656 C   0  0  2  0  0  0  0  0  0  0  0  0
    6.3067   -2.2731   -0.3101 C   0  0  0  0  0  0  0  0  0  0  0  0
    4.6140   -1.2552    1.2359 C   0  0  0  0  0  0  0  0  0  0  0  0
    4.6136    0.8281   -0.1544 C   0  0  0  0  0  0  0  0  0  0  0  0
   -0.8306   -1.4795    0.0366 N   0  0  0  0  0  0  0  0  0  0  0  0
   -1.9260   -0.7561    0.3167 N   0  0  0  0  0  0  0  0  0  0  0  0
   -3.2100   -1.2243   -0.1794 C   0  0  0  0  0  0  0  0  0  0  0  0
   -3.5207   -0.6812   -1.5727 C   0  0  0  0  0  0  0  0  0  0  0  0
   -4.8807   -1.1752   -2.0692 C   0  0  0  0  0  0  0  0  0  0  0  0
   -5.1999   -0.6158   -3.4586 C   0  0  0  0  0  0  0  0  0  0  0  0
   -6.5805   -1.0291   -3.9572 C   0  0  0  0  0  0  0  0  0  0  0  0
   -6.6390   -2.4270   -4.1986 O   0  0  0  0  0  0  0  0  0  0  0  0
   -1.6671    0.3746    1.0509 C   0  0  0  0  0  0  0  0  0  0  0  0
   -2.6794    1.3358    1.4692 C   0  0  0  0  0  0  0  0  0  0  0  0
   -2.8947    2.5033    0.7060 C   0  0  0  0  0  0  0  0  0  0  0  0
   -3.8606    3.4394    1.0884 C   0  0  0  0  0  0  0  0  0  0  0  0
   -4.5832    3.1812    2.2327 C   0  0  0  0  0  0  0  0  0  0  0  0
   -4.3719    2.0484    2.9834 C   0  0  0  0  0  0  0  0  0  0  0  0
   -3.4273    1.1076    2.6319 C   0  0  0  0  0  0  0  0  0  0  0  0
   -5.1868    1.9877    4.0704 O   0  0  0  0  0  0  0  0  0  0  0  0
   -5.9294    3.2162    3.9233 C   0  0  0  0  0  0  0  0  0  0  0  0
   -5.5569    3.9744    2.7532 O   0  0  0  0  0  0  0  0  0  0  0  0
    1.2976    0.8440    2.6237 H   0  0  0  0  0  0  0  0  0  0  0  0
    0.9191    2.1001    1.4242 H   0  0  0  0  0  0  0  0  0  0  0  0
   -0.1389    1.8454    2.8230 H   0  0  0  0  0  0  0  0  0  0  0  0
    2.1144    0.5603   -0.0360 H   0  0  0  0  0  0  0  0  0  0  0  0
    3.6777   -0.8944   -2.1031 H   0  0  0  0  0  0  0  0  0  0  0  0
    3.6856   -2.3727   -1.1571 H   0  0  0  0  0  0  0  0  0  0  0  0
    5.8037   -2.1631   -2.4169 H   0  0  0  0  0  0  0  0  0  0  0  0
    7.3790   -0.2985   -1.9098 H   0  0  0  0  0  0  0  0  0  0  0  0
    5.8652    0.3289   -2.5575 H   0  0  0  0  0  0  0  0  0  0  0  0
    6.5798    1.6452   -0.5626 H   0  0  0  0  0  0  0  0  0  0  0  0
    7.8446   -0.1697    0.5942 H   0  0  0  0  0  0  0  0  0  0  0  0
    6.6525    0.5473    1.6758 H   0  0  0  0  0  0  0  0  0  0  0  0
    6.5876   -1.9435    1.8150 H   0  0  0  0  0  0  0  0  0  0  0  0
    7.3758   -2.4290   -0.5004 H   0  0  0  0  0  0  0  0  0  0  0  0
    5.8595   -3.2657   -0.1755 H   0  0  0  0  0  0  0  0  0  0  0  0
    4.1710   -2.2396    1.4241 H   0  0  0  0  0  0  0  0  0  0  0  0
    4.4655   -0.6715    2.1539 H   0  0  0  0  0  0  0  0  0  0  0  0
    4.1473    1.3688   -0.9890 H   0  0  0  0  0  0  0  0  0  0  0  0
    4.4638    1.4532    0.7361 H   0  0  0  0  0  0  0  0  0  0  0  0
   -3.1765   -2.3205   -0.1877 H   0  0  0  0  0  0  0  0  0  0  0  0
   -3.9814   -0.9318    0.5401 H   0  0  0  0  0  0  0  0  0  0  0  0
   -3.5114    0.4153   -1.5568 H   0  0  0  0  0  0  0  0  0  0  0  0
   -2.7362   -0.9905   -2.2747 H   0  0  0  0  0  0  0  0  0  0  0  0
   -5.6620   -0.8691   -1.3630 H   0  0  0  0  0  0  0  0  0  0  0  0
   -4.8786   -2.2709   -2.0967 H   0  0  0  0  0  0  0  0  0  0  0  0
   -4.4388   -0.9672   -4.1657 H   0  0  0  0  0  0  0  0  0  0  0  0
   -5.1481    0.4789   -3.4308 H   0  0  0  0  0  0  0  0  0  0  0  0
   -7.3656   -0.7575   -3.2441 H   0  0  0  0  0  0  0  0  0  0  0  0
   -6.7962   -0.5231   -4.9034 H   0  0  0  0  0  0  0  0  0  0  0  0
   -6.6194   -2.8810   -3.3398 H   0  0  0  0  0  0  0  0  0  0  0  0
   -2.3065    2.6826   -0.1919 H   0  0  0  0  0  0  0  0  0  0  0  0
   -4.0347    4.3385    0.5081 H   0  0  0  0  0  0  0  0  0  0  0  0
   -3.2731    0.2249    3.2434 H   0  0  0  0  0  0  0  0  0  0  0  0
   -6.9966    2.9750    3.8593 H   0  0  0  0  0  0  0  0  0  0  0  0
   -5.7613    3.8364    4.8113 H   0  0  0  0  0  0  0  0  0  0  0  0
  1  2  1  0
  2  3  1  0
  3  4  1  0
  4  5  2  0
  4  6  1  0
  7  6  1  1
  7  8  1  0
  8  9  1  0
  9 10  1  0
 10 11  1  0
 11 12  1  0
 12 13  1  0
 13 14  1  0
 13 15  1  0
 11 16  1  0
  3 17  2  0
 17 18  1  0
 18 19  1  0
 19 20  1  0
 20 21  1  0
 21 22  1  0
 22 23  1  0
 23 24  1  0
 18 25  1  0
 25 26  1  0
 26 27  1  0
 27 28  2  0
 28 29  1  0
 29 30  2  0
 30 31  1  0
 30 32  1  0
 32 33  1  0
 33 34  1  0
 25  2  2  0
 31 26  2  0
 15  7  1  0
 34 29  1  0
 16  7  1  0
 14  9  1  0
  1 35  1  0
  1 36  1  0
  1 37  1  0
  6 38  1  0
  8 39  1  0
  8 40  1  0
  9 41  1  6
 10 42  1  0
 10 43  1  0
 11 44  1  6
 12 45  1  0
 12 46  1  0
 13 47  1  1
 14 48  1  0
 14 49  1  0
 15 50  1  0
 15 51  1  0
 16 52  1  0
 16 53  1  0
 19 54  1  0
 19 55  1  0
 20 56  1  0
 20 57  1  0
 21 58  1  0
 21 59  1  0
 22 60  1  0
 22 61  1  0
 23 62  1  0
 23 63  1  0
 24 64  1  0
 27 65  1  0
 28 66  1  0
 31 67  1  0
 33 68  1  0
 33 69  1  0
M  END
>  <_SMILES>  (80) 
Cc1c(C(=O)N[C@]23C[C@H]4C[C@H](C[C@H](C4)C2)C3)nn(CCCCCO)c1-c1ccc2c(c1)OCO2

$$$$

     RDKit          3D

 65 70  0  0  0  0  0  0  0  0999 V2000
   -0.9298    3.4598    0.6930 C   0  0  0  0  0  0  0  0  0  0  0  0
   -1.3278    2.1271    0.1602 C   0  0  0  0  0  0  0  0  0  0  0  0
   -0.5332    0.9427    0.1476 C   0  0  0  0  0  0  0  0  0  0  0  0
    0.8373    0.7835    0.6808 C   0  0  0  0  0  0  0  0  0  0  0  0
    1.3388    1.5929    1.4486 O   0  0  0  0  0  0  0  0  0  0  0  0
    1.4706   -0.3537    0.2156 N   0  0  0  0  0  0  0  0  0  0  0  0
    2.8800   -0.6792    0.4593 C   0  0  2  0  0  0  0  0  0  0  0  0
    3.1900   -0.8259    1.9707 C   0  0  0  0  0  0  0  0  0  0  0  0
    4.6624   -1.2194    2.1858 C   0  0  1  0  0  0  0  0  0  0  0  0
    4.9361   -2.5635    1.4938 C   0  0  0  0  0  0  0  0  0  0  0  0
    4.6549   -2.4441   -0.0119 C   0  0  2  0  0  0  0  0  0  0  0  0
    5.5641   -1.3621   -0.6157 C   0  0  0  0  0  0  0  0  0  0  0  0
    5.2953   -0.0102    0.0645 C   0  0  2  0  0  0  0  0  0  0  0  0
    5.5691   -0.1384    1.5728 C   0  0  0  0  0  0  0  0  0  0  0  0
    3.8238    0.3847   -0.1523 C   0  0  0  0  0  0  0  0  0  0  0  0
    3.1862   -2.0418   -0.2194 C   0  0  0  0  0  0  0  0  0  0  0  0
   -1.1984   -0.0903   -0.4167 N   0  0  0  0  0  0  0  0  0  0  0  0
   -2.3963    0.4387   -0.7649 N   0  0  0  0  0  0  0  0  0  0  0  0
   -3.4513   -0.3736   -1.3060 N   0  0  0  0  0  0  0  0  0  0  0  0
   -2.9661   -1.3118   -2.3337 C   0  0  0  0  0  0  0  0  0  0  0  0
   -2.4545   -2.6764   -1.8106 C   0  0  0  0  0  0  0  0  0  0  0  0
   -2.1963   -2.6066   -0.3388 N   0  0  0  0  0  0  0  0  0  0  0  0
   -3.4041   -2.2177    0.4616 C   0  0  0  0  0  0  0  0  0  0  0  0
   -4.1799   -1.0748   -0.2345 C   0  0  0  0  0  0  0  0  0  0  0  0
   -2.5267    1.7685   -0.4381 C   0  0  0  0  0  0  0  0  0  0  0  0
   -3.7390    2.5557   -0.6676 C   0  0  0  0  0  0  0  0  0  0  0  0
   -4.4094    3.1446    0.4129 C   0  0  0  0  0  0  0  0  0  0  0  0
   -5.5675    3.8958    0.2025 C   0  0  0  0  0  0  0  0  0  0  0  0
   -6.0626    4.0673   -1.0885 C   0  0  0  0  0  0  0  0  0  0  0  0
   -5.3997    3.4916   -2.1705 C   0  0  0  0  0  0  0  0  0  0  0  0
   -4.2413    2.7399   -1.9620 C   0  0  0  0  0  0  0  0  0  0  0  0
    0.0782    3.7253    0.3585 H   0  0  0  0  0  0  0  0  0  0  0  0
   -0.9438    3.4492    1.7873 H   0  0  0  0  0  0  0  0  0  0  0  0
   -1.6023    4.2519    0.3504 H   0  0  0  0  0  0  0  0  0  0  0  0
    1.0233   -0.7740   -0.5880 H   0  0  0  0  0  0  0  0  0  0  0  0
    2.5313   -1.5812    2.4192 H   0  0  0  0  0  0  0  0  0  0  0  0
    2.9936    0.1092    2.5071 H   0  0  0  0  0  0  0  0  0  0  0  0
    4.8671   -1.3085    3.2586 H   0  0  0  0  0  0  0  0  0  0  0  0
    5.9780   -2.8647    1.6580 H   0  0  0  0  0  0  0  0  0  0  0  0
    4.3054   -3.3465    1.9324 H   0  0  0  0  0  0  0  0  0  0  0  0
    4.8483   -3.4050   -0.5015 H   0  0  0  0  0  0  0  0  0  0  0  0
    5.3851   -1.2809   -1.6949 H   0  0  0  0  0  0  0  0  0  0  0  0
    6.6167   -1.6431   -0.4879 H   0  0  0  0  0  0  0  0  0  0  0  0
    5.9497    0.7561   -0.3660 H   0  0  0  0  0  0  0  0  0  0  0  0
    5.3931    0.8240    2.0687 H   0  0  0  0  0  0  0  0  0  0  0  0
    6.6223   -0.3950    1.7408 H   0  0  0  0  0  0  0  0  0  0  0  0
    3.6215    0.4966   -1.2256 H   0  0  0  0  0  0  0  0  0  0  0  0
    3.6455    1.3688    0.2975 H   0  0  0  0  0  0  0  0  0  0  0  0
    2.5266   -2.8214    0.1849 H   0  0  0  0  0  0  0  0  0  0  0  0
    2.9688   -1.9853   -1.2946 H   0  0  0  0  0  0  0  0  0  0  0  0
   -2.1925   -0.8394   -2.9538 H   0  0  0  0  0  0  0  0  0  0  0  0
   -3.7914   -1.5112   -3.0293 H   0  0  0  0  0  0  0  0  0  0  0  0
   -3.1936   -3.4696   -1.9630 H   0  0  0  0  0  0  0  0  0  0  0  0
   -1.5102   -2.9564   -2.2864 H   0  0  0  0  0  0  0  0  0  0  0  0
   -1.5046   -1.8395   -0.2028 H   0  0  0  0  0  0  0  0  0  0  0  0
   -1.7616   -3.4622    0.0239 H   0  0  0  0  0  0  0  0  0  0  0  0
   -4.0229   -3.1137    0.5689 H   0  0  0  0  0  0  0  0  0  0  0  0
   -3.0304   -1.9075    1.4422 H   0  0  0  0  0  0  0  0  0  0  0  0
   -4.5454   -0.3679    0.5212 H   0  0  0  0  0  0  0  0  0  0  0  0
   -5.0897   -1.5028   -0.6766 H   0  0  0  0  0  0  0  0  0  0  0  0
   -4.0362    3.0289    1.4279 H   0  0  0  0  0  0  0  0  0  0  0  0
   -6.0801    4.3548    1.0448 H   0  0  0  0  0  0  0  0  0  0  0  0
   -6.9607    4.6587   -1.2525 H   0  0  0  0  0  0  0  0  0  0  0  0
   -5.7813    3.6368   -3.1785 H   0  0  0  0  0  0  0  0  0  0  0  0
   -3.7324    2.3119   -2.8220 H   0  0  0  0  0  0  0  0  0  0  0  0
  1  2  1  0
  2  3  1  0
  3  4  1  0
  4  5  2  0
  4  6  1  0
  7  6  1  1
  7  8  1  0
  8  9  1  0
  9 10  1  0
 10 11  1  0
 11 12  1  0
 12 13  1  0
 13 14  1  0
 13 15  1  0
 11 16  1  0
  3 17  2  0
 17 18  1  0
 18 19  1  0
 19 20  1  0
 20 21  1  0
 21 22  1  0
 22 23  1  0
 23 24  1  0
 18 25  1  0
 25 26  1  0
 26 27  2  0
 27 28  1  0
 28 29  2  0
 29 30  1  0
 30 31  2  0
 25  2  2  0
 31 26  1  0
 15  7  1  0
 24 19  1  0
 16  7  1  0
 14  9  1  0
  1 32  1  0
  1 33  1  0
  1 34  1  0
  6 35  1  0
  8 36  1  0
  8 37  1  0
  9 38  1  1
 10 39  1  0
 10 40  1  0
 11 41  1  6
 12 42  1  0
 12 43  1  0
 13 44  1  6
 14 45  1  0
 14 46  1  0
 15 47  1  0
 15 48  1  0
 16 49  1  0
 16 50  1  0
 20 51  1  0
 20 52  1  0
 21 53  1  0
 21 54  1  0
 22 55  1  0
 22 56  1  0
 23 57  1  0
 23 58  1  0
 24 59  1  0
 24 60  1  0
 27 61  1  0
 28 62  1  0
 29 63  1  0
 30 64  1  0
 31 65  1  0
M  CHG  1  22   1
M  END
>  <_SMILES>  (81) 
Cc1c(C(=O)N[C@]23C[C@H]4C[C@H](C[C@H](C4)C2)C3)nn(N2CC[NH2+]CC2)c1-c1ccccc1

$$$$

     RDKit          3D

 47 49  0  0  0  0  0  0  0  0999 V2000
    6.0111    0.6614   -0.3256 C   0  0  0  0  0  0  0  0  0  0  0  0
    4.5102    0.9085   -0.3227 C   0  0  0  0  0  0  0  0  0  0  0  0
    3.7841   -0.0840    0.5860 C   0  0  0  0  0  0  0  0  0  0  0  0
    2.2834    0.1909    0.7072 C   0  0  0  0  0  0  0  0  0  0  0  0
    1.5291    0.0055   -0.6085 C   0  0  0  0  0  0  0  0  0  0  0  0
    0.0908    0.1322   -0.4315 N   0  0  0  0  0  0  0  0  0  0  0  0
   -0.4540    1.3597   -0.4709 N   0  0  0  0  0  0  0  0  0  0  0  0
   -1.7620    1.1622   -0.2501 C   0  0  0  0  0  0  0  0  0  0  0  0
   -2.6822    2.2990   -0.1942 C   0  0  0  0  0  0  0  0  0  0  0  0
   -3.6764    2.3787    0.7900 C   0  0  0  0  0  0  0  0  0  0  0  0
   -4.5502    3.4689    0.8285 C   0  0  0  0  0  0  0  0  0  0  0  0
   -4.4336    4.4913   -0.1118 C   0  0  0  0  0  0  0  0  0  0  0  0
   -3.4401    4.4298   -1.0872 C   0  0  0  0  0  0  0  0  0  0  0  0
   -2.5664    3.3406   -1.1257 C   0  0  0  0  0  0  0  0  0  0  0  0
   -2.0508   -0.2330   -0.1133 C   0  0  0  0  0  0  0  0  0  0  0  0
   -3.3741   -0.8775    0.0912 C   0  0  0  0  0  0  0  0  0  0  0  0
   -0.8227   -0.8697   -0.2227 C   0  0  0  0  0  0  0  0  0  0  0  0
   -0.4876   -2.2849   -0.1439 C   0  0  0  0  0  0  0  0  0  0  0  0
   -0.4596   -3.0683   -1.3027 C   0  0  0  0  0  0  0  0  0  0  0  0
   -0.1341   -4.4236   -1.2262 C   0  0  0  0  0  0  0  0  0  0  0  0
    0.1608   -5.0014    0.0083 C   0  0  0  0  0  0  0  0  0  0  0  0
    0.1272   -4.2269    1.1675 C   0  0  0  0  0  0  0  0  0  0  0  0
   -0.1986   -2.8717    1.0926 C   0  0  0  0  0  0  0  0  0  0  0  0
    6.4296    0.7736    0.6797 H   0  0  0  0  0  0  0  0  0  0  0  0
    6.5118    1.3787   -0.9835 H   0  0  0  0  0  0  0  0  0  0  0  0
    6.2417   -0.3469   -0.6839 H   0  0  0  0  0  0  0  0  0  0  0  0
    4.1399    0.8257   -1.3500 H   0  0  0  0  0  0  0  0  0  0  0  0
    4.3154    1.9334    0.0136 H   0  0  0  0  0  0  0  0  0  0  0  0
    3.9417   -1.1059    0.2200 H   0  0  0  0  0  0  0  0  0  0  0  0
    4.2227   -0.0379    1.5906 H   0  0  0  0  0  0  0  0  0  0  0  0
    1.8710   -0.4877    1.4642 H   0  0  0  0  0  0  0  0  0  0  0  0
    2.1233    1.2070    1.0890 H   0  0  0  0  0  0  0  0  0  0  0  0
    1.8249    0.7595   -1.3467 H   0  0  0  0  0  0  0  0  0  0  0  0
    1.7358   -0.9759   -1.0470 H   0  0  0  0  0  0  0  0  0  0  0  0
   -3.7681    1.6044    1.5467 H   0  0  0  0  0  0  0  0  0  0  0  0
   -5.3162    3.5230    1.5976 H   0  0  0  0  0  0  0  0  0  0  0  0
   -5.1110    5.3406   -0.0794 H   0  0  0  0  0  0  0  0  0  0  0  0
   -3.3396    5.2297   -1.8158 H   0  0  0  0  0  0  0  0  0  0  0  0
   -1.7886    3.3038   -1.8858 H   0  0  0  0  0  0  0  0  0  0  0  0
   -3.3801   -1.9067   -0.2816 H   0  0  0  0  0  0  0  0  0  0  0  0
   -4.1632   -0.3372   -0.4412 H   0  0  0  0  0  0  0  0  0  0  0  0
   -3.6241   -0.9014    1.1564 H   0  0  0  0  0  0  0  0  0  0  0  0
   -0.6940   -2.6267   -2.2686 H   0  0  0  0  0  0  0  0  0  0  0  0
   -0.1138   -5.0286   -2.1289 H   0  0  0  0  0  0  0  0  0  0  0  0
    0.4124   -6.0574    0.0675 H   0  0  0  0  0  0  0  0  0  0  0  0
    0.3517   -4.6787    2.1302 H   0  0  0  0  0  0  0  0  0  0  0  0
   -0.2274   -2.2762    2.0022 H   0  0  0  0  0  0  0  0  0  0  0  0
  1  2  1  0
  2  3  1  0
  3  4  1  0
  4  5  1  0
  5  6  1  0
  6  7  1  0
  7  8  2  0
  8  9  1  0
  9 10  2  0
 10 11  1  0
 11 12  2  0
 12 13  1  0
 13 14  2  0
  8 15  1  0
 15 16  1  0
 15 17  2  0
 17 18  1  0
 18 19  2  0
 19 20  1  0
 20 21  2  0
 21 22  1  0
 22 23  2  0
 17  6  1  0
 23 18  1  0
 14  9  1  0
  1 24  1  0
  1 25  1  0
  1 26  1  0
  2 27  1  0
  2 28  1  0
  3 29  1  0
  3 30  1  0
  4 31  1  0
  4 32  1  0
  5 33  1  0
  5 34  1  0
 10 35  1  0
 11 36  1  0
 12 37  1  0
 13 38  1  0
 14 39  1  0
 16 40  1  0
 16 41  1  0
 16 42  1  0
 19 43  1  0
 20 44  1  0
 21 45  1  0
 22 46  1  0
 23 47  1  0
M  END
>  <_SMILES>  (82) 
CCCCCn1nc(-c2ccccc2)c(C)c1-c1ccccc1

$$$$

     RDKit          3D

 62 66  0  0  0  0  0  0  0  0999 V2000
   -0.1106    1.9752   -1.3092 C   0  0  0  0  0  0  0  0  0  0  0  0
    0.4474    0.8175   -0.5598 C   0  0  0  0  0  0  0  0  0  0  0  0
   -0.0740   -0.5021   -0.5073 C   0  0  0  0  0  0  0  0  0  0  0  0
   -1.1855   -1.0047   -1.0988 N   0  0  0  0  0  0  0  0  0  0  0  0
   -2.5525   -0.6702   -0.6372 C   0  0  2  0  0  0  0  0  0  0  0  0
   -3.3667   -1.9958   -0.5593 C   0  0  0  0  0  0  0  0  0  0  0  0
   -4.8250   -1.7274   -0.1552 C   0  0  1  0  0  0  0  0  0  0  0  0
   -4.8497   -1.0438    1.2199 C   0  0  0  0  0  0  0  0  0  0  0  0
   -4.0746    0.2811    1.1596 C   0  0  2  0  0  0  0  0  0  0  0  0
   -4.7200    1.2014    0.1097 C   0  0  0  0  0  0  0  0  0  0  0  0
   -4.7001    0.5245   -1.2712 C   0  0  2  0  0  0  0  0  0  0  0  0
   -5.4729   -0.8016   -1.1964 C   0  0  0  0  0  0  0  0  0  0  0  0
   -3.2424    0.2422   -1.6771 C   0  0  0  0  0  0  0  0  0  0  0  0
   -2.6149   -0.0001    0.7580 C   0  0  0  0  0  0  0  0  0  0  0  0
    0.7958   -1.2765    0.2156 C   0  0  0  0  0  0  0  0  0  0  0  0
    1.8073   -0.4672    0.6676 N   0  0  0  0  0  0  0  0  0  0  0  0
    2.8979   -0.9371    1.5082 C   0  0  0  0  0  0  0  0  0  0  0  0
    4.1944   -1.2311    0.7513 C   0  0  0  0  0  0  0  0  0  0  0  0
    4.0647   -2.3992   -0.2332 C   0  0  0  0  0  0  0  0  0  0  0  0
    5.3911   -2.7284   -0.9067 C   0  0  0  0  0  0  0  0  0  0  0  0
    6.3231   -3.1831    0.0644 O   0  0  0  0  0  0  0  0  0  0  0  0
    1.6030    0.8245    0.2229 C   0  0  0  0  0  0  0  0  0  0  0  0
    2.4947    1.9409    0.5311 C   0  0  0  0  0  0  0  0  0  0  0  0
    2.3736    2.6243    1.7458 C   0  0  0  0  0  0  0  0  0  0  0  0
    3.2233    3.6923    2.0397 C   0  0  0  0  0  0  0  0  0  0  0  0
    4.1937    4.0854    1.1184 C   0  0  0  0  0  0  0  0  0  0  0  0
    4.3130    3.4148   -0.0984 C   0  0  0  0  0  0  0  0  0  0  0  0
    3.4635    2.3469   -0.3929 C   0  0  0  0  0  0  0  0  0  0  0  0
    0.6503    2.7363   -1.5072 H   0  0  0  0  0  0  0  0  0  0  0  0
   -0.9165    2.4482   -0.7406 H   0  0  0  0  0  0  0  0  0  0  0  0
   -0.5002    1.6556   -2.2807 H   0  0  0  0  0  0  0  0  0  0  0  0
   -1.1263   -2.0066   -1.2732 H   0  0  0  0  0  0  0  0  0  0  0  0
   -3.3455   -2.5119   -1.5288 H   0  0  0  0  0  0  0  0  0  0  0  0
   -2.9020   -2.6803    0.1631 H   0  0  0  0  0  0  0  0  0  0  0  0
   -5.3761   -2.6732   -0.1078 H   0  0  0  0  0  0  0  0  0  0  0  0
   -4.4063   -1.7039    1.9755 H   0  0  0  0  0  0  0  0  0  0  0  0
   -5.8860   -0.8583    1.5280 H   0  0  0  0  0  0  0  0  0  0  0  0
   -4.0989    0.7673    2.1413 H   0  0  0  0  0  0  0  0  0  0  0  0
   -5.7531    1.4307    0.3985 H   0  0  0  0  0  0  0  0  0  0  0  0
   -4.1820    2.1564    0.0668 H   0  0  0  0  0  0  0  0  0  0  0  0
   -5.1678    1.1826   -2.0120 H   0  0  0  0  0  0  0  0  0  0  0  0
   -6.5196   -0.6112   -0.9293 H   0  0  0  0  0  0  0  0  0  0  0  0
   -5.4787   -1.2882   -2.1795 H   0  0  0  0  0  0  0  0  0  0  0  0
   -3.2163   -0.2246   -2.6705 H   0  0  0  0  0  0  0  0  0  0  0  0
   -2.7109    1.1938   -1.7719 H   0  0  0  0  0  0  0  0  0  0  0  0
   -2.1436   -0.6421    1.5137 H   0  0  0  0  0  0  0  0  0  0  0  0
   -2.0667    0.9484    0.7662 H   0  0  0  0  0  0  0  0  0  0  0  0
    0.7733   -2.3289    0.4619 H   0  0  0  0  0  0  0  0  0  0  0  0
    2.5501   -1.8356    2.0322 H   0  0  0  0  0  0  0  0  0  0  0  0
    3.0731   -0.1776    2.2776 H   0  0  0  0  0  0  0  0  0  0  0  0
    4.5321   -0.3400    0.2112 H   0  0  0  0  0  0  0  0  0  0  0  0
    4.9695   -1.4630    1.4916 H   0  0  0  0  0  0  0  0  0  0  0  0
    3.7046   -3.2825    0.3079 H   0  0  0  0  0  0  0  0  0  0  0  0
    3.3307   -2.1574   -1.0092 H   0  0  0  0  0  0  0  0  0  0  0  0
    5.2492   -3.5234   -1.6456 H   0  0  0  0  0  0  0  0  0  0  0  0
    5.8050   -1.8490   -1.4104 H   0  0  0  0  0  0  0  0  0  0  0  0
    7.1488   -3.3859   -0.4081 H   0  0  0  0  0  0  0  0  0  0  0  0
    1.6128    2.3284    2.4640 H   0  0  0  0  0  0  0  0  0  0  0  0
    3.1245    4.2194    2.9848 H   0  0  0  0  0  0  0  0  0  0  0  0
    4.8536    4.9184    1.3466 H   0  0  0  0  0  0  0  0  0  0  0  0
    5.0643    3.7246   -0.8197 H   0  0  0  0  0  0  0  0  0  0  0  0
    3.5567    1.8310   -1.3455 H   0  0  0  0  0  0  0  0  0  0  0  0
  1  2  1  0
  2  3  1  0
  3  4  1  0
  5  4  1  6
  5  6  1  0
  6  7  1  0
  7  8  1  0
  8  9  1  0
  9 10  1  0
 10 11  1  0
 11 12  1  0
 11 13  1  0
  9 14  1  0
  3 15  2  0
 15 16  1  0
 16 17  1  0
 17 18  1  0
 18 19  1  0
 19 20  1  0
 20 21  1  0
 16 22  1  0
 22 23  1  0
 23 24  2  0
 24 25  1  0
 25 26  2  0
 26 27  1  0
 27 28  2  0
 22  2  2  0
 28 23  1  0
 13  5  1  0
 14  5  1  0
 12  7  1  0
  1 29  1  0
  1 30  1  0
  1 31  1  0
  4 32  1  0
  6 33  1  0
  6 34  1  0
  7 35  1  1
  8 36  1  0
  8 37  1  0
  9 38  1  1
 10 39  1  0
 10 40  1  0
 11 41  1  6
 12 42  1  0
 12 43  1  0
 13 44  1  0
 13 45  1  0
 14 46  1  0
 14 47  1  0
 15 48  1  0
 17 49  1  0
 17 50  1  0
 18 51  1  0
 18 52  1  0
 19 53  1  0
 19 54  1  0
 20 55  1  0
 20 56  1  0
 21 57  1  0
 24 58  1  0
 25 59  1  0
 26 60  1  0
 27 61  1  0
 28 62  1  0
M  END
>  <_SMILES>  (83) 
Cc1c(N[C@]23C[C@H]4C[C@H](C[C@H](C4)C2)C3)cn(CCCCO)c1-c1ccccc1

$$$$

     RDKit          3D

 28 29  0  0  0  0  0  0  0  0999 V2000
   -4.8187   -0.0359   -0.2625 O   0  0  0  0  0  0  0  0  0  0  0  0
   -3.6350   -0.5161   -0.8855 C   0  0  0  0  0  0  0  0  0  0  0  0
   -2.4466   -0.3874    0.0605 C   0  0  0  0  0  0  0  0  0  0  0  0
   -2.1170    1.0790    0.3657 C   0  0  0  0  0  0  0  0  0  0  0  0
   -0.9788    1.2367    1.3751 C   0  0  0  0  0  0  0  0  0  0  0  0
    0.2941    0.7189    0.9090 N   0  0  0  0  0  0  0  0  0  0  0  0
    0.9534   -0.3712    1.4050 C   0  0  0  0  0  0  0  0  0  0  0  0
    2.0912   -0.4562    0.6527 C   0  0  0  0  0  0  0  0  0  0  0  0
    3.0811   -1.4209    0.7889 C   0  0  0  0  0  0  0  0  0  0  0  0
    4.1166   -1.2144   -0.1465 C   0  0  0  0  0  0  0  0  0  0  0  0
    4.1300   -0.1478   -1.1014 C   0  0  0  0  0  0  0  0  0  0  0  0
    3.1030    0.8169   -1.2099 C   0  0  0  0  0  0  0  0  0  0  0  0
    2.0585    0.6343   -0.2894 C   0  0  0  0  0  0  0  0  0  0  0  0
    0.9340    1.3454   -0.1019 N   0  0  0  0  0  0  0  0  0  0  0  0
   -5.0289   -0.6401    0.4697 H   0  0  0  0  0  0  0  0  0  0  0  0
   -3.7938   -1.5625   -1.1651 H   0  0  0  0  0  0  0  0  0  0  0  0
   -3.4712    0.0588   -1.8022 H   0  0  0  0  0  0  0  0  0  0  0  0
   -1.5804   -0.8789   -0.3959 H   0  0  0  0  0  0  0  0  0  0  0  0
   -2.6704   -0.9062    1.0003 H   0  0  0  0  0  0  0  0  0  0  0  0
   -3.0043    1.5775    0.7740 H   0  0  0  0  0  0  0  0  0  0  0  0
   -1.8643    1.5962   -0.5681 H   0  0  0  0  0  0  0  0  0  0  0  0
   -1.2257    0.7307    2.3154 H   0  0  0  0  0  0  0  0  0  0  0  0
   -0.8214    2.2972    1.6038 H   0  0  0  0  0  0  0  0  0  0  0  0
    0.5609   -0.9642    2.2182 H   0  0  0  0  0  0  0  0  0  0  0  0
    3.0800   -2.2284    1.5068 H   0  0  0  0  0  0  0  0  0  0  0  0
    4.9594   -1.9069   -0.1441 H   0  0  0  0  0  0  0  0  0  0  0  0
    4.9794   -0.0762   -1.7810 H   0  0  0  0  0  0  0  0  0  0  0  0
    3.1147    1.6219   -1.9304 H   0  0  0  0  0  0  0  0  0  0  0  0
  1  2  1  0
  2  3  1  0
  3  4  1  0
  4  5  1  0
  5  6  1  0
  6  7  1  0
  7  8  2  0
  8  9  1  0
  9 10  2  0
 10 11  1  0
 11 12  2  0
 12 13  1  0
 13 14  2  0
 14  6  1  0
 13  8  1  0
  1 15  1  0
  2 16  1  0
  2 17  1  0
  3 18  1  0
  3 19  1  0
  4 20  1  0
  4 21  1  0
  5 22  1  0
  5 23  1  0
  7 24  1  0
  9 25  1  0
 10 26  1  0
 11 27  1  0
 12 28  1  0
M  END
>  <_SMILES>  (84) 
OCCCCn1cc2ccccc2n1

$$$$

     RDKit          3D

 50 52  0  0  0  0  0  0  0  0999 V2000
   -1.5551   -0.9066    0.9999 C   0  0  0  0  0  0  0  0  0  0  0  0
   -1.9771    0.1617    0.0553 C   0  0  0  0  0  0  0  0  0  0  0  0
   -1.1424    0.9494   -0.8105 C   0  0  0  0  0  0  0  0  0  0  0  0
    0.3236    0.8984   -0.9926 C   0  0  0  0  0  0  0  0  0  0  0  0
    0.9530    1.6335   -1.7480 O   0  0  0  0  0  0  0  0  0  0  0  0
    0.9164   -0.0650   -0.2204 O   0  0  0  0  0  0  0  0  0  0  0  0
    2.3558   -0.2011   -0.3402 C   0  0  0  0  0  0  0  0  0  0  0  0
    3.0196    0.8150    0.5977 C   0  0  0  0  0  0  0  0  0  0  0  0
    4.3816    1.3334    0.1189 C   0  0  0  0  0  0  0  0  0  0  0  0
    5.5843    0.5096    0.5715 C   0  0  0  0  0  0  0  0  0  0  0  0
    6.0630   -0.5638   -0.4065 C   0  0  0  0  0  0  0  0  0  0  0  0
    5.0270   -1.5604   -0.9233 C   0  0  0  0  0  0  0  0  0  0  0  0
    4.0933   -2.1064    0.1531 C   0  0  0  0  0  0  0  0  0  0  0  0
    2.6374   -1.6698    0.0076 C   0  0  0  0  0  0  0  0  0  0  0  0
   -1.8891    1.8261   -1.5087 N   0  0  0  0  0  0  0  0  0  0  0  0
   -3.1508    1.6003   -1.1164 N   0  0  0  0  0  0  0  0  0  0  0  0
   -4.2164    2.3762   -1.7099 C   0  0  0  0  0  0  0  0  0  0  0  0
   -3.2689    0.6183   -0.1674 C   0  0  0  0  0  0  0  0  0  0  0  0
   -4.5365    0.2011    0.4197 C   0  0  0  0  0  0  0  0  0  0  0  0
   -5.1700    1.0008    1.3776 C   0  0  0  0  0  0  0  0  0  0  0  0
   -6.3858    0.6002    1.9349 C   0  0  0  0  0  0  0  0  0  0  0  0
   -6.9721   -0.6016    1.5396 C   0  0  0  0  0  0  0  0  0  0  0  0
   -6.3432   -1.4055    0.5896 C   0  0  0  0  0  0  0  0  0  0  0  0
   -5.1273   -1.0065    0.0317 C   0  0  0  0  0  0  0  0  0  0  0  0
   -1.0945   -1.7379    0.4568 H   0  0  0  0  0  0  0  0  0  0  0  0
   -0.8346   -0.5154    1.7253 H   0  0  0  0  0  0  0  0  0  0  0  0
   -2.4003   -1.3099    1.5659 H   0  0  0  0  0  0  0  0  0  0  0  0
    2.6379   -0.0183   -1.3830 H   0  0  0  0  0  0  0  0  0  0  0  0
    2.3621    1.6905    0.6828 H   0  0  0  0  0  0  0  0  0  0  0  0
    3.0852    0.4161    1.6174 H   0  0  0  0  0  0  0  0  0  0  0  0
    4.3909    1.4871   -0.9662 H   0  0  0  0  0  0  0  0  0  0  0  0
    4.5037    2.3315    0.5619 H   0  0  0  0  0  0  0  0  0  0  0  0
    5.4024    0.0777    1.5620 H   0  0  0  0  0  0  0  0  0  0  0  0
    6.4278    1.1992    0.7126 H   0  0  0  0  0  0  0  0  0  0  0  0
    6.5282   -0.0755   -1.2723 H   0  0  0  0  0  0  0  0  0  0  0  0
    6.8683   -1.1247    0.0858 H   0  0  0  0  0  0  0  0  0  0  0  0
    5.5781   -2.4015   -1.3647 H   0  0  0  0  0  0  0  0  0  0  0  0
    4.4721   -1.1206   -1.7578 H   0  0  0  0  0  0  0  0  0  0  0  0
    4.4522   -1.8678    1.1594 H   0  0  0  0  0  0  0  0  0  0  0  0
    4.1094   -3.2033    0.1021 H   0  0  0  0  0  0  0  0  0  0  0  0
    2.1024   -1.9370    0.9293 H   0  0  0  0  0  0  0  0  0  0  0  0
    2.1655   -2.2880   -0.7693 H   0  0  0  0  0  0  0  0  0  0  0  0
   -4.5514    3.1135   -0.9765 H   0  0  0  0  0  0  0  0  0  0  0  0
   -5.0326    1.7053   -1.9888 H   0  0  0  0  0  0  0  0  0  0  0  0
   -3.8424    2.8820   -2.6042 H   0  0  0  0  0  0  0  0  0  0  0  0
   -4.7167    1.9351    1.7009 H   0  0  0  0  0  0  0  0  0  0  0  0
   -6.8730    1.2235    2.6803 H   0  0  0  0  0  0  0  0  0  0  0  0
   -7.9180   -0.9139    1.9752 H   0  0  0  0  0  0  0  0  0  0  0  0
   -6.7986   -2.3440    0.2839 H   0  0  0  0  0  0  0  0  0  0  0  0
   -4.6444   -1.6408   -0.7081 H   0  0  0  0  0  0  0  0  0  0  0  0
  1  2  1  0
  2  3  1  0
  3  4  1  0
  4  5  2  0
  4  6  1  0
  6  7  1  0
  7  8  1  0
  8  9  1  0
  9 10  1  0
 10 11  1  0
 11 12  1  0
 12 13  1  0
 13 14  1  0
  3 15  2  0
 15 16  1  0
 16 17  1  0
 16 18  1  0
 18 19  1  0
 19 20  2  0
 20 21  1  0
 21 22  2  0
 22 23  1  0
 23 24  2  0
 18  2  2  0
 24 19  1  0
 14  7  1  0
  1 25  1  0
  1 26  1  0
  1 27  1  0
  7 28  1  0
  8 29  1  0
  8 30  1  0
  9 31  1  0
  9 32  1  0
 10 33  1  0
 10 34  1  0
 11 35  1  0
 11 36  1  0
 12 37  1  0
 12 38  1  0
 13 39  1  0
 13 40  1  0
 14 41  1  0
 14 42  1  0
 17 43  1  0
 17 44  1  0
 17 45  1  0
 20 46  1  0
 21 47  1  0
 22 48  1  0
 23 49  1  0
 24 50  1  0
M  END
>  <_SMILES>  (85) 
Cc1c(C(=O)OC2CCCCCCC2)nn(C)c1-c1ccccc1

$$$$

     RDKit          3D

 53 57  0  0  0  0  0  0  0  0999 V2000
    2.8912   -2.6320    2.7313 C   0  0  0  0  0  0  0  0  0  0  0  0
    1.8494   -1.9368    2.0619 O   0  0  0  0  0  0  0  0  0  0  0  0
    2.1815   -1.0634    1.0677 C   0  0  0  0  0  0  0  0  0  0  0  0
    3.4974   -0.7749    0.6843 C   0  0  0  0  0  0  0  0  0  0  0  0
    3.7734    0.1355   -0.3493 C   0  0  0  0  0  0  0  0  0  0  0  0
    5.1507    0.4434   -0.7579 C   0  0  0  0  0  0  0  0  0  0  0  0
    6.1001    0.8874    0.1780 C   0  0  0  0  0  0  0  0  0  0  0  0
    7.4099    1.1821   -0.2095 C   0  0  0  0  0  0  0  0  0  0  0  0
    7.7930    1.0361   -1.5401 C   0  0  0  0  0  0  0  0  0  0  0  0
    6.8681    0.5961   -2.4833 C   0  0  0  0  0  0  0  0  0  0  0  0
    5.5579    0.3028   -2.0953 C   0  0  0  0  0  0  0  0  0  0  0  0
    2.6771    0.7325   -0.9667 C   0  0  0  0  0  0  0  0  0  0  0  0
    1.3877    0.4938   -0.6405 N   0  0  0  0  0  0  0  0  0  0  0  0
    1.1610   -0.4022    0.3752 C   0  0  0  0  0  0  0  0  0  0  0  0
   -0.3089   -0.6125    0.6794 C   0  0  0  0  0  0  0  0  0  0  0  0
   -0.7210   -1.3723    1.5450 O   0  0  0  0  0  0  0  0  0  0  0  0
   -1.1403    0.1468   -0.1263 N   0  0  0  0  0  0  0  0  0  0  0  0
   -2.6004    0.1701   -0.0797 C   0  0  2  0  0  0  0  0  0  0  0  0
   -3.2044   -1.2224   -0.3874 C   0  0  0  0  0  0  0  0  0  0  0  0
   -4.7421   -1.1588   -0.3808 C   0  0  1  0  0  0  0  0  0  0  0  0
   -5.2229   -0.6802    0.9998 C   0  0  0  0  0  0  0  0  0  0  0  0
   -4.6582    0.7183    1.3018 C   0  0  2  0  0  0  0  0  0  0  0  0
   -5.1308    1.7006    0.2185 C   0  0  0  0  0  0  0  0  0  0  0  0
   -4.6458    1.2320   -1.1623 C   0  0  2  0  0  0  0  0  0  0  0  0
   -5.2142   -0.1655   -1.4542 C   0  0  0  0  0  0  0  0  0  0  0  0
   -3.1105    1.1612   -1.1599 C   0  0  0  0  0  0  0  0  0  0  0  0
   -3.1205    0.6557    1.2960 C   0  0  0  0  0  0  0  0  0  0  0  0
    3.5489   -1.9377    3.2644 H   0  0  0  0  0  0  0  0  0  0  0  0
    2.4309   -3.2906    3.4741 H   0  0  0  0  0  0  0  0  0  0  0  0
    3.4579   -3.2597    2.0358 H   0  0  0  0  0  0  0  0  0  0  0  0
    4.3379   -1.2596    1.1728 H   0  0  0  0  0  0  0  0  0  0  0  0
    5.8220    1.0206    1.2219 H   0  0  0  0  0  0  0  0  0  0  0  0
    8.1294    1.5285    0.5282 H   0  0  0  0  0  0  0  0  0  0  0  0
    8.8119    1.2648   -1.8419 H   0  0  0  0  0  0  0  0  0  0  0  0
    7.1659    0.4776   -3.5221 H   0  0  0  0  0  0  0  0  0  0  0  0
    4.8582   -0.0518   -2.8500 H   0  0  0  0  0  0  0  0  0  0  0  0
    2.8125    1.4567   -1.7674 H   0  0  0  0  0  0  0  0  0  0  0  0
   -0.6499    0.7323   -0.7993 H   0  0  0  0  0  0  0  0  0  0  0  0
   -2.8496   -1.5806   -1.3628 H   0  0  0  0  0  0  0  0  0  0  0  0
   -2.8748   -1.9640    0.3497 H   0  0  0  0  0  0  0  0  0  0  0  0
   -5.1531   -2.1525   -0.5912 H   0  0  0  0  0  0  0  0  0  0  0  0
   -6.3193   -0.6539    1.0252 H   0  0  0  0  0  0  0  0  0  0  0  0
   -4.9036   -1.3886    1.7741 H   0  0  0  0  0  0  0  0  0  0  0  0
   -5.0097    1.0547    2.2836 H   0  0  0  0  0  0  0  0  0  0  0  0
   -4.7460    2.7058    0.4301 H   0  0  0  0  0  0  0  0  0  0  0  0
   -6.2255    1.7704    0.2275 H   0  0  0  0  0  0  0  0  0  0  0  0
   -4.9828    1.9362   -1.9311 H   0  0  0  0  0  0  0  0  0  0  0  0
   -6.3104   -0.1278   -1.4739 H   0  0  0  0  0  0  0  0  0  0  0  0
   -4.8895   -0.5030   -2.4461 H   0  0  0  0  0  0  0  0  0  0  0  0
   -2.6944    2.1617   -0.9807 H   0  0  0  0  0  0  0  0  0  0  0  0
   -2.7528    0.8548   -2.1521 H   0  0  0  0  0  0  0  0  0  0  0  0
   -2.7054    1.6451    1.5287 H   0  0  0  0  0  0  0  0  0  0  0  0
   -2.7874   -0.0127    2.0988 H   0  0  0  0  0  0  0  0  0  0  0  0
  1  2  1  0
  2  3  1  0
  3  4  1  0
  4  5  2  0
  5  6  1  0
  6  7  2  0
  7  8  1  0
  8  9  2  0
  9 10  1  0
 10 11  2  0
  5 12  1  0
 12 13  2  0
 13 14  1  0
 14 15  1  0
 15 16  2  0
 15 17  1  0
 18 17  1  1
 18 19  1  0
 19 20  1  0
 20 21  1  0
 21 22  1  0
 22 23  1  0
 23 24  1  0
 24 25  1  0
 24 26  1  0
 22 27  1  0
 14  3  2  0
 26 18  1  0
 11  6  1  0
 27 18  1  0
 25 20  1  0
  1 28  1  0
  1 29  1  0
  1 30  1  0
  4 31  1  0
  7 32  1  0
  8 33  1  0
  9 34  1  0
 10 35  1  0
 11 36  1  0
 12 37  1  0
 17 38  1  0
 19 39  1  0
 19 40  1  0
 20 41  1  6
 21 42  1  0
 21 43  1  0
 22 44  1  1
 23 45  1  0
 23 46  1  0
 24 47  1  6
 25 48  1  0
 25 49  1  0
 26 50  1  0
 26 51  1  0
 27 52  1  0
 27 53  1  0
M  END
>  <_SMILES>  (86) 
COc1cc(-c2ccccc2)cnc1C(=O)N[C@]12C[C@H]3C[C@H](C[C@H](C3)C1)C2

$$$$

     RDKit          3D

 54 58  0  0  0  0  0  0  0  0999 V2000
    2.2263    1.0211   -2.9912 C   0  0  0  0  0  0  0  0  0  0  0  0
    2.3674    0.4270   -1.6340 C   0  0  0  0  0  0  0  0  0  0  0  0
    1.3030    0.1785   -0.7074 C   0  0  0  0  0  0  0  0  0  0  0  0
   -0.1393    0.4935   -0.8355 C   0  0  0  0  0  0  0  0  0  0  0  0
   -0.6173    1.0881   -1.7947 O   0  0  0  0  0  0  0  0  0  0  0  0
   -0.8721    0.0567    0.2477 N   0  0  0  0  0  0  0  0  0  0  0  0
   -2.3012    0.2591    0.4633 C   0  0  2  0  0  0  0  0  0  0  0  0
   -3.1480   -0.3925   -0.6582 C   0  0  0  0  0  0  0  0  0  0  0  0
   -4.6501   -0.2049   -0.3807 C   0  0  1  0  0  0  0  0  0  0  0  0
   -5.0064   -0.8687    0.9587 C   0  0  0  0  0  0  0  0  0  0  0  0
   -4.1944   -0.2269    2.0945 C   0  0  2  0  0  0  0  0  0  0  0  0
   -4.5156    1.2744    2.1646 C   0  0  0  0  0  0  0  0  0  0  0  0
   -4.1569    1.9509    0.8320 C   0  0  2  0  0  0  0  0  0  0  0  0
   -4.9660    1.2985   -0.3020 C   0  0  0  0  0  0  0  0  0  0  0  0
   -2.6547    1.7639    0.5548 C   0  0  0  0  0  0  0  0  0  0  0  0
   -2.6955   -0.4088    1.8075 C   0  0  0  0  0  0  0  0  0  0  0  0
    1.7602   -0.4365    0.4003 N   0  0  0  0  0  0  0  0  0  0  0  0
    3.0984   -0.5085    0.2312 N   0  0  0  0  0  0  0  0  0  0  0  0
    3.8608   -1.0394    1.3551 C   0  0  0  0  0  0  0  0  0  0  0  0
    3.9884   -2.5551    1.2689 C   0  0  0  0  0  0  0  0  0  0  0  0
    2.7660   -3.1983    1.6406 O   0  0  0  0  0  0  0  0  0  0  0  0
    3.5119   -0.0372   -0.9904 C   0  0  0  0  0  0  0  0  0  0  0  0
    4.8294   -0.0516   -1.4474 N   0  0  0  0  0  0  0  0  0  0  0  0
    5.3994    0.5438   -2.5496 C   0  0  0  0  0  0  0  0  0  0  0  0
    6.7234    0.1760   -2.5767 C   0  0  0  0  0  0  0  0  0  0  0  0
    6.8784   -0.6386   -1.4494 C   0  0  0  0  0  0  0  0  0  0  0  0
    5.7448   -0.7739   -0.7606 N   0  0  0  0  0  0  0  0  0  0  0  0
    2.7691    0.4258   -3.7322 H   0  0  0  0  0  0  0  0  0  0  0  0
    2.6119    2.0453   -3.0007 H   0  0  0  0  0  0  0  0  0  0  0  0
    1.1903    1.0517   -3.3337 H   0  0  0  0  0  0  0  0  0  0  0  0
   -0.3044   -0.3624    0.9814 H   0  0  0  0  0  0  0  0  0  0  0  0
   -2.9130   -1.4622   -0.7354 H   0  0  0  0  0  0  0  0  0  0  0  0
   -2.9089    0.0449   -1.6346 H   0  0  0  0  0  0  0  0  0  0  0  0
   -5.2340   -0.6634   -1.1866 H   0  0  0  0  0  0  0  0  0  0  0  0
   -6.0797   -0.7600    1.1573 H   0  0  0  0  0  0  0  0  0  0  0  0
   -4.7989   -1.9448    0.9107 H   0  0  0  0  0  0  0  0  0  0  0  0
   -4.4496   -0.7045    3.0470 H   0  0  0  0  0  0  0  0  0  0  0  0
   -3.9550    1.7401    2.9843 H   0  0  0  0  0  0  0  0  0  0  0  0
   -5.5805    1.4199    2.3841 H   0  0  0  0  0  0  0  0  0  0  0  0
   -4.3916    3.0198    0.8858 H   0  0  0  0  0  0  0  0  0  0  0  0
   -6.0390    1.4462   -0.1282 H   0  0  0  0  0  0  0  0  0  0  0  0
   -4.7289    1.7819   -1.2577 H   0  0  0  0  0  0  0  0  0  0  0  0
   -2.3942    2.2834   -0.3752 H   0  0  0  0  0  0  0  0  0  0  0  0
   -2.0662    2.2424    1.3487 H   0  0  0  0  0  0  0  0  0  0  0  0
   -2.1073    0.0211    2.6295 H   0  0  0  0  0  0  0  0  0  0  0  0
   -2.4501   -1.4791    1.7834 H   0  0  0  0  0  0  0  0  0  0  0  0
    4.8271   -0.5338    1.3997 H   0  0  0  0  0  0  0  0  0  0  0  0
    3.3189   -0.7551    2.2662 H   0  0  0  0  0  0  0  0  0  0  0  0
    4.7546   -2.9022    1.9687 H   0  0  0  0  0  0  0  0  0  0  0  0
    4.2598   -2.8989    0.2661 H   0  0  0  0  0  0  0  0  0  0  0  0
    2.0491   -2.7586    1.1420 H   0  0  0  0  0  0  0  0  0  0  0  0
    4.8406    1.1863   -3.2093 H   0  0  0  0  0  0  0  0  0  0  0  0
    7.4682    0.4638   -3.3050 H   0  0  0  0  0  0  0  0  0  0  0  0
    7.7718   -1.1385   -1.0963 H   0  0  0  0  0  0  0  0  0  0  0  0
  1  2  1  0
  2  3  1  0
  3  4  1  0
  4  5  2  0
  4  6  1  0
  7  6  1  6
  7  8  1  0
  8  9  1  0
  9 10  1  0
 10 11  1  0
 11 12  1  0
 12 13  1  0
 13 14  1  0
 13 15  1  0
 11 16  1  0
  3 17  2  0
 17 18  1  0
 18 19  1  0
 19 20  1  0
 20 21  1  0
 18 22  1  0
 22 23  1  0
 23 24  1  0
 24 25  2  0
 25 26  1  0
 26 27  2  0
 22  2  2  0
 27 23  1  0
 15  7  1  0
 16  7  1  0
 14  9  1  0
  1 28  1  0
  1 29  1  0
  1 30  1  0
  6 31  1  0
  8 32  1  0
  8 33  1  0
  9 34  1  6
 10 35  1  0
 10 36  1  0
 11 37  1  1
 12 38  1  0
 12 39  1  0
 13 40  1  1
 14 41  1  0
 14 42  1  0
 15 43  1  0
 15 44  1  0
 16 45  1  0
 16 46  1  0
 19 47  1  0
 19 48  1  0
 20 49  1  0
 20 50  1  0
 21 51  1  0
 24 52  1  0
 25 53  1  0
 26 54  1  0
M  END
>  <_SMILES>  (87) 
Cc1c(C(=O)N[C@]23C[C@H]4C[C@H](C[C@H](C4)C2)C3)nn(CCO)c1-n1cccn1

$$$$

     RDKit          3D

 54 56  0  0  0  0  0  0  0  0999 V2000
   -4.6309    4.0456   -0.1670 C   0  0  0  0  0  0  0  0  0  0  0  0
   -3.4278    3.1533    0.0978 C   0  0  0  0  0  0  0  0  0  0  0  0
   -3.3144    2.0455   -0.9500 C   0  0  0  0  0  0  0  0  0  0  0  0
   -2.0586    1.1857   -0.7896 C   0  0  0  0  0  0  0  0  0  0  0  0
   -2.0427    0.3795    0.5082 C   0  0  0  0  0  0  0  0  0  0  0  0
   -0.9114   -0.5345    0.5653 N   0  0  0  0  0  0  0  0  0  0  0  0
    0.2779   -0.0618    0.9888 N   0  0  0  0  0  0  0  0  0  0  0  0
    1.1004   -1.1294    0.9275 C   0  0  0  0  0  0  0  0  0  0  0  0
    2.5210   -1.0133    1.3078 C   0  0  0  0  0  0  0  0  0  0  0  0
    3.3204   -1.9423    1.2414 O   0  0  0  0  0  0  0  0  0  0  0  0
    2.8585    0.2528    1.7303 N   0  0  0  0  0  0  0  0  0  0  0  0
    4.2132    0.6566    1.9849 C   0  0  0  0  0  0  0  0  0  0  0  0
    4.8142    1.3145    0.7686 C   0  0  0  0  0  0  0  0  0  0  0  0
    4.7674    2.7056    0.6101 C   0  0  0  0  0  0  0  0  0  0  0  0
    5.3020    3.3053   -0.5330 C   0  0  0  0  0  0  0  0  0  0  0  0
    5.8819    2.5216   -1.5348 C   0  0  0  0  0  0  0  0  0  0  0  0
    6.5210    3.3332   -2.9200 Cl  0  0  0  0  0  0  0  0  0  0  0  0
    5.9243    1.1311   -1.3923 C   0  0  0  0  0  0  0  0  0  0  0  0
    6.6173    0.0980   -2.5915 Cl  0  0  0  0  0  0  0  0  0  0  0  0
    5.3898    0.5330   -0.2461 C   0  0  0  0  0  0  0  0  0  0  0  0
    0.4103   -2.2873    0.4584 C   0  0  0  0  0  0  0  0  0  0  0  0
    0.9840   -3.6427    0.2553 C   0  0  0  0  0  0  0  0  0  0  0  0
   -0.8916   -1.8669    0.2340 C   0  0  0  0  0  0  0  0  0  0  0  0
   -2.0467   -2.6084   -0.2540 C   0  0  0  0  0  0  0  0  0  0  0  0
   -2.8710   -3.2965    0.6429 C   0  0  0  0  0  0  0  0  0  0  0  0
   -3.9815   -4.0017    0.1760 C   0  0  0  0  0  0  0  0  0  0  0  0
   -4.2698   -4.0254   -1.1882 C   0  0  0  0  0  0  0  0  0  0  0  0
   -3.4468   -3.3482   -2.0874 C   0  0  0  0  0  0  0  0  0  0  0  0
   -2.3358   -2.6427   -1.6222 C   0  0  0  0  0  0  0  0  0  0  0  0
   -4.5530    4.5296   -1.1458 H   0  0  0  0  0  0  0  0  0  0  0  0
   -4.6965    4.8289    0.5946 H   0  0  0  0  0  0  0  0  0  0  0  0
   -5.5604    3.4680   -0.1417 H   0  0  0  0  0  0  0  0  0  0  0  0
   -3.5261    2.7215    1.0995 H   0  0  0  0  0  0  0  0  0  0  0  0
   -2.5185    3.7653    0.0933 H   0  0  0  0  0  0  0  0  0  0  0  0
   -4.2047    1.4059   -0.9114 H   0  0  0  0  0  0  0  0  0  0  0  0
   -3.2943    2.4976   -1.9495 H   0  0  0  0  0  0  0  0  0  0  0  0
   -1.9995    0.5023   -1.6457 H   0  0  0  0  0  0  0  0  0  0  0  0
   -1.1660    1.8215   -0.8449 H   0  0  0  0  0  0  0  0  0  0  0  0
   -1.9623    1.0347    1.3830 H   0  0  0  0  0  0  0  0  0  0  0  0
   -2.9621   -0.2034    0.6226 H   0  0  0  0  0  0  0  0  0  0  0  0
    2.1195    0.9437    1.6328 H   0  0  0  0  0  0  0  0  0  0  0  0
    4.1959    1.3564    2.8276 H   0  0  0  0  0  0  0  0  0  0  0  0
    4.8201   -0.2035    2.2896 H   0  0  0  0  0  0  0  0  0  0  0  0
    4.3119    3.3323    1.3747 H   0  0  0  0  0  0  0  0  0  0  0  0
    5.2598    4.3869   -0.6386 H   0  0  0  0  0  0  0  0  0  0  0  0
    5.4125   -0.5516   -0.1414 H   0  0  0  0  0  0  0  0  0  0  0  0
    1.3872   -4.0317    1.1958 H   0  0  0  0  0  0  0  0  0  0  0  0
    0.2341   -4.3537   -0.1043 H   0  0  0  0  0  0  0  0  0  0  0  0
    1.7916   -3.6086   -0.4830 H   0  0  0  0  0  0  0  0  0  0  0  0
   -2.6503   -3.2892    1.7078 H   0  0  0  0  0  0  0  0  0  0  0  0
   -4.6188   -4.5361    0.8758 H   0  0  0  0  0  0  0  0  0  0  0  0
   -5.1328   -4.5777   -1.5516 H   0  0  0  0  0  0  0  0  0  0  0  0
   -3.6669   -3.3738   -3.1516 H   0  0  0  0  0  0  0  0  0  0  0  0
   -1.6947   -2.1255   -2.3324 H   0  0  0  0  0  0  0  0  0  0  0  0
  1  2  1  0
  2  3  1  0
  3  4  1  0
  4  5  1  0
  5  6  1  0
  6  7  1  0
  7  8  2  0
  8  9  1  0
  9 10  2  0
  9 11  1  0
 11 12  1  0
 12 13  1  0
 13 14  1  0
 14 15  2  0
 15 16  1  0
 16 17  1  0
 16 18  2  0
 18 19  1  0
 18 20  1  0
  8 21  1  0
 21 22  1  0
 21 23  2  0
 23 24  1  0
 24 25  2  0
 25 26  1  0
 26 27  2  0
 27 28  1  0
 28 29  2  0
 23  6  1  0
 29 24  1  0
 20 13  2  0
  1 30  1  0
  1 31  1  0
  1 32  1  0
  2 33  1  0
  2 34  1  0
  3 35  1  0
  3 36  1  0
  4 37  1  0
  4 38  1  0
  5 39  1  0
  5 40  1  0
 11 41  1  0
 12 42  1  0
 12 43  1  0
 14 44  1  0
 15 45  1  0
 20 46  1  0
 22 47  1  0
 22 48  1  0
 22 49  1  0
 25 50  1  0
 26 51  1  0
 27 52  1  0
 28 53  1  0
 29 54  1  0
M  END
>  <_SMILES>  (88) 
CCCCCn1nc(C(=O)NCc2ccc(Cl)c(Cl)c2)c(C)c1-c1ccccc1

$$$$

     RDKit          3D

 53 58  0  0  0  0  0  0  0  0999 V2000
    0.6144    1.9578    0.8317 O   0  0  0  0  0  0  0  0  0  0  0  0
    0.2487    0.9131    0.3031 C   0  0  0  0  0  0  0  0  0  0  0  0
    1.1471   -0.0217   -0.1992 N   0  0  0  0  0  0  0  0  0  0  0  0
    2.6075    0.1020   -0.0958 C   0  0  2  0  0  0  0  0  0  0  0  0
    3.2451   -1.1224   -0.8097 C   0  0  0  0  0  0  0  0  0  0  0  0
    4.7793   -1.0693   -0.7369 C   0  0  1  0  0  0  0  0  0  0  0  0
    5.2715    0.2154   -1.4201 C   0  0  0  0  0  0  0  0  0  0  0  0
    4.6737    1.4436   -0.7171 C   0  0  2  0  0  0  0  0  0  0  0  0
    5.1041    1.4435    0.7598 C   0  0  0  0  0  0  0  0  0  0  0  0
    4.6167    0.1601    1.4538 C   0  0  2  0  0  0  0  0  0  0  0  0
    5.2138   -1.0613    0.7371 C   0  0  0  0  0  0  0  0  0  0  0  0
    3.0809    0.0941    1.3785 C   0  0  0  0  0  0  0  0  0  0  0  0
    3.1378    1.3792   -0.7966 C   0  0  0  0  0  0  0  0  0  0  0  0
   -1.1489    0.5284    0.1551 C   0  0  0  0  0  0  0  0  0  0  0  0
   -2.1276    0.9438    0.9383 N   0  0  0  0  0  0  0  0  0  0  0  0
   -3.2842    0.3719    0.4511 C   0  0  0  0  0  0  0  0  0  0  0  0
   -4.5705    0.6447    1.0565 C   0  0  0  0  0  0  0  0  0  0  0  0
   -4.7764    0.3426    2.4074 C   0  0  0  0  0  0  0  0  0  0  0  0
   -6.0080    0.6097    3.0085 C   0  0  0  0  0  0  0  0  0  0  0  0
   -7.0349    1.1915    2.2659 C   0  0  0  0  0  0  0  0  0  0  0  0
   -6.8296    1.5157    0.9251 C   0  0  0  0  0  0  0  0  0  0  0  0
   -5.5983    1.2495    0.3223 C   0  0  0  0  0  0  0  0  0  0  0  0
   -3.0083   -0.4487   -0.6263 C   0  0  0  0  0  0  0  0  0  0  0  0
   -3.7459   -1.3304   -1.4748 C   0  0  0  0  0  0  0  0  0  0  0  0
   -3.1834   -1.8106   -2.5684 N   0  0  0  0  0  0  0  0  0  0  0  0
   -4.0667   -2.6536   -3.2158 C   0  0  0  0  0  0  0  0  0  0  0  0
   -5.2835   -2.8275   -2.5955 C   0  0  0  0  0  0  0  0  0  0  0  0
   -5.3269   -1.9084   -1.1517 S   0  0  0  0  0  0  0  0  0  0  0  0
   -1.6567   -0.2864   -0.8243 N   0  0  0  0  0  0  0  0  0  0  0  0
    0.7941   -0.9638   -0.2913 H   0  0  0  0  0  0  0  0  0  0  0  0
    2.8882   -2.0547   -0.3515 H   0  0  0  0  0  0  0  0  0  0  0  0
    2.9241   -1.1559   -1.8596 H   0  0  0  0  0  0  0  0  0  0  0  0
    5.2045   -1.9432   -1.2429 H   0  0  0  0  0  0  0  0  0  0  0  0
    4.9834    0.2118   -2.4785 H   0  0  0  0  0  0  0  0  0  0  0  0
    6.3670    0.2612   -1.3885 H   0  0  0  0  0  0  0  0  0  0  0  0
    5.0299    2.3576   -1.2056 H   0  0  0  0  0  0  0  0  0  0  0  0
    4.6944    2.3240    1.2698 H   0  0  0  0  0  0  0  0  0  0  0  0
    6.1964    1.5145    0.8304 H   0  0  0  0  0  0  0  0  0  0  0  0
    4.9342    0.1638    2.5026 H   0  0  0  0  0  0  0  0  0  0  0  0
    4.8841   -1.9839    1.2305 H   0  0  0  0  0  0  0  0  0  0  0  0
    6.3084   -1.0377    0.8050 H   0  0  0  0  0  0  0  0  0  0  0  0
    2.6591    0.9425    1.9301 H   0  0  0  0  0  0  0  0  0  0  0  0
    2.7208   -0.8107    1.8855 H   0  0  0  0  0  0  0  0  0  0  0  0
    2.8164    1.3942   -1.8463 H   0  0  0  0  0  0  0  0  0  0  0  0
    2.7253    2.2844   -0.3375 H   0  0  0  0  0  0  0  0  0  0  0  0
   -3.9731   -0.0947    2.9963 H   0  0  0  0  0  0  0  0  0  0  0  0
   -6.1611    0.3723    4.0579 H   0  0  0  0  0  0  0  0  0  0  0  0
   -7.9914    1.4042    2.7362 H   0  0  0  0  0  0  0  0  0  0  0  0
   -7.6247    1.9841    0.3511 H   0  0  0  0  0  0  0  0  0  0  0  0
   -5.4438    1.5254   -0.7179 H   0  0  0  0  0  0  0  0  0  0  0  0
   -3.7685   -3.1233   -4.1454 H   0  0  0  0  0  0  0  0  0  0  0  0
   -6.1207   -3.4347   -2.9078 H   0  0  0  0  0  0  0  0  0  0  0  0
   -1.1379   -0.7040   -1.5844 H   0  0  0  0  0  0  0  0  0  0  0  0
  1  2  2  0
  2  3  1  0
  4  3  1  1
  4  5  1  0
  5  6  1  0
  6  7  1  0
  7  8  1  0
  8  9  1  0
  9 10  1  0
 10 11  1  0
 10 12  1  0
  8 13  1  0
  2 14  1  0
 14 15  2  0
 15 16  1  0
 16 17  1  0
 17 18  2  0
 18 19  1  0
 19 20  2  0
 20 21  1  0
 21 22  2  0
 16 23  2  0
 23 24  1  0
 24 25  2  0
 25 26  1  0
 26 27  2  0
 27 28  1  0
 23 29  1  0
 12  4  1  0
 29 14  1  0
 13  4  1  0
 22 17  1  0
 28 24  1  0
 11  6  1  0
  3 30  1  0
  5 31  1  0
  5 32  1  0
  6 33  1  6
  7 34  1  0
  7 35  1  0
  8 36  1  6
  9 37  1  0
  9 38  1  0
 10 39  1  1
 11 40  1  0
 11 41  1  0
 12 42  1  0
 12 43  1  0
 13 44  1  0
 13 45  1  0
 18 46  1  0
 19 47  1  0
 20 48  1  0
 21 49  1  0
 22 50  1  0
 26 51  1  0
 27 52  1  0
 29 53  1  0
M  END
>  <_SMILES>  (89) 
O=C(N[C@]12C[C@H]3C[C@H](C[C@H](C3)C1)C2)c1nc(-c2ccccc2)c(-c2nccs2)[nH]1

$$$$

     RDKit          3D

 53 58  0  0  0  0  0  0  0  0999 V2000
   -0.6862   -1.9578    0.6111 O   0  0  0  0  0  0  0  0  0  0  0  0
   -0.3545   -0.8245    0.2804 C   0  0  0  0  0  0  0  0  0  0  0  0
   -1.2339    0.2045    0.0331 N   0  0  0  0  0  0  0  0  0  0  0  0
   -2.6903    0.1342    0.1181 C   0  0  2  0  0  0  0  0  0  0  0  0
   -3.1618   -0.2222    1.5497 C   0  0  0  0  0  0  0  0  0  0  0  0
   -4.6988   -0.2426    1.6240 C   0  0  1  0  0  0  0  0  0  0  0  0
   -5.2439    1.1456    1.2533 C   0  0  0  0  0  0  0  0  0  0  0  0
   -4.8082    1.5169   -0.1728 C   0  0  2  0  0  0  0  0  0  0  0  0
   -5.3523    0.4721   -1.1596 C   0  0  0  0  0  0  0  0  0  0  0  0
   -4.8078   -0.9201   -0.8030 C   0  0  2  0  0  0  0  0  0  0  0  0
   -5.2399   -1.2826    0.6281 C   0  0  0  0  0  0  0  0  0  0  0  0
   -3.2709   -0.8999   -0.8781 C   0  0  0  0  0  0  0  0  0  0  0  0
   -3.2729    1.5263   -0.2444 C   0  0  0  0  0  0  0  0  0  0  0  0
    1.0310   -0.4332    0.1107 C   0  0  0  0  0  0  0  0  0  0  0  0
    1.4375    0.7734   -0.2398 N   0  0  0  0  0  0  0  0  0  0  0  0
    2.8191    0.6990   -0.2828 C   0  0  0  0  0  0  0  0  0  0  0  0
    3.7189    1.9472   -0.6427 C   0  0  0  0  0  0  0  0  0  0  0  0
    5.0356    1.9082   -0.6756 N   0  0  0  0  0  0  0  0  0  0  0  0
    5.5349    3.1497   -1.0117 C   0  0  0  0  0  0  0  0  0  0  0  0
    4.5933    4.1286   -1.2384 C   0  0  0  0  0  0  0  0  0  0  0  0
    3.0234    3.4778   -1.0215 S   0  0  0  0  0  0  0  0  0  0  0  0
    3.2586   -0.5765    0.0431 C   0  0  0  0  0  0  0  0  0  0  0  0
    4.5674   -1.2120    0.1291 C   0  0  0  0  0  0  0  0  0  0  0  0
    5.4506   -1.1821   -0.9559 C   0  0  0  0  0  0  0  0  0  0  0  0
    6.6905   -1.8212   -0.8805 C   0  0  0  0  0  0  0  0  0  0  0  0
    7.0572   -2.4996    0.2799 C   0  0  0  0  0  0  0  0  0  0  0  0
    6.1862   -2.5373    1.3667 C   0  0  0  0  0  0  0  0  0  0  0  0
    4.9463   -1.8978    1.2916 C   0  0  0  0  0  0  0  0  0  0  0  0
    2.0968   -1.2715    0.2931 N   0  0  0  0  0  0  0  0  0  0  0  0
   -0.7914    1.0824   -0.2293 H   0  0  0  0  0  0  0  0  0  0  0  0
   -2.7761   -1.2018    1.8560 H   0  0  0  0  0  0  0  0  0  0  0  0
   -2.7626    0.5037    2.2702 H   0  0  0  0  0  0  0  0  0  0  0  0
   -5.0153   -0.5042    2.6399 H   0  0  0  0  0  0  0  0  0  0  0  0
   -6.3386    1.1496    1.3238 H   0  0  0  0  0  0  0  0  0  0  0  0
   -4.8763    1.8951    1.9650 H   0  0  0  0  0  0  0  0  0  0  0  0
   -5.1970    2.5080   -0.4320 H   0  0  0  0  0  0  0  0  0  0  0  0
   -6.4489    0.4645   -1.1306 H   0  0  0  0  0  0  0  0  0  0  0  0
   -5.0628    0.7369   -2.1839 H   0  0  0  0  0  0  0  0  0  0  0  0
   -5.2017   -1.6618   -1.5069 H   0  0  0  0  0  0  0  0  0  0  0  0
   -6.3344   -1.3240    0.6888 H   0  0  0  0  0  0  0  0  0  0  0  0
   -4.8687   -2.2810    0.8901 H   0  0  0  0  0  0  0  0  0  0  0  0
   -2.8894   -1.9055   -0.6648 H   0  0  0  0  0  0  0  0  0  0  0  0
   -2.9500   -0.6605   -1.9005 H   0  0  0  0  0  0  0  0  0  0  0  0
   -2.9515    1.8190   -1.2531 H   0  0  0  0  0  0  0  0  0  0  0  0
   -2.8756    2.2907    0.4368 H   0  0  0  0  0  0  0  0  0  0  0  0
    6.6072    3.2876   -1.0781 H   0  0  0  0  0  0  0  0  0  0  0  0
    4.7468    5.1624   -1.5110 H   0  0  0  0  0  0  0  0  0  0  0  0
    5.1834   -0.6541   -1.8685 H   0  0  0  0  0  0  0  0  0  0  0  0
    7.3700   -1.7832   -1.7278 H   0  0  0  0  0  0  0  0  0  0  0  0
    8.0239   -2.9927    0.3389 H   0  0  0  0  0  0  0  0  0  0  0  0
    6.4741   -3.0589    2.2757 H   0  0  0  0  0  0  0  0  0  0  0  0
    4.2878   -1.9268    2.1564 H   0  0  0  0  0  0  0  0  0  0  0  0
    2.0213   -2.2477    0.5462 H   0  0  0  0  0  0  0  0  0  0  0  0
  1  2  2  0
  2  3  1  0
  4  3  1  1
  4  5  1  0
  5  6  1  0
  6  7  1  0
  7  8  1  0
  8  9  1  0
  9 10  1  0
 10 11  1  0
 10 12  1  0
  8 13  1  0
  2 14  1  0
 14 15  2  0
 15 16  1  0
 16 17  1  0
 17 18  2  0
 18 19  1  0
 19 20  2  0
 20 21  1  0
 16 22  2  0
 22 23  1  0
 23 24  2  0
 24 25  1  0
 25 26  2  0
 26 27  1  0
 27 28  2  0
 22 29  1  0
 12  4  1  0
 29 14  1  0
 13  4  1  0
 21 17  1  0
 28 23  1  0
 11  6  1  0
  3 30  1  0
  5 31  1  0
  5 32  1  0
  6 33  1  1
  7 34  1  0
  7 35  1  0
  8 36  1  6
  9 37  1  0
  9 38  1  0
 10 39  1  6
 11 40  1  0
 11 41  1  0
 12 42  1  0
 12 43  1  0
 13 44  1  0
 13 45  1  0
 19 46  1  0
 20 47  1  0
 24 48  1  0
 25 49  1  0
 26 50  1  0
 27 51  1  0
 28 52  1  0
 29 53  1  0
M  END
>  <_SMILES>  (90) 
O=C(N[C@]12C[C@H]3C[C@H](C[C@H](C3)C1)C2)c1nc(-c2nccs2)c(-c2ccccc2)[nH]1

$$$$

     RDKit          3D

 54 59  0  0  0  0  0  0  0  0999 V2000
    0.9232   -2.1149    0.5901 O   0  0  0  0  0  0  0  0  0  0  0  0
    0.4525   -1.0115    0.3439 C   0  0  0  0  0  0  0  0  0  0  0  0
    1.1730    0.1697    0.2766 N   0  0  0  0  0  0  0  0  0  0  0  0
    2.6325    0.2489    0.4744 C   0  0  2  0  0  0  0  0  0  0  0  0
    3.0587    1.7390    0.3675 C   0  0  0  0  0  0  0  0  0  0  0  0
    4.5757    1.8946    0.5579 C   0  0  1  0  0  0  0  0  0  0  0  0
    4.9664    1.3625    1.9452 C   0  0  0  0  0  0  0  0  0  0  0  0
    4.5762   -0.1185    2.0670 C   0  0  2  0  0  0  0  0  0  0  0  0
    5.3022   -0.9264    0.9776 C   0  0  0  0  0  0  0  0  0  0  0  0
    4.9179   -0.4015   -0.4164 C   0  0  2  0  0  0  0  0  0  0  0  0
    5.3053    1.0820   -0.5234 C   0  0  0  0  0  0  0  0  0  0  0  0
    3.3981   -0.5461   -0.6116 C   0  0  0  0  0  0  0  0  0  0  0  0
    3.0559   -0.2623    1.8749 C   0  0  0  0  0  0  0  0  0  0  0  0
   -0.9387   -0.9120    0.0850 C   0  0  0  0  0  0  0  0  0  0  0  0
   -1.7735   -1.9466   -0.0851 N   0  0  0  0  0  0  0  0  0  0  0  0
   -3.0888   -1.5503   -0.2945 C   0  0  0  0  0  0  0  0  0  0  0  0
   -4.2976   -2.5661   -0.3725 C   0  0  0  0  0  0  0  0  0  0  0  0
   -5.5570   -2.2014   -0.4090 N   0  0  0  0  0  0  0  0  0  0  0  0
   -6.3724   -3.3183   -0.4361 C   0  0  0  0  0  0  0  0  0  0  0  0
   -5.7176   -4.5299   -0.4138 C   0  0  0  0  0  0  0  0  0  0  0  0
   -4.0257   -4.2673   -0.3496 S   0  0  0  0  0  0  0  0  0  0  0  0
   -3.0504   -0.1602   -0.3346 C   0  0  0  0  0  0  0  0  0  0  0  0
   -4.1448    0.9311   -0.6446 C   0  0  0  0  0  0  0  0  0  0  0  0
   -3.9072    2.2501   -0.2317 C   0  0  0  0  0  0  0  0  0  0  0  0
   -4.8385    3.2550   -0.5062 C   0  0  0  0  0  0  0  0  0  0  0  0
   -6.0031    2.9536   -1.2053 C   0  0  0  0  0  0  0  0  0  0  0  0
   -6.2339    1.6498   -1.6349 C   0  0  0  0  0  0  0  0  0  0  0  0
   -5.3053    0.6412   -1.3605 C   0  0  0  0  0  0  0  0  0  0  0  0
   -1.7225    0.1729   -0.0276 N   0  0  0  0  0  0  0  0  0  0  0  0
    0.7571    0.9796   -0.1612 H   0  0  0  0  0  0  0  0  0  0  0  0
    2.7672    2.1458   -0.6102 H   0  0  0  0  0  0  0  0  0  0  0  0
    2.5267    2.3380    1.1188 H   0  0  0  0  0  0  0  0  0  0  0  0
    4.8527    2.9515    0.4759 H   0  0  0  0  0  0  0  0  0  0  0  0
    4.4658    1.9478    2.7263 H   0  0  0  0  0  0  0  0  0  0  0  0
    6.0457    1.4802    2.1016 H   0  0  0  0  0  0  0  0  0  0  0  0
    4.8598   -0.4944    3.0564 H   0  0  0  0  0  0  0  0  0  0  0  0
    5.0423   -1.9887    1.0628 H   0  0  0  0  0  0  0  0  0  0  0  0
    6.3876   -0.8521    1.1185 H   0  0  0  0  0  0  0  0  0  0  0  0
    5.4446   -0.9767   -1.1860 H   0  0  0  0  0  0  0  0  0  0  0  0
    6.3903    1.1952   -0.4090 H   0  0  0  0  0  0  0  0  0  0  0  0
    5.0484    1.4657   -1.5184 H   0  0  0  0  0  0  0  0  0  0  0  0
    3.1142   -0.1898   -1.6105 H   0  0  0  0  0  0  0  0  0  0  0  0
    3.1325   -1.6093   -0.5785 H   0  0  0  0  0  0  0  0  0  0  0  0
    2.5253    0.2969    2.6567 H   0  0  0  0  0  0  0  0  0  0  0  0
    2.7815   -1.3144    2.0112 H   0  0  0  0  0  0  0  0  0  0  0  0
   -1.4512   -2.9106   -0.0026 H   0  0  0  0  0  0  0  0  0  0  0  0
   -7.4493   -3.1924   -0.4701 H   0  0  0  0  0  0  0  0  0  0  0  0
   -6.1420   -5.5249   -0.4264 H   0  0  0  0  0  0  0  0  0  0  0  0
   -3.0271    2.5270    0.3390 H   0  0  0  0  0  0  0  0  0  0  0  0
   -4.6626    4.2748   -0.1694 H   0  0  0  0  0  0  0  0  0  0  0  0
   -6.7305    3.7342   -1.4191 H   0  0  0  0  0  0  0  0  0  0  0  0
   -7.1385    1.4177   -2.1941 H   0  0  0  0  0  0  0  0  0  0  0  0
   -5.5112   -0.3427   -1.7657 H   0  0  0  0  0  0  0  0  0  0  0  0
   -1.3900    1.1243    0.0713 H   0  0  0  0  0  0  0  0  0  0  0  0
  1  2  2  0
  2  3  1  0
  4  3  1  6
  4  5  1  0
  5  6  1  0
  6  7  1  0
  7  8  1  0
  8  9  1  0
  9 10  1  0
 10 11  1  0
 10 12  1  0
  8 13  1  0
  2 14  1  0
 14 15  1  0
 15 16  1  0
 16 17  1  0
 17 18  2  0
 18 19  1  0
 19 20  2  0
 20 21  1  0
 16 22  2  0
 22 23  1  0
 23 24  2  0
 24 25  1  0
 25 26  2  0
 26 27  1  0
 27 28  2  0
 22 29  1  0
 12  4  1  0
 29 14  2  0
 13  4  1  0
 21 17  1  0
 28 23  1  0
 11  6  1  0
  3 30  1  0
  5 31  1  0
  5 32  1  0
  6 33  1  1
  7 34  1  0
  7 35  1  0
  8 36  1  1
  9 37  1  0
  9 38  1  0
 10 39  1  6
 11 40  1  0
 11 41  1  0
 12 42  1  0
 12 43  1  0
 13 44  1  0
 13 45  1  0
 15 46  1  0
 19 47  1  0
 20 48  1  0
 24 49  1  0
 25 50  1  0
 26 51  1  0
 27 52  1  0
 28 53  1  0
 29 54  1  0
M  CHG  1  29   1
M  END
>  <_SMILES>  (91) 
O=C(N[C@]12C[C@H]3C[C@H](C[C@H](C3)C1)C2)c1[nH]c(-c2nccs2)c(-c2ccccc2)[nH+]1

$$$$

     RDKit          3D

 59 63  0  0  0  0  0  0  0  0999 V2000
    2.9503    1.6437    1.2285 C   0  0  0  0  0  0  0  0  0  0  0  0
    2.4927    0.4684    0.4415 C   0  0  0  0  0  0  0  0  0  0  0  0
    1.2292   -0.1778    0.4757 C   0  0  0  0  0  0  0  0  0  0  0  0
   -0.0010    0.1473    1.2917 C   0  0  2  0  0  0  0  0  0  0  0  0
    0.1893   -0.1146    2.8044 C   0  0  0  0  0  0  0  0  0  0  0  0
   -0.2869   -1.4363    3.1213 O   0  0  0  0  0  0  0  0  0  0  0  0
   -1.1217   -0.7687    0.8249 N   0  0  0  0  0  0  0  0  0  0  0  0
   -2.4461   -0.2332    0.4407 C   0  0  2  0  0  0  0  0  0  0  0  0
   -2.3246    0.6727   -0.8011 C   0  0  0  0  0  0  0  0  0  0  0  0
   -3.7208    1.1774   -1.2124 C   0  0  1  0  0  0  0  0  0  0  0  0
   -4.6169   -0.0267   -1.5484 C   0  0  0  0  0  0  0  0  0  0  0  0
   -4.7483   -0.9452   -0.3219 C   0  0  2  0  0  0  0  0  0  0  0  0
   -5.3683   -0.1527    0.8413 C   0  0  0  0  0  0  0  0  0  0  0  0
   -4.4776    1.0506    1.1941 C   0  0  2  0  0  0  0  0  0  0  0  0
   -4.3423    1.9594   -0.0411 C   0  0  0  0  0  0  0  0  0  0  0  0
   -3.0821    0.5463    1.6077 C   0  0  0  0  0  0  0  0  0  0  0  0
   -3.3504   -1.4376    0.0917 C   0  0  0  0  0  0  0  0  0  0  0  0
    1.1517   -1.1874   -0.4100 N   0  0  0  0  0  0  0  0  0  0  0  0
    2.3843   -1.2253   -0.9671 N   0  0  0  0  0  0  0  0  0  0  0  0
    2.6916   -2.2483   -1.9440 C   0  0  0  0  0  0  0  0  0  0  0  0
    3.2209   -0.2372   -0.5058 C   0  0  0  0  0  0  0  0  0  0  0  0
    4.5914   -0.0431   -0.9679 C   0  0  0  0  0  0  0  0  0  0  0  0
    4.8420    0.4601   -2.2521 C   0  0  0  0  0  0  0  0  0  0  0  0
    6.1551    0.6477   -2.6878 C   0  0  0  0  0  0  0  0  0  0  0  0
    7.2107    0.3353   -1.8392 C   0  0  0  0  0  0  0  0  0  0  0  0
    8.4691    0.5160   -2.2583 F   0  0  0  0  0  0  0  0  0  0  0  0
    6.9792   -0.1597   -0.5613 C   0  0  0  0  0  0  0  0  0  0  0  0
    5.6671   -0.3477   -0.1227 C   0  0  0  0  0  0  0  0  0  0  0  0
    2.1027    2.1958    1.6462 H   0  0  0  0  0  0  0  0  0  0  0  0
    3.5881    1.3194    2.0568 H   0  0  0  0  0  0  0  0  0  0  0  0
    3.5200    2.3373    0.6019 H   0  0  0  0  0  0  0  0  0  0  0  0
   -0.2790    1.1891    1.1060 H   0  0  0  0  0  0  0  0  0  0  0  0
    1.2318   -0.0230    3.1236 H   0  0  0  0  0  0  0  0  0  0  0  0
   -0.4195    0.5882    3.3823 H   0  0  0  0  0  0  0  0  0  0  0  0
   -0.0203   -1.6220    4.0453 H   0  0  0  0  0  0  0  0  0  0  0  0
   -1.1884   -1.4841    1.5737 H   0  0  0  0  0  0  0  0  0  0  0  0
   -0.6861   -1.2920    0.0391 H   0  0  0  0  0  0  0  0  0  0  0  0
   -1.8682    0.1241   -1.6352 H   0  0  0  0  0  0  0  0  0  0  0  0
   -1.6793    1.5360   -0.6008 H   0  0  0  0  0  0  0  0  0  0  0  0
   -3.6342    1.8296   -2.0886 H   0  0  0  0  0  0  0  0  0  0  0  0
   -4.1924   -0.5857   -2.3914 H   0  0  0  0  0  0  0  0  0  0  0  0
   -5.6083    0.3209   -1.8638 H   0  0  0  0  0  0  0  0  0  0  0  0
   -5.3854   -1.8020   -0.5674 H   0  0  0  0  0  0  0  0  0  0  0  0
   -5.4843   -0.8023    1.7175 H   0  0  0  0  0  0  0  0  0  0  0  0
   -6.3723    0.1927    0.5658 H   0  0  0  0  0  0  0  0  0  0  0  0
   -4.9265    1.6133    2.0202 H   0  0  0  0  0  0  0  0  0  0  0  0
   -5.3278    2.3444   -0.3308 H   0  0  0  0  0  0  0  0  0  0  0  0
   -3.7192    2.8293    0.2006 H   0  0  0  0  0  0  0  0  0  0  0  0
   -2.4634    1.4061    1.8915 H   0  0  0  0  0  0  0  0  0  0  0  0
   -3.1665   -0.0915    2.4969 H   0  0  0  0  0  0  0  0  0  0  0  0
   -3.4389   -2.1135    0.9525 H   0  0  0  0  0  0  0  0  0  0  0  0
   -2.9104   -2.0244   -0.7254 H   0  0  0  0  0  0  0  0  0  0  0  0
    1.9484   -3.0470   -1.8722 H   0  0  0  0  0  0  0  0  0  0  0  0
    3.6832   -2.6559   -1.7338 H   0  0  0  0  0  0  0  0  0  0  0  0
    2.6578   -1.7923   -2.9361 H   0  0  0  0  0  0  0  0  0  0  0  0
    4.0221    0.7191   -2.9181 H   0  0  0  0  0  0  0  0  0  0  0  0
    6.3633    1.0386   -3.6793 H   0  0  0  0  0  0  0  0  0  0  0  0
    7.8214   -0.3947    0.0825 H   0  0  0  0  0  0  0  0  0  0  0  0
    5.4938   -0.7369    0.8779 H   0  0  0  0  0  0  0  0  0  0  0  0
  1  2  1  0
  2  3  1  0
  3  4  1  0
  4  5  1  0
  5  6  1  0
  4  7  1  0
  8  7  1  1
  8  9  1  0
  9 10  1  0
 10 11  1  0
 11 12  1  0
 12 13  1  0
 13 14  1  0
 14 15  1  0
 14 16  1  0
 12 17  1  0
  3 18  2  0
 18 19  1  0
 19 20  1  0
 19 21  1  0
 21 22  1  0
 22 23  1  0
 23 24  2  0
 24 25  1  0
 25 26  1  0
 25 27  2  0
 27 28  1  0
 21  2  2  0
 28 22  2  0
 16  8  1  0
 17  8  1  0
 15 10  1  0
  1 29  1  0
  1 30  1  0
  1 31  1  0
  4 32  1  1
  5 33  1  0
  5 34  1  0
  6 35  1  0
  7 36  1  0
  7 37  1  0
  9 38  1  0
  9 39  1  0
 10 40  1  6
 11 41  1  0
 11 42  1  0
 12 43  1  6
 13 44  1  0
 13 45  1  0
 14 46  1  1
 15 47  1  0
 15 48  1  0
 16 49  1  0
 16 50  1  0
 17 51  1  0
 17 52  1  0
 20 53  1  0
 20 54  1  0
 20 55  1  0
 23 56  1  0
 24 57  1  0
 27 58  1  0
 28 59  1  0
M  CHG  1   7   1
M  END
>  <_SMILES>  (92) 
Cc1c([C@H](CO)[NH2+][C@]23C[C@H]4C[C@H](C[C@H](C4)C2)C3)nn(C)c1-c1ccc(F)cc1

$$$$

     RDKit          3D

 23 24  0  0  0  0  0  0  0  0999 V2000
    5.2551    0.1186   -0.6591 N   0  0  0  0  0  0  0  0  0  0  0  0
    3.9236   -0.0498   -0.5292 C   0  0  0  0  0  0  0  0  0  0  0  0
    3.0486    0.4824   -1.4017 N   0  0  0  0  0  0  0  0  0  0  0  0
    1.8398    0.0973   -0.9385 C   0  0  0  0  0  0  0  0  0  0  0  0
    0.5429    0.2725   -1.3140 C   0  0  0  0  0  0  0  0  0  0  0  0
   -0.1802   -0.4292   -0.3458 N   0  0  0  0  0  0  0  0  0  0  0  0
   -1.6238   -0.5623   -0.2772 C   0  0  0  0  0  0  0  0  0  0  0  0
   -2.2347    0.4164    0.7160 C   0  0  0  0  0  0  0  0  0  0  0  0
   -3.7385    0.2238    0.8215 C   0  0  0  0  0  0  0  0  0  0  0  0
   -4.2869    1.1917    1.7040 O   0  0  0  0  0  0  0  0  0  0  0  0
    0.6085   -1.0382    0.6098 N   0  0  0  0  0  0  0  0  0  0  0  0
    1.7858   -0.6811    0.1968 C   0  0  0  0  0  0  0  0  0  0  0  0
    3.3287   -1.0628    0.8872 S   0  0  0  0  0  0  0  0  0  0  0  0
    5.8567   -0.5777   -0.2353 H   0  0  0  0  0  0  0  0  0  0  0  0
    5.5614    0.4199   -1.5782 H   0  0  0  0  0  0  0  0  0  0  0  0
    0.0635    0.7980   -2.1257 H   0  0  0  0  0  0  0  0  0  0  0  0
   -2.0194   -0.3964   -1.2855 H   0  0  0  0  0  0  0  0  0  0  0  0
   -1.8390   -1.6001    0.0017 H   0  0  0  0  0  0  0  0  0  0  0  0
   -1.7810    0.2957    1.7081 H   0  0  0  0  0  0  0  0  0  0  0  0
   -2.0142    1.4499    0.4194 H   0  0  0  0  0  0  0  0  0  0  0  0
   -3.9889   -0.7732    1.1981 H   0  0  0  0  0  0  0  0  0  0  0  0
   -4.2172    0.3513   -0.1545 H   0  0  0  0  0  0  0  0  0  0  0  0
   -3.8906    1.0533    2.5821 H   0  0  0  0  0  0  0  0  0  0  0  0
  1  2  1  0
  2  3  2  0
  3  4  1  0
  4  5  2  0
  5  6  1  0
  6  7  1  0
  7  8  1  0
  8  9  1  0
  9 10  1  0
  6 11  1  0
 11 12  2  0
 12 13  1  0
 13  2  1  0
 12  4  1  0
  1 14  1  0
  1 15  1  0
  5 16  1  0
  7 17  1  0
  7 18  1  0
  8 19  1  0
  8 20  1  0
  9 21  1  0
  9 22  1  0
 10 23  1  0
M  END
>  <_SMILES>  (93) 
Nc1nc2cn(CCCO)nc2s1

$$$$

     RDKit          3D

 23 24  0  0  0  0  0  0  0  0999 V2000
    5.3289    0.0205   -1.1919 N   0  0  0  0  0  0  0  0  0  0  0  0
    4.0849   -0.1464   -0.9183 C   0  0  0  0  0  0  0  0  0  0  0  0
    3.3807    0.3674    0.1553 N   0  0  0  0  0  0  0  0  0  0  0  0
    2.0994   -0.0248    0.1073 C   0  0  0  0  0  0  0  0  0  0  0  0
    0.9744    0.1518    0.8538 C   0  0  0  0  0  0  0  0  0  0  0  0
    0.0047   -0.5664    0.1785 N   0  0  0  0  0  0  0  0  0  0  0  0
   -1.3883   -0.7068    0.5633 C   0  0  0  0  0  0  0  0  0  0  0  0
   -2.2888    0.2574   -0.1978 C   0  0  0  0  0  0  0  0  0  0  0  0
   -3.7372    0.1174    0.2430 C   0  0  0  0  0  0  0  0  0  0  0  0
   -4.5618    1.0024   -0.5006 O   0  0  0  0  0  0  0  0  0  0  0  0
    0.4547   -1.1877   -0.9479 N   0  0  0  0  0  0  0  0  0  0  0  0
    1.7310   -0.8345   -0.9594 C   0  0  0  0  0  0  0  0  0  0  0  0
    3.0651   -1.1557   -2.0110 S   0  0  0  0  0  0  0  0  0  0  0  0
    5.7623    0.6119   -0.4821 H   0  0  0  0  0  0  0  0  0  0  0  0
    3.8130    0.9487    0.8555 H   0  0  0  0  0  0  0  0  0  0  0  0
    0.7579    0.6921    1.7635 H   0  0  0  0  0  0  0  0  0  0  0  0
   -1.6740   -1.7488    0.3785 H   0  0  0  0  0  0  0  0  0  0  0  0
   -1.4495   -0.5296    1.6431 H   0  0  0  0  0  0  0  0  0  0  0  0
   -2.2159    0.0827   -1.2788 H   0  0  0  0  0  0  0  0  0  0  0  0
   -1.9563    1.2925   -0.0470 H   0  0  0  0  0  0  0  0  0  0  0  0
   -4.0996   -0.9013    0.0738 H   0  0  0  0  0  0  0  0  0  0  0  0
   -3.8530    0.3491    1.3068 H   0  0  0  0  0  0  0  0  0  0  0  0
   -4.2324    1.9081   -0.3709 H   0  0  0  0  0  0  0  0  0  0  0  0
  1  2  2  3
  2  3  1  0
  3  4  1  0
  4  5  2  0
  5  6  1  0
  6  7  1  0
  7  8  1  0
  8  9  1  0
  9 10  1  0
  6 11  1  0
 11 12  2  0
 12 13  1  0
 13  2  1  0
 12  4  1  0
  1 14  1  0
  3 15  1  0
  5 16  1  0
  7 17  1  0
  7 18  1  0
  8 19  1  0
  8 20  1  0
  9 21  1  0
  9 22  1  0
 10 23  1  0
M  END
>  <_SMILES>  (94) 
N=c1[nH]c2cn(CCCO)nc2s1

$$$$

     RDKit          3D

 57 61  0  0  0  0  0  0  0  0999 V2000
   -2.2693    2.4839    1.7228 C   0  0  0  0  0  0  0  0  0  0  0  0
   -2.1122    1.2564    0.8995 C   0  0  0  0  0  0  0  0  0  0  0  0
   -0.9021    0.5356    0.6677 C   0  0  0  0  0  0  0  0  0  0  0  0
    0.4484    0.8455    1.1773 C   0  0  0  0  0  0  0  0  0  0  0  0
    0.7034    1.8327    1.8599 O   0  0  0  0  0  0  0  0  0  0  0  0
    1.3924   -0.0830    0.7895 N   0  0  0  0  0  0  0  0  0  0  0  0
    2.8155    0.1135    0.9863 C   0  0  1  0  0  0  0  0  0  0  0  0
    3.5928   -1.2231    0.9555 C   0  0  2  0  0  0  0  0  0  0  0  0
    5.0597   -0.9389    1.3374 C   0  0  0  0  0  0  0  0  0  0  0  0
    5.6891    0.0429    0.3313 C   0  0  1  0  0  0  0  0  0  0  0  0
    5.6403   -0.5765   -1.0758 C   0  0  0  0  0  0  0  0  0  0  0  0
    4.1823   -0.8635   -1.4737 C   0  0  1  0  0  0  0  0  0  0  0  0
    3.5677   -1.8399   -0.4575 C   0  0  0  0  0  0  0  0  0  0  0  0
    3.3858    0.4522   -1.4618 C   0  0  0  0  0  0  0  0  0  0  0  0
    3.4207    1.0845   -0.0564 C   0  0  2  0  0  0  0  0  0  0  0  0
    4.8884    1.3577    0.3276 C   0  0  0  0  0  0  0  0  0  0  0  0
   -1.1167   -0.5319   -0.1295 N   0  0  0  0  0  0  0  0  0  0  0  0
   -2.4366   -0.4881   -0.3966 N   0  0  0  0  0  0  0  0  0  0  0  0
   -2.9967   -1.5088   -1.2600 C   0  0  0  0  0  0  0  0  0  0  0  0
   -3.2452   -2.8098   -0.5127 C   0  0  0  0  0  0  0  0  0  0  0  0
   -3.7956   -3.7925   -1.3872 O   0  0  0  0  0  0  0  0  0  0  0  0
   -3.0882    0.5634    0.1993 C   0  0  0  0  0  0  0  0  0  0  0  0
   -4.5136    0.8336    0.0628 C   0  0  0  0  0  0  0  0  0  0  0  0
   -5.4430    0.1398    0.8470 C   0  0  0  0  0  0  0  0  0  0  0  0
   -6.8087    0.3974    0.7135 C   0  0  0  0  0  0  0  0  0  0  0  0
   -7.2509    1.3535   -0.2007 C   0  0  0  0  0  0  0  0  0  0  0  0
   -6.3248    2.0507   -0.9751 C   0  0  0  0  0  0  0  0  0  0  0  0
   -6.8716    3.2326   -2.0999 Cl  0  0  0  0  0  0  0  0  0  0  0  0
   -4.9597    1.7977   -0.8474 C   0  0  0  0  0  0  0  0  0  0  0  0
   -3.3134    2.8062    1.7796 H   0  0  0  0  0  0  0  0  0  0  0  0
   -1.9220    2.3059    2.7456 H   0  0  0  0  0  0  0  0  0  0  0  0
   -1.6880    3.3067    1.2947 H   0  0  0  0  0  0  0  0  0  0  0  0
    1.0439   -0.7649    0.1208 H   0  0  0  0  0  0  0  0  0  0  0  0
    2.9280    0.5617    1.9829 H   0  0  0  0  0  0  0  0  0  0  0  0
    3.1565   -1.9309    1.6702 H   0  0  0  0  0  0  0  0  0  0  0  0
    5.6306   -1.8755    1.3532 H   0  0  0  0  0  0  0  0  0  0  0  0
    5.1094   -0.5200    2.3500 H   0  0  0  0  0  0  0  0  0  0  0  0
    6.7291    0.2437    0.6114 H   0  0  0  0  0  0  0  0  0  0  0  0
    6.2244   -1.5048   -1.0971 H   0  0  0  0  0  0  0  0  0  0  0  0
    6.0999    0.1052   -1.8020 H   0  0  0  0  0  0  0  0  0  0  0  0
    4.1534   -1.3051   -2.4760 H   0  0  0  0  0  0  0  0  0  0  0  0
    4.1303   -2.7820   -0.4603 H   0  0  0  0  0  0  0  0  0  0  0  0
    2.5426   -2.0918   -0.7519 H   0  0  0  0  0  0  0  0  0  0  0  0
    3.8116    1.1506   -2.1930 H   0  0  0  0  0  0  0  0  0  0  0  0
    2.3504    0.2673   -1.7720 H   0  0  0  0  0  0  0  0  0  0  0  0
    2.8654    2.0295   -0.0697 H   0  0  0  0  0  0  0  0  0  0  0  0
    5.3349    2.0661   -0.3811 H   0  0  0  0  0  0  0  0  0  0  0  0
    4.9356    1.8274    1.3178 H   0  0  0  0  0  0  0  0  0  0  0  0
   -3.9212   -1.1359   -1.7126 H   0  0  0  0  0  0  0  0  0  0  0  0
   -2.2962   -1.6672   -2.0889 H   0  0  0  0  0  0  0  0  0  0  0  0
   -3.9566   -2.6580    0.3053 H   0  0  0  0  0  0  0  0  0  0  0  0
   -2.3236   -3.2108   -0.0767 H   0  0  0  0  0  0  0  0  0  0  0  0
   -3.0804   -4.0995   -1.9721 H   0  0  0  0  0  0  0  0  0  0  0  0
   -5.1091   -0.5996    1.5721 H   0  0  0  0  0  0  0  0  0  0  0  0
   -7.5267   -0.1443    1.3246 H   0  0  0  0  0  0  0  0  0  0  0  0
   -8.3146    1.5528   -0.3017 H   0  0  0  0  0  0  0  0  0  0  0  0
   -4.2455    2.3498   -1.4533 H   0  0  0  0  0  0  0  0  0  0  0  0
  1  2  1  0
  2  3  1  0
  3  4  1  0
  4  5  2  0
  4  6  1  0
  6  7  1  0
  7  8  1  0
  8  9  1  0
  9 10  1  0
 10 11  1  0
 11 12  1  0
 12 13  1  0
 12 14  1  0
 14 15  1  0
 15 16  1  0
  3 17  2  0
 17 18  1  0
 18 19  1  0
 19 20  1  0
 20 21  1  0
 18 22  1  0
 22 23  1  0
 23 24  2  0
 24 25  1  0
 25 26  2  0
 26 27  1  0
 27 28  1  0
 27 29  2  0
 22  2  2  0
 29 23  1  0
 15  7  1  0
 13  8  1  0
 16 10  1  0
  1 30  1  0
  1 31  1  0
  1 32  1  0
  6 33  1  0
  7 34  1  1
  8 35  1  1
  9 36  1  0
  9 37  1  0
 10 38  1  1
 11 39  1  0
 11 40  1  0
 12 41  1  6
 13 42  1  0
 13 43  1  0
 14 44  1  0
 14 45  1  0
 15 46  1  6
 16 47  1  0
 16 48  1  0
 19 49  1  0
 19 50  1  0
 20 51  1  0
 20 52  1  0
 21 53  1  0
 24 54  1  0
 25 55  1  0
 26 56  1  0
 29 57  1  0
M  END
>  <_SMILES>  (95) 
Cc1c(C(=O)N[C@H]2[C@@H]3C[C@H]4C[C@@H](C3)C[C@@H]2C4)nn(CCO)c1-c1cccc(Cl)c1

$$$$

     RDKit          3D

 45 48  0  0  0  0  0  0  0  0999 V2000
    7.4548   -0.0465    0.8572 C   0  0  0  0  0  0  0  0  0  0  0  0
    6.1142   -0.3274    0.1970 C   0  0  0  0  0  0  0  0  0  0  0  0
    5.4008    0.9679   -0.1937 C   0  0  0  0  0  0  0  0  0  0  0  0
    4.0893    0.6945   -0.8576 C   0  0  0  0  0  0  0  0  0  0  0  0
    3.8175    0.4836   -2.1936 C   0  0  0  0  0  0  0  0  0  0  0  0
    2.4939    0.2541   -2.5069 N   0  0  0  0  0  0  0  0  0  0  0  0
    1.7563    0.2912   -1.4129 C   0  0  0  0  0  0  0  0  0  0  0  0
    0.3007    0.0821   -1.4213 C   0  0  0  0  0  0  0  0  0  0  0  0
   -0.3423   -0.1426   -2.4455 O   0  0  0  0  0  0  0  0  0  0  0  0
   -0.3242    0.1533   -0.1814 N   0  0  0  0  0  0  0  0  0  0  0  0
   -1.7590   -0.0207    0.0613 C   0  0  2  0  0  0  0  0  0  0  0  0
   -2.6017    1.0492   -0.6767 C   0  0  0  0  0  0  0  0  0  0  0  0
   -4.0975    0.8743   -0.3589 C   0  0  1  0  0  0  0  0  0  0  0  0
   -4.5467   -0.5311   -0.7940 C   0  0  0  0  0  0  0  0  0  0  0  0
   -3.7426   -1.6024   -0.0377 C   0  0  2  0  0  0  0  0  0  0  0  0
   -3.9648   -1.4306    1.4731 C   0  0  0  0  0  0  0  0  0  0  0  0
   -3.5087   -0.0311    1.9141 C   0  0  2  0  0  0  0  0  0  0  0  0
   -4.3175    1.0313    1.1538 C   0  0  0  0  0  0  0  0  0  0  0  0
   -2.0174    0.1398    1.5847 C   0  0  0  0  0  0  0  0  0  0  0  0
   -2.2464   -1.4310   -0.3551 C   0  0  0  0  0  0  0  0  0  0  0  0
    2.6308    0.6058    0.0385 S   0  0  0  0  0  0  0  0  0  0  0  0
    7.3265    0.5453    1.7691 H   0  0  0  0  0  0  0  0  0  0  0  0
    7.9480   -0.9852    1.1280 H   0  0  0  0  0  0  0  0  0  0  0  0
    8.1177    0.5027    0.1809 H   0  0  0  0  0  0  0  0  0  0  0  0
    6.2748   -0.9521   -0.6903 H   0  0  0  0  0  0  0  0  0  0  0  0
    5.4905   -0.9102    0.8858 H   0  0  0  0  0  0  0  0  0  0  0  0
    5.2546    1.5968    0.6934 H   0  0  0  0  0  0  0  0  0  0  0  0
    6.0347    1.5444   -0.8796 H   0  0  0  0  0  0  0  0  0  0  0  0
    4.5527    0.4849   -2.9899 H   0  0  0  0  0  0  0  0  0  0  0  0
    0.2714    0.3414    0.6151 H   0  0  0  0  0  0  0  0  0  0  0  0
   -2.4593    0.9829   -1.7615 H   0  0  0  0  0  0  0  0  0  0  0  0
   -2.2729    2.0554   -0.3854 H   0  0  0  0  0  0  0  0  0  0  0  0
   -4.6794    1.6312   -0.8967 H   0  0  0  0  0  0  0  0  0  0  0  0
   -5.6180   -0.6589   -0.5956 H   0  0  0  0  0  0  0  0  0  0  0  0
   -4.4069   -0.6513   -1.8753 H   0  0  0  0  0  0  0  0  0  0  0  0
   -4.0731   -2.6000   -0.3479 H   0  0  0  0  0  0  0  0  0  0  0  0
   -3.4070   -2.1979    2.0238 H   0  0  0  0  0  0  0  0  0  0  0  0
   -5.0252   -1.5728    1.7147 H   0  0  0  0  0  0  0  0  0  0  0  0
   -3.6657    0.0862    2.9921 H   0  0  0  0  0  0  0  0  0  0  0  0
   -4.0135    2.0352    1.4748 H   0  0  0  0  0  0  0  0  0  0  0  0
   -5.3840    0.9307    1.3900 H   0  0  0  0  0  0  0  0  0  0  0  0
   -1.6751    1.1271    1.9232 H   0  0  0  0  0  0  0  0  0  0  0  0
   -1.4280   -0.5971    2.1469 H   0  0  0  0  0  0  0  0  0  0  0  0
   -2.0890   -1.6014   -1.4264 H   0  0  0  0  0  0  0  0  0  0  0  0
   -1.6630   -2.2010    0.1667 H   0  0  0  0  0  0  0  0  0  0  0  0
  1  2  1  0
  2  3  1  0
  3  4  1  0
  4  5  2  0
  5  6  1  0
  6  7  2  0
  7  8  1  0
  8  9  2  0
  8 10  1  0
 11 10  1  1
 11 12  1  0
 12 13  1  0
 13 14  1  0
 14 15  1  0
 15 16  1  0
 16 17  1  0
 17 18  1  0
 17 19  1  0
 15 20  1  0
  7 21  1  0
 21  4  1  0
 19 11  1  0
 20 11  1  0
 18 13  1  0
  1 22  1  0
  1 23  1  0
  1 24  1  0
  2 25  1  0
  2 26  1  0
  3 27  1  0
  3 28  1  0
  5 29  1  0
 10 30  1  0
 12 31  1  0
 12 32  1  0
 13 33  1  6
 14 34  1  0
 14 35  1  0
 15 36  1  6
 16 37  1  0
 16 38  1  0
 17 39  1  1
 18 40  1  0
 18 41  1  0
 19 42  1  0
 19 43  1  0
 20 44  1  0
 20 45  1  0
M  END
>  <_SMILES>  (96) 
CCCc1cnc(C(=O)N[C@]23C[C@H]4C[C@H](C[C@H](C4)C2)C3)s1

$$$$

     RDKit          3D

 30 31  0  0  0  0  0  0  0  0999 V2000
    1.9651    0.5638   -1.8075 C   0  0  0  0  0  0  0  0  0  0  0  0
    2.1402    0.1340   -0.4284 N   0  0  0  0  0  0  0  0  0  0  0  0
    1.0901   -0.3233    0.3523 C   0  0  0  0  0  0  0  0  0  0  0  0
   -0.3370   -0.2787   -0.2169 C   0  0  0  0  0  0  0  0  0  0  0  0
   -1.2140   -1.4176    0.3297 C   0  0  0  0  0  0  0  0  0  0  0  0
   -2.6386   -1.3333   -0.2143 C   0  0  0  0  0  0  0  0  0  0  0  0
   -3.2702    0.0237    0.0826 C   0  0  0  0  0  0  0  0  0  0  0  0
   -2.4030    1.1728   -0.4234 C   0  0  0  0  0  0  0  0  0  0  0  0
   -0.9747    1.0811    0.1092 C   0  0  0  0  0  0  0  0  0  0  0  0
    1.2430   -0.7397    1.5727 N   0  0  0  0  0  0  0  0  0  0  0  0
    2.5017   -0.7468    2.0936 C   0  0  0  0  0  0  0  0  0  0  0  0
    3.5943   -0.3563    1.4418 C   0  0  0  0  0  0  0  0  0  0  0  0
    3.4373    0.1122    0.0591 C   0  0  0  0  0  0  0  0  0  0  0  0
    4.4396    0.4406   -0.5711 O   0  0  0  0  0  0  0  0  0  0  0  0
    2.8734    1.0063   -2.2253 H   0  0  0  0  0  0  0  0  0  0  0  0
    1.6926   -0.3075   -2.4113 H   0  0  0  0  0  0  0  0  0  0  0  0
    1.1653    1.3051   -1.8714 H   0  0  0  0  0  0  0  0  0  0  0  0
   -0.2983   -0.3989   -1.3047 H   0  0  0  0  0  0  0  0  0  0  0  0
   -1.2527   -1.3852    1.4260 H   0  0  0  0  0  0  0  0  0  0  0  0
   -0.7751   -2.3860    0.0609 H   0  0  0  0  0  0  0  0  0  0  0  0
   -3.2496   -2.1285    0.2276 H   0  0  0  0  0  0  0  0  0  0  0  0
   -2.6275   -1.5031   -1.2979 H   0  0  0  0  0  0  0  0  0  0  0  0
   -3.4162    0.1279    1.1649 H   0  0  0  0  0  0  0  0  0  0  0  0
   -4.2621    0.0785   -0.3798 H   0  0  0  0  0  0  0  0  0  0  0  0
   -2.8473    2.1285   -0.1233 H   0  0  0  0  0  0  0  0  0  0  0  0
   -2.3837    1.1599   -1.5201 H   0  0  0  0  0  0  0  0  0  0  0  0
   -0.3791    1.8999   -0.3092 H   0  0  0  0  0  0  0  0  0  0  0  0
   -0.9823    1.2370    1.1961 H   0  0  0  0  0  0  0  0  0  0  0  0
    2.5832   -1.1027    3.1175 H   0  0  0  0  0  0  0  0  0  0  0  0
    4.5854   -0.3720    1.8707 H   0  0  0  0  0  0  0  0  0  0  0  0
  1  2  1  0
  2  3  1  0
  3  4  1  0
  4  5  1  0
  5  6  1  0
  6  7  1  0
  7  8  1  0
  8  9  1  0
  3 10  2  0
 10 11  1  0
 11 12  2  0
 12 13  1  0
 13 14  2  0
 13  2  1  0
  9  4  1  0
  1 15  1  0
  1 16  1  0
  1 17  1  0
  4 18  1  0
  5 19  1  0
  5 20  1  0
  6 21  1  0
  6 22  1  0
  7 23  1  0
  7 24  1  0
  8 25  1  0
  8 26  1  0
  9 27  1  0
  9 28  1  0
 11 29  1  0
 12 30  1  0
M  END
>  <_SMILES>  (97) 
Cn1c(C2CCCCC2)nccc1=O

$$$$

     RDKit          3D

 72 76  0  0  0  0  0  0  0  0999 V2000
   -0.8214    0.8863   -1.9395 C   0  0  0  0  0  0  0  0  0  0  0  0
    0.3489    0.9876   -1.0182 C   0  0  0  0  0  0  0  0  0  0  0  0
    0.4829    0.2961    0.2346 C   0  0  0  0  0  0  0  0  0  0  0  0
   -0.3879   -0.6902    0.8621 C   0  0  0  0  0  0  0  0  0  0  0  0
    0.0593   -1.7818    1.1906 O   0  0  0  0  0  0  0  0  0  0  0  0
   -1.6781   -0.2604    1.0357 N   0  0  0  0  0  0  0  0  0  0  0  0
   -2.7320   -1.0196    1.7152 C   0  0  2  0  0  0  0  0  0  0  0  0
   -4.0426   -0.1890    1.6689 C   0  0  0  0  0  0  0  0  0  0  0  0
   -5.1903   -0.9307    2.3722 C   0  0  1  0  0  0  0  0  0  0  0  0
   -5.4265   -2.2760    1.6686 C   0  0  0  0  0  0  0  0  0  0  0  0
   -4.1483   -3.1271    1.7222 C   0  0  2  0  0  0  0  0  0  0  0  0
   -3.7615   -3.3704    3.1911 C   0  0  0  0  0  0  0  0  0  0  0  0
   -3.5218   -2.0291    3.9049 C   0  0  2  0  0  0  0  0  0  0  0  0
   -4.8036   -1.1836    3.8380 C   0  0  0  0  0  0  0  0  0  0  0  0
   -2.3789   -1.2769    3.2005 C   0  0  0  0  0  0  0  0  0  0  0  0
   -3.0060   -2.3752    1.0163 C   0  0  0  0  0  0  0  0  0  0  0  0
    1.6974    0.6672    0.7721 C   0  0  0  0  0  0  0  0  0  0  0  0
    2.3384    1.4799   -0.1223 N   0  0  0  0  0  0  0  0  0  0  0  0
    3.7561    1.7845   -0.0126 C   0  0  0  0  0  0  0  0  0  0  0  0
    4.6389    0.9332   -0.9369 C   0  0  0  0  0  0  0  0  0  0  0  0
    4.5925   -0.5705   -0.6431 C   0  0  0  0  0  0  0  0  0  0  0  0
    3.4241   -1.2622   -1.3103 N   0  0  0  0  0  0  0  0  0  0  0  0
    2.9952   -2.5023   -0.5664 C   0  0  0  0  0  0  0  0  0  0  0  0
    3.6403   -1.5442   -2.7671 C   0  0  0  0  0  0  0  0  0  0  0  0
    1.5138    1.7308   -1.2047 C   0  0  0  0  0  0  0  0  0  0  0  0
    1.9511    2.5263   -2.2273 N   0  0  0  0  0  0  0  0  0  0  0  0
    2.1870    3.9713   -1.9230 C   0  0  0  0  0  0  0  0  0  0  0  0
    1.4872    4.8887   -2.9377 C   0  0  0  0  0  0  0  0  0  0  0  0
    1.9140    4.6566   -4.2875 O   0  0  0  0  0  0  0  0  0  0  0  0
    2.1896    3.2769   -4.5672 C   0  0  0  0  0  0  0  0  0  0  0  0
    1.4753    2.3079   -3.6120 C   0  0  0  0  0  0  0  0  0  0  0  0
   -0.5207    0.4401   -2.8924 H   0  0  0  0  0  0  0  0  0  0  0  0
   -1.6180    0.2572   -1.5352 H   0  0  0  0  0  0  0  0  0  0  0  0
   -1.2479    1.8771   -2.1248 H   0  0  0  0  0  0  0  0  0  0  0  0
   -1.8497    0.7238    0.8689 H   0  0  0  0  0  0  0  0  0  0  0  0
   -4.3195    0.0210    0.6270 H   0  0  0  0  0  0  0  0  0  0  0  0
   -3.8878    0.7877    2.1468 H   0  0  0  0  0  0  0  0  0  0  0  0
   -6.1030   -0.3260    2.3296 H   0  0  0  0  0  0  0  0  0  0  0  0
   -6.2539   -2.8112    2.1506 H   0  0  0  0  0  0  0  0  0  0  0  0
   -5.7212   -2.1074    0.6255 H   0  0  0  0  0  0  0  0  0  0  0  0
   -4.3226   -4.0864    1.2222 H   0  0  0  0  0  0  0  0  0  0  0  0
   -4.5580   -3.9273    3.6998 H   0  0  0  0  0  0  0  0  0  0  0  0
   -2.8573   -3.9894    3.2430 H   0  0  0  0  0  0  0  0  0  0  0  0
   -3.2535   -2.2104    4.9518 H   0  0  0  0  0  0  0  0  0  0  0  0
   -5.6205   -1.6997    4.3573 H   0  0  0  0  0  0  0  0  0  0  0  0
   -4.6504   -0.2287    4.3557 H   0  0  0  0  0  0  0  0  0  0  0  0
   -1.4562   -1.8634    3.2860 H   0  0  0  0  0  0  0  0  0  0  0  0
   -2.1863   -0.3253    3.7131 H   0  0  0  0  0  0  0  0  0  0  0  0
   -2.1108   -3.0077    1.0194 H   0  0  0  0  0  0  0  0  0  0  0  0
   -3.2619   -2.2107   -0.0386 H   0  0  0  0  0  0  0  0  0  0  0  0
    2.1656    0.3612    1.7009 H   0  0  0  0  0  0  0  0  0  0  0  0
    4.0511    1.6288    1.0325 H   0  0  0  0  0  0  0  0  0  0  0  0
    3.8943    2.8496   -0.2123 H   0  0  0  0  0  0  0  0  0  0  0  0
    4.4072    1.1381   -1.9868 H   0  0  0  0  0  0  0  0  0  0  0  0
    5.6729    1.2675   -0.7828 H   0  0  0  0  0  0  0  0  0  0  0  0
    5.4993   -1.0660   -1.0078 H   0  0  0  0  0  0  0  0  0  0  0  0
    4.5209   -0.7464    0.4360 H   0  0  0  0  0  0  0  0  0  0  0  0
    2.6088   -0.6357   -1.2631 H   0  0  0  0  0  0  0  0  0  0  0  0
    3.8097   -3.2299   -0.6128 H   0  0  0  0  0  0  0  0  0  0  0  0
    2.0924   -2.8900   -1.0457 H   0  0  0  0  0  0  0  0  0  0  0  0
    2.7786   -2.2256    0.4680 H   0  0  0  0  0  0  0  0  0  0  0  0
    2.7222   -1.9822   -3.1682 H   0  0  0  0  0  0  0  0  0  0  0  0
    3.8490   -0.6024   -3.2786 H   0  0  0  0  0  0  0  0  0  0  0  0
    4.4787   -2.2384   -2.8683 H   0  0  0  0  0  0  0  0  0  0  0  0
    1.8474    4.2277   -0.9123 H   0  0  0  0  0  0  0  0  0  0  0  0
    3.2675    4.1472   -1.9783 H   0  0  0  0  0  0  0  0  0  0  0  0
    1.6974    5.9371   -2.7033 H   0  0  0  0  0  0  0  0  0  0  0  0
    0.3997    4.7567   -2.8953 H   0  0  0  0  0  0  0  0  0  0  0  0
    1.8850    3.0837   -5.6006 H   0  0  0  0  0  0  0  0  0  0  0  0
    3.2755    3.1378   -4.5112 H   0  0  0  0  0  0  0  0  0  0  0  0
    0.3976    2.4876   -3.6794 H   0  0  0  0  0  0  0  0  0  0  0  0
    1.6852    1.2762   -3.9158 H   0  0  0  0  0  0  0  0  0  0  0  0
  1  2  1  0
  2  3  1  0
  3  4  1  0
  4  5  2  0
  4  6  1  0
  7  6  1  6
  7  8  1  0
  8  9  1  0
  9 10  1  0
 10 11  1  0
 11 12  1  0
 12 13  1  0
 13 14  1  0
 13 15  1  0
 11 16  1  0
  3 17  2  0
 17 18  1  0
 18 19  1  0
 19 20  1  0
 20 21  1  0
 21 22  1  0
 22 23  1  0
 22 24  1  0
 18 25  1  0
 25 26  1  0
 26 27  1  0
 27 28  1  0
 28 29  1  0
 29 30  1  0
 30 31  1  0
 25  2  2  0
 31 26  1  0
 15  7  1  0
 16  7  1  0
 14  9  1  0
  1 32  1  0
  1 33  1  0
  1 34  1  0
  6 35  1  0
  8 36  1  0
  8 37  1  0
  9 38  1  1
 10 39  1  0
 10 40  1  0
 11 41  1  6
 12 42  1  0
 12 43  1  0
 13 44  1  1
 14 45  1  0
 14 46  1  0
 15 47  1  0
 15 48  1  0
 16 49  1  0
 16 50  1  0
 17 51  1  0
 19 52  1  0
 19 53  1  0
 20 54  1  0
 20 55  1  0
 21 56  1  0
 21 57  1  0
 22 58  1  0
 23 59  1  0
 23 60  1  0
 23 61  1  0
 24 62  1  0
 24 63  1  0
 24 64  1  0
 27 65  1  0
 27 66  1  0
 28 67  1  0
 28 68  1  0
 30 69  1  0
 30 70  1  0
 31 71  1  0
 31 72  1  0
M  CHG  1  22   1
M  END
>  <_SMILES>  (98) 
Cc1c(C(=O)N[C@]23C[C@H]4C[C@H](C[C@H](C4)C2)C3)cn(CCC[NH+](C)C)c1N1CCOCC1

$$$$

     RDKit          3D

 54 59  0  0  0  0  0  0  0  0999 V2000
   -1.6796   -2.4151    0.1813 O   0  0  0  0  0  0  0  0  0  0  0  0
   -1.0481   -1.3664    0.1450 C   0  0  0  0  0  0  0  0  0  0  0  0
   -1.6178   -0.1088    0.1237 N   0  0  0  0  0  0  0  0  0  0  0  0
   -3.0609    0.1493    0.1869 C   0  0  2  0  0  0  0  0  0  0  0  0
   -3.8204   -0.5083   -0.9934 C   0  0  0  0  0  0  0  0  0  0  0  0
   -5.3214   -0.1750   -0.9250 C   0  0  1  0  0  0  0  0  0  0  0  0
   -5.8926   -0.6863    0.4087 C   0  0  0  0  0  0  0  0  0  0  0  0
   -5.1712   -0.0110    1.5876 C   0  0  2  0  0  0  0  0  0  0  0  0
   -5.3583    1.5114    1.4909 C   0  0  0  0  0  0  0  0  0  0  0  0
   -4.7817    2.0281    0.1634 C   0  0  2  0  0  0  0  0  0  0  0  0
   -5.5086    1.3478   -1.0067 C   0  0  0  0  0  0  0  0  0  0  0  0
   -3.2855    1.6835    0.0957 C   0  0  0  0  0  0  0  0  0  0  0  0
   -3.6702   -0.3445    1.5220 C   0  0  0  0  0  0  0  0  0  0  0  0
    0.4412   -1.4025    0.1672 C   0  0  0  0  0  0  0  0  0  0  0  0
    1.0679   -2.4719    0.8163 C   0  0  0  0  0  0  0  0  0  0  0  0
    2.4622   -2.5657    0.8776 C   0  0  0  0  0  0  0  0  0  0  0  0
    3.2030   -1.5554    0.2552 C   0  0  0  0  0  0  0  0  0  0  0  0
    4.5652   -1.3895    0.1523 N   0  0  0  0  0  0  0  0  0  0  0  0
    4.8744   -0.2554   -0.5665 C   0  0  0  0  0  0  0  0  0  0  0  0
    6.2490    0.1740   -0.8276 C   0  0  0  0  0  0  0  0  0  0  0  0
    6.5732    1.5373   -0.8381 C   0  0  0  0  0  0  0  0  0  0  0  0
    7.8832    1.9579   -1.0825 C   0  0  0  0  0  0  0  0  0  0  0  0
    8.8837    1.0194   -1.3236 C   0  0  0  0  0  0  0  0  0  0  0  0
    8.5748   -0.3389   -1.3229 C   0  0  0  0  0  0  0  0  0  0  0  0
    7.2648   -0.7596   -1.0768 C   0  0  0  0  0  0  0  0  0  0  0  0
    3.6662    0.3216   -0.9189 C   0  0  0  0  0  0  0  0  0  0  0  0
    2.6115   -0.4858   -0.4115 C   0  0  0  0  0  0  0  0  0  0  0  0
    1.2058   -0.4072   -0.4648 C   0  0  0  0  0  0  0  0  0  0  0  0
   -1.0101    0.6692    0.3427 H   0  0  0  0  0  0  0  0  0  0  0  0
   -3.4037   -0.1633   -1.9489 H   0  0  0  0  0  0  0  0  0  0  0  0
   -3.7005   -1.5975   -0.9826 H   0  0  0  0  0  0  0  0  0  0  0  0
   -5.8442   -0.6560   -1.7594 H   0  0  0  0  0  0  0  0  0  0  0  0
   -5.7775   -1.7752    0.4729 H   0  0  0  0  0  0  0  0  0  0  0  0
   -6.9682   -0.4765    0.4593 H   0  0  0  0  0  0  0  0  0  0  0  0
   -5.5885   -0.3746    2.5333 H   0  0  0  0  0  0  0  0  0  0  0  0
   -4.8593    2.0048    2.3340 H   0  0  0  0  0  0  0  0  0  0  0  0
   -6.4237    1.7633    1.5600 H   0  0  0  0  0  0  0  0  0  0  0  0
   -4.9148    3.1138    0.1001 H   0  0  0  0  0  0  0  0  0  0  0  0
   -5.1178    1.7231   -1.9605 H   0  0  0  0  0  0  0  0  0  0  0  0
   -6.5766    1.5964   -0.9802 H   0  0  0  0  0  0  0  0  0  0  0  0
   -2.7539    2.1920    0.9113 H   0  0  0  0  0  0  0  0  0  0  0  0
   -2.8567    2.0724   -0.8377 H   0  0  0  0  0  0  0  0  0  0  0  0
   -3.1476    0.1183    2.3694 H   0  0  0  0  0  0  0  0  0  0  0  0
   -3.5384   -1.4272    1.6352 H   0  0  0  0  0  0  0  0  0  0  0  0
    0.4632   -3.2470    1.2854 H   0  0  0  0  0  0  0  0  0  0  0  0
    2.9416   -3.3964    1.3853 H   0  0  0  0  0  0  0  0  0  0  0  0
    5.2464   -2.0103    0.5645 H   0  0  0  0  0  0  0  0  0  0  0  0
    5.8093    2.2863   -0.6439 H   0  0  0  0  0  0  0  0  0  0  0  0
    8.1204    3.0186   -1.0835 H   0  0  0  0  0  0  0  0  0  0  0  0
    9.9021    1.3466   -1.5163 H   0  0  0  0  0  0  0  0  0  0  0  0
    9.3522   -1.0724   -1.5210 H   0  0  0  0  0  0  0  0  0  0  0  0
    7.0472   -1.8241   -1.1056 H   0  0  0  0  0  0  0  0  0  0  0  0
    3.5517    1.2300   -1.4962 H   0  0  0  0  0  0  0  0  0  0  0  0
    0.7374    0.4026   -1.0139 H   0  0  0  0  0  0  0  0  0  0  0  0
  1  2  2  0
  2  3  1  0
  4  3  1  1
  4  5  1  0
  5  6  1  0
  6  7  1  0
  7  8  1  0
  8  9  1  0
  9 10  1  0
 10 11  1  0
 10 12  1  0
  8 13  1  0
  2 14  1  0
 14 15  2  0
 15 16  1  0
 16 17  2  0
 17 18  1  0
 18 19  1  0
 19 20  1  0
 20 21  2  0
 21 22  1  0
 22 23  2  0
 23 24  1  0
 24 25  2  0
 19 26  2  0
 26 27  1  0
 27 28  2  0
 12  4  1  0
 28 14  1  0
 13  4  1  0
 27 17  1  0
 11  6  1  0
 25 20  1  0
  3 29  1  0
  5 30  1  0
  5 31  1  0
  6 32  1  6
  7 33  1  0
  7 34  1  0
  8 35  1  1
  9 36  1  0
  9 37  1  0
 10 38  1  6
 11 39  1  0
 11 40  1  0
 12 41  1  0
 12 42  1  0
 13 43  1  0
 13 44  1  0
 15 45  1  0
 16 46  1  0
 18 47  1  0
 21 48  1  0
 22 49  1  0
 23 50  1  0
 24 51  1  0
 25 52  1  0
 26 53  1  0
 28 54  1  0
M  END
>  <_SMILES>  (99) 
O=C(N[C@]12C[C@H]3C[C@H](C[C@H](C3)C1)C2)c1ccc2[nH]c(-c3ccccc3)cc2c1

$$$$

     RDKit          3D

 45 46  0  0  0  0  0  0  0  0999 V2000
    1.8113    2.5945   -0.8509 C   0  0  0  0  0  0  0  0  0  0  0  0
    1.1843    1.4280   -0.1765 C   0  0  0  0  0  0  0  0  0  0  0  0
    1.7743    0.1458    0.0321 C   0  0  0  0  0  0  0  0  0  0  0  0
    3.1174   -0.3106   -0.3717 C   0  0  0  0  0  0  0  0  0  0  0  0
    3.9235    0.3909   -0.9748 O   0  0  0  0  0  0  0  0  0  0  0  0
    3.3767   -1.6139   -0.0079 N   0  0  0  0  0  0  0  0  0  0  0  0
    4.6579   -2.2497   -0.2127 C   0  0  0  0  0  0  0  0  0  0  0  0
    4.9647   -2.5503   -1.6731 C   0  0  0  0  0  0  0  0  0  0  0  0
    6.1004   -3.2984   -1.7389 F   0  0  0  0  0  0  0  0  0  0  0  0
    0.9290   -0.6796    0.6821 N   0  0  0  0  0  0  0  0  0  0  0  0
   -0.1782    0.0633    0.8789 N   0  0  0  0  0  0  0  0  0  0  0  0
   -1.3147   -0.5492    1.5468 C   0  0  0  0  0  0  0  0  0  0  0  0
   -2.3563   -1.1153    0.5833 C   0  0  0  0  0  0  0  0  0  0  0  0
   -1.8387   -2.3091   -0.2160 C   0  0  0  0  0  0  0  0  0  0  0  0
   -2.9552   -2.8759   -1.0546 C   0  0  0  0  0  0  0  0  0  0  0  0
   -3.7580   -3.8407   -0.7218 N   0  0  0  0  0  0  0  0  0  0  0  0
   -3.4625   -4.3350    0.5520 O   0  0  0  0  0  0  0  0  0  0  0  0
   -0.0795    1.3429    0.3886 C   0  0  0  0  0  0  0  0  0  0  0  0
   -1.1390    2.3408    0.4693 C   0  0  0  0  0  0  0  0  0  0  0  0
   -1.9337    2.6139   -0.6496 C   0  0  0  0  0  0  0  0  0  0  0  0
   -2.9502    3.5676   -0.5742 C   0  0  0  0  0  0  0  0  0  0  0  0
   -3.1726    4.2571    0.6171 C   0  0  0  0  0  0  0  0  0  0  0  0
   -2.3770    3.9978    1.7324 C   0  0  0  0  0  0  0  0  0  0  0  0
   -1.3604    3.0440    1.6587 C   0  0  0  0  0  0  0  0  0  0  0  0
    1.1605    3.4739   -0.8358 H   0  0  0  0  0  0  0  0  0  0  0  0
    2.0294    2.3576   -1.8972 H   0  0  0  0  0  0  0  0  0  0  0  0
    2.7471    2.8672   -0.3524 H   0  0  0  0  0  0  0  0  0  0  0  0
    2.6413   -2.0672    0.5304 H   0  0  0  0  0  0  0  0  0  0  0  0
    5.4409   -1.6066    0.2042 H   0  0  0  0  0  0  0  0  0  0  0  0
    4.6595   -3.1794    0.3656 H   0  0  0  0  0  0  0  0  0  0  0  0
    4.1577   -3.1243   -2.1387 H   0  0  0  0  0  0  0  0  0  0  0  0
    5.1237   -1.6387   -2.2557 H   0  0  0  0  0  0  0  0  0  0  0  0
   -1.7696    0.2095    2.1916 H   0  0  0  0  0  0  0  0  0  0  0  0
   -0.9287   -1.3342    2.2083 H   0  0  0  0  0  0  0  0  0  0  0  0
   -3.2329   -1.4244    1.1667 H   0  0  0  0  0  0  0  0  0  0  0  0
   -2.7063   -0.3374   -0.1059 H   0  0  0  0  0  0  0  0  0  0  0  0
   -1.4284   -3.0754    0.4484 H   0  0  0  0  0  0  0  0  0  0  0  0
   -1.0433   -2.0028   -0.9034 H   0  0  0  0  0  0  0  0  0  0  0  0
   -3.1278   -2.3873   -2.0286 H   0  0  0  0  0  0  0  0  0  0  0  0
   -4.1127   -5.0558    0.6515 H   0  0  0  0  0  0  0  0  0  0  0  0
   -1.7641    2.0866   -1.5855 H   0  0  0  0  0  0  0  0  0  0  0  0
   -3.5653    3.7761   -1.4458 H   0  0  0  0  0  0  0  0  0  0  0  0
   -3.9621    5.0024    0.6743 H   0  0  0  0  0  0  0  0  0  0  0  0
   -2.5444    4.5427    2.6580 H   0  0  0  0  0  0  0  0  0  0  0  0
   -0.7382    2.8584    2.5312 H   0  0  0  0  0  0  0  0  0  0  0  0
  1  2  1  0
  2  3  1  0
  3  4  1  0
  4  5  2  0
  4  6  1  0
  6  7  1  0
  7  8  1  0
  8  9  1  0
  3 10  2  0
 10 11  1  0
 11 12  1  0
 12 13  1  0
 13 14  1  0
 14 15  1  0
 15 16  2  0
 16 17  1  0
 11 18  1  0
 18 19  1  0
 19 20  2  0
 20 21  1  0
 21 22  2  0
 22 23  1  0
 23 24  2  0
 18  2  2  0
 24 19  1  0
  1 25  1  0
  1 26  1  0
  1 27  1  0
  6 28  1  0
  7 29  1  0
  7 30  1  0
  8 31  1  0
  8 32  1  0
 12 33  1  0
 12 34  1  0
 13 35  1  0
 13 36  1  0
 14 37  1  0
 14 38  1  0
 15 39  1  0
 17 40  1  0
 20 41  1  0
 21 42  1  0
 22 43  1  0
 23 44  1  0
 24 45  1  0
M  END
>  <_SMILES>  (100) 
Cc1c(C(=O)NCCF)nn(CCC/C=N\O)c1-c1ccccc1

$$$$

     RDKit          3D

 45 46  0  0  0  0  0  0  0  0999 V2000
    2.2813    1.6272   -0.1071 C   0  0  0  0  0  0  0  0  0  0  0  0
    1.1636    0.6715   -0.3256 C   0  0  0  0  0  0  0  0  0  0  0  0
    1.2441   -0.7000   -0.7333 C   0  0  0  0  0  0  0  0  0  0  0  0
    2.4478   -1.5139   -0.9845 C   0  0  0  0  0  0  0  0  0  0  0  0
    2.5651   -2.2820   -1.9367 O   0  0  0  0  0  0  0  0  0  0  0  0
    3.4550   -1.3518   -0.0508 N   0  0  0  0  0  0  0  0  0  0  0  0
    4.7498   -1.9826   -0.2186 C   0  0  0  0  0  0  0  0  0  0  0  0
    5.6349   -1.2270   -1.2005 C   0  0  0  0  0  0  0  0  0  0  0  0
    5.9112    0.0042   -0.6816 F   0  0  0  0  0  0  0  0  0  0  0  0
    0.0167   -1.2249   -0.8817 N   0  0  0  0  0  0  0  0  0  0  0  0
   -0.8281   -0.2303   -0.5639 N   0  0  0  0  0  0  0  0  0  0  0  0
   -2.2604   -0.4826   -0.6271 C   0  0  0  0  0  0  0  0  0  0  0  0
   -2.8457   -0.9676    0.7033 C   0  0  0  0  0  0  0  0  0  0  0  0
   -2.5426   -2.4352    1.0474 C   0  0  0  0  0  0  0  0  0  0  0  0
   -3.5943   -3.4258    0.5531 C   0  0  0  0  0  0  0  0  0  0  0  0
   -3.5957   -3.5466   -0.9300 N   0  0  0  0  0  0  0  0  0  0  0  0
   -4.6671   -3.1786   -1.4251 O   0  0  0  0  0  0  0  0  0  0  0  0
   -0.1937    0.9354   -0.2091 C   0  0  0  0  0  0  0  0  0  0  0  0
   -0.8772    2.1620    0.1806 C   0  0  0  0  0  0  0  0  0  0  0  0
   -1.3565    3.0439   -0.7942 C   0  0  0  0  0  0  0  0  0  0  0  0
   -2.0091    4.2191   -0.4182 C   0  0  0  0  0  0  0  0  0  0  0  0
   -2.1808    4.5201    0.9324 C   0  0  0  0  0  0  0  0  0  0  0  0
   -1.6977    3.6493    1.9085 C   0  0  0  0  0  0  0  0  0  0  0  0
   -1.0446    2.4738    1.5341 C   0  0  0  0  0  0  0  0  0  0  0  0
    3.1225    1.4099   -0.7729 H   0  0  0  0  0  0  0  0  0  0  0  0
    2.6318    1.5706    0.9282 H   0  0  0  0  0  0  0  0  0  0  0  0
    1.9698    2.6577   -0.3055 H   0  0  0  0  0  0  0  0  0  0  0  0
    3.3248   -0.6988    0.7087 H   0  0  0  0  0  0  0  0  0  0  0  0
    4.6021   -3.0120   -0.5611 H   0  0  0  0  0  0  0  0  0  0  0  0
    5.2191   -2.0034    0.7698 H   0  0  0  0  0  0  0  0  0  0  0  0
    5.1510   -1.0821   -2.1704 H   0  0  0  0  0  0  0  0  0  0  0  0
    6.5856   -1.7468   -1.3471 H   0  0  0  0  0  0  0  0  0  0  0  0
   -2.7431    0.4557   -0.9195 H   0  0  0  0  0  0  0  0  0  0  0  0
   -2.4349   -1.1880   -1.4445 H   0  0  0  0  0  0  0  0  0  0  0  0
   -3.9315   -0.8136    0.6924 H   0  0  0  0  0  0  0  0  0  0  0  0
   -2.4551   -0.3395    1.5136 H   0  0  0  0  0  0  0  0  0  0  0  0
   -2.5215   -2.5166    2.1421 H   0  0  0  0  0  0  0  0  0  0  0  0
   -1.5456   -2.7274    0.7020 H   0  0  0  0  0  0  0  0  0  0  0  0
   -4.5949   -3.1455    0.9001 H   0  0  0  0  0  0  0  0  0  0  0  0
   -3.3729   -4.4280    0.9343 H   0  0  0  0  0  0  0  0  0  0  0  0
   -1.2206    2.8217   -1.8505 H   0  0  0  0  0  0  0  0  0  0  0  0
   -2.3800    4.9011   -1.1792 H   0  0  0  0  0  0  0  0  0  0  0  0
   -2.6876    5.4367    1.2243 H   0  0  0  0  0  0  0  0  0  0  0  0
   -1.8271    3.8874    2.9611 H   0  0  0  0  0  0  0  0  0  0  0  0
   -0.6680    1.8031    2.3027 H   0  0  0  0  0  0  0  0  0  0  0  0
  1  2  1  0
  2  3  1  0
  3  4  1  0
  4  5  2  0
  4  6  1  0
  6  7  1  0
  7  8  1  0
  8  9  1  0
  3 10  2  0
 10 11  1  0
 11 12  1  0
 12 13  1  0
 13 14  1  0
 14 15  1  0
 15 16  1  0
 16 17  2  0
 11 18  1  0
 18 19  1  0
 19 20  2  0
 20 21  1  0
 21 22  2  0
 22 23  1  0
 23 24  2  0
 18  2  2  0
 24 19  1  0
  1 25  1  0
  1 26  1  0
  1 27  1  0
  6 28  1  0
  7 29  1  0
  7 30  1  0
  8 31  1  0
  8 32  1  0
 12 33  1  0
 12 34  1  0
 13 35  1  0
 13 36  1  0
 14 37  1  0
 14 38  1  0
 15 39  1  0
 15 40  1  0
 20 41  1  0
 21 42  1  0
 22 43  1  0
 23 44  1  0
 24 45  1  0
M  END
>  <_SMILES>  (101) 
Cc1c(C(=O)NCCF)nn(CCCCN=O)c1-c1ccccc1

$$$$

     RDKit          3D

 45 46  0  0  0  0  0  0  0  0999 V2000
   -2.7547    0.5238    0.4885 C   0  0  0  0  0  0  0  0  0  0  0  0
   -1.4304    0.0975   -0.0355 C   0  0  0  0  0  0  0  0  0  0  0  0
   -0.9322   -1.2381   -0.1809 C   0  0  0  0  0  0  0  0  0  0  0  0
   -1.6181   -2.5092    0.1131 C   0  0  0  0  0  0  0  0  0  0  0  0
   -1.0887   -3.4457    0.7074 O   0  0  0  0  0  0  0  0  0  0  0  0
   -2.9240   -2.5717   -0.3357 N   0  0  0  0  0  0  0  0  0  0  0  0
   -3.7763   -3.7043   -0.0310 C   0  0  0  0  0  0  0  0  0  0  0  0
   -4.3362   -3.6401    1.3835 C   0  0  0  0  0  0  0  0  0  0  0  0
   -5.1529   -2.5518    1.4822 F   0  0  0  0  0  0  0  0  0  0  0  0
    0.3275   -1.2292   -0.6463 N   0  0  0  0  0  0  0  0  0  0  0  0
    0.6330    0.0706   -0.7961 N   0  0  0  0  0  0  0  0  0  0  0  0
    1.9598    0.4265   -1.2751 C   0  0  0  0  0  0  0  0  0  0  0  0
    2.9647    0.6656   -0.1450 C   0  0  0  0  0  0  0  0  0  0  0  0
    3.4511   -0.6070    0.4938 C   0  0  0  0  0  0  0  0  0  0  0  0
    4.7362   -0.9772    0.5426 C   0  0  0  0  0  0  0  0  0  0  0  0
    5.2244   -2.1313    1.0981 N   0  0  0  0  0  0  0  0  0  0  0  0
    6.4669   -2.5824    0.6678 O   0  0  0  0  0  0  0  0  0  0  0  0
   -0.3978    0.9175   -0.4679 C   0  0  0  0  0  0  0  0  0  0  0  0
   -0.3257    2.3706   -0.5478 C   0  0  0  0  0  0  0  0  0  0  0  0
   -0.6151    3.0250   -1.7501 C   0  0  0  0  0  0  0  0  0  0  0  0
   -0.5431    4.4170   -1.8267 C   0  0  0  0  0  0  0  0  0  0  0  0
   -0.1862    5.1600   -0.7020 C   0  0  0  0  0  0  0  0  0  0  0  0
    0.0958    4.5137    0.5010 C   0  0  0  0  0  0  0  0  0  0  0  0
    0.0240    3.1219    0.5793 C   0  0  0  0  0  0  0  0  0  0  0  0
   -3.4881    0.5643   -0.3229 H   0  0  0  0  0  0  0  0  0  0  0  0
   -2.7027    1.5149    0.9499 H   0  0  0  0  0  0  0  0  0  0  0  0
   -3.1184   -0.1702    1.2528 H   0  0  0  0  0  0  0  0  0  0  0  0
   -3.3206   -1.7753   -0.8148 H   0  0  0  0  0  0  0  0  0  0  0  0
   -4.5934   -3.6871   -0.7588 H   0  0  0  0  0  0  0  0  0  0  0  0
   -3.2022   -4.6267   -0.1663 H   0  0  0  0  0  0  0  0  0  0  0  0
   -3.5508   -3.5401    2.1377 H   0  0  0  0  0  0  0  0  0  0  0  0
   -4.9362   -4.5270    1.6050 H   0  0  0  0  0  0  0  0  0  0  0  0
    1.8571    1.3327   -1.8813 H   0  0  0  0  0  0  0  0  0  0  0  0
    2.2956   -0.3701   -1.9504 H   0  0  0  0  0  0  0  0  0  0  0  0
    3.8174    1.2193   -0.5575 H   0  0  0  0  0  0  0  0  0  0  0  0
    2.5259    1.2986    0.6345 H   0  0  0  0  0  0  0  0  0  0  0  0
    2.6922   -1.2520    0.9348 H   0  0  0  0  0  0  0  0  0  0  0  0
    5.5161   -0.3504    0.1164 H   0  0  0  0  0  0  0  0  0  0  0  0
    4.5234   -2.8724    1.1829 H   0  0  0  0  0  0  0  0  0  0  0  0
    7.0744   -2.2223    1.3413 H   0  0  0  0  0  0  0  0  0  0  0  0
   -0.8999    2.4550   -2.6315 H   0  0  0  0  0  0  0  0  0  0  0  0
   -0.7685    4.9219   -2.7626 H   0  0  0  0  0  0  0  0  0  0  0  0
   -0.1322    6.2443   -0.7616 H   0  0  0  0  0  0  0  0  0  0  0  0
    0.3684    5.0934    1.3792 H   0  0  0  0  0  0  0  0  0  0  0  0
    0.2406    2.6274    1.5237 H   0  0  0  0  0  0  0  0  0  0  0  0
  1  2  1  0
  2  3  1  0
  3  4  1  0
  4  5  2  0
  4  6  1  0
  6  7  1  0
  7  8  1  0
  8  9  1  0
  3 10  2  0
 10 11  1  0
 11 12  1  0
 12 13  1  0
 13 14  1  0
 14 15  2  0
 15 16  1  0
 16 17  1  0
 11 18  1  0
 18 19  1  0
 19 20  2  0
 20 21  1  0
 21 22  2  0
 22 23  1  0
 23 24  2  0
 18  2  2  0
 24 19  1  0
  1 25  1  0
  1 26  1  0
  1 27  1  0
  6 28  1  0
  7 29  1  0
  7 30  1  0
  8 31  1  0
  8 32  1  0
 12 33  1  0
 12 34  1  0
 13 35  1  0
 13 36  1  0
 14 37  1  0
 15 38  1  0
 16 39  1  0
 17 40  1  0
 20 41  1  0
 21 42  1  0
 22 43  1  0
 23 44  1  0
 24 45  1  0
M  END
>  <_SMILES>  (102) 
Cc1c(C(=O)NCCF)nn(CC/C=C/NO)c1-c1ccccc1

$$$$

     RDKit          3D

 45 46  0  0  0  0  0  0  0  0999 V2000
   -2.5128    2.2252   -0.3590 C   0  0  0  0  0  0  0  0  0  0  0  0
   -1.5320    1.1625   -0.0169 C   0  0  0  0  0  0  0  0  0  0  0  0
   -1.7549   -0.2462   -0.0513 C   0  0  0  0  0  0  0  0  0  0  0  0
   -2.9882   -0.9602   -0.4312 C   0  0  0  0  0  0  0  0  0  0  0  0
   -4.0222   -0.3989   -0.7796 O   0  0  0  0  0  0  0  0  0  0  0  0
   -2.8653   -2.3297   -0.3486 N   0  0  0  0  0  0  0  0  0  0  0  0
   -3.9252   -3.2412   -0.7128 C   0  0  0  0  0  0  0  0  0  0  0  0
   -5.0850   -3.2515    0.2729 C   0  0  0  0  0  0  0  0  0  0  0  0
   -5.9408   -4.2551   -0.0648 F   0  0  0  0  0  0  0  0  0  0  0  0
   -0.6520   -0.9239    0.3260 N   0  0  0  0  0  0  0  0  0  0  0  0
    0.2599    0.0359    0.5810 N   0  0  0  0  0  0  0  0  0  0  0  0
    1.5935   -0.3612    1.0048 C   0  0  0  0  0  0  0  0  0  0  0  0
    2.6089   -0.4107   -0.1404 C   0  0  0  0  0  0  0  0  0  0  0  0
    2.4063   -1.5843   -1.0609 C   0  0  0  0  0  0  0  0  0  0  0  0
    3.2663   -2.5848   -1.2872 C   0  0  0  0  0  0  0  0  0  0  0  0
    4.5179   -2.7798   -0.7644 N   0  0  0  0  0  0  0  0  0  0  0  0
    5.3795   -3.6331   -1.4455 O   0  0  0  0  0  0  0  0  0  0  0  0
   -0.2198    1.3122    0.4063 C   0  0  0  0  0  0  0  0  0  0  0  0
    0.5624    2.5230    0.6229 C   0  0  0  0  0  0  0  0  0  0  0  0
    0.7358    3.0310    1.9151 C   0  0  0  0  0  0  0  0  0  0  0  0
    1.4877    4.1893    2.1196 C   0  0  0  0  0  0  0  0  0  0  0  0
    2.0644    4.8474    1.0340 C   0  0  0  0  0  0  0  0  0  0  0  0
    1.8863    4.3520   -0.2571 C   0  0  0  0  0  0  0  0  0  0  0  0
    1.1343    3.1943   -0.4633 C   0  0  0  0  0  0  0  0  0  0  0  0
   -2.0970    3.2269   -0.2148 H   0  0  0  0  0  0  0  0  0  0  0  0
   -3.4027    2.1420    0.2732 H   0  0  0  0  0  0  0  0  0  0  0  0
   -2.8194    2.1381   -1.4062 H   0  0  0  0  0  0  0  0  0  0  0  0
   -1.9500   -2.6671   -0.0579 H   0  0  0  0  0  0  0  0  0  0  0  0
   -3.4882   -4.2426   -0.7839 H   0  0  0  0  0  0  0  0  0  0  0  0
   -4.2920   -2.9751   -1.7103 H   0  0  0  0  0  0  0  0  0  0  0  0
   -4.7374   -3.4365    1.2939 H   0  0  0  0  0  0  0  0  0  0  0  0
   -5.6419   -2.3104    0.2606 H   0  0  0  0  0  0  0  0  0  0  0  0
    1.9209    0.3554    1.7654 H   0  0  0  0  0  0  0  0  0  0  0  0
    1.5096   -1.3346    1.5038 H   0  0  0  0  0  0  0  0  0  0  0  0
    3.6112   -0.4395    0.3007 H   0  0  0  0  0  0  0  0  0  0  0  0
    2.5612    0.5059   -0.7390 H   0  0  0  0  0  0  0  0  0  0  0  0
    1.4529   -1.6131   -1.5886 H   0  0  0  0  0  0  0  0  0  0  0  0
    2.9755   -3.3795   -1.9731 H   0  0  0  0  0  0  0  0  0  0  0  0
    4.9739   -1.9256   -0.4413 H   0  0  0  0  0  0  0  0  0  0  0  0
    5.1487   -4.5122   -1.0890 H   0  0  0  0  0  0  0  0  0  0  0  0
    0.2805    2.5322    2.7677 H   0  0  0  0  0  0  0  0  0  0  0  0
    1.6181    4.5818    3.1249 H   0  0  0  0  0  0  0  0  0  0  0  0
    2.6466    5.7517    1.1934 H   0  0  0  0  0  0  0  0  0  0  0  0
    2.3288    4.8700   -1.1043 H   0  0  0  0  0  0  0  0  0  0  0  0
    0.9958    2.8198   -1.4751 H   0  0  0  0  0  0  0  0  0  0  0  0
  1  2  1  0
  2  3  1  0
  3  4  1  0
  4  5  2  0
  4  6  1  0
  6  7  1  0
  7  8  1  0
  8  9  1  0
  3 10  2  0
 10 11  1  0
 11 12  1  0
 12 13  1  0
 13 14  1  0
 14 15  2  0
 15 16  1  0
 16 17  1  0
 11 18  1  0
 18 19  1  0
 19 20  2  0
 20 21  1  0
 21 22  2  0
 22 23  1  0
 23 24  2  0
 18  2  2  0
 24 19  1  0
  1 25  1  0
  1 26  1  0
  1 27  1  0
  6 28  1  0
  7 29  1  0
  7 30  1  0
  8 31  1  0
  8 32  1  0
 12 33  1  0
 12 34  1  0
 13 35  1  0
 13 36  1  0
 14 37  1  0
 15 38  1  0
 16 39  1  0
 17 40  1  0
 20 41  1  0
 21 42  1  0
 22 43  1  0
 23 44  1  0
 24 45  1  0
M  END
>  <_SMILES>  (103) 
Cc1c(C(=O)NCCF)nn(CC/C=C\NO)c1-c1ccccc1

$$$$

     RDKit          3D

 45 46  0  0  0  0  0  0  0  0999 V2000
    1.6209   -1.0255    1.9539 C   0  0  0  0  0  0  0  0  0  0  0  0
    1.0913   -0.3895    0.7188 C   0  0  0  0  0  0  0  0  0  0  0  0
    1.5630    0.8002    0.0717 C   0  0  0  0  0  0  0  0  0  0  0  0
    2.7072    1.6609    0.4331 C   0  0  0  0  0  0  0  0  0  0  0  0
    2.7204    2.8799    0.2739 O   0  0  0  0  0  0  0  0  0  0  0  0
    3.8077    0.9810    0.9301 N   0  0  0  0  0  0  0  0  0  0  0  0
    5.0653    1.6753    1.1413 C   0  0  0  0  0  0  0  0  0  0  0  0
    5.8303    1.8983   -0.1566 C   0  0  0  0  0  0  0  0  0  0  0  0
    6.1987    0.6834   -0.6563 F   0  0  0  0  0  0  0  0  0  0  0  0
    0.8062    1.0868   -1.0004 N   0  0  0  0  0  0  0  0  0  0  0  0
   -0.1219    0.1178   -1.0421 N   0  0  0  0  0  0  0  0  0  0  0  0
   -1.1165    0.1699   -2.0997 C   0  0  0  0  0  0  0  0  0  0  0  0
   -2.1587    1.2732   -1.9106 C   0  0  0  0  0  0  0  0  0  0  0  0
   -3.0825    1.0166   -0.7236 C   0  0  0  0  0  0  0  0  0  0  0  0
   -4.1675    2.0563   -0.6833 C   0  0  0  0  0  0  0  0  0  0  0  0
   -4.2889    2.8484    0.3309 N   0  0  0  0  0  0  0  0  0  0  0  0
   -5.3724    3.7051    0.1071 O   0  0  0  0  0  0  0  0  0  0  0  0
    0.0190   -0.8213   -0.0505 C   0  0  0  0  0  0  0  0  0  0  0  0
   -0.8434   -1.9852    0.1144 C   0  0  0  0  0  0  0  0  0  0  0  0
   -0.6551   -3.1210   -0.6812 C   0  0  0  0  0  0  0  0  0  0  0  0
   -1.4836   -4.2336   -0.5251 C   0  0  0  0  0  0  0  0  0  0  0  0
   -2.5002   -4.2181    0.4291 C   0  0  0  0  0  0  0  0  0  0  0  0
   -2.6872   -3.0932    1.2312 C   0  0  0  0  0  0  0  0  0  0  0  0
   -1.8589   -1.9803    1.0770 C   0  0  0  0  0  0  0  0  0  0  0  0
    0.8592   -1.6304    2.4553 H   0  0  0  0  0  0  0  0  0  0  0  0
    2.4656   -1.6782    1.7126 H   0  0  0  0  0  0  0  0  0  0  0  0
    1.9557   -0.2701    2.6717 H   0  0  0  0  0  0  0  0  0  0  0  0
    3.8537   -0.0114    0.7385 H   0  0  0  0  0  0  0  0  0  0  0  0
    4.8643    2.6345    1.6295 H   0  0  0  0  0  0  0  0  0  0  0  0
    5.6548    1.0508    1.8197 H   0  0  0  0  0  0  0  0  0  0  0  0
    6.7427    2.4732    0.0237 H   0  0  0  0  0  0  0  0  0  0  0  0
    5.2289    2.4065   -0.9153 H   0  0  0  0  0  0  0  0  0  0  0  0
   -0.5660    0.3369   -3.0337 H   0  0  0  0  0  0  0  0  0  0  0  0
   -1.6007   -0.8069   -2.1874 H   0  0  0  0  0  0  0  0  0  0  0  0
   -1.6687    2.2477   -1.7907 H   0  0  0  0  0  0  0  0  0  0  0  0
   -2.7585    1.3423   -2.8270 H   0  0  0  0  0  0  0  0  0  0  0  0
   -3.5683    0.0402   -0.8239 H   0  0  0  0  0  0  0  0  0  0  0  0
   -2.5271    1.0367    0.2193 H   0  0  0  0  0  0  0  0  0  0  0  0
   -4.8527    2.1064   -1.5485 H   0  0  0  0  0  0  0  0  0  0  0  0
   -5.3522    4.2759    0.8983 H   0  0  0  0  0  0  0  0  0  0  0  0
    0.1399   -3.1469   -1.4230 H   0  0  0  0  0  0  0  0  0  0  0  0
   -1.3334   -5.1139   -1.1450 H   0  0  0  0  0  0  0  0  0  0  0  0
   -3.1439   -5.0857    0.5518 H   0  0  0  0  0  0  0  0  0  0  0  0
   -3.4758   -3.0829    1.9795 H   0  0  0  0  0  0  0  0  0  0  0  0
   -2.0106   -1.1095    1.7114 H   0  0  0  0  0  0  0  0  0  0  0  0
  1  2  1  0
  2  3  1  0
  3  4  1  0
  4  5  2  0
  4  6  1  0
  6  7  1  0
  7  8  1  0
  8  9  1  0
  3 10  2  0
 10 11  1  0
 11 12  1  0
 12 13  1  0
 13 14  1  0
 14 15  1  0
 15 16  2  0
 16 17  1  0
 11 18  1  0
 18 19  1  0
 19 20  2  0
 20 21  1  0
 21 22  2  0
 22 23  1  0
 23 24  2  0
 18  2  2  0
 24 19  1  0
  1 25  1  0
  1 26  1  0
  1 27  1  0
  6 28  1  0
  7 29  1  0
  7 30  1  0
  8 31  1  0
  8 32  1  0
 12 33  1  0
 12 34  1  0
 13 35  1  0
 13 36  1  0
 14 37  1  0
 14 38  1  0
 15 39  1  0
 17 40  1  0
 20 41  1  0
 21 42  1  0
 22 43  1  0
 23 44  1  0
 24 45  1  0
M  END
>  <_SMILES>  (104) 
Cc1c(C(=O)NCCF)nn(CCC/C=N/O)c1-c1ccccc1

$$$$

     RDKit          3D

 61 65  0  0  0  0  0  0  0  0999 V2000
    9.2917   -1.4152    0.8351 C   0  0  0  0  0  0  0  0  0  0  0  0
    8.7455   -0.6359   -0.3515 C   0  0  0  0  0  0  0  0  0  0  0  0
    7.2395   -0.5888   -0.3465 C   0  0  0  0  0  0  0  0  0  0  0  0
    6.5601    0.4340    0.3216 C   0  0  0  0  0  0  0  0  0  0  0  0
    5.1600    0.4649    0.3417 C   0  0  0  0  0  0  0  0  0  0  0  0
    4.3948   -0.5226   -0.3045 C   0  0  0  0  0  0  0  0  0  0  0  0
    2.9159   -0.5056   -0.3039 C   0  0  0  0  0  0  0  0  0  0  0  0
    2.1698    0.6681   -0.2817 C   0  0  0  0  0  0  0  0  0  0  0  0
    0.7744    0.5985   -0.2829 C   0  0  0  0  0  0  0  0  0  0  0  0
   -0.0272    1.7151   -0.2604 O   0  0  0  0  0  0  0  0  0  0  0  0
    0.5626    2.9567   -0.6366 C   0  0  0  0  0  0  0  0  0  0  0  0
    0.1494   -0.6619   -0.2904 C   0  0  0  0  0  0  0  0  0  0  0  0
   -1.3373   -0.8417   -0.2977 C   0  0  0  0  0  0  0  0  0  0  0  0
   -1.8237   -1.8709   -0.7580 O   0  0  0  0  0  0  0  0  0  0  0  0
   -2.0963    0.1759    0.2404 N   0  0  0  0  0  0  0  0  0  0  0  0
   -3.5609    0.2312    0.2450 C   0  0  2  0  0  0  0  0  0  0  0  0
   -4.1837   -0.9581    1.0188 C   0  0  0  0  0  0  0  0  0  0  0  0
   -5.7181   -0.8415    1.0471 C   0  0  1  0  0  0  0  0  0  0  0  0
   -6.1161    0.4661    1.7488 C   0  0  0  0  0  0  0  0  0  0  0  0
   -5.5279    1.6668    0.9920 C   0  0  2  0  0  0  0  0  0  0  0  0
   -6.0648    1.6740   -0.4480 C   0  0  0  0  0  0  0  0  0  0  0  0
   -5.6672    0.3730   -1.1632 C   0  0  2  0  0  0  0  0  0  0  0  0
   -6.2506   -0.8259   -0.3961 C   0  0  0  0  0  0  0  0  0  0  0  0
   -4.1329    0.2576   -1.1935 C   0  0  0  0  0  0  0  0  0  0  0  0
   -3.9967    1.5400    0.9584 C   0  0  0  0  0  0  0  0  0  0  0  0
    0.9702   -1.7995   -0.3417 C   0  0  0  0  0  0  0  0  0  0  0  0
    0.4626   -3.1106   -0.3037 N   0  0  0  0  0  0  0  0  0  0  0  0
    2.3167   -1.7173   -0.3373 N   0  0  0  0  0  0  0  0  0  0  0  0
    5.0969   -1.5534   -0.9547 C   0  0  0  0  0  0  0  0  0  0  0  0
    6.4954   -1.5885   -0.9782 C   0  0  0  0  0  0  0  0  0  0  0  0
   10.3857   -1.4324    0.8052 H   0  0  0  0  0  0  0  0  0  0  0  0
    8.9853   -0.9614    1.7836 H   0  0  0  0  0  0  0  0  0  0  0  0
    8.9357   -2.4510    0.8280 H   0  0  0  0  0  0  0  0  0  0  0  0
    9.1462    0.3851   -0.3404 H   0  0  0  0  0  0  0  0  0  0  0  0
    9.0974   -1.0891   -1.2863 H   0  0  0  0  0  0  0  0  0  0  0  0
    7.1161    1.2113    0.8412 H   0  0  0  0  0  0  0  0  0  0  0  0
    4.6780    1.2667    0.8955 H   0  0  0  0  0  0  0  0  0  0  0  0
    2.6877    1.6187   -0.2738 H   0  0  0  0  0  0  0  0  0  0  0  0
   -0.2442    3.6881   -0.7440 H   0  0  0  0  0  0  0  0  0  0  0  0
    1.2372    3.3183    0.1457 H   0  0  0  0  0  0  0  0  0  0  0  0
    1.0754    2.8811   -1.6013 H   0  0  0  0  0  0  0  0  0  0  0  0
   -1.6010    1.0398    0.4400 H   0  0  0  0  0  0  0  0  0  0  0  0
   -3.7917   -0.9876    2.0440 H   0  0  0  0  0  0  0  0  0  0  0  0
   -3.9108   -1.9147    0.5590 H   0  0  0  0  0  0  0  0  0  0  0  0
   -6.1426   -1.6945    1.5883 H   0  0  0  0  0  0  0  0  0  0  0  0
   -7.2089    0.5500    1.7939 H   0  0  0  0  0  0  0  0  0  0  0  0
   -5.7542    0.4612    2.7843 H   0  0  0  0  0  0  0  0  0  0  0  0
   -5.8114    2.5970    1.4969 H   0  0  0  0  0  0  0  0  0  0  0  0
   -7.1567    1.7789   -0.4403 H   0  0  0  0  0  0  0  0  0  0  0  0
   -5.6658    2.5384   -0.9929 H   0  0  0  0  0  0  0  0  0  0  0  0
   -6.0565    0.3813   -2.1874 H   0  0  0  0  0  0  0  0  0  0  0  0
   -5.9847   -1.7611   -0.9039 H   0  0  0  0  0  0  0  0  0  0  0  0
   -7.3461   -0.7678   -0.3894 H   0  0  0  0  0  0  0  0  0  0  0  0
   -3.7060    1.0997   -1.7540 H   0  0  0  0  0  0  0  0  0  0  0  0
   -3.8522   -0.6493   -1.7422 H   0  0  0  0  0  0  0  0  0  0  0  0
   -3.5663    2.4107    0.4454 H   0  0  0  0  0  0  0  0  0  0  0  0
   -3.5999    1.5616    1.9822 H   0  0  0  0  0  0  0  0  0  0  0  0
    0.0382   -3.2722    0.6055 H   0  0  0  0  0  0  0  0  0  0  0  0
   -0.3255   -3.1578   -0.9587 H   0  0  0  0  0  0  0  0  0  0  0  0
    4.5452   -2.3509   -1.4526 H   0  0  0  0  0  0  0  0  0  0  0  0
    6.9940   -2.4086   -1.4901 H   0  0  0  0  0  0  0  0  0  0  0  0
  1  2  1  0
  2  3  1  0
  3  4  1  0
  4  5  2  0
  5  6  1  0
  6  7  1  0
  7  8  1  0
  8  9  2  0
  9 10  1  0
 10 11  1  0
  9 12  1  0
 12 13  1  0
 13 14  2  0
 13 15  1  0
 16 15  1  6
 16 17  1  0
 17 18  1  0
 18 19  1  0
 19 20  1  0
 20 21  1  0
 21 22  1  0
 22 23  1  0
 22 24  1  0
 20 25  1  0
 12 26  2  0
 26 27  1  0
 26 28  1  0
  6 29  2  0
 29 30  1  0
 30  3  2  0
 28  7  2  0
 24 16  1  0
 25 16  1  0
 23 18  1  0
  1 31  1  0
  1 32  1  0
  1 33  1  0
  2 34  1  0
  2 35  1  0
  4 36  1  0
  5 37  1  0
  8 38  1  0
 11 39  1  0
 11 40  1  0
 11 41  1  0
 15 42  1  0
 17 43  1  0
 17 44  1  0
 18 45  1  1
 19 46  1  0
 19 47  1  0
 20 48  1  1
 21 49  1  0
 21 50  1  0
 22 51  1  6
 23 52  1  0
 23 53  1  0
 24 54  1  0
 24 55  1  0
 25 56  1  0
 25 57  1  0
 27 58  1  0
 27 59  1  0
 29 60  1  0
 30 61  1  0
M  END
>  <_SMILES>  (105) 
CCc1ccc(-c2cc(OC)c(C(=O)N[C@]34C[C@H]5C[C@H](C[C@H](C5)C3)C4)c(N)n2)cc1

$$$$

     RDKit          3D

 61 65  0  0  0  0  0  0  0  0999 V2000
    9.1326    0.7013   -1.6171 C   0  0  0  0  0  0  0  0  0  0  0  0
    8.7516    0.3918   -0.1775 C   0  0  0  0  0  0  0  0  0  0  0  0
    7.2572    0.3049    0.0003 C   0  0  0  0  0  0  0  0  0  0  0  0
    6.5904   -0.9139   -0.1731 C   0  0  0  0  0  0  0  0  0  0  0  0
    5.2027   -0.9912   -0.0234 C   0  0  0  0  0  0  0  0  0  0  0  0
    4.4561    0.1501    0.2961 C   0  0  0  0  0  0  0  0  0  0  0  0
    2.9966    0.0776    0.4653 C   0  0  0  0  0  0  0  0  0  0  0  0
    2.1910   -0.3916   -0.5045 C   0  0  0  0  0  0  0  0  0  0  0  0
    0.7455   -0.4340   -0.2978 C   0  0  0  0  0  0  0  0  0  0  0  0
    0.0415   -0.9310   -1.3819 O   0  0  0  0  0  0  0  0  0  0  0  0
    0.0084   -2.3619   -1.3542 C   0  0  0  0  0  0  0  0  0  0  0  0
    0.1467    0.0541    0.8165 C   0  0  0  0  0  0  0  0  0  0  0  0
   -1.3314    0.0968    1.0382 C   0  0  0  0  0  0  0  0  0  0  0  0
   -1.7799    0.2228    2.1747 O   0  0  0  0  0  0  0  0  0  0  0  0
   -2.1184    0.0286   -0.0851 N   0  0  0  0  0  0  0  0  0  0  0  0
   -3.5825    0.0684   -0.1049 C   0  0  2  0  0  0  0  0  0  0  0  0
   -4.1283    1.4011    0.4647 C   0  0  0  0  0  0  0  0  0  0  0  0
   -5.6649    1.4346    0.3839 C   0  0  1  0  0  0  0  0  0  0  0  0
   -6.0996    1.3093   -1.0848 C   0  0  0  0  0  0  0  0  0  0  0  0
   -5.5886   -0.0156   -1.6719 C   0  0  2  0  0  0  0  0  0  0  0  0
   -6.1679   -1.1876   -0.8645 C   0  0  0  0  0  0  0  0  0  0  0  0
   -5.7336   -1.0772    0.6054 C   0  0  2  0  0  0  0  0  0  0  0  0
   -6.2400    0.2544    1.1857 C   0  0  0  0  0  0  0  0  0  0  0  0
   -4.1971   -1.1131    0.6861 C   0  0  0  0  0  0  0  0  0  0  0  0
   -4.0549   -0.0494   -1.5794 C   0  0  0  0  0  0  0  0  0  0  0  0
    1.1023    0.5276    1.8953 C   0  0  0  0  0  0  0  0  0  0  0  0
    0.7252    0.9358    3.0704 N   0  0  0  0  0  0  0  0  0  0  0  0
    2.4505    0.5303    1.6410 N   0  0  0  0  0  0  0  0  0  0  0  0
    5.1247    1.3693    0.4670 C   0  0  0  0  0  0  0  0  0  0  0  0
    6.5120    1.4471    0.3163 C   0  0  0  0  0  0  0  0  0  0  0  0
    8.7114    1.6586   -1.9426 H   0  0  0  0  0  0  0  0  0  0  0  0
    8.7697   -0.0745   -2.2998 H   0  0  0  0  0  0  0  0  0  0  0  0
   10.2211    0.7584   -1.7166 H   0  0  0  0  0  0  0  0  0  0  0  0
    9.1581    1.1633    0.4877 H   0  0  0  0  0  0  0  0  0  0  0  0
    9.2157   -0.5519    0.1341 H   0  0  0  0  0  0  0  0  0  0  0  0
    7.1487   -1.8136   -0.4227 H   0  0  0  0  0  0  0  0  0  0  0  0
    4.7123   -1.9539   -0.1479 H   0  0  0  0  0  0  0  0  0  0  0  0
    2.5825   -0.7236   -1.4608 H   0  0  0  0  0  0  0  0  0  0  0  0
   -0.4382   -2.7268   -0.4227 H   0  0  0  0  0  0  0  0  0  0  0  0
   -0.6166   -2.6975   -2.1868 H   0  0  0  0  0  0  0  0  0  0  0  0
    1.0103   -2.7828   -1.4876 H   0  0  0  0  0  0  0  0  0  0  0  0
   -1.6384   -0.0495   -0.9768 H   0  0  0  0  0  0  0  0  0  0  0  0
   -3.8235    1.5357    1.5090 H   0  0  0  0  0  0  0  0  0  0  0  0
   -3.7063    2.2495   -0.0899 H   0  0  0  0  0  0  0  0  0  0  0  0
   -6.0352    2.3787    0.7990 H   0  0  0  0  0  0  0  0  0  0  0  0
   -5.7071    2.1532   -1.6653 H   0  0  0  0  0  0  0  0  0  0  0  0
   -7.1932    1.3544   -1.1572 H   0  0  0  0  0  0  0  0  0  0  0  0
   -5.8983   -0.0996   -2.7196 H   0  0  0  0  0  0  0  0  0  0  0  0
   -5.8245   -2.1401   -1.2865 H   0  0  0  0  0  0  0  0  0  0  0  0
   -7.2627   -1.1852   -0.9331 H   0  0  0  0  0  0  0  0  0  0  0  0
   -6.1523   -1.9126    1.1776 H   0  0  0  0  0  0  0  0  0  0  0  0
   -7.3362    0.2818    1.1564 H   0  0  0  0  0  0  0  0  0  0  0  0
   -5.9476    0.3394    2.2395 H   0  0  0  0  0  0  0  0  0  0  0  0
   -3.8950   -1.0795    1.7394 H   0  0  0  0  0  0  0  0  0  0  0  0
   -3.8240   -2.0668    0.2903 H   0  0  0  0  0  0  0  0  0  0  0  0
   -3.6304    0.7678   -2.1780 H   0  0  0  0  0  0  0  0  0  0  0  0
   -3.6779   -0.9808   -2.0230 H   0  0  0  0  0  0  0  0  0  0  0  0
   -0.3069    0.8627    3.1439 H   0  0  0  0  0  0  0  0  0  0  0  0
    3.0616    0.8162    2.3952 H   0  0  0  0  0  0  0  0  0  0  0  0
    4.5677    2.2726    0.7076 H   0  0  0  0  0  0  0  0  0  0  0  0
    7.0068    2.4072    0.4463 H   0  0  0  0  0  0  0  0  0  0  0  0
  1  2  1  0
  2  3  1  0
  3  4  1  0
  4  5  2  0
  5  6  1  0
  6  7  1  0
  7  8  2  0
  8  9  1  0
  9 10  1  0
 10 11  1  0
  9 12  2  0
 12 13  1  0
 13 14  2  0
 13 15  1  0
 16 15  1  6
 16 17  1  0
 17 18  1  0
 18 19  1  0
 19 20  1  0
 20 21  1  0
 21 22  1  0
 22 23  1  0
 22 24  1  0
 20 25  1  0
 12 26  1  0
 26 27  2  3
 26 28  1  0
  6 29  2  0
 29 30  1  0
 30  3  2  0
 28  7  1  0
 24 16  1  0
 25 16  1  0
 23 18  1  0
  1 31  1  0
  1 32  1  0
  1 33  1  0
  2 34  1  0
  2 35  1  0
  4 36  1  0
  5 37  1  0
  8 38  1  0
 11 39  1  0
 11 40  1  0
 11 41  1  0
 15 42  1  0
 17 43  1  0
 17 44  1  0
 18 45  1  1
 19 46  1  0
 19 47  1  0
 20 48  1  6
 21 49  1  0
 21 50  1  0
 22 51  1  1
 23 52  1  0
 23 53  1  0
 24 54  1  0
 24 55  1  0
 25 56  1  0
 25 57  1  0
 27 58  1  0
 28 59  1  0
 29 60  1  0
 30 61  1  0
M  END
>  <_SMILES>  (106) 
CCc1ccc(-c2cc(OC)c(C(=O)N[C@]34C[C@H]5C[C@H](C[C@H](C5)C3)C4)c(=N)[nH]2)cc1

$$$$

     RDKit          3D

 72 76  0  0  0  0  0  0  0  0999 V2000
   -0.2903   -0.2151   -1.3770 C   0  0  0  0  0  0  0  0  0  0  0  0
    0.7084   -0.4060   -0.2590 C   0  0  0  0  0  0  0  0  0  0  0  0
    2.0438   -0.2051   -0.4004 C   0  0  0  0  0  0  0  0  0  0  0  0
    2.6108    0.1610   -1.7216 C   0  0  0  0  0  0  0  0  0  0  0  0
    2.7930   -0.8117   -2.7149 C   0  0  0  0  0  0  0  0  0  0  0  0
    3.3449   -0.4624   -3.9485 C   0  0  0  0  0  0  0  0  0  0  0  0
    3.7215    0.8573   -4.1954 C   0  0  0  0  0  0  0  0  0  0  0  0
    3.5479    1.8295   -3.2108 C   0  0  0  0  0  0  0  0  0  0  0  0
    2.9958    1.4835   -1.9762 C   0  0  0  0  0  0  0  0  0  0  0  0
    2.9210   -0.2882    0.7709 C   0  0  0  0  0  0  0  0  0  0  0  0
    4.1028   -0.9368    0.7358 C   0  0  0  0  0  0  0  0  0  0  0  0
    5.1094   -1.0994    1.8417 C   0  0  0  0  0  0  0  0  0  0  0  0
    6.3290   -0.2043    1.6162 C   0  0  0  0  0  0  0  0  0  0  0  0
    7.3659   -0.3901    2.7283 C   0  0  0  0  0  0  0  0  0  0  0  0
    8.6011    0.4766    2.5119 C   0  0  0  0  0  0  0  0  0  0  0  0
    8.2615    1.8552    2.5530 O   0  0  0  0  0  0  0  0  0  0  0  0
    2.5621    0.4981    1.9916 C   0  0  0  0  0  0  0  0  0  0  0  0
    1.4167    0.7606    2.5399 N   0  0  0  0  0  0  0  0  0  0  0  0
    0.2324    0.2951    2.0201 N   0  0  0  0  0  0  0  0  0  0  0  0
    0.1481   -0.8401    1.0898 C   0  0  1  0  0  0  0  0  0  0  0  0
   -1.3090   -1.3869    1.0342 C   0  0  0  0  0  0  0  0  0  0  0  0
   -1.5807   -2.5516    0.7369 O   0  0  0  0  0  0  0  0  0  0  0  0
   -2.2914   -0.4191    1.2378 N   0  0  0  0  0  0  0  0  0  0  0  0
   -3.6364   -0.8083    1.4094 N   0  0  0  0  0  0  0  0  0  0  0  0
   -4.5357   -0.3171    0.3475 C   0  0  2  0  0  0  0  0  0  0  0  0
   -4.4965    1.2267    0.2161 C   0  0  0  0  0  0  0  0  0  0  0  0
   -5.5049    1.7015   -0.8457 C   0  0  1  0  0  0  0  0  0  0  0  0
   -5.1590    1.0555   -2.1980 C   0  0  0  0  0  0  0  0  0  0  0  0
   -5.2310   -0.4768   -2.0872 C   0  0  2  0  0  0  0  0  0  0  0  0
   -6.6488   -0.8890   -1.6608 C   0  0  0  0  0  0  0  0  0  0  0  0
   -6.9942   -0.2543   -0.3044 C   0  0  2  0  0  0  0  0  0  0  0  0
   -6.9208    1.2758   -0.4264 C   0  0  0  0  0  0  0  0  0  0  0  0
   -5.9779   -0.7279    0.7497 C   0  0  0  0  0  0  0  0  0  0  0  0
   -4.2231   -0.9578   -1.0279 C   0  0  0  0  0  0  0  0  0  0  0  0
    0.1399    0.1886   -2.2967 H   0  0  0  0  0  0  0  0  0  0  0  0
   -1.0633    0.4982   -1.0736 H   0  0  0  0  0  0  0  0  0  0  0  0
   -0.7605   -1.1685   -1.6372 H   0  0  0  0  0  0  0  0  0  0  0  0
    2.5040   -1.8438   -2.5308 H   0  0  0  0  0  0  0  0  0  0  0  0
    3.4814   -1.2195   -4.7162 H   0  0  0  0  0  0  0  0  0  0  0  0
    4.1517    1.1288   -5.1561 H   0  0  0  0  0  0  0  0  0  0  0  0
    3.8433    2.8577   -3.4034 H   0  0  0  0  0  0  0  0  0  0  0  0
    2.8642    2.2496   -1.2154 H   0  0  0  0  0  0  0  0  0  0  0  0
    4.3825   -1.4496   -0.1847 H   0  0  0  0  0  0  0  0  0  0  0  0
    4.6684   -0.8991    2.8240 H   0  0  0  0  0  0  0  0  0  0  0  0
    5.4217   -2.1510    1.8641 H   0  0  0  0  0  0  0  0  0  0  0  0
    6.0116    0.8451    1.5755 H   0  0  0  0  0  0  0  0  0  0  0  0
    6.7875   -0.4379    0.6469 H   0  0  0  0  0  0  0  0  0  0  0  0
    7.6705   -1.4419    2.7772 H   0  0  0  0  0  0  0  0  0  0  0  0
    6.9053   -0.1320    3.6896 H   0  0  0  0  0  0  0  0  0  0  0  0
    9.0609    0.2661    1.5413 H   0  0  0  0  0  0  0  0  0  0  0  0
    9.3472    0.2827    3.2890 H   0  0  0  0  0  0  0  0  0  0  0  0
    7.9113    2.0452    3.4401 H   0  0  0  0  0  0  0  0  0  0  0  0
    3.4298    0.9311    2.5183 H   0  0  0  0  0  0  0  0  0  0  0  0
   -0.4642    0.2838    2.7650 H   0  0  0  0  0  0  0  0  0  0  0  0
    0.7336   -1.6597    1.5277 H   0  0  0  0  0  0  0  0  0  0  0  0
   -2.0123    0.5370    1.4542 H   0  0  0  0  0  0  0  0  0  0  0  0
   -3.6574   -1.8383    1.3994 H   0  0  0  0  0  0  0  0  0  0  0  0
   -4.7271    1.6985    1.1804 H   0  0  0  0  0  0  0  0  0  0  0  0
   -3.4942    1.5686   -0.0719 H   0  0  0  0  0  0  0  0  0  0  0  0
   -5.4591    2.7927   -0.9353 H   0  0  0  0  0  0  0  0  0  0  0  0
   -4.1540    1.3616   -2.5136 H   0  0  0  0  0  0  0  0  0  0  0  0
   -5.8556    1.4073   -2.9689 H   0  0  0  0  0  0  0  0  0  0  0  0
   -4.9909   -0.9288   -3.0561 H   0  0  0  0  0  0  0  0  0  0  0  0
   -6.7171   -1.9816   -1.5921 H   0  0  0  0  0  0  0  0  0  0  0  0
   -7.3753   -0.5718   -2.4190 H   0  0  0  0  0  0  0  0  0  0  0  0
   -8.0047   -0.5528   -0.0035 H   0  0  0  0  0  0  0  0  0  0  0  0
   -7.6520    1.6285   -1.1641 H   0  0  0  0  0  0  0  0  0  0  0  0
   -7.1844    1.7417    0.5310 H   0  0  0  0  0  0  0  0  0  0  0  0
   -6.2393   -0.2977    1.7261 H   0  0  0  0  0  0  0  0  0  0  0  0
   -6.0499   -1.8187    0.8582 H   0  0  0  0  0  0  0  0  0  0  0  0
   -4.2582   -2.0530   -0.9582 H   0  0  0  0  0  0  0  0  0  0  0  0
   -3.2117   -0.6952   -1.3565 H   0  0  0  0  0  0  0  0  0  0  0  0
  1  2  1  0
  2  3  2  0
  3  4  1  0
  4  5  2  0
  5  6  1  0
  6  7  2  0
  7  8  1  0
  8  9  2  0
  3 10  1  0
 10 11  2  0
 11 12  1  0
 12 13  1  0
 13 14  1  0
 14 15  1  0
 15 16  1  0
 10 17  1  0
 17 18  2  0
 18 19  1  0
 19 20  1  0
 20 21  1  0
 21 22  2  0
 21 23  1  0
 23 24  1  0
 25 24  1  1
 25 26  1  0
 26 27  1  0
 27 28  1  0
 28 29  1  0
 29 30  1  0
 30 31  1  0
 31 32  1  0
 31 33  1  0
 29 34  1  0
 20  2  1  0
 33 25  1  0
  9  4  1  0
 34 25  1  0
 32 27  1  0
  1 35  1  0
  1 36  1  0
  1 37  1  0
  5 38  1  0
  6 39  1  0
  7 40  1  0
  8 41  1  0
  9 42  1  0
 11 43  1  0
 12 44  1  0
 12 45  1  0
 13 46  1  0
 13 47  1  0
 14 48  1  0
 14 49  1  0
 15 50  1  0
 15 51  1  0
 16 52  1  0
 17 53  1  0
 19 54  1  0
 20 55  1  1
 23 56  1  0
 24 57  1  0
 26 58  1  0
 26 59  1  0
 27 60  1  6
 28 61  1  0
 28 62  1  0
 29 63  1  6
 30 64  1  0
 30 65  1  0
 31 66  1  1
 32 67  1  0
 32 68  1  0
 33 69  1  0
 33 70  1  0
 34 71  1  0
 34 72  1  0
M  END
>  <_SMILES>  (107) 
CC1=C(c2ccccc2)/C(=C/CCCCO)C=NN[C@H]1C(=O)NN[C@]12C[C@H]3C[C@H](C[C@H](C3)C1)C2

$$$$

     RDKit          3D

 72 76  0  0  0  0  0  0  0  0999 V2000
   -0.0478    2.1621   -3.1086 C   0  0  0  0  0  0  0  0  0  0  0  0
   -0.7824    0.9424   -2.5998 C   0  0  0  0  0  0  0  0  0  0  0  0
   -1.9583    0.9612   -1.9222 C   0  0  0  0  0  0  0  0  0  0  0  0
   -2.6259    2.2564   -1.6323 C   0  0  0  0  0  0  0  0  0  0  0  0
   -2.0896    3.1675   -0.7094 C   0  0  0  0  0  0  0  0  0  0  0  0
   -2.7384    4.3762   -0.4484 C   0  0  0  0  0  0  0  0  0  0  0  0
   -3.9272    4.6855   -1.1068 C   0  0  0  0  0  0  0  0  0  0  0  0
   -4.4689    3.7884   -2.0260 C   0  0  0  0  0  0  0  0  0  0  0  0
   -3.8220    2.5789   -2.2878 C   0  0  0  0  0  0  0  0  0  0  0  0
   -2.6146   -0.3054   -1.5968 C   0  0  0  0  0  0  0  0  0  0  0  0
   -3.1339   -0.6762   -0.4093 C   0  0  0  0  0  0  0  0  0  0  0  0
   -3.1092    0.0491    0.9079 C   0  0  0  0  0  0  0  0  0  0  0  0
   -2.3804   -0.7130    2.0219 C   0  0  0  0  0  0  0  0  0  0  0  0
   -2.9091   -2.1076    2.3836 C   0  0  0  0  0  0  0  0  0  0  0  0
   -4.3379   -2.1204    2.9137 C   0  0  0  0  0  0  0  0  0  0  0  0
   -5.2621   -1.9418    1.8513 O   0  0  0  0  0  0  0  0  0  0  0  0
   -2.8520   -1.2995   -2.6903 C   0  0  0  0  0  0  0  0  0  0  0  0
   -2.1329   -1.6288   -3.7156 N   0  0  0  0  0  0  0  0  0  0  0  0
   -0.9104   -1.0613   -3.9598 N   0  0  0  0  0  0  0  0  0  0  0  0
   -0.0925   -0.3600   -2.9752 C   0  0  2  0  0  0  0  0  0  0  0  0
    0.4655   -1.2645   -1.8323 C   0  0  0  0  0  0  0  0  0  0  0  0
    0.7541   -2.4540   -1.9928 O   0  0  0  0  0  0  0  0  0  0  0  0
    0.7548   -0.5980   -0.6405 N   0  0  0  0  0  0  0  0  0  0  0  0
    1.2106   -1.3600    0.4644 N   0  0  0  0  0  0  0  0  0  0  0  0
    2.5682   -0.9838    0.8987 C   0  0  2  0  0  0  0  0  0  0  0  0
    3.6279   -1.2092   -0.2100 C   0  0  0  0  0  0  0  0  0  0  0  0
    5.0332   -0.8622    0.3138 C   0  0  1  0  0  0  0  0  0  0  0  0
    5.0579    0.6080    0.7651 C   0  0  0  0  0  0  0  0  0  0  0  0
    4.0327    0.8351    1.8890 C   0  0  2  0  0  0  0  0  0  0  0  0
    4.3711   -0.0793    3.0771 C   0  0  0  0  0  0  0  0  0  0  0  0
    4.3376   -1.5506    2.6339 C   0  0  2  0  0  0  0  0  0  0  0  0
    5.3653   -1.7664    1.5115 C   0  0  0  0  0  0  0  0  0  0  0  0
    2.9323   -1.8884    2.1056 C   0  0  0  0  0  0  0  0  0  0  0  0
    2.6248    0.4917    1.3695 C   0  0  0  0  0  0  0  0  0  0  0  0
    0.9062    2.2686   -2.5817 H   0  0  0  0  0  0  0  0  0  0  0  0
    0.1589    2.0559   -4.1796 H   0  0  0  0  0  0  0  0  0  0  0  0
   -0.5983    3.0983   -2.9971 H   0  0  0  0  0  0  0  0  0  0  0  0
   -1.1658    2.9383   -0.1846 H   0  0  0  0  0  0  0  0  0  0  0  0
   -2.3173    5.0755    0.2691 H   0  0  0  0  0  0  0  0  0  0  0  0
   -4.4327    5.6263   -0.9042 H   0  0  0  0  0  0  0  0  0  0  0  0
   -5.3952    4.0294   -2.5412 H   0  0  0  0  0  0  0  0  0  0  0  0
   -4.2537    1.8911   -3.0120 H   0  0  0  0  0  0  0  0  0  0  0  0
   -3.6498   -1.6359   -0.3485 H   0  0  0  0  0  0  0  0  0  0  0  0
   -2.6142    1.0169    0.8172 H   0  0  0  0  0  0  0  0  0  0  0  0
   -4.1390    0.2677    1.2104 H   0  0  0  0  0  0  0  0  0  0  0  0
   -2.3947   -0.0907    2.9260 H   0  0  0  0  0  0  0  0  0  0  0  0
   -1.3246   -0.8139    1.7439 H   0  0  0  0  0  0  0  0  0  0  0  0
   -2.8237   -2.7738    1.5179 H   0  0  0  0  0  0  0  0  0  0  0  0
   -2.2527   -2.5145    3.1628 H   0  0  0  0  0  0  0  0  0  0  0  0
   -4.5483   -3.0886    3.3795 H   0  0  0  0  0  0  0  0  0  0  0  0
   -4.4923   -1.3337    3.6589 H   0  0  0  0  0  0  0  0  0  0  0  0
   -6.1535   -1.9898    2.2380 H   0  0  0  0  0  0  0  0  0  0  0  0
   -3.8003   -1.8586   -2.5926 H   0  0  0  0  0  0  0  0  0  0  0  0
   -0.3792   -1.6415   -4.6068 H   0  0  0  0  0  0  0  0  0  0  0  0
    0.8178   -0.1033   -3.5367 H   0  0  0  0  0  0  0  0  0  0  0  0
    0.2451    0.2578   -0.4344 H   0  0  0  0  0  0  0  0  0  0  0  0
    1.2230   -2.3449    0.1580 H   0  0  0  0  0  0  0  0  0  0  0  0
    3.6096   -2.2529   -0.5504 H   0  0  0  0  0  0  0  0  0  0  0  0
    3.4117   -0.5866   -1.0875 H   0  0  0  0  0  0  0  0  0  0  0  0
    5.7712   -1.0169   -0.4812 H   0  0  0  0  0  0  0  0  0  0  0  0
    6.0624    0.8738    1.1168 H   0  0  0  0  0  0  0  0  0  0  0  0
    4.8342    1.2648   -0.0845 H   0  0  0  0  0  0  0  0  0  0  0  0
    4.0618    1.8825    2.2095 H   0  0  0  0  0  0  0  0  0  0  0  0
    5.3637    0.1707    3.4715 H   0  0  0  0  0  0  0  0  0  0  0  0
    3.6548    0.0835    3.8917 H   0  0  0  0  0  0  0  0  0  0  0  0
    4.5781   -2.1982    3.4845 H   0  0  0  0  0  0  0  0  0  0  0  0
    6.3745   -1.5447    1.8798 H   0  0  0  0  0  0  0  0  0  0  0  0
    5.3644   -2.8179    1.1992 H   0  0  0  0  0  0  0  0  0  0  0  0
    2.8985   -2.9473    1.8152 H   0  0  0  0  0  0  0  0  0  0  0  0
    2.1992   -1.7611    2.9137 H   0  0  0  0  0  0  0  0  0  0  0  0
    2.3734    1.1734    0.5467 H   0  0  0  0  0  0  0  0  0  0  0  0
    1.8863    0.6685    2.1626 H   0  0  0  0  0  0  0  0  0  0  0  0
  1  2  1  0
  2  3  2  0
  3  4  1  0
  4  5  2  0
  5  6  1  0
  6  7  2  0
  7  8  1  0
  8  9  2  0
  3 10  1  0
 10 11  2  0
 11 12  1  0
 12 13  1  0
 13 14  1  0
 14 15  1  0
 15 16  1  0
 10 17  1  0
 17 18  2  0
 18 19  1  0
 19 20  1  0
 20 21  1  0
 21 22  2  0
 21 23  1  0
 23 24  1  0
 25 24  1  6
 25 26  1  0
 26 27  1  0
 27 28  1  0
 28 29  1  0
 29 30  1  0
 30 31  1  0
 31 32  1  0
 31 33  1  0
 29 34  1  0
 20  2  1  0
 33 25  1  0
  9  4  1  0
 34 25  1  0
 32 27  1  0
  1 35  1  0
  1 36  1  0
  1 37  1  0
  5 38  1  0
  6 39  1  0
  7 40  1  0
  8 41  1  0
  9 42  1  0
 11 43  1  0
 12 44  1  0
 12 45  1  0
 13 46  1  0
 13 47  1  0
 14 48  1  0
 14 49  1  0
 15 50  1  0
 15 51  1  0
 16 52  1  0
 17 53  1  0
 19 54  1  0
 20 55  1  6
 23 56  1  0
 24 57  1  0
 26 58  1  0
 26 59  1  0
 27 60  1  6
 28 61  1  0
 28 62  1  0
 29 63  1  1
 30 64  1  0
 30 65  1  0
 31 66  1  1
 32 67  1  0
 32 68  1  0
 33 69  1  0
 33 70  1  0
 34 71  1  0
 34 72  1  0
M  END
>  <_SMILES>  (108) 
CC1=C(c2ccccc2)/C(=C\CCCCO)C=NN[C@@H]1C(=O)NN[C@]12C[C@H]3C[C@H](C[C@H](C3)C1)C2

$$$$

     RDKit          3D

 72 76  0  0  0  0  0  0  0  0999 V2000
    0.1072   -3.7102    0.4602 C   0  0  0  0  0  0  0  0  0  0  0  0
    0.6439   -2.4784    1.1514 C   0  0  0  0  0  0  0  0  0  0  0  0
    1.8158   -1.8619    0.8565 C   0  0  0  0  0  0  0  0  0  0  0  0
    2.6859   -2.3921   -0.2222 C   0  0  0  0  0  0  0  0  0  0  0  0
    3.8924   -3.0222    0.1113 C   0  0  0  0  0  0  0  0  0  0  0  0
    4.7306   -3.5190   -0.8887 C   0  0  0  0  0  0  0  0  0  0  0  0
    4.3708   -3.3897   -2.2292 C   0  0  0  0  0  0  0  0  0  0  0  0
    3.1728   -2.7655   -2.5727 C   0  0  0  0  0  0  0  0  0  0  0  0
    2.3326   -2.2687   -1.5742 C   0  0  0  0  0  0  0  0  0  0  0  0
    2.2555   -0.7397    1.6837 C   0  0  0  0  0  0  0  0  0  0  0  0
    2.6784    0.4654    1.2550 C   0  0  0  0  0  0  0  0  0  0  0  0
    2.6890    1.0066   -0.1471 C   0  0  0  0  0  0  0  0  0  0  0  0
    4.0833    1.0615   -0.7788 C   0  0  0  0  0  0  0  0  0  0  0  0
    5.1422    1.8950   -0.0430 C   0  0  0  0  0  0  0  0  0  0  0  0
    4.8195    3.3820    0.0478 C   0  0  0  0  0  0  0  0  0  0  0  0
    3.8373    3.6127    1.0457 O   0  0  0  0  0  0  0  0  0  0  0  0
    2.3287   -0.9183    3.1659 C   0  0  0  0  0  0  0  0  0  0  0  0
    1.5541   -1.5595    3.9822 N   0  0  0  0  0  0  0  0  0  0  0  0
    0.4304   -2.2182    3.5531 N   0  0  0  0  0  0  0  0  0  0  0  0
   -0.2508   -1.9912    2.2809 C   0  0  1  0  0  0  0  0  0  0  0  0
   -0.9151   -0.5843    2.1410 C   0  0  0  0  0  0  0  0  0  0  0  0
   -1.3850    0.0383    3.0977 O   0  0  0  0  0  0  0  0  0  0  0  0
   -1.0653   -0.1311    0.8285 N   0  0  0  0  0  0  0  0  0  0  0  0
   -1.5748    1.1751    0.6187 N   0  0  0  0  0  0  0  0  0  0  0  0
   -2.8665    1.1780   -0.0927 C   0  0  2  0  0  0  0  0  0  0  0  0
   -2.7372    0.5562   -1.5066 C   0  0  0  0  0  0  0  0  0  0  0  0
   -4.0797    0.6421   -2.2551 C   0  0  1  0  0  0  0  0  0  0  0  0
   -5.1568   -0.1084   -1.4537 C   0  0  0  0  0  0  0  0  0  0  0  0
   -5.3169    0.5226   -0.0603 C   0  0  2  0  0  0  0  0  0  0  0  0
   -5.7171    1.9986   -0.2143 C   0  0  0  0  0  0  0  0  0  0  0  0
   -4.6390    2.7555   -1.0061 C   0  0  2  0  0  0  0  0  0  0  0  0
   -4.4877    2.1172   -2.3960 C   0  0  0  0  0  0  0  0  0  0  0  0
   -3.2987    2.6593   -0.2560 C   0  0  0  0  0  0  0  0  0  0  0  0
   -3.9775    0.4359    0.6936 C   0  0  0  0  0  0  0  0  0  0  0  0
   -0.1145   -4.4880    1.1996 H   0  0  0  0  0  0  0  0  0  0  0  0
   -0.8183   -3.4652   -0.0715 H   0  0  0  0  0  0  0  0  0  0  0  0
    0.7964   -4.1577   -0.2588 H   0  0  0  0  0  0  0  0  0  0  0  0
    4.1830   -3.1341    1.1539 H   0  0  0  0  0  0  0  0  0  0  0  0
    5.6636   -4.0077   -0.6199 H   0  0  0  0  0  0  0  0  0  0  0  0
    5.0248   -3.7771   -3.0064 H   0  0  0  0  0  0  0  0  0  0  0  0
    2.8931   -2.6651   -3.6181 H   0  0  0  0  0  0  0  0  0  0  0  0
    1.4030   -1.7824   -1.8578 H   0  0  0  0  0  0  0  0  0  0  0  0
    3.0001    1.2027    1.9928 H   0  0  0  0  0  0  0  0  0  0  0  0
    2.0276    0.4224   -0.7939 H   0  0  0  0  0  0  0  0  0  0  0  0
    2.2435    2.0080   -0.1351 H   0  0  0  0  0  0  0  0  0  0  0  0
    3.9822    1.4460   -1.8016 H   0  0  0  0  0  0  0  0  0  0  0  0
    4.4714    0.0404   -0.8768 H   0  0  0  0  0  0  0  0  0  0  0  0
    6.0855    1.7836   -0.5917 H   0  0  0  0  0  0  0  0  0  0  0  0
    5.3050    1.4844    0.9601 H   0  0  0  0  0  0  0  0  0  0  0  0
    4.4575    3.7700   -0.9094 H   0  0  0  0  0  0  0  0  0  0  0  0
    5.7193    3.9370    0.3320 H   0  0  0  0  0  0  0  0  0  0  0  0
    3.6750    4.5715    1.0727 H   0  0  0  0  0  0  0  0  0  0  0  0
    3.1791   -0.3968    3.6414 H   0  0  0  0  0  0  0  0  0  0  0  0
   -0.1961   -2.3871    4.3379 H   0  0  0  0  0  0  0  0  0  0  0  0
   -1.1205   -2.6624    2.3311 H   0  0  0  0  0  0  0  0  0  0  0  0
   -0.4324   -0.4961    0.1212 H   0  0  0  0  0  0  0  0  0  0  0  0
   -1.7126    1.5912    1.5524 H   0  0  0  0  0  0  0  0  0  0  0  0
   -2.4321   -0.4963   -1.4432 H   0  0  0  0  0  0  0  0  0  0  0  0
   -1.9605    1.0757   -2.0832 H   0  0  0  0  0  0  0  0  0  0  0  0
   -3.9771    0.1911   -3.2485 H   0  0  0  0  0  0  0  0  0  0  0  0
   -6.1127   -0.0751   -1.9907 H   0  0  0  0  0  0  0  0  0  0  0  0
   -4.8830   -1.1662   -1.3570 H   0  0  0  0  0  0  0  0  0  0  0  0
   -6.0908   -0.0129    0.5010 H   0  0  0  0  0  0  0  0  0  0  0  0
   -6.6824    2.0731   -0.7301 H   0  0  0  0  0  0  0  0  0  0  0  0
   -5.8480    2.4568    0.7737 H   0  0  0  0  0  0  0  0  0  0  0  0
   -4.9284    3.8070   -1.1120 H   0  0  0  0  0  0  0  0  0  0  0  0
   -3.7337    2.6609   -2.9784 H   0  0  0  0  0  0  0  0  0  0  0  0
   -5.4324    2.1936   -2.9483 H   0  0  0  0  0  0  0  0  0  0  0  0
   -2.5327    3.2227   -0.8059 H   0  0  0  0  0  0  0  0  0  0  0  0
   -3.3973    3.1405    0.7265 H   0  0  0  0  0  0  0  0  0  0  0  0
   -3.7162   -0.6208    0.8331 H   0  0  0  0  0  0  0  0  0  0  0  0
   -4.0912    0.8688    1.6961 H   0  0  0  0  0  0  0  0  0  0  0  0
  1  2  1  0
  2  3  2  0
  3  4  1  0
  4  5  2  0
  5  6  1  0
  6  7  2  0
  7  8  1  0
  8  9  2  0
  3 10  1  0
 10 11  2  0
 11 12  1  0
 12 13  1  0
 13 14  1  0
 14 15  1  0
 15 16  1  0
 10 17  1  0
 17 18  2  0
 18 19  1  0
 19 20  1  0
 20 21  1  0
 21 22  2  0
 21 23  1  0
 23 24  1  0
 25 24  1  1
 25 26  1  0
 26 27  1  0
 27 28  1  0
 28 29  1  0
 29 30  1  0
 30 31  1  0
 31 32  1  0
 31 33  1  0
 29 34  1  0
 20  2  1  0
 33 25  1  0
  9  4  1  0
 34 25  1  0
 32 27  1  0
  1 35  1  0
  1 36  1  0
  1 37  1  0
  5 38  1  0
  6 39  1  0
  7 40  1  0
  8 41  1  0
  9 42  1  0
 11 43  1  0
 12 44  1  0
 12 45  1  0
 13 46  1  0
 13 47  1  0
 14 48  1  0
 14 49  1  0
 15 50  1  0
 15 51  1  0
 16 52  1  0
 17 53  1  0
 19 54  1  0
 20 55  1  1
 23 56  1  0
 24 57  1  0
 26 58  1  0
 26 59  1  0
 27 60  1  6
 28 61  1  0
 28 62  1  0
 29 63  1  1
 30 64  1  0
 30 65  1  0
 31 66  1  6
 32 67  1  0
 32 68  1  0
 33 69  1  0
 33 70  1  0
 34 71  1  0
 34 72  1  0
M  END
>  <_SMILES>  (109) 
CC1=C(c2ccccc2)/C(=C\CCCCO)C=NN[C@H]1C(=O)NN[C@]12C[C@H]3C[C@H](C[C@H](C3)C1)C2

$$$$

     RDKit          3D

 72 76  0  0  0  0  0  0  0  0999 V2000
    0.7894   -3.8886   -0.0175 C   0  0  0  0  0  0  0  0  0  0  0  0
    1.0924   -2.4339   -0.3738 C   0  0  0  0  0  0  0  0  0  0  0  0
    2.3168   -1.8749   -0.1523 C   0  0  0  0  0  0  0  0  0  0  0  0
    3.3420   -2.7396    0.5041 C   0  0  0  0  0  0  0  0  0  0  0  0
    4.2121   -3.5267   -0.2654 C   0  0  0  0  0  0  0  0  0  0  0  0
    5.1808   -4.3163    0.3558 C   0  0  0  0  0  0  0  0  0  0  0  0
    5.2887   -4.3221    1.7462 C   0  0  0  0  0  0  0  0  0  0  0  0
    4.4303   -3.5393    2.5181 C   0  0  0  0  0  0  0  0  0  0  0  0
    3.4605   -2.7478    1.9006 C   0  0  0  0  0  0  0  0  0  0  0  0
    2.6695   -0.4748   -0.4568 C   0  0  0  0  0  0  0  0  0  0  0  0
    3.9424   -0.0435   -0.6036 C   0  0  0  0  0  0  0  0  0  0  0  0
    4.4337    1.3454   -0.9211 C   0  0  0  0  0  0  0  0  0  0  0  0
    5.0918    1.9871    0.3022 C   0  0  0  0  0  0  0  0  0  0  0  0
    5.5349    3.4307    0.0612 C   0  0  0  0  0  0  0  0  0  0  0  0
    6.6428    3.5654   -0.9760 C   0  0  0  0  0  0  0  0  0  0  0  0
    7.0698    4.9196   -1.0462 O   0  0  0  0  0  0  0  0  0  0  0  0
    1.6269    0.5852   -0.4932 C   0  0  0  0  0  0  0  0  0  0  0  0
    0.5029    0.5871   -1.1371 N   0  0  0  0  0  0  0  0  0  0  0  0
    0.2067   -0.5748   -1.8000 N   0  0  0  0  0  0  0  0  0  0  0  0
   -0.1290   -1.7746   -1.0090 C   0  0  2  0  0  0  0  0  0  0  0  0
   -1.2969   -1.5681    0.0111 C   0  0  0  0  0  0  0  0  0  0  0  0
   -1.7688   -2.4730    0.7030 O   0  0  0  0  0  0  0  0  0  0  0  0
   -1.7848   -0.2669    0.0586 N   0  0  0  0  0  0  0  0  0  0  0  0
   -2.6940    0.0964    1.0789 N   0  0  0  0  0  0  0  0  0  0  0  0
   -3.9863    0.5674    0.5479 C   0  0  2  0  0  0  0  0  0  0  0  0
   -4.7182   -0.5240   -0.2750 C   0  0  0  0  0  0  0  0  0  0  0  0
   -6.0878   -0.0076   -0.7518 C   0  0  1  0  0  0  0  0  0  0  0  0
   -6.9468    0.3537    0.4705 C   0  0  0  0  0  0  0  0  0  0  0  0
   -6.2514    1.4474    1.2966 C   0  0  2  0  0  0  0  0  0  0  0  0
   -6.0532    2.6956    0.4220 C   0  0  0  0  0  0  0  0  0  0  0  0
   -5.1885    2.3485   -0.8003 C   0  0  2  0  0  0  0  0  0  0  0  0
   -5.8838    1.2469   -1.6180 C   0  0  0  0  0  0  0  0  0  0  0  0
   -3.8167    1.8381   -0.3231 C   0  0  0  0  0  0  0  0  0  0  0  0
   -4.8784    0.9331    1.7639 C   0  0  0  0  0  0  0  0  0  0  0  0
    0.3806   -3.9516    0.9960 H   0  0  0  0  0  0  0  0  0  0  0  0
    1.6588   -4.5473   -0.0787 H   0  0  0  0  0  0  0  0  0  0  0  0
    0.0565   -4.3197   -0.7088 H   0  0  0  0  0  0  0  0  0  0  0  0
    4.1335   -3.5266   -1.3501 H   0  0  0  0  0  0  0  0  0  0  0  0
    5.8501   -4.9273   -0.2441 H   0  0  0  0  0  0  0  0  0  0  0  0
    6.0424   -4.9387    2.2297 H   0  0  0  0  0  0  0  0  0  0  0  0
    4.5153   -3.5458    3.6018 H   0  0  0  0  0  0  0  0  0  0  0  0
    2.7954   -2.1415    2.5111 H   0  0  0  0  0  0  0  0  0  0  0  0
    4.7541   -0.7660   -0.5328 H   0  0  0  0  0  0  0  0  0  0  0  0
    5.1599    1.2587   -1.7379 H   0  0  0  0  0  0  0  0  0  0  0  0
    3.6322    1.9881   -1.2996 H   0  0  0  0  0  0  0  0  0  0  0  0
    4.3820    1.9835    1.1395 H   0  0  0  0  0  0  0  0  0  0  0  0
    5.9544    1.3884    0.6210 H   0  0  0  0  0  0  0  0  0  0  0  0
    4.6755    4.0441   -0.2371 H   0  0  0  0  0  0  0  0  0  0  0  0
    5.8844    3.8586    1.0094 H   0  0  0  0  0  0  0  0  0  0  0  0
    7.5083    2.9539   -0.7032 H   0  0  0  0  0  0  0  0  0  0  0  0
    6.3073    3.2637   -1.9724 H   0  0  0  0  0  0  0  0  0  0  0  0
    6.3030    5.4579   -1.3072 H   0  0  0  0  0  0  0  0  0  0  0  0
    1.8718    1.5025    0.0696 H   0  0  0  0  0  0  0  0  0  0  0  0
   -0.4966   -0.3965   -2.5158 H   0  0  0  0  0  0  0  0  0  0  0  0
   -0.5291   -2.4582   -1.7701 H   0  0  0  0  0  0  0  0  0  0  0  0
   -1.1490    0.4431   -0.3275 H   0  0  0  0  0  0  0  0  0  0  0  0
   -2.8579   -0.7476    1.6455 H   0  0  0  0  0  0  0  0  0  0  0  0
   -4.1238   -0.8157   -1.1502 H   0  0  0  0  0  0  0  0  0  0  0  0
   -4.8568   -1.4302    0.3292 H   0  0  0  0  0  0  0  0  0  0  0  0
   -6.5901   -0.7844   -1.3392 H   0  0  0  0  0  0  0  0  0  0  0  0
   -7.9347    0.7014    0.1445 H   0  0  0  0  0  0  0  0  0  0  0  0
   -7.1112   -0.5367    1.0898 H   0  0  0  0  0  0  0  0  0  0  0  0
   -6.8669    1.7003    2.1671 H   0  0  0  0  0  0  0  0  0  0  0  0
   -5.5745    3.4910    1.0064 H   0  0  0  0  0  0  0  0  0  0  0  0
   -7.0262    3.0824    0.0951 H   0  0  0  0  0  0  0  0  0  0  0  0
   -5.0537    3.2406   -1.4221 H   0  0  0  0  0  0  0  0  0  0  0  0
   -6.8523    1.6089   -1.9845 H   0  0  0  0  0  0  0  0  0  0  0  0
   -5.2820    0.9990   -2.5009 H   0  0  0  0  0  0  0  0  0  0  0  0
   -3.1907    1.6290   -1.2002 H   0  0  0  0  0  0  0  0  0  0  0  0
   -3.3083    2.6271    0.2466 H   0  0  0  0  0  0  0  0  0  0  0  0
   -4.3910    1.7028    2.3777 H   0  0  0  0  0  0  0  0  0  0  0  0
   -5.0202    0.0579    2.4124 H   0  0  0  0  0  0  0  0  0  0  0  0
  1  2  1  0
  2  3  2  0
  3  4  1  0
  4  5  2  0
  5  6  1  0
  6  7  2  0
  7  8  1  0
  8  9  2  0
  3 10  1  0
 10 11  2  0
 11 12  1  0
 12 13  1  0
 13 14  1  0
 14 15  1  0
 15 16  1  0
 10 17  1  0
 17 18  2  0
 18 19  1  0
 19 20  1  0
 20 21  1  0
 21 22  2  0
 21 23  1  0
 23 24  1  0
 25 24  1  1
 25 26  1  0
 26 27  1  0
 27 28  1  0
 28 29  1  0
 29 30  1  0
 30 31  1  0
 31 32  1  0
 31 33  1  0
 29 34  1  0
 20  2  1  0
 33 25  1  0
  9  4  1  0
 34 25  1  0
 32 27  1  0
  1 35  1  0
  1 36  1  0
  1 37  1  0
  5 38  1  0
  6 39  1  0
  7 40  1  0
  8 41  1  0
  9 42  1  0
 11 43  1  0
 12 44  1  0
 12 45  1  0
 13 46  1  0
 13 47  1  0
 14 48  1  0
 14 49  1  0
 15 50  1  0
 15 51  1  0
 16 52  1  0
 17 53  1  0
 19 54  1  0
 20 55  1  6
 23 56  1  0
 24 57  1  0
 26 58  1  0
 26 59  1  0
 27 60  1  6
 28 61  1  0
 28 62  1  0
 29 63  1  1
 30 64  1  0
 30 65  1  0
 31 66  1  6
 32 67  1  0
 32 68  1  0
 33 69  1  0
 33 70  1  0
 34 71  1  0
 34 72  1  0
M  END
>  <_SMILES>  (110) 
CC1=C(c2ccccc2)/C(=C/CCCCO)C=NN[C@@H]1C(=O)NN[C@]12C[C@H]3C[C@H](C[C@H](C3)C1)C2

$$$$

     RDKit          3D

 72 76  0  0  0  0  0  0  0  0999 V2000
    0.2290   -1.1741   -0.8990 C   0  0  0  0  0  0  0  0  0  0  0  0
   -0.8716   -0.3448   -0.2811 C   0  0  0  0  0  0  0  0  0  0  0  0
   -2.1603   -0.3242   -0.7142 C   0  0  0  0  0  0  0  0  0  0  0  0
   -2.5740   -1.2112   -1.8281 C   0  0  0  0  0  0  0  0  0  0  0  0
   -2.7940   -2.5791   -1.6152 C   0  0  0  0  0  0  0  0  0  0  0  0
   -3.2037   -3.3981   -2.6687 C   0  0  0  0  0  0  0  0  0  0  0  0
   -3.3988   -2.8560   -3.9385 C   0  0  0  0  0  0  0  0  0  0  0  0
   -3.1853   -1.4956   -4.1578 C   0  0  0  0  0  0  0  0  0  0  0  0
   -2.7758   -0.6741   -3.1061 C   0  0  0  0  0  0  0  0  0  0  0  0
   -3.1370    0.5970   -0.0965 C   0  0  0  0  0  0  0  0  0  0  0  0
   -4.5519    0.0836    0.1128 C   0  0  0  0  0  0  0  0  0  0  0  0
   -4.6415   -0.8820    1.3016 C   0  0  0  0  0  0  0  0  0  0  0  0
   -6.0299   -1.5079    1.4706 C   0  0  0  0  0  0  0  0  0  0  0  0
   -7.1733   -0.5252    1.7252 C   0  0  0  0  0  0  0  0  0  0  0  0
   -7.0044    0.2956    2.9966 C   0  0  0  0  0  0  0  0  0  0  0  0
   -8.1519    1.1179    3.1624 O   0  0  0  0  0  0  0  0  0  0  0  0
   -2.8280    1.8634    0.2561 C   0  0  0  0  0  0  0  0  0  0  0  0
   -1.6286    2.5192    0.1337 N   0  0  0  0  0  0  0  0  0  0  0  0
   -0.5237    1.9844    0.3860 N   0  0  0  0  0  0  0  0  0  0  0  0
   -0.4675    0.5809    0.8602 C   0  0  2  0  0  0  0  0  0  0  0  0
    0.9397    0.3261    1.4470 C   0  0  0  0  0  0  0  0  0  0  0  0
    1.2059   -0.6676    2.1286 O   0  0  0  0  0  0  0  0  0  0  0  0
    1.8982    1.2818    1.1232 N   0  0  0  0  0  0  0  0  0  0  0  0
    3.1476    1.2557    1.7858 N   0  0  0  0  0  0  0  0  0  0  0  0
    4.2850    1.0453    0.8703 C   0  0  2  0  0  0  0  0  0  0  0  0
    5.5778    1.1012    1.7274 C   0  0  0  0  0  0  0  0  0  0  0  0
    6.8239    0.8964    0.8480 C   0  0  1  0  0  0  0  0  0  0  0  0
    6.7353   -0.4735    0.1568 C   0  0  0  0  0  0  0  0  0  0  0  0
    5.4711   -0.5412   -0.7146 C   0  0  2  0  0  0  0  0  0  0  0  0
    5.5242    0.5724   -1.7742 C   0  0  0  0  0  0  0  0  0  0  0  0
    5.6139    1.9485   -1.0929 C   0  0  2  0  0  0  0  0  0  0  0  0
    6.8771    2.0011   -0.2191 C   0  0  0  0  0  0  0  0  0  0  0  0
    4.3736    2.1577   -0.2052 C   0  0  0  0  0  0  0  0  0  0  0  0
    4.2308   -0.3381    0.1740 C   0  0  0  0  0  0  0  0  0  0  0  0
    0.5933   -1.9207   -0.1867 H   0  0  0  0  0  0  0  0  0  0  0  0
   -0.0722   -1.7117   -1.8012 H   0  0  0  0  0  0  0  0  0  0  0  0
    1.0612   -0.5288   -1.1977 H   0  0  0  0  0  0  0  0  0  0  0  0
   -2.6439   -3.0119   -0.6292 H   0  0  0  0  0  0  0  0  0  0  0  0
   -3.3701   -4.4587   -2.4987 H   0  0  0  0  0  0  0  0  0  0  0  0
   -3.7175   -3.4946   -4.7585 H   0  0  0  0  0  0  0  0  0  0  0  0
   -3.3379   -1.0736   -5.1477 H   0  0  0  0  0  0  0  0  0  0  0  0
   -2.6122    0.3860   -3.2864 H   0  0  0  0  0  0  0  0  0  0  0  0
   -5.2246    0.9319    0.2906 H   0  0  0  0  0  0  0  0  0  0  0  0
   -4.9300   -0.3957   -0.7976 H   0  0  0  0  0  0  0  0  0  0  0  0
   -3.9224   -1.6999    1.1721 H   0  0  0  0  0  0  0  0  0  0  0  0
   -4.3472   -0.3664    2.2236 H   0  0  0  0  0  0  0  0  0  0  0  0
   -6.2664   -2.0917    0.5722 H   0  0  0  0  0  0  0  0  0  0  0  0
   -5.9878   -2.2244    2.3004 H   0  0  0  0  0  0  0  0  0  0  0  0
   -8.1128   -1.0891    1.7929 H   0  0  0  0  0  0  0  0  0  0  0  0
   -7.3079    0.1446    0.8678 H   0  0  0  0  0  0  0  0  0  0  0  0
   -6.1276    0.9466    2.9393 H   0  0  0  0  0  0  0  0  0  0  0  0
   -6.9120   -0.3555    3.8716 H   0  0  0  0  0  0  0  0  0  0  0  0
   -8.0419    1.5977    4.0012 H   0  0  0  0  0  0  0  0  0  0  0  0
   -3.6096    2.4986    0.6671 H   0  0  0  0  0  0  0  0  0  0  0  0
   -1.1343    0.4504    1.7251 H   0  0  0  0  0  0  0  0  0  0  0  0
    1.5622    2.1710    0.7510 H   0  0  0  0  0  0  0  0  0  0  0  0
    3.1172    0.4714    2.4531 H   0  0  0  0  0  0  0  0  0  0  0  0
    5.6520    2.0676    2.2442 H   0  0  0  0  0  0  0  0  0  0  0  0
    5.5540    0.3289    2.5082 H   0  0  0  0  0  0  0  0  0  0  0  0
    7.7255    0.9391    1.4692 H   0  0  0  0  0  0  0  0  0  0  0  0
    7.6260   -0.6396   -0.4615 H   0  0  0  0  0  0  0  0  0  0  0  0
    6.7160   -1.2723    0.9083 H   0  0  0  0  0  0  0  0  0  0  0  0
    5.4148   -1.5180   -1.2080 H   0  0  0  0  0  0  0  0  0  0  0  0
    6.3911    0.4231   -2.4296 H   0  0  0  0  0  0  0  0  0  0  0  0
    4.6322    0.5267   -2.4110 H   0  0  0  0  0  0  0  0  0  0  0  0
    5.6588    2.7353   -1.8543 H   0  0  0  0  0  0  0  0  0  0  0  0
    6.9600    2.9835    0.2617 H   0  0  0  0  0  0  0  0  0  0  0  0
    7.7702    1.8761   -0.8437 H   0  0  0  0  0  0  0  0  0  0  0  0
    4.4236    3.1461    0.2703 H   0  0  0  0  0  0  0  0  0  0  0  0
    3.4787    2.1577   -0.8407 H   0  0  0  0  0  0  0  0  0  0  0  0
    3.3319   -0.4241   -0.4474 H   0  0  0  0  0  0  0  0  0  0  0  0
    4.1774   -1.1415    0.9204 H   0  0  0  0  0  0  0  0  0  0  0  0
  1  2  1  0
  2  3  2  0
  3  4  1  0
  4  5  2  0
  5  6  1  0
  6  7  2  0
  7  8  1  0
  8  9  2  0
  3 10  1  0
 10 11  1  0
 11 12  1  0
 12 13  1  0
 13 14  1  0
 14 15  1  0
 15 16  1  0
 10 17  2  0
 17 18  1  0
 18 19  2  0
 19 20  1  0
 20 21  1  0
 21 22  2  0
 21 23  1  0
 23 24  1  0
 25 24  1  1
 25 26  1  0
 26 27  1  0
 27 28  1  0
 28 29  1  0
 29 30  1  0
 30 31  1  0
 31 32  1  0
 31 33  1  0
 29 34  1  0
 20  2  1  0
 33 25  1  0
  9  4  1  0
 34 25  1  0
 32 27  1  0
  1 35  1  0
  1 36  1  0
  1 37  1  0
  5 38  1  0
  6 39  1  0
  7 40  1  0
  8 41  1  0
  9 42  1  0
 11 43  1  0
 11 44  1  0
 12 45  1  0
 12 46  1  0
 13 47  1  0
 13 48  1  0
 14 49  1  0
 14 50  1  0
 15 51  1  0
 15 52  1  0
 16 53  1  0
 17 54  1  0
 20 55  1  1
 23 56  1  0
 24 57  1  0
 26 58  1  0
 26 59  1  0
 27 60  1  1
 28 61  1  0
 28 62  1  0
 29 63  1  6
 30 64  1  0
 30 65  1  0
 31 66  1  6
 32 67  1  0
 32 68  1  0
 33 69  1  0
 33 70  1  0
 34 71  1  0
 34 72  1  0
M  END
>  <_SMILES>  (111) 
CC1=C(c2ccccc2)C(CCCCCO)=CN=N[C@@H]1C(=O)NN[C@]12C[C@H]3C[C@H](C[C@H](C3)C1)C2

$$$$

     RDKit          3D

 72 76  0  0  0  0  0  0  0  0999 V2000
    1.4809   -3.6174    2.9388 C   0  0  0  0  0  0  0  0  0  0  0  0
    1.1036   -2.3438    2.2173 C   0  0  0  0  0  0  0  0  0  0  0  0
    1.7341   -1.8455    1.1239 C   0  0  0  0  0  0  0  0  0  0  0  0
    2.8839   -2.5938    0.5598 C   0  0  0  0  0  0  0  0  0  0  0  0
    4.1888   -2.1371    0.7843 C   0  0  0  0  0  0  0  0  0  0  0  0
    5.2761   -2.8210    0.2381 C   0  0  0  0  0  0  0  0  0  0  0  0
    5.0660   -3.9614   -0.5371 C   0  0  0  0  0  0  0  0  0  0  0  0
    3.7694   -4.4191   -0.7706 C   0  0  0  0  0  0  0  0  0  0  0  0
    2.6800   -3.7368   -0.2269 C   0  0  0  0  0  0  0  0  0  0  0  0
    1.2799   -0.5878    0.4950 C   0  0  0  0  0  0  0  0  0  0  0  0
    1.2785   -0.5739   -1.0331 C   0  0  0  0  0  0  0  0  0  0  0  0
    1.2962    0.7778   -1.7687 C   0  0  0  0  0  0  0  0  0  0  0  0
    2.5490    1.6343   -1.5434 C   0  0  0  0  0  0  0  0  0  0  0  0
    3.8398    0.9638   -2.0255 C   0  0  0  0  0  0  0  0  0  0  0  0
    5.0419    1.8970   -1.9349 C   0  0  0  0  0  0  0  0  0  0  0  0
    5.2752    2.2576   -0.5811 O   0  0  0  0  0  0  0  0  0  0  0  0
    0.8627    0.4674    1.2229 C   0  0  0  0  0  0  0  0  0  0  0  0
    0.7776    0.6035    2.5823 N   0  0  0  0  0  0  0  0  0  0  0  0
    0.3180   -0.2747    3.3441 N   0  0  0  0  0  0  0  0  0  0  0  0
   -0.0648   -1.6262    2.8650 C   0  0  1  0  0  0  0  0  0  0  0  0
   -1.3819   -1.6132    2.0558 C   0  0  0  0  0  0  0  0  0  0  0  0
   -1.7304   -2.5575    1.3458 O   0  0  0  0  0  0  0  0  0  0  0  0
   -2.1611   -0.4791    2.2885 N   0  0  0  0  0  0  0  0  0  0  0  0
   -3.4555   -0.3685    1.7553 N   0  0  0  0  0  0  0  0  0  0  0  0
   -3.6010    0.6643    0.7182 C   0  0  2  0  0  0  0  0  0  0  0  0
   -5.0912    0.6759    0.2820 C   0  0  0  0  0  0  0  0  0  0  0  0
   -5.3306    1.7294   -0.8141 C   0  0  1  0  0  0  0  0  0  0  0  0
   -4.9522    3.1169   -0.2724 C   0  0  0  0  0  0  0  0  0  0  0  0
   -3.4731    3.1324    0.1445 C   0  0  2  0  0  0  0  0  0  0  0  0
   -2.5979    2.7936   -1.0738 C   0  0  0  0  0  0  0  0  0  0  0  0
   -2.9696    1.4064   -1.6245 C   0  0  2  0  0  0  0  0  0  0  0  0
   -4.4514    1.4026   -2.0317 C   0  0  0  0  0  0  0  0  0  0  0  0
   -2.7436    0.3468   -0.5314 C   0  0  0  0  0  0  0  0  0  0  0  0
   -3.2431    2.0783    1.2425 C   0  0  0  0  0  0  0  0  0  0  0  0
    0.6574   -4.3370    2.8788 H   0  0  0  0  0  0  0  0  0  0  0  0
    2.3758   -4.1087    2.5513 H   0  0  0  0  0  0  0  0  0  0  0  0
    1.6770   -3.4040    3.9955 H   0  0  0  0  0  0  0  0  0  0  0  0
    4.3607   -1.2437    1.3809 H   0  0  0  0  0  0  0  0  0  0  0  0
    6.2859   -2.4612    0.4164 H   0  0  0  0  0  0  0  0  0  0  0  0
    5.9139   -4.4930   -0.9612 H   0  0  0  0  0  0  0  0  0  0  0  0
    3.6055   -5.3060   -1.3767 H   0  0  0  0  0  0  0  0  0  0  0  0
    1.6705   -4.0953   -0.4166 H   0  0  0  0  0  0  0  0  0  0  0  0
    2.1201   -1.1515   -1.4273 H   0  0  0  0  0  0  0  0  0  0  0  0
    0.3783   -1.1157   -1.3553 H   0  0  0  0  0  0  0  0  0  0  0  0
    0.4088    1.3623   -1.5020 H   0  0  0  0  0  0  0  0  0  0  0  0
    1.2027    0.5783   -2.8443 H   0  0  0  0  0  0  0  0  0  0  0  0
    2.6418    1.9005   -0.4854 H   0  0  0  0  0  0  0  0  0  0  0  0
    2.4139    2.5772   -2.0882 H   0  0  0  0  0  0  0  0  0  0  0  0
    4.0387    0.0791   -1.4119 H   0  0  0  0  0  0  0  0  0  0  0  0
    3.7210    0.6326   -3.0633 H   0  0  0  0  0  0  0  0  0  0  0  0
    4.8757    2.8079   -2.5188 H   0  0  0  0  0  0  0  0  0  0  0  0
    5.9357    1.3935   -2.3167 H   0  0  0  0  0  0  0  0  0  0  0  0
    6.0585    2.8337   -0.5701 H   0  0  0  0  0  0  0  0  0  0  0  0
    0.5506    1.3730    0.7127 H   0  0  0  0  0  0  0  0  0  0  0  0
   -0.3394   -2.1724    3.7786 H   0  0  0  0  0  0  0  0  0  0  0  0
   -1.7606    0.2675    2.8563 H   0  0  0  0  0  0  0  0  0  0  0  0
   -4.1218   -0.2161    2.5144 H   0  0  0  0  0  0  0  0  0  0  0  0
   -5.3873   -0.3132   -0.0928 H   0  0  0  0  0  0  0  0  0  0  0  0
   -5.7406    0.8932    1.1410 H   0  0  0  0  0  0  0  0  0  0  0  0
   -6.3861    1.7230   -1.1084 H   0  0  0  0  0  0  0  0  0  0  0  0
   -5.5865    3.3704    0.5858 H   0  0  0  0  0  0  0  0  0  0  0  0
   -5.1335    3.8806   -1.0387 H   0  0  0  0  0  0  0  0  0  0  0  0
   -3.2075    4.1249    0.5254 H   0  0  0  0  0  0  0  0  0  0  0  0
   -1.5388    2.8142   -0.7900 H   0  0  0  0  0  0  0  0  0  0  0  0
   -2.7329    3.5531   -1.8536 H   0  0  0  0  0  0  0  0  0  0  0  0
   -2.3461    1.1756   -2.4956 H   0  0  0  0  0  0  0  0  0  0  0  0
   -4.6236    2.1383   -2.8269 H   0  0  0  0  0  0  0  0  0  0  0  0
   -4.7257    0.4223   -2.4402 H   0  0  0  0  0  0  0  0  0  0  0  0
   -1.6796    0.3257   -0.2751 H   0  0  0  0  0  0  0  0  0  0  0  0
   -2.9926   -0.6474   -0.9250 H   0  0  0  0  0  0  0  0  0  0  0  0
   -3.8507    2.3248    2.1231 H   0  0  0  0  0  0  0  0  0  0  0  0
   -2.1936    2.1224    1.5599 H   0  0  0  0  0  0  0  0  0  0  0  0
  1  2  1  0
  2  3  2  0
  3  4  1  0
  4  5  2  0
  5  6  1  0
  6  7  2  0
  7  8  1  0
  8  9  2  0
  3 10  1  0
 10 11  1  0
 11 12  1  0
 12 13  1  0
 13 14  1  0
 14 15  1  0
 15 16  1  0
 10 17  2  0
 17 18  1  0
 18 19  2  0
 19 20  1  0
 20 21  1  0
 21 22  2  0
 21 23  1  0
 23 24  1  0
 25 24  1  1
 25 26  1  0
 26 27  1  0
 27 28  1  0
 28 29  1  0
 29 30  1  0
 30 31  1  0
 31 32  1  0
 31 33  1  0
 29 34  1  0
 20  2  1  0
 33 25  1  0
  9  4  1  0
 34 25  1  0
 32 27  1  0
  1 35  1  0
  1 36  1  0
  1 37  1  0
  5 38  1  0
  6 39  1  0
  7 40  1  0
  8 41  1  0
  9 42  1  0
 11 43  1  0
 11 44  1  0
 12 45  1  0
 12 46  1  0
 13 47  1  0
 13 48  1  0
 14 49  1  0
 14 50  1  0
 15 51  1  0
 15 52  1  0
 16 53  1  0
 17 54  1  0
 20 55  1  1
 23 56  1  0
 24 57  1  0
 26 58  1  0
 26 59  1  0
 27 60  1  6
 28 61  1  0
 28 62  1  0
 29 63  1  1
 30 64  1  0
 30 65  1  0
 31 66  1  6
 32 67  1  0
 32 68  1  0
 33 69  1  0
 33 70  1  0
 34 71  1  0
 34 72  1  0
M  END
>  <_SMILES>  (112) 
CC1=C(c2ccccc2)C(CCCCCO)=CN=N[C@H]1C(=O)NN[C@]12C[C@H]3C[C@H](C[C@H](C3)C1)C2

$$$$

     RDKit          3D

 38 40  0  0  0  0  0  0  0  0999 V2000
   -4.6174    1.1092    2.1755 C   0  0  0  0  0  0  0  0  0  0  0  0
   -3.6505    0.1650    1.5096 C   0  0  0  0  0  0  0  0  0  0  0  0
   -3.0329   -0.6773    2.1589 O   0  0  0  0  0  0  0  0  0  0  0  0
   -3.4779    0.3181    0.1538 N   0  0  0  0  0  0  0  0  0  0  0  0
   -4.2000    1.2402   -0.7084 C   0  0  0  0  0  0  0  0  0  0  0  0
   -3.5360    1.0891   -2.0668 C   0  0  0  0  0  0  0  0  0  0  0  0
   -3.1046   -0.3733   -2.0627 C   0  0  0  0  0  0  0  0  0  0  0  0
   -2.6627   -0.6040   -0.6125 C   0  0  1  0  0  0  0  0  0  0  0  0
   -1.2771   -0.2922   -0.3938 N   0  0  0  0  0  0  0  0  0  0  0  0
   -0.2950   -1.1470   -0.8387 C   0  0  0  0  0  0  0  0  0  0  0  0
   -0.4661   -2.0757   -1.6131 O   0  0  0  0  0  0  0  0  0  0  0  0
    1.0500   -0.8753   -0.3027 C   0  0  0  0  0  0  0  0  0  0  0  0
    2.1935   -1.4723   -0.4884 N   0  0  0  0  0  0  0  0  0  0  0  0
    2.7859   -0.5644    0.3539 N   0  0  0  0  0  0  0  0  0  0  0  0
    4.1143   -0.4849    0.7283 C   0  0  0  0  0  0  0  0  0  0  0  0
    4.5428    0.5210    1.6010 C   0  0  0  0  0  0  0  0  0  0  0  0
    5.8857    0.6001    1.9784 C   0  0  0  0  0  0  0  0  0  0  0  0
    6.8054   -0.3247    1.4860 C   0  0  0  0  0  0  0  0  0  0  0  0
    6.3848   -1.3295    0.6164 C   0  0  0  0  0  0  0  0  0  0  0  0
    5.0427   -1.4096    0.2386 C   0  0  0  0  0  0  0  0  0  0  0  0
    1.6583    0.1014    0.5905 C   0  0  0  0  0  0  0  0  0  0  0  0
    1.1924    1.0301    1.1823 O   0  0  0  0  0  0  0  0  0  0  0  0
   -5.6053    1.0304    1.7145 H   0  0  0  0  0  0  0  0  0  0  0  0
   -4.7122    0.8447    3.2329 H   0  0  0  0  0  0  0  0  0  0  0  0
   -4.2463    2.1349    2.1059 H   0  0  0  0  0  0  0  0  0  0  0  0
   -5.2486    0.9244   -0.7406 H   0  0  0  0  0  0  0  0  0  0  0  0
   -4.1451    2.2616   -0.3221 H   0  0  0  0  0  0  0  0  0  0  0  0
   -4.2074    1.3352   -2.8938 H   0  0  0  0  0  0  0  0  0  0  0  0
   -2.6547    1.7383   -2.1326 H   0  0  0  0  0  0  0  0  0  0  0  0
   -3.9755   -1.0025   -2.2857 H   0  0  0  0  0  0  0  0  0  0  0  0
   -2.3344   -0.5807   -2.8105 H   0  0  0  0  0  0  0  0  0  0  0  0
   -2.8455   -1.6374   -0.2955 H   0  0  0  0  0  0  0  0  0  0  0  0
   -1.0906    0.2860    0.4180 H   0  0  0  0  0  0  0  0  0  0  0  0
    3.8416    1.2518    1.9976 H   0  0  0  0  0  0  0  0  0  0  0  0
    6.2131    1.3834    2.6575 H   0  0  0  0  0  0  0  0  0  0  0  0
    7.8501   -0.2630    1.7805 H   0  0  0  0  0  0  0  0  0  0  0  0
    7.0996   -2.0524    0.2317 H   0  0  0  0  0  0  0  0  0  0  0  0
    4.7260   -2.1987   -0.4400 H   0  0  0  0  0  0  0  0  0  0  0  0
  1  2  1  0
  2  3  2  0
  2  4  1  0
  4  5  1  0
  5  6  1  0
  6  7  1  0
  7  8  1  0
  8  9  1  0
  9 10  1  0
 10 11  2  0
 10 12  1  0
 12 13  2  0
 13 14  1  0
 14 15  1  0
 15 16  2  0
 16 17  1  0
 17 18  2  0
 18 19  1  0
 19 20  2  0
 14 21  1  0
 21 22  2  0
  8  4  1  0
 21 12  1  0
 20 15  1  0
  1 23  1  0
  1 24  1  0
  1 25  1  0
  5 26  1  0
  5 27  1  0
  6 28  1  0
  6 29  1  0
  7 30  1  0
  7 31  1  0
  8 32  1  1
  9 33  1  0
 16 34  1  0
 17 35  1  0
 18 36  1  0
 19 37  1  0
 20 38  1  0
M  END
>  <_SMILES>  (113) 
CC(=O)N1CCC[C@H]1NC(=O)C1=NN(c2ccccc2)C1=O

$$$$

     RDKit          3D

 54 56  0  0  0  0  0  0  0  0999 V2000
    1.7376    2.1389    3.7284 C   0  0  0  0  0  0  0  0  0  0  0  0
    1.7610    1.0657    2.6935 C   0  0  0  0  0  0  0  0  0  0  0  0
    0.7690    0.8578    1.6860 C   0  0  0  0  0  0  0  0  0  0  0  0
   -0.4950    1.6120    1.4876 C   0  0  0  0  0  0  0  0  0  0  0  0
   -0.7714    2.5633    2.2052 O   0  0  0  0  0  0  0  0  0  0  0  0
   -1.2490    1.0887    0.4564 N   0  0  0  0  0  0  0  0  0  0  0  0
   -2.4972    1.5253   -0.0366 C   0  0  0  0  0  0  0  0  0  0  0  0
   -3.1303    2.6668    0.4728 C   0  0  0  0  0  0  0  0  0  0  0  0
   -4.3797    3.0756   -0.0001 C   0  0  0  0  0  0  0  0  0  0  0  0
   -5.0237    2.3480   -0.9911 C   0  0  0  0  0  0  0  0  0  0  0  0
   -4.4085    1.2172   -1.5298 C   0  0  0  0  0  0  0  0  0  0  0  0
   -3.1358    0.8007   -1.0674 C   0  0  0  0  0  0  0  0  0  0  0  0
   -2.5986   -0.4671   -1.6943 C   0  0  0  0  0  0  0  0  0  0  0  0
   -2.7877   -0.4767   -3.2144 C   0  0  0  0  0  0  0  0  0  0  0  0
   -4.1652   -0.0088   -3.6942 C   0  0  0  0  0  0  0  0  0  0  0  0
   -5.1173    0.3859   -2.5696 C   0  0  0  0  0  0  0  0  0  0  0  0
    1.1168   -0.1713    0.8891 N   0  0  0  0  0  0  0  0  0  0  0  0
    2.3315   -0.5483    1.3163 N   0  0  0  0  0  0  0  0  0  0  0  0
    3.0677   -1.5153    0.5032 C   0  0  0  0  0  0  0  0  0  0  0  0
    2.7565   -1.4132   -1.0036 C   0  0  0  0  0  0  0  0  0  0  0  0
    3.5622   -2.4013   -1.8338 C   0  0  0  0  0  0  0  0  0  0  0  0
    3.1968   -2.2620   -3.2667 N   0  0  0  0  0  0  0  0  0  0  0  0
    2.6954    0.0519    2.5025 C   0  0  0  0  0  0  0  0  0  0  0  0
    3.8754   -0.3240    3.3184 C   0  0  0  0  0  0  0  0  0  0  0  0
    3.4814   -0.6144    4.7136 N   0  0  0  0  0  0  0  0  0  0  0  0
    2.7022    2.2236    4.2378 H   0  0  0  0  0  0  0  0  0  0  0  0
    1.5317    3.1132    3.2741 H   0  0  0  0  0  0  0  0  0  0  0  0
    0.9695    1.9284    4.4789 H   0  0  0  0  0  0  0  0  0  0  0  0
   -0.8356    0.2625    0.0477 H   0  0  0  0  0  0  0  0  0  0  0  0
   -2.6839    3.2741    1.2537 H   0  0  0  0  0  0  0  0  0  0  0  0
   -4.8536    3.9608    0.4185 H   0  0  0  0  0  0  0  0  0  0  0  0
   -6.0053    2.6662   -1.3361 H   0  0  0  0  0  0  0  0  0  0  0  0
   -1.5326   -0.6125   -1.5044 H   0  0  0  0  0  0  0  0  0  0  0  0
   -3.1202   -1.3212   -1.2445 H   0  0  0  0  0  0  0  0  0  0  0  0
   -2.5834   -1.4836   -3.5980 H   0  0  0  0  0  0  0  0  0  0  0  0
   -2.0288    0.1750   -3.6682 H   0  0  0  0  0  0  0  0  0  0  0  0
   -4.0213    0.8544   -4.3579 H   0  0  0  0  0  0  0  0  0  0  0  0
   -4.6306   -0.7860   -4.3119 H   0  0  0  0  0  0  0  0  0  0  0  0
   -5.5215   -0.5102   -2.0825 H   0  0  0  0  0  0  0  0  0  0  0  0
   -5.9679    0.9309   -2.9955 H   0  0  0  0  0  0  0  0  0  0  0  0
    4.1348   -1.3355    0.6698 H   0  0  0  0  0  0  0  0  0  0  0  0
    2.8074   -2.5062    0.8907 H   0  0  0  0  0  0  0  0  0  0  0  0
    2.9587   -0.3905   -1.3479 H   0  0  0  0  0  0  0  0  0  0  0  0
    1.6881   -1.5968   -1.1760 H   0  0  0  0  0  0  0  0  0  0  0  0
    4.6372   -2.2127   -1.7611 H   0  0  0  0  0  0  0  0  0  0  0  0
    3.3507   -3.4371   -1.5528 H   0  0  0  0  0  0  0  0  0  0  0  0
    3.7280   -2.9189   -3.8581 H   0  0  0  0  0  0  0  0  0  0  0  0
    2.1997   -2.4577   -3.4403 H   0  0  0  0  0  0  0  0  0  0  0  0
    3.3862   -1.3187   -3.6364 H   0  0  0  0  0  0  0  0  0  0  0  0
    4.6060    0.4895    3.3570 H   0  0  0  0  0  0  0  0  0  0  0  0
    4.3707   -1.2275    2.9540 H   0  0  0  0  0  0  0  0  0  0  0  0
    4.2766   -0.9256    5.2854 H   0  0  0  0  0  0  0  0  0  0  0  0
    2.7518   -1.3366    4.7614 H   0  0  0  0  0  0  0  0  0  0  0  0
    3.0937    0.2200    5.1715 H   0  0  0  0  0  0  0  0  0  0  0  0
  1  2  1  0
  2  3  1  0
  3  4  1  0
  4  5  2  0
  4  6  1  0
  6  7  1  0
  7  8  1  0
  8  9  2  0
  9 10  1  0
 10 11  2  0
 11 12  1  0
 12 13  1  0
 13 14  1  0
 14 15  1  0
 15 16  1  0
  3 17  2  0
 17 18  1  0
 18 19  1  0
 19 20  1  0
 20 21  1  0
 21 22  1  0
 18 23  1  0
 23 24  1  0
 24 25  1  0
 23  2  2  0
 12  7  2  0
 16 11  1  0
  1 26  1  0
  1 27  1  0
  1 28  1  0
  6 29  1  0
  8 30  1  0
  9 31  1  0
 10 32  1  0
 13 33  1  0
 13 34  1  0
 14 35  1  0
 14 36  1  0
 15 37  1  0
 15 38  1  0
 16 39  1  0
 16 40  1  0
 19 41  1  0
 19 42  1  0
 20 43  1  0
 20 44  1  0
 21 45  1  0
 21 46  1  0
 22 47  1  0
 22 48  1  0
 22 49  1  0
 24 50  1  0
 24 51  1  0
 25 52  1  0
 25 53  1  0
 25 54  1  0
M  CHG  2  22   1  25   1
M  END
>  <_SMILES>  (114) 
Cc1c(C(=O)Nc2cccc3c2CCCC3)nn(CCC[NH3+])c1C[NH3+]

$$$$

     RDKit          3D

 52 55  0  0  0  0  0  0  0  0999 V2000
   -2.7380   -0.8368   -2.3259 O   0  0  0  0  0  0  0  0  0  0  0  0
   -2.9910   -0.8746   -1.1201 C   0  0  0  0  0  0  0  0  0  0  0  0
   -1.9204   -1.1608   -0.1408 C   0  0  0  0  0  0  0  0  0  0  0  0
   -2.0862   -2.0348    0.8773 N   0  0  0  0  0  0  0  0  0  0  0  0
   -0.8888   -2.0656    1.4833 N   0  0  0  0  0  0  0  0  0  0  0  0
    0.0390   -1.2389    0.9278 C   0  0  0  0  0  0  0  0  0  0  0  0
    1.3709   -1.1098    1.4020 C   0  0  0  0  0  0  0  0  0  0  0  0
    2.5046   -0.9905    1.7786 C   0  0  0  0  0  0  0  0  0  0  0  0
    3.9095   -0.8280    2.2080 C   0  0  0  0  0  0  0  0  0  0  0  0
    4.8799   -1.3737    1.1443 C   0  0  0  0  0  0  0  0  0  0  0  0
    5.5075   -0.2963    0.2531 C   0  0  0  0  0  0  0  0  0  0  0  0
    4.5654    0.8734    0.0124 C   0  0  0  0  0  0  0  0  0  0  0  0
    4.1654    1.5605    1.3183 C   0  0  0  0  0  0  0  0  0  0  0  0
    4.2074    0.6372    2.5411 C   0  0  0  0  0  0  0  0  0  0  0  0
   -0.5883   -0.6336   -0.1426 C   0  0  0  0  0  0  0  0  0  0  0  0
    0.0464    0.3335   -1.0184 C   0  0  0  0  0  0  0  0  0  0  0  0
    0.2696    0.0297   -2.3650 C   0  0  0  0  0  0  0  0  0  0  0  0
    0.8884    0.9599   -3.2031 C   0  0  0  0  0  0  0  0  0  0  0  0
    1.2880    2.1972   -2.7001 C   0  0  0  0  0  0  0  0  0  0  0  0
    1.0673    2.5082   -1.3594 C   0  0  0  0  0  0  0  0  0  0  0  0
    0.4477    1.5798   -0.5201 C   0  0  0  0  0  0  0  0  0  0  0  0
   -4.2952   -0.6443   -0.6548 N   0  0  0  0  0  0  0  0  0  0  0  0
   -5.3857   -0.7497   -1.6244 C   0  0  0  0  0  0  0  0  0  0  0  0
   -6.5982    0.0895   -1.2200 C   0  0  0  0  0  0  0  0  0  0  0  0
   -7.0181   -0.2208    0.1160 O   0  0  0  0  0  0  0  0  0  0  0  0
   -5.9642    0.0715    1.0423 C   0  0  0  0  0  0  0  0  0  0  0  0
   -4.7066   -0.7542    0.7484 C   0  0  0  0  0  0  0  0  0  0  0  0
   -0.7654   -2.6807    2.2799 H   0  0  0  0  0  0  0  0  0  0  0  0
    4.0375   -1.4239    3.1212 H   0  0  0  0  0  0  0  0  0  0  0  0
    4.3816   -2.1216    0.5137 H   0  0  0  0  0  0  0  0  0  0  0  0
    5.6984   -1.9061    1.6461 H   0  0  0  0  0  0  0  0  0  0  0  0
    6.4262    0.0745    0.7255 H   0  0  0  0  0  0  0  0  0  0  0  0
    5.8089   -0.7421   -0.7017 H   0  0  0  0  0  0  0  0  0  0  0  0
    3.6678    0.5119   -0.5039 H   0  0  0  0  0  0  0  0  0  0  0  0
    5.0314    1.6043   -0.6583 H   0  0  0  0  0  0  0  0  0  0  0  0
    4.8300    2.4132    1.5042 H   0  0  0  0  0  0  0  0  0  0  0  0
    3.1603    1.9834    1.2036 H   0  0  0  0  0  0  0  0  0  0  0  0
    5.2097    0.6942    2.9866 H   0  0  0  0  0  0  0  0  0  0  0  0
    3.5140    1.0149    3.3030 H   0  0  0  0  0  0  0  0  0  0  0  0
   -0.0418   -0.9294   -2.7736 H   0  0  0  0  0  0  0  0  0  0  0  0
    1.0531    0.7174   -4.2496 H   0  0  0  0  0  0  0  0  0  0  0  0
    1.7685    2.9195   -3.3546 H   0  0  0  0  0  0  0  0  0  0  0  0
    1.3783    3.4723   -0.9663 H   0  0  0  0  0  0  0  0  0  0  0  0
    0.2838    1.8345    0.5241 H   0  0  0  0  0  0  0  0  0  0  0  0
   -5.6641   -1.8101   -1.6579 H   0  0  0  0  0  0  0  0  0  0  0  0
   -5.0519   -0.4595   -2.6256 H   0  0  0  0  0  0  0  0  0  0  0  0
   -7.4374   -0.1179   -1.8913 H   0  0  0  0  0  0  0  0  0  0  0  0
   -6.3751    1.1611   -1.2849 H   0  0  0  0  0  0  0  0  0  0  0  0
   -6.3300   -0.1525    2.0494 H   0  0  0  0  0  0  0  0  0  0  0  0
   -5.7437    1.1451    1.0008 H   0  0  0  0  0  0  0  0  0  0  0  0
   -3.9092   -0.4156    1.4146 H   0  0  0  0  0  0  0  0  0  0  0  0
   -4.9072   -1.8152    0.9365 H   0  0  0  0  0  0  0  0  0  0  0  0
  1  2  2  0
  2  3  1  0
  3  4  2  0
  4  5  1  0
  5  6  1  0
  6  7  1  0
  7  8  3  0
  8  9  1  0
  9 10  1  0
 10 11  1  0
 11 12  1  0
 12 13  1  0
 13 14  1  0
  6 15  2  0
 15 16  1  0
 16 17  2  0
 17 18  1  0
 18 19  2  0
 19 20  1  0
 20 21  2  0
  2 22  1  0
 22 23  1  0
 23 24  1  0
 24 25  1  0
 25 26  1  0
 26 27  1  0
 15  3  1  0
 21 16  1  0
 27 22  1  0
 14  9  1  0
  5 28  1  0
  9 29  1  0
 10 30  1  0
 10 31  1  0
 11 32  1  0
 11 33  1  0
 12 34  1  0
 12 35  1  0
 13 36  1  0
 13 37  1  0
 14 38  1  0
 14 39  1  0
 17 40  1  0
 18 41  1  0
 19 42  1  0
 20 43  1  0
 21 44  1  0
 23 45  1  0
 23 46  1  0
 24 47  1  0
 24 48  1  0
 26 49  1  0
 26 50  1  0
 27 51  1  0
 27 52  1  0
M  END
>  <_SMILES>  (115) 
O=C(c1n[nH]c(C#CC2CCCCC2)c1-c1ccccc1)N1CCOCC1

$$$$

     RDKit          3D

 52 55  0  0  0  0  0  0  0  0999 V2000
   -2.9400   -3.8240   -1.1197 O   0  0  0  0  0  0  0  0  0  0  0  0
   -2.7395   -2.6588   -0.7815 C   0  0  0  0  0  0  0  0  0  0  0  0
   -1.6917   -2.3525    0.1552 C   0  0  0  0  0  0  0  0  0  0  0  0
   -1.5735   -3.0372    1.3360 N   0  0  0  0  0  0  0  0  0  0  0  0
   -0.5719   -2.6122    2.1225 N   0  0  0  0  0  0  0  0  0  0  0  0
    0.0479   -1.7071    1.3629 C   0  0  0  0  0  0  0  0  0  0  0  0
    1.2312   -1.0972    1.8721 C   0  0  0  0  0  0  0  0  0  0  0  0
    2.2293   -0.5599    2.2704 C   0  0  0  0  0  0  0  0  0  0  0  0
    3.4573    0.1128    2.7357 C   0  0  0  0  0  0  0  0  0  0  0  0
    4.3446    0.5075    1.5399 C   0  0  0  0  0  0  0  0  0  0  0  0
    4.0704    1.9329    1.0702 C   0  0  0  0  0  0  0  0  0  0  0  0
    4.3436    2.9578    2.1730 C   0  0  0  0  0  0  0  0  0  0  0  0
    4.1591    2.3993    3.5850 C   0  0  0  0  0  0  0  0  0  0  0  0
    3.0898    1.3147    3.6257 C   0  0  0  0  0  0  0  0  0  0  0  0
   -0.5854   -1.5124    0.1098 C   0  0  0  0  0  0  0  0  0  0  0  0
   -0.2038   -0.6737   -1.0161 C   0  0  0  0  0  0  0  0  0  0  0  0
   -0.1701   -1.1919   -2.3176 C   0  0  0  0  0  0  0  0  0  0  0  0
    0.1851   -0.3765   -3.3946 C   0  0  0  0  0  0  0  0  0  0  0  0
    0.5153    0.9602   -3.1798 C   0  0  0  0  0  0  0  0  0  0  0  0
    0.4946    1.4832   -1.8886 C   0  0  0  0  0  0  0  0  0  0  0  0
    0.1382    0.6700   -0.8106 C   0  0  0  0  0  0  0  0  0  0  0  0
   -3.5271   -1.6238   -1.2690 N   0  0  0  0  0  0  0  0  0  0  0  0
   -3.6149   -0.2653   -0.7215 C   0  0  0  0  0  0  0  0  0  0  0  0
   -3.9051    0.7381   -1.8406 C   0  0  0  0  0  0  0  0  0  0  0  0
   -5.1262    0.4748   -2.5495 O   0  0  0  0  0  0  0  0  0  0  0  0
   -5.5885   -0.8780   -2.4392 C   0  0  0  0  0  0  0  0  0  0  0  0
   -4.4555   -1.9057   -2.3663 C   0  0  0  0  0  0  0  0  0  0  0  0
   -2.1652   -3.7931    1.6664 H   0  0  0  0  0  0  0  0  0  0  0  0
    4.0239   -0.6083    3.3396 H   0  0  0  0  0  0  0  0  0  0  0  0
    5.3984    0.4404    1.8415 H   0  0  0  0  0  0  0  0  0  0  0  0
    4.2194   -0.1913    0.7036 H   0  0  0  0  0  0  0  0  0  0  0  0
    3.0246    2.0140    0.7484 H   0  0  0  0  0  0  0  0  0  0  0  0
    4.6837    2.1673    0.1927 H   0  0  0  0  0  0  0  0  0  0  0  0
    5.3668    3.3414    2.0786 H   0  0  0  0  0  0  0  0  0  0  0  0
    3.6806    3.8187    2.0240 H   0  0  0  0  0  0  0  0  0  0  0  0
    3.9011    3.2137    4.2714 H   0  0  0  0  0  0  0  0  0  0  0  0
    5.1097    1.9819    3.9401 H   0  0  0  0  0  0  0  0  0  0  0  0
    2.9452    0.9724    4.6580 H   0  0  0  0  0  0  0  0  0  0  0  0
    2.1323    1.7551    3.3154 H   0  0  0  0  0  0  0  0  0  0  0  0
   -0.4087   -2.2364   -2.5074 H   0  0  0  0  0  0  0  0  0  0  0  0
    0.2095   -0.7882   -4.4005 H   0  0  0  0  0  0  0  0  0  0  0  0
    0.7952    1.5924   -4.0189 H   0  0  0  0  0  0  0  0  0  0  0  0
    0.7587    2.5241   -1.7194 H   0  0  0  0  0  0  0  0  0  0  0  0
    0.1236    1.1006    0.1883 H   0  0  0  0  0  0  0  0  0  0  0  0
   -2.7246    0.0206   -0.1653 H   0  0  0  0  0  0  0  0  0  0  0  0
   -4.4453   -0.2779   -0.0049 H   0  0  0  0  0  0  0  0  0  0  0  0
   -3.9744    1.7516   -1.4335 H   0  0  0  0  0  0  0  0  0  0  0  0
   -3.0929    0.7328   -2.5763 H   0  0  0  0  0  0  0  0  0  0  0  0
   -6.2273   -1.0806   -3.3047 H   0  0  0  0  0  0  0  0  0  0  0  0
   -6.2212   -0.9428   -1.5462 H   0  0  0  0  0  0  0  0  0  0  0  0
   -4.8664   -2.9158   -2.2685 H   0  0  0  0  0  0  0  0  0  0  0  0
   -3.8600   -1.8678   -3.2862 H   0  0  0  0  0  0  0  0  0  0  0  0
  1  2  2  0
  2  3  1  0
  3  4  1  0
  4  5  1  0
  5  6  2  0
  6  7  1  0
  7  8  3  0
  8  9  1  0
  9 10  1  0
 10 11  1  0
 11 12  1  0
 12 13  1  0
 13 14  1  0
  6 15  1  0
 15 16  1  0
 16 17  2  0
 17 18  1  0
 18 19  2  0
 19 20  1  0
 20 21  2  0
  2 22  1  0
 22 23  1  0
 23 24  1  0
 24 25  1  0
 25 26  1  0
 26 27  1  0
 15  3  2  0
 21 16  1  0
 27 22  1  0
 14  9  1  0
  4 28  1  0
  9 29  1  0
 10 30  1  0
 10 31  1  0
 11 32  1  0
 11 33  1  0
 12 34  1  0
 12 35  1  0
 13 36  1  0
 13 37  1  0
 14 38  1  0
 14 39  1  0
 17 40  1  0
 18 41  1  0
 19 42  1  0
 20 43  1  0
 21 44  1  0
 23 45  1  0
 23 46  1  0
 24 47  1  0
 24 48  1  0
 26 49  1  0
 26 50  1  0
 27 51  1  0
 27 52  1  0
M  END
>  <_SMILES>  (116) 
O=C(c1[nH]nc(C#CC2CCCCC2)c1-c1ccccc1)N1CCOCC1

$$$$

     RDKit          3D

 56 60  0  0  0  0  0  0  0  0999 V2000
   -0.9019   -4.8381    1.4359 C   0  0  0  0  0  0  0  0  0  0  0  0
    0.2730   -3.9301    1.2202 C   0  0  0  0  0  0  0  0  0  0  0  0
    1.5687   -4.4413    1.3789 C   0  0  0  0  0  0  0  0  0  0  0  0
    2.6757   -3.6220    1.1825 C   0  0  0  0  0  0  0  0  0  0  0  0
    2.4598   -2.2981    0.8310 C   0  0  0  0  0  0  0  0  0  0  0  0
    3.6319   -1.3852    0.6221 C   0  0  0  0  0  0  0  0  0  0  0  0
    4.7755   -1.8137    0.7338 O   0  0  0  0  0  0  0  0  0  0  0  0
    3.2589   -0.0803    0.3296 N   0  0  0  0  0  0  0  0  0  0  0  0
    4.0786    1.0115    0.2370 N   0  0  0  0  0  0  0  0  0  0  0  0
    5.3036    0.8386   -0.1289 C   0  0  0  0  0  0  0  0  0  0  0  0
    6.1627    2.0424   -0.1683 C   0  0  0  0  0  0  0  0  0  0  0  0
    7.1910    2.1971   -1.2623 C   0  0  0  0  0  0  0  0  0  0  0  0
    5.9698    3.0687   -1.2580 C   0  0  0  0  0  0  0  0  0  0  0  0
    1.2252   -1.7505    0.6640 N   0  0  0  0  0  0  0  0  0  0  0  0
    0.1527   -2.5806    0.8623 C   0  0  0  0  0  0  0  0  0  0  0  0
   -1.1893   -1.9080    0.6527 C   0  0  0  0  0  0  0  0  0  0  0  0
   -2.2514   -2.4787    0.8581 O   0  0  0  0  0  0  0  0  0  0  0  0
   -1.0916   -0.6034    0.2091 N   0  0  0  0  0  0  0  0  0  0  0  0
   -2.2114    0.2885   -0.0923 C   0  0  2  0  0  0  0  0  0  0  0  0
   -3.0936   -0.2697   -1.2361 C   0  0  0  0  0  0  0  0  0  0  0  0
   -4.2334    0.7099   -1.5672 C   0  0  1  0  0  0  0  0  0  0  0  0
   -5.0934    0.9293   -0.3108 C   0  0  0  0  0  0  0  0  0  0  0  0
   -4.2352    1.5175    0.8224 C   0  0  2  0  0  0  0  0  0  0  0  0
   -3.6372    2.8564    0.3627 C   0  0  0  0  0  0  0  0  0  0  0  0
   -2.7697    2.6419   -0.8875 C   0  0  2  0  0  0  0  0  0  0  0  0
   -3.6352    2.0536   -2.0129 C   0  0  0  0  0  0  0  0  0  0  0  0
   -1.6392    1.6559   -0.5533 C   0  0  0  0  0  0  0  0  0  0  0  0
   -3.0954    0.5383    1.1547 C   0  0  0  0  0  0  0  0  0  0  0  0
   -1.5145   -4.4825    2.2703 H   0  0  0  0  0  0  0  0  0  0  0  0
   -0.5796   -5.8553    1.6850 H   0  0  0  0  0  0  0  0  0  0  0  0
   -1.5063   -4.9090    0.5262 H   0  0  0  0  0  0  0  0  0  0  0  0
    1.7236   -5.4824    1.6570 H   0  0  0  0  0  0  0  0  0  0  0  0
    3.6824   -4.0109    1.3054 H   0  0  0  0  0  0  0  0  0  0  0  0
    2.2737    0.1407    0.4562 H   0  0  0  0  0  0  0  0  0  0  0  0
    5.7611   -0.1171   -0.4282 H   0  0  0  0  0  0  0  0  0  0  0  0
    6.4340    2.4181    0.8135 H   0  0  0  0  0  0  0  0  0  0  0  0
    7.2613    1.4297   -2.0249 H   0  0  0  0  0  0  0  0  0  0  0  0
    8.1405    2.6511   -1.0026 H   0  0  0  0  0  0  0  0  0  0  0  0
    5.2057    2.8854   -2.0053 H   0  0  0  0  0  0  0  0  0  0  0  0
    6.0852    4.1128   -0.9908 H   0  0  0  0  0  0  0  0  0  0  0  0
   -0.1454   -0.2696    0.0594 H   0  0  0  0  0  0  0  0  0  0  0  0
   -3.5246   -1.2394   -0.9604 H   0  0  0  0  0  0  0  0  0  0  0  0
   -2.4830   -0.4486   -2.1308 H   0  0  0  0  0  0  0  0  0  0  0  0
   -4.8526    0.2969   -2.3713 H   0  0  0  0  0  0  0  0  0  0  0  0
   -5.9244    1.6075   -0.5406 H   0  0  0  0  0  0  0  0  0  0  0  0
   -5.5375   -0.0210    0.0101 H   0  0  0  0  0  0  0  0  0  0  0  0
   -4.8557    1.6764    1.7114 H   0  0  0  0  0  0  0  0  0  0  0  0
   -3.0336    3.2936    1.1676 H   0  0  0  0  0  0  0  0  0  0  0  0
   -4.4406    3.5703    0.1435 H   0  0  0  0  0  0  0  0  0  0  0  0
   -2.3435    3.5983   -1.2103 H   0  0  0  0  0  0  0  0  0  0  0  0
   -3.0302    1.9132   -2.9171 H   0  0  0  0  0  0  0  0  0  0  0  0
   -4.4386    2.7538   -2.2729 H   0  0  0  0  0  0  0  0  0  0  0  0
   -0.9976    2.0801    0.2308 H   0  0  0  0  0  0  0  0  0  0  0  0
   -0.9962    1.5186   -1.4331 H   0  0  0  0  0  0  0  0  0  0  0  0
   -2.4859    0.9390    1.9753 H   0  0  0  0  0  0  0  0  0  0  0  0
   -3.5271   -0.3996    1.5234 H   0  0  0  0  0  0  0  0  0  0  0  0
  1  2  1  0
  2  3  1  0
  3  4  2  0
  4  5  1  0
  5  6  1  0
  6  7  2  0
  6  8  1  0
  8  9  1  0
  9 10  2  0
 10 11  1  0
 11 12  1  0
 12 13  1  0
  5 14  2  0
 14 15  1  0
 15 16  1  0
 16 17  2  0
 16 18  1  0
 19 18  1  1
 19 20  1  0
 20 21  1  0
 21 22  1  0
 22 23  1  0
 23 24  1  0
 24 25  1  0
 25 26  1  0
 25 27  1  0
 23 28  1  0
 15  2  2  0
 27 19  1  0
 13 11  1  0
 28 19  1  0
 26 21  1  0
  1 29  1  0
  1 30  1  0
  1 31  1  0
  3 32  1  0
  4 33  1  0
  8 34  1  0
 10 35  1  0
 11 36  1  0
 12 37  1  0
 12 38  1  0
 13 39  1  0
 13 40  1  0
 18 41  1  0
 20 42  1  0
 20 43  1  0
 21 44  1  6
 22 45  1  0
 22 46  1  0
 23 47  1  1
 24 48  1  0
 24 49  1  0
 25 50  1  6
 26 51  1  0
 26 52  1  0
 27 53  1  0
 27 54  1  0
 28 55  1  0
 28 56  1  0
M  END
>  <_SMILES>  (117) 
Cc1ccc(C(=O)N/N=C/C2CC2)nc1C(=O)N[C@]12C[C@H]3C[C@H](C[C@H](C3)C1)C2

$$$$

     RDKit          3D

 56 60  0  0  0  0  0  0  0  0999 V2000
    0.9161   -3.5968    3.3118 C   0  0  0  0  0  0  0  0  0  0  0  0
    1.5655   -3.2553    2.0033 C   0  0  0  0  0  0  0  0  0  0  0  0
    2.7022   -3.9680    1.5963 C   0  0  0  0  0  0  0  0  0  0  0  0
    3.3218   -3.6704    0.3866 C   0  0  0  0  0  0  0  0  0  0  0  0
    2.7854   -2.6579   -0.3937 C   0  0  0  0  0  0  0  0  0  0  0  0
    3.4464   -2.2930   -1.6854 C   0  0  0  0  0  0  0  0  0  0  0  0
    4.4403   -2.8847   -2.0981 O   0  0  0  0  0  0  0  0  0  0  0  0
    2.8497   -1.2328   -2.3442 N   0  0  0  0  0  0  0  0  0  0  0  0
    3.5568   -0.6294   -3.3863 N   0  0  0  0  0  0  0  0  0  0  0  0
    3.9354    0.6918   -3.3160 C   0  0  0  0  0  0  0  0  0  0  0  0
    3.4641    1.6588   -2.5568 C   0  0  0  0  0  0  0  0  0  0  0  0
    3.5658    3.0216   -2.2122 C   0  0  0  0  0  0  0  0  0  0  0  0
    2.5414    2.0351   -1.5599 C   0  0  0  0  0  0  0  0  0  0  0  0
    1.6840   -1.9381   -0.0492 N   0  0  0  0  0  0  0  0  0  0  0  0
    1.0967   -2.2497    1.1479 C   0  0  0  0  0  0  0  0  0  0  0  0
   -0.1182   -1.4042    1.4679 C   0  0  0  0  0  0  0  0  0  0  0  0
   -0.6678   -1.4281    2.5602 O   0  0  0  0  0  0  0  0  0  0  0  0
   -0.5321   -0.6125    0.4138 N   0  0  0  0  0  0  0  0  0  0  0  0
   -1.6572    0.3220    0.4311 C   0  0  2  0  0  0  0  0  0  0  0  0
   -1.4434    1.4475    1.4728 C   0  0  0  0  0  0  0  0  0  0  0  0
   -2.6134    2.4465    1.4373 C   0  0  1  0  0  0  0  0  0  0  0  0
   -2.7015    3.0759    0.0380 C   0  0  0  0  0  0  0  0  0  0  0  0
   -2.9351    1.9821   -1.0159 C   0  0  2  0  0  0  0  0  0  0  0  0
   -4.2458    1.2441   -0.7022 C   0  0  0  0  0  0  0  0  0  0  0  0
   -4.1662    0.6035    0.6924 C   0  0  2  0  0  0  0  0  0  0  0  0
   -3.9244    1.7018    1.7421 C   0  0  0  0  0  0  0  0  0  0  0  0
   -2.9969   -0.3966    0.7274 C   0  0  0  0  0  0  0  0  0  0  0  0
   -1.7699    0.9811   -0.9695 C   0  0  0  0  0  0  0  0  0  0  0  0
    0.9887   -2.7552    4.0076 H   0  0  0  0  0  0  0  0  0  0  0  0
   -0.1323   -3.8732    3.1618 H   0  0  0  0  0  0  0  0  0  0  0  0
    1.4058   -4.4534    3.7884 H   0  0  0  0  0  0  0  0  0  0  0  0
    3.1133   -4.7593    2.2209 H   0  0  0  0  0  0  0  0  0  0  0  0
    4.2061   -4.2134    0.0660 H   0  0  0  0  0  0  0  0  0  0  0  0
    2.1461   -0.6748   -1.8699 H   0  0  0  0  0  0  0  0  0  0  0  0
    4.2956   -1.2452   -3.7492 H   0  0  0  0  0  0  0  0  0  0  0  0
    4.7384    0.9154   -4.0149 H   0  0  0  0  0  0  0  0  0  0  0  0
    3.1959    3.7400   -2.9304 H   0  0  0  0  0  0  0  0  0  0  0  0
    4.4273    3.3200   -1.6313 H   0  0  0  0  0  0  0  0  0  0  0  0
    1.5049    2.1158   -1.8542 H   0  0  0  0  0  0  0  0  0  0  0  0
    2.7353    1.6934   -0.5528 H   0  0  0  0  0  0  0  0  0  0  0  0
    0.0271   -0.6948   -0.4293 H   0  0  0  0  0  0  0  0  0  0  0  0
   -0.4990    1.9711    1.2741 H   0  0  0  0  0  0  0  0  0  0  0  0
   -1.3570    1.0328    2.4842 H   0  0  0  0  0  0  0  0  0  0  0  0
   -2.4514    3.2308    2.1851 H   0  0  0  0  0  0  0  0  0  0  0  0
   -3.5186    3.8072    0.0066 H   0  0  0  0  0  0  0  0  0  0  0  0
   -1.7769    3.6218   -0.1865 H   0  0  0  0  0  0  0  0  0  0  0  0
   -2.9948    2.4349   -2.0118 H   0  0  0  0  0  0  0  0  0  0  0  0
   -5.0896    1.9436   -0.7460 H   0  0  0  0  0  0  0  0  0  0  0  0
   -4.4324    0.4724   -1.4592 H   0  0  0  0  0  0  0  0  0  0  0  0
   -5.1043    0.0818    0.9128 H   0  0  0  0  0  0  0  0  0  0  0  0
   -4.7637    2.4082    1.7438 H   0  0  0  0  0  0  0  0  0  0  0  0
   -3.8794    1.2587    2.7445 H   0  0  0  0  0  0  0  0  0  0  0  0
   -2.9732   -0.8819    1.7100 H   0  0  0  0  0  0  0  0  0  0  0  0
   -3.1666   -1.1960   -0.0058 H   0  0  0  0  0  0  0  0  0  0  0  0
   -1.9124    0.2106   -1.7391 H   0  0  0  0  0  0  0  0  0  0  0  0
   -0.8329    1.4945   -1.2211 H   0  0  0  0  0  0  0  0  0  0  0  0
  1  2  1  0
  2  3  1  0
  3  4  2  0
  4  5  1  0
  5  6  1  0
  6  7  2  0
  6  8  1  0
  8  9  1  0
  9 10  1  0
 10 11  2  3
 11 12  1  0
 12 13  1  0
  5 14  2  0
 14 15  1  0
 15 16  1  0
 16 17  2  0
 16 18  1  0
 19 18  1  6
 19 20  1  0
 20 21  1  0
 21 22  1  0
 22 23  1  0
 23 24  1  0
 24 25  1  0
 25 26  1  0
 25 27  1  0
 23 28  1  0
 15  2  2  0
 27 19  1  0
 13 11  1  0
 28 19  1  0
 26 21  1  0
  1 29  1  0
  1 30  1  0
  1 31  1  0
  3 32  1  0
  4 33  1  0
  8 34  1  0
  9 35  1  0
 10 36  1  0
 12 37  1  0
 12 38  1  0
 13 39  1  0
 13 40  1  0
 18 41  1  0
 20 42  1  0
 20 43  1  0
 21 44  1  1
 22 45  1  0
 22 46  1  0
 23 47  1  6
 24 48  1  0
 24 49  1  0
 25 50  1  1
 26 51  1  0
 26 52  1  0
 27 53  1  0
 27 54  1  0
 28 55  1  0
 28 56  1  0
M  END
>  <_SMILES>  (118) 
Cc1ccc(C(=O)NNC=C2CC2)nc1C(=O)N[C@]12C[C@H]3C[C@H](C[C@H](C3)C1)C2

$$$$

     RDKit          3D

 56 60  0  0  0  0  0  0  0  0999 V2000
    0.1234    3.7659   -3.4481 C   0  0  0  0  0  0  0  0  0  0  0  0
    1.1924    3.2645   -2.5227 C   0  0  0  0  0  0  0  0  0  0  0  0
    2.4569    3.8700   -2.5420 C   0  0  0  0  0  0  0  0  0  0  0  0
    3.4627    3.4240   -1.6897 C   0  0  0  0  0  0  0  0  0  0  0  0
    3.1788    2.3703   -0.8352 C   0  0  0  0  0  0  0  0  0  0  0  0
    4.2455    1.8360    0.0703 C   0  0  0  0  0  0  0  0  0  0  0  0
    5.3274    2.4039    0.1683 O   0  0  0  0  0  0  0  0  0  0  0  0
    3.8618    0.6765    0.7214 N   0  0  0  0  0  0  0  0  0  0  0  0
    4.7171    0.0141    1.5456 N   0  0  0  0  0  0  0  0  0  0  0  0
    4.3191   -1.1005    2.0736 C   0  0  0  0  0  0  0  0  0  0  0  0
    2.9827   -1.6971    1.8373 C   0  0  0  0  0  0  0  0  0  0  0  0
    2.6773   -2.3702    0.5197 C   0  0  0  0  0  0  0  0  0  0  0  0
    2.8411   -3.1982    1.7589 C   0  0  0  0  0  0  0  0  0  0  0  0
    1.9676    1.7506   -0.7705 N   0  0  0  0  0  0  0  0  0  0  0  0
    0.9985    2.2106   -1.6211 C   0  0  0  0  0  0  0  0  0  0  0  0
   -0.3200    1.4796   -1.4894 C   0  0  0  0  0  0  0  0  0  0  0  0
   -1.2104    1.5744   -2.3222 O   0  0  0  0  0  0  0  0  0  0  0  0
   -0.4085    0.7058   -0.3473 N   0  0  0  0  0  0  0  0  0  0  0  0
   -1.5500   -0.1218    0.0423 C   0  0  2  0  0  0  0  0  0  0  0  0
   -1.2306   -0.7881    1.4075 C   0  0  0  0  0  0  0  0  0  0  0  0
   -2.3923   -1.6807    1.8711 C   0  0  1  0  0  0  0  0  0  0  0  0
   -3.6589   -0.8233    2.0168 C   0  0  0  0  0  0  0  0  0  0  0  0
   -4.0091   -0.1721    0.6696 C   0  0  2  0  0  0  0  0  0  0  0  0
   -4.2446   -1.2723   -0.3795 C   0  0  0  0  0  0  0  0  0  0  0  0
   -2.9813   -2.1364   -0.5336 C   0  0  2  0  0  0  0  0  0  0  0  0
   -2.6358   -2.7756    0.8207 C   0  0  0  0  0  0  0  0  0  0  0  0
   -1.8115   -1.2464   -0.9891 C   0  0  0  0  0  0  0  0  0  0  0  0
   -2.8393    0.7190    0.2152 C   0  0  0  0  0  0  0  0  0  0  0  0
   -0.7661    4.0648   -2.8846 H   0  0  0  0  0  0  0  0  0  0  0  0
   -0.1372    2.9988   -4.1838 H   0  0  0  0  0  0  0  0  0  0  0  0
    0.4593    4.6483   -4.0039 H   0  0  0  0  0  0  0  0  0  0  0  0
    2.6670    4.6937   -3.2222 H   0  0  0  0  0  0  0  0  0  0  0  0
    4.4473    3.8829   -1.7005 H   0  0  0  0  0  0  0  0  0  0  0  0
    2.9499    0.2910    0.4977 H   0  0  0  0  0  0  0  0  0  0  0  0
    5.0047   -1.6420    2.7462 H   0  0  0  0  0  0  0  0  0  0  0  0
    2.1725   -1.1701    2.3321 H   0  0  0  0  0  0  0  0  0  0  0  0
    1.6808   -2.2646    0.1066 H   0  0  0  0  0  0  0  0  0  0  0  0
    3.4608   -2.4196   -0.2298 H   0  0  0  0  0  0  0  0  0  0  0  0
    3.7302   -3.8141    1.8398 H   0  0  0  0  0  0  0  0  0  0  0  0
    1.9535   -3.6479    2.1902 H   0  0  0  0  0  0  0  0  0  0  0  0
    0.4115    0.7285    0.2497 H   0  0  0  0  0  0  0  0  0  0  0  0
   -1.0285   -0.0190    2.1650 H   0  0  0  0  0  0  0  0  0  0  0  0
   -0.3150   -1.3880    1.3302 H   0  0  0  0  0  0  0  0  0  0  0  0
   -2.1442   -2.1407    2.8341 H   0  0  0  0  0  0  0  0  0  0  0  0
   -3.5025   -0.0491    2.7780 H   0  0  0  0  0  0  0  0  0  0  0  0
   -4.4946   -1.4445    2.3616 H   0  0  0  0  0  0  0  0  0  0  0  0
   -4.9148    0.4352    0.7778 H   0  0  0  0  0  0  0  0  0  0  0  0
   -5.0923   -1.9002   -0.0786 H   0  0  0  0  0  0  0  0  0  0  0  0
   -4.5095   -0.8205   -1.3433 H   0  0  0  0  0  0  0  0  0  0  0  0
   -3.1588   -2.9212   -1.2775 H   0  0  0  0  0  0  0  0  0  0  0  0
   -1.7430   -3.4052    0.7213 H   0  0  0  0  0  0  0  0  0  0  0  0
   -3.4533   -3.4311    1.1452 H   0  0  0  0  0  0  0  0  0  0  0  0
   -0.9077   -1.8559   -1.1202 H   0  0  0  0  0  0  0  0  0  0  0  0
   -2.0433   -0.8260   -1.9750 H   0  0  0  0  0  0  0  0  0  0  0  0
   -3.1139    1.2145   -0.7232 H   0  0  0  0  0  0  0  0  0  0  0  0
   -2.6725    1.5196    0.9477 H   0  0  0  0  0  0  0  0  0  0  0  0
  1  2  1  0
  2  3  1  0
  3  4  2  0
  4  5  1  0
  5  6  1  0
  6  7  2  0
  6  8  1  0
  8  9  1  0
  9 10  2  0
 10 11  1  0
 11 12  1  0
 12 13  1  0
  5 14  2  0
 14 15  1  0
 15 16  1  0
 16 17  2  0
 16 18  1  0
 19 18  1  6
 19 20  1  0
 20 21  1  0
 21 22  1  0
 22 23  1  0
 23 24  1  0
 24 25  1  0
 25 26  1  0
 25 27  1  0
 23 28  1  0
 15  2  2  0
 27 19  1  0
 13 11  1  0
 28 19  1  0
 26 21  1  0
  1 29  1  0
  1 30  1  0
  1 31  1  0
  3 32  1  0
  4 33  1  0
  8 34  1  0
 10 35  1  0
 11 36  1  0
 12 37  1  0
 12 38  1  0
 13 39  1  0
 13 40  1  0
 18 41  1  0
 20 42  1  0
 20 43  1  0
 21 44  1  1
 22 45  1  0
 22 46  1  0
 23 47  1  1
 24 48  1  0
 24 49  1  0
 25 50  1  6
 26 51  1  0
 26 52  1  0
 27 53  1  0
 27 54  1  0
 28 55  1  0
 28 56  1  0
M  END
>  <_SMILES>  (119) 
Cc1ccc(C(=O)N/N=C\C2CC2)nc1C(=O)N[C@]12C[C@H]3C[C@H](C[C@H](C3)C1)C2

$$$$

     RDKit          3D

 54 58  0  0  0  0  0  0  0  0999 V2000
    6.1389    1.8698    1.4103 C   0  0  0  0  0  0  0  0  0  0  0  0
    6.0618    1.5041    0.0402 O   0  0  0  0  0  0  0  0  0  0  0  0
    5.8260    0.1234   -0.1666 C   0  0  2  0  0  0  0  0  0  0  0  0
    5.8496   -0.2390   -1.6340 C   0  0  0  0  0  0  0  0  0  0  0  0
    5.2418   -1.6271   -1.6247 C   0  0  0  0  0  0  0  0  0  0  0  0
    4.4303   -1.7501   -0.4399 O   0  0  0  0  0  0  0  0  0  0  0  0
    4.4903   -0.4934    0.2792 C   0  0  2  0  0  0  0  0  0  0  0  0
    3.2401    0.2050    0.0077 N   0  0  0  0  0  0  0  0  0  0  0  0
    3.2291    1.4418   -0.5095 N   0  0  0  0  0  0  0  0  0  0  0  0
    1.9750    1.7678   -0.7677 N   0  0  0  0  0  0  0  0  0  0  0  0
    1.1557    0.7384   -0.3659 C   0  0  0  0  0  0  0  0  0  0  0  0
   -0.2922    0.8183   -0.5889 C   0  0  0  0  0  0  0  0  0  0  0  0
   -0.7699    1.6290   -1.3759 O   0  0  0  0  0  0  0  0  0  0  0  0
   -1.0775   -0.0535    0.1405 N   0  0  0  0  0  0  0  0  0  0  0  0
   -2.5442   -0.0992    0.0903 C   0  0  2  0  0  0  0  0  0  0  0  0
   -3.0253   -1.2406    1.0291 C   0  0  0  0  0  0  0  0  0  0  0  0
   -4.5584   -1.3455    1.0328 C   0  0  1  0  0  0  0  0  0  0  0  0
   -5.1533   -0.0129    1.5139 C   0  0  0  0  0  0  0  0  0  0  0  0
   -4.7123    1.1260    0.5809 C   0  0  2  0  0  0  0  0  0  0  0  0
   -5.1949    0.8260   -0.8486 C   0  0  0  0  0  0  0  0  0  0  0  0
   -4.6043   -0.5073   -1.3386 C   0  0  2  0  0  0  0  0  0  0  0  0
   -5.0467   -1.6357   -0.3945 C   0  0  0  0  0  0  0  0  0  0  0  0
   -3.0681   -0.4123   -1.3345 C   0  0  0  0  0  0  0  0  0  0  0  0
   -3.1764    1.2239    0.5879 C   0  0  0  0  0  0  0  0  0  0  0  0
    1.9535   -0.2595    0.1760 C   0  0  0  0  0  0  0  0  0  0  0  0
    1.6581   -1.5764    0.7421 C   0  0  0  0  0  0  0  0  0  0  0  0
    1.5044   -2.5251   -0.2084 F   0  0  0  0  0  0  0  0  0  0  0  0
    2.6080   -2.0079    1.6080 F   0  0  0  0  0  0  0  0  0  0  0  0
    0.5037   -1.5533    1.4619 F   0  0  0  0  0  0  0  0  0  0  0  0
    6.3664    2.9376    1.4681 H   0  0  0  0  0  0  0  0  0  0  0  0
    5.1855    1.6921    1.9155 H   0  0  0  0  0  0  0  0  0  0  0  0
    6.9385    1.3155    1.9108 H   0  0  0  0  0  0  0  0  0  0  0  0
    6.6417   -0.4362    0.3146 H   0  0  0  0  0  0  0  0  0  0  0  0
    6.8536   -0.2182   -2.0686 H   0  0  0  0  0  0  0  0  0  0  0  0
    5.2381    0.4551   -2.2220 H   0  0  0  0  0  0  0  0  0  0  0  0
    4.6241   -1.8139   -2.5079 H   0  0  0  0  0  0  0  0  0  0  0  0
    6.0160   -2.3995   -1.5737 H   0  0  0  0  0  0  0  0  0  0  0  0
    4.5036   -0.6877    1.3568 H   0  0  0  0  0  0  0  0  0  0  0  0
   -0.6502   -0.5418    0.9168 H   0  0  0  0  0  0  0  0  0  0  0  0
   -2.6663   -1.0642    2.0521 H   0  0  0  0  0  0  0  0  0  0  0  0
   -2.5884   -2.1976    0.7131 H   0  0  0  0  0  0  0  0  0  0  0  0
   -4.8726   -2.1538    1.7025 H   0  0  0  0  0  0  0  0  0  0  0  0
   -6.2481   -0.0772    1.5353 H   0  0  0  0  0  0  0  0  0  0  0  0
   -4.8265    0.1953    2.5401 H   0  0  0  0  0  0  0  0  0  0  0  0
   -5.1434    2.0727    0.9253 H   0  0  0  0  0  0  0  0  0  0  0  0
   -6.2906    0.7796   -0.8708 H   0  0  0  0  0  0  0  0  0  0  0  0
   -4.8970    1.6383   -1.5229 H   0  0  0  0  0  0  0  0  0  0  0  0
   -4.9578   -0.7167   -2.3544 H   0  0  0  0  0  0  0  0  0  0  0  0
   -4.6432   -2.5949   -0.7415 H   0  0  0  0  0  0  0  0  0  0  0  0
   -6.1397   -1.7273   -0.4057 H   0  0  0  0  0  0  0  0  0  0  0  0
   -2.6340   -1.3532   -1.6974 H   0  0  0  0  0  0  0  0  0  0  0  0
   -2.7617    0.3611   -2.0477 H   0  0  0  0  0  0  0  0  0  0  0  0
   -2.8213    1.4541    1.6010 H   0  0  0  0  0  0  0  0  0  0  0  0
   -2.8695    2.0666   -0.0428 H   0  0  0  0  0  0  0  0  0  0  0  0
  1  2  1  0
  2  3  1  0
  3  4  1  0
  4  5  1  0
  5  6  1  0
  6  7  1  0
  7  8  1  0
  8  9  1  0
  9 10  2  0
 10 11  1  0
 11 12  1  0
 12 13  2  0
 12 14  1  0
 15 14  1  6
 15 16  1  0
 16 17  1  0
 17 18  1  0
 18 19  1  0
 19 20  1  0
 20 21  1  0
 21 22  1  0
 21 23  1  0
 19 24  1  0
 11 25  2  0
 25 26  1  0
 26 27  1  0
 26 28  1  0
 26 29  1  0
  7  3  1  0
 25  8  1  0
 23 15  1  0
 24 15  1  0
 22 17  1  0
  1 30  1  0
  1 31  1  0
  1 32  1  0
  3 33  1  1
  4 34  1  0
  4 35  1  0
  5 36  1  0
  5 37  1  0
  7 38  1  1
 14 39  1  0
 16 40  1  0
 16 41  1  0
 17 42  1  1
 18 43  1  0
 18 44  1  0
 19 45  1  1
 20 46  1  0
 20 47  1  0
 21 48  1  6
 22 49  1  0
 22 50  1  0
 23 51  1  0
 23 52  1  0
 24 53  1  0
 24 54  1  0
M  END
>  <_SMILES>  (120) 
CO[C@@H]1CCO[C@@H]1n1nnc(C(=O)N[C@]23C[C@H]4C[C@H](C[C@H](C4)C2)C3)c1C(F)(F)F

$$$$

     RDKit          3D

 54 58  0  0  0  0  0  0  0  0999 V2000
    6.5427    2.0273   -0.2479 C   0  0  0  0  0  0  0  0  0  0  0  0
    5.7737    1.0389   -0.9227 O   0  0  0  0  0  0  0  0  0  0  0  0
    5.4165   -0.0591   -0.0853 C   0  0  2  0  0  0  0  0  0  0  0  0
    6.5802   -0.9882    0.1917 C   0  0  0  0  0  0  0  0  0  0  0  0
    5.8779   -2.2912    0.4907 C   0  0  0  0  0  0  0  0  0  0  0  0
    4.7590   -2.3549   -0.4001 O   0  0  0  0  0  0  0  0  0  0  0  0
    4.4371   -0.9996   -0.8001 C   0  0  1  0  0  0  0  0  0  0  0  0
    3.0457   -0.7238   -0.4624 N   0  0  0  0  0  0  0  0  0  0  0  0
    2.6327   -0.9019    0.8161 N   0  0  0  0  0  0  0  0  0  0  0  0
    1.3303   -0.6765    0.8600 N   0  0  0  0  0  0  0  0  0  0  0  0
    0.9130   -0.3281   -0.4010 C   0  0  0  0  0  0  0  0  0  0  0  0
   -0.4830   -0.0604   -0.7237 C   0  0  0  0  0  0  0  0  0  0  0  0
   -0.8606    0.1511   -1.8685 O   0  0  0  0  0  0  0  0  0  0  0  0
   -1.3078   -0.0918    0.3787 N   0  0  0  0  0  0  0  0  0  0  0  0
   -2.7593    0.0894    0.3606 C   0  0  2  0  0  0  0  0  0  0  0  0
   -3.1571    1.4808   -0.1923 C   0  0  0  0  0  0  0  0  0  0  0  0
   -4.6850    1.6620   -0.1544 C   0  0  1  0  0  0  0  0  0  0  0  0
   -5.3462    0.5608   -1.0007 C   0  0  0  0  0  0  0  0  0  0  0  0
   -4.9878   -0.8257   -0.4392 C   0  0  2  0  0  0  0  0  0  0  0  0
   -5.4753   -0.9251    1.0149 C   0  0  0  0  0  0  0  0  0  0  0  0
   -4.8112    0.1679    1.8669 C   0  0  2  0  0  0  0  0  0  0  0  0
   -5.1745    1.5482    1.2978 C   0  0  0  0  0  0  0  0  0  0  0  0
   -3.2856   -0.0119    1.8176 C   0  0  0  0  0  0  0  0  0  0  0  0
   -3.4602   -1.0085   -0.4773 C   0  0  0  0  0  0  0  0  0  0  0  0
    2.0072   -0.2921   -1.2455 C   0  0  0  0  0  0  0  0  0  0  0  0
    2.1019    0.0759   -2.6610 C   0  0  0  0  0  0  0  0  0  0  0  0
    1.3665    1.1719   -2.9628 F   0  0  0  0  0  0  0  0  0  0  0  0
    1.6977   -0.9319   -3.4692 F   0  0  0  0  0  0  0  0  0  0  0  0
    3.3720    0.3796   -3.0302 F   0  0  0  0  0  0  0  0  0  0  0  0
    5.9908    2.4240    0.6095 H   0  0  0  0  0  0  0  0  0  0  0  0
    7.5034    1.6181    0.0767 H   0  0  0  0  0  0  0  0  0  0  0  0
    6.7347    2.8462   -0.9465 H   0  0  0  0  0  0  0  0  0  0  0  0
    4.9956    0.3166    0.8563 H   0  0  0  0  0  0  0  0  0  0  0  0
    7.2118   -1.0817   -0.7001 H   0  0  0  0  0  0  0  0  0  0  0  0
    7.2171   -0.6537    1.0154 H   0  0  0  0  0  0  0  0  0  0  0  0
    5.4980   -2.3142    1.5180 H   0  0  0  0  0  0  0  0  0  0  0  0
    6.5216   -3.1613    0.3359 H   0  0  0  0  0  0  0  0  0  0  0  0
    4.5537   -0.9681   -1.8842 H   0  0  0  0  0  0  0  0  0  0  0  0
   -0.8604   -0.3384    1.2567 H   0  0  0  0  0  0  0  0  0  0  0  0
   -2.6722    2.2725    0.3939 H   0  0  0  0  0  0  0  0  0  0  0  0
   -2.8095    1.6073   -1.2243 H   0  0  0  0  0  0  0  0  0  0  0  0
   -4.9495    2.6463   -0.5568 H   0  0  0  0  0  0  0  0  0  0  0  0
   -6.4351    0.6935   -1.0017 H   0  0  0  0  0  0  0  0  0  0  0  0
   -5.0151    0.6398   -2.0435 H   0  0  0  0  0  0  0  0  0  0  0  0
   -5.4673   -1.6042   -1.0431 H   0  0  0  0  0  0  0  0  0  0  0  0
   -6.5664   -0.8184    1.0525 H   0  0  0  0  0  0  0  0  0  0  0  0
   -5.2379   -1.9151    1.4231 H   0  0  0  0  0  0  0  0  0  0  0  0
   -5.1597    0.0918    2.9029 H   0  0  0  0  0  0  0  0  0  0  0  0
   -4.7207    2.3376    1.9094 H   0  0  0  0  0  0  0  0  0  0  0  0
   -6.2604    1.6972    1.3402 H   0  0  0  0  0  0  0  0  0  0  0  0
   -3.0143   -0.9844    2.2501 H   0  0  0  0  0  0  0  0  0  0  0  0
   -2.8027    0.7478    2.4468 H   0  0  0  0  0  0  0  0  0  0  0  0
   -3.1934   -2.0027   -0.0955 H   0  0  0  0  0  0  0  0  0  0  0  0
   -3.1224   -0.9799   -1.5201 H   0  0  0  0  0  0  0  0  0  0  0  0
  1  2  1  0
  2  3  1  0
  3  4  1  0
  4  5  1  0
  5  6  1  0
  6  7  1  0
  7  8  1  0
  8  9  1  0
  9 10  2  0
 10 11  1  0
 11 12  1  0
 12 13  2  0
 12 14  1  0
 15 14  1  1
 15 16  1  0
 16 17  1  0
 17 18  1  0
 18 19  1  0
 19 20  1  0
 20 21  1  0
 21 22  1  0
 21 23  1  0
 19 24  1  0
 11 25  2  0
 25 26  1  0
 26 27  1  0
 26 28  1  0
 26 29  1  0
  7  3  1  0
 25  8  1  0
 23 15  1  0
 24 15  1  0
 22 17  1  0
  1 30  1  0
  1 31  1  0
  1 32  1  0
  3 33  1  1
  4 34  1  0
  4 35  1  0
  5 36  1  0
  5 37  1  0
  7 38  1  6
 14 39  1  0
 16 40  1  0
 16 41  1  0
 17 42  1  6
 18 43  1  0
 18 44  1  0
 19 45  1  6
 20 46  1  0
 20 47  1  0
 21 48  1  1
 22 49  1  0
 22 50  1  0
 23 51  1  0
 23 52  1  0
 24 53  1  0
 24 54  1  0
M  END
>  <_SMILES>  (121) 
CO[C@@H]1CCO[C@H]1n1nnc(C(=O)N[C@]23C[C@H]4C[C@H](C[C@H](C4)C2)C3)c1C(F)(F)F

$$$$

     RDKit          3D

 54 58  0  0  0  0  0  0  0  0999 V2000
    6.6952    2.3760   -0.0329 C   0  0  0  0  0  0  0  0  0  0  0  0
    5.9785    1.3678    0.6694 O   0  0  0  0  0  0  0  0  0  0  0  0
    5.5016    0.3299   -0.1863 C   0  0  1  0  0  0  0  0  0  0  0  0
    6.5941   -0.6610   -0.5319 C   0  0  0  0  0  0  0  0  0  0  0  0
    5.7980   -1.8983   -0.8657 C   0  0  0  0  0  0  0  0  0  0  0  0
    4.6805   -1.9149    0.0286 O   0  0  0  0  0  0  0  0  0  0  0  0
    4.4947   -0.5751    0.5440 C   0  0  2  0  0  0  0  0  0  0  0  0
    3.0876   -0.2333    0.3880 N   0  0  0  0  0  0  0  0  0  0  0  0
    2.7079    0.8124   -0.3785 N   0  0  0  0  0  0  0  0  0  0  0  0
    1.3855    0.8289   -0.4237 N   0  0  0  0  0  0  0  0  0  0  0  0
    0.9167   -0.2196    0.3304 C   0  0  0  0  0  0  0  0  0  0  0  0
   -0.5013   -0.5294    0.4612 C   0  0  0  0  0  0  0  0  0  0  0  0
   -0.9025   -1.5210    1.0559 O   0  0  0  0  0  0  0  0  0  0  0  0
   -1.3147    0.3928   -0.1591 N   0  0  0  0  0  0  0  0  0  0  0  0
   -2.7752    0.3351   -0.2187 C   0  0  2  0  0  0  0  0  0  0  0  0
   -3.4083    0.3770    1.1945 C   0  0  0  0  0  0  0  0  0  0  0  0
   -4.9443    0.3645    1.1002 C   0  0  1  0  0  0  0  0  0  0  0  0
   -5.4151    1.5957    0.3103 C   0  0  0  0  0  0  0  0  0  0  0  0
   -4.8181    1.5703   -1.1054 C   0  0  2  0  0  0  0  0  0  0  0  0
   -5.2743    0.2929   -1.8275 C   0  0  0  0  0  0  0  0  0  0  0  0
   -4.8028   -0.9462   -1.0501 C   0  0  2  0  0  0  0  0  0  0  0  0
   -5.3961   -0.9110    0.3687 C   0  0  0  0  0  0  0  0  0  0  0  0
   -3.2667   -0.9345   -0.9572 C   0  0  0  0  0  0  0  0  0  0  0  0
   -3.2844    1.5727   -1.0057 C   0  0  0  0  0  0  0  0  0  0  0  0
    1.9896   -0.8852    0.8898 C   0  0  0  0  0  0  0  0  0  0  0  0
    2.0408   -2.0464    1.7836 C   0  0  0  0  0  0  0  0  0  0  0  0
    1.1420   -1.9482    2.7940 F   0  0  0  0  0  0  0  0  0  0  0  0
    3.2477   -2.1841    2.3913 F   0  0  0  0  0  0  0  0  0  0  0  0
    1.7961   -3.2053    1.1284 F   0  0  0  0  0  0  0  0  0  0  0  0
    6.0538    2.8507   -0.7815 H   0  0  0  0  0  0  0  0  0  0  0  0
    7.5874    1.9594   -0.5087 H   0  0  0  0  0  0  0  0  0  0  0  0
    7.0097    3.1362    0.6872 H   0  0  0  0  0  0  0  0  0  0  0  0
    5.0802    0.7512   -1.1076 H   0  0  0  0  0  0  0  0  0  0  0  0
    7.2339   -0.3345   -1.3565 H   0  0  0  0  0  0  0  0  0  0  0  0
    7.2391   -0.8350    0.3382 H   0  0  0  0  0  0  0  0  0  0  0  0
    6.3784   -2.8173   -0.7471 H   0  0  0  0  0  0  0  0  0  0  0  0
    5.4106   -1.8588   -1.8896 H   0  0  0  0  0  0  0  0  0  0  0  0
    4.6984   -0.5797    1.6210 H   0  0  0  0  0  0  0  0  0  0  0  0
   -0.8380    1.1492   -0.6408 H   0  0  0  0  0  0  0  0  0  0  0  0
   -3.0814   -0.4792    1.7962 H   0  0  0  0  0  0  0  0  0  0  0  0
   -3.0741    1.2746    1.7313 H   0  0  0  0  0  0  0  0  0  0  0  0
   -5.3756    0.3852    2.1073 H   0  0  0  0  0  0  0  0  0  0  0  0
   -6.5106    1.6094    0.2551 H   0  0  0  0  0  0  0  0  0  0  0  0
   -5.1111    2.5130    0.8294 H   0  0  0  0  0  0  0  0  0  0  0  0
   -5.1541    2.4509   -1.6641 H   0  0  0  0  0  0  0  0  0  0  0  0
   -6.3673    0.2842   -1.9194 H   0  0  0  0  0  0  0  0  0  0  0  0
   -4.8689    0.2728   -2.8466 H   0  0  0  0  0  0  0  0  0  0  0  0
   -5.1340   -1.8539   -1.5667 H   0  0  0  0  0  0  0  0  0  0  0  0
   -6.4914   -0.9437    0.3165 H   0  0  0  0  0  0  0  0  0  0  0  0
   -5.0777   -1.7979    0.9302 H   0  0  0  0  0  0  0  0  0  0  0  0
   -2.8312   -0.9778   -1.9641 H   0  0  0  0  0  0  0  0  0  0  0  0
   -2.9333   -1.8420   -0.4400 H   0  0  0  0  0  0  0  0  0  0  0  0
   -2.8487    1.5842   -2.0138 H   0  0  0  0  0  0  0  0  0  0  0  0
   -2.9468    2.4961   -0.5162 H   0  0  0  0  0  0  0  0  0  0  0  0
  1  2  1  0
  2  3  1  0
  3  4  1  0
  4  5  1  0
  5  6  1  0
  6  7  1  0
  7  8  1  0
  8  9  1  0
  9 10  2  0
 10 11  1  0
 11 12  1  0
 12 13  2  0
 12 14  1  0
 15 14  1  1
 15 16  1  0
 16 17  1  0
 17 18  1  0
 18 19  1  0
 19 20  1  0
 20 21  1  0
 21 22  1  0
 21 23  1  0
 19 24  1  0
 11 25  2  0
 25 26  1  0
 26 27  1  0
 26 28  1  0
 26 29  1  0
  7  3  1  0
 25  8  1  0
 23 15  1  0
 24 15  1  0
 22 17  1  0
  1 30  1  0
  1 31  1  0
  1 32  1  0
  3 33  1  6
  4 34  1  0
  4 35  1  0
  5 36  1  0
  5 37  1  0
  7 38  1  1
 14 39  1  0
 16 40  1  0
 16 41  1  0
 17 42  1  1
 18 43  1  0
 18 44  1  0
 19 45  1  6
 20 46  1  0
 20 47  1  0
 21 48  1  6
 22 49  1  0
 22 50  1  0
 23 51  1  0
 23 52  1  0
 24 53  1  0
 24 54  1  0
M  END
>  <_SMILES>  (122) 
CO[C@H]1CCO[C@@H]1n1nnc(C(=O)N[C@]23C[C@H]4C[C@H](C[C@H](C4)C2)C3)c1C(F)(F)F

$$$$

     RDKit          3D

 54 58  0  0  0  0  0  0  0  0999 V2000
    6.3675    2.1443   -0.2560 C   0  0  0  0  0  0  0  0  0  0  0  0
    6.1426    1.1596    0.7426 O   0  0  0  0  0  0  0  0  0  0  0  0
    5.7472   -0.0967    0.2229 C   0  0  1  0  0  0  0  0  0  0  0  0
    5.6093   -1.1372    1.3107 C   0  0  0  0  0  0  0  0  0  0  0  0
    4.8623   -2.2428    0.5938 C   0  0  0  0  0  0  0  0  0  0  0  0
    4.1213   -1.6498   -0.4903 O   0  0  0  0  0  0  0  0  0  0  0  0
    4.3964   -0.2262   -0.4989 C   0  0  1  0  0  0  0  0  0  0  0  0
    3.2150    0.4269    0.0464 N   0  0  0  0  0  0  0  0  0  0  0  0
    3.2744    1.1899    1.1516 N   0  0  0  0  0  0  0  0  0  0  0  0
    2.0450    1.5796    1.4529 N   0  0  0  0  0  0  0  0  0  0  0  0
    1.1818    1.0331    0.5398 C   0  0  0  0  0  0  0  0  0  0  0  0
   -0.2641    1.2238    0.6117 C   0  0  0  0  0  0  0  0  0  0  0  0
   -0.7614    2.2589    1.0376 O   0  0  0  0  0  0  0  0  0  0  0  0
   -1.0052    0.1341    0.1873 N   0  0  0  0  0  0  0  0  0  0  0  0
   -2.4705    0.0679    0.2074 C   0  0  2  0  0  0  0  0  0  0  0  0
   -2.9019   -1.2982   -0.3937 C   0  0  0  0  0  0  0  0  0  0  0  0
   -4.4320   -1.4410   -0.4001 C   0  0  1  0  0  0  0  0  0  0  0  0
   -4.9538   -1.3363    1.0416 C   0  0  0  0  0  0  0  0  0  0  0  0
   -4.5613    0.0218    1.6448 C   0  0  2  0  0  0  0  0  0  0  0  0
   -5.1639    1.1494    0.7895 C   0  0  0  0  0  0  0  0  0  0  0  0
   -4.6468    1.0524   -0.6561 C   0  0  2  0  0  0  0  0  0  0  0  0
   -5.0397   -0.3111   -1.2451 C   0  0  0  0  0  0  0  0  0  0  0  0
   -3.1134    1.1840   -0.6548 C   0  0  0  0  0  0  0  0  0  0  0  0
   -3.0278    0.1526    1.6494 C   0  0  0  0  0  0  0  0  0  0  0  0
    1.9197    0.3384   -0.4020 C   0  0  0  0  0  0  0  0  0  0  0  0
    1.5034   -0.3647   -1.6143 C   0  0  0  0  0  0  0  0  0  0  0  0
    0.9389   -1.5607   -1.3133 F   0  0  0  0  0  0  0  0  0  0  0  0
    2.5134   -0.5955   -2.4855 F   0  0  0  0  0  0  0  0  0  0  0  0
    0.5701    0.3408   -2.3009 F   0  0  0  0  0  0  0  0  0  0  0  0
    7.1410    1.8119   -0.9549 H   0  0  0  0  0  0  0  0  0  0  0  0
    6.7113    3.0586    0.2351 H   0  0  0  0  0  0  0  0  0  0  0  0
    5.4440    2.3692   -0.7967 H   0  0  0  0  0  0  0  0  0  0  0  0
    6.5371   -0.4473   -0.4576 H   0  0  0  0  0  0  0  0  0  0  0  0
    6.5699   -1.4680    1.7173 H   0  0  0  0  0  0  0  0  0  0  0  0
    5.0265   -0.7506    2.1547 H   0  0  0  0  0  0  0  0  0  0  0  0
    4.1730   -2.7741    1.2564 H   0  0  0  0  0  0  0  0  0  0  0  0
    5.5542   -2.9710    0.1582 H   0  0  0  0  0  0  0  0  0  0  0  0
    4.4894    0.1220   -1.5329 H   0  0  0  0  0  0  0  0  0  0  0  0
   -0.5208   -0.7504    0.0985 H   0  0  0  0  0  0  0  0  0  0  0  0
   -2.5150   -1.3987   -1.4167 H   0  0  0  0  0  0  0  0  0  0  0  0
   -2.4582   -2.1212    0.1827 H   0  0  0  0  0  0  0  0  0  0  0  0
   -4.7115   -2.4116   -0.8248 H   0  0  0  0  0  0  0  0  0  0  0  0
   -6.0446   -1.4509    1.0546 H   0  0  0  0  0  0  0  0  0  0  0  0
   -4.5409   -2.1502    1.6502 H   0  0  0  0  0  0  0  0  0  0  0  0
   -4.9402    0.0932    2.6704 H   0  0  0  0  0  0  0  0  0  0  0  0
   -6.2587    1.0818    0.7998 H   0  0  0  0  0  0  0  0  0  0  0  0
   -4.9014    2.1250    1.2168 H   0  0  0  0  0  0  0  0  0  0  0  0
   -5.0851    1.8549   -1.2599 H   0  0  0  0  0  0  0  0  0  0  0  0
   -6.1320   -0.4080   -1.2710 H   0  0  0  0  0  0  0  0  0  0  0  0
   -4.6886   -0.3872   -2.2816 H   0  0  0  0  0  0  0  0  0  0  0  0
   -2.7323    1.1324   -1.6833 H   0  0  0  0  0  0  0  0  0  0  0  0
   -2.8456    2.1779   -0.2788 H   0  0  0  0  0  0  0  0  0  0  0  0
   -2.5874   -0.6379    2.2712 H   0  0  0  0  0  0  0  0  0  0  0  0
   -2.7511    1.1030    2.1209 H   0  0  0  0  0  0  0  0  0  0  0  0
  1  2  1  0
  2  3  1  0
  3  4  1  0
  4  5  1  0
  5  6  1  0
  6  7  1  0
  7  8  1  0
  8  9  1  0
  9 10  2  0
 10 11  1  0
 11 12  1  0
 12 13  2  0
 12 14  1  0
 15 14  1  1
 15 16  1  0
 16 17  1  0
 17 18  1  0
 18 19  1  0
 19 20  1  0
 20 21  1  0
 21 22  1  0
 21 23  1  0
 19 24  1  0
 11 25  2  0
 25 26  1  0
 26 27  1  0
 26 28  1  0
 26 29  1  0
  7  3  1  0
 25  8  1  0
 23 15  1  0
 24 15  1  0
 22 17  1  0
  1 30  1  0
  1 31  1  0
  1 32  1  0
  3 33  1  6
  4 34  1  0
  4 35  1  0
  5 36  1  0
  5 37  1  0
  7 38  1  6
 14 39  1  0
 16 40  1  0
 16 41  1  0
 17 42  1  6
 18 43  1  0
 18 44  1  0
 19 45  1  1
 20 46  1  0
 20 47  1  0
 21 48  1  6
 22 49  1  0
 22 50  1  0
 23 51  1  0
 23 52  1  0
 24 53  1  0
 24 54  1  0
M  END
>  <_SMILES>  (123) 
CO[C@H]1CCO[C@H]1n1nnc(C(=O)N[C@]23C[C@H]4C[C@H](C[C@H](C4)C2)C3)c1C(F)(F)F

$$$$

     RDKit          3D

 53 58  0  0  0  0  0  0  0  0999 V2000
    2.5139    3.7389   -1.8046 C   0  0  0  0  0  0  0  0  0  0  0  0
    1.4475    2.6991   -1.5588 C   0  0  0  0  0  0  0  0  0  0  0  0
    0.4554    2.6657   -2.2895 O   0  0  0  0  0  0  0  0  0  0  0  0
    1.6763    1.7521   -0.5873 N   0  0  0  0  0  0  0  0  0  0  0  0
    2.9228    1.6757    0.1283 C   0  0  0  0  0  0  0  0  0  0  0  0
    3.1003    0.2767    0.5789 C   0  0  0  0  0  0  0  0  0  0  0  0
    4.3859   -0.0741    0.8537 O   0  0  0  0  0  0  0  0  0  0  0  0
    4.3735   -1.3685    1.2570 C   0  0  0  0  0  0  0  0  0  0  0  0
    5.4967   -2.1032    1.6311 C   0  0  0  0  0  0  0  0  0  0  0  0
    5.2768   -3.4278    2.0189 C   0  0  0  0  0  0  0  0  0  0  0  0
    3.9909   -3.9701    2.0253 C   0  0  0  0  0  0  0  0  0  0  0  0
    2.8822   -3.2013    1.6421 C   0  0  0  0  0  0  0  0  0  0  0  0
    3.0759   -1.8613    1.2459 C   0  0  0  0  0  0  0  0  0  0  0  0
    2.2303   -0.7821    0.7962 C   0  0  0  0  0  0  0  0  0  0  0  0
    0.7661   -0.8425    0.6370 C   0  0  0  0  0  0  0  0  0  0  0  0
    0.1930   -1.8418    1.0704 O   0  0  0  0  0  0  0  0  0  0  0  0
    0.0524    0.2279    0.0548 N   0  0  0  0  0  0  0  0  0  0  0  0
   -1.4501    0.1276    0.0014 C   0  0  2  0  0  0  0  0  0  0  0  0
   -2.0973    0.1348    1.4167 C   0  0  0  0  0  0  0  0  0  0  0  0
   -3.6303    0.0291    1.3284 C   0  0  1  0  0  0  0  0  0  0  0  0
   -4.1795    1.2312    0.5465 C   0  0  0  0  0  0  0  0  0  0  0  0
   -3.6066    1.2347   -0.8779 C   0  0  2  0  0  0  0  0  0  0  0  0
   -4.0062   -0.0595   -1.5944 C   0  0  0  0  0  0  0  0  0  0  0  0
   -3.4464   -1.2625   -0.8281 C   0  0  2  0  0  0  0  0  0  0  0  0
   -4.0133   -1.2693    0.6006 C   0  0  0  0  0  0  0  0  0  0  0  0
   -1.9122   -1.1599   -0.7626 C   0  0  0  0  0  0  0  0  0  0  0  0
   -2.0727    1.3208   -0.8072 C   0  0  0  0  0  0  0  0  0  0  0  0
    0.5796    1.5031    0.2159 C   0  0  0  0  0  0  0  0  0  0  0  0
    0.2001    2.3062    1.0663 O   0  0  0  0  0  0  0  0  0  0  0  0
    2.0873    4.5579   -2.3920 H   0  0  0  0  0  0  0  0  0  0  0  0
    3.3421    3.2981   -2.3651 H   0  0  0  0  0  0  0  0  0  0  0  0
    2.8708    4.1628   -0.8624 H   0  0  0  0  0  0  0  0  0  0  0  0
    2.9063    2.3567    0.9873 H   0  0  0  0  0  0  0  0  0  0  0  0
    3.7581    1.9529   -0.5220 H   0  0  0  0  0  0  0  0  0  0  0  0
    6.4872   -1.6651    1.6210 H   0  0  0  0  0  0  0  0  0  0  0  0
    6.1209   -4.0442    2.3212 H   0  0  0  0  0  0  0  0  0  0  0  0
    3.8424   -5.0034    2.3323 H   0  0  0  0  0  0  0  0  0  0  0  0
    1.8874   -3.6401    1.6550 H   0  0  0  0  0  0  0  0  0  0  0  0
   -1.8295    1.0506    1.9569 H   0  0  0  0  0  0  0  0  0  0  0  0
   -1.7233   -0.6947    2.0265 H   0  0  0  0  0  0  0  0  0  0  0  0
   -4.0549    0.0235    2.3386 H   0  0  0  0  0  0  0  0  0  0  0  0
   -3.9176    2.1647    1.0595 H   0  0  0  0  0  0  0  0  0  0  0  0
   -5.2749    1.1852    0.5096 H   0  0  0  0  0  0  0  0  0  0  0  0
   -3.9987    2.0960   -1.4305 H   0  0  0  0  0  0  0  0  0  0  0  0
   -5.0986   -0.1309   -1.6634 H   0  0  0  0  0  0  0  0  0  0  0  0
   -3.6220   -0.0556   -2.6219 H   0  0  0  0  0  0  0  0  0  0  0  0
   -3.7308   -2.1881   -1.3414 H   0  0  0  0  0  0  0  0  0  0  0  0
   -3.6302   -2.1362    1.1529 H   0  0  0  0  0  0  0  0  0  0  0  0
   -5.1052   -1.3705    0.5681 H   0  0  0  0  0  0  0  0  0  0  0  0
   -1.4932   -1.1566   -1.7777 H   0  0  0  0  0  0  0  0  0  0  0  0
   -1.5496   -2.0774   -0.2932 H   0  0  0  0  0  0  0  0  0  0  0  0
   -1.6655    1.3283   -1.8257 H   0  0  0  0  0  0  0  0  0  0  0  0
   -1.8136    2.2861   -0.3586 H   0  0  0  0  0  0  0  0  0  0  0  0
  1  2  1  0
  2  3  2  0
  2  4  1  0
  4  5  1  0
  5  6  1  0
  6  7  1  0
  7  8  1  0
  8  9  2  0
  9 10  1  0
 10 11  2  0
 11 12  1  0
 12 13  2  0
 13 14  1  0
 14 15  1  0
 15 16  2  0
 15 17  1  0
 18 17  1  1
 18 19  1  0
 19 20  1  0
 20 21  1  0
 21 22  1  0
 22 23  1  0
 23 24  1  0
 24 25  1  0
 24 26  1  0
 22 27  1  0
 17 28  1  0
 28 29  2  0
 28  4  1  0
 14  6  2  0
 26 18  1  0
 13  8  1  0
 27 18  1  0
 25 20  1  0
  1 30  1  0
  1 31  1  0
  1 32  1  0
  5 33  1  0
  5 34  1  0
  9 35  1  0
 10 36  1  0
 11 37  1  0
 12 38  1  0
 19 39  1  0
 19 40  1  0
 20 41  1  1
 21 42  1  0
 21 43  1  0
 22 44  1  6
 23 45  1  0
 23 46  1  0
 24 47  1  6
 25 48  1  0
 25 49  1  0
 26 50  1  0
 26 51  1  0
 27 52  1  0
 27 53  1  0
M  END
>  <_SMILES>  (124) 
CC(=O)N1Cc2oc3ccccc3c2C(=O)N([C@]23C[C@H]4C[C@H](C[C@H](C4)C2)C3)C1=O

$$$$

     RDKit          3D

 60 63  0  0  0  0  0  0  0  0999 V2000
    2.6305    0.9698   -0.7809 O   0  0  0  0  0  0  0  0  0  0  0  0
    3.5446    0.6977   -0.0092 C   0  0  0  0  0  0  0  0  0  0  0  0
    4.9476    1.2616   -0.0851 C   0  0  0  0  0  0  0  0  0  0  0  0
    4.9992    2.5399   -0.9213 C   0  0  1  0  0  0  0  0  0  0  0  0
    4.4548    3.6101   -0.1411 O   0  0  0  0  0  0  0  0  0  0  0  0
    6.4401    2.8893   -1.3141 C   0  0  0  0  0  0  0  0  0  0  0  0
    6.9944    1.8732   -2.1371 O   0  0  0  0  0  0  0  0  0  0  0  0
    3.3706   -0.2161    1.0180 N   0  0  0  0  0  0  0  0  0  0  0  0
    2.1224   -0.9593    1.1261 C   0  0  1  0  0  0  0  0  0  0  0  0
    2.2246   -2.0171    2.2298 C   0  0  0  0  0  0  0  0  0  0  0  0
    0.9200   -2.7942    2.3850 C   0  0  0  0  0  0  0  0  0  0  0  0
   -0.2693   -1.8759    2.6337 C   0  0  0  0  0  0  0  0  0  0  0  0
   -0.3774   -0.8318    1.5520 N   0  0  2  0  0  0  0  0  0  0  0  0
   -0.9316   -1.3429    0.2298 C   0  0  0  0  0  0  0  0  0  0  0  0
   -2.2974   -0.7149   -0.1299 C   0  0  2  0  0  0  0  0  0  0  0  0
   -2.2063    0.8241   -0.3018 C   0  0  0  0  0  0  0  0  0  0  0  0
   -3.5670    1.4067   -0.7244 C   0  0  1  0  0  0  0  0  0  0  0  0
   -3.9941    0.7839   -2.0624 C   0  0  0  0  0  0  0  0  0  0  0  0
   -4.1184   -0.7402   -1.9151 C   0  0  2  0  0  0  0  0  0  0  0  0
   -5.1666   -1.0647   -0.8398 C   0  0  0  0  0  0  0  0  0  0  0  0
   -4.7456   -0.4515    0.5046 C   0  0  2  0  0  0  0  0  0  0  0  0
   -4.6161    1.0728    0.3491 C   0  0  0  0  0  0  0  0  0  0  0  0
   -3.3856   -1.0353    0.9279 C   0  0  0  0  0  0  0  0  0  0  0  0
   -2.7601   -1.3184   -1.4867 C   0  0  0  0  0  0  0  0  0  0  0  0
    0.9071   -0.0356    1.3940 C   0  0  0  0  0  0  0  0  0  0  0  0
    5.5736    0.4765   -0.5237 H   0  0  0  0  0  0  0  0  0  0  0  0
    5.2995    1.4627    0.9339 H   0  0  0  0  0  0  0  0  0  0  0  0
    4.3936    2.4278   -1.8283 H   0  0  0  0  0  0  0  0  0  0  0  0
    4.3277    4.3663   -0.7427 H   0  0  0  0  0  0  0  0  0  0  0  0
    6.4601    3.8381   -1.8615 H   0  0  0  0  0  0  0  0  0  0  0  0
    7.0671    3.0117   -0.4239 H   0  0  0  0  0  0  0  0  0  0  0  0
    7.8801    2.1756   -2.4081 H   0  0  0  0  0  0  0  0  0  0  0  0
    4.2181   -0.6069    1.4200 H   0  0  0  0  0  0  0  0  0  0  0  0
    1.9815   -1.4694    0.1647 H   0  0  0  0  0  0  0  0  0  0  0  0
    2.4805   -1.5380    3.1840 H   0  0  0  0  0  0  0  0  0  0  0  0
    3.0404   -2.7153    2.0057 H   0  0  0  0  0  0  0  0  0  0  0  0
    0.7493   -3.4001    1.4873 H   0  0  0  0  0  0  0  0  0  0  0  0
    1.0142   -3.4962    3.2214 H   0  0  0  0  0  0  0  0  0  0  0  0
   -0.1557   -1.3346    3.5798 H   0  0  0  0  0  0  0  0  0  0  0  0
   -1.2141   -2.4280    2.6638 H   0  0  0  0  0  0  0  0  0  0  0  0
   -1.0520   -0.1452    1.9087 H   0  0  0  0  0  0  0  0  0  0  0  0
   -0.1949   -1.1258   -0.5519 H   0  0  0  0  0  0  0  0  0  0  0  0
   -1.0205   -2.4325    0.3047 H   0  0  0  0  0  0  0  0  0  0  0  0
   -1.8923    1.3064    0.6311 H   0  0  0  0  0  0  0  0  0  0  0  0
   -1.4484    1.0745   -1.0553 H   0  0  0  0  0  0  0  0  0  0  0  0
   -3.4839    2.4938   -0.8338 H   0  0  0  0  0  0  0  0  0  0  0  0
   -4.9527    1.2088   -2.3846 H   0  0  0  0  0  0  0  0  0  0  0  0
   -3.2604    1.0274   -2.8407 H   0  0  0  0  0  0  0  0  0  0  0  0
   -4.4222   -1.1801   -2.8716 H   0  0  0  0  0  0  0  0  0  0  0  0
   -6.1459   -0.6724   -1.1405 H   0  0  0  0  0  0  0  0  0  0  0  0
   -5.2766   -2.1514   -0.7385 H   0  0  0  0  0  0  0  0  0  0  0  0
   -5.4984   -0.6822    1.2667 H   0  0  0  0  0  0  0  0  0  0  0  0
   -5.5857    1.5040    0.0713 H   0  0  0  0  0  0  0  0  0  0  0  0
   -4.3297    1.5246    1.3068 H   0  0  0  0  0  0  0  0  0  0  0  0
   -3.1157   -0.6230    1.9072 H   0  0  0  0  0  0  0  0  0  0  0  0
   -3.4756   -2.1214    1.0584 H   0  0  0  0  0  0  0  0  0  0  0  0
   -2.8368   -2.4107   -1.4071 H   0  0  0  0  0  0  0  0  0  0  0  0
   -2.0136   -1.1127   -2.2651 H   0  0  0  0  0  0  0  0  0  0  0  0
    1.0430    0.5198    2.3303 H   0  0  0  0  0  0  0  0  0  0  0  0
    0.7259    0.6969    0.6035 H   0  0  0  0  0  0  0  0  0  0  0  0
  1  2  2  0
  2  3  1  0
  3  4  1  0
  4  5  1  0
  4  6  1  0
  6  7  1  0
  2  8  1  0
  8  9  1  0
  9 10  1  0
 10 11  1  0
 11 12  1  0
 12 13  1  0
 13 14  1  0
 15 14  1  1
 15 16  1  0
 16 17  1  0
 17 18  1  0
 18 19  1  0
 19 20  1  0
 20 21  1  0
 21 22  1  0
 21 23  1  0
 19 24  1  0
 13 25  1  0
 25  9  1  0
 23 15  1  0
 24 15  1  0
 22 17  1  0
  3 26  1  0
  3 27  1  0
  4 28  1  6
  5 29  1  0
  6 30  1  0
  6 31  1  0
  7 32  1  0
  8 33  1  0
  9 34  1  6
 10 35  1  0
 10 36  1  0
 11 37  1  0
 11 38  1  0
 12 39  1  0
 12 40  1  0
 13 41  1  1
 14 42  1  0
 14 43  1  0
 16 44  1  0
 16 45  1  0
 17 46  1  6
 18 47  1  0
 18 48  1  0
 19 49  1  6
 20 50  1  0
 20 51  1  0
 21 52  1  1
 22 53  1  0
 22 54  1  0
 23 55  1  0
 23 56  1  0
 24 57  1  0
 24 58  1  0
 25 59  1  0
 25 60  1  0
M  CHG  1  13   1
M  END
>  <_SMILES>  (125) 
O=C(C[C@@H](O)CO)N[C@H]1CCC[N@H+](C[C@]23C[C@H]4C[C@H](C[C@H](C4)C2)C3)C1

$$$$

     RDKit          3D

 60 63  0  0  0  0  0  0  0  0999 V2000
    4.5340   -2.1674   -2.1511 O   0  0  0  0  0  0  0  0  0  0  0  0
    4.3888   -1.0740   -1.6153 C   0  0  0  0  0  0  0  0  0  0  0  0
    5.5026   -0.0509   -1.5265 C   0  0  0  0  0  0  0  0  0  0  0  0
    5.5918    0.5899   -0.1470 C   0  0  2  0  0  0  0  0  0  0  0  0
    4.4452    1.4443    0.0630 O   0  0  0  0  0  0  0  0  0  0  0  0
    6.8542    1.4440    0.0005 C   0  0  0  0  0  0  0  0  0  0  0  0
    6.7714    2.1150    1.2598 O   0  0  0  0  0  0  0  0  0  0  0  0
    3.1814   -0.6532   -1.1041 N   0  0  0  0  0  0  0  0  0  0  0  0
    1.9655   -1.4297   -1.2589 C   0  0  2  0  0  0  0  0  0  0  0  0
    1.2371   -1.0336   -2.5448 C   0  0  0  0  0  0  0  0  0  0  0  0
   -0.0181   -1.8790   -2.7701 C   0  0  0  0  0  0  0  0  0  0  0  0
   -0.6615   -2.3885   -1.4843 C   0  0  0  0  0  0  0  0  0  0  0  0
   -0.4264   -1.3846   -0.3826 N   0  0  1  0  0  0  0  0  0  0  0  0
   -1.3037   -1.6164    0.8350 C   0  0  0  0  0  0  0  0  0  0  0  0
   -2.4446   -0.5806    0.9600 C   0  0  2  0  0  0  0  0  0  0  0  0
   -1.8951    0.8540    1.1846 C   0  0  0  0  0  0  0  0  0  0  0  0
   -3.0478    1.8551    1.3813 C   0  0  1  0  0  0  0  0  0  0  0  0
   -3.9479    1.8424    0.1349 C   0  0  0  0  0  0  0  0  0  0  0  0
   -4.5305    0.4359   -0.0803 C   0  0  2  0  0  0  0  0  0  0  0  0
   -5.3506    0.0317    1.1544 C   0  0  0  0  0  0  0  0  0  0  0  0
   -4.4552    0.0364    2.4027 C   0  0  2  0  0  0  0  0  0  0  0  0
   -3.8753    1.4440    2.6089 C   0  0  0  0  0  0  0  0  0  0  0  0
   -3.3022   -0.9600    2.2006 C   0  0  0  0  0  0  0  0  0  0  0  0
   -3.3778   -0.5652   -0.2774 C   0  0  0  0  0  0  0  0  0  0  0  0
    1.0508   -1.3077   -0.0193 C   0  0  0  0  0  0  0  0  0  0  0  0
    6.4419   -0.5648   -1.7611 H   0  0  0  0  0  0  0  0  0  0  0  0
    5.3163    0.7030   -2.3003 H   0  0  0  0  0  0  0  0  0  0  0  0
    5.5599   -0.1667    0.6458 H   0  0  0  0  0  0  0  0  0  0  0  0
    4.7377    2.0462    0.7855 H   0  0  0  0  0  0  0  0  0  0  0  0
    6.9052    2.2112   -0.7786 H   0  0  0  0  0  0  0  0  0  0  0  0
    7.7583    0.8286   -0.0243 H   0  0  0  0  0  0  0  0  0  0  0  0
    7.6085    2.6028    1.3753 H   0  0  0  0  0  0  0  0  0  0  0  0
    3.1600    0.3161   -0.7716 H   0  0  0  0  0  0  0  0  0  0  0  0
    2.2522   -2.4857   -1.3518 H   0  0  0  0  0  0  0  0  0  0  0  0
    0.9556    0.0269   -2.4907 H   0  0  0  0  0  0  0  0  0  0  0  0
    1.8986   -1.1236   -3.4151 H   0  0  0  0  0  0  0  0  0  0  0  0
    0.2237   -2.7414   -3.4030 H   0  0  0  0  0  0  0  0  0  0  0  0
   -0.7438   -1.2826   -3.3367 H   0  0  0  0  0  0  0  0  0  0  0  0
   -1.7399   -2.5158   -1.6183 H   0  0  0  0  0  0  0  0  0  0  0  0
   -0.2279   -3.3404   -1.1572 H   0  0  0  0  0  0  0  0  0  0  0  0
   -0.6701   -0.4658   -0.7719 H   0  0  0  0  0  0  0  0  0  0  0  0
   -0.6613   -1.5652    1.7225 H   0  0  0  0  0  0  0  0  0  0  0  0
   -1.6931   -2.6395    0.7718 H   0  0  0  0  0  0  0  0  0  0  0  0
   -1.2867    1.1805    0.3333 H   0  0  0  0  0  0  0  0  0  0  0  0
   -1.2384    0.8723    2.0639 H   0  0  0  0  0  0  0  0  0  0  0  0
   -2.6400    2.8610    1.5319 H   0  0  0  0  0  0  0  0  0  0  0  0
   -3.3719    2.1489   -0.7469 H   0  0  0  0  0  0  0  0  0  0  0  0
   -4.7604    2.5699    0.2528 H   0  0  0  0  0  0  0  0  0  0  0  0
   -5.1744    0.4350   -0.9669 H   0  0  0  0  0  0  0  0  0  0  0  0
   -6.1886    0.7262    1.2916 H   0  0  0  0  0  0  0  0  0  0  0  0
   -5.7842   -0.9650    1.0070 H   0  0  0  0  0  0  0  0  0  0  0  0
   -5.0438   -0.2527    3.2805 H   0  0  0  0  0  0  0  0  0  0  0  0
   -3.2474    1.4634    3.5082 H   0  0  0  0  0  0  0  0  0  0  0  0
   -4.6870    2.1636    2.7720 H   0  0  0  0  0  0  0  0  0  0  0  0
   -3.7108   -1.9720    2.0808 H   0  0  0  0  0  0  0  0  0  0  0  0
   -2.6748   -0.9801    3.1014 H   0  0  0  0  0  0  0  0  0  0  0  0
   -3.7882   -1.5678   -0.4522 H   0  0  0  0  0  0  0  0  0  0  0  0
   -2.8235   -0.2870   -1.1815 H   0  0  0  0  0  0  0  0  0  0  0  0
    1.1834   -0.3488    0.4946 H   0  0  0  0  0  0  0  0  0  0  0  0
    1.2689   -2.1194    0.6849 H   0  0  0  0  0  0  0  0  0  0  0  0
  1  2  2  0
  2  3  1  0
  3  4  1  0
  4  5  1  0
  4  6  1  0
  6  7  1  0
  2  8  1  0
  8  9  1  0
  9 10  1  0
 10 11  1  0
 11 12  1  0
 12 13  1  0
 13 14  1  0
 15 14  1  6
 15 16  1  0
 16 17  1  0
 17 18  1  0
 18 19  1  0
 19 20  1  0
 20 21  1  0
 21 22  1  0
 21 23  1  0
 19 24  1  0
 13 25  1  0
 25  9  1  0
 23 15  1  0
 24 15  1  0
 22 17  1  0
  3 26  1  0
  3 27  1  0
  4 28  1  1
  5 29  1  0
  6 30  1  0
  6 31  1  0
  7 32  1  0
  8 33  1  0
  9 34  1  6
 10 35  1  0
 10 36  1  0
 11 37  1  0
 11 38  1  0
 12 39  1  0
 12 40  1  0
 13 41  1  6
 14 42  1  0
 14 43  1  0
 16 44  1  0
 16 45  1  0
 17 46  1  1
 18 47  1  0
 18 48  1  0
 19 49  1  6
 20 50  1  0
 20 51  1  0
 21 52  1  1
 22 53  1  0
 22 54  1  0
 23 55  1  0
 23 56  1  0
 24 57  1  0
 24 58  1  0
 25 59  1  0
 25 60  1  0
M  CHG  1  13   1
M  END
>  <_SMILES>  (126) 
O=C(C[C@H](O)CO)N[C@@H]1CCC[N@@H+](C[C@]23C[C@H]4C[C@H](C[C@H](C4)C2)C3)C1

$$$$

     RDKit          3D

 60 63  0  0  0  0  0  0  0  0999 V2000
    3.6221   -0.3783   -1.9516 O   0  0  0  0  0  0  0  0  0  0  0  0
    4.0035   -0.8146   -0.8720 C   0  0  0  0  0  0  0  0  0  0  0  0
    5.3839   -0.6041   -0.2970 C   0  0  0  0  0  0  0  0  0  0  0  0
    6.2833    0.2365   -1.1998 C   0  0  2  0  0  0  0  0  0  0  0  0
    7.6091    0.1730   -0.6519 O   0  0  0  0  0  0  0  0  0  0  0  0
    5.8727    1.7120   -1.2910 C   0  0  0  0  0  0  0  0  0  0  0  0
    5.8410    2.2745    0.0234 O   0  0  0  0  0  0  0  0  0  0  0  0
    3.1718   -1.5552   -0.0441 N   0  0  0  0  0  0  0  0  0  0  0  0
    1.8838   -2.0408   -0.5522 C   0  0  1  0  0  0  0  0  0  0  0  0
    1.2330   -2.9441    0.4981 C   0  0  0  0  0  0  0  0  0  0  0  0
    0.8468   -2.1694    1.7634 C   0  0  0  0  0  0  0  0  0  0  0  0
    0.5290   -0.6984    1.5095 C   0  0  0  0  0  0  0  0  0  0  0  0
   -0.0990   -0.5647    0.1471 N   0  0  1  0  0  0  0  0  0  0  0  0
   -0.7619    0.7845   -0.0752 C   0  0  0  0  0  0  0  0  0  0  0  0
   -2.3056    0.7160   -0.0079 C   0  0  2  0  0  0  0  0  0  0  0  0
   -2.8255    0.1660    1.3444 C   0  0  0  0  0  0  0  0  0  0  0  0
   -4.3644    0.1755    1.3837 C   0  0  1  0  0  0  0  0  0  0  0  0
   -4.8697    1.6155    1.2067 C   0  0  0  0  0  0  0  0  0  0  0  0
   -4.3928    2.1760   -0.1418 C   0  0  2  0  0  0  0  0  0  0  0  0
   -4.9346    1.2972   -1.2796 C   0  0  0  0  0  0  0  0  0  0  0  0
   -4.4295   -0.1444   -1.1146 C   0  0  2  0  0  0  0  0  0  0  0  0
   -4.9050   -0.6970    0.2390 C   0  0  0  0  0  0  0  0  0  0  0  0
   -2.8906   -0.1534   -1.1537 C   0  0  0  0  0  0  0  0  0  0  0  0
   -2.8561    2.1604   -0.1799 C   0  0  0  0  0  0  0  0  0  0  0  0
    0.9075   -0.8949   -0.9613 C   0  0  0  0  0  0  0  0  0  0  0  0
    5.2959   -0.1555    0.6995 H   0  0  0  0  0  0  0  0  0  0  0  0
    5.8433   -1.5904   -0.1524 H   0  0  0  0  0  0  0  0  0  0  0  0
    6.3273   -0.1936   -2.2062 H   0  0  0  0  0  0  0  0  0  0  0  0
    7.6324    0.8226    0.0785 H   0  0  0  0  0  0  0  0  0  0  0  0
    4.8901    1.8437   -1.7503 H   0  0  0  0  0  0  0  0  0  0  0  0
    6.6166    2.2696   -1.8700 H   0  0  0  0  0  0  0  0  0  0  0  0
    5.8015    3.2421   -0.0912 H   0  0  0  0  0  0  0  0  0  0  0  0
    3.6708   -2.1521    0.6115 H   0  0  0  0  0  0  0  0  0  0  0  0
    2.1167   -2.6289   -1.4487 H   0  0  0  0  0  0  0  0  0  0  0  0
    0.3315   -3.3982    0.0665 H   0  0  0  0  0  0  0  0  0  0  0  0
    1.8967   -3.7744    0.7682 H   0  0  0  0  0  0  0  0  0  0  0  0
    1.6558   -2.2299    2.5014 H   0  0  0  0  0  0  0  0  0  0  0  0
   -0.0188   -2.6622    2.2232 H   0  0  0  0  0  0  0  0  0  0  0  0
    1.4241   -0.0669    1.5259 H   0  0  0  0  0  0  0  0  0  0  0  0
   -0.1762   -0.3264    2.2587 H   0  0  0  0  0  0  0  0  0  0  0  0
   -0.8307   -1.2818    0.0899 H   0  0  0  0  0  0  0  0  0  0  0  0
   -0.4573    1.1481   -1.0639 H   0  0  0  0  0  0  0  0  0  0  0  0
   -0.3550    1.4788    0.6695 H   0  0  0  0  0  0  0  0  0  0  0  0
   -2.4782   -0.8610    1.5077 H   0  0  0  0  0  0  0  0  0  0  0  0
   -2.4337    0.7703    2.1725 H   0  0  0  0  0  0  0  0  0  0  0  0
   -4.7104   -0.2210    2.3448 H   0  0  0  0  0  0  0  0  0  0  0  0
   -4.5026    2.2454    2.0262 H   0  0  0  0  0  0  0  0  0  0  0  0
   -5.9654    1.6369    1.2551 H   0  0  0  0  0  0  0  0  0  0  0  0
   -4.7550    3.2029   -0.2638 H   0  0  0  0  0  0  0  0  0  0  0  0
   -6.0314    1.3130   -1.2756 H   0  0  0  0  0  0  0  0  0  0  0  0
   -4.6142    1.6984   -2.2490 H   0  0  0  0  0  0  0  0  0  0  0  0
   -4.8219   -0.7675   -1.9261 H   0  0  0  0  0  0  0  0  0  0  0  0
   -6.0013   -0.7181    0.2703 H   0  0  0  0  0  0  0  0  0  0  0  0
   -4.5633   -1.7321    0.3625 H   0  0  0  0  0  0  0  0  0  0  0  0
   -2.5426   -1.1901   -1.0783 H   0  0  0  0  0  0  0  0  0  0  0  0
   -2.5457    0.2227   -2.1255 H   0  0  0  0  0  0  0  0  0  0  0  0
   -2.4645    2.8096    0.6142 H   0  0  0  0  0  0  0  0  0  0  0  0
   -2.5102    2.5855   -1.1312 H   0  0  0  0  0  0  0  0  0  0  0  0
    0.2976   -1.2039   -1.8172 H   0  0  0  0  0  0  0  0  0  0  0  0
    1.4251    0.0363   -1.2029 H   0  0  0  0  0  0  0  0  0  0  0  0
  1  2  2  0
  2  3  1  0
  3  4  1  0
  4  5  1  0
  4  6  1  0
  6  7  1  0
  2  8  1  0
  8  9  1  0
  9 10  1  0
 10 11  1  0
 11 12  1  0
 12 13  1  0
 13 14  1  0
 15 14  1  1
 15 16  1  0
 16 17  1  0
 17 18  1  0
 18 19  1  0
 19 20  1  0
 20 21  1  0
 21 22  1  0
 21 23  1  0
 19 24  1  0
 13 25  1  0
 25  9  1  0
 23 15  1  0
 24 15  1  0
 22 17  1  0
  3 26  1  0
  3 27  1  0
  4 28  1  6
  5 29  1  0
  6 30  1  0
  6 31  1  0
  7 32  1  0
  8 33  1  0
  9 34  1  6
 10 35  1  0
 10 36  1  0
 11 37  1  0
 11 38  1  0
 12 39  1  0
 12 40  1  0
 13 41  1  1
 14 42  1  0
 14 43  1  0
 16 44  1  0
 16 45  1  0
 17 46  1  1
 18 47  1  0
 18 48  1  0
 19 49  1  6
 20 50  1  0
 20 51  1  0
 21 52  1  6
 22 53  1  0
 22 54  1  0
 23 55  1  0
 23 56  1  0
 24 57  1  0
 24 58  1  0
 25 59  1  0
 25 60  1  0
M  CHG  1  13   1
M  END
>  <_SMILES>  (127) 
O=C(C[C@H](O)CO)N[C@H]1CCC[N@@H+](C[C@]23C[C@H]4C[C@H](C[C@H](C4)C2)C3)C1

$$$$

     RDKit          3D

 60 63  0  0  0  0  0  0  0  0999 V2000
    3.0573    1.0028   -1.0188 O   0  0  0  0  0  0  0  0  0  0  0  0
    3.7188    1.0678    0.0121 C   0  0  0  0  0  0  0  0  0  0  0  0
    5.2153    0.8602    0.0571 C   0  0  0  0  0  0  0  0  0  0  0  0
    5.5867   -0.4574    0.7242 C   0  0  1  0  0  0  0  0  0  0  0  0
    5.0447   -0.5107    2.0569 O   0  0  0  0  0  0  0  0  0  0  0  0
    5.1101   -1.6879   -0.0542 C   0  0  0  0  0  0  0  0  0  0  0  0
    5.4533   -2.8447    0.7115 O   0  0  0  0  0  0  0  0  0  0  0  0
    3.1466    1.3034    1.2435 N   0  0  0  0  0  0  0  0  0  0  0  0
    1.7120    1.4621    1.3822 C   0  0  2  0  0  0  0  0  0  0  0  0
    1.3614    1.9877    2.7761 C   0  0  0  0  0  0  0  0  0  0  0  0
   -0.1473    2.1390    2.9504 C   0  0  0  0  0  0  0  0  0  0  0  0
   -0.8912    0.8444    2.6527 C   0  0  0  0  0  0  0  0  0  0  0  0
   -0.5527    0.3764    1.2576 N   0  0  2  0  0  0  0  0  0  0  0  0
   -1.3579   -0.8436    0.8419 C   0  0  0  0  0  0  0  0  0  0  0  0
   -2.2192   -0.5895   -0.4153 C   0  0  2  0  0  0  0  0  0  0  0  0
   -1.3606   -0.2073   -1.6491 C   0  0  0  0  0  0  0  0  0  0  0  0
   -2.2467   -0.0244   -2.8944 C   0  0  1  0  0  0  0  0  0  0  0  0
   -2.9843   -1.3390   -3.1920 C   0  0  0  0  0  0  0  0  0  0  0  0
   -3.8652   -1.7283   -1.9951 C   0  0  2  0  0  0  0  0  0  0  0  0
   -4.8886   -0.6132   -1.7314 C   0  0  0  0  0  0  0  0  0  0  0  0
   -4.1608    0.7051   -1.4262 C   0  0  2  0  0  0  0  0  0  0  0  0
   -3.2758    1.0857   -2.6246 C   0  0  0  0  0  0  0  0  0  0  0  0
   -3.2757    0.5222   -0.1801 C   0  0  0  0  0  0  0  0  0  0  0  0
   -2.9785   -1.9042   -0.7517 C   0  0  0  0  0  0  0  0  0  0  0  0
    0.9416    0.1580    1.0840 C   0  0  0  0  0  0  0  0  0  0  0  0
    5.6114    0.9099   -0.9630 H   0  0  0  0  0  0  0  0  0  0  0  0
    5.6454    1.6993    0.6177 H   0  0  0  0  0  0  0  0  0  0  0  0
    6.6762   -0.5070    0.8374 H   0  0  0  0  0  0  0  0  0  0  0  0
    5.2896   -1.4108    2.3680 H   0  0  0  0  0  0  0  0  0  0  0  0
    5.5927   -1.7453   -1.0345 H   0  0  0  0  0  0  0  0  0  0  0  0
    4.0230   -1.6947   -0.1763 H   0  0  0  0  0  0  0  0  0  0  0  0
    5.3638   -3.6163    0.1221 H   0  0  0  0  0  0  0  0  0  0  0  0
    3.7097    0.9856    2.0385 H   0  0  0  0  0  0  0  0  0  0  0  0
    1.4050    2.2118    0.6400 H   0  0  0  0  0  0  0  0  0  0  0  0
    1.7500    1.3041    3.5423 H   0  0  0  0  0  0  0  0  0  0  0  0
    1.8494    2.9550    2.9468 H   0  0  0  0  0  0  0  0  0  0  0  0
   -0.3662    2.4574    3.9759 H   0  0  0  0  0  0  0  0  0  0  0  0
   -0.5121    2.9332    2.2870 H   0  0  0  0  0  0  0  0  0  0  0  0
   -0.6132    0.0448    3.3482 H   0  0  0  0  0  0  0  0  0  0  0  0
   -1.9733    1.0071    2.6909 H   0  0  0  0  0  0  0  0  0  0  0  0
   -0.7968    1.1453    0.6206 H   0  0  0  0  0  0  0  0  0  0  0  0
   -1.9927   -1.1280    1.6899 H   0  0  0  0  0  0  0  0  0  0  0  0
   -0.6543   -1.6680    0.6748 H   0  0  0  0  0  0  0  0  0  0  0  0
   -0.8093    0.7234   -1.4712 H   0  0  0  0  0  0  0  0  0  0  0  0
   -0.6109   -0.9855   -1.8418 H   0  0  0  0  0  0  0  0  0  0  0  0
   -1.6233    0.2508   -3.7525 H   0  0  0  0  0  0  0  0  0  0  0  0
   -3.6022   -1.2268   -4.0914 H   0  0  0  0  0  0  0  0  0  0  0  0
   -2.2604   -2.1364   -3.4006 H   0  0  0  0  0  0  0  0  0  0  0  0
   -4.3886   -2.6663   -2.2114 H   0  0  0  0  0  0  0  0  0  0  0  0
   -5.5401   -0.4881   -2.6050 H   0  0  0  0  0  0  0  0  0  0  0  0
   -5.5352   -0.8885   -0.8891 H   0  0  0  0  0  0  0  0  0  0  0  0
   -4.8950    1.4976   -1.2431 H   0  0  0  0  0  0  0  0  0  0  0  0
   -2.7613    2.0337   -2.4249 H   0  0  0  0  0  0  0  0  0  0  0  0
   -3.8982    1.2428   -3.5141 H   0  0  0  0  0  0  0  0  0  0  0  0
   -2.7948    1.4793    0.0535 H   0  0  0  0  0  0  0  0  0  0  0  0
   -3.9037    0.2680    0.6835 H   0  0  0  0  0  0  0  0  0  0  0  0
   -3.6003   -2.2093    0.1002 H   0  0  0  0  0  0  0  0  0  0  0  0
   -2.2633   -2.7189   -0.9252 H   0  0  0  0  0  0  0  0  0  0  0  0
    1.0970   -0.1751    0.0537 H   0  0  0  0  0  0  0  0  0  0  0  0
    1.2387   -0.6489    1.7649 H   0  0  0  0  0  0  0  0  0  0  0  0
  1  2  2  0
  2  3  1  0
  3  4  1  0
  4  5  1  0
  4  6  1  0
  6  7  1  0
  2  8  1  0
  8  9  1  0
  9 10  1  0
 10 11  1  0
 11 12  1  0
 12 13  1  0
 13 14  1  0
 15 14  1  1
 15 16  1  0
 16 17  1  0
 17 18  1  0
 18 19  1  0
 19 20  1  0
 20 21  1  0
 21 22  1  0
 21 23  1  0
 19 24  1  0
 13 25  1  0
 25  9  1  0
 23 15  1  0
 24 15  1  0
 22 17  1  0
  3 26  1  0
  3 27  1  0
  4 28  1  1
  5 29  1  0
  6 30  1  0
  6 31  1  0
  7 32  1  0
  8 33  1  0
  9 34  1  6
 10 35  1  0
 10 36  1  0
 11 37  1  0
 11 38  1  0
 12 39  1  0
 12 40  1  0
 13 41  1  6
 14 42  1  0
 14 43  1  0
 16 44  1  0
 16 45  1  0
 17 46  1  6
 18 47  1  0
 18 48  1  0
 19 49  1  6
 20 50  1  0
 20 51  1  0
 21 52  1  1
 22 53  1  0
 22 54  1  0
 23 55  1  0
 23 56  1  0
 24 57  1  0
 24 58  1  0
 25 59  1  0
 25 60  1  0
M  CHG  1  13   1
M  END
>  <_SMILES>  (128) 
O=C(C[C@@H](O)CO)N[C@@H]1CCC[N@H+](C[C@]23C[C@H]4C[C@H](C[C@H](C4)C2)C3)C1

$$$$

     RDKit          3D

 60 63  0  0  0  0  0  0  0  0999 V2000
    3.0518   -1.7071   -1.1283 O   0  0  0  0  0  0  0  0  0  0  0  0
    3.5514   -1.1952   -0.1320 C   0  0  0  0  0  0  0  0  0  0  0  0
    4.6810   -1.8287    0.6438 C   0  0  0  0  0  0  0  0  0  0  0  0
    6.0589   -1.4086    0.1331 C   0  0  2  0  0  0  0  0  0  0  0  0
    7.0257   -1.8030    1.1176 O   0  0  0  0  0  0  0  0  0  0  0  0
    6.2207    0.1047   -0.0634 C   0  0  0  0  0  0  0  0  0  0  0  0
    5.7397    0.7976    1.0946 O   0  0  0  0  0  0  0  0  0  0  0  0
    3.1266    0.0221    0.3653 N   0  0  0  0  0  0  0  0  0  0  0  0
    2.2107    0.8561   -0.4060 C   0  0  2  0  0  0  0  0  0  0  0  0
    1.9130    2.1445    0.3619 C   0  0  0  0  0  0  0  0  0  0  0  0
    0.9901    3.0867   -0.4098 C   0  0  0  0  0  0  0  0  0  0  0  0
    0.0568    2.3861   -1.3894 C   0  0  0  0  0  0  0  0  0  0  0  0
   -0.3097    1.0143   -0.8964 N   0  0  2  0  0  0  0  0  0  0  0  0
   -1.1762    1.0124    0.3523 C   0  0  0  0  0  0  0  0  0  0  0  0
   -2.4612    0.1662    0.1956 C   0  0  2  0  0  0  0  0  0  0  0  0
   -3.2201    0.1938    1.5530 C   0  0  0  0  0  0  0  0  0  0  0  0
   -4.5235   -0.6175    1.4759 C   0  0  1  0  0  0  0  0  0  0  0  0
   -5.4270   -0.0182    0.3874 C   0  0  0  0  0  0  0  0  0  0  0  0
   -4.7108   -0.0624   -0.9712 C   0  0  2  0  0  0  0  0  0  0  0  0
   -4.3750   -1.5214   -1.3210 C   0  0  0  0  0  0  0  0  0  0  0  0
   -3.4686   -2.1282   -0.2374 C   0  0  2  0  0  0  0  0  0  0  0  0
   -4.1909   -2.0738    1.1175 C   0  0  0  0  0  0  0  0  0  0  0  0
   -2.1645   -1.3146   -0.1533 C   0  0  0  0  0  0  0  0  0  0  0  0
   -3.4070    0.7519   -0.8872 C   0  0  0  0  0  0  0  0  0  0  0  0
    0.9098    0.1048   -0.8082 C   0  0  0  0  0  0  0  0  0  0  0  0
    4.5698   -1.5879    1.7091 H   0  0  0  0  0  0  0  0  0  0  0  0
    4.5759   -2.9190    0.5884 H   0  0  0  0  0  0  0  0  0  0  0  0
    6.3028   -1.9178   -0.8059 H   0  0  0  0  0  0  0  0  0  0  0  0
    7.0887   -2.7759    1.1003 H   0  0  0  0  0  0  0  0  0  0  0  0
    5.6532    0.4575   -0.9296 H   0  0  0  0  0  0  0  0  0  0  0  0
    7.2717    0.3774   -0.2056 H   0  0  0  0  0  0  0  0  0  0  0  0
    6.3574    0.5310    1.8089 H   0  0  0  0  0  0  0  0  0  0  0  0
    3.8409    0.5089    0.9193 H   0  0  0  0  0  0  0  0  0  0  0  0
    2.7462    1.1197   -1.3282 H   0  0  0  0  0  0  0  0  0  0  0  0
    2.8444    2.6714    0.6054 H   0  0  0  0  0  0  0  0  0  0  0  0
    1.4568    1.8972    1.3292 H   0  0  0  0  0  0  0  0  0  0  0  0
    1.5917    3.8143   -0.9684 H   0  0  0  0  0  0  0  0  0  0  0  0
    0.4069    3.6751    0.3090 H   0  0  0  0  0  0  0  0  0  0  0  0
    0.5408    2.2473   -2.3631 H   0  0  0  0  0  0  0  0  0  0  0  0
   -0.8691    2.9489   -1.5495 H   0  0  0  0  0  0  0  0  0  0  0  0
   -0.8764    0.6054   -1.6487 H   0  0  0  0  0  0  0  0  0  0  0  0
   -1.4468    2.0527    0.5684 H   0  0  0  0  0  0  0  0  0  0  0  0
   -0.5626    0.6521    1.1857 H   0  0  0  0  0  0  0  0  0  0  0  0
   -3.4506    1.2294    1.8355 H   0  0  0  0  0  0  0  0  0  0  0  0
   -2.5830   -0.2136    2.3491 H   0  0  0  0  0  0  0  0  0  0  0  0
   -5.0378   -0.5833    2.4428 H   0  0  0  0  0  0  0  0  0  0  0  0
   -5.6854    1.0170    0.6418 H   0  0  0  0  0  0  0  0  0  0  0  0
   -6.3692   -0.5772    0.3328 H   0  0  0  0  0  0  0  0  0  0  0  0
   -5.3608    0.3624   -1.7443 H   0  0  0  0  0  0  0  0  0  0  0  0
   -5.2983   -2.1073   -1.4076 H   0  0  0  0  0  0  0  0  0  0  0  0
   -3.8760   -1.5679   -2.2968 H   0  0  0  0  0  0  0  0  0  0  0  0
   -3.2373   -3.1691   -0.4902 H   0  0  0  0  0  0  0  0  0  0  0  0
   -3.5597   -2.5177    1.8972 H   0  0  0  0  0  0  0  0  0  0  0  0
   -5.1112   -2.6692    1.0759 H   0  0  0  0  0  0  0  0  0  0  0  0
   -1.5054   -1.7557    0.6053 H   0  0  0  0  0  0  0  0  0  0  0  0
   -1.6403   -1.3926   -1.1130 H   0  0  0  0  0  0  0  0  0  0  0  0
   -2.9272    0.7500   -1.8726 H   0  0  0  0  0  0  0  0  0  0  0  0
   -3.6419    1.7988   -0.6556 H   0  0  0  0  0  0  0  0  0  0  0  0
    0.6663   -0.7057   -0.1132 H   0  0  0  0  0  0  0  0  0  0  0  0
    1.0237   -0.3328   -1.8068 H   0  0  0  0  0  0  0  0  0  0  0  0
  1  2  2  0
  2  3  1  0
  3  4  1  0
  4  5  1  0
  4  6  1  0
  6  7  1  0
  2  8  1  0
  8  9  1  0
  9 10  1  0
 10 11  1  0
 11 12  1  0
 12 13  1  0
 13 14  1  0
 15 14  1  1
 15 16  1  0
 16 17  1  0
 17 18  1  0
 18 19  1  0
 19 20  1  0
 20 21  1  0
 21 22  1  0
 21 23  1  0
 19 24  1  0
 13 25  1  0
 25  9  1  0
 23 15  1  0
 24 15  1  0
 22 17  1  0
  3 26  1  0
  3 27  1  0
  4 28  1  6
  5 29  1  0
  6 30  1  0
  6 31  1  0
  7 32  1  0
  8 33  1  0
  9 34  1  6
 10 35  1  0
 10 36  1  0
 11 37  1  0
 11 38  1  0
 12 39  1  0
 12 40  1  0
 13 41  1  6
 14 42  1  0
 14 43  1  0
 16 44  1  0
 16 45  1  0
 17 46  1  1
 18 47  1  0
 18 48  1  0
 19 49  1  6
 20 50  1  0
 20 51  1  0
 21 52  1  6
 22 53  1  0
 22 54  1  0
 23 55  1  0
 23 56  1  0
 24 57  1  0
 24 58  1  0
 25 59  1  0
 25 60  1  0
M  CHG  1  13   1
M  END
>  <_SMILES>  (129) 
O=C(C[C@H](O)CO)N[C@@H]1CCC[N@H+](C[C@]23C[C@H]4C[C@H](C[C@H](C4)C2)C3)C1

$$$$

     RDKit          3D

 60 63  0  0  0  0  0  0  0  0999 V2000
    4.7933   -1.4335   -1.9796 O   0  0  0  0  0  0  0  0  0  0  0  0
    4.5806   -0.9718   -0.8624 C   0  0  0  0  0  0  0  0  0  0  0  0
    5.6627   -0.9260    0.2004 C   0  0  0  0  0  0  0  0  0  0  0  0
    6.1069    0.4604    0.6710 C   0  0  1  0  0  0  0  0  0  0  0  0
    6.2740    1.3529   -0.4338 O   0  0  0  0  0  0  0  0  0  0  0  0
    5.1460    1.1226    1.6663 C   0  0  0  0  0  0  0  0  0  0  0  0
    3.9810    1.5903    0.9717 O   0  0  0  0  0  0  0  0  0  0  0  0
    3.3363   -0.5182   -0.4746 N   0  0  0  0  0  0  0  0  0  0  0  0
    2.2555   -0.4032   -1.4604 C   0  0  1  0  0  0  0  0  0  0  0  0
    1.6998   -1.7863   -1.8204 C   0  0  0  0  0  0  0  0  0  0  0  0
    1.0858   -2.4872   -0.6039 C   0  0  0  0  0  0  0  0  0  0  0  0
    0.5706   -1.5253    0.4624 C   0  0  0  0  0  0  0  0  0  0  0  0
    0.0205   -0.2912   -0.2101 N   0  0  1  0  0  0  0  0  0  0  0  0
   -0.8013    0.5796    0.7232 C   0  0  0  0  0  0  0  0  0  0  0  0
   -2.3208    0.4880    0.4510 C   0  0  2  0  0  0  0  0  0  0  0  0
   -2.8683   -0.9558    0.5850 C   0  0  0  0  0  0  0  0  0  0  0  0
   -4.3918   -0.9853    0.3662 C   0  0  1  0  0  0  0  0  0  0  0  0
   -5.0748   -0.0966    1.4169 C   0  0  0  0  0  0  0  0  0  0  0  0
   -4.5713    1.3490    1.2874 C   0  0  2  0  0  0  0  0  0  0  0  0
   -4.8921    1.8766   -0.1193 C   0  0  0  0  0  0  0  0  0  0  0  0
   -4.2082    0.9975   -1.1776 C   0  0  2  0  0  0  0  0  0  0  0  0
   -4.7116   -0.4486   -1.0386 C   0  0  0  0  0  0  0  0  0  0  0  0
   -2.6847    1.0273   -0.9585 C   0  0  0  0  0  0  0  0  0  0  0  0
   -3.0492    1.3744    1.5011 C   0  0  0  0  0  0  0  0  0  0  0  0
    1.1060    0.4996   -0.9429 C   0  0  0  0  0  0  0  0  0  0  0  0
    5.3496   -1.5458    1.0485 H   0  0  0  0  0  0  0  0  0  0  0  0
    6.5349   -1.4256   -0.2427 H   0  0  0  0  0  0  0  0  0  0  0  0
    7.0780    0.3564    1.1697 H   0  0  0  0  0  0  0  0  0  0  0  0
    6.9663    0.9810   -1.0145 H   0  0  0  0  0  0  0  0  0  0  0  0
    4.8372    0.4342    2.4581 H   0  0  0  0  0  0  0  0  0  0  0  0
    5.6154    1.9982    2.1269 H   0  0  0  0  0  0  0  0  0  0  0  0
    4.3648    2.2089    0.3076 H   0  0  0  0  0  0  0  0  0  0  0  0
    3.3852    0.2057    0.2468 H   0  0  0  0  0  0  0  0  0  0  0  0
    2.6871    0.0678   -2.3521 H   0  0  0  0  0  0  0  0  0  0  0  0
    2.4659   -2.4339   -2.2603 H   0  0  0  0  0  0  0  0  0  0  0  0
    0.9275   -1.6659   -2.5916 H   0  0  0  0  0  0  0  0  0  0  0  0
    1.8251   -3.1542   -0.1442 H   0  0  0  0  0  0  0  0  0  0  0  0
    0.2686   -3.1330   -0.9481 H   0  0  0  0  0  0  0  0  0  0  0  0
   -0.2344   -1.9937    1.0371 H   0  0  0  0  0  0  0  0  0  0  0  0
    1.3524   -1.2038    1.1585 H   0  0  0  0  0  0  0  0  0  0  0  0
   -0.6081   -0.6392   -0.9436 H   0  0  0  0  0  0  0  0  0  0  0  0
   -0.5582    0.2838    1.7507 H   0  0  0  0  0  0  0  0  0  0  0  0
   -0.4689    1.6164    0.5945 H   0  0  0  0  0  0  0  0  0  0  0  0
   -2.6322   -1.3575    1.5786 H   0  0  0  0  0  0  0  0  0  0  0  0
   -2.3972   -1.6221   -0.1471 H   0  0  0  0  0  0  0  0  0  0  0  0
   -4.7572   -2.0142    0.4601 H   0  0  0  0  0  0  0  0  0  0  0  0
   -4.8661   -0.4781    2.4240 H   0  0  0  0  0  0  0  0  0  0  0  0
   -6.1632   -0.1277    1.2840 H   0  0  0  0  0  0  0  0  0  0  0  0
   -5.0604    1.9791    2.0386 H   0  0  0  0  0  0  0  0  0  0  0  0
   -5.9772    1.8806   -0.2797 H   0  0  0  0  0  0  0  0  0  0  0  0
   -4.5521    2.9149   -0.2175 H   0  0  0  0  0  0  0  0  0  0  0  0
   -4.4435    1.3756   -2.1788 H   0  0  0  0  0  0  0  0  0  0  0  0
   -4.2416   -1.0842   -1.7991 H   0  0  0  0  0  0  0  0  0  0  0  0
   -5.7934   -0.4868   -1.2164 H   0  0  0  0  0  0  0  0  0  0  0  0
   -2.2044    0.4321   -1.7438 H   0  0  0  0  0  0  0  0  0  0  0  0
   -2.3168    2.0548   -1.0752 H   0  0  0  0  0  0  0  0  0  0  0  0
   -2.8168    1.0244    2.5155 H   0  0  0  0  0  0  0  0  0  0  0  0
   -2.6887    2.4095    1.4366 H   0  0  0  0  0  0  0  0  0  0  0  0
    1.4856    1.2690   -0.2626 H   0  0  0  0  0  0  0  0  0  0  0  0
    0.5916    0.9840   -1.7801 H   0  0  0  0  0  0  0  0  0  0  0  0
  1  2  2  0
  2  3  1  0
  3  4  1  0
  4  5  1  0
  4  6  1  0
  6  7  1  0
  2  8  1  0
  8  9  1  0
  9 10  1  0
 10 11  1  0
 11 12  1  0
 12 13  1  0
 13 14  1  0
 15 14  1  1
 15 16  1  0
 16 17  1  0
 17 18  1  0
 18 19  1  0
 19 20  1  0
 20 21  1  0
 21 22  1  0
 21 23  1  0
 19 24  1  0
 13 25  1  0
 25  9  1  0
 23 15  1  0
 24 15  1  0
 22 17  1  0
  3 26  1  0
  3 27  1  0
  4 28  1  1
  5 29  1  0
  6 30  1  0
  6 31  1  0
  7 32  1  0
  8 33  1  0
  9 34  1  6
 10 35  1  0
 10 36  1  0
 11 37  1  0
 11 38  1  0
 12 39  1  0
 12 40  1  0
 13 41  1  6
 14 42  1  0
 14 43  1  0
 16 44  1  0
 16 45  1  0
 17 46  1  6
 18 47  1  0
 18 48  1  0
 19 49  1  1
 20 50  1  0
 20 51  1  0
 21 52  1  6
 22 53  1  0
 22 54  1  0
 23 55  1  0
 23 56  1  0
 24 57  1  0
 24 58  1  0
 25 59  1  0
 25 60  1  0
M  CHG  1  13   1
M  END
>  <_SMILES>  (130) 
O=C(C[C@@H](O)CO)N[C@H]1CCC[N@@H+](C[C@]23C[C@H]4C[C@H](C[C@H](C4)C2)C3)C1

$$$$

     RDKit          3D

 60 63  0  0  0  0  0  0  0  0999 V2000
    2.9111    1.7281    1.5287 O   0  0  0  0  0  0  0  0  0  0  0  0
    3.4405    1.4599    0.4555 C   0  0  0  0  0  0  0  0  0  0  0  0
    4.5122    0.4074    0.3047 C   0  0  0  0  0  0  0  0  0  0  0  0
    4.0843   -0.9082    0.9554 C   0  0  2  0  0  0  0  0  0  0  0  0
    5.1408   -1.8472    0.7617 O   0  0  0  0  0  0  0  0  0  0  0  0
    2.7840   -1.4748    0.3521 C   0  0  0  0  0  0  0  0  0  0  0  0
    1.6536   -0.6339    0.6000 O   0  0  0  0  0  0  0  0  0  0  0  0
    3.0466    2.0262   -0.7385 N   0  0  0  0  0  0  0  0  0  0  0  0
    2.0425    3.0921   -0.7961 C   0  0  1  0  0  0  0  0  0  0  0  0
    1.7390    3.4218   -2.2666 C   0  0  0  0  0  0  0  0  0  0  0  0
    0.6476    2.5290   -2.8726 C   0  0  0  0  0  0  0  0  0  0  0  0
    0.4422    1.2231   -2.1171 C   0  0  0  0  0  0  0  0  0  0  0  0
    0.0566    1.4942   -0.6764 N   0  0  2  0  0  0  0  0  0  0  0  0
   -1.4456    1.4861   -0.4477 C   0  0  0  0  0  0  0  0  0  0  0  0
   -2.0050    0.1626    0.1196 C   0  0  2  0  0  0  0  0  0  0  0  0
   -3.5605    0.2483    0.0957 C   0  0  0  0  0  0  0  0  0  0  0  0
   -4.1959   -1.0253    0.6805 C   0  0  1  0  0  0  0  0  0  0  0  0
   -3.7476   -2.2404   -0.1456 C   0  0  0  0  0  0  0  0  0  0  0  0
   -2.2164   -2.3601   -0.1106 C   0  0  2  0  0  0  0  0  0  0  0  0
   -1.7489   -2.5227    1.3448 C   0  0  0  0  0  0  0  0  0  0  0  0
   -2.1987   -1.3147    2.1821 C   0  0  2  0  0  0  0  0  0  0  0  0
   -3.7305   -1.2032    2.1338 C   0  0  0  0  0  0  0  0  0  0  0  0
   -1.5827   -0.0317    1.5989 C   0  0  0  0  0  0  0  0  0  0  0  0
   -1.5953   -1.0831   -0.7030 C   0  0  0  0  0  0  0  0  0  0  0  0
    0.7045    2.7542   -0.0939 C   0  0  0  0  0  0  0  0  0  0  0  0
    5.4307    0.7828    0.7707 H   0  0  0  0  0  0  0  0  0  0  0  0
    4.7546    0.2380   -0.7514 H   0  0  0  0  0  0  0  0  0  0  0  0
    3.9542   -0.7516    2.0330 H   0  0  0  0  0  0  0  0  0  0  0  0
    5.0061   -2.5935    1.3738 H   0  0  0  0  0  0  0  0  0  0  0  0
    2.5715   -2.4643    0.7715 H   0  0  0  0  0  0  0  0  0  0  0  0
    2.8838   -1.6061   -0.7308 H   0  0  0  0  0  0  0  0  0  0  0  0
    1.6758   -0.4587    1.5654 H   0  0  0  0  0  0  0  0  0  0  0  0
    3.7677    2.0362   -1.4552 H   0  0  0  0  0  0  0  0  0  0  0  0
    2.4944    3.9662   -0.3127 H   0  0  0  0  0  0  0  0  0  0  0  0
    1.4043    4.4644   -2.3423 H   0  0  0  0  0  0  0  0  0  0  0  0
    2.6504    3.3535   -2.8736 H   0  0  0  0  0  0  0  0  0  0  0  0
    0.8947    2.3164   -3.9192 H   0  0  0  0  0  0  0  0  0  0  0  0
   -0.2980    3.0861   -2.8918 H   0  0  0  0  0  0  0  0  0  0  0  0
    1.3536    0.6166   -2.1024 H   0  0  0  0  0  0  0  0  0  0  0  0
   -0.3441    0.6201   -2.5804 H   0  0  0  0  0  0  0  0  0  0  0  0
    0.4915    0.7136   -0.1415 H   0  0  0  0  0  0  0  0  0  0  0  0
   -1.9195    1.7469   -1.4015 H   0  0  0  0  0  0  0  0  0  0  0  0
   -1.6783    2.2977    0.2528 H   0  0  0  0  0  0  0  0  0  0  0  0
   -3.8998    1.1218    0.6679 H   0  0  0  0  0  0  0  0  0  0  0  0
   -3.9138    0.3921   -0.9338 H   0  0  0  0  0  0  0  0  0  0  0  0
   -5.2879   -0.9406    0.6502 H   0  0  0  0  0  0  0  0  0  0  0  0
   -4.0927   -2.1377   -1.1817 H   0  0  0  0  0  0  0  0  0  0  0  0
   -4.2045   -3.1546    0.2529 H   0  0  0  0  0  0  0  0  0  0  0  0
   -1.9015   -3.2294   -0.6988 H   0  0  0  0  0  0  0  0  0  0  0  0
   -2.1628   -3.4458    1.7688 H   0  0  0  0  0  0  0  0  0  0  0  0
   -0.6567   -2.6180    1.3801 H   0  0  0  0  0  0  0  0  0  0  0  0
   -1.8713   -1.4419    3.2201 H   0  0  0  0  0  0  0  0  0  0  0  0
   -4.0644   -0.3531    2.7414 H   0  0  0  0  0  0  0  0  0  0  0  0
   -4.1861   -2.1022    2.5669 H   0  0  0  0  0  0  0  0  0  0  0  0
   -1.9033    0.8304    2.1986 H   0  0  0  0  0  0  0  0  0  0  0  0
   -0.4964   -0.0792    1.6941 H   0  0  0  0  0  0  0  0  0  0  0  0
   -1.9217   -0.9701   -1.7446 H   0  0  0  0  0  0  0  0  0  0  0  0
   -0.5077   -1.2018   -0.7252 H   0  0  0  0  0  0  0  0  0  0  0  0
    0.0035    3.5841   -0.2487 H   0  0  0  0  0  0  0  0  0  0  0  0
    0.7951    2.5861    0.9817 H   0  0  0  0  0  0  0  0  0  0  0  0
  1  2  2  0
  2  3  1  0
  3  4  1  0
  4  5  1  0
  4  6  1  0
  6  7  1  0
  2  8  1  0
  8  9  1  0
  9 10  1  0
 10 11  1  0
 11 12  1  0
 12 13  1  0
 13 14  1  0
 15 14  1  6
 15 16  1  0
 16 17  1  0
 17 18  1  0
 18 19  1  0
 19 20  1  0
 20 21  1  0
 21 22  1  0
 21 23  1  0
 19 24  1  0
 13 25  1  0
 25  9  1  0
 23 15  1  0
 24 15  1  0
 22 17  1  0
  3 26  1  0
  3 27  1  0
  4 28  1  1
  5 29  1  0
  6 30  1  0
  6 31  1  0
  7 32  1  0
  8 33  1  0
  9 34  1  1
 10 35  1  0
 10 36  1  0
 11 37  1  0
 11 38  1  0
 12 39  1  0
 12 40  1  0
 13 41  1  1
 14 42  1  0
 14 43  1  0
 16 44  1  0
 16 45  1  0
 17 46  1  1
 18 47  1  0
 18 48  1  0
 19 49  1  6
 20 50  1  0
 20 51  1  0
 21 52  1  1
 22 53  1  0
 22 54  1  0
 23 55  1  0
 23 56  1  0
 24 57  1  0
 24 58  1  0
 25 59  1  0
 25 60  1  0
M  CHG  1  13   1
M  END
>  <_SMILES>  (131) 
O=C(C[C@H](O)CO)N[C@H]1CCC[N@H+](C[C@]23C[C@H]4C[C@H](C[C@H](C4)C2)C3)C1

$$$$

     RDKit          3D

 60 63  0  0  0  0  0  0  0  0999 V2000
    3.0982    0.8028   -1.0213 O   0  0  0  0  0  0  0  0  0  0  0  0
    3.8291    0.5043   -0.0827 C   0  0  0  0  0  0  0  0  0  0  0  0
    5.2697    0.0862   -0.2515 C   0  0  0  0  0  0  0  0  0  0  0  0
    5.4160   -1.3957   -0.5944 C   0  0  1  0  0  0  0  0  0  0  0  0
    6.7719   -1.7779   -0.3214 O   0  0  0  0  0  0  0  0  0  0  0  0
    4.5230   -2.3277    0.2359 C   0  0  0  0  0  0  0  0  0  0  0  0
    4.6512   -2.0202    1.6289 O   0  0  0  0  0  0  0  0  0  0  0  0
    3.3763    0.4606    1.2199 N   0  0  0  0  0  0  0  0  0  0  0  0
    1.9898    0.7639    1.5295 C   0  0  2  0  0  0  0  0  0  0  0  0
    1.8041    0.9466    3.0374 C   0  0  0  0  0  0  0  0  0  0  0  0
    0.3480    1.2416    3.3874 C   0  0  0  0  0  0  0  0  0  0  0  0
   -0.5988    0.1775    2.8471 C   0  0  0  0  0  0  0  0  0  0  0  0
   -0.4190   -0.0005    1.3585 N   0  0  1  0  0  0  0  0  0  0  0  0
   -1.0269    1.1110    0.5136 C   0  0  0  0  0  0  0  0  0  0  0  0
   -2.1841    0.6150   -0.3831 C   0  0  2  0  0  0  0  0  0  0  0  0
   -1.7172   -0.4596   -1.3996 C   0  0  0  0  0  0  0  0  0  0  0  0
   -2.8780   -0.8814   -2.3184 C   0  0  1  0  0  0  0  0  0  0  0  0
   -4.0212   -1.4498   -1.4615 C   0  0  0  0  0  0  0  0  0  0  0  0
   -4.5211   -0.3830   -0.4734 C   0  0  2  0  0  0  0  0  0  0  0  0
   -5.0202    0.8405   -1.2573 C   0  0  0  0  0  0  0  0  0  0  0  0
   -3.8801    1.4173   -2.1104 C   0  0  2  0  0  0  0  0  0  0  0  0
   -3.3856    0.3447   -3.0928 C   0  0  0  0  0  0  0  0  0  0  0  0
   -2.7208    1.8316   -1.1899 C   0  0  0  0  0  0  0  0  0  0  0  0
   -3.3613    0.0391    0.4467 C   0  0  0  0  0  0  0  0  0  0  0  0
    1.0209   -0.3128    0.9933 C   0  0  0  0  0  0  0  0  0  0  0  0
    5.7246    0.7026   -1.0361 H   0  0  0  0  0  0  0  0  0  0  0  0
    5.8294    0.3295    0.6611 H   0  0  0  0  0  0  0  0  0  0  0  0
    5.2210   -1.5718   -1.6581 H   0  0  0  0  0  0  0  0  0  0  0  0
    7.3448   -1.3287   -0.9705 H   0  0  0  0  0  0  0  0  0  0  0  0
    4.8099   -3.3756    0.0982 H   0  0  0  0  0  0  0  0  0  0  0  0
    3.4697   -2.2217   -0.0394 H   0  0  0  0  0  0  0  0  0  0  0  0
    5.5917   -2.2172    1.8312 H   0  0  0  0  0  0  0  0  0  0  0  0
    3.8979   -0.1642    1.8415 H   0  0  0  0  0  0  0  0  0  0  0  0
    1.7635    1.7174    1.0352 H   0  0  0  0  0  0  0  0  0  0  0  0
    2.4412    1.7631    3.3985 H   0  0  0  0  0  0  0  0  0  0  0  0
    2.1302    0.0418    3.5670 H   0  0  0  0  0  0  0  0  0  0  0  0
    0.2420    1.2989    4.4768 H   0  0  0  0  0  0  0  0  0  0  0  0
    0.0728    2.2276    2.9951 H   0  0  0  0  0  0  0  0  0  0  0  0
   -0.3950   -0.7975    3.3041 H   0  0  0  0  0  0  0  0  0  0  0  0
   -1.6479    0.4314    3.0300 H   0  0  0  0  0  0  0  0  0  0  0  0
   -0.9314   -0.8600    1.1307 H   0  0  0  0  0  0  0  0  0  0  0  0
   -0.2288    1.5443   -0.0994 H   0  0  0  0  0  0  0  0  0  0  0  0
   -1.3808    1.8928    1.1949 H   0  0  0  0  0  0  0  0  0  0  0  0
   -0.8901   -0.0695   -2.0066 H   0  0  0  0  0  0  0  0  0  0  0  0
   -1.3361   -1.3491   -0.8847 H   0  0  0  0  0  0  0  0  0  0  0  0
   -2.5306   -1.6447   -3.0236 H   0  0  0  0  0  0  0  0  0  0  0  0
   -3.6752   -2.3352   -0.9141 H   0  0  0  0  0  0  0  0  0  0  0  0
   -4.8455   -1.7770   -2.1071 H   0  0  0  0  0  0  0  0  0  0  0  0
   -5.3389   -0.7928    0.1299 H   0  0  0  0  0  0  0  0  0  0  0  0
   -5.8623    0.5559   -1.9001 H   0  0  0  0  0  0  0  0  0  0  0  0
   -5.3933    1.6039   -0.5636 H   0  0  0  0  0  0  0  0  0  0  0  0
   -4.2402    2.2899   -2.6668 H   0  0  0  0  0  0  0  0  0  0  0  0
   -2.5826    0.7513   -3.7198 H   0  0  0  0  0  0  0  0  0  0  0  0
   -4.1989    0.0513   -3.7680 H   0  0  0  0  0  0  0  0  0  0  0  0
   -3.0620    2.6181   -0.5040 H   0  0  0  0  0  0  0  0  0  0  0  0
   -1.9145    2.2698   -1.7926 H   0  0  0  0  0  0  0  0  0  0  0  0
   -3.7161    0.7878    1.1666 H   0  0  0  0  0  0  0  0  0  0  0  0
   -3.0419   -0.8314    1.0313 H   0  0  0  0  0  0  0  0  0  0  0  0
    1.2463   -1.2924    1.4327 H   0  0  0  0  0  0  0  0  0  0  0  0
    1.0629   -0.4229   -0.0947 H   0  0  0  0  0  0  0  0  0  0  0  0
  1  2  2  0
  2  3  1  0
  3  4  1  0
  4  5  1  0
  4  6  1  0
  6  7  1  0
  2  8  1  0
  8  9  1  0
  9 10  1  0
 10 11  1  0
 11 12  1  0
 12 13  1  0
 13 14  1  0
 15 14  1  1
 15 16  1  0
 16 17  1  0
 17 18  1  0
 18 19  1  0
 19 20  1  0
 20 21  1  0
 21 22  1  0
 21 23  1  0
 19 24  1  0
 13 25  1  0
 25  9  1  0
 23 15  1  0
 24 15  1  0
 22 17  1  0
  3 26  1  0
  3 27  1  0
  4 28  1  6
  5 29  1  0
  6 30  1  0
  6 31  1  0
  7 32  1  0
  8 33  1  0
  9 34  1  6
 10 35  1  0
 10 36  1  0
 11 37  1  0
 11 38  1  0
 12 39  1  0
 12 40  1  0
 13 41  1  6
 14 42  1  0
 14 43  1  0
 16 44  1  0
 16 45  1  0
 17 46  1  6
 18 47  1  0
 18 48  1  0
 19 49  1  1
 20 50  1  0
 20 51  1  0
 21 52  1  6
 22 53  1  0
 22 54  1  0
 23 55  1  0
 23 56  1  0
 24 57  1  0
 24 58  1  0
 25 59  1  0
 25 60  1  0
M  CHG  1  13   1
M  END
>  <_SMILES>  (132) 
O=C(C[C@@H](O)CO)N[C@@H]1CCC[N@@H+](C[C@]23C[C@H]4C[C@H](C[C@H](C4)C2)C3)C1

$$$$

     RDKit          3D

 47 49  0  0  0  0  0  0  0  0999 V2000
    1.1196   -1.5740   -2.3719 C   0  0  0  0  0  0  0  0  0  0  0  0
    1.7330   -0.7431   -1.1993 C   0  0  0  0  0  0  0  0  0  0  0  0
    2.5514   -1.7545   -0.3740 C   0  0  0  0  0  0  0  0  0  0  0  0
    2.5870    0.3519   -1.9163 C   0  0  0  0  0  0  0  0  0  0  0  0
    2.4586    0.6231   -3.1145 O   0  0  0  0  0  0  0  0  0  0  0  0
    3.4290    1.1351   -1.1870 N   0  0  0  0  0  0  0  0  0  0  0  0
    3.9854    0.5935   -0.0255 O   0  0  0  0  0  0  0  0  0  0  0  0
    3.3979    1.1455    1.0954 C   0  0  0  0  0  0  0  0  0  0  0  0
    4.3778    1.3117    2.2322 C   0  0  0  0  0  0  0  0  0  0  0  0
    5.3847    2.2465    1.8644 O   0  0  0  0  0  0  0  0  0  0  0  0
    2.0862    1.4227    1.2544 C   0  0  0  0  0  0  0  0  0  0  0  0
    0.8920    1.3195    0.3099 C   0  0  2  0  0  0  0  0  0  0  0  0
   -0.3351    1.8268    1.1241 C   0  0  0  0  0  0  0  0  0  0  0  0
   -1.6610    1.4926    0.4585 C   0  0  0  0  0  0  0  0  0  0  0  0
   -1.7139    0.0389    0.2715 N   0  0  0  0  0  0  0  0  0  0  0  0
   -2.9513   -0.6208    0.4107 C   0  0  0  0  0  0  0  0  0  0  0  0
   -2.9832   -1.8175    1.1567 C   0  0  0  0  0  0  0  0  0  0  0  0
   -4.1725   -2.5256    1.3734 C   0  0  0  0  0  0  0  0  0  0  0  0
   -5.3682   -2.0561    0.8389 C   0  0  0  0  0  0  0  0  0  0  0  0
   -6.8258   -2.9266    1.1067 Cl  0  0  0  0  0  0  0  0  0  0  0  0
   -5.3866   -0.8928    0.0822 C   0  0  0  0  0  0  0  0  0  0  0  0
   -4.1827   -0.1996   -0.1241 C   0  0  0  0  0  0  0  0  0  0  0  0
   -4.2578    0.9447   -1.0010 N   0  0  0  0  0  0  0  0  0  0  0  0
   -3.8621    0.7978   -2.1638 O   0  0  0  0  0  0  0  0  0  0  0  0
   -4.7440    1.9799   -0.5248 O   0  0  0  0  0  0  0  0  0  0  0  0
   -0.5954   -0.5982   -0.2402 C   0  0  0  0  0  0  0  0  0  0  0  0
    0.6399   -0.0603   -0.3338 C   0  0  0  0  0  0  0  0  0  0  0  0
    0.5883   -2.4668   -2.0237 H   0  0  0  0  0  0  0  0  0  0  0  0
    0.4168   -0.9767   -2.9657 H   0  0  0  0  0  0  0  0  0  0  0  0
    1.9049   -1.9266   -3.0528 H   0  0  0  0  0  0  0  0  0  0  0  0
    2.7480   -1.4210    0.6478 H   0  0  0  0  0  0  0  0  0  0  0  0
    3.5128   -1.9707   -0.8534 H   0  0  0  0  0  0  0  0  0  0  0  0
    2.0169   -2.7063   -0.2653 H   0  0  0  0  0  0  0  0  0  0  0  0
    4.0493    1.7165   -1.7372 H   0  0  0  0  0  0  0  0  0  0  0  0
    4.8589    0.3548    2.4609 H   0  0  0  0  0  0  0  0  0  0  0  0
    3.9013    1.6741    3.1483 H   0  0  0  0  0  0  0  0  0  0  0  0
    5.7047    1.9750    0.9871 H   0  0  0  0  0  0  0  0  0  0  0  0
    1.8347    1.8437    2.2300 H   0  0  0  0  0  0  0  0  0  0  0  0
    1.0281    2.0486   -0.5001 H   0  0  0  0  0  0  0  0  0  0  0  0
   -0.2616    2.9126    1.2679 H   0  0  0  0  0  0  0  0  0  0  0  0
   -0.3395    1.3757    2.1275 H   0  0  0  0  0  0  0  0  0  0  0  0
   -1.7368    2.0085   -0.5061 H   0  0  0  0  0  0  0  0  0  0  0  0
   -2.4712    1.8454    1.1078 H   0  0  0  0  0  0  0  0  0  0  0  0
   -2.0646   -2.1969    1.6037 H   0  0  0  0  0  0  0  0  0  0  0  0
   -4.1528   -3.4385    1.9642 H   0  0  0  0  0  0  0  0  0  0  0  0
   -6.3160   -0.5351   -0.3546 H   0  0  0  0  0  0  0  0  0  0  0  0
   -0.8251   -1.5775   -0.6512 H   0  0  0  0  0  0  0  0  0  0  0  0
  1  2  1  0
  2  3  1  0
  2  4  1  0
  4  5  2  0
  4  6  1  0
  6  7  1  0
  7  8  1  0
  8  9  1  0
  9 10  1  0
  8 11  2  0
 11 12  1  0
 12 13  1  0
 13 14  1  0
 14 15  1  0
 15 16  1  0
 16 17  1  0
 17 18  2  0
 18 19  1  0
 19 20  1  0
 19 21  2  0
 21 22  1  0
 22 23  1  0
 23 24  2  0
 23 25  1  0
 15 26  1  0
 26 27  2  0
 27  2  1  0
 27 12  1  0
 22 16  2  0
  1 28  1  0
  1 29  1  0
  1 30  1  0
  3 31  1  0
  3 32  1  0
  3 33  1  0
  6 34  1  0
  9 35  1  0
  9 36  1  0
 10 37  1  0
 11 38  1  0
 12 39  1  6
 13 40  1  0
 13 41  1  0
 14 42  1  0
 14 43  1  0
 17 44  1  0
 18 45  1  0
 21 46  1  0
 26 47  1  0
M  CHG  2  23   1  25  -1
M  END
>  <_SMILES>  (133) 
CC1(C)C(=O)NO/C(CO)=C\[C@@H]2CCN(c3ccc(Cl)cc3[N+](=O)[O-])C=C21

$$$$

     RDKit          3D

 47 49  0  0  0  0  0  0  0  0999 V2000
   -2.1530    0.7889   -2.5818 C   0  0  0  0  0  0  0  0  0  0  0  0
   -1.9251   -0.0511   -1.3024 C   0  0  0  0  0  0  0  0  0  0  0  0
   -1.9797   -1.5207   -1.8366 C   0  0  0  0  0  0  0  0  0  0  0  0
   -3.0732    0.0646   -0.2623 C   0  0  0  0  0  0  0  0  0  0  0  0
   -3.6920   -0.9153    0.1642 O   0  0  0  0  0  0  0  0  0  0  0  0
   -3.3663    1.2808    0.2704 N   0  0  0  0  0  0  0  0  0  0  0  0
   -3.0539    2.4022   -0.5037 O   0  0  0  0  0  0  0  0  0  0  0  0
   -2.0831    3.1024    0.1682 C   0  0  0  0  0  0  0  0  0  0  0  0
   -2.6051    4.3171    0.8931 C   0  0  0  0  0  0  0  0  0  0  0  0
   -3.3505    3.9104    2.0360 O   0  0  0  0  0  0  0  0  0  0  0  0
   -0.7727    2.8054    0.0965 C   0  0  0  0  0  0  0  0  0  0  0  0
    0.0153    1.6934   -0.5982 C   0  0  1  0  0  0  0  0  0  0  0  0
    1.4294    1.7555    0.0630 C   0  0  0  0  0  0  0  0  0  0  0  0
    2.2610    0.5079   -0.1735 C   0  0  0  0  0  0  0  0  0  0  0  0
    1.4864   -0.6363    0.3226 N   0  0  0  0  0  0  0  0  0  0  0  0
    2.2907   -1.7750    0.5667 C   0  0  0  0  0  0  0  0  0  0  0  0
    2.9378   -1.8581    1.8128 C   0  0  0  0  0  0  0  0  0  0  0  0
    3.7272   -2.9633    2.1518 C   0  0  0  0  0  0  0  0  0  0  0  0
    3.8864   -4.0103    1.2462 C   0  0  0  0  0  0  0  0  0  0  0  0
    4.8575   -5.3645    1.6693 Cl  0  0  0  0  0  0  0  0  0  0  0  0
    3.2721   -3.9635    0.0009 C   0  0  0  0  0  0  0  0  0  0  0  0
    2.4888   -2.8462   -0.3234 C   0  0  0  0  0  0  0  0  0  0  0  0
    1.9241   -2.8162   -1.6550 N   0  0  0  0  0  0  0  0  0  0  0  0
    2.3876   -1.9877   -2.4508 O   0  0  0  0  0  0  0  0  0  0  0  0
    1.0571   -3.6619   -1.9142 O   0  0  0  0  0  0  0  0  0  0  0  0
    0.1653   -0.7367   -0.0778 C   0  0  0  0  0  0  0  0  0  0  0  0
   -0.5779    0.2680   -0.5927 C   0  0  0  0  0  0  0  0  0  0  0  0
   -1.9601    1.8567   -2.4683 H   0  0  0  0  0  0  0  0  0  0  0  0
   -1.4927    0.4555   -3.3922 H   0  0  0  0  0  0  0  0  0  0  0  0
   -3.1877    0.6895   -2.9315 H   0  0  0  0  0  0  0  0  0  0  0  0
   -2.9004   -1.6912   -2.4097 H   0  0  0  0  0  0  0  0  0  0  0  0
   -1.9815   -2.2706   -1.0379 H   0  0  0  0  0  0  0  0  0  0  0  0
   -1.1347   -1.7355   -2.5014 H   0  0  0  0  0  0  0  0  0  0  0  0
   -4.2426    1.3346    0.7764 H   0  0  0  0  0  0  0  0  0  0  0  0
   -3.2623    4.9006    0.2406 H   0  0  0  0  0  0  0  0  0  0  0  0
   -1.7994    4.9766    1.2313 H   0  0  0  0  0  0  0  0  0  0  0  0
   -2.8229    3.2271    2.4848 H   0  0  0  0  0  0  0  0  0  0  0  0
   -0.1302    3.5303    0.6018 H   0  0  0  0  0  0  0  0  0  0  0  0
    0.1622    1.9887   -1.6454 H   0  0  0  0  0  0  0  0  0  0  0  0
    1.9740    2.6318   -0.3126 H   0  0  0  0  0  0  0  0  0  0  0  0
    1.3339    1.8892    1.1513 H   0  0  0  0  0  0  0  0  0  0  0  0
    2.4842    0.3972   -1.2415 H   0  0  0  0  0  0  0  0  0  0  0  0
    3.2154    0.6116    0.3579 H   0  0  0  0  0  0  0  0  0  0  0  0
    2.8063   -1.0583    2.5402 H   0  0  0  0  0  0  0  0  0  0  0  0
    4.2063   -3.0012    3.1276 H   0  0  0  0  0  0  0  0  0  0  0  0
    3.4036   -4.7761   -0.7095 H   0  0  0  0  0  0  0  0  0  0  0  0
   -0.2258   -1.7462    0.0189 H   0  0  0  0  0  0  0  0  0  0  0  0
  1  2  1  0
  2  3  1  0
  2  4  1  0
  4  5  2  0
  4  6  1  0
  6  7  1  0
  7  8  1  0
  8  9  1  0
  9 10  1  0
  8 11  2  0
 11 12  1  0
 12 13  1  0
 13 14  1  0
 14 15  1  0
 15 16  1  0
 16 17  1  0
 17 18  2  0
 18 19  1  0
 19 20  1  0
 19 21  2  0
 21 22  1  0
 22 23  1  0
 23 24  2  0
 23 25  1  0
 15 26  1  0
 26 27  2  0
 27  2  1  0
 27 12  1  0
 22 16  2  0
  1 28  1  0
  1 29  1  0
  1 30  1  0
  3 31  1  0
  3 32  1  0
  3 33  1  0
  6 34  1  0
  9 35  1  0
  9 36  1  0
 10 37  1  0
 11 38  1  0
 12 39  1  6
 13 40  1  0
 13 41  1  0
 14 42  1  0
 14 43  1  0
 17 44  1  0
 18 45  1  0
 21 46  1  0
 26 47  1  0
M  CHG  2  23   1  25  -1
M  END
>  <_SMILES>  (134) 
CC1(C)C(=O)NO/C(CO)=C\[C@H]2CCN(c3ccc(Cl)cc3[N+](=O)[O-])C=C21

$$$$

     RDKit          3D

 53 56  0  0  0  0  0  0  0  0999 V2000
   -7.5501   -1.0811    0.7671 C   0  0  0  0  0  0  0  0  0  0  0  0
   -7.1265   -1.8117   -0.4993 C   0  0  0  0  0  0  0  0  0  0  0  0
   -5.6134   -1.7586   -0.7427 C   0  0  0  0  0  0  0  0  0  0  0  0
   -5.1065   -0.3795   -0.8679 N   0  0  0  0  0  0  0  0  0  0  0  0
   -5.5787    0.4077   -2.0164 C   0  0  0  0  0  0  0  0  0  0  0  0
   -4.8015   -0.1635   -3.5094 Cl  0  0  0  0  0  0  0  0  0  0  0  0
   -3.7644   -0.1334   -0.4981 C   0  0  0  0  0  0  0  0  0  0  0  0
   -3.3579    1.1569   -0.1080 C   0  0  0  0  0  0  0  0  0  0  0  0
   -4.2556    2.1559   -0.0643 F   0  0  0  0  0  0  0  0  0  0  0  0
   -2.0450    1.4449    0.2715 C   0  0  0  0  0  0  0  0  0  0  0  0
   -1.7472    2.7034    0.6352 F   0  0  0  0  0  0  0  0  0  0  0  0
   -1.0698    0.4540    0.2828 C   0  0  0  0  0  0  0  0  0  0  0  0
    0.3270    0.7249    0.7064 C   0  0  0  0  0  0  0  0  0  0  0  0
    0.9591   -0.1945    1.2080 O   0  0  0  0  0  0  0  0  0  0  0  0
    0.7588    2.0329    0.5694 N   0  0  0  0  0  0  0  0  0  0  0  0
    2.0800    2.4934    0.7327 C   0  0  0  0  0  0  0  0  0  0  0  0
    2.2941    3.8730    0.9926 C   0  0  0  0  0  0  0  0  0  0  0  0
    3.5851    4.4617    1.1761 C   0  0  0  0  0  0  0  0  0  0  0  0
    4.7908    3.7410    1.0994 C   0  0  0  0  0  0  0  0  0  0  0  0
    4.5552    2.4046    0.8045 C   0  0  0  0  0  0  0  0  0  0  0  0
    5.5294    1.4625    0.6313 C   0  0  0  0  0  0  0  0  0  0  0  0
    4.8617    0.2932    0.3364 N   0  0  0  0  0  0  0  0  0  0  0  0
    5.4232   -0.9948    0.0972 C   0  0  0  0  0  0  0  0  0  0  0  0
    4.5686   -2.0791   -0.1600 C   0  0  0  0  0  0  0  0  0  0  0  0
    5.0940   -3.3510   -0.3962 C   0  0  0  0  0  0  0  0  0  0  0  0
    6.4724   -3.5511   -0.3774 C   0  0  0  0  0  0  0  0  0  0  0  0
    7.3280   -2.4808   -0.1203 C   0  0  0  0  0  0  0  0  0  0  0  0
    6.8094   -1.2040    0.1183 C   0  0  0  0  0  0  0  0  0  0  0  0
    3.5211    0.4794    0.2595 N   0  0  0  0  0  0  0  0  0  0  0  0
    3.2840    1.7527    0.6095 C   0  0  0  0  0  0  0  0  0  0  0  0
   -1.4414   -0.8329   -0.1022 C   0  0  0  0  0  0  0  0  0  0  0  0
   -0.5453   -1.8296   -0.1538 F   0  0  0  0  0  0  0  0  0  0  0  0
   -2.7576   -1.1175   -0.4828 C   0  0  0  0  0  0  0  0  0  0  0  0
   -3.0293   -2.3718   -0.8790 F   0  0  0  0  0  0  0  0  0  0  0  0
   -7.3465   -0.0081    0.6970 H   0  0  0  0  0  0  0  0  0  0  0  0
   -7.0244   -1.4758    1.6424 H   0  0  0  0  0  0  0  0  0  0  0  0
   -8.6248   -1.2074    0.9325 H   0  0  0  0  0  0  0  0  0  0  0  0
   -7.6786   -1.4098   -1.3548 H   0  0  0  0  0  0  0  0  0  0  0  0
   -7.4239   -2.8637   -0.4103 H   0  0  0  0  0  0  0  0  0  0  0  0
   -5.1454   -2.2586    0.1153 H   0  0  0  0  0  0  0  0  0  0  0  0
   -5.3704   -2.3434   -1.6376 H   0  0  0  0  0  0  0  0  0  0  0  0
   -5.3696    1.4763   -1.9179 H   0  0  0  0  0  0  0  0  0  0  0  0
   -6.6594    0.3167   -2.1489 H   0  0  0  0  0  0  0  0  0  0  0  0
    0.0533    2.7529    0.4688 H   0  0  0  0  0  0  0  0  0  0  0  0
    1.4319    4.5338    1.0835 H   0  0  0  0  0  0  0  0  0  0  0  0
    3.6347    5.5303    1.3895 H   0  0  0  0  0  0  0  0  0  0  0  0
    5.7632    4.1932    1.2375 H   0  0  0  0  0  0  0  0  0  0  0  0
    6.6040    1.5197    0.6944 H   0  0  0  0  0  0  0  0  0  0  0  0
    3.4863   -1.9481   -0.1701 H   0  0  0  0  0  0  0  0  0  0  0  0
    4.4224   -4.1833   -0.5909 H   0  0  0  0  0  0  0  0  0  0  0  0
    6.8790   -4.5423   -0.5604 H   0  0  0  0  0  0  0  0  0  0  0  0
    8.4032   -2.6412   -0.1042 H   0  0  0  0  0  0  0  0  0  0  0  0
    7.5130   -0.4018    0.3141 H   0  0  0  0  0  0  0  0  0  0  0  0
  1  2  1  0
  2  3  1  0
  3  4  1  0
  4  5  1  0
  5  6  1  0
  4  7  1  0
  7  8  1  0
  8  9  1  0
  8 10  2  0
 10 11  1  0
 10 12  1  0
 12 13  1  0
 13 14  2  0
 13 15  1  0
 15 16  1  0
 16 17  2  0
 17 18  1  0
 18 19  2  0
 19 20  1  0
 20 21  2  0
 21 22  1  0
 22 23  1  0
 23 24  2  0
 24 25  1  0
 25 26  2  0
 26 27  1  0
 27 28  2  0
 22 29  1  0
 29 30  2  0
 12 31  2  0
 31 32  1  0
 31 33  1  0
 33 34  1  0
 33  7  2  0
 30 16  1  0
 30 20  1  0
 28 23  1  0
  1 35  1  0
  1 36  1  0
  1 37  1  0
  2 38  1  0
  2 39  1  0
  3 40  1  0
  3 41  1  0
  5 42  1  0
  5 43  1  0
 15 44  1  0
 17 45  1  0
 18 46  1  0
 19 47  1  0
 21 48  1  0
 24 49  1  0
 25 50  1  0
 26 51  1  0
 27 52  1  0
 28 53  1  0
M  END
>  <_SMILES>  (135) 
CCCN(CCl)c1c(F)c(F)c(C(=O)Nc2cccc3cn(-c4ccccc4)nc23)c(F)c1F

$$$$

     RDKit          3D

 52 58  0  0  0  0  0  0  0  0999 V2000
   -0.8529   -3.3644   -0.7439 N   0  0  0  0  0  0  0  0  0  0  0  0
   -1.6890   -3.0716    0.4461 C   0  0  2  0  0  0  0  0  0  0  0  0
   -3.3022   -2.8689   -0.3495 S   0  0  0  0  0  0  0  0  0  0  0  0
   -3.1679   -1.1265   -0.5922 C   0  0  0  0  0  0  0  0  0  0  0  0
   -2.6149   -0.7353   -1.6092 O   0  0  0  0  0  0  0  0  0  0  0  0
   -3.6580   -0.2480    0.5616 C   0  0  1  0  0  0  0  0  0  0  0  0
   -3.4631   -0.9588    1.9179 C   0  0  0  0  0  0  0  0  0  0  0  0
   -1.9623   -1.0346    2.0391 C   0  0  0  0  0  0  0  0  0  0  0  0
   -1.1930   -1.8916    1.3105 C   0  0  0  0  0  0  0  0  0  0  0  0
    0.1928   -1.5082    1.0119 C   0  0  0  0  0  0  0  0  0  0  0  0
    0.5226   -0.3251    0.4545 C   0  0  0  0  0  0  0  0  0  0  0  0
    1.7963   -0.0702   -0.2412 C   0  0  0  0  0  0  0  0  0  0  0  0
    2.9439   -0.9628   -0.4019 C   0  0  0  0  0  0  0  0  0  0  0  0
    3.6958   -1.3489    0.7150 C   0  0  0  0  0  0  0  0  0  0  0  0
    4.7666   -2.2333    0.5727 C   0  0  0  0  0  0  0  0  0  0  0  0
    5.0939   -2.7360   -0.6854 C   0  0  0  0  0  0  0  0  0  0  0  0
    4.3558   -2.3519   -1.8036 C   0  0  0  0  0  0  0  0  0  0  0  0
    3.2833   -1.4691   -1.6635 C   0  0  0  0  0  0  0  0  0  0  0  0
    1.6506    1.1513   -0.7723 C   0  0  0  0  0  0  0  0  0  0  0  0
    2.6483    2.1863   -1.7072 S   0  0  0  0  0  0  0  0  0  0  0  0
    1.4074    3.5019   -1.5823 C   0  0  0  0  0  0  0  0  0  0  0  0
    1.6047    4.7037   -2.1517 N   0  0  0  0  0  0  0  0  0  0  0  0
    0.5998    5.5922   -1.9849 C   0  0  0  0  0  0  0  0  0  0  0  0
   -0.5764    5.3234   -1.2854 C   0  0  0  0  0  0  0  0  0  0  0  0
   -0.7538    4.0643   -0.7084 C   0  0  0  0  0  0  0  0  0  0  0  0
    0.2601    3.1353   -0.8554 C   0  0  0  0  0  0  0  0  0  0  0  0
    0.3788    1.7583   -0.3991 C   0  0  0  0  0  0  0  0  0  0  0  0
   -0.3180    0.8982    0.3690 C   0  0  0  0  0  0  0  0  0  0  0  0
   -1.5095    1.1981    1.2578 C   0  0  2  0  0  0  0  0  0  0  0  0
   -1.4503    0.3075    2.5170 C   0  0  0  0  0  0  0  0  0  0  0  0
   -2.9152    1.1307    0.5604 C   0  0  0  0  0  0  0  0  0  0  0  0
    0.0954   -3.6745   -0.5145 H   0  0  0  0  0  0  0  0  0  0  0  0
   -0.7934   -2.5197   -1.3323 H   0  0  0  0  0  0  0  0  0  0  0  0
   -1.3112   -4.0838   -1.3127 H   0  0  0  0  0  0  0  0  0  0  0  0
   -1.6870   -3.9880    1.0450 H   0  0  0  0  0  0  0  0  0  0  0  0
   -4.7267   -0.0730    0.3867 H   0  0  0  0  0  0  0  0  0  0  0  0
   -3.9024   -0.3589    2.7245 H   0  0  0  0  0  0  0  0  0  0  0  0
   -3.9419   -1.9374    2.0056 H   0  0  0  0  0  0  0  0  0  0  0  0
    0.9363   -2.3006    1.0801 H   0  0  0  0  0  0  0  0  0  0  0  0
    3.4693   -0.9486    1.7013 H   0  0  0  0  0  0  0  0  0  0  0  0
    5.3604   -2.5146    1.4398 H   0  0  0  0  0  0  0  0  0  0  0  0
    5.9418   -3.4085   -0.7981 H   0  0  0  0  0  0  0  0  0  0  0  0
    4.6323   -2.7229   -2.7882 H   0  0  0  0  0  0  0  0  0  0  0  0
    2.7346   -1.1627   -2.5519 H   0  0  0  0  0  0  0  0  0  0  0  0
    0.7637    6.5643   -2.4442 H   0  0  0  0  0  0  0  0  0  0  0  0
   -1.3415    6.0889   -1.1966 H   0  0  0  0  0  0  0  0  0  0  0  0
   -1.6660    3.8414   -0.1691 H   0  0  0  0  0  0  0  0  0  0  0  0
   -1.3830    2.2320    1.6081 H   0  0  0  0  0  0  0  0  0  0  0  0
   -2.0931    0.7149    3.3070 H   0  0  0  0  0  0  0  0  0  0  0  0
   -0.4485    0.2486    2.9588 H   0  0  0  0  0  0  0  0  0  0  0  0
   -2.8491    1.5318   -0.4581 H   0  0  0  0  0  0  0  0  0  0  0  0
   -3.5643    1.8255    1.1125 H   0  0  0  0  0  0  0  0  0  0  0  0
  1  2  1  0
  2  3  1  0
  3  4  1  0
  4  5  2  0
  4  6  1  0
  6  7  1  0
  7  8  1  0
  8  9  2  0
  9 10  1  0
 10 11  2  0
 11 12  1  0
 12 13  1  0
 13 14  2  0
 14 15  1  0
 15 16  2  0
 16 17  1  0
 17 18  2  0
 12 19  2  0
 19 20  1  0
 20 21  1  0
 21 22  1  0
 22 23  2  0
 23 24  1  0
 24 25  2  0
 25 26  1  0
 26 27  1  0
 27 28  2  0
 28 29  1  0
 29 30  1  0
 29 31  1  0
  9  2  1  0
 28 11  1  0
 31  6  1  0
 30  8  1  0
 18 13  1  0
 27 19  1  0
 26 21  2  0
  1 32  1  0
  1 33  1  0
  1 34  1  0
  2 35  1  1
  6 36  1  6
  7 37  1  0
  7 38  1  0
 10 39  1  0
 14 40  1  0
 15 41  1  0
 16 42  1  0
 17 43  1  0
 18 44  1  0
 23 45  1  0
 24 46  1  0
 25 47  1  0
 29 48  1  1
 30 49  1  0
 30 50  1  0
 31 51  1  0
 31 52  1  0
M  CHG  1   1   1
M  END
>  <_SMILES>  (136) 
[NH3+][C@@H]1SC(=O)[C@H]2CC3=C1C=C1C(c4ccccc4)=c4sc5ncccc5c4=C1[C@H](C3)C2

$$$$

     RDKit          3D

 52 58  0  0  0  0  0  0  0  0999 V2000
    4.1801    2.1232    0.5921 N   0  0  0  0  0  0  0  0  0  0  0  0
    3.1414    1.3714   -0.1299 C   0  0  1  0  0  0  0  0  0  0  0  0
    4.0505    0.3476   -1.2920 S   0  0  0  0  0  0  0  0  0  0  0  0
    2.8666   -0.9588   -1.4319 C   0  0  0  0  0  0  0  0  0  0  0  0
    2.0823   -0.9530   -2.3671 O   0  0  0  0  0  0  0  0  0  0  0  0
    2.9280   -2.0407   -0.3426 C   0  0  1  0  0  0  0  0  0  0  0  0
    3.4788   -1.4970    0.9922 C   0  0  0  0  0  0  0  0  0  0  0  0
    2.4004   -0.5440    1.4380 C   0  0  0  0  0  0  0  0  0  0  0  0
    2.2020    0.6611    0.8403 C   0  0  0  0  0  0  0  0  0  0  0  0
    0.8539    1.2346    0.7685 C   0  0  0  0  0  0  0  0  0  0  0  0
   -0.2325    0.5427    0.3686 C   0  0  0  0  0  0  0  0  0  0  0  0
   -1.4948    1.1748   -0.0538 C   0  0  0  0  0  0  0  0  0  0  0  0
   -1.8671    2.5875   -0.0282 C   0  0  0  0  0  0  0  0  0  0  0  0
   -2.1356    3.2213    1.1914 C   0  0  0  0  0  0  0  0  0  0  0  0
   -2.4671    4.5771    1.2217 C   0  0  0  0  0  0  0  0  0  0  0  0
   -2.5309    5.3063    0.0353 C   0  0  0  0  0  0  0  0  0  0  0  0
   -2.2676    4.6816   -1.1829 C   0  0  0  0  0  0  0  0  0  0  0  0
   -1.9359    3.3260   -1.2159 C   0  0  0  0  0  0  0  0  0  0  0  0
   -2.2430    0.1646   -0.5154 C   0  0  0  0  0  0  0  0  0  0  0  0
   -3.8291    0.0329   -1.1537 S   0  0  0  0  0  0  0  0  0  0  0  0
   -3.6668   -1.7720   -1.1918 C   0  0  0  0  0  0  0  0  0  0  0  0
   -4.6704   -2.5545   -1.6270 N   0  0  0  0  0  0  0  0  0  0  0  0
   -4.4148   -3.8815   -1.6107 C   0  0  0  0  0  0  0  0  0  0  0  0
   -3.2119   -4.4435   -1.1838 C   0  0  0  0  0  0  0  0  0  0  0  0
   -2.1888   -3.6052   -0.7371 C   0  0  0  0  0  0  0  0  0  0  0  0
   -2.4218   -2.2418   -0.7352 C   0  0  0  0  0  0  0  0  0  0  0  0
   -1.5761   -1.1207   -0.3524 C   0  0  0  0  0  0  0  0  0  0  0  0
   -0.3674   -0.9285    0.2119 C   0  0  0  0  0  0  0  0  0  0  0  0
    0.5339   -1.9611    0.8529 C   0  0  2  0  0  0  0  0  0  0  0  0
    1.2681   -1.3338    2.0560 C   0  0  0  0  0  0  0  0  0  0  0  0
    1.5216   -2.6902   -0.1228 C   0  0  0  0  0  0  0  0  0  0  0  0
    4.7384    1.4882    1.1703 H   0  0  0  0  0  0  0  0  0  0  0  0
    4.8079    2.5725   -0.0831 H   0  0  0  0  0  0  0  0  0  0  0  0
    3.7687    2.8409    1.1973 H   0  0  0  0  0  0  0  0  0  0  0  0
    2.6037    2.1151   -0.7292 H   0  0  0  0  0  0  0  0  0  0  0  0
    3.6107   -2.8112   -0.7236 H   0  0  0  0  0  0  0  0  0  0  0  0
    4.4613   -1.0225    0.9261 H   0  0  0  0  0  0  0  0  0  0  0  0
    3.6085   -2.3166    1.7098 H   0  0  0  0  0  0  0  0  0  0  0  0
    0.7836    2.3192    0.8530 H   0  0  0  0  0  0  0  0  0  0  0  0
   -2.1104    2.6606    2.1232 H   0  0  0  0  0  0  0  0  0  0  0  0
   -2.6948    5.0616    2.1683 H   0  0  0  0  0  0  0  0  0  0  0  0
   -2.8064    6.3584    0.0575 H   0  0  0  0  0  0  0  0  0  0  0  0
   -2.3388    5.2468   -2.1094 H   0  0  0  0  0  0  0  0  0  0  0  0
   -1.7495    2.8491   -2.1762 H   0  0  0  0  0  0  0  0  0  0  0  0
   -5.2281   -4.5110   -1.9642 H   0  0  0  0  0  0  0  0  0  0  0  0
   -3.0791   -5.5210   -1.2050 H   0  0  0  0  0  0  0  0  0  0  0  0
   -1.2465   -4.0284   -0.4124 H   0  0  0  0  0  0  0  0  0  0  0  0
   -0.1255   -2.7356    1.2686 H   0  0  0  0  0  0  0  0  0  0  0  0
    0.6155   -0.7151    2.6838 H   0  0  0  0  0  0  0  0  0  0  0  0
    1.6568   -2.1162    2.7194 H   0  0  0  0  0  0  0  0  0  0  0  0
    1.0289   -2.8800   -1.0840 H   0  0  0  0  0  0  0  0  0  0  0  0
    1.7093   -3.6812    0.3150 H   0  0  0  0  0  0  0  0  0  0  0  0
  1  2  1  0
  2  3  1  0
  3  4  1  0
  4  5  2  0
  4  6  1  0
  6  7  1  0
  7  8  1  0
  8  9  2  0
  9 10  1  0
 10 11  2  0
 11 12  1  0
 12 13  1  0
 13 14  2  0
 14 15  1  0
 15 16  2  0
 16 17  1  0
 17 18  2  0
 12 19  2  0
 19 20  1  0
 20 21  1  0
 21 22  1  0
 22 23  2  0
 23 24  1  0
 24 25  2  0
 25 26  1  0
 26 27  1  0
 27 28  2  0
 28 29  1  0
 29 30  1  0
 29 31  1  0
  9  2  1  0
 28 11  1  0
 31  6  1  0
 30  8  1  0
 18 13  1  0
 27 19  1  0
 26 21  2  0
  1 32  1  0
  1 33  1  0
  1 34  1  0
  2 35  1  6
  6 36  1  6
  7 37  1  0
  7 38  1  0
 10 39  1  0
 14 40  1  0
 15 41  1  0
 16 42  1  0
 17 43  1  0
 18 44  1  0
 23 45  1  0
 24 46  1  0
 25 47  1  0
 29 48  1  1
 30 49  1  0
 30 50  1  0
 31 51  1  0
 31 52  1  0
M  CHG  1   1   1
M  END
>  <_SMILES>  (137) 
[NH3+][C@H]1SC(=O)[C@H]2CC3=C1C=C1C(c4ccccc4)=c4sc5ncccc5c4=C1[C@H](C3)C2

$$$$

     RDKit          3D

 52 58  0  0  0  0  0  0  0  0999 V2000
   -3.0306   -3.4979    0.9545 N   0  0  0  0  0  0  0  0  0  0  0  0
   -2.2506   -2.2799    1.2256 C   0  0  2  0  0  0  0  0  0  0  0  0
   -3.2362   -1.3688    2.4186 S   0  0  0  0  0  0  0  0  0  0  0  0
   -2.6614    0.2531    2.0101 C   0  0  0  0  0  0  0  0  0  0  0  0
   -1.7680    0.7525    2.6751 O   0  0  0  0  0  0  0  0  0  0  0  0
   -3.3616    0.9354    0.8247 C   0  0  2  0  0  0  0  0  0  0  0  0
   -3.9092   -0.0831   -0.1969 C   0  0  0  0  0  0  0  0  0  0  0  0
   -2.6559   -0.6908   -0.7711 C   0  0  0  0  0  0  0  0  0  0  0  0
   -1.8829   -1.5626   -0.0699 C   0  0  0  0  0  0  0  0  0  0  0  0
   -0.4335   -1.6036   -0.2906 C   0  0  0  0  0  0  0  0  0  0  0  0
    0.3484   -0.5054   -0.3281 C   0  0  0  0  0  0  0  0  0  0  0  0
    1.8144   -0.5399   -0.1835 C   0  0  0  0  0  0  0  0  0  0  0  0
    2.7001   -1.6982   -0.0881 C   0  0  0  0  0  0  0  0  0  0  0  0
    2.9459   -2.4895   -1.2172 C   0  0  0  0  0  0  0  0  0  0  0  0
    3.7714   -3.6114   -1.1238 C   0  0  0  0  0  0  0  0  0  0  0  0
    4.3543   -3.9490    0.0967 C   0  0  0  0  0  0  0  0  0  0  0  0
    4.1164   -3.1645    1.2244 C   0  0  0  0  0  0  0  0  0  0  0  0
    3.2912   -2.0422    1.1337 C   0  0  0  0  0  0  0  0  0  0  0  0
    2.1800    0.7468   -0.1179 C   0  0  0  0  0  0  0  0  0  0  0  0
    3.6787    1.5688    0.0184 S   0  0  0  0  0  0  0  0  0  0  0  0
    2.8293    3.1569   -0.1865 C   0  0  0  0  0  0  0  0  0  0  0  0
    3.5083    4.3179   -0.1817 N   0  0  0  0  0  0  0  0  0  0  0  0
    2.7527    5.4278   -0.3359 C   0  0  0  0  0  0  0  0  0  0  0  0
    1.3667    5.4180   -0.4904 C   0  0  0  0  0  0  0  0  0  0  0  0
    0.6899    4.1969   -0.4917 C   0  0  0  0  0  0  0  0  0  0  0  0
    1.4359    3.0418   -0.3426 C   0  0  0  0  0  0  0  0  0  0  0  0
    1.0425    1.6414   -0.2885 C   0  0  0  0  0  0  0  0  0  0  0  0
   -0.0790    0.9121   -0.4516 C   0  0  0  0  0  0  0  0  0  0  0  0
   -1.4231    1.3769   -0.9683 C   0  0  1  0  0  0  0  0  0  0  0  0
   -2.0758    0.2536   -1.8003 C   0  0  0  0  0  0  0  0  0  0  0  0
   -2.4004    1.9473    0.1174 C   0  0  0  0  0  0  0  0  0  0  0  0
   -3.8978   -3.2602    0.4637 H   0  0  0  0  0  0  0  0  0  0  0  0
   -2.5002   -4.1606    0.3800 H   0  0  0  0  0  0  0  0  0  0  0  0
   -3.2810   -3.9476    1.8416 H   0  0  0  0  0  0  0  0  0  0  0  0
   -1.3549   -2.6177    1.7594 H   0  0  0  0  0  0  0  0  0  0  0  0
   -4.2011    1.4965    1.2550 H   0  0  0  0  0  0  0  0  0  0  0  0
   -4.5900   -0.8309    0.2177 H   0  0  0  0  0  0  0  0  0  0  0  0
   -4.4926    0.4327   -0.9696 H   0  0  0  0  0  0  0  0  0  0  0  0
    0.0402   -2.5828   -0.2180 H   0  0  0  0  0  0  0  0  0  0  0  0
    2.5152   -2.2267   -2.1809 H   0  0  0  0  0  0  0  0  0  0  0  0
    3.9767   -4.2122   -2.0068 H   0  0  0  0  0  0  0  0  0  0  0  0
    5.0114   -4.8131    0.1652 H   0  0  0  0  0  0  0  0  0  0  0  0
    4.5890   -3.4170    2.1708 H   0  0  0  0  0  0  0  0  0  0  0  0
    3.1289   -1.4307    2.0191 H   0  0  0  0  0  0  0  0  0  0  0  0
    3.3050    6.3647   -0.3305 H   0  0  0  0  0  0  0  0  0  0  0  0
    0.8272    6.3534   -0.6041 H   0  0  0  0  0  0  0  0  0  0  0  0
   -0.3872    4.1762   -0.6009 H   0  0  0  0  0  0  0  0  0  0  0  0
   -1.2204    2.1975   -1.6704 H   0  0  0  0  0  0  0  0  0  0  0  0
   -1.3727   -0.2430   -2.4798 H   0  0  0  0  0  0  0  0  0  0  0  0
   -2.8660    0.6611   -2.4429 H   0  0  0  0  0  0  0  0  0  0  0  0
   -3.0472    2.6694   -0.4014 H   0  0  0  0  0  0  0  0  0  0  0  0
   -1.8404    2.5308    0.8580 H   0  0  0  0  0  0  0  0  0  0  0  0
  1  2  1  0
  2  3  1  0
  3  4  1  0
  4  5  2  0
  4  6  1  0
  6  7  1  0
  7  8  1  0
  8  9  2  0
  9 10  1  0
 10 11  2  0
 11 12  1  0
 12 13  1  0
 13 14  2  0
 14 15  1  0
 15 16  2  0
 16 17  1  0
 17 18  2  0
 12 19  2  0
 19 20  1  0
 20 21  1  0
 21 22  1  0
 22 23  2  0
 23 24  1  0
 24 25  2  0
 25 26  1  0
 26 27  1  0
 27 28  2  0
 28 29  1  0
 29 30  1  0
 29 31  1  0
  9  2  1  0
 28 11  1  0
 31  6  1  0
 30  8  1  0
 18 13  1  0
 27 19  1  0
 26 21  2  0
  1 32  1  0
  1 33  1  0
  1 34  1  0
  2 35  1  1
  6 36  1  1
  7 37  1  0
  7 38  1  0
 10 39  1  0
 14 40  1  0
 15 41  1  0
 16 42  1  0
 17 43  1  0
 18 44  1  0
 23 45  1  0
 24 46  1  0
 25 47  1  0
 29 48  1  6
 30 49  1  0
 30 50  1  0
 31 51  1  0
 31 52  1  0
M  CHG  1   1   1
M  END
>  <_SMILES>  (138) 
[NH3+][C@@H]1SC(=O)[C@@H]2CC3=C1C=C1C(c4ccccc4)=c4sc5ncccc5c4=C1[C@@H](C3)C2

$$$$

     RDKit          3D

 52 58  0  0  0  0  0  0  0  0999 V2000
   -2.2780    2.5775   -0.9106 N   0  0  0  0  0  0  0  0  0  0  0  0
   -3.0650    1.7569    0.0423 C   0  0  1  0  0  0  0  0  0  0  0  0
   -4.1573    0.8964   -1.1165 S   0  0  0  0  0  0  0  0  0  0  0  0
   -3.1113   -0.5059   -1.3458 C   0  0  0  0  0  0  0  0  0  0  0  0
   -2.2483   -0.4361   -2.2079 O   0  0  0  0  0  0  0  0  0  0  0  0
   -3.3034   -1.6562   -0.3544 C   0  0  2  0  0  0  0  0  0  0  0  0
   -3.7689   -1.1289    1.0196 C   0  0  0  0  0  0  0  0  0  0  0  0
   -2.5733   -0.3432    1.4950 C   0  0  0  0  0  0  0  0  0  0  0  0
   -2.2201    0.8692    0.9825 C   0  0  0  0  0  0  0  0  0  0  0  0
   -0.8046    1.2588    1.0160 C   0  0  0  0  0  0  0  0  0  0  0  0
    0.1832    0.4760    0.5357 C   0  0  0  0  0  0  0  0  0  0  0  0
    1.5178    0.9740    0.1588 C   0  0  0  0  0  0  0  0  0  0  0  0
    2.0579    2.3272    0.2883 C   0  0  0  0  0  0  0  0  0  0  0  0
    2.3342    3.0975   -0.8491 C   0  0  0  0  0  0  0  0  0  0  0  0
    2.8122    4.4026   -0.7175 C   0  0  0  0  0  0  0  0  0  0  0  0
    3.0150    4.9469    0.5494 C   0  0  0  0  0  0  0  0  0  0  0  0
    2.7478    4.1862    1.6863 C   0  0  0  0  0  0  0  0  0  0  0  0
    2.2715    2.8802    1.5573 C   0  0  0  0  0  0  0  0  0  0  0  0
    2.1213   -0.0787   -0.4095 C   0  0  0  0  0  0  0  0  0  0  0  0
    3.6682   -0.3561   -1.0958 S   0  0  0  0  0  0  0  0  0  0  0  0
    3.2718   -2.1144   -1.2884 C   0  0  0  0  0  0  0  0  0  0  0  0
    4.1604   -2.9768   -1.8121 N   0  0  0  0  0  0  0  0  0  0  0  0
    3.7366   -4.2572   -1.9018 C   0  0  0  0  0  0  0  0  0  0  0  0
    2.4759   -4.6959   -1.4978 C   0  0  0  0  0  0  0  0  0  0  0  0
    1.5735   -3.7755   -0.9611 C   0  0  0  0  0  0  0  0  0  0  0  0
    1.9803   -2.4584   -0.8495 C   0  0  0  0  0  0  0  0  0  0  0  0
    1.2899   -1.2751   -0.3580 C   0  0  0  0  0  0  0  0  0  0  0  0
    0.1170   -0.9785    0.2351 C   0  0  0  0  0  0  0  0  0  0  0  0
   -0.9047   -1.9396    0.8110 C   0  0  1  0  0  0  0  0  0  0  0  0
   -1.5563   -1.3111    2.0610 C   0  0  0  0  0  0  0  0  0  0  0  0
   -1.9798   -2.4788   -0.1992 C   0  0  0  0  0  0  0  0  0  0  0  0
   -1.6859    3.2792   -0.4581 H   0  0  0  0  0  0  0  0  0  0  0  0
   -2.9156    3.0477   -1.5614 H   0  0  0  0  0  0  0  0  0  0  0  0
   -1.6828    1.9574   -1.4804 H   0  0  0  0  0  0  0  0  0  0  0  0
   -3.6472    2.4673    0.6379 H   0  0  0  0  0  0  0  0  0  0  0  0
   -4.0759   -2.3082   -0.7806 H   0  0  0  0  0  0  0  0  0  0  0  0
   -3.9915   -1.9682    1.6900 H   0  0  0  0  0  0  0  0  0  0  0  0
   -4.6850   -0.5328    1.0055 H   0  0  0  0  0  0  0  0  0  0  0  0
   -0.5975    2.2969    1.2704 H   0  0  0  0  0  0  0  0  0  0  0  0
    2.2054    2.6824   -1.8468 H   0  0  0  0  0  0  0  0  0  0  0  0
    3.0499    4.9886   -1.6028 H   0  0  0  0  0  0  0  0  0  0  0  0
    3.4063    5.9571    0.6512 H   0  0  0  0  0  0  0  0  0  0  0  0
    2.9314    4.6045    2.6736 H   0  0  0  0  0  0  0  0  0  0  0  0
    2.0904    2.2932    2.4557 H   0  0  0  0  0  0  0  0  0  0  0  0
    4.4587   -4.9528   -2.3232 H   0  0  0  0  0  0  0  0  0  0  0  0
    2.2061   -5.7424   -1.6045 H   0  0  0  0  0  0  0  0  0  0  0  0
    0.5890   -4.1029   -0.6507 H   0  0  0  0  0  0  0  0  0  0  0  0
   -0.3424   -2.8144    1.1662 H   0  0  0  0  0  0  0  0  0  0  0  0
   -2.0440   -2.0824    2.6698 H   0  0  0  0  0  0  0  0  0  0  0  0
   -0.8335   -0.8276    2.7291 H   0  0  0  0  0  0  0  0  0  0  0  0
   -2.2798   -3.4690    0.1727 H   0  0  0  0  0  0  0  0  0  0  0  0
   -1.5196   -2.6563   -1.1786 H   0  0  0  0  0  0  0  0  0  0  0  0
  1  2  1  0
  2  3  1  0
  3  4  1  0
  4  5  2  0
  4  6  1  0
  6  7  1  0
  7  8  1  0
  8  9  2  0
  9 10  1  0
 10 11  2  0
 11 12  1  0
 12 13  1  0
 13 14  2  0
 14 15  1  0
 15 16  2  0
 16 17  1  0
 17 18  2  0
 12 19  2  0
 19 20  1  0
 20 21  1  0
 21 22  1  0
 22 23  2  0
 23 24  1  0
 24 25  2  0
 25 26  1  0
 26 27  1  0
 27 28  2  0
 28 29  1  0
 29 30  1  0
 29 31  1  0
  9  2  1  0
 28 11  1  0
 31  6  1  0
 30  8  1  0
 18 13  1  0
 27 19  1  0
 26 21  2  0
  1 32  1  0
  1 33  1  0
  1 34  1  0
  2 35  1  1
  6 36  1  6
  7 37  1  0
  7 38  1  0
 10 39  1  0
 14 40  1  0
 15 41  1  0
 16 42  1  0
 17 43  1  0
 18 44  1  0
 23 45  1  0
 24 46  1  0
 25 47  1  0
 29 48  1  1
 30 49  1  0
 30 50  1  0
 31 51  1  0
 31 52  1  0
M  CHG  1   1   1
M  END
>  <_SMILES>  (139) 
[NH3+][C@H]1SC(=O)[C@@H]2CC3=C1C=C1C(c4ccccc4)=c4sc5ncccc5c4=C1[C@@H](C3)C2

$$$$

     RDKit          3D

 52 58  0  0  0  0  0  0  0  0999 V2000
   -0.6319   -2.3489   -1.3368 N   0  0  0  0  0  0  0  0  0  0  0  0
   -1.8949   -2.3387   -0.5732 C   0  0  2  0  0  0  0  0  0  0  0  0
   -3.0020   -1.5934   -1.7987 S   0  0  0  0  0  0  0  0  0  0  0  0
   -2.5661    0.0910   -1.4624 C   0  0  0  0  0  0  0  0  0  0  0  0
   -1.5786    0.5319   -2.0333 O   0  0  0  0  0  0  0  0  0  0  0  0
   -3.3826    0.8219   -0.3871 C   0  0  2  0  0  0  0  0  0  0  0  0
   -2.4681    1.8875    0.3603 C   0  0  0  0  0  0  0  0  0  0  0  0
   -1.5052    1.1847    1.3330 C   0  0  0  0  0  0  0  0  0  0  0  0
   -0.2095    0.9452    1.0419 C   0  0  0  0  0  0  0  0  0  0  0  0
    0.3904   -0.4501    1.1145 C   0  0  0  0  0  0  0  0  0  0  0  0
    1.6296   -0.4367    0.5395 C   0  0  0  0  0  0  0  0  0  0  0  0
    2.4523   -1.6271    0.2890 C   0  0  0  0  0  0  0  0  0  0  0  0
    2.8704   -1.9431   -1.0124 C   0  0  0  0  0  0  0  0  0  0  0  0
    3.6140   -3.0993   -1.2573 C   0  0  0  0  0  0  0  0  0  0  0  0
    3.9521   -3.9466   -0.2047 C   0  0  0  0  0  0  0  0  0  0  0  0
    3.5606   -3.6329    1.0949 C   0  0  0  0  0  0  0  0  0  0  0  0
    2.8191   -2.4760    1.3422 C   0  0  0  0  0  0  0  0  0  0  0  0
    1.8082    0.8983    0.0746 C   0  0  0  0  0  0  0  0  0  0  0  0
    3.0523    1.6671   -0.7478 S   0  0  0  0  0  0  0  0  0  0  0  0
    2.1926    3.1561   -0.7185 C   0  0  0  0  0  0  0  0  0  0  0  0
    2.7369    4.2611   -1.2672 N   0  0  0  0  0  0  0  0  0  0  0  0
    1.9867    5.3714   -1.1267 C   0  0  0  0  0  0  0  0  0  0  0  0
    0.7614    5.4356   -0.4857 C   0  0  0  0  0  0  0  0  0  0  0  0
    0.2264    4.2697    0.0602 C   0  0  0  0  0  0  0  0  0  0  0  0
    0.9534    3.0689   -0.0707 C   0  0  0  0  0  0  0  0  0  0  0  0
    0.7462    1.7298    0.3319 C   0  0  0  0  0  0  0  0  0  0  0  0
   -0.4379   -1.6801    1.4814 C   0  0  0  0  0  0  0  0  0  0  0  0
   -1.8224   -1.6496    0.7887 C   0  0  0  0  0  0  0  0  0  0  0  0
   -2.7455   -0.7847    1.3179 C   0  0  0  0  0  0  0  0  0  0  0  0
   -2.2533    0.2701    2.2783 C   0  0  0  0  0  0  0  0  0  0  0  0
   -3.9628   -0.2164    0.6133 C   0  0  0  0  0  0  0  0  0  0  0  0
   -0.3111   -1.3813   -1.4993 H   0  0  0  0  0  0  0  0  0  0  0  0
   -0.8088   -2.7412   -2.2681 H   0  0  0  0  0  0  0  0  0  0  0  0
    0.1273   -2.8837   -0.9034 H   0  0  0  0  0  0  0  0  0  0  0  0
   -2.1679   -3.3891   -0.4319 H   0  0  0  0  0  0  0  0  0  0  0  0
   -4.1979    1.3475   -0.8975 H   0  0  0  0  0  0  0  0  0  0  0  0
   -3.1039    2.5745    0.9316 H   0  0  0  0  0  0  0  0  0  0  0  0
   -1.9361    2.4838   -0.3852 H   0  0  0  0  0  0  0  0  0  0  0  0
    2.6495   -1.2819   -1.8486 H   0  0  0  0  0  0  0  0  0  0  0  0
    3.9594   -3.3253   -2.2645 H   0  0  0  0  0  0  0  0  0  0  0  0
    4.5521   -4.8355   -0.3915 H   0  0  0  0  0  0  0  0  0  0  0  0
    3.8566   -4.2778    1.9203 H   0  0  0  0  0  0  0  0  0  0  0  0
    2.5522   -2.2349    2.3701 H   0  0  0  0  0  0  0  0  0  0  0  0
    2.4235    6.2685   -1.5615 H   0  0  0  0  0  0  0  0  0  0  0  0
    0.2328    6.3802   -0.4071 H   0  0  0  0  0  0  0  0  0  0  0  0
   -0.7235    4.3015    0.5833 H   0  0  0  0  0  0  0  0  0  0  0  0
    0.0636   -2.6150    1.2126 H   0  0  0  0  0  0  0  0  0  0  0  0
   -0.5400   -1.7532    2.5705 H   0  0  0  0  0  0  0  0  0  0  0  0
   -1.6370   -0.1063    3.0989 H   0  0  0  0  0  0  0  0  0  0  0  0
   -3.0700    0.8083    2.7746 H   0  0  0  0  0  0  0  0  0  0  0  0
   -4.6267    0.2884    1.3268 H   0  0  0  0  0  0  0  0  0  0  0  0
   -4.5858   -0.9944    0.1643 H   0  0  0  0  0  0  0  0  0  0  0  0
  1  2  1  0
  2  3  1  0
  3  4  1  0
  4  5  2  0
  4  6  1  0
  6  7  1  0
  7  8  1  0
  8  9  2  0
  9 10  1  0
 10 11  2  0
 11 12  1  0
 12 13  2  0
 13 14  1  0
 14 15  2  0
 15 16  1  0
 16 17  2  0
 11 18  1  0
 18 19  1  0
 19 20  1  0
 20 21  1  0
 21 22  2  0
 22 23  1  0
 23 24  2  0
 24 25  1  0
 25 26  1  0
 10 27  1  0
 27 28  1  0
 28 29  2  0
 29 30  1  0
 29 31  1  0
 28  2  1  0
 31  6  1  0
 30  8  1  0
 26  9  1  0
 17 12  1  0
 26 18  2  0
 25 20  2  0
  1 32  1  0
  1 33  1  0
  1 34  1  0
  2 35  1  1
  6 36  1  6
  7 37  1  0
  7 38  1  0
 13 39  1  0
 14 40  1  0
 15 41  1  0
 16 42  1  0
 17 43  1  0
 22 44  1  0
 23 45  1  0
 24 46  1  0
 27 47  1  0
 27 48  1  0
 30 49  1  0
 30 50  1  0
 31 51  1  0
 31 52  1  0
M  CHG  1   1   1
M  END
>  <_SMILES>  (140) 
[NH3+][C@@H]1SC(=O)[C@@H]2CC3=C4C(=C(c5ccccc5)c5sc6ncccc6c54)CC1=C(C3)C2

$$$$

     RDKit          3D

 52 58  0  0  0  0  0  0  0  0999 V2000
   -1.2199   -3.8296   -1.3098 N   0  0  0  0  0  0  0  0  0  0  0  0
   -1.0221   -2.3845   -1.1446 C   0  0  1  0  0  0  0  0  0  0  0  0
   -1.9400   -1.6745   -2.5138 S   0  0  0  0  0  0  0  0  0  0  0  0
   -2.0338   -0.0040   -1.9291 C   0  0  0  0  0  0  0  0  0  0  0  0
   -1.2089    0.8017   -2.3309 O   0  0  0  0  0  0  0  0  0  0  0  0
   -3.1857    0.3318   -0.9637 C   0  0  2  0  0  0  0  0  0  0  0  0
   -2.7159    1.4291    0.0793 C   0  0  0  0  0  0  0  0  0  0  0  0
   -1.8075    0.7914    1.1399 C   0  0  0  0  0  0  0  0  0  0  0  0
   -0.4612    0.8630    1.0718 C   0  0  0  0  0  0  0  0  0  0  0  0
    0.4112   -0.3783    1.0842 C   0  0  0  0  0  0  0  0  0  0  0  0
    1.6810   -0.0397    0.7179 C   0  0  0  0  0  0  0  0  0  0  0  0
    2.7631   -0.9966    0.4720 C   0  0  0  0  0  0  0  0  0  0  0  0
    3.2760   -1.7755    1.5179 C   0  0  0  0  0  0  0  0  0  0  0  0
    4.2879   -2.7060    1.2737 C   0  0  0  0  0  0  0  0  0  0  0  0
    4.7968   -2.8616   -0.0146 C   0  0  0  0  0  0  0  0  0  0  0  0
    4.3004   -2.0838   -1.0593 C   0  0  0  0  0  0  0  0  0  0  0  0
    3.2875   -1.1538   -0.8179 C   0  0  0  0  0  0  0  0  0  0  0  0
    1.6332    1.3561    0.4489 C   0  0  0  0  0  0  0  0  0  0  0  0
    2.7847    2.4605   -0.0675 S   0  0  0  0  0  0  0  0  0  0  0  0
    1.6340    3.7370    0.0090 C   0  0  0  0  0  0  0  0  0  0  0  0
    2.0013    4.9982   -0.2990 N   0  0  0  0  0  0  0  0  0  0  0  0
    1.0196    5.9086   -0.1500 C   0  0  0  0  0  0  0  0  0  0  0  0
   -0.2672    5.6382    0.2830 C   0  0  0  0  0  0  0  0  0  0  0  0
   -0.6111    4.3221    0.5873 C   0  0  0  0  0  0  0  0  0  0  0  0
    0.3653    3.3170    0.4315 C   0  0  0  0  0  0  0  0  0  0  0  0
    0.3938    1.9177    0.6302 C   0  0  0  0  0  0  0  0  0  0  0  0
   -0.1536   -1.7862    1.1739 C   0  0  0  0  0  0  0  0  0  0  0  0
   -1.3918   -1.9546    0.2590 C   0  0  0  0  0  0  0  0  0  0  0  0
   -2.5599   -1.3711    0.6621 C   0  0  0  0  0  0  0  0  0  0  0  0
   -2.4875   -0.3868    1.8059 C   0  0  0  0  0  0  0  0  0  0  0  0
   -3.6969   -0.9472   -0.2448 C   0  0  0  0  0  0  0  0  0  0  0  0
   -2.1993   -4.0697   -1.1275 H   0  0  0  0  0  0  0  0  0  0  0  0
   -0.6197   -4.3741   -0.6832 H   0  0  0  0  0  0  0  0  0  0  0  0
   -1.0100   -4.0881   -2.2801 H   0  0  0  0  0  0  0  0  0  0  0  0
    0.0374   -2.1942   -1.3445 H   0  0  0  0  0  0  0  0  0  0  0  0
   -3.9952    0.7506   -1.5738 H   0  0  0  0  0  0  0  0  0  0  0  0
   -3.5929    1.8586    0.5785 H   0  0  0  0  0  0  0  0  0  0  0  0
   -2.2212    2.2434   -0.4554 H   0  0  0  0  0  0  0  0  0  0  0  0
    2.9104   -1.6468    2.5348 H   0  0  0  0  0  0  0  0  0  0  0  0
    4.6978   -3.2928    2.0929 H   0  0  0  0  0  0  0  0  0  0  0  0
    5.6017   -3.5700   -0.1990 H   0  0  0  0  0  0  0  0  0  0  0  0
    4.7214   -2.1839   -2.0574 H   0  0  0  0  0  0  0  0  0  0  0  0
    2.9289   -0.5385   -1.6414 H   0  0  0  0  0  0  0  0  0  0  0  0
    1.3105    6.9283   -0.3949 H   0  0  0  0  0  0  0  0  0  0  0  0
   -0.9906    6.4403    0.3864 H   0  0  0  0  0  0  0  0  0  0  0  0
   -1.6082    4.0890    0.9451 H   0  0  0  0  0  0  0  0  0  0  0  0
   -0.3933   -2.0347    2.2142 H   0  0  0  0  0  0  0  0  0  0  0  0
    0.5871   -2.5412    0.8860 H   0  0  0  0  0  0  0  0  0  0  0  0
   -1.9533   -0.7522    2.6872 H   0  0  0  0  0  0  0  0  0  0  0  0
   -3.4792   -0.1043    2.1795 H   0  0  0  0  0  0  0  0  0  0  0  0
   -4.5907   -0.7080    0.3457 H   0  0  0  0  0  0  0  0  0  0  0  0
   -4.0145   -1.7505   -0.9153 H   0  0  0  0  0  0  0  0  0  0  0  0
  1  2  1  0
  2  3  1  0
  3  4  1  0
  4  5  2  0
  4  6  1  0
  6  7  1  0
  7  8  1  0
  8  9  2  0
  9 10  1  0
 10 11  2  0
 11 12  1  0
 12 13  2  0
 13 14  1  0
 14 15  2  0
 15 16  1  0
 16 17  2  0
 11 18  1  0
 18 19  1  0
 19 20  1  0
 20 21  1  0
 21 22  2  0
 22 23  1  0
 23 24  2  0
 24 25  1  0
 25 26  1  0
 10 27  1  0
 27 28  1  0
 28 29  2  0
 29 30  1  0
 29 31  1  0
 28  2  1  0
 31  6  1  0
 30  8  1  0
 26  9  1  0
 17 12  1  0
 26 18  2  0
 25 20  2  0
  1 32  1  0
  1 33  1  0
  1 34  1  0
  2 35  1  6
  6 36  1  6
  7 37  1  0
  7 38  1  0
 13 39  1  0
 14 40  1  0
 15 41  1  0
 16 42  1  0
 17 43  1  0
 22 44  1  0
 23 45  1  0
 24 46  1  0
 27 47  1  0
 27 48  1  0
 30 49  1  0
 30 50  1  0
 31 51  1  0
 31 52  1  0
M  CHG  1   1   1
M  END
>  <_SMILES>  (141) 
[NH3+][C@H]1SC(=O)[C@@H]2CC3=C4C(=C(c5ccccc5)c5sc6ncccc6c54)CC1=C(C3)C2

$$$$

     RDKit          3D

 52 58  0  0  0  0  0  0  0  0999 V2000
   -2.0243   -3.6612    0.6742 N   0  0  0  0  0  0  0  0  0  0  0  0
   -1.5600   -2.2695    0.7215 C   0  0  2  0  0  0  0  0  0  0  0  0
   -2.5018   -1.5569    2.0729 S   0  0  0  0  0  0  0  0  0  0  0  0
   -2.2318    0.1561    1.7068 C   0  0  0  0  0  0  0  0  0  0  0  0
   -1.3353    0.7433    2.2921 O   0  0  0  0  0  0  0  0  0  0  0  0
   -3.1807    0.8069    0.6832 C   0  0  1  0  0  0  0  0  0  0  0  0
   -2.4032    1.9059   -0.1537 C   0  0  0  0  0  0  0  0  0  0  0  0
   -1.4961    1.2313   -1.1923 C   0  0  0  0  0  0  0  0  0  0  0  0
   -0.1764    1.0414   -0.9805 C   0  0  0  0  0  0  0  0  0  0  0  0
    0.4622   -0.3320   -1.0684 C   0  0  0  0  0  0  0  0  0  0  0  0
    1.7168   -0.2801   -0.5350 C   0  0  0  0  0  0  0  0  0  0  0  0
    2.5779   -1.4440   -0.3097 C   0  0  0  0  0  0  0  0  0  0  0  0
    3.0724   -2.1839   -1.3921 C   0  0  0  0  0  0  0  0  0  0  0  0
    3.8697   -3.3087   -1.1721 C   0  0  0  0  0  0  0  0  0  0  0  0
    4.1818   -3.6992    0.1291 C   0  0  0  0  0  0  0  0  0  0  0  0
    3.7034   -2.9634    1.2118 C   0  0  0  0  0  0  0  0  0  0  0  0
    2.9048   -1.8391    0.9944 C   0  0  0  0  0  0  0  0  0  0  0  0
    1.8793    1.0612   -0.0907 C   0  0  0  0  0  0  0  0  0  0  0  0
    3.1327    1.8659    0.6797 S   0  0  0  0  0  0  0  0  0  0  0  0
    2.2392    3.3359    0.6566 C   0  0  0  0  0  0  0  0  0  0  0  0
    2.7791    4.4637    1.1634 N   0  0  0  0  0  0  0  0  0  0  0  0
    1.9961    5.5528    1.0377 C   0  0  0  0  0  0  0  0  0  0  0  0
    0.7449    5.5780    0.4457 C   0  0  0  0  0  0  0  0  0  0  0  0
    0.2179    4.3917   -0.0622 C   0  0  0  0  0  0  0  0  0  0  0  0
    0.9785    3.2105    0.0572 C   0  0  0  0  0  0  0  0  0  0  0  0
    0.7879    1.8616   -0.3202 C   0  0  0  0  0  0  0  0  0  0  0  0
   -0.3230   -1.5904   -1.3990 C   0  0  0  0  0  0  0  0  0  0  0  0
   -1.6744   -1.6246   -0.6433 C   0  0  0  0  0  0  0  0  0  0  0  0
   -2.6651   -0.7915   -1.0814 C   0  0  0  0  0  0  0  0  0  0  0  0
   -2.2832    0.2828   -2.0725 C   0  0  0  0  0  0  0  0  0  0  0  0
   -3.8139   -0.2657   -0.2455 C   0  0  0  0  0  0  0  0  0  0  0  0
   -3.0006   -3.6919    0.3644 H   0  0  0  0  0  0  0  0  0  0  0  0
   -1.4553   -4.2354    0.0450 H   0  0  0  0  0  0  0  0  0  0  0  0
   -1.9832   -4.0608    1.6182 H   0  0  0  0  0  0  0  0  0  0  0  0
   -0.5162   -2.3043    1.0501 H   0  0  0  0  0  0  0  0  0  0  0  0
   -3.9739    1.2994    1.2587 H   0  0  0  0  0  0  0  0  0  0  0  0
   -1.8441    2.5485    0.5305 H   0  0  0  0  0  0  0  0  0  0  0  0
   -3.1244    2.5448   -0.6776 H   0  0  0  0  0  0  0  0  0  0  0  0
    2.8623   -1.8768   -2.4148 H   0  0  0  0  0  0  0  0  0  0  0  0
    4.2690   -3.8671   -2.0161 H   0  0  0  0  0  0  0  0  0  0  0  0
    4.8229   -4.5619    0.2985 H   0  0  0  0  0  0  0  0  0  0  0  0
    3.9750   -3.2508    2.2253 H   0  0  0  0  0  0  0  0  0  0  0  0
    2.5599   -1.2630    1.8515 H   0  0  0  0  0  0  0  0  0  0  0  0
    2.4272    6.4662    1.4427 H   0  0  0  0  0  0  0  0  0  0  0  0
    0.1899    6.5078    0.3766 H   0  0  0  0  0  0  0  0  0  0  0  0
   -0.7529    4.3908   -0.5460 H   0  0  0  0  0  0  0  0  0  0  0  0
   -0.4726   -1.6724   -2.4817 H   0  0  0  0  0  0  0  0  0  0  0  0
    0.2344   -2.4980   -1.1400 H   0  0  0  0  0  0  0  0  0  0  0  0
   -1.7164   -0.0759   -2.9361 H   0  0  0  0  0  0  0  0  0  0  0  0
   -3.1573    0.7858   -2.5035 H   0  0  0  0  0  0  0  0  0  0  0  0
   -4.5733    0.2008   -0.8862 H   0  0  0  0  0  0  0  0  0  0  0  0
   -4.3459   -1.0648    0.2781 H   0  0  0  0  0  0  0  0  0  0  0  0
  1  2  1  0
  2  3  1  0
  3  4  1  0
  4  5  2  0
  4  6  1  0
  6  7  1  0
  7  8  1  0
  8  9  2  0
  9 10  1  0
 10 11  2  0
 11 12  1  0
 12 13  2  0
 13 14  1  0
 14 15  2  0
 15 16  1  0
 16 17  2  0
 11 18  1  0
 18 19  1  0
 19 20  1  0
 20 21  1  0
 21 22  2  0
 22 23  1  0
 23 24  2  0
 24 25  1  0
 25 26  1  0
 10 27  1  0
 27 28  1  0
 28 29  2  0
 29 30  1  0
 29 31  1  0
 28  2  1  0
 31  6  1  0
 30  8  1  0
 26  9  1  0
 17 12  1  0
 26 18  2  0
 25 20  2  0
  1 32  1  0
  1 33  1  0
  1 34  1  0
  2 35  1  1
  6 36  1  1
  7 37  1  0
  7 38  1  0
 13 39  1  0
 14 40  1  0
 15 41  1  0
 16 42  1  0
 17 43  1  0
 22 44  1  0
 23 45  1  0
 24 46  1  0
 27 47  1  0
 27 48  1  0
 30 49  1  0
 30 50  1  0
 31 51  1  0
 31 52  1  0
M  CHG  1   1   1
M  END
>  <_SMILES>  (142) 
[NH3+][C@@H]1SC(=O)[C@H]2CC3=C4C(=C(c5ccccc5)c5sc6ncccc6c54)CC1=C(C3)C2

$$$$

     RDKit          3D

 52 58  0  0  0  0  0  0  0  0999 V2000
    0.7102   -2.5346   -0.9293 N   0  0  0  0  0  0  0  0  0  0  0  0
    1.7984   -2.4981    0.0671 C   0  0  1  0  0  0  0  0  0  0  0  0
    3.1757   -1.9695   -0.9847 S   0  0  0  0  0  0  0  0  0  0  0  0
    2.8136   -0.2356   -0.9303 C   0  0  0  0  0  0  0  0  0  0  0  0
    1.9923    0.1839   -1.7333 O   0  0  0  0  0  0  0  0  0  0  0  0
    3.4602    0.5772    0.2003 C   0  0  1  0  0  0  0  0  0  0  0  0
    2.5029    1.7740    0.6265 C   0  0  0  0  0  0  0  0  0  0  0  0
    1.3187    1.2488    1.4567 C   0  0  0  0  0  0  0  0  0  0  0  0
    0.0894    1.0449    0.9388 C   0  0  0  0  0  0  0  0  0  0  0  0
   -0.6186   -0.2968    1.0420 C   0  0  0  0  0  0  0  0  0  0  0  0
   -1.7182   -0.2879    0.2313 C   0  0  0  0  0  0  0  0  0  0  0  0
   -2.5657   -1.4543   -0.0473 C   0  0  0  0  0  0  0  0  0  0  0  0
   -3.1938   -2.1464    0.9974 C   0  0  0  0  0  0  0  0  0  0  0  0
   -3.9600   -3.2836    0.7346 C   0  0  0  0  0  0  0  0  0  0  0  0
   -4.1153   -3.7334   -0.5747 C   0  0  0  0  0  0  0  0  0  0  0  0
   -3.5156   -3.0413   -1.6244 C   0  0  0  0  0  0  0  0  0  0  0  0
   -2.7469   -1.9052   -1.3633 C   0  0  0  0  0  0  0  0  0  0  0  0
   -1.7002    0.9874   -0.4039 C   0  0  0  0  0  0  0  0  0  0  0  0
   -2.6988    1.7147   -1.5394 S   0  0  0  0  0  0  0  0  0  0  0  0
   -1.7492    3.1478   -1.5014 C   0  0  0  0  0  0  0  0  0  0  0  0
   -2.0905    4.2045   -2.2666 N   0  0  0  0  0  0  0  0  0  0  0  0
   -1.2986    5.2820   -2.1007 C   0  0  0  0  0  0  0  0  0  0  0  0
   -0.2194    5.3588   -1.2372 C   0  0  0  0  0  0  0  0  0  0  0  0
    0.1087    4.2420   -0.4700 C   0  0  0  0  0  0  0  0  0  0  0  0
   -0.6693    3.0748   -0.6118 C   0  0  0  0  0  0  0  0  0  0  0  0
   -0.6475    1.7862   -0.0310 C   0  0  0  0  0  0  0  0  0  0  0  0
    0.0260   -1.5148    1.7011 C   0  0  0  0  0  0  0  0  0  0  0  0
    1.5166   -1.6438    1.3023 C   0  0  0  0  0  0  0  0  0  0  0  0
    2.3834   -0.7711    1.9082 C   0  0  0  0  0  0  0  0  0  0  0  0
    1.7971    0.4187    2.6279 C   0  0  0  0  0  0  0  0  0  0  0  0
    3.7542   -0.3597    1.4050 C   0  0  0  0  0  0  0  0  0  0  0  0
   -0.1574   -2.9708   -0.6016 H   0  0  0  0  0  0  0  0  0  0  0  0
    1.0334   -3.0474   -1.7570 H   0  0  0  0  0  0  0  0  0  0  0  0
    0.5022   -1.5786   -1.2584 H   0  0  0  0  0  0  0  0  0  0  0  0
    1.9573   -3.5362    0.3751 H   0  0  0  0  0  0  0  0  0  0  0  0
    4.3968    0.9917   -0.1901 H   0  0  0  0  0  0  0  0  0  0  0  0
    2.1727    2.3017   -0.2718 H   0  0  0  0  0  0  0  0  0  0  0  0
    3.0669    2.4911    1.2351 H   0  0  0  0  0  0  0  0  0  0  0  0
   -3.1132   -1.7953    2.0251 H   0  0  0  0  0  0  0  0  0  0  0  0
   -4.4588   -3.8053    1.5493 H   0  0  0  0  0  0  0  0  0  0  0  0
   -4.7343   -4.6051   -0.7796 H   0  0  0  0  0  0  0  0  0  0  0  0
   -3.6758   -3.3707   -2.6494 H   0  0  0  0  0  0  0  0  0  0  0  0
   -2.3182   -1.3647   -2.2055 H   0  0  0  0  0  0  0  0  0  0  0  0
   -1.5727    6.1409   -2.7104 H   0  0  0  0  0  0  0  0  0  0  0  0
    0.3549    6.2763   -1.1580 H   0  0  0  0  0  0  0  0  0  0  0  0
    0.9389    4.2870    0.2269 H   0  0  0  0  0  0  0  0  0  0  0  0
   -0.0906   -1.4588    2.7898 H   0  0  0  0  0  0  0  0  0  0  0  0
   -0.4843   -2.4475    1.4413 H   0  0  0  0  0  0  0  0  0  0  0  0
    1.0065    0.1795    3.3439 H   0  0  0  0  0  0  0  0  0  0  0  0
    2.5410    0.9693    3.2163 H   0  0  0  0  0  0  0  0  0  0  0  0
    4.3907   -1.2192    1.1790 H   0  0  0  0  0  0  0  0  0  0  0  0
    4.3041    0.1928    2.1777 H   0  0  0  0  0  0  0  0  0  0  0  0
  1  2  1  0
  2  3  1  0
  3  4  1  0
  4  5  2  0
  4  6  1  0
  6  7  1  0
  7  8  1  0
  8  9  2  0
  9 10  1  0
 10 11  2  0
 11 12  1  0
 12 13  2  0
 13 14  1  0
 14 15  2  0
 15 16  1  0
 16 17  2  0
 11 18  1  0
 18 19  1  0
 19 20  1  0
 20 21  1  0
 21 22  2  0
 22 23  1  0
 23 24  2  0
 24 25  1  0
 25 26  1  0
 10 27  1  0
 27 28  1  0
 28 29  2  0
 29 30  1  0
 29 31  1  0
 28  2  1  0
 31  6  1  0
 30  8  1  0
 26  9  1  0
 17 12  1  0
 26 18  2  0
 25 20  2  0
  1 32  1  0
  1 33  1  0
  1 34  1  0
  2 35  1  1
  6 36  1  6
  7 37  1  0
  7 38  1  0
 13 39  1  0
 14 40  1  0
 15 41  1  0
 16 42  1  0
 17 43  1  0
 22 44  1  0
 23 45  1  0
 24 46  1  0
 27 47  1  0
 27 48  1  0
 30 49  1  0
 30 50  1  0
 31 51  1  0
 31 52  1  0
M  CHG  1   1   1
M  END
>  <_SMILES>  (143) 
[NH3+][C@H]1SC(=O)[C@H]2CC3=C4C(=C(c5ccccc5)c5sc6ncccc6c54)CC1=C(C3)C2

$$$$

     RDKit          3D

 52 58  0  0  0  0  0  0  0  0999 V2000
    1.6953   -3.1201    0.8334 N   0  0  0  0  0  0  0  0  0  0  0  0
    2.6113   -2.4772   -0.1292 C   0  0  2  0  0  0  0  0  0  0  0  0
    4.0477   -2.1809    0.9296 S   0  0  0  0  0  0  0  0  0  0  0  0
    3.4759   -0.6567    1.6286 C   0  0  0  0  0  0  0  0  0  0  0  0
    2.7823   -0.7506    2.6348 O   0  0  0  0  0  0  0  0  0  0  0  0
    3.7280    0.6492    0.8320 C   0  0  2  0  0  0  0  0  0  0  0  0
    2.3828    1.4518    0.9310 C   0  0  0  0  0  0  0  0  0  0  0  0
    1.5377    1.5529   -0.1311 C   0  0  0  0  0  0  0  0  0  0  0  0
    2.0061    1.1537   -1.5189 C   0  0  0  0  0  0  0  0  0  0  0  0
    2.7454   -0.1385   -1.2297 C   0  0  0  0  0  0  0  0  0  0  0  0
    2.0478   -1.2702   -0.8811 C   0  0  0  0  0  0  0  0  0  0  0  0
    0.4987   -1.2052   -1.0069 C   0  0  0  0  0  0  0  0  0  0  0  0
   -0.1741   -0.3339    0.1193 C   0  0  2  0  0  0  0  0  0  0  0  0
   -1.6917   -0.3218    0.0705 C   0  0  0  0  0  0  0  0  0  0  0  0
   -2.4803   -1.5440    0.1492 C   0  0  0  0  0  0  0  0  0  0  0  0
   -2.3753   -2.3784    1.2702 C   0  0  0  0  0  0  0  0  0  0  0  0
   -3.0991   -3.5708    1.3323 C   0  0  0  0  0  0  0  0  0  0  0  0
   -3.9284   -3.9375    0.2740 C   0  0  0  0  0  0  0  0  0  0  0  0
   -4.0446   -3.1083   -0.8403 C   0  0  0  0  0  0  0  0  0  0  0  0
   -3.3259   -1.9132   -0.9021 C   0  0  0  0  0  0  0  0  0  0  0  0
   -2.1000    0.9510    0.0091 C   0  0  0  0  0  0  0  0  0  0  0  0
   -3.6224    1.7341   -0.0705 S   0  0  0  0  0  0  0  0  0  0  0  0
   -2.7917    3.3467   -0.1862 C   0  0  0  0  0  0  0  0  0  0  0  0
   -3.4843    4.4920   -0.3048 N   0  0  0  0  0  0  0  0  0  0  0  0
   -2.7304    5.6132   -0.3780 C   0  0  0  0  0  0  0  0  0  0  0  0
   -1.3347    5.6287   -0.3390 C   0  0  0  0  0  0  0  0  0  0  0  0
   -0.6433    4.4226   -0.2178 C   0  0  0  0  0  0  0  0  0  0  0  0
   -1.3887    3.2615   -0.1430 C   0  0  0  0  0  0  0  0  0  0  0  0
   -0.9839    1.8763   -0.0092 C   0  0  0  0  0  0  0  0  0  0  0  0
    0.1542    1.1765    0.0450 C   0  0  0  0  0  0  0  0  0  0  0  0
    4.0839    0.2844   -0.6398 C   0  0  0  0  0  0  0  0  0  0  0  0
    0.8396   -3.4996    0.4173 H   0  0  0  0  0  0  0  0  0  0  0  0
    1.4605   -2.4716    1.5980 H   0  0  0  0  0  0  0  0  0  0  0  0
    2.1958   -3.8976    1.2806 H   0  0  0  0  0  0  0  0  0  0  0  0
    2.8607   -3.2552   -0.8580 H   0  0  0  0  0  0  0  0  0  0  0  0
    4.5413    1.2051    1.3079 H   0  0  0  0  0  0  0  0  0  0  0  0
    1.9977    1.5939    1.9429 H   0  0  0  0  0  0  0  0  0  0  0  0
    2.6496    1.9325   -1.9450 H   0  0  0  0  0  0  0  0  0  0  0  0
    1.1987    1.0257   -2.2473 H   0  0  0  0  0  0  0  0  0  0  0  0
    0.0885   -2.2210   -0.9968 H   0  0  0  0  0  0  0  0  0  0  0  0
    0.2184   -0.8302   -2.0000 H   0  0  0  0  0  0  0  0  0  0  0  0
    0.1445   -0.7035    1.1031 H   0  0  0  0  0  0  0  0  0  0  0  0
   -1.7739   -2.0844    2.1269 H   0  0  0  0  0  0  0  0  0  0  0  0
   -3.0468   -4.2002    2.2178 H   0  0  0  0  0  0  0  0  0  0  0  0
   -4.5098   -4.8557    0.3280 H   0  0  0  0  0  0  0  0  0  0  0  0
   -4.7117   -3.3831   -1.6549 H   0  0  0  0  0  0  0  0  0  0  0  0
   -3.4413   -1.2733   -1.7753 H   0  0  0  0  0  0  0  0  0  0  0  0
   -3.2929    6.5395   -0.4714 H   0  0  0  0  0  0  0  0  0  0  0  0
   -0.8006    6.5720   -0.4005 H   0  0  0  0  0  0  0  0  0  0  0  0
    0.4400    4.4089   -0.1800 H   0  0  0  0  0  0  0  0  0  0  0  0
    4.8676   -0.4643   -0.7754 H   0  0  0  0  0  0  0  0  0  0  0  0
    4.4756    1.1747   -1.1493 H   0  0  0  0  0  0  0  0  0  0  0  0
  1  2  1  0
  2  3  1  0
  3  4  1  0
  4  5  2  0
  4  6  1  0
  6  7  1  0
  7  8  2  0
  8  9  1  0
  9 10  1  0
 10 11  2  0
 11 12  1  0
 12 13  1  0
 13 14  1  0
 14 15  1  0
 15 16  2  0
 16 17  1  0
 17 18  2  0
 18 19  1  0
 19 20  2  0
 14 21  2  0
 21 22  1  0
 22 23  1  0
 23 24  1  0
 24 25  2  0
 25 26  1  0
 26 27  2  0
 27 28  1  0
 28 29  1  0
 29 30  2  0
 10 31  1  0
 11  2  1  0
 30 13  1  0
 31  6  1  0
 30  8  1  0
 20 15  1  0
 29 21  1  0
 28 23  2  0
  1 32  1  0
  1 33  1  0
  1 34  1  0
  2 35  1  6
  6 36  1  1
  7 37  1  0
  9 38  1  0
  9 39  1  0
 12 40  1  0
 12 41  1  0
 13 42  1  1
 16 43  1  0
 17 44  1  0
 18 45  1  0
 19 46  1  0
 20 47  1  0
 25 48  1  0
 26 49  1  0
 27 50  1  0
 31 51  1  0
 31 52  1  0
M  CHG  1   1   1
M  END
>  <_SMILES>  (144) 
[NH3+][C@@H]1SC(=O)[C@@H]2C=C3CC(=C1C[C@@H]1C(c4ccccc4)=c4sc5ncccc5c4=C31)C2

$$$$

     RDKit          3D

 52 58  0  0  0  0  0  0  0  0999 V2000
   -2.2319   -3.9965   -0.1722 N   0  0  0  0  0  0  0  0  0  0  0  0
   -1.9719   -2.6910   -0.7906 C   0  0  1  0  0  0  0  0  0  0  0  0
   -3.3308   -2.4882   -1.9385 S   0  0  0  0  0  0  0  0  0  0  0  0
   -3.1019   -0.7706   -2.3141 C   0  0  0  0  0  0  0  0  0  0  0  0
   -2.5276   -0.4853   -3.3564 O   0  0  0  0  0  0  0  0  0  0  0  0
   -3.5965    0.2742   -1.2795 C   0  0  2  0  0  0  0  0  0  0  0  0
   -2.3986    1.2572   -1.0796 C   0  0  0  0  0  0  0  0  0  0  0  0
   -1.6923    1.2904    0.0818 C   0  0  0  0  0  0  0  0  0  0  0  0
   -2.2164    0.5796    1.3181 C   0  0  0  0  0  0  0  0  0  0  0  0
   -2.6957   -0.7359    0.7345 C   0  0  0  0  0  0  0  0  0  0  0  0
   -1.7725   -1.6423    0.2848 C   0  0  0  0  0  0  0  0  0  0  0  0
   -0.2658   -1.3762    0.5801 C   0  0  0  0  0  0  0  0  0  0  0  0
    0.3478   -0.2150   -0.2839 C   0  0  2  0  0  0  0  0  0  0  0  0
    1.8291    0.0305   -0.0304 C   0  0  0  0  0  0  0  0  0  0  0  0
    2.8367   -1.0148   -0.1900 C   0  0  0  0  0  0  0  0  0  0  0  0
    3.7572   -1.2837    0.8302 C   0  0  0  0  0  0  0  0  0  0  0  0
    4.6955   -2.3083    0.6871 C   0  0  0  0  0  0  0  0  0  0  0  0
    4.7234   -3.0726   -0.4772 C   0  0  0  0  0  0  0  0  0  0  0  0
    3.8159   -2.8117   -1.5013 C   0  0  0  0  0  0  0  0  0  0  0  0
    2.8748   -1.7893   -1.3577 C   0  0  0  0  0  0  0  0  0  0  0  0
    1.9885    1.3214    0.2903 C   0  0  0  0  0  0  0  0  0  0  0  0
    3.3245    2.3181    0.6976 S   0  0  0  0  0  0  0  0  0  0  0  0
    2.2038    3.7205    0.9746 C   0  0  0  0  0  0  0  0  0  0  0  0
    2.6575    4.9208    1.3743 N   0  0  0  0  0  0  0  0  0  0  0  0
    1.7063    5.8696    1.5339 C   0  0  0  0  0  0  0  0  0  0  0  0
    0.3428    5.6633    1.3157 C   0  0  0  0  0  0  0  0  0  0  0  0
   -0.0982    4.4043    0.9061 C   0  0  0  0  0  0  0  0  0  0  0  0
    0.8525    3.4158    0.7367 C   0  0  0  0  0  0  0  0  0  0  0  0
    0.7260    2.0328    0.3220 C   0  0  0  0  0  0  0  0  0  0  0  0
   -0.2549    1.1793    0.0124 C   0  0  0  0  0  0  0  0  0  0  0  0
   -4.0159   -0.4309    0.0438 C   0  0  0  0  0  0  0  0  0  0  0  0
   -1.4529   -4.3057    0.4176 H   0  0  0  0  0  0  0  0  0  0  0  0
   -2.3984   -4.6965   -0.9032 H   0  0  0  0  0  0  0  0  0  0  0  0
   -3.0777   -3.9420    0.4049 H   0  0  0  0  0  0  0  0  0  0  0  0
   -1.0629   -2.8071   -1.3904 H   0  0  0  0  0  0  0  0  0  0  0  0
   -4.4514    0.8040   -1.7123 H   0  0  0  0  0  0  0  0  0  0  0  0
   -1.9452    1.6353   -1.9988 H   0  0  0  0  0  0  0  0  0  0  0  0
   -3.0213    1.1610    1.7830 H   0  0  0  0  0  0  0  0  0  0  0  0
   -1.4689    0.4409    2.1065 H   0  0  0  0  0  0  0  0  0  0  0  0
    0.2929   -2.3032    0.3956 H   0  0  0  0  0  0  0  0  0  0  0  0
   -0.1229   -1.1818    1.6510 H   0  0  0  0  0  0  0  0  0  0  0  0
    0.1932   -0.4394   -1.3487 H   0  0  0  0  0  0  0  0  0  0  0  0
    3.7604   -0.6973    1.7472 H   0  0  0  0  0  0  0  0  0  0  0  0
    5.4155   -2.4987    1.4799 H   0  0  0  0  0  0  0  0  0  0  0  0
    5.4683   -3.8566   -0.5938 H   0  0  0  0  0  0  0  0  0  0  0  0
    3.8604   -3.3889   -2.4219 H   0  0  0  0  0  0  0  0  0  0  0  0
    2.2041   -1.5801   -2.1875 H   0  0  0  0  0  0  0  0  0  0  0  0
    2.0762    6.8417    1.8523 H   0  0  0  0  0  0  0  0  0  0  0  0
   -0.3597    6.4782    1.4615 H   0  0  0  0  0  0  0  0  0  0  0  0
   -1.1508    4.2207    0.7234 H   0  0  0  0  0  0  0  0  0  0  0  0
   -4.6172    0.2615    0.6479 H   0  0  0  0  0  0  0  0  0  0  0  0
   -4.6529   -1.3116   -0.0667 H   0  0  0  0  0  0  0  0  0  0  0  0
  1  2  1  0
  2  3  1  0
  3  4  1  0
  4  5  2  0
  4  6  1  0
  6  7  1  0
  7  8  2  0
  8  9  1  0
  9 10  1  0
 10 11  2  0
 11 12  1  0
 12 13  1  0
 13 14  1  0
 14 15  1  0
 15 16  2  0
 16 17  1  0
 17 18  2  0
 18 19  1  0
 19 20  2  0
 14 21  2  0
 21 22  1  0
 22 23  1  0
 23 24  1  0
 24 25  2  0
 25 26  1  0
 26 27  2  0
 27 28  1  0
 28 29  1  0
 29 30  2  0
 10 31  1  0
 11  2  1  0
 30 13  1  0
 31  6  1  0
 30  8  1  0
 20 15  1  0
 29 21  1  0
 28 23  2  0
  1 32  1  0
  1 33  1  0
  1 34  1  0
  2 35  1  6
  6 36  1  6
  7 37  1  0
  9 38  1  0
  9 39  1  0
 12 40  1  0
 12 41  1  0
 13 42  1  6
 16 43  1  0
 17 44  1  0
 18 45  1  0
 19 46  1  0
 20 47  1  0
 25 48  1  0
 26 49  1  0
 27 50  1  0
 31 51  1  0
 31 52  1  0
M  CHG  1   1   1
M  END
>  <_SMILES>  (145) 
[NH3+][C@H]1SC(=O)[C@@H]2C=C3CC(=C1C[C@@H]1C(c4ccccc4)=c4sc5ncccc5c4=C31)C2

$$$$

     RDKit          3D

 52 58  0  0  0  0  0  0  0  0999 V2000
   -1.8079   -4.2719   -0.2429 N   0  0  0  0  0  0  0  0  0  0  0  0
   -1.7356   -2.9372    0.3678 C   0  0  2  0  0  0  0  0  0  0  0  0
   -3.3104   -2.7675    1.2067 S   0  0  0  0  0  0  0  0  0  0  0  0
   -3.3714   -1.0037    1.3672 C   0  0  0  0  0  0  0  0  0  0  0  0
   -3.1327   -0.5171    2.4644 O   0  0  0  0  0  0  0  0  0  0  0  0
   -3.7129   -0.1686    0.1048 C   0  0  1  0  0  0  0  0  0  0  0  0
   -2.6229    0.9558    0.0416 C   0  0  0  0  0  0  0  0  0  0  0  0
   -1.6738    0.9760   -0.9364 C   0  0  0  0  0  0  0  0  0  0  0  0
   -1.8403    0.0731   -2.1418 C   0  0  0  0  0  0  0  0  0  0  0  0
   -2.2316   -1.2273   -1.4835 C   0  0  0  0  0  0  0  0  0  0  0  0
   -1.3484   -1.9092   -0.6875 C   0  0  0  0  0  0  0  0  0  0  0  0
    0.1462   -1.4623   -0.5039 C   0  0  0  0  0  0  0  0  0  0  0  0
    0.6756   -0.0354   -0.9030 C   0  0  2  0  0  0  0  0  0  0  0  0
    1.9453    0.3790   -0.1626 C   0  0  0  0  0  0  0  0  0  0  0  0
    3.1544   -0.4455   -0.1461 C   0  0  0  0  0  0  0  0  0  0  0  0
    3.8394   -0.6927    1.0508 C   0  0  0  0  0  0  0  0  0  0  0  0
    4.9727   -1.5096    1.0683 C   0  0  0  0  0  0  0  0  0  0  0  0
    5.4326   -2.0911   -0.1103 C   0  0  0  0  0  0  0  0  0  0  0  0
    4.7616   -1.8549   -1.3073 C   0  0  0  0  0  0  0  0  0  0  0  0
    3.6273   -1.0389   -1.3249 C   0  0  0  0  0  0  0  0  0  0  0  0
    1.7277    1.5832    0.3823 C   0  0  0  0  0  0  0  0  0  0  0  0
    2.6608    2.6711    1.3264 S   0  0  0  0  0  0  0  0  0  0  0  0
    1.2510    3.8067    1.4285 C   0  0  0  0  0  0  0  0  0  0  0  0
    1.3327    4.9712    2.0957 N   0  0  0  0  0  0  0  0  0  0  0  0
    0.2153    5.7318    2.0628 C   0  0  0  0  0  0  0  0  0  0  0  0
   -0.9574    5.3771    1.3953 C   0  0  0  0  0  0  0  0  0  0  0  0
   -1.0109    4.1604    0.7135 C   0  0  0  0  0  0  0  0  0  0  0  0
    0.1118    3.3538    0.7414 C   0  0  0  0  0  0  0  0  0  0  0  0
    0.3808    2.0622    0.1326 C   0  0  0  0  0  0  0  0  0  0  0  0
   -0.2839    1.1335   -0.5672 C   0  0  0  0  0  0  0  0  0  0  0  0
   -3.7117   -1.0799   -1.1598 C   0  0  0  0  0  0  0  0  0  0  0  0
   -2.1021   -4.9548    0.4636 H   0  0  0  0  0  0  0  0  0  0  0  0
   -2.5073   -4.2742   -0.9919 H   0  0  0  0  0  0  0  0  0  0  0  0
   -0.9060   -4.5610   -0.6338 H   0  0  0  0  0  0  0  0  0  0  0  0
   -0.9775   -3.0130    1.1525 H   0  0  0  0  0  0  0  0  0  0  0  0
   -4.7037    0.2749    0.2489 H   0  0  0  0  0  0  0  0  0  0  0  0
   -2.4479    1.4722    0.9874 H   0  0  0  0  0  0  0  0  0  0  0  0
   -2.6160    0.4760   -2.8049 H   0  0  0  0  0  0  0  0  0  0  0  0
   -0.9696   -0.0449   -2.7905 H   0  0  0  0  0  0  0  0  0  0  0  0
    0.7633   -2.2147   -1.0130 H   0  0  0  0  0  0  0  0  0  0  0  0
    0.3769   -1.5652    0.5660 H   0  0  0  0  0  0  0  0  0  0  0  0
    0.9011   -0.0238   -1.9773 H   0  0  0  0  0  0  0  0  0  0  0  0
    3.5047   -0.2512    1.9875 H   0  0  0  0  0  0  0  0  0  0  0  0
    5.5041   -1.6799    2.0020 H   0  0  0  0  0  0  0  0  0  0  0  0
    6.3248   -2.7130   -0.0976 H   0  0  0  0  0  0  0  0  0  0  0  0
    5.1351   -2.2901   -2.2313 H   0  0  0  0  0  0  0  0  0  0  0  0
    3.1436   -0.8482   -2.2797 H   0  0  0  0  0  0  0  0  0  0  0  0
    0.2845    6.6743    2.6010 H   0  0  0  0  0  0  0  0  0  0  0  0
   -1.8118    6.0469    1.4052 H   0  0  0  0  0  0  0  0  0  0  0  0
   -1.9063    3.8750    0.1738 H   0  0  0  0  0  0  0  0  0  0  0  0
   -4.2441   -0.5702   -1.9737 H   0  0  0  0  0  0  0  0  0  0  0  0
   -4.2293   -2.0371   -1.0670 H   0  0  0  0  0  0  0  0  0  0  0  0
  1  2  1  0
  2  3  1  0
  3  4  1  0
  4  5  2  0
  4  6  1  0
  6  7  1  0
  7  8  2  0
  8  9  1  0
  9 10  1  0
 10 11  2  0
 11 12  1  0
 12 13  1  0
 13 14  1  0
 14 15  1  0
 15 16  2  0
 16 17  1  0
 17 18  2  0
 18 19  1  0
 19 20  2  0
 14 21  2  0
 21 22  1  0
 22 23  1  0
 23 24  1  0
 24 25  2  0
 25 26  1  0
 26 27  2  0
 27 28  1  0
 28 29  1  0
 29 30  2  0
 10 31  1  0
 11  2  1  0
 30 13  1  0
 31  6  1  0
 30  8  1  0
 20 15  1  0
 29 21  1  0
 28 23  2  0
  1 32  1  0
  1 33  1  0
  1 34  1  0
  2 35  1  1
  6 36  1  1
  7 37  1  0
  9 38  1  0
  9 39  1  0
 12 40  1  0
 12 41  1  0
 13 42  1  6
 16 43  1  0
 17 44  1  0
 18 45  1  0
 19 46  1  0
 20 47  1  0
 25 48  1  0
 26 49  1  0
 27 50  1  0
 31 51  1  0
 31 52  1  0
M  CHG  1   1   1
M  END
>  <_SMILES>  (146) 
[NH3+][C@@H]1SC(=O)[C@H]2C=C3CC(=C1C[C@@H]1C(c4ccccc4)=c4sc5ncccc5c4=C31)C2

$$$$

     RDKit          3D

 52 58  0  0  0  0  0  0  0  0999 V2000
   -1.1558   -2.2408    1.0739 N   0  0  0  0  0  0  0  0  0  0  0  0
   -2.1594   -2.2074   -0.0117 C   0  0  1  0  0  0  0  0  0  0  0  0
   -3.6871   -1.9054    0.8933 S   0  0  0  0  0  0  0  0  0  0  0  0
   -3.3885   -0.2056    1.2899 C   0  0  0  0  0  0  0  0  0  0  0  0
   -2.8401    0.0136    2.3646 O   0  0  0  0  0  0  0  0  0  0  0  0
   -3.6435    0.8696    0.2074 C   0  0  1  0  0  0  0  0  0  0  0  0
   -2.3133    1.6998    0.1598 C   0  0  0  0  0  0  0  0  0  0  0  0
   -1.4369    1.6040   -0.8836 C   0  0  0  0  0  0  0  0  0  0  0  0
   -1.9340    0.9959   -2.1888 C   0  0  0  0  0  0  0  0  0  0  0  0
   -2.6098   -0.2578   -1.6657 C   0  0  0  0  0  0  0  0  0  0  0  0
   -1.8131   -1.2406   -1.1374 C   0  0  0  0  0  0  0  0  0  0  0  0
   -0.3320   -1.2607   -1.5633 C   0  0  0  0  0  0  0  0  0  0  0  0
    0.5832   -0.0142   -1.2388 C   0  0  2  0  0  0  0  0  0  0  0  0
    1.7625   -0.2917   -0.3083 C   0  0  0  0  0  0  0  0  0  0  0  0
    2.6222   -1.4724   -0.4318 C   0  0  0  0  0  0  0  0  0  0  0  0
    3.0002   -1.9439   -1.6973 C   0  0  0  0  0  0  0  0  0  0  0  0
    3.7716   -3.1015   -1.8279 C   0  0  0  0  0  0  0  0  0  0  0  0
    4.1749   -3.8028   -0.6952 C   0  0  0  0  0  0  0  0  0  0  0  0
    3.8124   -3.3450    0.5683 C   0  0  0  0  0  0  0  0  0  0  0  0
    3.0392   -2.1885    0.6996 C   0  0  0  0  0  0  0  0  0  0  0  0
    1.8595    0.7423    0.5378 C   0  0  0  0  0  0  0  0  0  0  0  0
    2.9083    1.1398    1.8376 S   0  0  0  0  0  0  0  0  0  0  0  0
    1.9406    2.6311    2.1799 C   0  0  0  0  0  0  0  0  0  0  0  0
    2.2773    3.4730    3.1715 N   0  0  0  0  0  0  0  0  0  0  0  0
    1.5002    4.5743    3.2798 C   0  0  0  0  0  0  0  0  0  0  0  0
    0.4192    4.8560    2.4447 C   0  0  0  0  0  0  0  0  0  0  0  0
    0.0904    3.9551    1.4305 C   0  0  0  0  0  0  0  0  0  0  0  0
    0.8528    2.8073    1.3094 C   0  0  0  0  0  0  0  0  0  0  0  0
    0.7877    1.7056    0.3594 C   0  0  0  0  0  0  0  0  0  0  0  0
   -0.0569    1.2434   -0.5775 C   0  0  0  0  0  0  0  0  0  0  0  0
   -3.9649    0.1858   -1.1431 C   0  0  0  0  0  0  0  0  0  0  0  0
   -1.5253   -2.8112    1.8442 H   0  0  0  0  0  0  0  0  0  0  0  0
   -1.0038   -1.3034    1.4733 H   0  0  0  0  0  0  0  0  0  0  0  0
   -0.2506   -2.6334    0.7967 H   0  0  0  0  0  0  0  0  0  0  0  0
   -2.1949   -3.2240   -0.4164 H   0  0  0  0  0  0  0  0  0  0  0  0
   -4.4755    1.5015    0.5332 H   0  0  0  0  0  0  0  0  0  0  0  0
   -1.9704    2.0186    1.1445 H   0  0  0  0  0  0  0  0  0  0  0  0
   -2.6272    1.6840   -2.6874 H   0  0  0  0  0  0  0  0  0  0  0  0
   -1.1571    0.7941   -2.9317 H   0  0  0  0  0  0  0  0  0  0  0  0
   -0.3275   -1.3851   -2.6577 H   0  0  0  0  0  0  0  0  0  0  0  0
    0.1336   -2.1914   -1.2222 H   0  0  0  0  0  0  0  0  0  0  0  0
    1.0085    0.3165   -2.1999 H   0  0  0  0  0  0  0  0  0  0  0  0
    2.7273   -1.4054   -2.6026 H   0  0  0  0  0  0  0  0  0  0  0  0
    4.0760   -3.4458   -2.8142 H   0  0  0  0  0  0  0  0  0  0  0  0
    4.7919   -4.6933   -0.7968 H   0  0  0  0  0  0  0  0  0  0  0  0
    4.1514   -3.8787    1.4539 H   0  0  0  0  0  0  0  0  0  0  0  0
    2.7885   -1.8547    1.7038 H   0  0  0  0  0  0  0  0  0  0  0  0
    1.7798    5.2594    4.0770 H   0  0  0  0  0  0  0  0  0  0  0  0
   -0.1485    5.7718    2.5808 H   0  0  0  0  0  0  0  0  0  0  0  0
   -0.7290    4.1719    0.7540 H   0  0  0  0  0  0  0  0  0  0  0  0
   -4.4207    0.9180   -1.8227 H   0  0  0  0  0  0  0  0  0  0  0  0
   -4.6933   -0.6279   -1.1044 H   0  0  0  0  0  0  0  0  0  0  0  0
  1  2  1  0
  2  3  1  0
  3  4  1  0
  4  5  2  0
  4  6  1  0
  6  7  1  0
  7  8  2  0
  8  9  1  0
  9 10  1  0
 10 11  2  0
 11 12  1  0
 12 13  1  0
 13 14  1  0
 14 15  1  0
 15 16  2  0
 16 17  1  0
 17 18  2  0
 18 19  1  0
 19 20  2  0
 14 21  2  0
 21 22  1  0
 22 23  1  0
 23 24  1  0
 24 25  2  0
 25 26  1  0
 26 27  2  0
 27 28  1  0
 28 29  1  0
 29 30  2  0
 10 31  1  0
 11  2  1  0
 30 13  1  0
 31  6  1  0
 30  8  1  0
 20 15  1  0
 29 21  1  0
 28 23  2  0
  1 32  1  0
  1 33  1  0
  1 34  1  0
  2 35  1  6
  6 36  1  1
  7 37  1  0
  9 38  1  0
  9 39  1  0
 12 40  1  0
 12 41  1  0
 13 42  1  6
 16 43  1  0
 17 44  1  0
 18 45  1  0
 19 46  1  0
 20 47  1  0
 25 48  1  0
 26 49  1  0
 27 50  1  0
 31 51  1  0
 31 52  1  0
M  CHG  1   1   1
M  END
>  <_SMILES>  (147) 
[NH3+][C@H]1SC(=O)[C@H]2C=C3CC(=C1C[C@@H]1C(c4ccccc4)=c4sc5ncccc5c4=C31)C2

$$$$

     RDKit          3D

 52 58  0  0  0  0  0  0  0  0999 V2000
    1.6816   -3.3047    1.6267 N   0  0  0  0  0  0  0  0  0  0  0  0
    2.4203   -2.1377    1.1260 C   0  0  2  0  0  0  0  0  0  0  0  0
    2.2660   -0.9014    2.4307 S   0  0  0  0  0  0  0  0  0  0  0  0
    3.6368    0.1476    1.9977 C   0  0  0  0  0  0  0  0  0  0  0  0
    4.5945    0.1817    2.7606 O   0  0  0  0  0  0  0  0  0  0  0  0
    3.6542    0.8539    0.6269 C   0  0  2  0  0  0  0  0  0  0  0  0
    2.3085    1.5617    0.3109 C   0  0  0  0  0  0  0  0  0  0  0  0
    1.5762    1.2306   -0.7893 C   0  0  0  0  0  0  0  0  0  0  0  0
    2.1884    0.2978   -1.8205 C   0  0  0  0  0  0  0  0  0  0  0  0
    2.7338   -0.7903   -0.9302 C   0  0  0  0  0  0  0  0  0  0  0  0
    1.8919   -1.5671   -0.1787 C   0  0  0  0  0  0  0  0  0  0  0  0
    0.3392   -1.5441   -0.3298 C   0  0  0  0  0  0  0  0  0  0  0  0
   -0.4295   -0.3421   -0.9926 C   0  0  1  0  0  0  0  0  0  0  0  0
   -1.8748   -0.2047   -0.5141 C   0  0  0  0  0  0  0  0  0  0  0  0
   -2.8283   -1.3154   -0.5598 C   0  0  0  0  0  0  0  0  0  0  0  0
   -3.6614   -1.5962    0.5316 C   0  0  0  0  0  0  0  0  0  0  0  0
   -4.5398   -2.6824    0.4988 C   0  0  0  0  0  0  0  0  0  0  0  0
   -4.5931   -3.5038   -0.6240 C   0  0  0  0  0  0  0  0  0  0  0  0
   -3.7707   -3.2384   -1.7157 C   0  0  0  0  0  0  0  0  0  0  0  0
   -2.8920   -2.1523   -1.6830 C   0  0  0  0  0  0  0  0  0  0  0  0
   -2.0529    1.0602   -0.1100 C   0  0  0  0  0  0  0  0  0  0  0  0
   -3.3691    1.9513    0.5381 S   0  0  0  0  0  0  0  0  0  0  0  0
   -2.3133    3.4164    0.6963 C   0  0  0  0  0  0  0  0  0  0  0  0
   -2.7860    4.5745    1.1889 N   0  0  0  0  0  0  0  0  0  0  0  0
   -1.8975    5.5935    1.2153 C   0  0  0  0  0  0  0  0  0  0  0  0
   -0.5772    5.4960    0.7748 C   0  0  0  0  0  0  0  0  0  0  0  0
   -0.1148    4.2775    0.2752 C   0  0  0  0  0  0  0  0  0  0  0  0
   -0.9971    3.2133    0.2483 C   0  0  0  0  0  0  0  0  0  0  0  0
   -0.8373    1.8458   -0.2158 C   0  0  0  0  0  0  0  0  0  0  0  0
    0.1459    1.0585   -0.6705 C   0  0  0  0  0  0  0  0  0  0  0  0
    4.0580   -0.2649   -0.3842 C   0  0  0  0  0  0  0  0  0  0  0  0
    1.5825   -4.0320    0.9115 H   0  0  0  0  0  0  0  0  0  0  0  0
    0.7533   -3.0287    1.9629 H   0  0  0  0  0  0  0  0  0  0  0  0
    2.1745   -3.7016    2.4347 H   0  0  0  0  0  0  0  0  0  0  0  0
    3.4515   -2.4901    1.0338 H   0  0  0  0  0  0  0  0  0  0  0  0
    4.4406    1.6173    0.6681 H   0  0  0  0  0  0  0  0  0  0  0  0
    1.8507    2.0923    1.1456 H   0  0  0  0  0  0  0  0  0  0  0  0
    2.9688    0.8251   -2.3831 H   0  0  0  0  0  0  0  0  0  0  0  0
    1.5130   -0.0955   -2.5834 H   0  0  0  0  0  0  0  0  0  0  0  0
    0.0583   -2.4673   -0.8537 H   0  0  0  0  0  0  0  0  0  0  0  0
   -0.0894   -1.6376    0.6759 H   0  0  0  0  0  0  0  0  0  0  0  0
   -0.4493   -0.4840   -2.0811 H   0  0  0  0  0  0  0  0  0  0  0  0
   -3.6460   -0.9721    1.4227 H   0  0  0  0  0  0  0  0  0  0  0  0
   -5.1950   -2.8767    1.3452 H   0  0  0  0  0  0  0  0  0  0  0  0
   -5.2904   -4.3380   -0.6558 H   0  0  0  0  0  0  0  0  0  0  0  0
   -3.8300   -3.8656   -2.6025 H   0  0  0  0  0  0  0  0  0  0  0  0
   -2.2862   -1.9540   -2.5640 H   0  0  0  0  0  0  0  0  0  0  0  0
   -2.2844    6.5313    1.6074 H   0  0  0  0  0  0  0  0  0  0  0  0
    0.0742    6.3639    0.8153 H   0  0  0  0  0  0  0  0  0  0  0  0
    0.9011    4.1877   -0.0919 H   0  0  0  0  0  0  0  0  0  0  0  0
    4.6630    0.1615   -1.1944 H   0  0  0  0  0  0  0  0  0  0  0  0
    4.6788   -1.0508    0.0577 H   0  0  0  0  0  0  0  0  0  0  0  0
  1  2  1  0
  2  3  1  0
  3  4  1  0
  4  5  2  0
  4  6  1  0
  6  7  1  0
  7  8  2  0
  8  9  1  0
  9 10  1  0
 10 11  2  0
 11 12  1  0
 12 13  1  0
 13 14  1  0
 14 15  1  0
 15 16  2  0
 16 17  1  0
 17 18  2  0
 18 19  1  0
 19 20  2  0
 14 21  2  0
 21 22  1  0
 22 23  1  0
 23 24  1  0
 24 25  2  0
 25 26  1  0
 26 27  2  0
 27 28  1  0
 28 29  1  0
 29 30  2  0
 10 31  1  0
 11  2  1  0
 30 13  1  0
 31  6  1  0
 30  8  1  0
 20 15  1  0
 29 21  1  0
 28 23  2  0
  1 32  1  0
  1 33  1  0
  1 34  1  0
  2 35  1  6
  6 36  1  1
  7 37  1  0
  9 38  1  0
  9 39  1  0
 12 40  1  0
 12 41  1  0
 13 42  1  6
 16 43  1  0
 17 44  1  0
 18 45  1  0
 19 46  1  0
 20 47  1  0
 25 48  1  0
 26 49  1  0
 27 50  1  0
 31 51  1  0
 31 52  1  0
M  CHG  1   1   1
M  END
>  <_SMILES>  (148) 
[NH3+][C@@H]1SC(=O)[C@@H]2C=C3CC(=C1C[C@H]1C(c4ccccc4)=c4sc5ncccc5c4=C31)C2

$$$$

     RDKit          3D

 52 58  0  0  0  0  0  0  0  0999 V2000
   -3.4498   -2.7675   -1.4379 N   0  0  0  0  0  0  0  0  0  0  0  0
   -2.7190   -1.4934   -1.4845 C   0  0  1  0  0  0  0  0  0  0  0  0
   -3.9066   -0.3473   -2.1836 S   0  0  0  0  0  0  0  0  0  0  0  0
   -3.1912    1.1831   -1.6482 C   0  0  0  0  0  0  0  0  0  0  0  0
   -2.5857    1.8548   -2.4726 O   0  0  0  0  0  0  0  0  0  0  0  0
   -3.3604    1.5849   -0.1591 C   0  0  2  0  0  0  0  0  0  0  0  0
   -1.9271    1.9902    0.3286 C   0  0  0  0  0  0  0  0  0  0  0  0
   -1.2408    1.2359    1.2328 C   0  0  0  0  0  0  0  0  0  0  0  0
   -1.9756    0.1522    1.9955 C   0  0  0  0  0  0  0  0  0  0  0  0
   -2.7585   -0.5081    0.8871 C   0  0  0  0  0  0  0  0  0  0  0  0
   -2.1223   -1.1924   -0.1157 C   0  0  0  0  0  0  0  0  0  0  0  0
   -0.5714   -1.4410   -0.1202 C   0  0  0  0  0  0  0  0  0  0  0  0
    0.4323   -0.6496    0.7972 C   0  0  1  0  0  0  0  0  0  0  0  0
    1.8646   -0.6293    0.2679 C   0  0  0  0  0  0  0  0  0  0  0  0
    2.5975   -1.8493   -0.0734 C   0  0  0  0  0  0  0  0  0  0  0  0
    3.3086   -1.9476   -1.2766 C   0  0  0  0  0  0  0  0  0  0  0  0
    3.9772   -3.1266   -1.6156 C   0  0  0  0  0  0  0  0  0  0  0  0
    3.9403   -4.2220   -0.7567 C   0  0  0  0  0  0  0  0  0  0  0  0
    3.2370   -4.1391    0.4422 C   0  0  0  0  0  0  0  0  0  0  0  0
    2.5671   -2.9604    0.7809 C   0  0  0  0  0  0  0  0  0  0  0  0
    2.2708    0.6466    0.2329 C   0  0  0  0  0  0  0  0  0  0  0  0
    3.7216    1.4431   -0.2216 S   0  0  0  0  0  0  0  0  0  0  0  0
    2.9610    3.0506    0.1320 C   0  0  0  0  0  0  0  0  0  0  0  0
    3.6382    4.2005   -0.0329 N   0  0  0  0  0  0  0  0  0  0  0  0
    2.9572    5.3207    0.2983 C   0  0  0  0  0  0  0  0  0  0  0  0
    1.6489    5.3307    0.7831 C   0  0  0  0  0  0  0  0  0  0  0  0
    0.9725    4.1201    0.9409 C   0  0  0  0  0  0  0  0  0  0  0  0
    1.6380    2.9580    0.5966 C   0  0  0  0  0  0  0  0  0  0  0  0
    1.2298    1.5648    0.6563 C   0  0  0  0  0  0  0  0  0  0  0  0
    0.1269    0.8618    0.9457 C   0  0  0  0  0  0  0  0  0  0  0  0
   -3.9595    0.3976    0.6540 C   0  0  0  0  0  0  0  0  0  0  0  0
   -2.8351   -3.5501   -1.1941 H   0  0  0  0  0  0  0  0  0  0  0  0
   -3.8779   -2.9489   -2.3522 H   0  0  0  0  0  0  0  0  0  0  0  0
   -4.2024   -2.7115   -0.7446 H   0  0  0  0  0  0  0  0  0  0  0  0
   -1.9411   -1.6275   -2.2416 H   0  0  0  0  0  0  0  0  0  0  0  0
   -4.0317    2.4489   -0.1147 H   0  0  0  0  0  0  0  0  0  0  0  0
   -1.3918    2.6628   -0.3444 H   0  0  0  0  0  0  0  0  0  0  0  0
   -1.3607   -0.5655    2.5429 H   0  0  0  0  0  0  0  0  0  0  0  0
   -2.6106    0.6048    2.7671 H   0  0  0  0  0  0  0  0  0  0  0  0
   -0.4256   -2.5154    0.0544 H   0  0  0  0  0  0  0  0  0  0  0  0
   -0.2259   -1.2588   -1.1478 H   0  0  0  0  0  0  0  0  0  0  0  0
    0.4540   -1.1157    1.7910 H   0  0  0  0  0  0  0  0  0  0  0  0
    3.3566   -1.1080   -1.9674 H   0  0  0  0  0  0  0  0  0  0  0  0
    4.5388   -3.1834   -2.5454 H   0  0  0  0  0  0  0  0  0  0  0  0
    4.4755   -5.1330   -1.0143 H   0  0  0  0  0  0  0  0  0  0  0  0
    3.2283   -4.9868    1.1234 H   0  0  0  0  0  0  0  0  0  0  0  0
    2.0530   -2.9158    1.7378 H   0  0  0  0  0  0  0  0  0  0  0  0
    3.5076    6.2494    0.1666 H   0  0  0  0  0  0  0  0  0  0  0  0
    1.1713    6.2718    1.0381 H   0  0  0  0  0  0  0  0  0  0  0  0
   -0.0376    4.1053    1.3331 H   0  0  0  0  0  0  0  0  0  0  0  0
   -4.8075   -0.1203    0.2006 H   0  0  0  0  0  0  0  0  0  0  0  0
   -4.3588    0.7750    1.6047 H   0  0  0  0  0  0  0  0  0  0  0  0
  1  2  1  0
  2  3  1  0
  3  4  1  0
  4  5  2  0
  4  6  1  0
  6  7  1  0
  7  8  2  0
  8  9  1  0
  9 10  1  0
 10 11  2  0
 11 12  1  0
 12 13  1  0
 13 14  1  0
 14 15  1  0
 15 16  2  0
 16 17  1  0
 17 18  2  0
 18 19  1  0
 19 20  2  0
 14 21  2  0
 21 22  1  0
 22 23  1  0
 23 24  1  0
 24 25  2  0
 25 26  1  0
 26 27  2  0
 27 28  1  0
 28 29  1  0
 29 30  2  0
 10 31  1  0
 11  2  1  0
 30 13  1  0
 31  6  1  0
 30  8  1  0
 20 15  1  0
 29 21  1  0
 28 23  2  0
  1 32  1  0
  1 33  1  0
  1 34  1  0
  2 35  1  6
  6 36  1  6
  7 37  1  0
  9 38  1  0
  9 39  1  0
 12 40  1  0
 12 41  1  0
 13 42  1  1
 16 43  1  0
 17 44  1  0
 18 45  1  0
 19 46  1  0
 20 47  1  0
 25 48  1  0
 26 49  1  0
 27 50  1  0
 31 51  1  0
 31 52  1  0
M  CHG  1   1   1
M  END
>  <_SMILES>  (149) 
[NH3+][C@H]1SC(=O)[C@@H]2C=C3CC(=C1C[C@H]1C(c4ccccc4)=c4sc5ncccc5c4=C31)C2

$$$$

     RDKit          3D

 52 58  0  0  0  0  0  0  0  0999 V2000
   -3.2020   -3.1973   -0.5655 N   0  0  0  0  0  0  0  0  0  0  0  0
   -2.7487   -2.0478    0.2266 C   0  0  2  0  0  0  0  0  0  0  0  0
   -4.2275   -1.5148    1.0837 S   0  0  0  0  0  0  0  0  0  0  0  0
   -3.6373    0.0486    1.6763 C   0  0  0  0  0  0  0  0  0  0  0  0
   -3.2605    0.1136    2.8389 O   0  0  0  0  0  0  0  0  0  0  0  0
   -3.5838    1.2341    0.6771 C   0  0  1  0  0  0  0  0  0  0  0  0
   -2.1529    1.8421    0.8333 C   0  0  0  0  0  0  0  0  0  0  0  0
   -1.2185    1.7218   -0.1471 C   0  0  0  0  0  0  0  0  0  0  0  0
   -1.6184    1.2433   -1.5325 C   0  0  0  0  0  0  0  0  0  0  0  0
   -2.5534    0.0956   -1.2017 C   0  0  0  0  0  0  0  0  0  0  0  0
   -2.0354   -1.0548   -0.6684 C   0  0  0  0  0  0  0  0  0  0  0  0
   -0.4864   -1.2172   -0.6164 C   0  0  0  0  0  0  0  0  0  0  0  0
    0.2031   -0.3172    0.4726 C   0  0  1  0  0  0  0  0  0  0  0  0
    1.7132   -0.4939    0.5577 C   0  0  0  0  0  0  0  0  0  0  0  0
    2.3389   -1.7890    0.8116 C   0  0  0  0  0  0  0  0  0  0  0  0
    1.9006   -2.5912    1.8743 C   0  0  0  0  0  0  0  0  0  0  0  0
    2.4739   -3.8447    2.1012 C   0  0  0  0  0  0  0  0  0  0  0  0
    3.4864   -4.3098    1.2652 C   0  0  0  0  0  0  0  0  0  0  0  0
    3.9308   -3.5204    0.2069 C   0  0  0  0  0  0  0  0  0  0  0  0
    3.3605   -2.2656   -0.0188 C   0  0  0  0  0  0  0  0  0  0  0  0
    2.2822    0.7103    0.4139 C   0  0  0  0  0  0  0  0  0  0  0  0
    3.8932    1.3009    0.3982 S   0  0  0  0  0  0  0  0  0  0  0  0
    3.2843    2.9752    0.0442 C   0  0  0  0  0  0  0  0  0  0  0  0
    4.1225    4.0120   -0.1252 N   0  0  0  0  0  0  0  0  0  0  0  0
    3.5236    5.1987   -0.3775 C   0  0  0  0  0  0  0  0  0  0  0  0
    2.1423    5.3808   -0.4686 C   0  0  0  0  0  0  0  0  0  0  0  0
    1.2979    4.2837   -0.2932 C   0  0  0  0  0  0  0  0  0  0  0  0
    1.8835    3.0587   -0.0355 C   0  0  0  0  0  0  0  0  0  0  0  0
    1.2990    1.7530    0.1968 C   0  0  0  0  0  0  0  0  0  0  0  0
    0.0812    1.2024    0.2059 C   0  0  0  0  0  0  0  0  0  0  0  0
   -3.8643    0.7349   -0.7706 C   0  0  0  0  0  0  0  0  0  0  0  0
   -2.4217   -3.6905   -1.0107 H   0  0  0  0  0  0  0  0  0  0  0  0
   -3.8475   -2.8793   -1.2959 H   0  0  0  0  0  0  0  0  0  0  0  0
   -3.7124   -3.8512    0.0378 H   0  0  0  0  0  0  0  0  0  0  0  0
   -2.0658   -2.4437    0.9858 H   0  0  0  0  0  0  0  0  0  0  0  0
   -4.3401    1.9669    0.9770 H   0  0  0  0  0  0  0  0  0  0  0  0
   -1.8364    2.0357    1.8608 H   0  0  0  0  0  0  0  0  0  0  0  0
   -0.7765    0.9308   -2.1595 H   0  0  0  0  0  0  0  0  0  0  0  0
   -2.1096    2.0494   -2.0901 H   0  0  0  0  0  0  0  0  0  0  0  0
   -0.0565   -1.0263   -1.6083 H   0  0  0  0  0  0  0  0  0  0  0  0
   -0.2547   -2.2721   -0.4186 H   0  0  0  0  0  0  0  0  0  0  0  0
   -0.2444   -0.5332    1.4529 H   0  0  0  0  0  0  0  0  0  0  0  0
    1.1401   -2.2348    2.5649 H   0  0  0  0  0  0  0  0  0  0  0  0
    2.1509   -4.4492    2.9455 H   0  0  0  0  0  0  0  0  0  0  0  0
    3.9464   -5.2779    1.4503 H   0  0  0  0  0  0  0  0  0  0  0  0
    4.7341   -3.8744   -0.4356 H   0  0  0  0  0  0  0  0  0  0  0  0
    3.7299   -1.6660   -0.8487 H   0  0  0  0  0  0  0  0  0  0  0  0
    4.2034    6.0374   -0.5089 H   0  0  0  0  0  0  0  0  0  0  0  0
    1.7370    6.3677   -0.6701 H   0  0  0  0  0  0  0  0  0  0  0  0
    0.2218    4.4004   -0.3521 H   0  0  0  0  0  0  0  0  0  0  0  0
   -4.7224    0.0687   -0.8871 H   0  0  0  0  0  0  0  0  0  0  0  0
   -4.1034    1.5951   -1.4100 H   0  0  0  0  0  0  0  0  0  0  0  0
  1  2  1  0
  2  3  1  0
  3  4  1  0
  4  5  2  0
  4  6  1  0
  6  7  1  0
  7  8  2  0
  8  9  1  0
  9 10  1  0
 10 11  2  0
 11 12  1  0
 12 13  1  0
 13 14  1  0
 14 15  1  0
 15 16  2  0
 16 17  1  0
 17 18  2  0
 18 19  1  0
 19 20  2  0
 14 21  2  0
 21 22  1  0
 22 23  1  0
 23 24  1  0
 24 25  2  0
 25 26  1  0
 26 27  2  0
 27 28  1  0
 28 29  1  0
 29 30  2  0
 10 31  1  0
 11  2  1  0
 30 13  1  0
 31  6  1  0
 30  8  1  0
 20 15  1  0
 29 21  1  0
 28 23  2  0
  1 32  1  0
  1 33  1  0
  1 34  1  0
  2 35  1  1
  6 36  1  1
  7 37  1  0
  9 38  1  0
  9 39  1  0
 12 40  1  0
 12 41  1  0
 13 42  1  1
 16 43  1  0
 17 44  1  0
 18 45  1  0
 19 46  1  0
 20 47  1  0
 25 48  1  0
 26 49  1  0
 27 50  1  0
 31 51  1  0
 31 52  1  0
M  CHG  1   1   1
M  END
>  <_SMILES>  (150) 
[NH3+][C@@H]1SC(=O)[C@H]2C=C3CC(=C1C[C@H]1C(c4ccccc4)=c4sc5ncccc5c4=C31)C2

$$$$

     RDKit          3D

 52 58  0  0  0  0  0  0  0  0999 V2000
   -1.6496   -3.1570    0.7850 N   0  0  0  0  0  0  0  0  0  0  0  0
   -2.4122   -2.6486   -0.3721 C   0  0  1  0  0  0  0  0  0  0  0  0
   -4.0277   -2.3721    0.3930 S   0  0  0  0  0  0  0  0  0  0  0  0
   -3.6708   -0.7662    1.0504 C   0  0  0  0  0  0  0  0  0  0  0  0
   -3.1636   -0.7396    2.1660 O   0  0  0  0  0  0  0  0  0  0  0  0
   -3.8455    0.4583    0.1157 C   0  0  1  0  0  0  0  0  0  0  0  0
   -2.5837    1.3539    0.3788 C   0  0  0  0  0  0  0  0  0  0  0  0
   -1.5695    1.4331   -0.5254 C   0  0  0  0  0  0  0  0  0  0  0  0
   -1.7615    0.9031   -1.9349 C   0  0  0  0  0  0  0  0  0  0  0  0
   -2.4713   -0.4108   -1.6711 C   0  0  0  0  0  0  0  0  0  0  0  0
   -1.7882   -1.4649   -1.1133 C   0  0  0  0  0  0  0  0  0  0  0  0
   -0.2471   -1.3062   -0.9736 C   0  0  0  0  0  0  0  0  0  0  0  0
    0.1674   -0.3119    0.1752 C   0  0  1  0  0  0  0  0  0  0  0  0
    1.6666   -0.2023    0.3895 C   0  0  0  0  0  0  0  0  0  0  0  0
    2.4920   -1.3601    0.7058 C   0  0  0  0  0  0  0  0  0  0  0  0
    3.5295   -1.7480   -0.1483 C   0  0  0  0  0  0  0  0  0  0  0  0
    4.2877   -2.8849    0.1371 C   0  0  0  0  0  0  0  0  0  0  0  0
    4.0188   -3.6362    1.2799 C   0  0  0  0  0  0  0  0  0  0  0  0
    2.9961   -3.2491    2.1438 C   0  0  0  0  0  0  0  0  0  0  0  0
    2.2332   -2.1154    1.8575 C   0  0  0  0  0  0  0  0  0  0  0  0
    2.0116    1.0870    0.2934 C   0  0  0  0  0  0  0  0  0  0  0  0
    3.4805    1.9620    0.4137 S   0  0  0  0  0  0  0  0  0  0  0  0
    2.5997    3.5028    0.0211 C   0  0  0  0  0  0  0  0  0  0  0  0
    3.2410    4.6800   -0.0712 N   0  0  0  0  0  0  0  0  0  0  0  0
    2.4542    5.7400   -0.3676 C   0  0  0  0  0  0  0  0  0  0  0  0
    1.0750    5.6653   -0.5726 C   0  0  0  0  0  0  0  0  0  0  0  0
    0.4376    4.4279   -0.4725 C   0  0  0  0  0  0  0  0  0  0  0  0
    1.2180    3.3277   -0.1726 C   0  0  0  0  0  0  0  0  0  0  0  0
    0.8695    1.9321    0.0044 C   0  0  0  0  0  0  0  0  0  0  0  0
   -0.2216    1.1638   -0.0812 C   0  0  0  0  0  0  0  0  0  0  0  0
   -3.9139   -0.0361   -1.3598 C   0  0  0  0  0  0  0  0  0  0  0  0
   -0.7147   -3.5080    0.5568 H   0  0  0  0  0  0  0  0  0  0  0  0
   -1.5892   -2.4401    1.5218 H   0  0  0  0  0  0  0  0  0  0  0  0
   -2.1800   -3.9313    1.2022 H   0  0  0  0  0  0  0  0  0  0  0  0
   -2.4864   -3.4926   -1.0654 H   0  0  0  0  0  0  0  0  0  0  0  0
   -4.7588    0.9920    0.3951 H   0  0  0  0  0  0  0  0  0  0  0  0
   -2.3931    1.5950    1.4266 H   0  0  0  0  0  0  0  0  0  0  0  0
   -2.3590    1.6041   -2.5299 H   0  0  0  0  0  0  0  0  0  0  0  0
   -0.8317    0.7764   -2.4990 H   0  0  0  0  0  0  0  0  0  0  0  0
    0.2078   -2.2889   -0.8076 H   0  0  0  0  0  0  0  0  0  0  0  0
    0.1855   -0.9869   -1.9310 H   0  0  0  0  0  0  0  0  0  0  0  0
   -0.3014   -0.6289    1.1163 H   0  0  0  0  0  0  0  0  0  0  0  0
    3.7648   -1.1675   -1.0387 H   0  0  0  0  0  0  0  0  0  0  0  0
    5.1028   -3.1734   -0.5236 H   0  0  0  0  0  0  0  0  0  0  0  0
    4.6289   -4.5072    1.5106 H   0  0  0  0  0  0  0  0  0  0  0  0
    2.8202   -3.8141    3.0565 H   0  0  0  0  0  0  0  0  0  0  0  0
    1.4741   -1.8002    2.5693 H   0  0  0  0  0  0  0  0  0  0  0  0
    2.9746    6.6925   -0.4393 H   0  0  0  0  0  0  0  0  0  0  0  0
    0.5114    6.5639   -0.8046 H   0  0  0  0  0  0  0  0  0  0  0  0
   -0.6328    4.3448   -0.6222 H   0  0  0  0  0  0  0  0  0  0  0  0
   -4.2550    0.7864   -2.0022 H   0  0  0  0  0  0  0  0  0  0  0  0
   -4.6202   -0.8433   -1.5660 H   0  0  0  0  0  0  0  0  0  0  0  0
  1  2  1  0
  2  3  1  0
  3  4  1  0
  4  5  2  0
  4  6  1  0
  6  7  1  0
  7  8  2  0
  8  9  1  0
  9 10  1  0
 10 11  2  0
 11 12  1  0
 12 13  1  0
 13 14  1  0
 14 15  1  0
 15 16  2  0
 16 17  1  0
 17 18  2  0
 18 19  1  0
 19 20  2  0
 14 21  2  0
 21 22  1  0
 22 23  1  0
 23 24  1  0
 24 25  2  0
 25 26  1  0
 26 27  2  0
 27 28  1  0
 28 29  1  0
 29 30  2  0
 10 31  1  0
 11  2  1  0
 30 13  1  0
 31  6  1  0
 30  8  1  0
 20 15  1  0
 29 21  1  0
 28 23  2  0
  1 32  1  0
  1 33  1  0
  1 34  1  0
  2 35  1  6
  6 36  1  1
  7 37  1  0
  9 38  1  0
  9 39  1  0
 12 40  1  0
 12 41  1  0
 13 42  1  1
 16 43  1  0
 17 44  1  0
 18 45  1  0
 19 46  1  0
 20 47  1  0
 25 48  1  0
 26 49  1  0
 27 50  1  0
 31 51  1  0
 31 52  1  0
M  CHG  1   1   1
M  END
>  <_SMILES>  (151) 
[NH3+][C@H]1SC(=O)[C@H]2C=C3CC(=C1C[C@H]1C(c4ccccc4)=c4sc5ncccc5c4=C31)C2

$$$$

     RDKit          3D

 52 58  0  0  0  0  0  0  0  0999 V2000
   -1.4043   -3.4496   -0.6494 N   0  0  0  0  0  0  0  0  0  0  0  0
   -2.5011   -2.5321   -0.2954 C   0  0  2  0  0  0  0  0  0  0  0  0
   -3.2423   -2.2244   -1.9149 S   0  0  0  0  0  0  0  0  0  0  0  0
   -2.6176   -0.6020   -2.2218 C   0  0  0  0  0  0  0  0  0  0  0  0
   -1.6203   -0.5063   -2.9220 O   0  0  0  0  0  0  0  0  0  0  0  0
   -3.3482    0.5764   -1.5639 C   0  0  2  0  0  0  0  0  0  0  0  0
   -2.3151    1.7377   -1.2626 C   0  0  0  0  0  0  0  0  0  0  0  0
   -1.5908    1.6230    0.1004 C   0  0  0  0  0  0  0  0  0  0  0  0
   -2.3040    1.0698    1.1096 C   0  0  0  0  0  0  0  0  0  0  0  0
   -2.8931   -0.2005    0.6475 C   0  0  0  0  0  0  0  0  0  0  0  0
   -2.1166   -1.3173    0.5300 C   0  0  0  0  0  0  0  0  0  0  0  0
   -0.6575   -1.1994    1.0104 C   0  0  0  0  0  0  0  0  0  0  0  0
    0.1586   -0.3305    0.0063 C   0  0  2  0  0  0  0  0  0  0  0  0
    1.6505   -0.3116    0.2729 C   0  0  0  0  0  0  0  0  0  0  0  0
    2.4536   -1.5265    0.2721 C   0  0  0  0  0  0  0  0  0  0  0  0
    3.1349   -1.9297    1.4249 C   0  0  0  0  0  0  0  0  0  0  0  0
    3.8635   -3.1204    1.4304 C   0  0  0  0  0  0  0  0  0  0  0  0
    3.9216   -3.9103    0.2832 C   0  0  0  0  0  0  0  0  0  0  0  0
    3.2578   -3.5085   -0.8745 C   0  0  0  0  0  0  0  0  0  0  0  0
    2.5241   -2.3207   -0.8805 C   0  0  0  0  0  0  0  0  0  0  0  0
    2.0288    0.9616    0.4171 C   0  0  0  0  0  0  0  0  0  0  0  0
    3.5139    1.7560    0.7284 S   0  0  0  0  0  0  0  0  0  0  0  0
    2.6517    3.3540    0.7721 C   0  0  0  0  0  0  0  0  0  0  0  0
    3.3063    4.5015    1.0203 N   0  0  0  0  0  0  0  0  0  0  0  0
    2.5353    5.6129    1.0226 C   0  0  0  0  0  0  0  0  0  0  0  0
    1.1587    5.6168    0.7913 C   0  0  0  0  0  0  0  0  0  0  0  0
    0.5071    4.4089    0.5382 C   0  0  0  0  0  0  0  0  0  0  0  0
    1.2696    3.2560    0.5307 C   0  0  0  0  0  0  0  0  0  0  0  0
    0.9052    1.8697    0.2981 C   0  0  0  0  0  0  0  0  0  0  0  0
   -0.2110    1.1632    0.0613 C   0  0  0  0  0  0  0  0  0  0  0  0
   -4.0587    0.1298   -0.2605 C   0  0  0  0  0  0  0  0  0  0  0  0
   -0.6900   -2.9735   -1.2125 H   0  0  0  0  0  0  0  0  0  0  0  0
   -0.9623   -3.8863    0.1664 H   0  0  0  0  0  0  0  0  0  0  0  0
   -1.7828   -4.1983   -1.2415 H   0  0  0  0  0  0  0  0  0  0  0  0
   -3.1969   -3.1403    0.2924 H   0  0  0  0  0  0  0  0  0  0  0  0
   -4.0883    0.9340   -2.2898 H   0  0  0  0  0  0  0  0  0  0  0  0
   -1.5848    1.8263   -2.0760 H   0  0  0  0  0  0  0  0  0  0  0  0
   -2.8666    2.6876   -1.2469 H   0  0  0  0  0  0  0  0  0  0  0  0
   -3.0923    1.6876    1.5559 H   0  0  0  0  0  0  0  0  0  0  0  0
   -0.2069   -2.1887    1.1314 H   0  0  0  0  0  0  0  0  0  0  0  0
   -0.6228   -0.7660    2.0201 H   0  0  0  0  0  0  0  0  0  0  0  0
    0.0024   -0.6948   -1.0152 H   0  0  0  0  0  0  0  0  0  0  0  0
    3.1141   -1.3187    2.3259 H   0  0  0  0  0  0  0  0  0  0  0  0
    4.4051   -3.4207    2.3251 H   0  0  0  0  0  0  0  0  0  0  0  0
    4.5138   -4.8233    0.2845 H   0  0  0  0  0  0  0  0  0  0  0  0
    3.3458   -4.1042   -1.7803 H   0  0  0  0  0  0  0  0  0  0  0  0
    2.0569   -1.9953   -1.8075 H   0  0  0  0  0  0  0  0  0  0  0  0
    3.0671    6.5405    1.2219 H   0  0  0  0  0  0  0  0  0  0  0  0
    0.6082    6.5525    0.8088 H   0  0  0  0  0  0  0  0  0  0  0  0
   -0.5607    4.3886    0.3543 H   0  0  0  0  0  0  0  0  0  0  0  0
   -4.6672    0.9522    0.1380 H   0  0  0  0  0  0  0  0  0  0  0  0
   -4.7527   -0.7067   -0.3774 H   0  0  0  0  0  0  0  0  0  0  0  0
  1  2  1  0
  2  3  1  0
  3  4  1  0
  4  5  2  0
  4  6  1  0
  6  7  1  0
  7  8  1  0
  8  9  2  0
  9 10  1  0
 10 11  2  0
 11 12  1  0
 12 13  1  0
 13 14  1  0
 14 15  1  0
 15 16  2  0
 16 17  1  0
 17 18  2  0
 18 19  1  0
 19 20  2  0
 14 21  2  0
 21 22  1  0
 22 23  1  0
 23 24  1  0
 24 25  2  0
 25 26  1  0
 26 27  2  0
 27 28  1  0
 28 29  1  0
 29 30  2  0
 10 31  1  0
 11  2  1  0
 30 13  1  0
 31  6  1  0
 30  8  1  0
 20 15  1  0
 29 21  1  0
 28 23  2  0
  1 32  1  0
  1 33  1  0
  1 34  1  0
  2 35  1  1
  6 36  1  6
  7 37  1  0
  7 38  1  0
  9 39  1  0
 12 40  1  0
 12 41  1  0
 13 42  1  6
 16 43  1  0
 17 44  1  0
 18 45  1  0
 19 46  1  0
 20 47  1  0
 25 48  1  0
 26 49  1  0
 27 50  1  0
 31 51  1  0
 31 52  1  0
M  CHG  1   1   1
M  END
>  <_SMILES>  (152) 
[NH3+][C@@H]1SC(=O)[C@@H]2CC3=CC(=C1C[C@@H]1C(c4ccccc4)=c4sc5ncccc5c4=C31)C2

$$$$

     RDKit          3D

 52 58  0  0  0  0  0  0  0  0999 V2000
   -2.1720   -4.0725    0.5324 N   0  0  0  0  0  0  0  0  0  0  0  0
   -1.8356   -2.8476   -0.2021 C   0  0  1  0  0  0  0  0  0  0  0  0
   -3.1876   -2.6299   -1.3606 S   0  0  0  0  0  0  0  0  0  0  0  0
   -2.9689   -0.8980   -1.6620 C   0  0  0  0  0  0  0  0  0  0  0  0
   -2.3092   -0.5540   -2.6303 O   0  0  0  0  0  0  0  0  0  0  0  0
   -3.6249    0.0671   -0.6618 C   0  0  2  0  0  0  0  0  0  0  0  0
   -2.7320    1.3621   -0.4975 C   0  0  0  0  0  0  0  0  0  0  0  0
   -1.6559    1.2769    0.6123 C   0  0  0  0  0  0  0  0  0  0  0  0
   -1.9530    0.5130    1.6910 C   0  0  0  0  0  0  0  0  0  0  0  0
   -2.4409   -0.7997    1.2320 C   0  0  0  0  0  0  0  0  0  0  0  0
   -1.5478   -1.7132    0.7555 C   0  0  0  0  0  0  0  0  0  0  0  0
   -0.0440   -1.3705    0.8380 C   0  0  0  0  0  0  0  0  0  0  0  0
    0.3089   -0.2671   -0.2043 C   0  0  2  0  0  0  0  0  0  0  0  0
    1.7946    0.0348   -0.3121 C   0  0  0  0  0  0  0  0  0  0  0  0
    2.7822   -0.9845   -0.6557 C   0  0  0  0  0  0  0  0  0  0  0  0
    3.9225   -1.1713    0.1349 C   0  0  0  0  0  0  0  0  0  0  0  0
    4.8461   -2.1712   -0.1779 C   0  0  0  0  0  0  0  0  0  0  0  0
    4.6394   -2.9920   -1.2844 C   0  0  0  0  0  0  0  0  0  0  0  0
    3.5113   -2.8124   -2.0817 C   0  0  0  0  0  0  0  0  0  0  0  0
    2.5850   -1.8150   -1.7676 C   0  0  0  0  0  0  0  0  0  0  0  0
    1.9635    1.3451   -0.1028 C   0  0  0  0  0  0  0  0  0  0  0  0
    3.3103    2.4061   -0.0693 S   0  0  0  0  0  0  0  0  0  0  0  0
    2.2235    3.7795    0.4060 C   0  0  0  0  0  0  0  0  0  0  0  0
    2.7053    5.0135    0.6359 N   0  0  0  0  0  0  0  0  0  0  0  0
    1.7789    5.9365    0.9808 C   0  0  0  0  0  0  0  0  0  0  0  0
    0.4138    5.6736    1.1043 C   0  0  0  0  0  0  0  0  0  0  0  0
   -0.0553    4.3816    0.8622 C   0  0  0  0  0  0  0  0  0  0  0  0
    0.8693    3.4166    0.5086 C   0  0  0  0  0  0  0  0  0  0  0  0
    0.7091    2.0088    0.1899 C   0  0  0  0  0  0  0  0  0  0  0  0
   -0.2853    1.1091    0.1550 C   0  0  0  0  0  0  0  0  0  0  0  0
   -3.8505   -0.6123    0.7118 C   0  0  0  0  0  0  0  0  0  0  0  0
   -1.4038   -4.3705    1.1428 H   0  0  0  0  0  0  0  0  0  0  0  0
   -2.3823   -4.8263   -0.1308 H   0  0  0  0  0  0  0  0  0  0  0  0
   -3.0056   -3.9212    1.1092 H   0  0  0  0  0  0  0  0  0  0  0  0
   -0.9499   -3.0858   -0.8003 H   0  0  0  0  0  0  0  0  0  0  0  0
   -4.5910    0.3524   -1.0958 H   0  0  0  0  0  0  0  0  0  0  0  0
   -2.2723    1.6380   -1.4542 H   0  0  0  0  0  0  0  0  0  0  0  0
   -3.3926    2.1974   -0.2282 H   0  0  0  0  0  0  0  0  0  0  0  0
   -2.6645    0.9320    2.4119 H   0  0  0  0  0  0  0  0  0  0  0  0
    0.2230   -1.0563    1.8564 H   0  0  0  0  0  0  0  0  0  0  0  0
    0.5456   -2.2776    0.6562 H   0  0  0  0  0  0  0  0  0  0  0  0
   -0.0621   -0.5582   -1.1951 H   0  0  0  0  0  0  0  0  0  0  0  0
    4.1093   -0.5395    1.0013 H   0  0  0  0  0  0  0  0  0  0  0  0
    5.7356   -2.2983    0.4351 H   0  0  0  0  0  0  0  0  0  0  0  0
    5.3708   -3.7566   -1.5366 H   0  0  0  0  0  0  0  0  0  0  0  0
    3.3686   -3.4333   -2.9629 H   0  0  0  0  0  0  0  0  0  0  0  0
    1.7339   -1.6686   -2.4283 H   0  0  0  0  0  0  0  0  0  0  0  0
    2.1706    6.9346    1.1630 H   0  0  0  0  0  0  0  0  0  0  0  0
   -0.2691    6.4699    1.3840 H   0  0  0  0  0  0  0  0  0  0  0  0
   -1.1114    4.1555    0.9496 H   0  0  0  0  0  0  0  0  0  0  0  0
   -4.4144   -1.5483    0.6797 H   0  0  0  0  0  0  0  0  0  0  0  0
   -4.4392    0.0478    1.3628 H   0  0  0  0  0  0  0  0  0  0  0  0
  1  2  1  0
  2  3  1  0
  3  4  1  0
  4  5  2  0
  4  6  1  0
  6  7  1  0
  7  8  1  0
  8  9  2  0
  9 10  1  0
 10 11  2  0
 11 12  1  0
 12 13  1  0
 13 14  1  0
 14 15  1  0
 15 16  2  0
 16 17  1  0
 17 18  2  0
 18 19  1  0
 19 20  2  0
 14 21  2  0
 21 22  1  0
 22 23  1  0
 23 24  1  0
 24 25  2  0
 25 26  1  0
 26 27  2  0
 27 28  1  0
 28 29  1  0
 29 30  2  0
 10 31  1  0
 11  2  1  0
 30 13  1  0
 31  6  1  0
 30  8  1  0
 20 15  1  0
 29 21  1  0
 28 23  2  0
  1 32  1  0
  1 33  1  0
  1 34  1  0
  2 35  1  6
  6 36  1  6
  7 37  1  0
  7 38  1  0
  9 39  1  0
 12 40  1  0
 12 41  1  0
 13 42  1  6
 16 43  1  0
 17 44  1  0
 18 45  1  0
 19 46  1  0
 20 47  1  0
 25 48  1  0
 26 49  1  0
 27 50  1  0
 31 51  1  0
 31 52  1  0
M  CHG  1   1   1
M  END
>  <_SMILES>  (153) 
[NH3+][C@H]1SC(=O)[C@@H]2CC3=CC(=C1C[C@@H]1C(c4ccccc4)=c4sc5ncccc5c4=C31)C2

$$$$

     RDKit          3D

 52 58  0  0  0  0  0  0  0  0999 V2000
   -2.1872   -3.3811    0.8374 N   0  0  0  0  0  0  0  0  0  0  0  0
   -1.7838   -1.9729    0.7541 C   0  0  2  0  0  0  0  0  0  0  0  0
   -2.9659   -1.1223    1.7977 S   0  0  0  0  0  0  0  0  0  0  0  0
   -2.6047    0.5268    1.2627 C   0  0  0  0  0  0  0  0  0  0  0  0
   -1.8086    1.1901    1.9085 O   0  0  0  0  0  0  0  0  0  0  0  0
   -3.3411    1.0234    0.0090 C   0  0  1  0  0  0  0  0  0  0  0  0
   -2.3995    1.9733   -0.8243 C   0  0  0  0  0  0  0  0  0  0  0  0
   -1.3880    1.2074   -1.7280 C   0  0  0  0  0  0  0  0  0  0  0  0
   -1.9584    0.1760   -2.4055 C   0  0  0  0  0  0  0  0  0  0  0  0
   -2.5265   -0.7526   -1.3934 C   0  0  0  0  0  0  0  0  0  0  0  0
   -1.6612   -1.5287   -0.6853 C   0  0  0  0  0  0  0  0  0  0  0  0
   -0.2571   -1.7241   -1.2558 C   0  0  0  0  0  0  0  0  0  0  0  0
    0.6294   -0.4444   -1.3525 C   0  0  2  0  0  0  0  0  0  0  0  0
    1.7669   -0.3864   -0.3420 C   0  0  0  0  0  0  0  0  0  0  0  0
    2.6591   -1.5146   -0.0667 C   0  0  0  0  0  0  0  0  0  0  0  0
    3.1582   -2.2964   -1.1184 C   0  0  0  0  0  0  0  0  0  0  0  0
    3.9738   -3.4013   -0.8612 C   0  0  0  0  0  0  0  0  0  0  0  0
    4.2979   -3.7393    0.4502 C   0  0  0  0  0  0  0  0  0  0  0  0
    3.8101   -2.9717    1.5046 C   0  0  0  0  0  0  0  0  0  0  0  0
    2.9936   -1.8673    1.2480 C   0  0  0  0  0  0  0  0  0  0  0  0
    1.8034    0.8574    0.1476 C   0  0  0  0  0  0  0  0  0  0  0  0
    2.8010    1.6656    1.2860 S   0  0  0  0  0  0  0  0  0  0  0  0
    1.8844    3.1999    1.0119 C   0  0  0  0  0  0  0  0  0  0  0  0
    2.2526    4.3462    1.6131 N   0  0  0  0  0  0  0  0  0  0  0  0
    1.5580    5.4421    1.2372 C   0  0  0  0  0  0  0  0  0  0  0  0
    0.5432    5.4351    0.2823 C   0  0  0  0  0  0  0  0  0  0  0  0
    0.1894    4.2283   -0.3245 C   0  0  0  0  0  0  0  0  0  0  0  0
    0.8459    3.0764    0.0736 C   0  0  0  0  0  0  0  0  0  0  0  0
    0.7494    1.6976   -0.3970 C   0  0  0  0  0  0  0  0  0  0  0  0
   -0.0640    0.9369   -1.1546 C   0  0  0  0  0  0  0  0  0  0  0  0
   -3.8133   -0.1505   -0.8726 C   0  0  0  0  0  0  0  0  0  0  0  0
   -2.2939   -3.6429    1.8236 H   0  0  0  0  0  0  0  0  0  0  0  0
   -1.4977   -4.0026    0.4032 H   0  0  0  0  0  0  0  0  0  0  0  0
   -3.0933   -3.5160    0.3783 H   0  0  0  0  0  0  0  0  0  0  0  0
   -0.8127   -1.8990    1.2560 H   0  0  0  0  0  0  0  0  0  0  0  0
   -4.2089    1.5948    0.3597 H   0  0  0  0  0  0  0  0  0  0  0  0
   -3.0202    2.5954   -1.4834 H   0  0  0  0  0  0  0  0  0  0  0  0
   -1.9060    2.6604   -0.1382 H   0  0  0  0  0  0  0  0  0  0  0  0
   -2.7380    0.4210   -3.1366 H   0  0  0  0  0  0  0  0  0  0  0  0
   -0.3691   -2.1343   -2.2712 H   0  0  0  0  0  0  0  0  0  0  0  0
    0.2500   -2.5306   -0.7135 H   0  0  0  0  0  0  0  0  0  0  0  0
    1.0792   -0.4402   -2.3577 H   0  0  0  0  0  0  0  0  0  0  0  0
    2.9473   -2.0403   -2.1544 H   0  0  0  0  0  0  0  0  0  0  0  0
    4.3753   -3.9860   -1.6860 H   0  0  0  0  0  0  0  0  0  0  0  0
    4.9496   -4.5871    0.6494 H   0  0  0  0  0  0  0  0  0  0  0  0
    4.0821   -3.2207    2.5280 H   0  0  0  0  0  0  0  0  0  0  0  0
    2.6351   -1.2828    2.0928 H   0  0  0  0  0  0  0  0  0  0  0  0
    1.8563    6.3668    1.7255 H   0  0  0  0  0  0  0  0  0  0  0  0
    0.0491    6.3619    0.0074 H   0  0  0  0  0  0  0  0  0  0  0  0
   -0.5633    4.2172   -1.1042 H   0  0  0  0  0  0  0  0  0  0  0  0
   -4.4385   -0.8867   -0.3597 H   0  0  0  0  0  0  0  0  0  0  0  0
   -4.4397    0.2230   -1.6936 H   0  0  0  0  0  0  0  0  0  0  0  0
  1  2  1  0
  2  3  1  0
  3  4  1  0
  4  5  2  0
  4  6  1  0
  6  7  1  0
  7  8  1  0
  8  9  2  0
  9 10  1  0
 10 11  2  0
 11 12  1  0
 12 13  1  0
 13 14  1  0
 14 15  1  0
 15 16  2  0
 16 17  1  0
 17 18  2  0
 18 19  1  0
 19 20  2  0
 14 21  2  0
 21 22  1  0
 22 23  1  0
 23 24  1  0
 24 25  2  0
 25 26  1  0
 26 27  2  0
 27 28  1  0
 28 29  1  0
 29 30  2  0
 10 31  1  0
 11  2  1  0
 30 13  1  0
 31  6  1  0
 30  8  1  0
 20 15  1  0
 29 21  1  0
 28 23  2  0
  1 32  1  0
  1 33  1  0
  1 34  1  0
  2 35  1  1
  6 36  1  1
  7 37  1  0
  7 38  1  0
  9 39  1  0
 12 40  1  0
 12 41  1  0
 13 42  1  6
 16 43  1  0
 17 44  1  0
 18 45  1  0
 19 46  1  0
 20 47  1  0
 25 48  1  0
 26 49  1  0
 27 50  1  0
 31 51  1  0
 31 52  1  0
M  CHG  1   1   1
M  END
>  <_SMILES>  (154) 
[NH3+][C@@H]1SC(=O)[C@H]2CC3=CC(=C1C[C@@H]1C(c4ccccc4)=c4sc5ncccc5c4=C31)C2

$$$$

     RDKit          3D

 52 58  0  0  0  0  0  0  0  0999 V2000
    2.9479   -2.5263   -1.2944 N   0  0  0  0  0  0  0  0  0  0  0  0
    3.2849   -1.3528   -0.4749 C   0  0  1  0  0  0  0  0  0  0  0  0
    3.6860   -0.0873   -1.6909 S   0  0  0  0  0  0  0  0  0  0  0  0
    2.6895    1.2699   -1.1477 C   0  0  0  0  0  0  0  0  0  0  0  0
    1.7811    1.6258   -1.8857 O   0  0  0  0  0  0  0  0  0  0  0  0
    3.0255    1.9581    0.1891 C   0  0  1  0  0  0  0  0  0  0  0  0
    1.6920    2.5457    0.8023 C   0  0  0  0  0  0  0  0  0  0  0  0
    0.8571    1.5024    1.5872 C   0  0  0  0  0  0  0  0  0  0  0  0
    1.5830    0.6433    2.3394 C   0  0  0  0  0  0  0  0  0  0  0  0
    2.5828   -0.0042    1.4813 C   0  0  0  0  0  0  0  0  0  0  0  0
    2.2600   -0.9567    0.5638 C   0  0  0  0  0  0  0  0  0  0  0  0
    0.8225   -1.4493    0.3443 C   0  0  0  0  0  0  0  0  0  0  0  0
   -0.3931   -0.6729    0.9391 C   0  0  2  0  0  0  0  0  0  0  0  0
   -1.6578   -0.9113    0.1181 C   0  0  0  0  0  0  0  0  0  0  0  0
   -2.1848   -2.2527   -0.1447 C   0  0  0  0  0  0  0  0  0  0  0  0
   -2.2266   -3.2117    0.8772 C   0  0  0  0  0  0  0  0  0  0  0  0
   -2.6879   -4.5062    0.6237 C   0  0  0  0  0  0  0  0  0  0  0  0
   -3.1084   -4.8589   -0.6560 C   0  0  0  0  0  0  0  0  0  0  0  0
   -3.0709   -3.9177   -1.6813 C   0  0  0  0  0  0  0  0  0  0  0  0
   -2.6098   -2.6233   -1.4278 C   0  0  0  0  0  0  0  0  0  0  0  0
   -2.1305    0.2835   -0.2554 C   0  0  0  0  0  0  0  0  0  0  0  0
   -3.4900    0.8092   -1.1600 S   0  0  0  0  0  0  0  0  0  0  0  0
   -3.0468    2.5344   -0.8381 C   0  0  0  0  0  0  0  0  0  0  0  0
   -3.8158    3.5452   -1.2822 N   0  0  0  0  0  0  0  0  0  0  0  0
   -3.4142    4.7801   -0.9094 C   0  0  0  0  0  0  0  0  0  0  0  0
   -2.2993    5.0330   -0.1120 C   0  0  0  0  0  0  0  0  0  0  0  0
   -1.5229    3.9608    0.3323 C   0  0  0  0  0  0  0  0  0  0  0  0
   -1.8877    2.6845   -0.0571 C   0  0  0  0  0  0  0  0  0  0  0  0
   -1.3195    1.3778    0.2499 C   0  0  0  0  0  0  0  0  0  0  0  0
   -0.2609    0.8693    0.9016 C   0  0  0  0  0  0  0  0  0  0  0  0
    3.6938    0.9969    1.2037 C   0  0  0  0  0  0  0  0  0  0  0  0
    3.7558   -2.7833   -1.8724 H   0  0  0  0  0  0  0  0  0  0  0  0
    2.1889   -2.2992   -1.9476 H   0  0  0  0  0  0  0  0  0  0  0  0
    2.6776   -3.3368   -0.7283 H   0  0  0  0  0  0  0  0  0  0  0  0
    4.2090   -1.6419    0.0388 H   0  0  0  0  0  0  0  0  0  0  0  0
    3.7078    2.7844   -0.0434 H   0  0  0  0  0  0  0  0  0  0  0  0
    1.9552    3.3473    1.5054 H   0  0  0  0  0  0  0  0  0  0  0  0
    1.1032    3.0160    0.0104 H   0  0  0  0  0  0  0  0  0  0  0  0
    2.0914    1.0619    3.2165 H   0  0  0  0  0  0  0  0  0  0  0  0
    0.6619   -1.4699   -0.7421 H   0  0  0  0  0  0  0  0  0  0  0  0
    0.7720   -2.4930    0.6809 H   0  0  0  0  0  0  0  0  0  0  0  0
   -0.5641   -0.9913    1.9769 H   0  0  0  0  0  0  0  0  0  0  0  0
   -1.9352   -2.9581    1.8939 H   0  0  0  0  0  0  0  0  0  0  0  0
   -2.7409   -5.2338    1.4304 H   0  0  0  0  0  0  0  0  0  0  0  0
   -3.4857   -5.8605   -0.8499 H   0  0  0  0  0  0  0  0  0  0  0  0
   -3.4175   -4.1851   -2.6771 H   0  0  0  0  0  0  0  0  0  0  0  0
   -2.5957   -1.9098   -2.2493 H   0  0  0  0  0  0  0  0  0  0  0  0
   -4.0376    5.5954   -1.2688 H   0  0  0  0  0  0  0  0  0  0  0  0
   -2.0498    6.0527    0.1652 H   0  0  0  0  0  0  0  0  0  0  0  0
   -0.6755    4.1421    0.9815 H   0  0  0  0  0  0  0  0  0  0  0  0
    4.6121    0.5341    0.8325 H   0  0  0  0  0  0  0  0  0  0  0  0
    3.9878    1.5407    2.1107 H   0  0  0  0  0  0  0  0  0  0  0  0
  1  2  1  0
  2  3  1  0
  3  4  1  0
  4  5  2  0
  4  6  1  0
  6  7  1  0
  7  8  1  0
  8  9  2  0
  9 10  1  0
 10 11  2  0
 11 12  1  0
 12 13  1  0
 13 14  1  0
 14 15  1  0
 15 16  2  0
 16 17  1  0
 17 18  2  0
 18 19  1  0
 19 20  2  0
 14 21  2  0
 21 22  1  0
 22 23  1  0
 23 24  1  0
 24 25  2  0
 25 26  1  0
 26 27  2  0
 27 28  1  0
 28 29  1  0
 29 30  2  0
 10 31  1  0
 11  2  1  0
 30 13  1  0
 31  6  1  0
 30  8  1  0
 20 15  1  0
 29 21  1  0
 28 23  2  0
  1 32  1  0
  1 33  1  0
  1 34  1  0
  2 35  1  1
  6 36  1  6
  7 37  1  0
  7 38  1  0
  9 39  1  0
 12 40  1  0
 12 41  1  0
 13 42  1  1
 16 43  1  0
 17 44  1  0
 18 45  1  0
 19 46  1  0
 20 47  1  0
 25 48  1  0
 26 49  1  0
 27 50  1  0
 31 51  1  0
 31 52  1  0
M  CHG  1   1   1
M  END
>  <_SMILES>  (155) 
[NH3+][C@H]1SC(=O)[C@H]2CC3=CC(=C1C[C@@H]1C(c4ccccc4)=c4sc5ncccc5c4=C31)C2

$$$$

     RDKit          3D

 52 58  0  0  0  0  0  0  0  0999 V2000
   -1.7128    3.7041    0.3060 N   0  0  0  0  0  0  0  0  0  0  0  0
   -2.4187    2.6165   -0.3877 C   0  0  2  0  0  0  0  0  0  0  0  0
   -3.4671    1.9070    0.8924 S   0  0  0  0  0  0  0  0  0  0  0  0
   -3.0909    0.1834    0.7585 C   0  0  0  0  0  0  0  0  0  0  0  0
   -2.5193   -0.3382    1.7058 O   0  0  0  0  0  0  0  0  0  0  0  0
   -3.5254   -0.5822   -0.5059 C   0  0  2  0  0  0  0  0  0  0  0  0
   -2.5093   -1.7683   -0.7506 C   0  0  0  0  0  0  0  0  0  0  0  0
   -1.2198   -1.3378   -1.4945 C   0  0  0  0  0  0  0  0  0  0  0  0
   -1.4106   -0.4429   -2.4912 C   0  0  0  0  0  0  0  0  0  0  0  0
   -2.1319    0.7161   -1.9512 C   0  0  0  0  0  0  0  0  0  0  0  0
   -1.5454    1.6332   -1.1338 C   0  0  0  0  0  0  0  0  0  0  0  0
   -0.0736    1.5469   -0.7052 C   0  0  0  0  0  0  0  0  0  0  0  0
    0.7538    0.2431   -0.9284 C   0  0  1  0  0  0  0  0  0  0  0  0
    1.8892    0.1274    0.0854 C   0  0  0  0  0  0  0  0  0  0  0  0
    2.9044    1.1703    0.2532 C   0  0  0  0  0  0  0  0  0  0  0  0
    3.2889    1.6056    1.5287 C   0  0  0  0  0  0  0  0  0  0  0  0
    4.2260    2.6308    1.6810 C   0  0  0  0  0  0  0  0  0  0  0  0
    4.7868    3.2365    0.5598 C   0  0  0  0  0  0  0  0  0  0  0  0
    4.4136    2.8161   -0.7140 C   0  0  0  0  0  0  0  0  0  0  0  0
    3.4763    1.7909   -0.8664 C   0  0  0  0  0  0  0  0  0  0  0  0
    1.7551   -1.0469    0.7127 C   0  0  0  0  0  0  0  0  0  0  0  0
    2.6378   -1.8641    1.9357 S   0  0  0  0  0  0  0  0  0  0  0  0
    1.5404   -3.2953    1.7823 C   0  0  0  0  0  0  0  0  0  0  0  0
    1.7420   -4.4085    2.5108 N   0  0  0  0  0  0  0  0  0  0  0  0
    0.8981   -5.4297    2.2461 C   0  0  0  0  0  0  0  0  0  0  0  0
   -0.1123   -5.3816    1.2870 C   0  0  0  0  0  0  0  0  0  0  0  0
   -0.2942   -4.2107    0.5481 C   0  0  0  0  0  0  0  0  0  0  0  0
    0.5325   -3.1343    0.8157 C   0  0  0  0  0  0  0  0  0  0  0  0
    0.6209   -1.8079    0.2179 C   0  0  0  0  0  0  0  0  0  0  0  0
   -0.0302   -1.0719   -0.6977 C   0  0  0  0  0  0  0  0  0  0  0  0
   -3.5893    0.3248   -1.7602 C   0  0  0  0  0  0  0  0  0  0  0  0
   -1.2093    3.3387    1.1228 H   0  0  0  0  0  0  0  0  0  0  0  0
   -1.0551    4.1987   -0.3050 H   0  0  0  0  0  0  0  0  0  0  0  0
   -2.3959    4.3785    0.6686 H   0  0  0  0  0  0  0  0  0  0  0  0
   -3.0601    3.1328   -1.1112 H   0  0  0  0  0  0  0  0  0  0  0  0
   -4.5186   -0.9979   -0.2982 H   0  0  0  0  0  0  0  0  0  0  0  0
   -3.0037   -2.5288   -1.3700 H   0  0  0  0  0  0  0  0  0  0  0  0
   -2.2793   -2.2533    0.2017 H   0  0  0  0  0  0  0  0  0  0  0  0
   -1.9394   -0.8012   -3.3829 H   0  0  0  0  0  0  0  0  0  0  0  0
   -0.0521    1.7334    0.3772 H   0  0  0  0  0  0  0  0  0  0  0  0
    0.4596    2.3860   -1.1708 H   0  0  0  0  0  0  0  0  0  0  0  0
    1.1688    0.2375   -1.9460 H   0  0  0  0  0  0  0  0  0  0  0  0
    2.8712    1.1502    2.4244 H   0  0  0  0  0  0  0  0  0  0  0  0
    4.5307    2.9439    2.6772 H   0  0  0  0  0  0  0  0  0  0  0  0
    5.5306    4.0210    0.6796 H   0  0  0  0  0  0  0  0  0  0  0  0
    4.8703    3.2717   -1.5897 H   0  0  0  0  0  0  0  0  0  0  0  0
    3.2294    1.4636   -1.8738 H   0  0  0  0  0  0  0  0  0  0  0  0
    1.0633   -6.3285    2.8354 H   0  0  0  0  0  0  0  0  0  0  0  0
   -0.7392   -6.2510    1.1146 H   0  0  0  0  0  0  0  0  0  0  0  0
   -1.0522   -4.1736   -0.2241 H   0  0  0  0  0  0  0  0  0  0  0  0
   -4.2579    1.1827   -1.6495 H   0  0  0  0  0  0  0  0  0  0  0  0
   -3.9761   -0.2369   -2.6203 H   0  0  0  0  0  0  0  0  0  0  0  0
  1  2  1  0
  2  3  1  0
  3  4  1  0
  4  5  2  0
  4  6  1  0
  6  7  1  0
  7  8  1  0
  8  9  2  0
  9 10  1  0
 10 11  2  0
 11 12  1  0
 12 13  1  0
 13 14  1  0
 14 15  1  0
 15 16  2  0
 16 17  1  0
 17 18  2  0
 18 19  1  0
 19 20  2  0
 14 21  2  0
 21 22  1  0
 22 23  1  0
 23 24  1  0
 24 25  2  0
 25 26  1  0
 26 27  2  0
 27 28  1  0
 28 29  1  0
 29 30  2  0
 10 31  1  0
 11  2  1  0
 30 13  1  0
 31  6  1  0
 30  8  1  0
 20 15  1  0
 29 21  1  0
 28 23  2  0
  1 32  1  0
  1 33  1  0
  1 34  1  0
  2 35  1  6
  6 36  1  1
  7 37  1  0
  7 38  1  0
  9 39  1  0
 12 40  1  0
 12 41  1  0
 13 42  1  6
 16 43  1  0
 17 44  1  0
 18 45  1  0
 19 46  1  0
 20 47  1  0
 25 48  1  0
 26 49  1  0
 27 50  1  0
 31 51  1  0
 31 52  1  0
M  CHG  1   1   1
M  END
>  <_SMILES>  (156) 
[NH3+][C@@H]1SC(=O)[C@@H]2CC3=CC(=C1C[C@H]1C(c4ccccc4)=c4sc5ncccc5c4=C31)C2

$$$$

     RDKit          3D

 52 58  0  0  0  0  0  0  0  0999 V2000
   -2.0941   -4.1326   -0.4669 N   0  0  0  0  0  0  0  0  0  0  0  0
   -1.7849   -2.7333   -0.7919 C   0  0  1  0  0  0  0  0  0  0  0  0
   -3.2755   -2.1132   -1.5789 S   0  0  0  0  0  0  0  0  0  0  0  0
   -3.0999   -0.4041   -1.1508 C   0  0  0  0  0  0  0  0  0  0  0  0
   -2.6107    0.3589   -1.9686 O   0  0  0  0  0  0  0  0  0  0  0  0
   -3.6007    0.0065    0.2448 C   0  0  2  0  0  0  0  0  0  0  0  0
   -2.7250    1.2027    0.7931 C   0  0  0  0  0  0  0  0  0  0  0  0
   -1.4386    0.7665    1.5454 C   0  0  0  0  0  0  0  0  0  0  0  0
   -1.5477   -0.3720    2.2710 C   0  0  0  0  0  0  0  0  0  0  0  0
   -2.0667   -1.4242    1.3858 C   0  0  0  0  0  0  0  0  0  0  0  0
   -1.2756   -1.9952    0.4341 C   0  0  0  0  0  0  0  0  0  0  0  0
    0.2343   -1.6762    0.3234 C   0  0  0  0  0  0  0  0  0  0  0  0
    0.8087   -0.3292    0.8699 C   0  0  1  0  0  0  0  0  0  0  0  0
    1.9747    0.1776    0.0266 C   0  0  0  0  0  0  0  0  0  0  0  0
    3.1695   -0.6289   -0.2348 C   0  0  0  0  0  0  0  0  0  0  0  0
    3.7172   -0.7124   -1.5220 C   0  0  0  0  0  0  0  0  0  0  0  0
    4.8347   -1.5129   -1.7721 C   0  0  0  0  0  0  0  0  0  0  0  0
    5.4160   -2.2431   -0.7389 C   0  0  0  0  0  0  0  0  0  0  0  0
    4.8817   -2.1724    0.5449 C   0  0  0  0  0  0  0  0  0  0  0  0
    3.7635   -1.3723    0.7949 C   0  0  0  0  0  0  0  0  0  0  0  0
    1.6868    1.4270   -0.3558 C   0  0  0  0  0  0  0  0  0  0  0  0
    2.5051    2.6190   -1.2794 S   0  0  0  0  0  0  0  0  0  0  0  0
    1.1776    3.8017   -0.9437 C   0  0  0  0  0  0  0  0  0  0  0  0
    1.2433    5.0678   -1.3948 N   0  0  0  0  0  0  0  0  0  0  0  0
    0.2271    5.8698   -1.0090 C   0  0  0  0  0  0  0  0  0  0  0  0
   -0.8247    5.4610   -0.1911 C   0  0  0  0  0  0  0  0  0  0  0  0
   -0.8620    4.1401    0.2604 C   0  0  0  0  0  0  0  0  0  0  0  0
    0.1455    3.2821   -0.1431 C   0  0  0  0  0  0  0  0  0  0  0  0
    0.4098    1.8821    0.1672 C   0  0  0  0  0  0  0  0  0  0  0  0
   -0.1700    0.8715    0.8359 C   0  0  0  0  0  0  0  0  0  0  0  0
   -3.5558   -1.1869    1.2295 C   0  0  0  0  0  0  0  0  0  0  0  0
   -2.8146   -4.1805    0.2595 H   0  0  0  0  0  0  0  0  0  0  0  0
   -1.2628   -4.6339   -0.1375 H   0  0  0  0  0  0  0  0  0  0  0  0
   -2.4575   -4.6043   -1.3024 H   0  0  0  0  0  0  0  0  0  0  0  0
   -1.0263   -2.7806   -1.5783 H   0  0  0  0  0  0  0  0  0  0  0  0
   -4.6355    0.3471    0.1189 H   0  0  0  0  0  0  0  0  0  0  0  0
   -2.4932    1.8829   -0.0306 H   0  0  0  0  0  0  0  0  0  0  0  0
   -3.3321    1.7765    1.5061 H   0  0  0  0  0  0  0  0  0  0  0  0
   -2.1571   -0.3253    3.1810 H   0  0  0  0  0  0  0  0  0  0  0  0
    0.7807   -2.5083    0.7878 H   0  0  0  0  0  0  0  0  0  0  0  0
    0.5027   -1.7168   -0.7409 H   0  0  0  0  0  0  0  0  0  0  0  0
    1.1487   -0.4740    1.9053 H   0  0  0  0  0  0  0  0  0  0  0  0
    3.2852   -0.1547   -2.3504 H   0  0  0  0  0  0  0  0  0  0  0  0
    5.2586   -1.5551   -2.7728 H   0  0  0  0  0  0  0  0  0  0  0  0
    6.2953   -2.8533   -0.9316 H   0  0  0  0  0  0  0  0  0  0  0  0
    5.3485   -2.7258    1.3564 H   0  0  0  0  0  0  0  0  0  0  0  0
    3.3880   -1.3153    1.8137 H   0  0  0  0  0  0  0  0  0  0  0  0
    0.2828    6.8924   -1.3748 H   0  0  0  0  0  0  0  0  0  0  0  0
   -1.5958    6.1691    0.0963 H   0  0  0  0  0  0  0  0  0  0  0  0
   -1.6540    3.8222    0.9265 H   0  0  0  0  0  0  0  0  0  0  0  0
   -4.0948   -2.0798    0.9030 H   0  0  0  0  0  0  0  0  0  0  0  0
   -4.0300   -0.9076    2.1798 H   0  0  0  0  0  0  0  0  0  0  0  0
  1  2  1  0
  2  3  1  0
  3  4  1  0
  4  5  2  0
  4  6  1  0
  6  7  1  0
  7  8  1  0
  8  9  2  0
  9 10  1  0
 10 11  2  0
 11 12  1  0
 12 13  1  0
 13 14  1  0
 14 15  1  0
 15 16  2  0
 16 17  1  0
 17 18  2  0
 18 19  1  0
 19 20  2  0
 14 21  2  0
 21 22  1  0
 22 23  1  0
 23 24  1  0
 24 25  2  0
 25 26  1  0
 26 27  2  0
 27 28  1  0
 28 29  1  0
 29 30  2  0
 10 31  1  0
 11  2  1  0
 30 13  1  0
 31  6  1  0
 30  8  1  0
 20 15  1  0
 29 21  1  0
 28 23  2  0
  1 32  1  0
  1 33  1  0
  1 34  1  0
  2 35  1  6
  6 36  1  6
  7 37  1  0
  7 38  1  0
  9 39  1  0
 12 40  1  0
 12 41  1  0
 13 42  1  1
 16 43  1  0
 17 44  1  0
 18 45  1  0
 19 46  1  0
 20 47  1  0
 25 48  1  0
 26 49  1  0
 27 50  1  0
 31 51  1  0
 31 52  1  0
M  CHG  1   1   1
M  END
>  <_SMILES>  (157) 
[NH3+][C@H]1SC(=O)[C@@H]2CC3=CC(=C1C[C@H]1C(c4ccccc4)=c4sc5ncccc5c4=C31)C2

$$$$

     RDKit          3D

 52 58  0  0  0  0  0  0  0  0999 V2000
   -2.1339   -3.3876   -2.2178 N   0  0  0  0  0  0  0  0  0  0  0  0
   -1.8934   -2.5635   -1.0279 C   0  0  2  0  0  0  0  0  0  0  0  0
   -3.4035   -2.7021   -0.0698 S   0  0  0  0  0  0  0  0  0  0  0  0
   -3.2040   -1.2369    0.9059 C   0  0  0  0  0  0  0  0  0  0  0  0
   -2.6952   -1.3380    2.0113 O   0  0  0  0  0  0  0  0  0  0  0  0
   -3.6819    0.0825    0.2792 C   0  0  1  0  0  0  0  0  0  0  0  0
   -2.7522    1.2715    0.7519 C   0  0  0  0  0  0  0  0  0  0  0  0
   -1.5200    1.5344   -0.1477 C   0  0  0  0  0  0  0  0  0  0  0  0
   -1.6609    1.2632   -1.4676 C   0  0  0  0  0  0  0  0  0  0  0  0
   -2.2360   -0.0847   -1.6237 C   0  0  0  0  0  0  0  0  0  0  0  0
   -1.4426   -1.1751   -1.4226 C   0  0  0  0  0  0  0  0  0  0  0  0
    0.0618   -0.9409   -1.1618 C   0  0  0  0  0  0  0  0  0  0  0  0
    0.2692   -0.3471    0.2639 C   0  0  1  0  0  0  0  0  0  0  0  0
    1.7256   -0.2216    0.6800 C   0  0  0  0  0  0  0  0  0  0  0  0
    2.6312   -1.3661    0.7317 C   0  0  0  0  0  0  0  0  0  0  0  0
    3.8760   -1.3232    0.0924 C   0  0  0  0  0  0  0  0  0  0  0  0
    4.7233   -2.4332    0.1150 C   0  0  0  0  0  0  0  0  0  0  0  0
    4.3350   -3.5953    0.7779 C   0  0  0  0  0  0  0  0  0  0  0  0
    3.1010   -3.6484    1.4221 C   0  0  0  0  0  0  0  0  0  0  0  0
    2.2512   -2.5400    1.3971 C   0  0  0  0  0  0  0  0  0  0  0  0
    1.9472    1.0530    1.0197 C   0  0  0  0  0  0  0  0  0  0  0  0
    3.3012    1.9424    1.5822 S   0  0  0  0  0  0  0  0  0  0  0  0
    2.3240    3.4709    1.5343 C   0  0  0  0  0  0  0  0  0  0  0  0
    2.8565    4.6594    1.8679 N   0  0  0  0  0  0  0  0  0  0  0  0
    2.0101    5.7111    1.7860 C   0  0  0  0  0  0  0  0  0  0  0  0
    0.6758    5.6184    1.3870 C   0  0  0  0  0  0  0  0  0  0  0  0
    0.1530    4.3708    1.0437 C   0  0  0  0  0  0  0  0  0  0  0  0
    0.9956    3.2772    1.1171 C   0  0  0  0  0  0  0  0  0  0  0  0
    0.7642    1.8704    0.8406 C   0  0  0  0  0  0  0  0  0  0  0  0
   -0.2391    1.1027    0.3894 C   0  0  0  0  0  0  0  0  0  0  0  0
   -3.7053   -0.0039   -1.2672 C   0  0  0  0  0  0  0  0  0  0  0  0
   -1.2863   -3.4878   -2.7862 H   0  0  0  0  0  0  0  0  0  0  0  0
   -2.4565   -4.3190   -1.9336 H   0  0  0  0  0  0  0  0  0  0  0  0
   -2.8663   -2.9660   -2.7977 H   0  0  0  0  0  0  0  0  0  0  0  0
   -1.1144   -3.0773   -0.4550 H   0  0  0  0  0  0  0  0  0  0  0  0
   -4.6981    0.2531    0.6550 H   0  0  0  0  0  0  0  0  0  0  0  0
   -2.4403    1.1271    1.7933 H   0  0  0  0  0  0  0  0  0  0  0  0
   -3.3492    2.1936    0.7408 H   0  0  0  0  0  0  0  0  0  0  0  0
   -2.2459    1.9773   -2.0588 H   0  0  0  0  0  0  0  0  0  0  0  0
    0.6007   -1.8906   -1.2679 H   0  0  0  0  0  0  0  0  0  0  0  0
    0.4874   -0.2839   -1.9326 H   0  0  0  0  0  0  0  0  0  0  0  0
   -0.2545   -0.9647    1.0045 H   0  0  0  0  0  0  0  0  0  0  0  0
    4.2045   -0.4252   -0.4276 H   0  0  0  0  0  0  0  0  0  0  0  0
    5.6941   -2.3840   -0.3731 H   0  0  0  0  0  0  0  0  0  0  0  0
    5.0057   -4.4510    0.8104 H   0  0  0  0  0  0  0  0  0  0  0  0
    2.8139   -4.5454    1.9656 H   0  0  0  0  0  0  0  0  0  0  0  0
    1.3112   -2.5925    1.9413 H   0  0  0  0  0  0  0  0  0  0  0  0
    2.4422    6.6709    2.0594 H   0  0  0  0  0  0  0  0  0  0  0  0
    0.0578    6.5102    1.3484 H   0  0  0  0  0  0  0  0  0  0  0  0
   -0.8808    4.2751    0.7338 H   0  0  0  0  0  0  0  0  0  0  0  0
   -4.2834   -0.8363   -1.6768 H   0  0  0  0  0  0  0  0  0  0  0  0
   -4.1756    0.8965   -1.6845 H   0  0  0  0  0  0  0  0  0  0  0  0
  1  2  1  0
  2  3  1  0
  3  4  1  0
  4  5  2  0
  4  6  1  0
  6  7  1  0
  7  8  1  0
  8  9  2  0
  9 10  1  0
 10 11  2  0
 11 12  1  0
 12 13  1  0
 13 14  1  0
 14 15  1  0
 15 16  2  0
 16 17  1  0
 17 18  2  0
 18 19  1  0
 19 20  2  0
 14 21  2  0
 21 22  1  0
 22 23  1  0
 23 24  1  0
 24 25  2  0
 25 26  1  0
 26 27  2  0
 27 28  1  0
 28 29  1  0
 29 30  2  0
 10 31  1  0
 11  2  1  0
 30 13  1  0
 31  6  1  0
 30  8  1  0
 20 15  1  0
 29 21  1  0
 28 23  2  0
  1 32  1  0
  1 33  1  0
  1 34  1  0
  2 35  1  1
  6 36  1  1
  7 37  1  0
  7 38  1  0
  9 39  1  0
 12 40  1  0
 12 41  1  0
 13 42  1  1
 16 43  1  0
 17 44  1  0
 18 45  1  0
 19 46  1  0
 20 47  1  0
 25 48  1  0
 26 49  1  0
 27 50  1  0
 31 51  1  0
 31 52  1  0
M  CHG  1   1   1
M  END
>  <_SMILES>  (158) 
[NH3+][C@@H]1SC(=O)[C@H]2CC3=CC(=C1C[C@H]1C(c4ccccc4)=c4sc5ncccc5c4=C31)C2

$$$$

     RDKit          3D

 52 58  0  0  0  0  0  0  0  0999 V2000
   -0.9888   -3.0077    2.0661 N   0  0  0  0  0  0  0  0  0  0  0  0
   -2.1046   -2.0464    2.0339 C   0  0  1  0  0  0  0  0  0  0  0  0
   -1.9786   -1.3025    3.6764 S   0  0  0  0  0  0  0  0  0  0  0  0
   -1.2531    0.2476    3.2433 C   0  0  0  0  0  0  0  0  0  0  0  0
   -0.0411    0.3538    3.3606 O   0  0  0  0  0  0  0  0  0  0  0  0
   -2.1869    1.3468    2.7189 C   0  0  1  0  0  0  0  0  0  0  0  0
   -1.4008    2.2655    1.6967 C   0  0  0  0  0  0  0  0  0  0  0  0
   -1.4159    1.7653    0.2320 C   0  0  0  0  0  0  0  0  0  0  0  0
   -2.5340    1.1120   -0.1631 C   0  0  0  0  0  0  0  0  0  0  0  0
   -2.8552    0.0617    0.8207 C   0  0  0  0  0  0  0  0  0  0  0  0
   -2.1374   -1.0995    0.8478 C   0  0  0  0  0  0  0  0  0  0  0  0
   -1.0817   -1.2864   -0.2587 C   0  0  0  0  0  0  0  0  0  0  0  0
    0.1302   -0.3427    0.0055 C   0  0  1  0  0  0  0  0  0  0  0  0
    1.3149   -0.5843   -0.9086 C   0  0  0  0  0  0  0  0  0  0  0  0
    1.9984   -1.8688   -0.9686 C   0  0  0  0  0  0  0  0  0  0  0  0
    2.0402   -2.5975   -2.1614 C   0  0  0  0  0  0  0  0  0  0  0  0
    2.6558   -3.8498   -2.1987 C   0  0  0  0  0  0  0  0  0  0  0  0
    3.2390   -4.3773   -1.0476 C   0  0  0  0  0  0  0  0  0  0  0  0
    3.2149   -3.6512    0.1418 C   0  0  0  0  0  0  0  0  0  0  0  0
    2.5951   -2.4010    0.1826 C   0  0  0  0  0  0  0  0  0  0  0  0
    1.6023    0.5653   -1.5257 C   0  0  0  0  0  0  0  0  0  0  0  0
    2.7740    1.0653   -2.6705 S   0  0  0  0  0  0  0  0  0  0  0  0
    2.0251    2.7194   -2.7167 C   0  0  0  0  0  0  0  0  0  0  0  0
    2.5036    3.6876   -3.5171 N   0  0  0  0  0  0  0  0  0  0  0  0
    1.8456    4.8673   -3.4470 C   0  0  0  0  0  0  0  0  0  0  0  0
    0.7459    5.1078   -2.6215 C   0  0  0  0  0  0  0  0  0  0  0  0
    0.2714    4.0817   -1.8030 C   0  0  0  0  0  0  0  0  0  0  0  0
    0.9237    2.8642   -1.8543 C   0  0  0  0  0  0  0  0  0  0  0  0
    0.6884    1.6221   -1.1397 C   0  0  0  0  0  0  0  0  0  0  0  0
   -0.1930    1.1410   -0.2493 C   0  0  0  0  0  0  0  0  0  0  0  0
   -3.4408    0.7335    2.0446 C   0  0  0  0  0  0  0  0  0  0  0  0
   -0.9972   -3.6643    1.2784 H   0  0  0  0  0  0  0  0  0  0  0  0
   -0.0839   -2.5242    2.0997 H   0  0  0  0  0  0  0  0  0  0  0  0
   -1.0532   -3.5543    2.9329 H   0  0  0  0  0  0  0  0  0  0  0  0
   -3.0076   -2.6655    2.0041 H   0  0  0  0  0  0  0  0  0  0  0  0
   -2.4848    1.9483    3.5860 H   0  0  0  0  0  0  0  0  0  0  0  0
   -1.8754    3.2562    1.6958 H   0  0  0  0  0  0  0  0  0  0  0  0
   -0.3697    2.4253    2.0343 H   0  0  0  0  0  0  0  0  0  0  0  0
   -3.4281    1.7217   -0.3393 H   0  0  0  0  0  0  0  0  0  0  0  0
   -1.5244   -1.0871   -1.2450 H   0  0  0  0  0  0  0  0  0  0  0  0
   -0.7617   -2.3306   -0.3183 H   0  0  0  0  0  0  0  0  0  0  0  0
    0.4730   -0.4560    1.0400 H   0  0  0  0  0  0  0  0  0  0  0  0
    1.6039   -2.1958   -3.0744 H   0  0  0  0  0  0  0  0  0  0  0  0
    2.6997   -4.4050   -3.1336 H   0  0  0  0  0  0  0  0  0  0  0  0
    3.7418   -5.3415   -1.0891 H   0  0  0  0  0  0  0  0  0  0  0  0
    3.7130   -4.0463    1.0244 H   0  0  0  0  0  0  0  0  0  0  0  0
    2.6325   -1.8248    1.1047 H   0  0  0  0  0  0  0  0  0  0  0  0
    2.2352    5.6499   -4.0940 H   0  0  0  0  0  0  0  0  0  0  0  0
    0.2712    6.0842   -2.6208 H   0  0  0  0  0  0  0  0  0  0  0  0
   -0.5799    4.2467   -1.1530 H   0  0  0  0  0  0  0  0  0  0  0  0
   -4.1503    1.5269    1.7754 H   0  0  0  0  0  0  0  0  0  0  0  0
   -4.0107    0.0436    2.6725 H   0  0  0  0  0  0  0  0  0  0  0  0
  1  2  1  0
  2  3  1  0
  3  4  1  0
  4  5  2  0
  4  6  1  0
  6  7  1  0
  7  8  1  0
  8  9  2  0
  9 10  1  0
 10 11  2  0
 11 12  1  0
 12 13  1  0
 13 14  1  0
 14 15  1  0
 15 16  2  0
 16 17  1  0
 17 18  2  0
 18 19  1  0
 19 20  2  0
 14 21  2  0
 21 22  1  0
 22 23  1  0
 23 24  1  0
 24 25  2  0
 25 26  1  0
 26 27  2  0
 27 28  1  0
 28 29  1  0
 29 30  2  0
 10 31  1  0
 11  2  1  0
 30 13  1  0
 31  6  1  0
 30  8  1  0
 20 15  1  0
 29 21  1  0
 28 23  2  0
  1 32  1  0
  1 33  1  0
  1 34  1  0
  2 35  1  1
  6 36  1  1
  7 37  1  0
  7 38  1  0
  9 39  1  0
 12 40  1  0
 12 41  1  0
 13 42  1  1
 16 43  1  0
 17 44  1  0
 18 45  1  0
 19 46  1  0
 20 47  1  0
 25 48  1  0
 26 49  1  0
 27 50  1  0
 31 51  1  0
 31 52  1  0
M  CHG  1   1   1
M  END
>  <_SMILES>  (159) 
[NH3+][C@H]1SC(=O)[C@H]2CC3=CC(=C1C[C@H]1C(c4ccccc4)=c4sc5ncccc5c4=C31)C2

$$$$

     RDKit          3D

 63 67  0  0  0  0  0  0  0  0999 V2000
   -1.1779    0.7126   -3.0539 C   0  0  0  0  0  0  0  0  0  0  0  0
   -0.3284   -0.1016   -2.0931 C   0  0  2  0  0  0  0  0  0  0  0  0
    0.1041   -1.5187   -2.6113 C   0  0  0  0  0  0  0  0  0  0  0  0
   -0.7358   -2.0776   -1.4997 C   0  0  0  0  0  0  0  0  0  0  0  0
   -1.1954   -3.2475   -0.9388 C   0  0  0  0  0  0  0  0  0  0  0  0
   -2.0721   -3.1404    0.1437 C   0  0  0  0  0  0  0  0  0  0  0  0
   -2.4620   -1.8770    0.6284 C   0  0  0  0  0  0  0  0  0  0  0  0
   -1.9652   -0.7034    0.0432 C   0  0  0  0  0  0  0  0  0  0  0  0
   -2.4280    0.6205    0.5195 C   0  0  0  0  0  0  0  0  0  0  0  0
   -3.5827    0.7149    0.9244 O   0  0  0  0  0  0  0  0  0  0  0  0
   -1.6356    1.7842    0.5153 N   0  0  0  0  0  0  0  0  0  0  0  0
   -2.0232    3.0839    0.1841 C   0  0  0  0  0  0  0  0  0  0  0  0
   -3.3644    3.5226   -0.1893 C   0  0  0  0  0  0  0  0  0  0  0  0
   -3.6219    3.9533   -1.4978 C   0  0  0  0  0  0  0  0  0  0  0  0
   -4.8933    4.4063   -1.8571 C   0  0  0  0  0  0  0  0  0  0  0  0
   -5.9147    4.4400   -0.9101 C   0  0  0  0  0  0  0  0  0  0  0  0
   -5.6653    4.0244    0.3963 C   0  0  0  0  0  0  0  0  0  0  0  0
   -4.3938    3.5727    0.7568 C   0  0  0  0  0  0  0  0  0  0  0  0
   -0.8414    3.7986    0.1255 C   0  0  0  0  0  0  0  0  0  0  0  0
    0.2272    3.0384    0.5025 N   0  0  0  0  0  0  0  0  0  0  0  0
   -0.2850    1.8624    0.8270 C   0  0  0  0  0  0  0  0  0  0  0  0
    0.5091    0.8667    1.5172 C   0  0  0  0  0  0  0  0  0  0  0  0
    0.0788   -0.1533    2.0528 O   0  0  0  0  0  0  0  0  0  0  0  0
    1.8630    1.1654    1.5672 N   0  0  0  0  0  0  0  0  0  0  0  0
    2.7183    0.5413    2.5488 C   0  0  0  0  0  0  0  0  0  0  0  0
    3.2318   -0.8548    2.2246 C   0  0  2  0  0  0  0  0  0  0  0  0
    4.4532   -0.8883    1.3480 C   0  0  0  0  0  0  0  0  0  0  0  0
    5.3294   -0.0379    1.3341 O   0  0  0  0  0  0  0  0  0  0  0  0
    4.4943   -2.1891    0.5505 C   0  0  1  0  0  0  0  0  0  0  0  0
    5.7305   -3.0106    0.8524 C   0  0  0  0  0  0  0  0  0  0  0  0
    3.2559   -2.9358    1.0240 N   0  0  2  0  0  0  0  0  0  0  0  0
    2.6348   -3.8328    0.0071 C   0  0  0  0  0  0  0  0  0  0  0  0
    2.3419   -1.8116    1.4471 C   0  0  2  0  0  0  0  0  0  0  0  0
    1.9135   -1.2576    0.2922 F   0  0  0  0  0  0  0  0  0  0  0  0
   -1.1092   -0.8385   -1.0314 C   0  0  0  0  0  0  0  0  0  0  0  0
   -0.5792    1.0300   -3.9140 H   0  0  0  0  0  0  0  0  0  0  0  0
   -1.5610    1.6149   -2.5692 H   0  0  0  0  0  0  0  0  0  0  0  0
   -2.0329    0.1426   -3.4340 H   0  0  0  0  0  0  0  0  0  0  0  0
    0.5222    0.4848   -1.7231 H   0  0  0  0  0  0  0  0  0  0  0  0
    1.1815   -1.7065   -2.5428 H   0  0  0  0  0  0  0  0  0  0  0  0
   -0.2195   -1.7602   -3.6300 H   0  0  0  0  0  0  0  0  0  0  0  0
   -0.9285   -4.2160   -1.3478 H   0  0  0  0  0  0  0  0  0  0  0  0
   -2.4901   -4.0372    0.5977 H   0  0  0  0  0  0  0  0  0  0  0  0
   -3.1718   -1.8149    1.4527 H   0  0  0  0  0  0  0  0  0  0  0  0
   -2.8377    3.9407   -2.2506 H   0  0  0  0  0  0  0  0  0  0  0  0
   -5.0872    4.7351   -2.8750 H   0  0  0  0  0  0  0  0  0  0  0  0
   -6.9053    4.7910   -1.1888 H   0  0  0  0  0  0  0  0  0  0  0  0
   -6.4614    4.0490    1.1363 H   0  0  0  0  0  0  0  0  0  0  0  0
   -4.2201    3.2511    1.7812 H   0  0  0  0  0  0  0  0  0  0  0  0
   -0.7209    4.8363   -0.1653 H   0  0  0  0  0  0  0  0  0  0  0  0
    2.0709    2.1218    1.2682 H   0  0  0  0  0  0  0  0  0  0  0  0
    3.5531    1.2299    2.7197 H   0  0  0  0  0  0  0  0  0  0  0  0
    2.1520    0.4969    3.4877 H   0  0  0  0  0  0  0  0  0  0  0  0
    3.5411   -1.3299    3.1660 H   0  0  0  0  0  0  0  0  0  0  0  0
    4.3734   -1.9626   -0.5142 H   0  0  0  0  0  0  0  0  0  0  0  0
    5.8367   -3.1987    1.9267 H   0  0  0  0  0  0  0  0  0  0  0  0
    5.7033   -3.9754    0.3364 H   0  0  0  0  0  0  0  0  0  0  0  0
    6.6314   -2.4796    0.5266 H   0  0  0  0  0  0  0  0  0  0  0  0
    3.4706   -3.4930    1.8598 H   0  0  0  0  0  0  0  0  0  0  0  0
    2.4205   -3.2629   -0.9003 H   0  0  0  0  0  0  0  0  0  0  0  0
    1.7181   -4.2455    0.4357 H   0  0  0  0  0  0  0  0  0  0  0  0
    3.3421   -4.6382   -0.2051 H   0  0  0  0  0  0  0  0  0  0  0  0
    1.5084   -2.2354    2.0144 H   0  0  0  0  0  0  0  0  0  0  0  0
  1  2  1  0
  2  3  1  0
  3  4  1  0
  4  5  2  0
  5  6  1  0
  6  7  2  0
  7  8  1  0
  8  9  1  0
  9 10  2  0
  9 11  1  0
 11 12  1  0
 12 13  1  0
 13 14  2  0
 14 15  1  0
 15 16  2  0
 16 17  1  0
 17 18  2  0
 12 19  2  0
 19 20  1  0
 20 21  2  0
 21 22  1  0
 22 23  2  0
 22 24  1  0
 24 25  1  0
 25 26  1  0
 26 27  1  0
 27 28  2  0
 27 29  1  0
 29 30  1  0
 29 31  1  0
 31 32  1  0
 31 33  1  0
 33 34  1  0
  8 35  2  0
 35  2  1  0
 35  4  1  0
 21 11  1  0
 33 26  1  0
 18 13  1  0
  1 36  1  0
  1 37  1  0
  1 38  1  0
  2 39  1  1
  3 40  1  0
  3 41  1  0
  5 42  1  0
  6 43  1  0
  7 44  1  0
 14 45  1  0
 15 46  1  0
 16 47  1  0
 17 48  1  0
 18 49  1  0
 19 50  1  0
 24 51  1  0
 25 52  1  0
 25 53  1  0
 26 54  1  1
 29 55  1  6
 30 56  1  0
 30 57  1  0
 30 58  1  0
 31 59  1  1
 32 60  1  0
 32 61  1  0
 32 62  1  0
 33 63  1  1
M  CHG  1  31   1
M  END
>  <_SMILES>  (160) 
C[C@@H]1Cc2cccc(C(=O)n3c(-c4ccccc4)cnc3C(=O)NC[C@@H]3C(=O)[C@@H](C)[N@H+](C)[C@@H]3F)c21

$$$$

     RDKit          3D

 63 67  0  0  0  0  0  0  0  0999 V2000
    0.3260    1.9125   -2.7939 C   0  0  0  0  0  0  0  0  0  0  0  0
   -1.1728    1.9621   -2.5471 C   0  0  2  0  0  0  0  0  0  0  0  0
   -1.8647    3.3583   -2.7509 C   0  0  0  0  0  0  0  0  0  0  0  0
   -2.1296    3.3340   -1.2733 C   0  0  0  0  0  0  0  0  0  0  0  0
   -2.6718    4.0490   -0.2301 C   0  0  0  0  0  0  0  0  0  0  0  0
   -2.6072    3.4813    1.0460 C   0  0  0  0  0  0  0  0  0  0  0  0
   -2.0156    2.2192    1.2408 C   0  0  0  0  0  0  0  0  0  0  0  0
   -1.5046    1.5075    0.1483 C   0  0  0  0  0  0  0  0  0  0  0  0
   -0.8579    0.1997    0.3358 C   0  0  0  0  0  0  0  0  0  0  0  0
   -0.0385    0.0811    1.2499 O   0  0  0  0  0  0  0  0  0  0  0  0
   -1.1074   -0.9416   -0.4523 N   0  0  0  0  0  0  0  0  0  0  0  0
   -2.2929   -1.3419   -1.0673 C   0  0  0  0  0  0  0  0  0  0  0  0
   -3.5758   -0.6493   -1.0283 C   0  0  0  0  0  0  0  0  0  0  0  0
   -4.2380   -0.4360    0.1876 C   0  0  0  0  0  0  0  0  0  0  0  0
   -5.4654    0.2291    0.2146 C   0  0  0  0  0  0  0  0  0  0  0  0
   -6.0457    0.6715   -0.9724 C   0  0  0  0  0  0  0  0  0  0  0  0
   -5.4070    0.4392   -2.1887 C   0  0  0  0  0  0  0  0  0  0  0  0
   -4.1805   -0.2267   -2.2180 C   0  0  0  0  0  0  0  0  0  0  0  0
   -2.0205   -2.5971   -1.5805 C   0  0  0  0  0  0  0  0  0  0  0  0
   -0.7376   -2.9820   -1.3167 N   0  0  0  0  0  0  0  0  0  0  0  0
   -0.1913   -1.9553   -0.6919 C   0  0  0  0  0  0  0  0  0  0  0  0
    1.2120   -1.9315   -0.3510 C   0  0  0  0  0  0  0  0  0  0  0  0
    1.9128   -0.9241   -0.2271 O   0  0  0  0  0  0  0  0  0  0  0  0
    1.7626   -3.1766   -0.1041 N   0  0  0  0  0  0  0  0  0  0  0  0
    3.1909   -3.3387    0.0591 C   0  0  0  0  0  0  0  0  0  0  0  0
    3.7377   -3.0108    1.4523 C   0  0  1  0  0  0  0  0  0  0  0  0
    5.0071   -2.2205    1.2793 C   0  0  0  0  0  0  0  0  0  0  0  0
    6.0517   -2.7005    0.8621 O   0  0  0  0  0  0  0  0  0  0  0  0
    4.8021   -0.7501    1.6243 C   0  0  1  0  0  0  0  0  0  0  0  0
    5.1529    0.1674    0.4710 C   0  0  0  0  0  0  0  0  0  0  0  0
    3.3337   -0.6571    1.9341 N   0  0  2  0  0  0  0  0  0  0  0  0
    2.9370    0.3811    2.9200 C   0  0  0  0  0  0  0  0  0  0  0  0
    2.9655   -2.0435    2.3386 C   0  0  2  0  0  0  0  0  0  0  0  0
    3.4012   -2.1977    3.6159 F   0  0  0  0  0  0  0  0  0  0  0  0
   -1.5555    2.0992   -1.0950 C   0  0  0  0  0  0  0  0  0  0  0  0
    0.7421    0.9532   -2.4687 H   0  0  0  0  0  0  0  0  0  0  0  0
    0.8580    2.7108   -2.2647 H   0  0  0  0  0  0  0  0  0  0  0  0
    0.5384    2.0206   -3.8626 H   0  0  0  0  0  0  0  0  0  0  0  0
   -1.6796    1.1578   -3.0934 H   0  0  0  0  0  0  0  0  0  0  0  0
   -1.2043    4.1542   -3.1125 H   0  0  0  0  0  0  0  0  0  0  0  0
   -2.7489    3.3266   -3.3976 H   0  0  0  0  0  0  0  0  0  0  0  0
   -3.1258    5.0217   -0.3898 H   0  0  0  0  0  0  0  0  0  0  0  0
   -3.0183    4.0227    1.8960 H   0  0  0  0  0  0  0  0  0  0  0  0
   -1.9711    1.8007    2.2435 H   0  0  0  0  0  0  0  0  0  0  0  0
   -3.8163   -0.7915    1.1245 H   0  0  0  0  0  0  0  0  0  0  0  0
   -5.9753    0.3963    1.1603 H   0  0  0  0  0  0  0  0  0  0  0  0
   -7.0031    1.1871   -0.9512 H   0  0  0  0  0  0  0  0  0  0  0  0
   -5.8685    0.7726   -3.1154 H   0  0  0  0  0  0  0  0  0  0  0  0
   -3.7029   -0.4052   -3.1789 H   0  0  0  0  0  0  0  0  0  0  0  0
   -2.7092   -3.2549   -2.0998 H   0  0  0  0  0  0  0  0  0  0  0  0
    1.2018   -3.9569   -0.4564 H   0  0  0  0  0  0  0  0  0  0  0  0
    3.6850   -2.7515   -0.7255 H   0  0  0  0  0  0  0  0  0  0  0  0
    3.4104   -4.3894   -0.1653 H   0  0  0  0  0  0  0  0  0  0  0  0
    3.9588   -3.9274    2.0097 H   0  0  0  0  0  0  0  0  0  0  0  0
    5.3608   -0.5202    2.5380 H   0  0  0  0  0  0  0  0  0  0  0  0
    4.6199   -0.1109   -0.4447 H   0  0  0  0  0  0  0  0  0  0  0  0
    6.2240    0.1091    0.2494 H   0  0  0  0  0  0  0  0  0  0  0  0
    4.9141    1.2099    0.7037 H   0  0  0  0  0  0  0  0  0  0  0  0
    2.7944   -0.4700    1.0616 H   0  0  0  0  0  0  0  0  0  0  0  0
    1.8664    0.2825    3.1133 H   0  0  0  0  0  0  0  0  0  0  0  0
    3.1498    1.3599    2.4835 H   0  0  0  0  0  0  0  0  0  0  0  0
    3.5079    0.2394    3.8416 H   0  0  0  0  0  0  0  0  0  0  0  0
    1.8784   -2.1585    2.3335 H   0  0  0  0  0  0  0  0  0  0  0  0
  1  2  1  0
  2  3  1  0
  3  4  1  0
  4  5  2  0
  5  6  1  0
  6  7  2  0
  7  8  1  0
  8  9  1  0
  9 10  2  0
  9 11  1  0
 11 12  1  0
 12 13  1  0
 13 14  2  0
 14 15  1  0
 15 16  2  0
 16 17  1  0
 17 18  2  0
 12 19  2  0
 19 20  1  0
 20 21  2  0
 21 22  1  0
 22 23  2  0
 22 24  1  0
 24 25  1  0
 25 26  1  0
 26 27  1  0
 27 28  2  0
 27 29  1  0
 29 30  1  0
 29 31  1  0
 31 32  1  0
 31 33  1  0
 33 34  1  0
  8 35  2  0
 35  2  1  0
 35  4  1  0
 21 11  1  0
 33 26  1  0
 18 13  1  0
  1 36  1  0
  1 37  1  0
  1 38  1  0
  2 39  1  6
  3 40  1  0
  3 41  1  0
  5 42  1  0
  6 43  1  0
  7 44  1  0
 14 45  1  0
 15 46  1  0
 16 47  1  0
 17 48  1  0
 18 49  1  0
 19 50  1  0
 24 51  1  0
 25 52  1  0
 25 53  1  0
 26 54  1  1
 29 55  1  1
 30 56  1  0
 30 57  1  0
 30 58  1  0
 31 59  1  6
 32 60  1  0
 32 61  1  0
 32 62  1  0
 33 63  1  1
M  CHG  1  31   1
M  END
>  <_SMILES>  (161) 
C[C@@H]1Cc2cccc(C(=O)n3c(-c4ccccc4)cnc3C(=O)NC[C@H]3C(=O)[C@@H](C)[N@H+](C)[C@@H]3F)c21

$$$$

     RDKit          3D

 63 67  0  0  0  0  0  0  0  0999 V2000
   -1.1921   -2.0775    2.7656 C   0  0  0  0  0  0  0  0  0  0  0  0
   -2.3617   -1.9761    1.8006 C   0  0  2  0  0  0  0  0  0  0  0  0
   -3.1789   -3.2964    1.5589 C   0  0  0  0  0  0  0  0  0  0  0  0
   -2.6630   -3.2429    0.1500 C   0  0  0  0  0  0  0  0  0  0  0  0
   -2.6675   -3.8979   -1.0602 C   0  0  0  0  0  0  0  0  0  0  0  0
   -1.9229   -3.3369   -2.1022 C   0  0  0  0  0  0  0  0  0  0  0  0
   -1.2077   -2.1401   -1.9096 C   0  0  0  0  0  0  0  0  0  0  0  0
   -1.2548   -1.4855   -0.6724 C   0  0  0  0  0  0  0  0  0  0  0  0
   -0.4929   -0.2477   -0.4441 C   0  0  0  0  0  0  0  0  0  0  0  0
    0.6784   -0.2058   -0.8291 O   0  0  0  0  0  0  0  0  0  0  0  0
   -1.0064    0.9073    0.1799 N   0  0  0  0  0  0  0  0  0  0  0  0
   -2.3017    1.4222    0.1375 C   0  0  0  0  0  0  0  0  0  0  0  0
   -3.4395    0.8671   -0.5866 C   0  0  0  0  0  0  0  0  0  0  0  0
   -3.4071    0.7386   -1.9811 C   0  0  0  0  0  0  0  0  0  0  0  0
   -4.5009    0.2047   -2.6654 C   0  0  0  0  0  0  0  0  0  0  0  0
   -5.6381   -0.1900   -1.9636 C   0  0  0  0  0  0  0  0  0  0  0  0
   -5.6891   -0.0405   -0.5793 C   0  0  0  0  0  0  0  0  0  0  0  0
   -4.5973    0.4944    0.1065 C   0  0  0  0  0  0  0  0  0  0  0  0
   -2.2233    2.6359    0.7957 C   0  0  0  0  0  0  0  0  0  0  0  0
   -0.9574    2.8875    1.2396 N   0  0  0  0  0  0  0  0  0  0  0  0
   -0.2565    1.8180    0.9103 C   0  0  0  0  0  0  0  0  0  0  0  0
    1.1190    1.6507    1.3223 C   0  0  0  0  0  0  0  0  0  0  0  0
    1.6936    0.5733    1.4746 O   0  0  0  0  0  0  0  0  0  0  0  0
    1.8116    2.8287    1.4839 N   0  0  0  0  0  0  0  0  0  0  0  0
    3.1469    2.9122    2.0470 C   0  0  0  0  0  0  0  0  0  0  0  0
    4.3089    2.4362    1.1711 C   0  0  2  0  0  0  0  0  0  0  0  0
    4.0420    2.6034   -0.2968 C   0  0  0  0  0  0  0  0  0  0  0  0
    4.0377    3.6856   -0.8663 O   0  0  0  0  0  0  0  0  0  0  0  0
    3.7846    1.2601   -0.9758 C   0  0  1  0  0  0  0  0  0  0  0  0
    4.8191    1.0185   -2.0621 C   0  0  0  0  0  0  0  0  0  0  0  0
    3.8892    0.2670    0.1528 N   0  0  1  0  0  0  0  0  0  0  0  0
    4.2777   -1.1334   -0.1271 C   0  0  0  0  0  0  0  0  0  0  0  0
    4.6563    0.9525    1.2199 C   0  0  2  0  0  0  0  0  0  0  0  0
    4.3557    0.3953    2.4046 F   0  0  0  0  0  0  0  0  0  0  0  0
   -1.9735   -2.0716    0.3466 C   0  0  0  0  0  0  0  0  0  0  0  0
   -0.5887   -1.1640    2.7427 H   0  0  0  0  0  0  0  0  0  0  0  0
   -0.5366   -2.9238    2.5323 H   0  0  0  0  0  0  0  0  0  0  0  0
   -1.5555   -2.2087    3.7901 H   0  0  0  0  0  0  0  0  0  0  0  0
   -3.0034   -1.1260    2.0613 H   0  0  0  0  0  0  0  0  0  0  0  0
   -2.8602   -4.1551    2.1601 H   0  0  0  0  0  0  0  0  0  0  0  0
   -4.2618   -3.1777    1.6784 H   0  0  0  0  0  0  0  0  0  0  0  0
   -3.2220   -4.8203   -1.1993 H   0  0  0  0  0  0  0  0  0  0  0  0
   -1.8968   -3.8323   -3.0709 H   0  0  0  0  0  0  0  0  0  0  0  0
   -0.6307   -1.7257   -2.7328 H   0  0  0  0  0  0  0  0  0  0  0  0
   -2.5401    1.0606   -2.5526 H   0  0  0  0  0  0  0  0  0  0  0  0
   -4.4715    0.1035   -3.7477 H   0  0  0  0  0  0  0  0  0  0  0  0
   -6.4910   -0.6031   -2.4973 H   0  0  0  0  0  0  0  0  0  0  0  0
   -6.5830   -0.3358   -0.0349 H   0  0  0  0  0  0  0  0  0  0  0  0
   -4.6608    0.6106    1.1862 H   0  0  0  0  0  0  0  0  0  0  0  0
   -3.0218    3.3562    0.9373 H   0  0  0  0  0  0  0  0  0  0  0  0
    1.2178    3.6614    1.5057 H   0  0  0  0  0  0  0  0  0  0  0  0
    3.2959    3.9780    2.2585 H   0  0  0  0  0  0  0  0  0  0  0  0
    3.1465    2.3947    3.0126 H   0  0  0  0  0  0  0  0  0  0  0  0
    5.2109    2.9956    1.4455 H   0  0  0  0  0  0  0  0  0  0  0  0
    2.7622    1.2217   -1.3586 H   0  0  0  0  0  0  0  0  0  0  0  0
    5.8390    1.0251   -1.6617 H   0  0  0  0  0  0  0  0  0  0  0  0
    4.7668    1.8065   -2.8216 H   0  0  0  0  0  0  0  0  0  0  0  0
    4.6513    0.0642   -2.5708 H   0  0  0  0  0  0  0  0  0  0  0  0
    2.9369    0.1802    0.5683 H   0  0  0  0  0  0  0  0  0  0  0  0
    5.3188   -1.1606   -0.4582 H   0  0  0  0  0  0  0  0  0  0  0  0
    3.6086   -1.5250   -0.8975 H   0  0  0  0  0  0  0  0  0  0  0  0
    4.1590   -1.7096    0.7947 H   0  0  0  0  0  0  0  0  0  0  0  0
    5.7218    0.7922    1.0132 H   0  0  0  0  0  0  0  0  0  0  0  0
  1  2  1  0
  2  3  1  0
  3  4  1  0
  4  5  2  0
  5  6  1  0
  6  7  2  0
  7  8  1  0
  8  9  1  0
  9 10  2  0
  9 11  1  0
 11 12  1  0
 12 13  1  0
 13 14  2  0
 14 15  1  0
 15 16  2  0
 16 17  1  0
 17 18  2  0
 12 19  2  0
 19 20  1  0
 20 21  2  0
 21 22  1  0
 22 23  2  0
 22 24  1  0
 24 25  1  0
 25 26  1  0
 26 27  1  0
 27 28  2  0
 27 29  1  0
 29 30  1  0
 29 31  1  0
 31 32  1  0
 31 33  1  0
 33 34  1  0
  8 35  2  0
 35  2  1  0
 35  4  1  0
 21 11  1  0
 33 26  1  0
 18 13  1  0
  1 36  1  0
  1 37  1  0
  1 38  1  0
  2 39  1  6
  3 40  1  0
  3 41  1  0
  5 42  1  0
  6 43  1  0
  7 44  1  0
 14 45  1  0
 15 46  1  0
 16 47  1  0
 17 48  1  0
 18 49  1  0
 19 50  1  0
 24 51  1  0
 25 52  1  0
 25 53  1  0
 26 54  1  1
 29 55  1  6
 30 56  1  0
 30 57  1  0
 30 58  1  0
 31 59  1  1
 32 60  1  0
 32 61  1  0
 32 62  1  0
 33 63  1  6
M  CHG  1  31   1
M  END
>  <_SMILES>  (162) 
C[C@@H]1Cc2cccc(C(=O)n3c(-c4ccccc4)cnc3C(=O)NC[C@@H]3C(=O)[C@@H](C)[N@@H+](C)[C@@H]3F)c21

$$$$

     RDKit          3D

 63 67  0  0  0  0  0  0  0  0999 V2000
   -2.3164   -2.5062   -0.6785 C   0  0  0  0  0  0  0  0  0  0  0  0
   -3.2910   -1.3445   -0.5766 C   0  0  2  0  0  0  0  0  0  0  0  0
   -4.4818   -1.3471   -1.6018 C   0  0  0  0  0  0  0  0  0  0  0  0
   -3.8545   -0.1147   -2.1859 C   0  0  0  0  0  0  0  0  0  0  0  0
   -3.9722    0.8242   -3.1849 C   0  0  0  0  0  0  0  0  0  0  0  0
   -2.9919    1.8184   -3.2566 C   0  0  0  0  0  0  0  0  0  0  0  0
   -1.9352    1.8519   -2.3275 C   0  0  0  0  0  0  0  0  0  0  0  0
   -1.8677    0.8980   -1.3039 C   0  0  0  0  0  0  0  0  0  0  0  0
   -0.7565    0.9076   -0.3384 C   0  0  0  0  0  0  0  0  0  0  0  0
    0.3853    1.1006   -0.7598 O   0  0  0  0  0  0  0  0  0  0  0  0
   -0.9000    0.7287    1.0510 N   0  0  0  0  0  0  0  0  0  0  0  0
   -1.9338    1.1516    1.8861 C   0  0  0  0  0  0  0  0  0  0  0  0
   -3.1292    1.8898    1.4933 C   0  0  0  0  0  0  0  0  0  0  0  0
   -3.0280    3.1500    0.8899 C   0  0  0  0  0  0  0  0  0  0  0  0
   -4.1784    3.8480    0.5170 C   0  0  0  0  0  0  0  0  0  0  0  0
   -5.4364    3.2994    0.7579 C   0  0  0  0  0  0  0  0  0  0  0  0
   -5.5470    2.0587    1.3820 C   0  0  0  0  0  0  0  0  0  0  0  0
   -4.3980    1.3598    1.7564 C   0  0  0  0  0  0  0  0  0  0  0  0
   -1.4977    0.8582    3.1655 C   0  0  0  0  0  0  0  0  0  0  0  0
   -0.2621    0.2780    3.1570 N   0  0  0  0  0  0  0  0  0  0  0  0
    0.0519    0.1546    1.8797 C   0  0  0  0  0  0  0  0  0  0  0  0
    1.2451   -0.5386    1.4486 C   0  0  0  0  0  0  0  0  0  0  0  0
    1.3863   -1.1338    0.3812 O   0  0  0  0  0  0  0  0  0  0  0  0
    2.2917   -0.4689    2.3469 N   0  0  0  0  0  0  0  0  0  0  0  0
    3.5515   -1.1358    2.1121 C   0  0  0  0  0  0  0  0  0  0  0  0
    4.5603   -0.2612    1.3793 C   0  0  1  0  0  0  0  0  0  0  0  0
    5.7572   -1.1019    1.0407 C   0  0  0  0  0  0  0  0  0  0  0  0
    6.4924   -1.6028    1.8799 O   0  0  0  0  0  0  0  0  0  0  0  0
    5.9159   -1.2771   -0.4606 C   0  0  1  0  0  0  0  0  0  0  0  0
    6.1988   -2.7084   -0.8690 C   0  0  0  0  0  0  0  0  0  0  0  0
    4.6395   -0.7190   -1.0431 N   0  0  1  0  0  0  0  0  0  0  0  0
    3.5745   -1.6535   -1.5156 C   0  0  0  0  0  0  0  0  0  0  0  0
    4.1757    0.2495   -0.0033 C   0  0  2  0  0  0  0  0  0  0  0  0
    4.9244    1.3563   -0.2609 F   0  0  0  0  0  0  0  0  0  0  0  0
   -2.8302   -0.0877   -1.2711 C   0  0  0  0  0  0  0  0  0  0  0  0
   -1.4404   -2.3357   -0.0442 H   0  0  0  0  0  0  0  0  0  0  0  0
   -1.9675   -2.6635   -1.7051 H   0  0  0  0  0  0  0  0  0  0  0  0
   -2.7936   -3.4325   -0.3420 H   0  0  0  0  0  0  0  0  0  0  0  0
   -3.6281   -1.2146    0.4585 H   0  0  0  0  0  0  0  0  0  0  0  0
   -5.4666   -1.2117   -1.1402 H   0  0  0  0  0  0  0  0  0  0  0  0
   -4.5282   -2.2248   -2.2559 H   0  0  0  0  0  0  0  0  0  0  0  0
   -4.7904    0.7900   -3.8969 H   0  0  0  0  0  0  0  0  0  0  0  0
   -3.0464    2.5721   -4.0396 H   0  0  0  0  0  0  0  0  0  0  0  0
   -1.1792    2.6298   -2.4070 H   0  0  0  0  0  0  0  0  0  0  0  0
   -2.0584    3.6083    0.7111 H   0  0  0  0  0  0  0  0  0  0  0  0
   -4.0955    4.8239    0.0448 H   0  0  0  0  0  0  0  0  0  0  0  0
   -6.3322    3.8445    0.4694 H   0  0  0  0  0  0  0  0  0  0  0  0
   -6.5298    1.6380    1.5814 H   0  0  0  0  0  0  0  0  0  0  0  0
   -4.5065    0.3960    2.2489 H   0  0  0  0  0  0  0  0  0  0  0  0
   -2.0098    1.0753    4.0966 H   0  0  0  0  0  0  0  0  0  0  0  0
    2.0488   -0.1198    3.2764 H   0  0  0  0  0  0  0  0  0  0  0  0
    3.9477   -1.4096    3.0972 H   0  0  0  0  0  0  0  0  0  0  0  0
    3.3696   -2.0767    1.5808 H   0  0  0  0  0  0  0  0  0  0  0  0
    4.8744    0.5805    2.0064 H   0  0  0  0  0  0  0  0  0  0  0  0
    6.7188   -0.6095   -0.7946 H   0  0  0  0  0  0  0  0  0  0  0  0
    6.2369   -2.8130   -1.9578 H   0  0  0  0  0  0  0  0  0  0  0  0
    7.1691   -3.0286   -0.4730 H   0  0  0  0  0  0  0  0  0  0  0  0
    5.4533   -3.4051   -0.4713 H   0  0  0  0  0  0  0  0  0  0  0  0
    4.8835   -0.1175   -1.8395 H   0  0  0  0  0  0  0  0  0  0  0  0
    2.7149   -1.0597   -1.8363 H   0  0  0  0  0  0  0  0  0  0  0  0
    3.9653   -2.1984   -2.3788 H   0  0  0  0  0  0  0  0  0  0  0  0
    3.3144   -2.3444   -0.7129 H   0  0  0  0  0  0  0  0  0  0  0  0
    3.1337    0.5249   -0.1630 H   0  0  0  0  0  0  0  0  0  0  0  0
  1  2  1  0
  2  3  1  0
  3  4  1  0
  4  5  2  0
  5  6  1  0
  6  7  2  0
  7  8  1  0
  8  9  1  0
  9 10  2  0
  9 11  1  0
 11 12  1  0
 12 13  1  0
 13 14  2  0
 14 15  1  0
 15 16  2  0
 16 17  1  0
 17 18  2  0
 12 19  2  0
 19 20  1  0
 20 21  2  0
 21 22  1  0
 22 23  2  0
 22 24  1  0
 24 25  1  0
 25 26  1  0
 26 27  1  0
 27 28  2  0
 27 29  1  0
 29 30  1  0
 29 31  1  0
 31 32  1  0
 31 33  1  0
 33 34  1  0
  8 35  2  0
 35  2  1  0
 35  4  1  0
 21 11  1  0
 33 26  1  0
 18 13  1  0
  1 36  1  0
  1 37  1  0
  1 38  1  0
  2 39  1  1
  3 40  1  0
  3 41  1  0
  5 42  1  0
  6 43  1  0
  7 44  1  0
 14 45  1  0
 15 46  1  0
 16 47  1  0
 17 48  1  0
 18 49  1  0
 19 50  1  0
 24 51  1  0
 25 52  1  0
 25 53  1  0
 26 54  1  1
 29 55  1  6
 30 56  1  0
 30 57  1  0
 30 58  1  0
 31 59  1  6
 32 60  1  0
 32 61  1  0
 32 62  1  0
 33 63  1  1
M  CHG  1  31   1
M  END
>  <_SMILES>  (163) 
C[C@@H]1Cc2cccc(C(=O)n3c(-c4ccccc4)cnc3C(=O)NC[C@H]3C(=O)[C@@H](C)[N@@H+](C)[C@@H]3F)c21

$$$$

     RDKit          3D

 64 68  0  0  0  0  0  0  0  0999 V2000
   -3.0320   -1.6477   -1.3327 C   0  0  0  0  0  0  0  0  0  0  0  0
   -2.5721   -2.5446   -0.2014 C   0  0  2  0  0  0  0  0  0  0  0  0
   -3.6222   -3.6318    0.2205 C   0  0  0  0  0  0  0  0  0  0  0  0
   -3.5885   -2.9952    1.5768 C   0  0  0  0  0  0  0  0  0  0  0  0
   -4.0781   -3.1218    2.8576 C   0  0  0  0  0  0  0  0  0  0  0  0
   -3.6215   -2.2158    3.8139 C   0  0  0  0  0  0  0  0  0  0  0  0
   -2.7004   -1.2145    3.4611 C   0  0  0  0  0  0  0  0  0  0  0  0
   -2.2559   -1.0888    2.1331 C   0  0  0  0  0  0  0  0  0  0  0  0
   -1.2498   -0.0665    1.8033 C   0  0  0  0  0  0  0  0  0  0  0  0
   -0.3010    0.1390    2.5472 O   0  0  0  0  0  0  0  0  0  0  0  0
   -1.2326    0.8098    0.6301 N   0  0  0  0  0  0  0  0  0  0  0  0
   -2.3017    1.4423    0.0068 C   0  0  0  0  0  0  0  0  0  0  0  0
   -3.8058    1.6172    0.4249 C   0  0  0  0  0  0  0  0  0  0  0  0
   -4.7631    1.9294   -0.5488 C   0  0  0  0  0  0  0  0  0  0  0  0
   -6.1029    2.0870   -0.1881 C   0  0  0  0  0  0  0  0  0  0  0  0
   -6.4880    1.9536    1.1431 C   0  0  0  0  0  0  0  0  0  0  0  0
   -5.5331    1.6764    2.1178 C   0  0  0  0  0  0  0  0  0  0  0  0
   -4.1919    1.5169    1.7618 C   0  0  0  0  0  0  0  0  0  0  0  0
   -1.7354    1.9968   -1.1250 C   0  0  0  0  0  0  0  0  0  0  0  0
   -0.3792    1.7924   -1.0628 N   0  0  0  0  0  0  0  0  0  0  0  0
   -0.0582    1.0495    0.0169 C   0  0  0  0  0  0  0  0  0  0  0  0
    1.2395    0.5615    0.3156 C   0  0  0  0  0  0  0  0  0  0  0  0
    1.4974   -0.6365    0.2474 O   0  0  0  0  0  0  0  0  0  0  0  0
    2.1932    1.5358    0.6000 N   0  0  0  0  0  0  0  0  0  0  0  0
    3.5694    1.1493    0.8569 C   0  0  0  0  0  0  0  0  0  0  0  0
    4.4841    1.2973   -0.3562 C   0  0  2  0  0  0  0  0  0  0  0  0
    3.9772    0.6862   -1.6407 C   0  0  0  0  0  0  0  0  0  0  0  0
    2.8631    0.8988   -2.1081 O   0  0  0  0  0  0  0  0  0  0  0  0
    5.0749   -0.1183   -2.3304 C   0  0  1  0  0  0  0  0  0  0  0  0
    5.2468    0.2703   -3.7850 C   0  0  0  0  0  0  0  0  0  0  0  0
    6.3236    0.2470   -1.5482 N   0  0  2  0  0  0  0  0  0  0  0  0
    7.3871   -0.8093   -1.5502 C   0  0  0  0  0  0  0  0  0  0  0  0
    5.8027    0.5485   -0.1759 C   0  0  2  0  0  0  0  0  0  0  0  0
    5.5842   -0.6408    0.4231 F   0  0  0  0  0  0  0  0  0  0  0  0
   -2.7097   -2.0029    1.2042 C   0  0  0  0  0  0  0  0  0  0  0  0
   -3.1872   -2.2368   -2.2432 H   0  0  0  0  0  0  0  0  0  0  0  0
   -2.2725   -0.8986   -1.5672 H   0  0  0  0  0  0  0  0  0  0  0  0
   -3.9741   -1.1399   -1.1035 H   0  0  0  0  0  0  0  0  0  0  0  0
   -1.5864   -2.9762   -0.4228 H   0  0  0  0  0  0  0  0  0  0  0  0
   -4.5819   -3.5857   -0.3068 H   0  0  0  0  0  0  0  0  0  0  0  0
   -3.2477   -4.6596    0.1569 H   0  0  0  0  0  0  0  0  0  0  0  0
   -4.7714   -3.9152    3.1208 H   0  0  0  0  0  0  0  0  0  0  0  0
   -3.9661   -2.3003    4.8437 H   0  0  0  0  0  0  0  0  0  0  0  0
   -2.3342   -0.5433    4.2369 H   0  0  0  0  0  0  0  0  0  0  0  0
   -4.5110    2.0248   -1.6014 H   0  0  0  0  0  0  0  0  0  0  0  0
   -6.8531    2.3113   -0.9446 H   0  0  0  0  0  0  0  0  0  0  0  0
   -7.5326    2.0781    1.4235 H   0  0  0  0  0  0  0  0  0  0  0  0
   -5.8367    1.6004    3.1606 H   0  0  0  0  0  0  0  0  0  0  0  0
   -3.4752    1.3777    2.5623 H   0  0  0  0  0  0  0  0  0  0  0  0
   -2.1199    2.5748   -1.9485 H   0  0  0  0  0  0  0  0  0  0  0  0
    0.3057    2.0582   -1.7696 H   0  0  0  0  0  0  0  0  0  0  0  0
    1.8989    2.4946    0.7654 H   0  0  0  0  0  0  0  0  0  0  0  0
    3.9337    1.7867    1.6704 H   0  0  0  0  0  0  0  0  0  0  0  0
    3.5748    0.1205    1.2329 H   0  0  0  0  0  0  0  0  0  0  0  0
    4.6772    2.3550   -0.5746 H   0  0  0  0  0  0  0  0  0  0  0  0
    4.8781   -1.1865   -2.1891 H   0  0  0  0  0  0  0  0  0  0  0  0
    4.3442    0.0259   -4.3554 H   0  0  0  0  0  0  0  0  0  0  0  0
    5.4185    1.3468   -3.8965 H   0  0  0  0  0  0  0  0  0  0  0  0
    6.0868   -0.2602   -4.2440 H   0  0  0  0  0  0  0  0  0  0  0  0
    6.7409    1.1053   -1.9316 H   0  0  0  0  0  0  0  0  0  0  0  0
    8.1997   -0.4679   -0.9038 H   0  0  0  0  0  0  0  0  0  0  0  0
    6.9649   -1.7492   -1.1851 H   0  0  0  0  0  0  0  0  0  0  0  0
    7.7474   -0.9208   -2.5755 H   0  0  0  0  0  0  0  0  0  0  0  0
    6.5591    1.1101    0.3810 H   0  0  0  0  0  0  0  0  0  0  0  0
  1  2  1  0
  2  3  1  0
  3  4  1  0
  4  5  2  0
  5  6  1  0
  6  7  2  0
  7  8  1  0
  8  9  1  0
  9 10  2  0
  9 11  1  0
 11 12  1  0
 12 13  1  0
 13 14  2  0
 14 15  1  0
 15 16  2  0
 16 17  1  0
 17 18  2  0
 12 19  2  0
 19 20  1  0
 20 21  2  0
 21 22  1  0
 22 23  2  0
 22 24  1  0
 24 25  1  0
 25 26  1  0
 26 27  1  0
 27 28  2  0
 27 29  1  0
 29 30  1  0
 29 31  1  0
 31 32  1  0
 31 33  1  0
 33 34  1  0
  8 35  2  0
 35  2  1  0
 35  4  1  0
 21 11  1  0
 33 26  1  0
 18 13  1  0
  1 36  1  0
  1 37  1  0
  1 38  1  0
  2 39  1  6
  3 40  1  0
  3 41  1  0
  5 42  1  0
  6 43  1  0
  7 44  1  0
 14 45  1  0
 15 46  1  0
 16 47  1  0
 17 48  1  0
 18 49  1  0
 19 50  1  0
 20 51  1  0
 24 52  1  0
 25 53  1  0
 25 54  1  0
 26 55  1  6
 29 56  1  6
 30 57  1  0
 30 58  1  0
 30 59  1  0
 31 60  1  6
 32 61  1  0
 32 62  1  0
 32 63  1  0
 33 64  1  1
M  CHG  2  20   1  31   1
M  END
>  <_SMILES>  (164) 
C[C@@H]1Cc2cccc(C(=O)n3c(-c4ccccc4)c[nH+]c3C(=O)NC[C@@H]3C(=O)[C@@H](C)[N@H+](C)[C@@H]3F)c21

$$$$

     RDKit          3D

 64 68  0  0  0  0  0  0  0  0999 V2000
   -3.9212   -0.7345   -0.9562 C   0  0  0  0  0  0  0  0  0  0  0  0
   -3.4176   -1.2021    0.3946 C   0  0  2  0  0  0  0  0  0  0  0  0
   -4.5187   -1.2232    1.5122 C   0  0  0  0  0  0  0  0  0  0  0  0
   -3.6521   -0.2447    2.2453 C   0  0  0  0  0  0  0  0  0  0  0  0
   -3.5520    0.4560    3.4264 C   0  0  0  0  0  0  0  0  0  0  0  0
   -2.4114    1.2340    3.6187 C   0  0  0  0  0  0  0  0  0  0  0  0
   -1.4144    1.2885    2.6297 C   0  0  0  0  0  0  0  0  0  0  0  0
   -1.5691    0.5898    1.4188 C   0  0  0  0  0  0  0  0  0  0  0  0
   -0.4813    0.6193    0.4257 C   0  0  0  0  0  0  0  0  0  0  0  0
    0.6887    0.5822    0.7825 O   0  0  0  0  0  0  0  0  0  0  0  0
   -0.6257    0.7033   -1.0270 N   0  0  0  0  0  0  0  0  0  0  0  0
   -1.4655    1.5550   -1.7394 C   0  0  0  0  0  0  0  0  0  0  0  0
   -2.3801    2.7500   -1.2865 C   0  0  0  0  0  0  0  0  0  0  0  0
   -2.1246    3.4388   -0.1003 C   0  0  0  0  0  0  0  0  0  0  0  0
   -2.9483    4.4988    0.2860 C   0  0  0  0  0  0  0  0  0  0  0  0
   -4.0175    4.8839   -0.5185 C   0  0  0  0  0  0  0  0  0  0  0  0
   -4.2571    4.2210   -1.7190 C   0  0  0  0  0  0  0  0  0  0  0  0
   -3.4357    3.1617   -2.1103 C   0  0  0  0  0  0  0  0  0  0  0  0
   -1.2870    1.1644   -3.0502 C   0  0  0  0  0  0  0  0  0  0  0  0
   -0.2899    0.2196   -3.0766 N   0  0  0  0  0  0  0  0  0  0  0  0
    0.1243   -0.0826   -1.8256 C   0  0  0  0  0  0  0  0  0  0  0  0
    1.0711   -1.0967   -1.4942 C   0  0  0  0  0  0  0  0  0  0  0  0
    0.9900   -1.8001   -0.4886 O   0  0  0  0  0  0  0  0  0  0  0  0
    2.1079   -1.2599   -2.4005 N   0  0  0  0  0  0  0  0  0  0  0  0
    3.1483   -2.2576   -2.2028 C   0  0  0  0  0  0  0  0  0  0  0  0
    4.1174   -2.0417   -1.0395 C   0  0  1  0  0  0  0  0  0  0  0  0
    4.0810   -0.7306   -0.3091 C   0  0  0  0  0  0  0  0  0  0  0  0
    3.8014    0.3401   -0.8305 O   0  0  0  0  0  0  0  0  0  0  0  0
    4.4966   -0.9181    1.1474 C   0  0  1  0  0  0  0  0  0  0  0  0
    3.4727   -0.3796    2.1252 C   0  0  0  0  0  0  0  0  0  0  0  0
    4.6045   -2.4260    1.3159 N   0  0  2  0  0  0  0  0  0  0  0  0
    6.0097   -2.9254    1.4769 C   0  0  0  0  0  0  0  0  0  0  0  0
    3.8917   -3.0005    0.1219 C   0  0  2  0  0  0  0  0  0  0  0  0
    4.4176   -4.2085   -0.1597 F   0  0  0  0  0  0  0  0  0  0  0  0
   -2.7020   -0.1803    1.2507 C   0  0  0  0  0  0  0  0  0  0  0  0
   -4.3650    0.2652   -0.9112 H   0  0  0  0  0  0  0  0  0  0  0  0
   -3.1138   -0.7313   -1.6914 H   0  0  0  0  0  0  0  0  0  0  0  0
   -4.6881   -1.4205   -1.3323 H   0  0  0  0  0  0  0  0  0  0  0  0
   -2.8921   -2.1625    0.3042 H   0  0  0  0  0  0  0  0  0  0  0  0
   -4.6529   -2.2023    1.9856 H   0  0  0  0  0  0  0  0  0  0  0  0
   -5.5046   -0.8550    1.2060 H   0  0  0  0  0  0  0  0  0  0  0  0
   -4.3224    0.3884    4.1892 H   0  0  0  0  0  0  0  0  0  0  0  0
   -2.2895    1.7891    4.5478 H   0  0  0  0  0  0  0  0  0  0  0  0
   -0.5223    1.8836    2.8199 H   0  0  0  0  0  0  0  0  0  0  0  0
   -1.2605    3.2275    0.5179 H   0  0  0  0  0  0  0  0  0  0  0  0
   -2.7494    5.0412    1.2087 H   0  0  0  0  0  0  0  0  0  0  0  0
   -4.6572    5.7115   -0.2163 H   0  0  0  0  0  0  0  0  0  0  0  0
   -5.0895    4.5325   -2.3481 H   0  0  0  0  0  0  0  0  0  0  0  0
   -3.6708    2.6632   -3.0468 H   0  0  0  0  0  0  0  0  0  0  0  0
   -1.6993    1.4889   -3.9912 H   0  0  0  0  0  0  0  0  0  0  0  0
    0.0487   -0.2503   -3.9137 H   0  0  0  0  0  0  0  0  0  0  0  0
    2.3208   -0.4927   -3.0353 H   0  0  0  0  0  0  0  0  0  0  0  0
    3.7183   -2.2695   -3.1395 H   0  0  0  0  0  0  0  0  0  0  0  0
    2.6615   -3.2371   -2.1248 H   0  0  0  0  0  0  0  0  0  0  0  0
    5.1389   -2.1875   -1.4139 H   0  0  0  0  0  0  0  0  0  0  0  0
    5.4878   -0.4807    1.3039 H   0  0  0  0  0  0  0  0  0  0  0  0
    3.3233    0.6949    1.9775 H   0  0  0  0  0  0  0  0  0  0  0  0
    3.8006   -0.5364    3.1582 H   0  0  0  0  0  0  0  0  0  0  0  0
    2.5019   -0.8707    2.0023 H   0  0  0  0  0  0  0  0  0  0  0  0
    4.0911   -2.7371    2.1513 H   0  0  0  0  0  0  0  0  0  0  0  0
    5.9717   -4.0063    1.6348 H   0  0  0  0  0  0  0  0  0  0  0  0
    6.4362   -2.4396    2.3584 H   0  0  0  0  0  0  0  0  0  0  0  0
    6.5815   -2.6759    0.5795 H   0  0  0  0  0  0  0  0  0  0  0  0
    2.8434   -3.1246    0.4067 H   0  0  0  0  0  0  0  0  0  0  0  0
  1  2  1  0
  2  3  1  0
  3  4  1  0
  4  5  2  0
  5  6  1  0
  6  7  2  0
  7  8  1  0
  8  9  1  0
  9 10  2  0
  9 11  1  0
 11 12  1  0
 12 13  1  0
 13 14  2  0
 14 15  1  0
 15 16  2  0
 16 17  1  0
 17 18  2  0
 12 19  2  0
 19 20  1  0
 20 21  2  0
 21 22  1  0
 22 23  2  0
 22 24  1  0
 24 25  1  0
 25 26  1  0
 26 27  1  0
 27 28  2  0
 27 29  1  0
 29 30  1  0
 29 31  1  0
 31 32  1  0
 31 33  1  0
 33 34  1  0
  8 35  2  0
 35  2  1  0
 35  4  1  0
 21 11  1  0
 33 26  1  0
 18 13  1  0
  1 36  1  0
  1 37  1  0
  1 38  1  0
  2 39  1  6
  3 40  1  0
  3 41  1  0
  5 42  1  0
  6 43  1  0
  7 44  1  0
 14 45  1  0
 15 46  1  0
 16 47  1  0
 17 48  1  0
 18 49  1  0
 19 50  1  0
 20 51  1  0
 24 52  1  0
 25 53  1  0
 25 54  1  0
 26 55  1  6
 29 56  1  6
 30 57  1  0
 30 58  1  0
 30 59  1  0
 31 60  1  1
 32 61  1  0
 32 62  1  0
 32 63  1  0
 33 64  1  1
M  CHG  2  20   1  31   1
M  END
>  <_SMILES>  (165) 
C[C@@H]1Cc2cccc(C(=O)n3c(-c4ccccc4)c[nH+]c3C(=O)NC[C@H]3C(=O)[C@@H](C)[N@H+](C)[C@@H]3F)c21

$$$$

     RDKit          3D

 64 68  0  0  0  0  0  0  0  0999 V2000
   -3.1667   -2.0378    1.6993 C   0  0  0  0  0  0  0  0  0  0  0  0
   -4.1327   -1.1070    0.9855 C   0  0  2  0  0  0  0  0  0  0  0  0
   -5.5501   -1.7057    0.6745 C   0  0  0  0  0  0  0  0  0  0  0  0
   -5.1763   -1.5796   -0.7728 C   0  0  0  0  0  0  0  0  0  0  0  0
   -5.6255   -1.8178   -2.0514 C   0  0  0  0  0  0  0  0  0  0  0  0
   -4.7699   -1.4948   -3.1058 C   0  0  0  0  0  0  0  0  0  0  0  0
   -3.5026   -0.9387   -2.8529 C   0  0  0  0  0  0  0  0  0  0  0  0
   -3.0860   -0.6875   -1.5355 C   0  0  0  0  0  0  0  0  0  0  0  0
   -1.7545   -0.1042   -1.2798 C   0  0  0  0  0  0  0  0  0  0  0  0
   -0.8512   -0.1765   -2.1005 O   0  0  0  0  0  0  0  0  0  0  0  0
   -1.3417    0.6222   -0.0768 N   0  0  0  0  0  0  0  0  0  0  0  0
   -2.0052    1.6602    0.5633 C   0  0  0  0  0  0  0  0  0  0  0  0
   -3.2982    2.4736    0.1847 C   0  0  0  0  0  0  0  0  0  0  0  0
   -3.9595    3.2152    1.1727 C   0  0  0  0  0  0  0  0  0  0  0  0
   -5.1121    3.9368    0.8546 C   0  0  0  0  0  0  0  0  0  0  0  0
   -5.5993    3.9352   -0.4493 C   0  0  0  0  0  0  0  0  0  0  0  0
   -4.9285    3.2230   -1.4399 C   0  0  0  0  0  0  0  0  0  0  0  0
   -3.7752    2.4992   -1.1272 C   0  0  0  0  0  0  0  0  0  0  0  0
   -1.2100    1.9180    1.6618 C   0  0  0  0  0  0  0  0  0  0  0  0
   -0.0798    1.1401    1.5618 N   0  0  0  0  0  0  0  0  0  0  0  0
   -0.1694    0.3038    0.5050 C   0  0  0  0  0  0  0  0  0  0  0  0
    0.7445   -0.7375    0.1783 C   0  0  0  0  0  0  0  0  0  0  0  0
    0.3491   -1.8534   -0.1415 O   0  0  0  0  0  0  0  0  0  0  0  0
    2.0978   -0.4106    0.2770 N   0  0  0  0  0  0  0  0  0  0  0  0
    3.0693   -1.3021   -0.3526 C   0  0  0  0  0  0  0  0  0  0  0  0
    4.4930   -1.0638    0.1242 C   0  0  2  0  0  0  0  0  0  0  0  0
    5.0100    0.2914   -0.2637 C   0  0  0  0  0  0  0  0  0  0  0  0
    4.3502    1.3156   -0.1409 O   0  0  0  0  0  0  0  0  0  0  0  0
    6.4429    0.2047   -0.7759 C   0  0  1  0  0  0  0  0  0  0  0  0
    7.3763    1.1982   -0.1176 C   0  0  0  0  0  0  0  0  0  0  0  0
    6.8272   -1.2493   -0.5356 N   0  0  1  0  0  0  0  0  0  0  0  0
    7.6490   -1.5862    0.6682 C   0  0  0  0  0  0  0  0  0  0  0  0
    5.5078   -1.9583   -0.5756 C   0  0  2  0  0  0  0  0  0  0  0  0
    5.2134   -2.0549   -1.8899 F   0  0  0  0  0  0  0  0  0  0  0  0
   -3.9412   -1.0342   -0.5105 C   0  0  0  0  0  0  0  0  0  0  0  0
   -3.4979   -2.2113    2.7285 H   0  0  0  0  0  0  0  0  0  0  0  0
   -2.1643   -1.6014    1.7454 H   0  0  0  0  0  0  0  0  0  0  0  0
   -3.0903   -3.0121    1.2041 H   0  0  0  0  0  0  0  0  0  0  0  0
   -4.1970   -0.1403    1.4997 H   0  0  0  0  0  0  0  0  0  0  0  0
   -6.3825   -1.0783    1.0127 H   0  0  0  0  0  0  0  0  0  0  0  0
   -5.7163   -2.7231    1.0456 H   0  0  0  0  0  0  0  0  0  0  0  0
   -6.6038   -2.2522   -2.2346 H   0  0  0  0  0  0  0  0  0  0  0  0
   -5.0859   -1.6812   -4.1314 H   0  0  0  0  0  0  0  0  0  0  0  0
   -2.8544   -0.7059   -3.6967 H   0  0  0  0  0  0  0  0  0  0  0  0
   -3.6270    3.2326    2.2068 H   0  0  0  0  0  0  0  0  0  0  0  0
   -5.6372    4.5011    1.6235 H   0  0  0  0  0  0  0  0  0  0  0  0
   -6.4973    4.4989   -0.6968 H   0  0  0  0  0  0  0  0  0  0  0  0
   -5.3011    3.2449   -2.4627 H   0  0  0  0  0  0  0  0  0  0  0  0
   -3.2554    2.0178   -1.9470 H   0  0  0  0  0  0  0  0  0  0  0  0
   -1.2670    2.6172    2.4791 H   0  0  0  0  0  0  0  0  0  0  0  0
    0.6850    1.1215    2.2317 H   0  0  0  0  0  0  0  0  0  0  0  0
    2.3258    0.5850    0.2520 H   0  0  0  0  0  0  0  0  0  0  0  0
    2.7809   -2.3400   -0.1504 H   0  0  0  0  0  0  0  0  0  0  0  0
    2.9777   -1.1389   -1.4334 H   0  0  0  0  0  0  0  0  0  0  0  0
    4.5795   -1.1533    1.2131 H   0  0  0  0  0  0  0  0  0  0  0  0
    6.4250    0.3361   -1.8639 H   0  0  0  0  0  0  0  0  0  0  0  0
    7.0851    2.2206   -0.3832 H   0  0  0  0  0  0  0  0  0  0  0  0
    8.4099    1.0528   -0.4469 H   0  0  0  0  0  0  0  0  0  0  0  0
    7.3398    1.1365    0.9751 H   0  0  0  0  0  0  0  0  0  0  0  0
    7.3402   -1.5822   -1.3650 H   0  0  0  0  0  0  0  0  0  0  0  0
    7.7784   -2.6716    0.6952 H   0  0  0  0  0  0  0  0  0  0  0  0
    8.6262   -1.1098    0.5618 H   0  0  0  0  0  0  0  0  0  0  0  0
    7.1297   -1.2372    1.5641 H   0  0  0  0  0  0  0  0  0  0  0  0
    5.5994   -2.9635   -0.1529 H   0  0  0  0  0  0  0  0  0  0  0  0
  1  2  1  0
  2  3  1  0
  3  4  1  0
  4  5  2  0
  5  6  1  0
  6  7  2  0
  7  8  1  0
  8  9  1  0
  9 10  2  0
  9 11  1  0
 11 12  1  0
 12 13  1  0
 13 14  2  0
 14 15  1  0
 15 16  2  0
 16 17  1  0
 17 18  2  0
 12 19  2  0
 19 20  1  0
 20 21  2  0
 21 22  1  0
 22 23  2  0
 22 24  1  0
 24 25  1  0
 25 26  1  0
 26 27  1  0
 27 28  2  0
 27 29  1  0
 29 30  1  0
 29 31  1  0
 31 32  1  0
 31 33  1  0
 33 34  1  0
  8 35  2  0
 35  2  1  0
 35  4  1  0
 21 11  1  0
 33 26  1  0
 18 13  1  0
  1 36  1  0
  1 37  1  0
  1 38  1  0
  2 39  1  1
  3 40  1  0
  3 41  1  0
  5 42  1  0
  6 43  1  0
  7 44  1  0
 14 45  1  0
 15 46  1  0
 16 47  1  0
 17 48  1  0
 18 49  1  0
 19 50  1  0
 20 51  1  0
 24 52  1  0
 25 53  1  0
 25 54  1  0
 26 55  1  1
 29 56  1  6
 30 57  1  0
 30 58  1  0
 30 59  1  0
 31 60  1  6
 32 61  1  0
 32 62  1  0
 32 63  1  0
 33 64  1  1
M  CHG  2  20   1  31   1
M  END
>  <_SMILES>  (166) 
C[C@@H]1Cc2cccc(C(=O)n3c(-c4ccccc4)c[nH+]c3C(=O)NC[C@@H]3C(=O)[C@@H](C)[N@@H+](C)[C@@H]3F)c21

$$$$

     RDKit          3D

 64 68  0  0  0  0  0  0  0  0999 V2000
   -1.8407   -0.6369   -3.2762 C   0  0  0  0  0  0  0  0  0  0  0  0
   -1.9180   -1.6870   -2.1863 C   0  0  2  0  0  0  0  0  0  0  0  0
   -3.0364   -2.7625   -2.4201 C   0  0  0  0  0  0  0  0  0  0  0  0
   -3.6173   -2.2966   -1.1199 C   0  0  0  0  0  0  0  0  0  0  0  0
   -4.6312   -2.5491   -0.2231 C   0  0  0  0  0  0  0  0  0  0  0  0
   -4.6602   -1.7902    0.9457 C   0  0  0  0  0  0  0  0  0  0  0  0
   -3.6833   -0.8071    1.1781 C   0  0  0  0  0  0  0  0  0  0  0  0
   -2.6851   -0.5494    0.2211 C   0  0  0  0  0  0  0  0  0  0  0  0
   -1.6439    0.4488    0.5208 C   0  0  0  0  0  0  0  0  0  0  0  0
   -1.1929    0.5679    1.6513 O   0  0  0  0  0  0  0  0  0  0  0  0
   -1.0366    1.3954   -0.4164 N   0  0  0  0  0  0  0  0  0  0  0  0
   -1.6838    2.2055   -1.3430 C   0  0  0  0  0  0  0  0  0  0  0  0
   -3.2061    2.4690   -1.6328 C   0  0  0  0  0  0  0  0  0  0  0  0
   -4.1752    2.2317   -0.6576 C   0  0  0  0  0  0  0  0  0  0  0  0
   -5.5232    2.4714   -0.9355 C   0  0  0  0  0  0  0  0  0  0  0  0
   -5.9051    2.9642   -2.1804 C   0  0  0  0  0  0  0  0  0  0  0  0
   -4.9393    3.2334   -3.1460 C   0  0  0  0  0  0  0  0  0  0  0  0
   -3.5905    2.9965   -2.8727 C   0  0  0  0  0  0  0  0  0  0  0  0
   -0.6462    2.8523   -1.9839 C   0  0  0  0  0  0  0  0  0  0  0  0
    0.5247    2.5131   -1.3462 N   0  0  0  0  0  0  0  0  0  0  0  0
    0.2956    1.5946   -0.3828 C   0  0  0  0  0  0  0  0  0  0  0  0
    1.2892    0.9457    0.4075 C   0  0  0  0  0  0  0  0  0  0  0  0
    1.2730   -0.2636    0.6245 O   0  0  0  0  0  0  0  0  0  0  0  0
    2.3041    1.7631    0.8968 N   0  0  0  0  0  0  0  0  0  0  0  0
    3.1469    1.2986    1.9956 C   0  0  0  0  0  0  0  0  0  0  0  0
    4.3509    0.4582    1.5772 C   0  0  1  0  0  0  0  0  0  0  0  0
    5.2929    0.2527    2.7316 C   0  0  0  0  0  0  0  0  0  0  0  0
    5.5648    1.1209    3.5465 O   0  0  0  0  0  0  0  0  0  0  0  0
    5.8726   -1.1553    2.7394 C   0  0  1  0  0  0  0  0  0  0  0  0
    5.4825   -1.8723    4.0205 C   0  0  0  0  0  0  0  0  0  0  0  0
    5.2672   -1.7817    1.5041 N   0  0  1  0  0  0  0  0  0  0  0  0
    5.0597   -3.2593    1.4743 C   0  0  0  0  0  0  0  0  0  0  0  0
    4.0361   -0.9849    1.2104 C   0  0  2  0  0  0  0  0  0  0  0  0
    3.8420   -1.0851   -0.1207 F   0  0  0  0  0  0  0  0  0  0  0  0
   -2.6689   -1.3168   -0.9261 C   0  0  0  0  0  0  0  0  0  0  0  0
   -1.0554    0.0904   -3.0600 H   0  0  0  0  0  0  0  0  0  0  0  0
   -1.5836   -1.1036   -4.2335 H   0  0  0  0  0  0  0  0  0  0  0  0
   -2.7892   -0.1073   -3.4111 H   0  0  0  0  0  0  0  0  0  0  0  0
   -0.9322   -2.1376   -2.0079 H   0  0  0  0  0  0  0  0  0  0  0  0
   -2.6640   -3.7928   -2.4440 H   0  0  0  0  0  0  0  0  0  0  0  0
   -3.6600   -2.6053   -3.3076 H   0  0  0  0  0  0  0  0  0  0  0  0
   -5.3670   -3.3266   -0.4069 H   0  0  0  0  0  0  0  0  0  0  0  0
   -5.4347   -1.9748    1.6890 H   0  0  0  0  0  0  0  0  0  0  0  0
   -3.7135   -0.2520    2.1151 H   0  0  0  0  0  0  0  0  0  0  0  0
   -3.9226    1.9240    0.3496 H   0  0  0  0  0  0  0  0  0  0  0  0
   -6.2808    2.2908   -0.1747 H   0  0  0  0  0  0  0  0  0  0  0  0
   -6.9562    3.1518   -2.3933 H   0  0  0  0  0  0  0  0  0  0  0  0
   -5.2433    3.6270   -4.1147 H   0  0  0  0  0  0  0  0  0  0  0  0
   -2.8745    3.2055   -3.6628 H   0  0  0  0  0  0  0  0  0  0  0  0
   -0.5948    3.5779   -2.7788 H   0  0  0  0  0  0  0  0  0  0  0  0
    1.4492    2.8502   -1.6051 H   0  0  0  0  0  0  0  0  0  0  0  0
    2.1423    2.7679    0.8688 H   0  0  0  0  0  0  0  0  0  0  0  0
    2.5203    0.7568    2.7151 H   0  0  0  0  0  0  0  0  0  0  0  0
    3.4886    2.2091    2.5021 H   0  0  0  0  0  0  0  0  0  0  0  0
    4.9006    0.9470    0.7643 H   0  0  0  0  0  0  0  0  0  0  0  0
    6.9549   -1.1227    2.5847 H   0  0  0  0  0  0  0  0  0  0  0  0
    5.8907   -2.8871    4.0538 H   0  0  0  0  0  0  0  0  0  0  0  0
    4.3948   -1.9295    4.1405 H   0  0  0  0  0  0  0  0  0  0  0  0
    5.8734   -1.3356    4.8922 H   0  0  0  0  0  0  0  0  0  0  0  0
    5.8930   -1.5823    0.7119 H   0  0  0  0  0  0  0  0  0  0  0  0
    4.3040   -3.5346    2.2140 H   0  0  0  0  0  0  0  0  0  0  0  0
    4.7240   -3.5302    0.4697 H   0  0  0  0  0  0  0  0  0  0  0  0
    6.0183   -3.7384    1.6884 H   0  0  0  0  0  0  0  0  0  0  0  0
    3.1994   -1.4230    1.7655 H   0  0  0  0  0  0  0  0  0  0  0  0
  1  2  1  0
  2  3  1  0
  3  4  1  0
  4  5  2  0
  5  6  1  0
  6  7  2  0
  7  8  1  0
  8  9  1  0
  9 10  2  0
  9 11  1  0
 11 12  1  0
 12 13  1  0
 13 14  2  0
 14 15  1  0
 15 16  2  0
 16 17  1  0
 17 18  2  0
 12 19  2  0
 19 20  1  0
 20 21  2  0
 21 22  1  0
 22 23  2  0
 22 24  1  0
 24 25  1  0
 25 26  1  0
 26 27  1  0
 27 28  2  0
 27 29  1  0
 29 30  1  0
 29 31  1  0
 31 32  1  0
 31 33  1  0
 33 34  1  0
  8 35  2  0
 35  2  1  0
 35  4  1  0
 21 11  1  0
 33 26  1  0
 18 13  1  0
  1 36  1  0
  1 37  1  0
  1 38  1  0
  2 39  1  1
  3 40  1  0
  3 41  1  0
  5 42  1  0
  6 43  1  0
  7 44  1  0
 14 45  1  0
 15 46  1  0
 16 47  1  0
 17 48  1  0
 18 49  1  0
 19 50  1  0
 20 51  1  0
 24 52  1  0
 25 53  1  0
 25 54  1  0
 26 55  1  6
 29 56  1  6
 30 57  1  0
 30 58  1  0
 30 59  1  0
 31 60  1  6
 32 61  1  0
 32 62  1  0
 32 63  1  0
 33 64  1  1
M  CHG  2  20   1  31   1
M  END
>  <_SMILES>  (167) 
C[C@@H]1Cc2cccc(C(=O)n3c(-c4ccccc4)c[nH+]c3C(=O)NC[C@H]3C(=O)[C@@H](C)[N@@H+](C)[C@@H]3F)c21

$$$$

     RDKit          3D

 63 68  0  0  0  0  0  0  0  0999 V2000
   -0.4046   -2.3826   -0.6788 C   0  0  0  0  0  0  0  0  0  0  0  0
   -1.0639   -1.3161    0.1193 C   0  0  0  0  0  0  0  0  0  0  0  0
   -0.4417   -0.3526    0.9787 C   0  0  0  0  0  0  0  0  0  0  0  0
    0.9992   -0.1526    1.2382 C   0  0  0  0  0  0  0  0  0  0  0  0
    1.4486    0.0897    2.3537 O   0  0  0  0  0  0  0  0  0  0  0  0
    1.7831   -0.2340    0.0985 N   0  0  0  0  0  0  0  0  0  0  0  0
    3.2220    0.0358    0.0565 C   0  0  2  0  0  0  0  0  0  0  0  0
    3.7157   -0.1979   -1.3976 C   0  0  0  0  0  0  0  0  0  0  0  0
    5.2232    0.0746   -1.5203 C   0  0  1  0  0  0  0  0  0  0  0  0
    5.5065    1.5305   -1.1181 C   0  0  0  0  0  0  0  0  0  0  0  0
    5.0509    1.7737    0.3295 C   0  0  2  0  0  0  0  0  0  0  0  0
    5.8083    0.8175    1.2667 C   0  0  0  0  0  0  0  0  0  0  0  0
    5.5302   -0.6428    0.8713 C   0  0  2  0  0  0  0  0  0  0  0  0
    5.9840   -0.8713   -0.5787 C   0  0  0  0  0  0  0  0  0  0  0  0
    4.0199   -0.9180    0.9819 C   0  0  0  0  0  0  0  0  0  0  0  0
    3.5402    1.5016    0.4400 C   0  0  0  0  0  0  0  0  0  0  0  0
   -1.3635    0.4221    1.5740 N   0  0  0  0  0  0  0  0  0  0  0  0
   -2.5445   -0.0063    1.0864 N   0  0  0  0  0  0  0  0  0  0  0  0
   -3.7724    0.6303    1.5550 C   0  0  0  0  0  0  0  0  0  0  0  0
   -4.2983    1.6486    0.5723 C   0  0  0  0  0  0  0  0  0  0  0  0
   -3.5690    2.8144    0.2925 C   0  0  0  0  0  0  0  0  0  0  0  0
   -4.0576    3.7570   -0.6130 C   0  0  0  0  0  0  0  0  0  0  0  0
   -5.2810    3.5475   -1.2460 C   0  0  0  0  0  0  0  0  0  0  0  0
   -6.0176    2.3965   -0.9733 C   0  0  0  0  0  0  0  0  0  0  0  0
   -5.5314    1.4528   -0.0670 C   0  0  0  0  0  0  0  0  0  0  0  0
   -2.4239   -1.0591    0.2105 C   0  0  0  0  0  0  0  0  0  0  0  0
   -3.5475   -1.7175   -0.4418 C   0  0  0  0  0  0  0  0  0  0  0  0
   -3.9814   -1.2864   -1.6998 C   0  0  0  0  0  0  0  0  0  0  0  0
   -5.0612   -1.9138   -2.3232 C   0  0  0  0  0  0  0  0  0  0  0  0
   -5.7067   -2.9783   -1.6952 C   0  0  0  0  0  0  0  0  0  0  0  0
   -5.2729   -3.4181   -0.4450 C   0  0  0  0  0  0  0  0  0  0  0  0
   -4.1942   -2.7906    0.1805 C   0  0  0  0  0  0  0  0  0  0  0  0
    0.4742   -2.7768   -0.1587 H   0  0  0  0  0  0  0  0  0  0  0  0
   -0.0879   -1.9890   -1.6497 H   0  0  0  0  0  0  0  0  0  0  0  0
   -1.0801   -3.2252   -0.8576 H   0  0  0  0  0  0  0  0  0  0  0  0
    1.2776   -0.1747   -0.7755 H   0  0  0  0  0  0  0  0  0  0  0  0
    3.4979   -1.2285   -1.7087 H   0  0  0  0  0  0  0  0  0  0  0  0
    3.1670    0.4529   -2.0918 H   0  0  0  0  0  0  0  0  0  0  0  0
    5.5469   -0.0932   -2.5535 H   0  0  0  0  0  0  0  0  0  0  0  0
    4.9830    2.2157   -1.7961 H   0  0  0  0  0  0  0  0  0  0  0  0
    6.5781    1.7441   -1.2146 H   0  0  0  0  0  0  0  0  0  0  0  0
    5.2601    2.8114    0.6126 H   0  0  0  0  0  0  0  0  0  0  0  0
    6.8853    1.0197    1.2156 H   0  0  0  0  0  0  0  0  0  0  0  0
    5.5012    0.9897    2.3056 H   0  0  0  0  0  0  0  0  0  0  0  0
    6.0775   -1.3171    1.5395 H   0  0  0  0  0  0  0  0  0  0  0  0
    7.0637   -0.6985   -0.6655 H   0  0  0  0  0  0  0  0  0  0  0  0
    5.8040   -1.9139   -0.8682 H   0  0  0  0  0  0  0  0  0  0  0  0
    3.7166   -0.7995    2.0282 H   0  0  0  0  0  0  0  0  0  0  0  0
    3.8094   -1.9627    0.7181 H   0  0  0  0  0  0  0  0  0  0  0  0
    2.9880    2.1908   -0.2125 H   0  0  0  0  0  0  0  0  0  0  0  0
    3.2107    1.7183    1.4631 H   0  0  0  0  0  0  0  0  0  0  0  0
   -4.5023   -0.1627    1.7513 H   0  0  0  0  0  0  0  0  0  0  0  0
   -3.5603    1.1130    2.5168 H   0  0  0  0  0  0  0  0  0  0  0  0
   -2.6105    2.9908    0.7800 H   0  0  0  0  0  0  0  0  0  0  0  0
   -3.4824    4.6552   -0.8225 H   0  0  0  0  0  0  0  0  0  0  0  0
   -5.6610    4.2826   -1.9505 H   0  0  0  0  0  0  0  0  0  0  0  0
   -6.9723    2.2331   -1.4665 H   0  0  0  0  0  0  0  0  0  0  0  0
   -6.1194    0.5581    0.1289 H   0  0  0  0  0  0  0  0  0  0  0  0
   -3.4882   -0.4523   -2.1945 H   0  0  0  0  0  0  0  0  0  0  0  0
   -5.3979   -1.5707   -3.2980 H   0  0  0  0  0  0  0  0  0  0  0  0
   -6.5462   -3.4681   -2.1823 H   0  0  0  0  0  0  0  0  0  0  0  0
   -5.7723   -4.2521    0.0416 H   0  0  0  0  0  0  0  0  0  0  0  0
   -3.8588   -3.1450    1.1527 H   0  0  0  0  0  0  0  0  0  0  0  0
  1  2  1  0
  2  3  1  0
  3  4  1  0
  4  5  2  0
  4  6  1  0
  7  6  1  6
  7  8  1  0
  8  9  1  0
  9 10  1  0
 10 11  1  0
 11 12  1  0
 12 13  1  0
 13 14  1  0
 13 15  1  0
 11 16  1  0
  3 17  2  0
 17 18  1  0
 18 19  1  0
 19 20  1  0
 20 21  2  0
 21 22  1  0
 22 23  2  0
 23 24  1  0
 24 25  2  0
 18 26  1  0
 26 27  1  0
 27 28  2  0
 28 29  1  0
 29 30  2  0
 30 31  1  0
 31 32  2  0
 26  2  2  0
 32 27  1  0
 15  7  1  0
 25 20  1  0
 16  7  1  0
 14  9  1  0
  1 33  1  0
  1 34  1  0
  1 35  1  0
  6 36  1  0
  8 37  1  0
  8 38  1  0
  9 39  1  6
 10 40  1  0
 10 41  1  0
 11 42  1  1
 12 43  1  0
 12 44  1  0
 13 45  1  1
 14 46  1  0
 14 47  1  0
 15 48  1  0
 15 49  1  0
 16 50  1  0
 16 51  1  0
 19 52  1  0
 19 53  1  0
 21 54  1  0
 22 55  1  0
 23 56  1  0
 24 57  1  0
 25 58  1  0
 28 59  1  0
 29 60  1  0
 30 61  1  0
 31 62  1  0
 32 63  1  0
M  END
>  <_SMILES>  (168) 
Cc1c(C(=O)N[C@]23C[C@H]4C[C@H](C[C@H](C4)C2)C3)nn(Cc2ccccc2)c1-c1ccccc1

$$$$

     RDKit          3D

 60 65  0  0  0  0  0  0  0  0999 V2000
    1.3854   -2.8690   -1.6614 C   0  0  0  0  0  0  0  0  0  0  0  0
    1.5954   -1.6150   -0.8883 C   0  0  0  0  0  0  0  0  0  0  0  0
    0.5840   -0.7298   -0.4358 C   0  0  0  0  0  0  0  0  0  0  0  0
   -0.8790   -0.8631   -0.5948 C   0  0  0  0  0  0  0  0  0  0  0  0
   -1.4058   -1.8204   -1.1507 O   0  0  0  0  0  0  0  0  0  0  0  0
   -1.5692    0.1972   -0.0484 N   0  0  0  0  0  0  0  0  0  0  0  0
   -3.0183    0.3643   -0.0234 C   0  0  2  0  0  0  0  0  0  0  0  0
   -3.3473    1.7032    0.6892 C   0  0  0  0  0  0  0  0  0  0  0  0
   -4.8652    1.9374    0.7483 C   0  0  1  0  0  0  0  0  0  0  0  0
   -5.4248    1.9789   -0.6823 C   0  0  0  0  0  0  0  0  0  0  0  0
   -5.1323    0.6513   -1.3989 C   0  0  2  0  0  0  0  0  0  0  0  0
   -5.7866   -0.5015   -0.6185 C   0  0  0  0  0  0  0  0  0  0  0  0
   -5.2318   -0.5522    0.8153 C   0  0  2  0  0  0  0  0  0  0  0  0
   -5.5236    0.7824    1.5192 C   0  0  0  0  0  0  0  0  0  0  0  0
   -3.7103   -0.7771    0.7618 C   0  0  0  0  0  0  0  0  0  0  0  0
   -3.6108    0.4267   -1.4530 C   0  0  0  0  0  0  0  0  0  0  0  0
    1.1129    0.3386    0.1820 N   0  0  0  0  0  0  0  0  0  0  0  0
    2.4592    0.1235    0.2116 N   0  0  0  0  0  0  0  0  0  0  0  0
    3.2750    1.0612    0.9279 C   0  0  0  0  0  0  0  0  0  0  0  0
    2.7074    2.2866    1.3262 C   0  0  0  0  0  0  0  0  0  0  0  0
    3.4607    3.2331    2.0261 C   0  0  0  0  0  0  0  0  0  0  0  0
    4.7873    2.9665    2.3475 C   0  0  0  0  0  0  0  0  0  0  0  0
    5.3568    1.7517    1.9760 C   0  0  0  0  0  0  0  0  0  0  0  0
    4.6059    0.8009    1.2744 C   0  0  0  0  0  0  0  0  0  0  0  0
    2.7961   -1.0361   -0.4912 C   0  0  0  0  0  0  0  0  0  0  0  0
    4.1439   -1.4988   -0.8144 C   0  0  0  0  0  0  0  0  0  0  0  0
    4.6560   -2.6558   -0.2129 C   0  0  0  0  0  0  0  0  0  0  0  0
    5.9375   -3.1071   -0.5335 C   0  0  0  0  0  0  0  0  0  0  0  0
    6.7102   -2.4111   -1.4623 C   0  0  0  0  0  0  0  0  0  0  0  0
    6.2020   -1.2666   -2.0756 C   0  0  0  0  0  0  0  0  0  0  0  0
    4.9206   -0.8133   -1.7572 C   0  0  0  0  0  0  0  0  0  0  0  0
    0.7970   -2.6692   -2.5629 H   0  0  0  0  0  0  0  0  0  0  0  0
    2.3283   -3.3210   -1.9817 H   0  0  0  0  0  0  0  0  0  0  0  0
    0.8512   -3.6051   -1.0521 H   0  0  0  0  0  0  0  0  0  0  0  0
   -0.9696    0.8962    0.3848 H   0  0  0  0  0  0  0  0  0  0  0  0
   -2.8642    2.5385    0.1647 H   0  0  0  0  0  0  0  0  0  0  0  0
   -2.9335    1.7009    1.7066 H   0  0  0  0  0  0  0  0  0  0  0  0
   -5.0739    2.8863    1.2547 H   0  0  0  0  0  0  0  0  0  0  0  0
   -6.5063    2.1608   -0.6566 H   0  0  0  0  0  0  0  0  0  0  0  0
   -4.9751    2.8115   -1.2370 H   0  0  0  0  0  0  0  0  0  0  0  0
   -5.5365    0.6846   -2.4169 H   0  0  0  0  0  0  0  0  0  0  0  0
   -5.5966   -1.4543   -1.1278 H   0  0  0  0  0  0  0  0  0  0  0  0
   -6.8748   -0.3655   -0.5935 H   0  0  0  0  0  0  0  0  0  0  0  0
   -5.7065   -1.3717    1.3664 H   0  0  0  0  0  0  0  0  0  0  0  0
   -6.6068    0.9437    1.5828 H   0  0  0  0  0  0  0  0  0  0  0  0
   -5.1450    0.7542    2.5483 H   0  0  0  0  0  0  0  0  0  0  0  0
   -3.5085   -1.7496    0.2970 H   0  0  0  0  0  0  0  0  0  0  0  0
   -3.3052   -0.8341    1.7807 H   0  0  0  0  0  0  0  0  0  0  0  0
   -3.4058   -0.4998   -2.0023 H   0  0  0  0  0  0  0  0  0  0  0  0
   -3.1341    1.2341   -2.0243 H   0  0  0  0  0  0  0  0  0  0  0  0
    1.6740    2.5300    1.0868 H   0  0  0  0  0  0  0  0  0  0  0  0
    3.0079    4.1770    2.3188 H   0  0  0  0  0  0  0  0  0  0  0  0
    5.3746    3.7002    2.8934 H   0  0  0  0  0  0  0  0  0  0  0  0
    6.3894    1.5348    2.2399 H   0  0  0  0  0  0  0  0  0  0  0  0
    5.0962   -0.1387    1.0528 H   0  0  0  0  0  0  0  0  0  0  0  0
    4.0603   -3.2092    0.5096 H   0  0  0  0  0  0  0  0  0  0  0  0
    6.3311   -4.0038   -0.0616 H   0  0  0  0  0  0  0  0  0  0  0  0
    7.7071   -2.7646   -1.7136 H   0  0  0  0  0  0  0  0  0  0  0  0
    6.8015   -0.7288   -2.8058 H   0  0  0  0  0  0  0  0  0  0  0  0
    4.5325    0.0758   -2.2494 H   0  0  0  0  0  0  0  0  0  0  0  0
  1  2  1  0
  2  3  1  0
  3  4  1  0
  4  5  2  0
  4  6  1  0
  7  6  1  6
  7  8  1  0
  8  9  1  0
  9 10  1  0
 10 11  1  0
 11 12  1  0
 12 13  1  0
 13 14  1  0
 13 15  1  0
 11 16  1  0
  3 17  2  0
 17 18  1  0
 18 19  1  0
 19 20  2  0
 20 21  1  0
 21 22  2  0
 22 23  1  0
 23 24  2  0
 18 25  1  0
 25 26  1  0
 26 27  2  0
 27 28  1  0
 28 29  2  0
 29 30  1  0
 30 31  2  0
 25  2  2  0
 31 26  1  0
 15  7  1  0
 24 19  1  0
 16  7  1  0
 14  9  1  0
  1 32  1  0
  1 33  1  0
  1 34  1  0
  6 35  1  0
  8 36  1  0
  8 37  1  0
  9 38  1  1
 10 39  1  0
 10 40  1  0
 11 41  1  6
 12 42  1  0
 12 43  1  0
 13 44  1  1
 14 45  1  0
 14 46  1  0
 15 47  1  0
 15 48  1  0
 16 49  1  0
 16 50  1  0
 20 51  1  0
 21 52  1  0
 22 53  1  0
 23 54  1  0
 24 55  1  0
 27 56  1  0
 28 57  1  0
 29 58  1  0
 30 59  1  0
 31 60  1  0
M  END
>  <_SMILES>  (169) 
Cc1c(C(=O)N[C@]23C[C@H]4C[C@H](C[C@H](C4)C2)C3)nn(-c2ccccc2)c1-c1ccccc1

$$$$

     RDKit          3D

 62 66  0  0  0  0  0  0  0  0999 V2000
   -0.6388   -1.1875   -1.9199 C   0  0  0  0  0  0  0  0  0  0  0  0
   -1.2329   -0.4849   -0.7525 C   0  0  0  0  0  0  0  0  0  0  0  0
   -0.5927    0.4534    0.1218 C   0  0  0  0  0  0  0  0  0  0  0  0
    0.8113    0.9132    0.1023 C   0  0  0  0  0  0  0  0  0  0  0  0
    1.1328    2.0827    0.2862 O   0  0  0  0  0  0  0  0  0  0  0  0
    1.7243   -0.1065   -0.1148 N   0  0  0  0  0  0  0  0  0  0  0  0
    3.1792    0.0556   -0.0709 C   0  0  2  0  0  0  0  0  0  0  0  0
    3.6828    1.0754   -1.1240 C   0  0  0  0  0  0  0  0  0  0  0  0
    5.2180    1.1796   -1.0869 C   0  0  1  0  0  0  0  0  0  0  0  0
    5.6608    1.6225    0.3182 C   0  0  0  0  0  0  0  0  0  0  0  0
    5.1988    0.5967    1.3673 C   0  0  2  0  0  0  0  0  0  0  0  0
    5.8089   -0.7749    1.0374 C   0  0  0  0  0  0  0  0  0  0  0  0
    5.3626   -1.2252   -0.3626 C   0  0  2  0  0  0  0  0  0  0  0  0
    5.8288   -0.1944   -1.4019 C   0  0  0  0  0  0  0  0  0  0  0  0
    3.8289   -1.3170   -0.3974 C   0  0  0  0  0  0  0  0  0  0  0  0
    3.6637    0.4924    1.3333 C   0  0  0  0  0  0  0  0  0  0  0  0
   -1.4535    0.9042    1.0488 N   0  0  0  0  0  0  0  0  0  0  0  0
   -2.6163    0.2930    0.7681 N   0  0  0  0  0  0  0  0  0  0  0  0
   -3.7770    0.5969    1.5903 C   0  0  0  0  0  0  0  0  0  0  0  0
   -4.7234    1.6379    0.9696 C   0  0  0  0  0  0  0  0  0  0  0  0
   -4.0780    3.0227    0.8834 C   0  0  0  0  0  0  0  0  0  0  0  0
   -6.0125    1.7170    1.7897 C   0  0  0  0  0  0  0  0  0  0  0  0
   -2.5350   -0.5873   -0.2835 C   0  0  0  0  0  0  0  0  0  0  0  0
   -3.6470   -1.3946   -0.7694 C   0  0  0  0  0  0  0  0  0  0  0  0
   -4.3791   -0.9847   -1.8890 C   0  0  0  0  0  0  0  0  0  0  0  0
   -5.4449   -1.7571   -2.3536 C   0  0  0  0  0  0  0  0  0  0  0  0
   -5.7802   -2.9448   -1.7049 C   0  0  0  0  0  0  0  0  0  0  0  0
   -5.0494   -3.3634   -0.5936 C   0  0  0  0  0  0  0  0  0  0  0  0
   -3.9834   -2.5917   -0.1277 C   0  0  0  0  0  0  0  0  0  0  0  0
   -0.1289   -2.0995   -1.5942 H   0  0  0  0  0  0  0  0  0  0  0  0
    0.0851   -0.5488   -2.4360 H   0  0  0  0  0  0  0  0  0  0  0  0
   -1.4020   -1.4685   -2.6521 H   0  0  0  0  0  0  0  0  0  0  0  0
    1.3607   -1.0418    0.0108 H   0  0  0  0  0  0  0  0  0  0  0  0
    3.2585    2.0699   -0.9463 H   0  0  0  0  0  0  0  0  0  0  0  0
    3.3522    0.7758   -2.1272 H   0  0  0  0  0  0  0  0  0  0  0  0
    5.5557    1.9121   -1.8286 H   0  0  0  0  0  0  0  0  0  0  0  0
    6.7525    1.7244    0.3509 H   0  0  0  0  0  0  0  0  0  0  0  0
    5.2420    2.6096    0.5495 H   0  0  0  0  0  0  0  0  0  0  0  0
    5.5244    0.9152    2.3639 H   0  0  0  0  0  0  0  0  0  0  0  0
    5.4975   -1.5136    1.7861 H   0  0  0  0  0  0  0  0  0  0  0  0
    6.9035   -0.7186    1.0817 H   0  0  0  0  0  0  0  0  0  0  0  0
    5.7974   -2.2043   -0.5921 H   0  0  0  0  0  0  0  0  0  0  0  0
    5.5319   -0.5152   -2.4080 H   0  0  0  0  0  0  0  0  0  0  0  0
    6.9237   -0.1278   -1.3991 H   0  0  0  0  0  0  0  0  0  0  0  0
    3.4898   -2.0755    0.3211 H   0  0  0  0  0  0  0  0  0  0  0  0
    3.4998   -1.6643   -1.3860 H   0  0  0  0  0  0  0  0  0  0  0  0
    3.3214   -0.2250    2.0907 H   0  0  0  0  0  0  0  0  0  0  0  0
    3.2322    1.4612    1.6118 H   0  0  0  0  0  0  0  0  0  0  0  0
   -4.3017   -0.3487    1.7670 H   0  0  0  0  0  0  0  0  0  0  0  0
   -3.4099    0.9368    2.5671 H   0  0  0  0  0  0  0  0  0  0  0  0
   -4.9921    1.3290   -0.0474 H   0  0  0  0  0  0  0  0  0  0  0  0
   -3.2103    3.0151    0.2165 H   0  0  0  0  0  0  0  0  0  0  0  0
   -4.7873    3.7568    0.4861 H   0  0  0  0  0  0  0  0  0  0  0  0
   -3.7491    3.3703    1.8685 H   0  0  0  0  0  0  0  0  0  0  0  0
   -6.5123    0.7430    1.8227 H   0  0  0  0  0  0  0  0  0  0  0  0
   -5.8101    2.0303    2.8196 H   0  0  0  0  0  0  0  0  0  0  0  0
   -6.7119    2.4348    1.3480 H   0  0  0  0  0  0  0  0  0  0  0  0
   -4.1241   -0.0602   -2.4025 H   0  0  0  0  0  0  0  0  0  0  0  0
   -6.0122   -1.4324   -3.2222 H   0  0  0  0  0  0  0  0  0  0  0  0
   -6.6097   -3.5466   -2.0681 H   0  0  0  0  0  0  0  0  0  0  0  0
   -5.3078   -4.2922   -0.0916 H   0  0  0  0  0  0  0  0  0  0  0  0
   -3.4160   -2.9304    0.7360 H   0  0  0  0  0  0  0  0  0  0  0  0
  1  2  1  0
  2  3  1  0
  3  4  1  0
  4  5  2  0
  4  6  1  0
  7  6  1  1
  7  8  1  0
  8  9  1  0
  9 10  1  0
 10 11  1  0
 11 12  1  0
 12 13  1  0
 13 14  1  0
 13 15  1  0
 11 16  1  0
  3 17  2  0
 17 18  1  0
 18 19  1  0
 19 20  1  0
 20 21  1  0
 20 22  1  0
 18 23  1  0
 23 24  1  0
 24 25  2  0
 25 26  1  0
 26 27  2  0
 27 28  1  0
 28 29  2  0
 23  2  2  0
 29 24  1  0
 15  7  1  0
 16  7  1  0
 14  9  1  0
  1 30  1  0
  1 31  1  0
  1 32  1  0
  6 33  1  0
  8 34  1  0
  8 35  1  0
  9 36  1  6
 10 37  1  0
 10 38  1  0
 11 39  1  1
 12 40  1  0
 12 41  1  0
 13 42  1  6
 14 43  1  0
 14 44  1  0
 15 45  1  0
 15 46  1  0
 16 47  1  0
 16 48  1  0
 19 49  1  0
 19 50  1  0
 20 51  1  0
 21 52  1  0
 21 53  1  0
 21 54  1  0
 22 55  1  0
 22 56  1  0
 22 57  1  0
 25 58  1  0
 26 59  1  0
 27 60  1  0
 28 61  1  0
 29 62  1  0
M  END
>  <_SMILES>  (170) 
Cc1c(C(=O)N[C@]23C[C@H]4C[C@H](C[C@H](C4)C2)C3)nn(CC(C)C)c1-c1ccccc1

$$$$

     RDKit          3D

 49 53  0  0  0  0  0  0  0  0999 V2000
   -0.5808    2.2055   -0.4458 O   0  0  0  0  0  0  0  0  0  0  0  0
   -0.1444    1.0924   -0.1804 C   0  0  0  0  0  0  0  0  0  0  0  0
   -0.9162   -0.0211    0.0758 N   0  0  0  0  0  0  0  0  0  0  0  0
   -2.3762   -0.0722    0.0801 C   0  0  2  0  0  0  0  0  0  0  0  0
   -2.9762    0.8706    1.1524 C   0  0  0  0  0  0  0  0  0  0  0  0
   -4.5113    0.7631    1.1693 C   0  0  1  0  0  0  0  0  0  0  0  0
   -5.0606    1.1417   -0.2167 C   0  0  0  0  0  0  0  0  0  0  0  0
   -4.4990    0.1900   -1.2868 C   0  0  2  0  0  0  0  0  0  0  0  0
   -4.9036   -1.2526   -0.9447 C   0  0  0  0  0  0  0  0  0  0  0  0
   -4.3504   -1.6395    0.4358 C   0  0  2  0  0  0  0  0  0  0  0  0
   -4.9159   -0.6828    1.4972 C   0  0  0  0  0  0  0  0  0  0  0  0
   -2.8181   -1.5214    0.4159 C   0  0  0  0  0  0  0  0  0  0  0  0
   -2.9639    0.2973   -1.3044 C   0  0  0  0  0  0  0  0  0  0  0  0
    1.3320    0.8355   -0.1079 C   0  0  0  0  0  0  0  0  0  0  0  0
    2.2283    1.8680   -0.3437 C   0  0  0  0  0  0  0  0  0  0  0  0
    3.5921    1.5869   -0.2669 C   0  0  0  0  0  0  0  0  0  0  0  0
    4.0337    0.2926    0.0406 C   0  0  0  0  0  0  0  0  0  0  0  0
    5.4634   -0.0368    0.1281 C   0  0  0  0  0  0  0  0  0  0  0  0
    6.3313    0.7165    0.9368 C   0  0  0  0  0  0  0  0  0  0  0  0
    7.6905    0.4031    1.0232 C   0  0  0  0  0  0  0  0  0  0  0  0
    8.2062   -0.6690    0.3000 C   0  0  0  0  0  0  0  0  0  0  0  0
    7.3645   -1.4275   -0.5091 C   0  0  0  0  0  0  0  0  0  0  0  0
    6.0051   -1.1140   -0.5938 C   0  0  0  0  0  0  0  0  0  0  0  0
    3.0422   -0.6677    0.2609 C   0  0  0  0  0  0  0  0  0  0  0  0
    1.7075   -0.4389    0.1954 N   0  0  0  0  0  0  0  0  0  0  0  0
   -0.3846   -0.8646    0.2824 H   0  0  0  0  0  0  0  0  0  0  0  0
   -2.6927    1.9122    0.9600 H   0  0  0  0  0  0  0  0  0  0  0  0
   -2.5734    0.6208    2.1427 H   0  0  0  0  0  0  0  0  0  0  0  0
   -4.9201    1.4414    1.9266 H   0  0  0  0  0  0  0  0  0  0  0  0
   -6.1564    1.0923   -0.2107 H   0  0  0  0  0  0  0  0  0  0  0  0
   -4.7901    2.1773   -0.4570 H   0  0  0  0  0  0  0  0  0  0  0  0
   -4.8989    0.4622   -2.2699 H   0  0  0  0  0  0  0  0  0  0  0  0
   -4.5208   -1.9405   -1.7086 H   0  0  0  0  0  0  0  0  0  0  0  0
   -5.9965   -1.3468   -0.9504 H   0  0  0  0  0  0  0  0  0  0  0  0
   -4.6393   -2.6691    0.6746 H   0  0  0  0  0  0  0  0  0  0  0  0
   -4.5419   -0.9608    2.4902 H   0  0  0  0  0  0  0  0  0  0  0  0
   -6.0090   -0.7672    1.5336 H   0  0  0  0  0  0  0  0  0  0  0  0
   -2.4025   -2.2228   -0.3200 H   0  0  0  0  0  0  0  0  0  0  0  0
   -2.4111   -1.8239    1.3902 H   0  0  0  0  0  0  0  0  0  0  0  0
   -2.5520   -0.3641   -2.0780 H   0  0  0  0  0  0  0  0  0  0  0  0
   -2.6800    1.3171   -1.5902 H   0  0  0  0  0  0  0  0  0  0  0  0
    1.8763    2.8660   -0.5848 H   0  0  0  0  0  0  0  0  0  0  0  0
    4.3082    2.3827   -0.4614 H   0  0  0  0  0  0  0  0  0  0  0  0
    5.9507    1.5528    1.5204 H   0  0  0  0  0  0  0  0  0  0  0  0
    8.3448    0.9961    1.6573 H   0  0  0  0  0  0  0  0  0  0  0  0
    9.2635   -0.9125    0.3661 H   0  0  0  0  0  0  0  0  0  0  0  0
    7.7655   -2.2622   -1.0786 H   0  0  0  0  0  0  0  0  0  0  0  0
    5.3724   -1.7145   -1.2449 H   0  0  0  0  0  0  0  0  0  0  0  0
    3.3077   -1.6914    0.5175 H   0  0  0  0  0  0  0  0  0  0  0  0
  1  2  2  0
  2  3  1  0
  4  3  1  6
  4  5  1  0
  5  6  1  0
  6  7  1  0
  7  8  1  0
  8  9  1  0
  9 10  1  0
 10 11  1  0
 10 12  1  0
  8 13  1  0
  2 14  1  0
 14 15  2  0
 15 16  1  0
 16 17  2  0
 17 18  1  0
 18 19  2  0
 19 20  1  0
 20 21  2  0
 21 22  1  0
 22 23  2  0
 17 24  1  0
 24 25  2  0
 12  4  1  0
 25 14  1  0
 13  4  1  0
 23 18  1  0
 11  6  1  0
  3 26  1  0
  5 27  1  0
  5 28  1  0
  6 29  1  1
  7 30  1  0
  7 31  1  0
  8 32  1  6
  9 33  1  0
  9 34  1  0
 10 35  1  1
 11 36  1  0
 11 37  1  0
 12 38  1  0
 12 39  1  0
 13 40  1  0
 13 41  1  0
 15 42  1  0
 16 43  1  0
 19 44  1  0
 20 45  1  0
 21 46  1  0
 22 47  1  0
 23 48  1  0
 24 49  1  0
M  END
>  <_SMILES>  (171) 
O=C(N[C@]12C[C@H]3C[C@H](C[C@H](C3)C1)C2)c1ccc(-c2ccccc2)cn1

$$$$

     RDKit          3D

 63 67  0  0  0  0  0  0  0  0999 V2000
    0.4836    2.2310    0.7749 C   0  0  0  0  0  0  0  0  0  0  0  0
    1.1431    0.9016    0.8499 C   0  0  0  0  0  0  0  0  0  0  0  0
    0.5260   -0.3666    1.0992 C   0  0  0  0  0  0  0  0  0  0  0  0
   -0.9094   -0.6623    1.2772 C   0  0  0  0  0  0  0  0  0  0  0  0
   -1.3349   -1.4236    2.1401 O   0  0  0  0  0  0  0  0  0  0  0  0
   -1.7202   -0.0174    0.3563 N   0  0  0  0  0  0  0  0  0  0  0  0
   -3.1636   -0.2260    0.2281 C   0  0  2  0  0  0  0  0  0  0  0  0
   -3.6886    0.7056   -0.8984 C   0  0  0  0  0  0  0  0  0  0  0  0
   -5.2031    0.5351   -1.0960 C   0  0  1  0  0  0  0  0  0  0  0  0
   -5.5015   -0.9258   -1.4680 C   0  0  0  0  0  0  0  0  0  0  0  0
   -5.0149   -1.8623   -0.3506 C   0  0  2  0  0  0  0  0  0  0  0  0
   -5.7326   -1.5016    0.9613 C   0  0  0  0  0  0  0  0  0  0  0  0
   -5.4391   -0.0402    1.3416 C   0  0  2  0  0  0  0  0  0  0  0  0
   -5.9242    0.8846    0.2147 C   0  0  0  0  0  0  0  0  0  0  0  0
   -3.9220    0.1385    1.5299 C   0  0  0  0  0  0  0  0  0  0  0  0
   -3.4975   -1.6861   -0.1638 C   0  0  0  0  0  0  0  0  0  0  0  0
    1.4463   -1.3417    1.1602 N   0  0  0  0  0  0  0  0  0  0  0  0
    2.6132   -0.7329    0.8745 N   0  0  0  0  0  0  0  0  0  0  0  0
    3.8182   -1.5436    0.8583 C   0  0  0  0  0  0  0  0  0  0  0  0
    3.8837   -2.5690   -0.2783 C   0  0  0  0  0  0  0  0  0  0  0  0
    4.2498   -2.0169   -1.6598 C   0  0  2  0  0  0  0  0  0  0  0  0
    5.6404   -1.3979   -1.7182 C   0  0  0  0  0  0  0  0  0  0  0  0
    3.2908   -1.0576   -2.0818 O   0  0  0  0  0  0  0  0  0  0  0  0
    2.4989    0.6292    0.7317 C   0  0  0  0  0  0  0  0  0  0  0  0
    3.6141    1.5383    0.4974 C   0  0  0  0  0  0  0  0  0  0  0  0
    4.4516    1.9175    1.5526 C   0  0  0  0  0  0  0  0  0  0  0  0
    5.5139    2.7946    1.3267 C   0  0  0  0  0  0  0  0  0  0  0  0
    5.7405    3.3012    0.0474 C   0  0  0  0  0  0  0  0  0  0  0  0
    4.9039    2.9350   -1.0063 C   0  0  0  0  0  0  0  0  0  0  0  0
    3.8412    2.0584   -0.7811 C   0  0  0  0  0  0  0  0  0  0  0  0
    1.1708    3.0355    1.0557 H   0  0  0  0  0  0  0  0  0  0  0  0
   -0.3729    2.2850    1.4544 H   0  0  0  0  0  0  0  0  0  0  0  0
    0.1321    2.4227   -0.2438 H   0  0  0  0  0  0  0  0  0  0  0  0
   -1.2334    0.3562   -0.4483 H   0  0  0  0  0  0  0  0  0  0  0  0
   -3.4608    1.7529   -0.6584 H   0  0  0  0  0  0  0  0  0  0  0  0
   -3.1683    0.4883   -1.8411 H   0  0  0  0  0  0  0  0  0  0  0  0
   -5.5491    1.1985   -1.8965 H   0  0  0  0  0  0  0  0  0  0  0  0
   -5.0066   -1.1810   -2.4130 H   0  0  0  0  0  0  0  0  0  0  0  0
   -6.5787   -1.0596   -1.6265 H   0  0  0  0  0  0  0  0  0  0  0  0
   -5.2350   -2.9017   -0.6184 H   0  0  0  0  0  0  0  0  0  0  0  0
   -5.4032   -2.1715    1.7651 H   0  0  0  0  0  0  0  0  0  0  0  0
   -6.8139   -1.6481    0.8481 H   0  0  0  0  0  0  0  0  0  0  0  0
   -5.9582    0.2104    2.2734 H   0  0  0  0  0  0  0  0  0  0  0  0
   -7.0086    0.7813    0.0853 H   0  0  0  0  0  0  0  0  0  0  0  0
   -5.7335    1.9316    0.4805 H   0  0  0  0  0  0  0  0  0  0  0  0
   -3.5954   -0.4887    2.3669 H   0  0  0  0  0  0  0  0  0  0  0  0
   -3.7001    1.1744    1.8181 H   0  0  0  0  0  0  0  0  0  0  0  0
   -3.1468   -2.3866    0.6035 H   0  0  0  0  0  0  0  0  0  0  0  0
   -2.9734   -1.9577   -1.0896 H   0  0  0  0  0  0  0  0  0  0  0  0
    3.8243   -2.0765    1.8181 H   0  0  0  0  0  0  0  0  0  0  0  0
    4.6960   -0.8942    0.8641 H   0  0  0  0  0  0  0  0  0  0  0  0
    4.6258   -3.3309   -0.0078 H   0  0  0  0  0  0  0  0  0  0  0  0
    2.9178   -3.0842   -0.3543 H   0  0  0  0  0  0  0  0  0  0  0  0
    4.2102   -2.8490   -2.3729 H   0  0  0  0  0  0  0  0  0  0  0  0
    6.4035   -2.0985   -1.3663 H   0  0  0  0  0  0  0  0  0  0  0  0
    5.7017   -0.4797   -1.1270 H   0  0  0  0  0  0  0  0  0  0  0  0
    5.8827   -1.1133   -2.7481 H   0  0  0  0  0  0  0  0  0  0  0  0
    3.4920   -0.8301   -3.0056 H   0  0  0  0  0  0  0  0  0  0  0  0
    4.2756    1.5364    2.5560 H   0  0  0  0  0  0  0  0  0  0  0  0
    6.1607    3.0864    2.1501 H   0  0  0  0  0  0  0  0  0  0  0  0
    6.5664    3.9861   -0.1270 H   0  0  0  0  0  0  0  0  0  0  0  0
    5.0772    3.3329   -2.0025 H   0  0  0  0  0  0  0  0  0  0  0  0
    3.1935    1.7736   -1.6069 H   0  0  0  0  0  0  0  0  0  0  0  0
  1  2  1  0
  2  3  1  0
  3  4  1  0
  4  5  2  0
  4  6  1  0
  7  6  1  1
  7  8  1  0
  8  9  1  0
  9 10  1  0
 10 11  1  0
 11 12  1  0
 12 13  1  0
 13 14  1  0
 13 15  1  0
 11 16  1  0
  3 17  2  0
 17 18  1  0
 18 19  1  0
 19 20  1  0
 20 21  1  0
 21 22  1  0
 21 23  1  0
 18 24  1  0
 24 25  1  0
 25 26  2  0
 26 27  1  0
 27 28  2  0
 28 29  1  0
 29 30  2  0
 24  2  2  0
 30 25  1  0
 15  7  1  0
 16  7  1  0
 14  9  1  0
  1 31  1  0
  1 32  1  0
  1 33  1  0
  6 34  1  0
  8 35  1  0
  8 36  1  0
  9 37  1  6
 10 38  1  0
 10 39  1  0
 11 40  1  6
 12 41  1  0
 12 42  1  0
 13 43  1  1
 14 44  1  0
 14 45  1  0
 15 46  1  0
 15 47  1  0
 16 48  1  0
 16 49  1  0
 19 50  1  0
 19 51  1  0
 20 52  1  0
 20 53  1  0
 21 54  1  6
 22 55  1  0
 22 56  1  0
 22 57  1  0
 23 58  1  0
 26 59  1  0
 27 60  1  0
 28 61  1  0
 29 62  1  0
 30 63  1  0
M  END
>  <_SMILES>  (172) 
Cc1c(C(=O)N[C@]23C[C@H]4C[C@H](C[C@H](C4)C2)C3)nn(CC[C@H](C)O)c1-c1ccccc1

$$$$

     RDKit          3D

 63 67  0  0  0  0  0  0  0  0999 V2000
   -0.2597   -1.4960   -1.6662 C   0  0  0  0  0  0  0  0  0  0  0  0
   -0.9307   -0.5495   -0.7374 C   0  0  0  0  0  0  0  0  0  0  0  0
   -0.3434    0.5560   -0.0377 C   0  0  0  0  0  0  0  0  0  0  0  0
    1.0691    0.9896   -0.0331 C   0  0  0  0  0  0  0  0  0  0  0  0
    1.4056    2.1679   -0.0876 O   0  0  0  0  0  0  0  0  0  0  0  0
    1.9691   -0.0597    0.0652 N   0  0  0  0  0  0  0  0  0  0  0  0
    3.4189    0.0977    0.2014 C   0  0  2  0  0  0  0  0  0  0  0  0
    4.0567   -1.3179    0.2492 C   0  0  0  0  0  0  0  0  0  0  0  0
    5.5837   -1.2316    0.3994 C   0  0  1  0  0  0  0  0  0  0  0  0
    6.1648   -0.4646   -0.7981 C   0  0  0  0  0  0  0  0  0  0  0  0
    5.5667    0.9495   -0.8540 C   0  0  2  0  0  0  0  0  0  0  0  0
    5.8999    1.6939    0.4504 C   0  0  0  0  0  0  0  0  0  0  0  0
    5.3224    0.9338    1.6566 C   0  0  2  0  0  0  0  0  0  0  0  0
    5.9210   -0.4812    1.6974 C   0  0  0  0  0  0  0  0  0  0  0  0
    3.7935    0.8356    1.5100 C   0  0  0  0  0  0  0  0  0  0  0  0
    4.0381    0.8507   -1.0037 C   0  0  0  0  0  0  0  0  0  0  0  0
   -1.2702    1.2110    0.6814 N   0  0  0  0  0  0  0  0  0  0  0  0
   -2.4158    0.5523    0.4493 N   0  0  0  0  0  0  0  0  0  0  0  0
   -3.6391    1.0325    1.0750 C   0  0  0  0  0  0  0  0  0  0  0  0
   -4.3455    2.0783    0.2149 C   0  0  0  0  0  0  0  0  0  0  0  0
   -5.7452    2.4499    0.7097 C   0  0  1  0  0  0  0  0  0  0  0  0
   -6.7571    1.3173    0.5791 C   0  0  0  0  0  0  0  0  0  0  0  0
   -5.6925    2.9020    2.0582 O   0  0  0  0  0  0  0  0  0  0  0  0
   -2.2712   -0.5315   -0.3815 C   0  0  0  0  0  0  0  0  0  0  0  0
   -3.3653   -1.4042   -0.7865 C   0  0  0  0  0  0  0  0  0  0  0  0
   -4.0816   -1.1381   -1.9584 C   0  0  0  0  0  0  0  0  0  0  0  0
   -5.1392   -1.9660   -2.3382 C   0  0  0  0  0  0  0  0  0  0  0  0
   -5.4816   -3.0651   -1.5515 C   0  0  0  0  0  0  0  0  0  0  0  0
   -4.7657   -3.3402   -0.3868 C   0  0  0  0  0  0  0  0  0  0  0  0
   -3.7080   -2.5130   -0.0053 C   0  0  0  0  0  0  0  0  0  0  0  0
   -0.9676   -1.9268   -2.3812 H   0  0  0  0  0  0  0  0  0  0  0  0
    0.5200   -0.9916   -2.2457 H   0  0  0  0  0  0  0  0  0  0  0  0
    0.1986   -2.3168   -1.1056 H   0  0  0  0  0  0  0  0  0  0  0  0
    1.5712   -0.9403    0.3631 H   0  0  0  0  0  0  0  0  0  0  0  0
    3.6371   -1.8928    1.0858 H   0  0  0  0  0  0  0  0  0  0  0  0
    3.8039   -1.8763   -0.6622 H   0  0  0  0  0  0  0  0  0  0  0  0
    6.0099   -2.2405    0.4342 H   0  0  0  0  0  0  0  0  0  0  0  0
    5.9462   -1.0013   -1.7295 H   0  0  0  0  0  0  0  0  0  0  0  0
    7.2568   -0.4070   -0.7126 H   0  0  0  0  0  0  0  0  0  0  0  0
    5.9862    1.4938   -1.7074 H   0  0  0  0  0  0  0  0  0  0  0  0
    6.9872    1.7927    0.5568 H   0  0  0  0  0  0  0  0  0  0  0  0
    5.4898    2.7108    0.4169 H   0  0  0  0  0  0  0  0  0  0  0  0
    5.5703    1.4660    2.5818 H   0  0  0  0  0  0  0  0  0  0  0  0
    7.0089   -0.4244    1.8255 H   0  0  0  0  0  0  0  0  0  0  0  0
    5.5270   -1.0302    2.5614 H   0  0  0  0  0  0  0  0  0  0  0  0
    3.3663    1.8454    1.5254 H   0  0  0  0  0  0  0  0  0  0  0  0
    3.3686    0.3095    2.3749 H   0  0  0  0  0  0  0  0  0  0  0  0
    3.6273    1.8628   -1.0913 H   0  0  0  0  0  0  0  0  0  0  0  0
    3.7862    0.3355   -1.9399 H   0  0  0  0  0  0  0  0  0  0  0  0
   -3.3641    1.4486    2.0515 H   0  0  0  0  0  0  0  0  0  0  0  0
   -4.2729    0.1622    1.2655 H   0  0  0  0  0  0  0  0  0  0  0  0
   -4.4103    1.7414   -0.8267 H   0  0  0  0  0  0  0  0  0  0  0  0
   -3.7247    2.9841    0.2083 H   0  0  0  0  0  0  0  0  0  0  0  0
   -6.1013    3.2947    0.1090 H   0  0  0  0  0  0  0  0  0  0  0  0
   -6.8103    0.9484   -0.4496 H   0  0  0  0  0  0  0  0  0  0  0  0
   -6.5195    0.4798    1.2425 H   0  0  0  0  0  0  0  0  0  0  0  0
   -7.7523    1.6681    0.8739 H   0  0  0  0  0  0  0  0  0  0  0  0
   -5.7387    2.1364    2.6548 H   0  0  0  0  0  0  0  0  0  0  0  0
   -3.8183   -0.2861   -2.5814 H   0  0  0  0  0  0  0  0  0  0  0  0
   -5.6929   -1.7557   -3.2498 H   0  0  0  0  0  0  0  0  0  0  0  0
   -6.3037   -3.7113   -1.8495 H   0  0  0  0  0  0  0  0  0  0  0  0
   -5.0293   -4.2010    0.2225 H   0  0  0  0  0  0  0  0  0  0  0  0
   -3.1535   -2.7379    0.9028 H   0  0  0  0  0  0  0  0  0  0  0  0
  1  2  1  0
  2  3  1  0
  3  4  1  0
  4  5  2  0
  4  6  1  0
  7  6  1  6
  7  8  1  0
  8  9  1  0
  9 10  1  0
 10 11  1  0
 11 12  1  0
 12 13  1  0
 13 14  1  0
 13 15  1  0
 11 16  1  0
  3 17  2  0
 17 18  1  0
 18 19  1  0
 19 20  1  0
 20 21  1  0
 21 22  1  0
 21 23  1  0
 18 24  1  0
 24 25  1  0
 25 26  2  0
 26 27  1  0
 27 28  2  0
 28 29  1  0
 29 30  2  0
 24  2  2  0
 30 25  1  0
 15  7  1  0
 16  7  1  0
 14  9  1  0
  1 31  1  0
  1 32  1  0
  1 33  1  0
  6 34  1  0
  8 35  1  0
  8 36  1  0
  9 37  1  1
 10 38  1  0
 10 39  1  0
 11 40  1  6
 12 41  1  0
 12 42  1  0
 13 43  1  1
 14 44  1  0
 14 45  1  0
 15 46  1  0
 15 47  1  0
 16 48  1  0
 16 49  1  0
 19 50  1  0
 19 51  1  0
 20 52  1  0
 20 53  1  0
 21 54  1  6
 22 55  1  0
 22 56  1  0
 22 57  1  0
 23 58  1  0
 26 59  1  0
 27 60  1  0
 28 61  1  0
 29 62  1  0
 30 63  1  0
M  END
>  <_SMILES>  (173) 
Cc1c(C(=O)N[C@]23C[C@H]4C[C@H](C[C@H](C4)C2)C3)nn(CC[C@@H](C)O)c1-c1ccccc1

$$$$

     RDKit          3D

 57 62  0  0  0  0  0  0  0  0999 V2000
   -4.5828   -2.8522    0.7256 C   0  0  0  0  0  0  0  0  0  0  0  0
   -5.2393   -1.6570    0.4388 C   0  0  0  0  0  0  0  0  0  0  0  0
   -4.5822   -0.6496   -0.2694 C   0  0  0  0  0  0  0  0  0  0  0  0
   -3.2581   -0.8282   -0.6959 C   0  0  0  0  0  0  0  0  0  0  0  0
   -2.5391    0.2607   -1.4534 C   0  0  0  0  0  0  0  0  0  0  0  0
   -1.4768    0.8575   -0.6637 N   0  0  0  0  0  0  0  0  0  0  0  0
   -0.1928    0.5199   -0.8939 N   0  0  0  0  0  0  0  0  0  0  0  0
    0.4459    1.2199    0.0395 C   0  0  0  0  0  0  0  0  0  0  0  0
    1.7571    1.2668    0.3115 N   0  0  0  0  0  0  0  0  0  0  0  0
    2.7259    0.2574   -0.1009 C   0  0  2  0  0  0  0  0  0  0  0  0
    4.1008    0.6579    0.5067 C   0  0  0  0  0  0  0  0  0  0  0  0
    5.1886   -0.3591    0.1261 C   0  0  1  0  0  0  0  0  0  0  0  0
    4.7875   -1.7461    0.6524 C   0  0  0  0  0  0  0  0  0  0  0  0
    3.4411   -2.1694    0.0438 C   0  0  2  0  0  0  0  0  0  0  0  0
    3.5680   -2.2095   -1.4891 C   0  0  0  0  0  0  0  0  0  0  0  0
    3.9720   -0.8249   -2.0256 C   0  0  2  0  0  0  0  0  0  0  0  0
    5.3148   -0.4119   -1.4039 C   0  0  0  0  0  0  0  0  0  0  0  0
    2.8929    0.2028   -1.6383 C   0  0  0  0  0  0  0  0  0  0  0  0
    2.3604   -1.1461    0.4375 C   0  0  0  0  0  0  0  0  0  0  0  0
   -0.3614    1.9821    0.8304 N   0  0  0  0  0  0  0  0  0  0  0  0
   -1.5740    1.7648    0.3607 C   0  0  0  0  0  0  0  0  0  0  0  0
   -2.8111    2.3436    0.8639 C   0  0  0  0  0  0  0  0  0  0  0  0
   -3.2881    1.9749    2.1269 C   0  0  0  0  0  0  0  0  0  0  0  0
   -4.4844    2.5065    2.6116 C   0  0  0  0  0  0  0  0  0  0  0  0
   -5.2050    3.4181    1.8412 C   0  0  0  0  0  0  0  0  0  0  0  0
   -4.7278    3.8048    0.5894 C   0  0  0  0  0  0  0  0  0  0  0  0
   -3.5323    3.2721    0.1025 C   0  0  0  0  0  0  0  0  0  0  0  0
   -2.6079   -2.0365   -0.4007 C   0  0  0  0  0  0  0  0  0  0  0  0
   -3.2677   -3.0421    0.3064 C   0  0  0  0  0  0  0  0  0  0  0  0
   -5.0950   -3.6351    1.2787 H   0  0  0  0  0  0  0  0  0  0  0  0
   -6.2637   -1.5075    0.7703 H   0  0  0  0  0  0  0  0  0  0  0  0
   -5.1119    0.2786   -0.4748 H   0  0  0  0  0  0  0  0  0  0  0  0
   -3.2200    1.0604   -1.7628 H   0  0  0  0  0  0  0  0  0  0  0  0
   -2.0973   -0.1502   -2.3693 H   0  0  0  0  0  0  0  0  0  0  0  0
    1.9603    1.7270    1.1914 H   0  0  0  0  0  0  0  0  0  0  0  0
    4.0276    0.7235    1.6007 H   0  0  0  0  0  0  0  0  0  0  0  0
    4.3908    1.6587    0.1590 H   0  0  0  0  0  0  0  0  0  0  0  0
    6.1463   -0.0594    0.5661 H   0  0  0  0  0  0  0  0  0  0  0  0
    5.5611   -2.4813    0.3989 H   0  0  0  0  0  0  0  0  0  0  0  0
    4.7143   -1.7255    1.7467 H   0  0  0  0  0  0  0  0  0  0  0  0
    3.1628   -3.1610    0.4177 H   0  0  0  0  0  0  0  0  0  0  0  0
    2.6158   -2.5213   -1.9357 H   0  0  0  0  0  0  0  0  0  0  0  0
    4.3165   -2.9560   -1.7821 H   0  0  0  0  0  0  0  0  0  0  0  0
    4.0677   -0.8651   -3.1165 H   0  0  0  0  0  0  0  0  0  0  0  0
    5.6208    0.5685   -1.7894 H   0  0  0  0  0  0  0  0  0  0  0  0
    6.0968   -1.1253   -1.6915 H   0  0  0  0  0  0  0  0  0  0  0  0
    1.9560   -0.0765   -2.1322 H   0  0  0  0  0  0  0  0  0  0  0  0
    3.1622    1.1936   -2.0271 H   0  0  0  0  0  0  0  0  0  0  0  0
    1.3943   -1.4808    0.0408 H   0  0  0  0  0  0  0  0  0  0  0  0
    2.2518   -1.1185    1.5297 H   0  0  0  0  0  0  0  0  0  0  0  0
   -2.7284    1.2670    2.7354 H   0  0  0  0  0  0  0  0  0  0  0  0
   -4.8493    2.2124    3.5924 H   0  0  0  0  0  0  0  0  0  0  0  0
   -6.1328    3.8369    2.2229 H   0  0  0  0  0  0  0  0  0  0  0  0
   -5.2812    4.5295   -0.0025 H   0  0  0  0  0  0  0  0  0  0  0  0
   -3.1599    3.5985   -0.8659 H   0  0  0  0  0  0  0  0  0  0  0  0
   -1.5767   -2.1962   -0.7142 H   0  0  0  0  0  0  0  0  0  0  0  0
   -2.7531   -3.9723    0.5334 H   0  0  0  0  0  0  0  0  0  0  0  0
  1  2  2  0
  2  3  1  0
  3  4  2  0
  4  5  1  0
  5  6  1  0
  6  7  1  0
  7  8  2  0
  8  9  1  0
 10  9  1  6
 10 11  1  0
 11 12  1  0
 12 13  1  0
 13 14  1  0
 14 15  1  0
 15 16  1  0
 16 17  1  0
 16 18  1  0
 14 19  1  0
  8 20  1  0
 20 21  2  0
 21 22  1  0
 22 23  2  0
 23 24  1  0
 24 25  2  0
 25 26  1  0
 26 27  2  0
  4 28  1  0
 28 29  2  0
 29  1  1  0
 21  6  1  0
 27 22  1  0
 18 10  1  0
 19 10  1  0
 17 12  1  0
  1 30  1  0
  2 31  1  0
  3 32  1  0
  5 33  1  0
  5 34  1  0
  9 35  1  0
 11 36  1  0
 11 37  1  0
 12 38  1  1
 13 39  1  0
 13 40  1  0
 14 41  1  1
 15 42  1  0
 15 43  1  0
 16 44  1  6
 17 45  1  0
 17 46  1  0
 18 47  1  0
 18 48  1  0
 19 49  1  0
 19 50  1  0
 23 51  1  0
 24 52  1  0
 25 53  1  0
 26 54  1  0
 27 55  1  0
 28 56  1  0
 29 57  1  0
M  END
>  <_SMILES>  (174) 
c1ccc(Cn2nc(N[C@]34C[C@H]5C[C@H](C[C@H](C5)C3)C4)nc2-c2ccccc2)cc1

$$$$

     RDKit          3D

 57 62  0  0  0  0  0  0  0  0999 V2000
   -1.7204   -3.8367    0.5991 C   0  0  0  0  0  0  0  0  0  0  0  0
   -2.3492   -2.9201   -0.2406 C   0  0  0  0  0  0  0  0  0  0  0  0
   -2.6012   -1.6218    0.2043 C   0  0  0  0  0  0  0  0  0  0  0  0
   -2.2198   -1.2250    1.4950 C   0  0  0  0  0  0  0  0  0  0  0  0
   -2.4546    0.1951    1.9695 C   0  0  0  0  0  0  0  0  0  0  0  0
   -1.6444    1.1804    1.2432 N   0  0  0  0  0  0  0  0  0  0  0  0
   -0.3079    0.8873    0.9687 N   0  0  0  0  0  0  0  0  0  0  0  0
   -0.0991    1.2508   -0.3496 C   0  0  0  0  0  0  0  0  0  0  0  0
    0.8587    1.0311   -1.1582 N   0  0  0  0  0  0  0  0  0  0  0  0
    2.0785    0.3010   -0.8293 C   0  0  2  0  0  0  0  0  0  0  0  0
    1.8058   -1.2097   -0.6649 C   0  0  0  0  0  0  0  0  0  0  0  0
    3.1256   -1.9657   -0.4278 C   0  0  1  0  0  0  0  0  0  0  0  0
    4.0472   -1.7690   -1.6420 C   0  0  0  0  0  0  0  0  0  0  0  0
    4.3450   -0.2739   -1.8371 C   0  0  2  0  0  0  0  0  0  0  0  0
    5.0378    0.2746   -0.5803 C   0  0  0  0  0  0  0  0  0  0  0  0
    4.1243    0.0935    0.6419 C   0  0  2  0  0  0  0  0  0  0  0  0
    3.8148   -1.4031    0.8282 C   0  0  0  0  0  0  0  0  0  0  0  0
    2.8070    0.8576    0.4119 C   0  0  0  0  0  0  0  0  0  0  0  0
    3.0223    0.4791   -2.0507 C   0  0  0  0  0  0  0  0  0  0  0  0
   -1.2001    1.9175   -0.8557 N   0  0  0  0  0  0  0  0  0  0  0  0
   -2.0991    1.8454    0.1031 C   0  0  0  0  0  0  0  0  0  0  0  0
   -3.4437    2.4401   -0.0560 C   0  0  0  0  0  0  0  0  0  0  0  0
   -4.0093    2.5185   -1.3327 C   0  0  0  0  0  0  0  0  0  0  0  0
   -5.2779    3.0753   -1.4993 C   0  0  0  0  0  0  0  0  0  0  0  0
   -5.9757    3.5636   -0.3943 C   0  0  0  0  0  0  0  0  0  0  0  0
   -5.4041    3.5052    0.8773 C   0  0  0  0  0  0  0  0  0  0  0  0
   -4.1354    2.9481    1.0484 C   0  0  0  0  0  0  0  0  0  0  0  0
   -1.5907   -2.1592    2.3330 C   0  0  0  0  0  0  0  0  0  0  0  0
   -1.3429   -3.4578    1.8856 C   0  0  0  0  0  0  0  0  0  0  0  0
   -1.5242   -4.8471    0.2491 H   0  0  0  0  0  0  0  0  0  0  0  0
   -2.6391   -3.2137   -1.2467 H   0  0  0  0  0  0  0  0  0  0  0  0
   -3.0821   -0.9175   -0.4721 H   0  0  0  0  0  0  0  0  0  0  0  0
   -3.5259    0.4111    1.8996 H   0  0  0  0  0  0  0  0  0  0  0  0
   -2.2032    0.2746    3.0342 H   0  0  0  0  0  0  0  0  0  0  0  0
    0.0229   -0.0479    1.1734 H   0  0  0  0  0  0  0  0  0  0  0  0
    1.1318   -1.4056    0.1744 H   0  0  0  0  0  0  0  0  0  0  0  0
    1.3021   -1.6047   -1.5570 H   0  0  0  0  0  0  0  0  0  0  0  0
    2.9193   -3.0331   -0.2901 H   0  0  0  0  0  0  0  0  0  0  0  0
    3.5729   -2.1776   -2.5427 H   0  0  0  0  0  0  0  0  0  0  0  0
    4.9832   -2.3221   -1.4961 H   0  0  0  0  0  0  0  0  0  0  0  0
    4.9952   -0.1366   -2.7081 H   0  0  0  0  0  0  0  0  0  0  0  0
    5.9891   -0.2469   -0.4182 H   0  0  0  0  0  0  0  0  0  0  0  0
    5.2759    1.3367   -0.7163 H   0  0  0  0  0  0  0  0  0  0  0  0
    4.6239    0.4818    1.5365 H   0  0  0  0  0  0  0  0  0  0  0  0
    4.7433   -1.9541    1.0222 H   0  0  0  0  0  0  0  0  0  0  0  0
    3.1706   -1.5463    1.7045 H   0  0  0  0  0  0  0  0  0  0  0  0
    3.0093    1.9291    0.2864 H   0  0  0  0  0  0  0  0  0  0  0  0
    2.1939    0.7638    1.3137 H   0  0  0  0  0  0  0  0  0  0  0  0
    2.5322    0.1147   -2.9636 H   0  0  0  0  0  0  0  0  0  0  0  0
    3.2247    1.5455   -2.2186 H   0  0  0  0  0  0  0  0  0  0  0  0
   -3.4622    2.1497   -2.1982 H   0  0  0  0  0  0  0  0  0  0  0  0
   -5.7169    3.1354   -2.4921 H   0  0  0  0  0  0  0  0  0  0  0  0
   -6.9613    4.0033   -0.5275 H   0  0  0  0  0  0  0  0  0  0  0  0
   -5.9430    3.9057    1.7324 H   0  0  0  0  0  0  0  0  0  0  0  0
   -3.6869    2.9382    2.0377 H   0  0  0  0  0  0  0  0  0  0  0  0
   -1.2836   -1.8829    3.3398 H   0  0  0  0  0  0  0  0  0  0  0  0
   -0.8538   -4.1756    2.5396 H   0  0  0  0  0  0  0  0  0  0  0  0
  1  2  2  0
  2  3  1  0
  3  4  2  0
  4  5  1  0
  5  6  1  0
  6  7  1  0
  7  8  1  0
  8  9  2  0
 10  9  1  6
 10 11  1  0
 11 12  1  0
 12 13  1  0
 13 14  1  0
 14 15  1  0
 15 16  1  0
 16 17  1  0
 16 18  1  0
 14 19  1  0
  8 20  1  0
 20 21  2  0
 21 22  1  0
 22 23  2  0
 23 24  1  0
 24 25  2  0
 25 26  1  0
 26 27  2  0
  4 28  1  0
 28 29  2  0
 29  1  1  0
 21  6  1  0
 27 22  1  0
 18 10  1  0
 19 10  1  0
 17 12  1  0
  1 30  1  0
  2 31  1  0
  3 32  1  0
  5 33  1  0
  5 34  1  0
  7 35  1  0
 11 36  1  0
 11 37  1  0
 12 38  1  1
 13 39  1  0
 13 40  1  0
 14 41  1  6
 15 42  1  0
 15 43  1  0
 16 44  1  1
 17 45  1  0
 17 46  1  0
 18 47  1  0
 18 48  1  0
 19 49  1  0
 19 50  1  0
 23 51  1  0
 24 52  1  0
 25 53  1  0
 26 54  1  0
 27 55  1  0
 28 56  1  0
 29 57  1  0
M  END
>  <_SMILES>  (175) 
c1ccc(Cn2[nH]/c(=N\[C@]34C[C@H]5C[C@H](C[C@H](C5)C3)C4)nc2-c2ccccc2)cc1

$$$$

     RDKit          3D

 57 62  0  0  0  0  0  0  0  0999 V2000
    5.0102   -1.7177   -1.4077 C   0  0  0  0  0  0  0  0  0  0  0  0
    5.2884   -0.3705   -1.1885 C   0  0  0  0  0  0  0  0  0  0  0  0
    4.7685    0.2778   -0.0667 C   0  0  0  0  0  0  0  0  0  0  0  0
    3.9608   -0.4148    0.8489 C   0  0  0  0  0  0  0  0  0  0  0  0
    3.3935    0.2920    2.0619 C   0  0  0  0  0  0  0  0  0  0  0  0
    1.9414    0.4953    2.0026 N   0  0  0  0  0  0  0  0  0  0  0  0
    1.1310   -0.5826    2.3403 N   0  0  0  0  0  0  0  0  0  0  0  0
    0.0113   -0.4871    1.5393 C   0  0  0  0  0  0  0  0  0  0  0  0
   -1.0440   -1.1912    1.7053 N   0  0  0  0  0  0  0  0  0  0  0  0
   -2.2348   -1.0633    0.8608 C   0  0  2  0  0  0  0  0  0  0  0  0
   -1.9509   -1.3972   -0.6202 C   0  0  0  0  0  0  0  0  0  0  0  0
   -3.2563   -1.3489   -1.4355 C   0  0  1  0  0  0  0  0  0  0  0  0
   -4.2384   -2.3944   -0.8843 C   0  0  0  0  0  0  0  0  0  0  0  0
   -4.5492   -2.0941    0.5901 C   0  0  2  0  0  0  0  0  0  0  0  0
   -5.1796   -0.6974    0.7027 C   0  0  0  0  0  0  0  0  0  0  0  0
   -4.2049    0.3615    0.1641 C   0  0  2  0  0  0  0  0  0  0  0  0
   -3.8820    0.0519   -1.3089 C   0  0  0  0  0  0  0  0  0  0  0  0
   -2.9045    0.3222    0.9879 C   0  0  0  0  0  0  0  0  0  0  0  0
   -3.2407   -2.1216    1.3956 C   0  0  0  0  0  0  0  0  0  0  0  0
    0.1532    0.5087    0.5983 N   0  0  0  0  0  0  0  0  0  0  0  0
    1.3000    1.0814    0.9054 C   0  0  0  0  0  0  0  0  0  0  0  0
    1.8094    2.2353    0.1372 C   0  0  0  0  0  0  0  0  0  0  0  0
    1.5881    2.2861   -1.2422 C   0  0  0  0  0  0  0  0  0  0  0  0
    2.0690    3.3660   -1.9830 C   0  0  0  0  0  0  0  0  0  0  0  0
    2.7580    4.3980   -1.3448 C   0  0  0  0  0  0  0  0  0  0  0  0
    2.9616    4.3571    0.0353 C   0  0  0  0  0  0  0  0  0  0  0  0
    2.4841    3.2774    0.7802 C   0  0  0  0  0  0  0  0  0  0  0  0
    3.6905   -1.7716    0.6155 C   0  0  0  0  0  0  0  0  0  0  0  0
    4.2114   -2.4179   -0.5067 C   0  0  0  0  0  0  0  0  0  0  0  0
    5.4106   -2.2209   -2.2838 H   0  0  0  0  0  0  0  0  0  0  0  0
    5.9060    0.1780   -1.8950 H   0  0  0  0  0  0  0  0  0  0  0  0
    4.9924    1.3325    0.0784 H   0  0  0  0  0  0  0  0  0  0  0  0
    3.6470   -0.2897    2.9581 H   0  0  0  0  0  0  0  0  0  0  0  0
    3.8919    1.2578    2.2012 H   0  0  0  0  0  0  0  0  0  0  0  0
    0.8833   -0.7204    3.3144 H   0  0  0  0  0  0  0  0  0  0  0  0
   -1.4907   -2.3903   -0.7046 H   0  0  0  0  0  0  0  0  0  0  0  0
   -1.2390   -0.6924   -1.0622 H   0  0  0  0  0  0  0  0  0  0  0  0
   -3.0412   -1.5642   -2.4882 H   0  0  0  0  0  0  0  0  0  0  0  0
   -3.8091   -3.3993   -0.9801 H   0  0  0  0  0  0  0  0  0  0  0  0
   -5.1643   -2.3863   -1.4723 H   0  0  0  0  0  0  0  0  0  0  0  0
   -5.2428   -2.8460    0.9828 H   0  0  0  0  0  0  0  0  0  0  0  0
   -5.4277   -0.4809    1.7490 H   0  0  0  0  0  0  0  0  0  0  0  0
   -6.1199   -0.6634    0.1388 H   0  0  0  0  0  0  0  0  0  0  0  0
   -4.6603    1.3551    0.2419 H   0  0  0  0  0  0  0  0  0  0  0  0
   -3.1937    0.8070   -1.7082 H   0  0  0  0  0  0  0  0  0  0  0  0
   -4.7978    0.1064   -1.9103 H   0  0  0  0  0  0  0  0  0  0  0  0
   -2.2449    1.1216    0.6347 H   0  0  0  0  0  0  0  0  0  0  0  0
   -3.1191    0.5456    2.0411 H   0  0  0  0  0  0  0  0  0  0  0  0
   -2.7956   -3.1245    1.3455 H   0  0  0  0  0  0  0  0  0  0  0  0
   -3.4548   -1.9362    2.4569 H   0  0  0  0  0  0  0  0  0  0  0  0
    1.0495    1.4823   -1.7396 H   0  0  0  0  0  0  0  0  0  0  0  0
    1.9017    3.4032   -3.0565 H   0  0  0  0  0  0  0  0  0  0  0  0
    3.1265    5.2415   -1.9238 H   0  0  0  0  0  0  0  0  0  0  0  0
    3.4821    5.1731    0.5306 H   0  0  0  0  0  0  0  0  0  0  0  0
    2.6196    3.2698    1.8576 H   0  0  0  0  0  0  0  0  0  0  0  0
    3.0592   -2.3327    1.3014 H   0  0  0  0  0  0  0  0  0  0  0  0
    3.9860   -3.4670   -0.6807 H   0  0  0  0  0  0  0  0  0  0  0  0
  1  2  2  0
  2  3  1  0
  3  4  2  0
  4  5  1  0
  5  6  1  0
  6  7  1  0
  7  8  1  0
  8  9  2  0
 10  9  1  1
 10 11  1  0
 11 12  1  0
 12 13  1  0
 13 14  1  0
 14 15  1  0
 15 16  1  0
 16 17  1  0
 16 18  1  0
 14 19  1  0
  8 20  1  0
 20 21  2  0
 21 22  1  0
 22 23  2  0
 23 24  1  0
 24 25  2  0
 25 26  1  0
 26 27  2  0
  4 28  1  0
 28 29  2  0
 29  1  1  0
 21  6  1  0
 27 22  1  0
 18 10  1  0
 19 10  1  0
 17 12  1  0
  1 30  1  0
  2 31  1  0
  3 32  1  0
  5 33  1  0
  5 34  1  0
  7 35  1  0
 11 36  1  0
 11 37  1  0
 12 38  1  6
 13 39  1  0
 13 40  1  0
 14 41  1  1
 15 42  1  0
 15 43  1  0
 16 44  1  6
 17 45  1  0
 17 46  1  0
 18 47  1  0
 18 48  1  0
 19 49  1  0
 19 50  1  0
 23 51  1  0
 24 52  1  0
 25 53  1  0
 26 54  1  0
 27 55  1  0
 28 56  1  0
 29 57  1  0
M  END
>  <_SMILES>  (176) 
c1ccc(Cn2[nH]/c(=N/[C@]34C[C@H]5C[C@H](C[C@H](C5)C3)C4)nc2-c2ccccc2)cc1

$$$$

     RDKit          3D

 60 64  0  0  0  0  0  0  0  0999 V2000
   -0.5612    1.6793   -0.1371 O   0  0  0  0  0  0  0  0  0  0  0  0
   -0.5778    0.4914    0.1727 C   0  0  0  0  0  0  0  0  0  0  0  0
   -1.7390   -0.1684    0.5496 N   0  0  0  0  0  0  0  0  0  0  0  0
   -3.0741    0.4380    0.5630 C   0  0  2  0  0  0  0  0  0  0  0  0
   -4.0852   -0.6275    1.0696 C   0  0  0  0  0  0  0  0  0  0  0  0
   -5.5141   -0.0628    1.1039 C   0  0  1  0  0  0  0  0  0  0  0  0
   -5.5540    1.1493    2.0469 C   0  0  0  0  0  0  0  0  0  0  0  0
   -4.5792    2.2291    1.5527 C   0  0  2  0  0  0  0  0  0  0  0  0
   -4.9792    2.6630    0.1321 C   0  0  0  0  0  0  0  0  0  0  0  0
   -4.9430    1.4558   -0.8207 C   0  0  2  0  0  0  0  0  0  0  0  0
   -5.9152    0.3797   -0.3120 C   0  0  0  0  0  0  0  0  0  0  0  0
   -3.5168    0.8785   -0.8542 C   0  0  0  0  0  0  0  0  0  0  0  0
   -3.1524    1.6525    1.5229 C   0  0  0  0  0  0  0  0  0  0  0  0
    0.6336   -0.3596    0.1600 C   0  0  0  0  0  0  0  0  0  0  0  0
    0.8319   -1.6289    0.7706 C   0  0  0  0  0  0  0  0  0  0  0  0
    2.1299   -1.9969    0.4842 C   0  0  0  0  0  0  0  0  0  0  0  0
    2.8111   -3.2005    0.8515 C   0  0  0  0  0  0  0  0  0  0  0  0
    2.4811   -4.4817    0.4575 C   0  0  0  0  0  0  0  0  0  0  0  0
    3.3502   -5.4628    1.0194 C   0  0  0  0  0  0  0  0  0  0  0  0
    4.3033   -4.8970    1.8362 C   0  0  0  0  0  0  0  0  0  0  0  0
    4.1431   -3.1967    1.9248 S   0  0  0  0  0  0  0  0  0  0  0  0
    2.6436   -0.9655   -0.2618 N   0  0  0  0  0  0  0  0  0  0  0  0
    3.9525   -0.8682   -0.8882 C   0  0  0  0  0  0  0  0  0  0  0  0
    4.9475   -0.0070   -0.1065 C   0  0  0  0  0  0  0  0  0  0  0  0
    4.6556    1.4978   -0.0897 C   0  0  0  0  0  0  0  0  0  0  0  0
    4.5175    2.1887   -1.4520 C   0  0  0  0  0  0  0  0  0  0  0  0
    5.7793    2.1556   -2.3062 C   0  0  0  0  0  0  0  0  0  0  0  0
    6.0067    0.8502   -2.8190 O   0  0  0  0  0  0  0  0  0  0  0  0
    1.7504    0.0195   -0.4850 N   0  0  0  0  0  0  0  0  0  0  0  0
   -1.6960   -1.1759    0.5859 H   0  0  0  0  0  0  0  0  0  0  0  0
   -4.0557   -1.5139    0.4215 H   0  0  0  0  0  0  0  0  0  0  0  0
   -3.7985   -0.9726    2.0721 H   0  0  0  0  0  0  0  0  0  0  0  0
   -6.2077   -0.8321    1.4612 H   0  0  0  0  0  0  0  0  0  0  0  0
   -6.5719    1.5554    2.0929 H   0  0  0  0  0  0  0  0  0  0  0  0
   -5.2877    0.8414    3.0655 H   0  0  0  0  0  0  0  0  0  0  0  0
   -4.6136    3.0928    2.2262 H   0  0  0  0  0  0  0  0  0  0  0  0
   -4.2982    3.4444   -0.2270 H   0  0  0  0  0  0  0  0  0  0  0  0
   -5.9857    3.0991    0.1443 H   0  0  0  0  0  0  0  0  0  0  0  0
   -5.2365    1.7714   -1.8281 H   0  0  0  0  0  0  0  0  0  0  0  0
   -5.9088   -0.4822   -0.9905 H   0  0  0  0  0  0  0  0  0  0  0  0
   -6.9394    0.7724   -0.3059 H   0  0  0  0  0  0  0  0  0  0  0  0
   -2.8346    1.6346   -1.2603 H   0  0  0  0  0  0  0  0  0  0  0  0
   -3.4753    0.0258   -1.5445 H   0  0  0  0  0  0  0  0  0  0  0  0
   -2.8485    1.3536    2.5346 H   0  0  0  0  0  0  0  0  0  0  0  0
   -2.4596    2.4444    1.2167 H   0  0  0  0  0  0  0  0  0  0  0  0
    0.1318   -2.1971    1.3656 H   0  0  0  0  0  0  0  0  0  0  0  0
    1.6594   -4.7080   -0.2115 H   0  0  0  0  0  0  0  0  0  0  0  0
    3.2772   -6.5278    0.8360 H   0  0  0  0  0  0  0  0  0  0  0  0
    5.0841   -5.3989    2.3913 H   0  0  0  0  0  0  0  0  0  0  0  0
    4.3486   -1.8845   -0.9872 H   0  0  0  0  0  0  0  0  0  0  0  0
    3.7995   -0.5028   -1.9087 H   0  0  0  0  0  0  0  0  0  0  0  0
    5.9512   -0.1726   -0.5137 H   0  0  0  0  0  0  0  0  0  0  0  0
    4.9899   -0.3495    0.9343 H   0  0  0  0  0  0  0  0  0  0  0  0
    3.7380    1.6780    0.4830 H   0  0  0  0  0  0  0  0  0  0  0  0
    5.4568    1.9933    0.4737 H   0  0  0  0  0  0  0  0  0  0  0  0
    3.6805    1.7534   -2.0080 H   0  0  0  0  0  0  0  0  0  0  0  0
    4.2604    3.2386   -1.2650 H   0  0  0  0  0  0  0  0  0  0  0  0
    5.6634    2.8345   -3.1574 H   0  0  0  0  0  0  0  0  0  0  0  0
    6.6554    2.4676   -1.7289 H   0  0  0  0  0  0  0  0  0  0  0  0
    6.7752    0.9124   -3.4123 H   0  0  0  0  0  0  0  0  0  0  0  0
  1  2  2  0
  2  3  1  0
  4  3  1  6
  4  5  1  0
  5  6  1  0
  6  7  1  0
  7  8  1  0
  8  9  1  0
  9 10  1  0
 10 11  1  0
 10 12  1  0
  8 13  1  0
  2 14  1  0
 14 15  1  0
 15 16  2  0
 16 17  1  0
 17 18  2  0
 18 19  1  0
 19 20  2  0
 20 21  1  0
 16 22  1  0
 22 23  1  0
 23 24  1  0
 24 25  1  0
 25 26  1  0
 26 27  1  0
 27 28  1  0
 22 29  1  0
 12  4  1  0
 29 14  2  0
 13  4  1  0
 21 17  1  0
 11  6  1  0
  3 30  1  0
  5 31  1  0
  5 32  1  0
  6 33  1  1
  7 34  1  0
  7 35  1  0
  8 36  1  1
  9 37  1  0
  9 38  1  0
 10 39  1  6
 11 40  1  0
 11 41  1  0
 12 42  1  0
 12 43  1  0
 13 44  1  0
 13 45  1  0
 15 46  1  0
 18 47  1  0
 19 48  1  0
 20 49  1  0
 23 50  1  0
 23 51  1  0
 24 52  1  0
 24 53  1  0
 25 54  1  0
 25 55  1  0
 26 56  1  0
 26 57  1  0
 27 58  1  0
 27 59  1  0
 28 60  1  0
M  END
>  <_SMILES>  (177) 
O=C(N[C@]12C[C@H]3C[C@H](C[C@H](C3)C1)C2)c1cc(-c2cccs2)n(CCCCCO)n1

$$$$

     RDKit          3D

 52 54  0  0  0  0  0  0  0  0999 V2000
    0.1124    1.3312   -2.1717 C   0  0  0  0  0  0  0  0  0  0  0  0
   -0.1499    0.5042   -0.9647 C   0  0  0  0  0  0  0  0  0  0  0  0
    0.5703   -0.6538   -0.5214 C   0  0  0  0  0  0  0  0  0  0  0  0
    1.7681   -1.2819   -1.1162 C   0  0  0  0  0  0  0  0  0  0  0  0
    1.9511   -2.4965   -1.1432 O   0  0  0  0  0  0  0  0  0  0  0  0
    2.6918   -0.3806   -1.6150 N   0  0  0  0  0  0  0  0  0  0  0  0
    3.9989   -0.8111   -2.0504 C   0  0  0  0  0  0  0  0  0  0  0  0
    5.0335   -0.5346   -0.9902 C   0  0  0  0  0  0  0  0  0  0  0  0
    5.8808    0.5784   -1.0856 C   0  0  0  0  0  0  0  0  0  0  0  0
    6.8227    0.8375   -0.0880 C   0  0  0  0  0  0  0  0  0  0  0  0
    6.9224   -0.0080    1.0156 C   0  0  0  0  0  0  0  0  0  0  0  0
    6.0802   -1.1127    1.1246 C   0  0  0  0  0  0  0  0  0  0  0  0
    5.1391   -1.3744    0.1282 C   0  0  0  0  0  0  0  0  0  0  0  0
    0.0182   -1.1553    0.5952 N   0  0  0  0  0  0  0  0  0  0  0  0
   -1.0292   -0.3563    0.8576 N   0  0  0  0  0  0  0  0  0  0  0  0
   -1.8425   -0.6555    2.0235 C   0  0  0  0  0  0  0  0  0  0  0  0
   -2.7921   -1.8411    1.8368 C   0  0  0  0  0  0  0  0  0  0  0  0
   -3.9336   -1.5428    0.8589 C   0  0  0  0  0  0  0  0  0  0  0  0
   -4.9730   -2.6575    0.8261 C   0  0  0  0  0  0  0  0  0  0  0  0
   -4.3787   -3.8601    0.3661 O   0  0  0  0  0  0  0  0  0  0  0  0
   -1.1552    0.6897   -0.0247 C   0  0  0  0  0  0  0  0  0  0  0  0
   -2.1795    1.7246    0.0564 C   0  0  0  0  0  0  0  0  0  0  0  0
   -3.2907    1.6864   -0.7930 C   0  0  0  0  0  0  0  0  0  0  0  0
   -4.2699    2.6783   -0.7165 C   0  0  0  0  0  0  0  0  0  0  0  0
   -4.1400    3.7167    0.2048 C   0  0  0  0  0  0  0  0  0  0  0  0
   -3.0303    3.7668    1.0475 C   0  0  0  0  0  0  0  0  0  0  0  0
   -2.0505    2.7751    0.9721 C   0  0  0  0  0  0  0  0  0  0  0  0
    0.8665    2.0937   -1.9528 H   0  0  0  0  0  0  0  0  0  0  0  0
    0.4705    0.7132   -3.0011 H   0  0  0  0  0  0  0  0  0  0  0  0
   -0.7925    1.8400   -2.5173 H   0  0  0  0  0  0  0  0  0  0  0  0
    2.5990    0.5805   -1.3202 H   0  0  0  0  0  0  0  0  0  0  0  0
    4.0010   -1.8745   -2.3141 H   0  0  0  0  0  0  0  0  0  0  0  0
    4.2315   -0.2517   -2.9633 H   0  0  0  0  0  0  0  0  0  0  0  0
    5.8156    1.2500   -1.9384 H   0  0  0  0  0  0  0  0  0  0  0  0
    7.4792    1.6997   -0.1709 H   0  0  0  0  0  0  0  0  0  0  0  0
    7.6551    0.1942    1.7923 H   0  0  0  0  0  0  0  0  0  0  0  0
    6.1522   -1.7714    1.9863 H   0  0  0  0  0  0  0  0  0  0  0  0
    4.4809   -2.2372    0.2278 H   0  0  0  0  0  0  0  0  0  0  0  0
   -2.3973    0.2414    2.3137 H   0  0  0  0  0  0  0  0  0  0  0  0
   -1.1429   -0.8708    2.8408 H   0  0  0  0  0  0  0  0  0  0  0  0
   -3.2196   -2.0907    2.8158 H   0  0  0  0  0  0  0  0  0  0  0  0
   -2.2325   -2.7218    1.4996 H   0  0  0  0  0  0  0  0  0  0  0  0
   -3.5173   -1.4161   -0.1470 H   0  0  0  0  0  0  0  0  0  0  0  0
   -4.4291   -0.6070    1.1408 H   0  0  0  0  0  0  0  0  0  0  0  0
   -5.7860   -2.3906    0.1436 H   0  0  0  0  0  0  0  0  0  0  0  0
   -5.3937   -2.8295    1.8220 H   0  0  0  0  0  0  0  0  0  0  0  0
   -5.0719   -4.5415    0.3537 H   0  0  0  0  0  0  0  0  0  0  0  0
   -3.3991    0.8820   -1.5173 H   0  0  0  0  0  0  0  0  0  0  0  0
   -5.1318    2.6419   -1.3778 H   0  0  0  0  0  0  0  0  0  0  0  0
   -4.9016    4.4904    0.2625 H   0  0  0  0  0  0  0  0  0  0  0  0
   -2.9255    4.5804    1.7607 H   0  0  0  0  0  0  0  0  0  0  0  0
   -1.1846    2.8286    1.6281 H   0  0  0  0  0  0  0  0  0  0  0  0
  1  2  1  0
  2  3  1  0
  3  4  1  0
  4  5  2  0
  4  6  1  0
  6  7  1  0
  7  8  1  0
  8  9  2  0
  9 10  1  0
 10 11  2  0
 11 12  1  0
 12 13  2  0
  3 14  2  0
 14 15  1  0
 15 16  1  0
 16 17  1  0
 17 18  1  0
 18 19  1  0
 19 20  1  0
 15 21  1  0
 21 22  1  0
 22 23  2  0
 23 24  1  0
 24 25  2  0
 25 26  1  0
 26 27  2  0
 21  2  2  0
 27 22  1  0
 13  8  1  0
  1 28  1  0
  1 29  1  0
  1 30  1  0
  6 31  1  0
  7 32  1  0
  7 33  1  0
  9 34  1  0
 10 35  1  0
 11 36  1  0
 12 37  1  0
 13 38  1  0
 16 39  1  0
 16 40  1  0
 17 41  1  0
 17 42  1  0
 18 43  1  0
 18 44  1  0
 19 45  1  0
 19 46  1  0
 20 47  1  0
 23 48  1  0
 24 49  1  0
 25 50  1  0
 26 51  1  0
 27 52  1  0
M  END
>  <_SMILES>  (178) 
Cc1c(C(=O)NCc2ccccc2)nn(CCCCO)c1-c1ccccc1

$$$$

     RDKit          3D

 57 62  0  0  0  0  0  0  0  0999 V2000
   -1.7254   -2.6929    1.5920 C   0  0  0  0  0  0  0  0  0  0  0  0
   -1.8993   -1.3996    0.8777 C   0  0  0  0  0  0  0  0  0  0  0  0
   -0.8669   -0.5732    0.3639 C   0  0  0  0  0  0  0  0  0  0  0  0
    0.5917   -0.8030    0.4193 C   0  0  0  0  0  0  0  0  0  0  0  0
    1.0917   -1.7904    0.9462 O   0  0  0  0  0  0  0  0  0  0  0  0
    1.3101    0.2078   -0.1818 N   0  0  0  0  0  0  0  0  0  0  0  0
    2.7628    0.2839   -0.2972 C   0  0  2  0  0  0  0  0  0  0  0  0
    3.4443    0.3237    1.0930 C   0  0  0  0  0  0  0  0  0  0  0  0
    4.9706    0.4526    0.9439 C   0  0  1  0  0  0  0  0  0  0  0  0
    5.5039   -0.7464    0.1414 C   0  0  0  0  0  0  0  0  0  0  0  0
    4.8604   -0.7769   -1.2554 C   0  0  2  0  0  0  0  0  0  0  0  0
    5.1901    0.5298   -1.9941 C   0  0  0  0  0  0  0  0  0  0  0  0
    4.6522    1.7311   -1.2009 C   0  0  2  0  0  0  0  0  0  0  0  0
    5.2997    1.7523    0.1926 C   0  0  0  0  0  0  0  0  0  0  0  0
    3.1293    1.5923   -1.0470 C   0  0  0  0  0  0  0  0  0  0  0  0
    3.3341   -0.9062   -1.1070 C   0  0  0  0  0  0  0  0  0  0  0  0
   -1.3685    0.5254   -0.2252 N   0  0  0  0  0  0  0  0  0  0  0  0
   -2.7226    0.4258   -0.1016 N   0  0  0  0  0  0  0  0  0  0  0  0
   -3.4423    1.4941   -0.6628 C   0  0  0  0  0  0  0  0  0  0  0  0
   -2.9064    2.5949   -1.3051 C   0  0  0  0  0  0  0  0  0  0  0  0
   -3.9157    3.4957   -1.7581 C   0  0  0  0  0  0  0  0  0  0  0  0
   -5.1793    3.0479   -1.4443 C   0  0  0  0  0  0  0  0  0  0  0  0
   -5.1365    1.5553   -0.6121 S   0  0  0  0  0  0  0  0  0  0  0  0
   -3.0837   -0.7416    0.5691 C   0  0  0  0  0  0  0  0  0  0  0  0
   -4.4409   -1.1784    0.8814 C   0  0  0  0  0  0  0  0  0  0  0  0
   -5.0336   -0.8216    2.0986 C   0  0  0  0  0  0  0  0  0  0  0  0
   -6.3214   -1.2627    2.4080 C   0  0  0  0  0  0  0  0  0  0  0  0
   -7.0176   -2.0695    1.5087 C   0  0  0  0  0  0  0  0  0  0  0  0
   -6.4270   -2.4406    0.3012 C   0  0  0  0  0  0  0  0  0  0  0  0
   -5.1394   -2.0009   -0.0108 C   0  0  0  0  0  0  0  0  0  0  0  0
   -2.6827   -3.1332    1.8861 H   0  0  0  0  0  0  0  0  0  0  0  0
   -1.1333   -2.5493    2.5016 H   0  0  0  0  0  0  0  0  0  0  0  0
   -1.2110   -3.4162    0.9511 H   0  0  0  0  0  0  0  0  0  0  0  0
    0.7312    0.9501   -0.5679 H   0  0  0  0  0  0  0  0  0  0  0  0
    3.0540    1.1648    1.6808 H   0  0  0  0  0  0  0  0  0  0  0  0
    3.2165   -0.5827    1.6664 H   0  0  0  0  0  0  0  0  0  0  0  0
    5.4376    0.4710    1.9350 H   0  0  0  0  0  0  0  0  0  0  0  0
    6.5948   -0.6786    0.0488 H   0  0  0  0  0  0  0  0  0  0  0  0
    5.2872   -1.6803    0.6744 H   0  0  0  0  0  0  0  0  0  0  0  0
    5.2492   -1.6298   -1.8229 H   0  0  0  0  0  0  0  0  0  0  0  0
    6.2752    0.6228   -2.1252 H   0  0  0  0  0  0  0  0  0  0  0  0
    4.7483    0.5148   -2.9980 H   0  0  0  0  0  0  0  0  0  0  0  0
    4.8875    2.6601   -1.7321 H   0  0  0  0  0  0  0  0  0  0  0  0
    6.3867    1.8663    0.0991 H   0  0  0  0  0  0  0  0  0  0  0  0
    4.9367    2.6167    0.7619 H   0  0  0  0  0  0  0  0  0  0  0  0
    2.6546    1.6053   -2.0374 H   0  0  0  0  0  0  0  0  0  0  0  0
    2.7314    2.4614   -0.5060 H   0  0  0  0  0  0  0  0  0  0  0  0
    3.1020   -1.8596   -0.6177 H   0  0  0  0  0  0  0  0  0  0  0  0
    2.8646   -0.9481   -2.0987 H   0  0  0  0  0  0  0  0  0  0  0  0
   -1.8438    2.7544   -1.4476 H   0  0  0  0  0  0  0  0  0  0  0  0
   -3.7229    4.4219   -2.2856 H   0  0  0  0  0  0  0  0  0  0  0  0
   -6.1258    3.5234   -1.6627 H   0  0  0  0  0  0  0  0  0  0  0  0
   -4.4976   -0.1980    2.8102 H   0  0  0  0  0  0  0  0  0  0  0  0
   -6.7803   -0.9784    3.3513 H   0  0  0  0  0  0  0  0  0  0  0  0
   -8.0204   -2.4125    1.7507 H   0  0  0  0  0  0  0  0  0  0  0  0
   -6.9681   -3.0739   -0.3969 H   0  0  0  0  0  0  0  0  0  0  0  0
   -4.6861   -2.3016   -0.9525 H   0  0  0  0  0  0  0  0  0  0  0  0
  1  2  1  0
  2  3  1  0
  3  4  1  0
  4  5  2  0
  4  6  1  0
  7  6  1  1
  7  8  1  0
  8  9  1  0
  9 10  1  0
 10 11  1  0
 11 12  1  0
 12 13  1  0
 13 14  1  0
 13 15  1  0
 11 16  1  0
  3 17  2  0
 17 18  1  0
 18 19  1  0
 19 20  2  0
 20 21  1  0
 21 22  2  0
 22 23  1  0
 18 24  1  0
 24 25  1  0
 25 26  2  0
 26 27  1  0
 27 28  2  0
 28 29  1  0
 29 30  2  0
 24  2  2  0
 30 25  1  0
 15  7  1  0
 23 19  1  0
 16  7  1  0
 14  9  1  0
  1 31  1  0
  1 32  1  0
  1 33  1  0
  6 34  1  0
  8 35  1  0
  8 36  1  0
  9 37  1  1
 10 38  1  0
 10 39  1  0
 11 40  1  6
 12 41  1  0
 12 42  1  0
 13 43  1  6
 14 44  1  0
 14 45  1  0
 15 46  1  0
 15 47  1  0
 16 48  1  0
 16 49  1  0
 20 50  1  0
 21 51  1  0
 22 52  1  0
 26 53  1  0
 27 54  1  0
 28 55  1  0
 29 56  1  0
 30 57  1  0
M  END
>  <_SMILES>  (179) 
Cc1c(C(=O)N[C@]23C[C@H]4C[C@H](C[C@H](C4)C2)C3)nn(-c2cccs2)c1-c1ccccc1

$$$$

     RDKit          3D

 49 52  0  0  0  0  0  0  0  0999 V2000
   -0.1740   -3.2120    0.6249 C   0  0  0  0  0  0  0  0  0  0  0  0
   -0.3923   -1.7750    0.3063 C   0  0  0  0  0  0  0  0  0  0  0  0
    0.6019   -0.8423   -0.0846 C   0  0  0  0  0  0  0  0  0  0  0  0
    2.0541   -1.0686   -0.2241 C   0  0  0  0  0  0  0  0  0  0  0  0
    2.6027   -2.1296    0.0570 O   0  0  0  0  0  0  0  0  0  0  0  0
    2.7301    0.0424   -0.6840 N   0  0  0  0  0  0  0  0  0  0  0  0
    4.1679    0.1186   -0.7067 C   0  0  0  0  0  0  0  0  0  0  0  0
    4.6811    1.2557   -1.5803 C   0  0  0  0  0  0  0  0  0  0  0  0
    6.1248    1.4113   -1.1278 C   0  0  0  0  0  0  0  0  0  0  0  0
    6.1149    1.0969    0.3673 C   0  0  0  0  0  0  0  0  0  0  0  0
    4.7667    0.4396    0.6617 C   0  0  0  0  0  0  0  0  0  0  0  0
    0.0650    0.3593   -0.3498 N   0  0  0  0  0  0  0  0  0  0  0  0
   -1.2637    0.2450   -0.0655 N   0  0  0  0  0  0  0  0  0  0  0  0
   -2.0740    1.4257   -0.1502 C   0  0  0  0  0  0  0  0  0  0  0  0
   -1.5440    2.5666   -0.7824 C   0  0  0  0  0  0  0  0  0  0  0  0
   -2.2936    3.7412   -0.8903 C   0  0  0  0  0  0  0  0  0  0  0  0
   -3.5783    3.7974   -0.3604 C   0  0  0  0  0  0  0  0  0  0  0  0
   -4.1089    2.6828    0.2832 C   0  0  0  0  0  0  0  0  0  0  0  0
   -3.3616    1.5040    0.3932 C   0  0  0  0  0  0  0  0  0  0  0  0
   -1.5899   -1.0680    0.2831 C   0  0  0  0  0  0  0  0  0  0  0  0
   -2.9317   -1.6056    0.4966 C   0  0  0  0  0  0  0  0  0  0  0  0
   -3.3392   -1.9976    1.7784 C   0  0  0  0  0  0  0  0  0  0  0  0
   -4.6153   -2.5264    1.9801 C   0  0  0  0  0  0  0  0  0  0  0  0
   -5.4872   -2.6747    0.9022 C   0  0  0  0  0  0  0  0  0  0  0  0
   -5.0839   -2.2999   -0.3789 C   0  0  0  0  0  0  0  0  0  0  0  0
   -3.8081   -1.7713   -0.5834 C   0  0  0  0  0  0  0  0  0  0  0  0
    0.4155   -3.3113    1.5419 H   0  0  0  0  0  0  0  0  0  0  0  0
   -1.1143   -3.7511    0.7708 H   0  0  0  0  0  0  0  0  0  0  0  0
    0.3626   -3.7084   -0.1902 H   0  0  0  0  0  0  0  0  0  0  0  0
    2.1613    0.8838   -0.7422 H   0  0  0  0  0  0  0  0  0  0  0  0
    4.5673   -0.8394   -1.0641 H   0  0  0  0  0  0  0  0  0  0  0  0
    4.6018    1.0308   -2.6483 H   0  0  0  0  0  0  0  0  0  0  0  0
    4.1238    2.1818   -1.3910 H   0  0  0  0  0  0  0  0  0  0  0  0
    6.7601    0.6871   -1.6517 H   0  0  0  0  0  0  0  0  0  0  0  0
    6.5181    2.4104   -1.3378 H   0  0  0  0  0  0  0  0  0  0  0  0
    6.9458    0.4312    0.6245 H   0  0  0  0  0  0  0  0  0  0  0  0
    6.2309    2.0093    0.9625 H   0  0  0  0  0  0  0  0  0  0  0  0
    4.8737   -0.4553    1.2835 H   0  0  0  0  0  0  0  0  0  0  0  0
    4.1286    1.1417    1.2134 H   0  0  0  0  0  0  0  0  0  0  0  0
   -0.5445    2.5554   -1.2131 H   0  0  0  0  0  0  0  0  0  0  0  0
   -1.8709    4.6097   -1.3888 H   0  0  0  0  0  0  0  0  0  0  0  0
   -4.1625    4.7102   -0.4415 H   0  0  0  0  0  0  0  0  0  0  0  0
   -5.1074    2.7296    0.7119 H   0  0  0  0  0  0  0  0  0  0  0  0
   -3.8167    0.6890    0.9418 H   0  0  0  0  0  0  0  0  0  0  0  0
   -2.6656   -1.8907    2.6258 H   0  0  0  0  0  0  0  0  0  0  0  0
   -4.9274   -2.8261    2.9772 H   0  0  0  0  0  0  0  0  0  0  0  0
   -6.4800   -3.0890    1.0594 H   0  0  0  0  0  0  0  0  0  0  0  0
   -5.7611   -2.4232   -1.2203 H   0  0  0  0  0  0  0  0  0  0  0  0
   -3.5026   -1.4910   -1.5892 H   0  0  0  0  0  0  0  0  0  0  0  0
  1  2  1  0
  2  3  1  0
  3  4  1  0
  4  5  2  0
  4  6  1  0
  6  7  1  0
  7  8  1  0
  8  9  1  0
  9 10  1  0
 10 11  1  0
  3 12  2  0
 12 13  1  0
 13 14  1  0
 14 15  2  0
 15 16  1  0
 16 17  2  0
 17 18  1  0
 18 19  2  0
 13 20  1  0
 20 21  1  0
 21 22  2  0
 22 23  1  0
 23 24  2  0
 24 25  1  0
 25 26  2  0
 20  2  2  0
 26 21  1  0
 11  7  1  0
 19 14  1  0
  1 27  1  0
  1 28  1  0
  1 29  1  0
  6 30  1  0
  7 31  1  0
  8 32  1  0
  8 33  1  0
  9 34  1  0
  9 35  1  0
 10 36  1  0
 10 37  1  0
 11 38  1  0
 11 39  1  0
 15 40  1  0
 16 41  1  0
 17 42  1  0
 18 43  1  0
 19 44  1  0
 22 45  1  0
 23 46  1  0
 24 47  1  0
 25 48  1  0
 26 49  1  0
M  END
>  <_SMILES>  (180) 
Cc1c(C(=O)NC2CCCC2)nn(-c2ccccc2)c1-c1ccccc1

$$$$

     RDKit          3D

 59 63  0  0  0  0  0  0  0  0999 V2000
   -1.0695   -0.8481   -1.9849 C   0  0  0  0  0  0  0  0  0  0  0  0
   -1.6431    0.0294   -0.9313 C   0  0  0  0  0  0  0  0  0  0  0  0
   -0.9569    1.0140   -0.1492 C   0  0  0  0  0  0  0  0  0  0  0  0
    0.4799    1.3526   -0.1651 C   0  0  0  0  0  0  0  0  0  0  0  0
    0.8927    2.5075   -0.1627 O   0  0  0  0  0  0  0  0  0  0  0  0
    1.3053    0.2397   -0.1580 N   0  0  0  0  0  0  0  0  0  0  0  0
    2.7648    0.2886   -0.0473 C   0  0  2  0  0  0  0  0  0  0  0  0
    3.4110    1.0747   -1.2165 C   0  0  0  0  0  0  0  0  0  0  0  0
    4.9455    1.0590   -1.0976 C   0  0  1  0  0  0  0  0  0  0  0  0
    5.3551    1.6924    0.2431 C   0  0  0  0  0  0  0  0  0  0  0  0
    4.7499    0.8966    1.4120 C   0  0  2  0  0  0  0  0  0  0  0  0
    5.2491   -0.5557    1.3482 C   0  0  0  0  0  0  0  0  0  0  0  0
    4.8352   -1.1952    0.0135 C   0  0  2  0  0  0  0  0  0  0  0  0
    5.4447   -0.3932   -1.1463 C   0  0  0  0  0  0  0  0  0  0  0  0
    3.3032   -1.1672   -0.1051 C   0  0  0  0  0  0  0  0  0  0  0  0
    3.2153    0.9126    1.2961 C   0  0  0  0  0  0  0  0  0  0  0  0
   -1.8083    1.6419    0.6775 N   0  0  0  0  0  0  0  0  0  0  0  0
   -2.9968    1.0656    0.4517 N   0  0  0  0  0  0  0  0  0  0  0  0
   -4.1270    1.5092    1.2450 C   0  0  0  0  0  0  0  0  0  0  0  0
   -4.5646    0.5321    2.3250 C   0  0  0  0  0  0  0  0  0  0  0  0
   -3.4760    0.2362    3.3274 C   0  0  0  0  0  0  0  0  0  0  0  0
   -2.4567   -0.4608    2.7892 F   0  0  0  0  0  0  0  0  0  0  0  0
   -2.9912    1.3625    3.8850 F   0  0  0  0  0  0  0  0  0  0  0  0
   -3.9833   -0.5218    4.3305 F   0  0  0  0  0  0  0  0  0  0  0  0
   -2.9663    0.0935   -0.5169 C   0  0  0  0  0  0  0  0  0  0  0  0
   -4.1222   -0.6807   -0.9522 C   0  0  0  0  0  0  0  0  0  0  0  0
   -4.2387   -2.0282   -0.5921 C   0  0  0  0  0  0  0  0  0  0  0  0
   -5.3458   -2.7729   -1.0023 C   0  0  0  0  0  0  0  0  0  0  0  0
   -6.3375   -2.1769   -1.7802 C   0  0  0  0  0  0  0  0  0  0  0  0
   -6.2218   -0.8383   -2.1526 C   0  0  0  0  0  0  0  0  0  0  0  0
   -5.1157   -0.0920   -1.7423 C   0  0  0  0  0  0  0  0  0  0  0  0
   -1.8260   -1.1337   -2.7228 H   0  0  0  0  0  0  0  0  0  0  0  0
   -0.2646   -0.3401   -2.5255 H   0  0  0  0  0  0  0  0  0  0  0  0
   -0.6656   -1.7621   -1.5382 H   0  0  0  0  0  0  0  0  0  0  0  0
    0.8522   -0.6245    0.1096 H   0  0  0  0  0  0  0  0  0  0  0  0
    3.1056    0.6400   -2.1774 H   0  0  0  0  0  0  0  0  0  0  0  0
    3.0701    2.1160   -1.2295 H   0  0  0  0  0  0  0  0  0  0  0  0
    5.3851    1.6279   -1.9246 H   0  0  0  0  0  0  0  0  0  0  0  0
    5.0163    2.7349    0.2842 H   0  0  0  0  0  0  0  0  0  0  0  0
    6.4486    1.7096    0.3294 H   0  0  0  0  0  0  0  0  0  0  0  0
    5.0523    1.3492    2.3630 H   0  0  0  0  0  0  0  0  0  0  0  0
    6.3407   -0.5816    1.4536 H   0  0  0  0  0  0  0  0  0  0  0  0
    4.8348   -1.1317    2.1848 H   0  0  0  0  0  0  0  0  0  0  0  0
    5.1907   -2.2309   -0.0262 H   0  0  0  0  0  0  0  0  0  0  0  0
    5.1711   -0.8519   -2.1045 H   0  0  0  0  0  0  0  0  0  0  0  0
    6.5396   -0.4159   -1.0835 H   0  0  0  0  0  0  0  0  0  0  0  0
    2.9944   -1.6464   -1.0439 H   0  0  0  0  0  0  0  0  0  0  0  0
    2.8611   -1.7656    0.7029 H   0  0  0  0  0  0  0  0  0  0  0  0
    2.8596    1.9460    1.3857 H   0  0  0  0  0  0  0  0  0  0  0  0
    2.7717    0.3616    2.1358 H   0  0  0  0  0  0  0  0  0  0  0  0
   -4.9535    1.7053    0.5534 H   0  0  0  0  0  0  0  0  0  0  0  0
   -3.8628    2.4755    1.6926 H   0  0  0  0  0  0  0  0  0  0  0  0
   -5.4250    0.9605    2.8523 H   0  0  0  0  0  0  0  0  0  0  0  0
   -4.9073   -0.4085    1.8821 H   0  0  0  0  0  0  0  0  0  0  0  0
   -3.4700   -2.5039    0.0131 H   0  0  0  0  0  0  0  0  0  0  0  0
   -5.4329   -3.8186   -0.7181 H   0  0  0  0  0  0  0  0  0  0  0  0
   -7.1977   -2.7583   -2.1031 H   0  0  0  0  0  0  0  0  0  0  0  0
   -6.9897   -0.3773   -2.7690 H   0  0  0  0  0  0  0  0  0  0  0  0
   -5.0290    0.9471   -2.0525 H   0  0  0  0  0  0  0  0  0  0  0  0
  1  2  1  0
  2  3  1  0
  3  4  1  0
  4  5  2  0
  4  6  1  0
  7  6  1  6
  7  8  1  0
  8  9  1  0
  9 10  1  0
 10 11  1  0
 11 12  1  0
 12 13  1  0
 13 14  1  0
 13 15  1  0
 11 16  1  0
  3 17  2  0
 17 18  1  0
 18 19  1  0
 19 20  1  0
 20 21  1  0
 21 22  1  0
 21 23  1  0
 21 24  1  0
 18 25  1  0
 25 26  1  0
 26 27  2  0
 27 28  1  0
 28 29  2  0
 29 30  1  0
 30 31  2  0
 25  2  2  0
 31 26  1  0
 15  7  1  0
 16  7  1  0
 14  9  1  0
  1 32  1  0
  1 33  1  0
  1 34  1  0
  6 35  1  0
  8 36  1  0
  8 37  1  0
  9 38  1  6
 10 39  1  0
 10 40  1  0
 11 41  1  1
 12 42  1  0
 12 43  1  0
 13 44  1  1
 14 45  1  0
 14 46  1  0
 15 47  1  0
 15 48  1  0
 16 49  1  0
 16 50  1  0
 19 51  1  0
 19 52  1  0
 20 53  1  0
 20 54  1  0
 27 55  1  0
 28 56  1  0
 29 57  1  0
 30 58  1  0
 31 59  1  0
M  END
>  <_SMILES>  (181) 
Cc1c(C(=O)N[C@]23C[C@H]4C[C@H](C[C@H](C4)C2)C3)nn(CCC(F)(F)F)c1-c1ccccc1

$$$$

     RDKit          3D

 49 51  0  0  0  0  0  0  0  0999 V2000
    0.1943    1.8193   -0.9442 C   0  0  0  0  0  0  0  0  0  0  0  0
   -0.4430    0.5826   -0.4210 C   0  0  0  0  0  0  0  0  0  0  0  0
    0.1876   -0.6674   -0.1144 C   0  0  0  0  0  0  0  0  0  0  0  0
    1.6235   -1.0118   -0.1966 C   0  0  0  0  0  0  0  0  0  0  0  0
    2.0113   -2.0450   -0.7313 O   0  0  0  0  0  0  0  0  0  0  0  0
    2.4317   -0.0574    0.4047 N   0  0  0  0  0  0  0  0  0  0  0  0
    3.8379   -0.0353    0.4742 C   0  0  0  0  0  0  0  0  0  0  0  0
    4.4244    1.0047    1.2060 C   0  0  0  0  0  0  0  0  0  0  0  0
    5.8151    1.1046    1.3196 C   0  0  0  0  0  0  0  0  0  0  0  0
    6.6495    0.1687    0.6945 C   0  0  0  0  0  0  0  0  0  0  0  0
    8.1492    0.2599    0.8341 C   0  0  0  0  0  0  0  0  0  0  0  0
    8.8220   -0.2817   -0.2191 F   0  0  0  0  0  0  0  0  0  0  0  0
    8.6064   -0.3836    1.9431 F   0  0  0  0  0  0  0  0  0  0  0  0
    8.5952    1.5437    0.9373 F   0  0  0  0  0  0  0  0  0  0  0  0
    6.0593   -0.8740   -0.0319 C   0  0  0  0  0  0  0  0  0  0  0  0
    4.6668   -0.9718   -0.1442 C   0  0  0  0  0  0  0  0  0  0  0  0
   -0.7173   -1.5699    0.2986 N   0  0  0  0  0  0  0  0  0  0  0  0
   -1.8943   -0.9244    0.2498 N   0  0  0  0  0  0  0  0  0  0  0  0
   -3.0956   -1.6529    0.6231 C   0  0  0  0  0  0  0  0  0  0  0  0
   -3.6313   -2.4909   -0.5306 C   0  0  0  0  0  0  0  0  0  0  0  0
   -4.8597   -3.2802   -0.1103 C   0  0  0  0  0  0  0  0  0  0  0  0
   -5.3643   -4.0121   -1.2186 O   0  0  0  0  0  0  0  0  0  0  0  0
   -1.7897    0.3827   -0.1543 C   0  0  0  0  0  0  0  0  0  0  0  0
   -2.9168    1.2966   -0.2820 C   0  0  0  0  0  0  0  0  0  0  0  0
   -3.2261    2.1797    0.7582 C   0  0  0  0  0  0  0  0  0  0  0  0
   -4.3093    3.0522    0.6392 C   0  0  0  0  0  0  0  0  0  0  0  0
   -5.0844    3.0481   -0.5199 C   0  0  0  0  0  0  0  0  0  0  0  0
   -4.7763    2.1749   -1.5625 C   0  0  0  0  0  0  0  0  0  0  0  0
   -3.6933    1.3022   -1.4456 C   0  0  0  0  0  0  0  0  0  0  0  0
   -0.5081    2.4089   -1.5418 H   0  0  0  0  0  0  0  0  0  0  0  0
    0.5463    2.4430   -0.1166 H   0  0  0  0  0  0  0  0  0  0  0  0
    1.0476    1.5808   -1.5870 H   0  0  0  0  0  0  0  0  0  0  0  0
    1.9456    0.6729    0.9077 H   0  0  0  0  0  0  0  0  0  0  0  0
    3.8098    1.7512    1.7033 H   0  0  0  0  0  0  0  0  0  0  0  0
    6.2459    1.9198    1.8997 H   0  0  0  0  0  0  0  0  0  0  0  0
    6.6808   -1.6234   -0.5212 H   0  0  0  0  0  0  0  0  0  0  0  0
    4.2648   -1.7970   -0.7249 H   0  0  0  0  0  0  0  0  0  0  0  0
   -2.8340   -2.2868    1.4791 H   0  0  0  0  0  0  0  0  0  0  0  0
   -3.8441   -0.9337    0.9707 H   0  0  0  0  0  0  0  0  0  0  0  0
   -3.8798   -1.8540   -1.3884 H   0  0  0  0  0  0  0  0  0  0  0  0
   -2.8608   -3.1818   -0.8963 H   0  0  0  0  0  0  0  0  0  0  0  0
   -4.6269   -3.9846    0.6948 H   0  0  0  0  0  0  0  0  0  0  0  0
   -5.6526   -2.6112    0.2383 H   0  0  0  0  0  0  0  0  0  0  0  0
   -4.6673   -4.6265   -1.5089 H   0  0  0  0  0  0  0  0  0  0  0  0
   -2.6279    2.1915    1.6661 H   0  0  0  0  0  0  0  0  0  0  0  0
   -4.5484    3.7357    1.4499 H   0  0  0  0  0  0  0  0  0  0  0  0
   -5.9277    3.7281   -0.6126 H   0  0  0  0  0  0  0  0  0  0  0  0
   -5.3781    2.1749   -2.4679 H   0  0  0  0  0  0  0  0  0  0  0  0
   -3.4580    0.6306   -2.2683 H   0  0  0  0  0  0  0  0  0  0  0  0
  1  2  1  0
  2  3  1  0
  3  4  1  0
  4  5  2  0
  4  6  1  0
  6  7  1  0
  7  8  1  0
  8  9  2  0
  9 10  1  0
 10 11  1  0
 11 12  1  0
 11 13  1  0
 11 14  1  0
 10 15  2  0
 15 16  1  0
  3 17  2  0
 17 18  1  0
 18 19  1  0
 19 20  1  0
 20 21  1  0
 21 22  1  0
 18 23  1  0
 23 24  1  0
 24 25  2  0
 25 26  1  0
 26 27  2  0
 27 28  1  0
 28 29  2  0
 23  2  2  0
 29 24  1  0
 16  7  2  0
  1 30  1  0
  1 31  1  0
  1 32  1  0
  6 33  1  0
  8 34  1  0
  9 35  1  0
 15 36  1  0
 16 37  1  0
 19 38  1  0
 19 39  1  0
 20 40  1  0
 20 41  1  0
 21 42  1  0
 21 43  1  0
 22 44  1  0
 25 45  1  0
 26 46  1  0
 27 47  1  0
 28 48  1  0
 29 49  1  0
M  END
>  <_SMILES>  (182) 
Cc1c(C(=O)Nc2ccc(C(F)(F)F)cc2)nn(CCCO)c1-c1ccccc1

$$$$

     RDKit          3D

 60 64  0  0  0  0  0  0  0  0999 V2000
   -7.0673    1.9134   -0.8199 C   0  0  0  0  0  0  0  0  0  0  0  0
   -6.4060    2.6367    0.2095 O   0  0  0  0  0  0  0  0  0  0  0  0
   -5.7612    1.7977    1.1660 C   0  0  0  0  0  0  0  0  0  0  0  0
   -4.4023    1.3259    0.6628 C   0  0  0  0  0  0  0  0  0  0  0  0
   -3.6944    0.4853    1.7182 C   0  0  0  0  0  0  0  0  0  0  0  0
   -2.4073   -0.0054    1.2546 N   0  0  0  0  0  0  0  0  0  0  0  0
   -1.3043    0.7023    1.5532 N   0  0  0  0  0  0  0  0  0  0  0  0
   -0.2890    0.0272    0.9853 C   0  0  0  0  0  0  0  0  0  0  0  0
    1.1115    0.4940    1.0981 C   0  0  0  0  0  0  0  0  0  0  0  0
    1.4735    1.3194    1.9314 O   0  0  0  0  0  0  0  0  0  0  0  0
    1.9789   -0.0683    0.1725 N   0  0  0  0  0  0  0  0  0  0  0  0
    3.3924    0.2949    0.0289 C   0  0  2  0  0  0  0  0  0  0  0  0
    4.0058   -0.5818   -1.0979 C   0  0  0  0  0  0  0  0  0  0  0  0
    5.4912   -0.2500   -1.3109 C   0  0  1  0  0  0  0  0  0  0  0  0
    5.6266    1.2318   -1.6947 C   0  0  0  0  0  0  0  0  0  0  0  0
    5.0511    2.1178   -0.5786 C   0  0  2  0  0  0  0  0  0  0  0  0
    5.8149    1.8465    0.7288 C   0  0  0  0  0  0  0  0  0  0  0  0
    5.6850    0.3647    1.1208 C   0  0  2  0  0  0  0  0  0  0  0  0
    6.2575   -0.5101   -0.0051 C   0  0  0  0  0  0  0  0  0  0  0  0
    4.1980    0.0237    1.3251 C   0  0  0  0  0  0  0  0  0  0  0  0
    3.5633    1.7797   -0.3765 C   0  0  0  0  0  0  0  0  0  0  0  0
   -0.7862   -1.1286    0.3194 C   0  0  0  0  0  0  0  0  0  0  0  0
   -2.1530   -1.1321    0.5128 C   0  0  0  0  0  0  0  0  0  0  0  0
   -3.1575   -2.0773    0.0503 C   0  0  0  0  0  0  0  0  0  0  0  0
   -3.5851   -2.0516   -1.2817 C   0  0  0  0  0  0  0  0  0  0  0  0
   -4.5529   -2.9537   -1.7272 C   0  0  0  0  0  0  0  0  0  0  0  0
   -5.0927   -3.8894   -0.8456 C   0  0  0  0  0  0  0  0  0  0  0  0
   -4.6638   -3.9268    0.4806 C   0  0  0  0  0  0  0  0  0  0  0  0
   -3.6966   -3.0247    0.9277 C   0  0  0  0  0  0  0  0  0  0  0  0
   -7.8219    1.2440   -0.3960 H   0  0  0  0  0  0  0  0  0  0  0  0
   -6.3541    1.3447   -1.4221 H   0  0  0  0  0  0  0  0  0  0  0  0
   -7.5704    2.6322   -1.4725 H   0  0  0  0  0  0  0  0  0  0  0  0
   -5.6235    2.3997    2.0709 H   0  0  0  0  0  0  0  0  0  0  0  0
   -6.4092    0.9543    1.4329 H   0  0  0  0  0  0  0  0  0  0  0  0
   -3.7903    2.1948    0.3891 H   0  0  0  0  0  0  0  0  0  0  0  0
   -4.5216    0.7515   -0.2621 H   0  0  0  0  0  0  0  0  0  0  0  0
   -4.2997   -0.3794    2.0090 H   0  0  0  0  0  0  0  0  0  0  0  0
   -3.5146    1.0724    2.6269 H   0  0  0  0  0  0  0  0  0  0  0  0
    1.5567   -0.5677   -0.5964 H   0  0  0  0  0  0  0  0  0  0  0  0
    3.8952   -1.6460   -0.8499 H   0  0  0  0  0  0  0  0  0  0  0  0
    3.4567   -0.4282   -2.0367 H   0  0  0  0  0  0  0  0  0  0  0  0
    5.8998   -0.8778   -2.1106 H   0  0  0  0  0  0  0  0  0  0  0  0
    6.6816    1.4802   -1.8640 H   0  0  0  0  0  0  0  0  0  0  0  0
    5.0989    1.4252   -2.6367 H   0  0  0  0  0  0  0  0  0  0  0  0
    5.1548    3.1730   -0.8550 H   0  0  0  0  0  0  0  0  0  0  0  0
    5.4217    2.4825    1.5314 H   0  0  0  0  0  0  0  0  0  0  0  0
    6.8728    2.1086    0.6046 H   0  0  0  0  0  0  0  0  0  0  0  0
    6.2366    0.1784    2.0491 H   0  0  0  0  0  0  0  0  0  0  0  0
    7.3231   -0.2910   -0.1454 H   0  0  0  0  0  0  0  0  0  0  0  0
    6.1837   -1.5697    0.2689 H   0  0  0  0  0  0  0  0  0  0  0  0
    3.8131    0.6171    2.1619 H   0  0  0  0  0  0  0  0  0  0  0  0
    4.0927   -1.0283    1.6212 H   0  0  0  0  0  0  0  0  0  0  0  0
    3.1462    2.4451    0.3885 H   0  0  0  0  0  0  0  0  0  0  0  0
    3.0050    1.9855   -1.2993 H   0  0  0  0  0  0  0  0  0  0  0  0
   -0.2240   -1.8819   -0.2134 H   0  0  0  0  0  0  0  0  0  0  0  0
   -3.1708   -1.3261   -1.9782 H   0  0  0  0  0  0  0  0  0  0  0  0
   -4.8834   -2.9286   -2.7625 H   0  0  0  0  0  0  0  0  0  0  0  0
   -5.8439   -4.5941   -1.1937 H   0  0  0  0  0  0  0  0  0  0  0  0
   -5.0785   -4.6620    1.1657 H   0  0  0  0  0  0  0  0  0  0  0  0
   -3.3625   -3.0698    1.9620 H   0  0  0  0  0  0  0  0  0  0  0  0
  1  2  1  0
  2  3  1  0
  3  4  1  0
  4  5  1  0
  5  6  1  0
  6  7  1  0
  7  8  2  0
  8  9  1  0
  9 10  2  0
  9 11  1  0
 12 11  1  1
 12 13  1  0
 13 14  1  0
 14 15  1  0
 15 16  1  0
 16 17  1  0
 17 18  1  0
 18 19  1  0
 18 20  1  0
 16 21  1  0
  8 22  1  0
 22 23  2  0
 23 24  1  0
 24 25  2  0
 25 26  1  0
 26 27  2  0
 27 28  1  0
 28 29  2  0
 23  6  1  0
 29 24  1  0
 20 12  1  0
 21 12  1  0
 19 14  1  0
  1 30  1  0
  1 31  1  0
  1 32  1  0
  3 33  1  0
  3 34  1  0
  4 35  1  0
  4 36  1  0
  5 37  1  0
  5 38  1  0
 11 39  1  0
 13 40  1  0
 13 41  1  0
 14 42  1  6
 15 43  1  0
 15 44  1  0
 16 45  1  6
 17 46  1  0
 17 47  1  0
 18 48  1  1
 19 49  1  0
 19 50  1  0
 20 51  1  0
 20 52  1  0
 21 53  1  0
 21 54  1  0
 22 55  1  0
 25 56  1  0
 26 57  1  0
 27 58  1  0
 28 59  1  0
 29 60  1  0
M  END
>  <_SMILES>  (183) 
COCCCn1nc(C(=O)N[C@]23C[C@H]4C[C@H](C[C@H](C4)C2)C3)cc1-c1ccccc1

$$$$

     RDKit          3D

 64 69  0  0  0  0  0  0  0  0999 V2000
    0.5932   -3.1887   -2.0863 C   0  0  0  0  0  0  0  0  0  0  0  0
    0.9809   -2.1005   -1.1521 C   0  0  0  0  0  0  0  0  0  0  0  0
    0.1172   -1.1174   -0.5816 C   0  0  0  0  0  0  0  0  0  0  0  0
   -1.3372   -0.9575   -0.7861 C   0  0  0  0  0  0  0  0  0  0  0  0
   -1.9971   -1.6981   -1.5070 O   0  0  0  0  0  0  0  0  0  0  0  0
   -1.8537    0.1091   -0.0827 N   0  0  0  0  0  0  0  0  0  0  0  0
   -3.2424    0.5546   -0.0819 C   0  0  2  0  0  0  0  0  0  0  0  0
   -4.1944   -0.5439    0.4527 C   0  0  0  0  0  0  0  0  0  0  0  0
   -5.6455   -0.0324    0.4878 C   0  0  1  0  0  0  0  0  0  0  0  0
   -5.7306    1.1915    1.4133 C   0  0  0  0  0  0  0  0  0  0  0  0
   -4.8099    2.3070    0.8941 C   0  0  2  0  0  0  0  0  0  0  0  0
   -5.2439    2.7058   -0.5252 C   0  0  0  0  0  0  0  0  0  0  0  0
   -5.1561    1.4906   -1.4619 C   0  0  2  0  0  0  0  0  0  0  0  0
   -6.0729    0.3748   -0.9326 C   0  0  0  0  0  0  0  0  0  0  0  0
   -3.7049    0.9796   -1.4975 C   0  0  0  0  0  0  0  0  0  0  0  0
   -3.3638    1.7881    0.8519 C   0  0  0  0  0  0  0  0  0  0  0  0
    0.7997   -0.2780    0.2244 N   0  0  0  0  0  0  0  0  0  0  0  0
    2.0710   -0.7178    0.1629 N   0  0  0  0  0  0  0  0  0  0  0  0
    3.0870   -0.0193    0.9358 C   0  0  0  0  0  0  0  0  0  0  0  0
    3.6496    1.1861    0.1848 C   0  0  0  0  0  0  0  0  0  0  0  0
    4.8407    1.8258    0.8994 C   0  0  0  0  0  0  0  0  0  0  0  0
    4.4710    2.4492    2.2088 C   0  0  1  0  0  0  0  0  0  0  0  0
    5.0366    3.7835    2.6217 C   0  0  0  0  0  0  0  0  0  0  0  0
    3.7059    3.6539    2.1005 O   0  0  0  0  0  0  0  0  0  0  0  0
    2.2402   -1.8127   -0.6485 C   0  0  0  0  0  0  0  0  0  0  0  0
    3.5184   -2.4711   -0.8822 C   0  0  0  0  0  0  0  0  0  0  0  0
    4.3507   -2.0454   -1.9228 C   0  0  0  0  0  0  0  0  0  0  0  0
    5.5786   -2.6725   -2.1410 C   0  0  0  0  0  0  0  0  0  0  0  0
    5.9769   -3.7297   -1.3235 C   0  0  0  0  0  0  0  0  0  0  0  0
    5.1473   -4.1640   -0.2902 C   0  0  0  0  0  0  0  0  0  0  0  0
    3.9192   -3.5379   -0.0706 C   0  0  0  0  0  0  0  0  0  0  0  0
   -0.1472   -3.8467   -1.6200 H   0  0  0  0  0  0  0  0  0  0  0  0
    0.1618   -2.7709   -3.0015 H   0  0  0  0  0  0  0  0  0  0  0  0
    1.4509   -3.8043   -2.3739 H   0  0  0  0  0  0  0  0  0  0  0  0
   -1.1528    0.6214    0.4500 H   0  0  0  0  0  0  0  0  0  0  0  0
   -4.1473   -1.4419   -0.1747 H   0  0  0  0  0  0  0  0  0  0  0  0
   -3.8838   -0.8557    1.4586 H   0  0  0  0  0  0  0  0  0  0  0  0
   -6.3062   -0.8233    0.8601 H   0  0  0  0  0  0  0  0  0  0  0  0
   -6.7653    1.5524    1.4634 H   0  0  0  0  0  0  0  0  0  0  0  0
   -5.4415    0.9109    2.4336 H   0  0  0  0  0  0  0  0  0  0  0  0
   -4.8721    3.1765    1.5578 H   0  0  0  0  0  0  0  0  0  0  0  0
   -4.6046    3.5148   -0.8995 H   0  0  0  0  0  0  0  0  0  0  0  0
   -6.2701    3.0929   -0.5084 H   0  0  0  0  0  0  0  0  0  0  0  0
   -5.4701    1.7793   -2.4713 H   0  0  0  0  0  0  0  0  0  0  0  0
   -6.0297   -0.4943   -1.6006 H   0  0  0  0  0  0  0  0  0  0  0  0
   -7.1145    0.7189   -0.9252 H   0  0  0  0  0  0  0  0  0  0  0  0
   -3.0431    1.7618   -1.8919 H   0  0  0  0  0  0  0  0  0  0  0  0
   -3.6383    0.1394   -2.1989 H   0  0  0  0  0  0  0  0  0  0  0  0
   -3.0344    1.5271    1.8667 H   0  0  0  0  0  0  0  0  0  0  0  0
   -2.6938    2.5882    0.5095 H   0  0  0  0  0  0  0  0  0  0  0  0
    3.8777   -0.7341    1.1851 H   0  0  0  0  0  0  0  0  0  0  0  0
    2.6171    0.2848    1.8782 H   0  0  0  0  0  0  0  0  0  0  0  0
    2.8573    1.9301    0.0342 H   0  0  0  0  0  0  0  0  0  0  0  0
    3.9754    0.8755   -0.8154 H   0  0  0  0  0  0  0  0  0  0  0  0
    5.6217    1.0754    1.0691 H   0  0  0  0  0  0  0  0  0  0  0  0
    5.2752    2.5825    0.2342 H   0  0  0  0  0  0  0  0  0  0  0  0
    4.2081    1.7410    2.9828 H   0  0  0  0  0  0  0  0  0  0  0  0
    5.1378    3.9950    3.6789 H   0  0  0  0  0  0  0  0  0  0  0  0
    5.7754    4.2630    1.9922 H   0  0  0  0  0  0  0  0  0  0  0  0
    4.0439   -1.2284   -2.5719 H   0  0  0  0  0  0  0  0  0  0  0  0
    6.2210   -2.3405   -2.9525 H   0  0  0  0  0  0  0  0  0  0  0  0
    6.9311   -4.2209   -1.4969 H   0  0  0  0  0  0  0  0  0  0  0  0
    5.4538   -4.9942    0.3411 H   0  0  0  0  0  0  0  0  0  0  0  0
    3.2750   -3.8885    0.7326 H   0  0  0  0  0  0  0  0  0  0  0  0
  1  2  1  0
  2  3  1  0
  3  4  1  0
  4  5  2  0
  4  6  1  0
  7  6  1  6
  7  8  1  0
  8  9  1  0
  9 10  1  0
 10 11  1  0
 11 12  1  0
 12 13  1  0
 13 14  1  0
 13 15  1  0
 11 16  1  0
  3 17  2  0
 17 18  1  0
 18 19  1  0
 19 20  1  0
 20 21  1  0
 21 22  1  0
 22 23  1  0
 23 24  1  0
 18 25  1  0
 25 26  1  0
 26 27  2  0
 27 28  1  0
 28 29  2  0
 29 30  1  0
 30 31  2  0
 25  2  2  0
 31 26  1  0
 15  7  1  0
 24 22  1  0
 16  7  1  0
 14  9  1  0
  1 32  1  0
  1 33  1  0
  1 34  1  0
  6 35  1  0
  8 36  1  0
  8 37  1  0
  9 38  1  1
 10 39  1  0
 10 40  1  0
 11 41  1  1
 12 42  1  0
 12 43  1  0
 13 44  1  6
 14 45  1  0
 14 46  1  0
 15 47  1  0
 15 48  1  0
 16 49  1  0
 16 50  1  0
 19 51  1  0
 19 52  1  0
 20 53  1  0
 20 54  1  0
 21 55  1  0
 21 56  1  0
 22 57  1  1
 23 58  1  0
 23 59  1  0
 27 60  1  0
 28 61  1  0
 29 62  1  0
 30 63  1  0
 31 64  1  0
M  END
>  <_SMILES>  (184) 
Cc1c(C(=O)N[C@]23C[C@H]4C[C@H](C[C@H](C4)C2)C3)nn(CCC[C@H]2CO2)c1-c1ccccc1

$$$$

     RDKit          3D

 64 69  0  0  0  0  0  0  0  0999 V2000
    0.1851   -2.4973   -0.2252 C   0  0  0  0  0  0  0  0  0  0  0  0
    0.8661   -1.1834   -0.0889 C   0  0  0  0  0  0  0  0  0  0  0  0
    0.3402    0.1125   -0.4038 C   0  0  0  0  0  0  0  0  0  0  0  0
   -1.0112    0.4578   -0.8904 C   0  0  0  0  0  0  0  0  0  0  0  0
   -1.2116    1.2882   -1.7709 O   0  0  0  0  0  0  0  0  0  0  0  0
   -2.0246   -0.2263   -0.2380 N   0  0  0  0  0  0  0  0  0  0  0  0
   -3.4551    0.0088   -0.4456 C   0  0  2  0  0  0  0  0  0  0  0  0
   -3.8625    1.4473   -0.0432 C   0  0  0  0  0  0  0  0  0  0  0  0
   -5.3787    1.6477   -0.2143 C   0  0  1  0  0  0  0  0  0  0  0  0
   -5.7615    1.3930   -1.6822 C   0  0  0  0  0  0  0  0  0  0  0  0
   -5.3963   -0.0466   -2.0830 C   0  0  2  0  0  0  0  0  0  0  0  0
   -6.1461   -1.0322   -1.1737 C   0  0  0  0  0  0  0  0  0  0  0  0
   -5.7597   -0.7886    0.2931 C   0  0  2  0  0  0  0  0  0  0  0  0
   -6.1278    0.6512    0.6846 C   0  0  0  0  0  0  0  0  0  0  0  0
   -4.2437   -0.9826    0.4534 C   0  0  0  0  0  0  0  0  0  0  0  0
   -3.8800   -0.2495   -1.9137 C   0  0  0  0  0  0  0  0  0  0  0  0
    1.2627    1.0655   -0.1919 N   0  0  0  0  0  0  0  0  0  0  0  0
    2.3450    0.4056    0.2533 N   0  0  0  0  0  0  0  0  0  0  0  0
    3.5457    1.1687    0.5606 C   0  0  0  0  0  0  0  0  0  0  0  0
    4.3521    1.4823   -0.6994 C   0  0  0  0  0  0  0  0  0  0  0  0
    5.7022    2.1268   -0.3894 C   0  0  0  0  0  0  0  0  0  0  0  0
    5.5642    3.4687    0.2560 C   0  0  2  0  0  0  0  0  0  0  0  0
    6.6846    4.0464    1.0793 C   0  0  0  0  0  0  0  0  0  0  0  0
    5.5336    3.4412    1.6871 O   0  0  0  0  0  0  0  0  0  0  0  0
    2.1631   -0.9519    0.3455 C   0  0  0  0  0  0  0  0  0  0  0  0
    3.1875   -1.8898    0.7844 C   0  0  0  0  0  0  0  0  0  0  0  0
    4.0539   -2.4723   -0.1469 C   0  0  0  0  0  0  0  0  0  0  0  0
    5.0381   -3.3679    0.2744 C   0  0  0  0  0  0  0  0  0  0  0  0
    5.1580   -3.6868    1.6266 C   0  0  0  0  0  0  0  0  0  0  0  0
    4.2933   -3.1135    2.5585 C   0  0  0  0  0  0  0  0  0  0  0  0
    3.3082   -2.2179    2.1388 C   0  0  0  0  0  0  0  0  0  0  0  0
   -0.4808   -2.5066   -1.0939 H   0  0  0  0  0  0  0  0  0  0  0  0
    0.9050   -3.3107   -0.3598 H   0  0  0  0  0  0  0  0  0  0  0  0
   -0.4069   -2.7122    0.6700 H   0  0  0  0  0  0  0  0  0  0  0  0
   -1.7517   -0.6731    0.6274 H   0  0  0  0  0  0  0  0  0  0  0  0
   -3.5751    1.6436    0.9981 H   0  0  0  0  0  0  0  0  0  0  0  0
   -3.3317    2.1886   -0.6524 H   0  0  0  0  0  0  0  0  0  0  0  0
   -5.6488    2.6721    0.0656 H   0  0  0  0  0  0  0  0  0  0  0  0
   -5.2428    2.1067   -2.3341 H   0  0  0  0  0  0  0  0  0  0  0  0
   -6.8370    1.5581   -1.8219 H   0  0  0  0  0  0  0  0  0  0  0  0
   -5.6772   -0.2218   -3.1275 H   0  0  0  0  0  0  0  0  0  0  0  0
   -7.2288   -0.9113   -1.3014 H   0  0  0  0  0  0  0  0  0  0  0  0
   -5.9050   -2.0635   -1.4590 H   0  0  0  0  0  0  0  0  0  0  0  0
   -6.2937   -1.4951    0.9383 H   0  0  0  0  0  0  0  0  0  0  0  0
   -5.8735    0.8307    1.7365 H   0  0  0  0  0  0  0  0  0  0  0  0
   -7.2103    0.8005    0.5889 H   0  0  0  0  0  0  0  0  0  0  0  0
   -3.9645   -0.8413    1.5063 H   0  0  0  0  0  0  0  0  0  0  0  0
   -3.9728   -2.0169    0.2019 H   0  0  0  0  0  0  0  0  0  0  0  0
   -3.6032   -1.2691   -2.2124 H   0  0  0  0  0  0  0  0  0  0  0  0
   -3.3563    0.4237   -2.6015 H   0  0  0  0  0  0  0  0  0  0  0  0
    4.1417    0.5989    1.2801 H   0  0  0  0  0  0  0  0  0  0  0  0
    3.2166    2.0860    1.0622 H   0  0  0  0  0  0  0  0  0  0  0  0
    3.7681    2.1387   -1.3569 H   0  0  0  0  0  0  0  0  0  0  0  0
    4.5303    0.5581   -1.2632 H   0  0  0  0  0  0  0  0  0  0  0  0
    6.2534    2.2539   -1.3287 H   0  0  0  0  0  0  0  0  0  0  0  0
    6.2986    1.4508    0.2358 H   0  0  0  0  0  0  0  0  0  0  0  0
    4.9042    4.1491   -0.2665 H   0  0  0  0  0  0  0  0  0  0  0  0
    6.7724    5.1238    1.1433 H   0  0  0  0  0  0  0  0  0  0  0  0
    7.6234    3.5107    1.1406 H   0  0  0  0  0  0  0  0  0  0  0  0
    3.9645   -2.2330   -1.2042 H   0  0  0  0  0  0  0  0  0  0  0  0
    5.7092   -3.8184   -0.4523 H   0  0  0  0  0  0  0  0  0  0  0  0
    5.9242   -4.3850    1.9543 H   0  0  0  0  0  0  0  0  0  0  0  0
    4.3857   -3.3642    3.6122 H   0  0  0  0  0  0  0  0  0  0  0  0
    2.6380   -1.7769    2.8729 H   0  0  0  0  0  0  0  0  0  0  0  0
  1  2  1  0
  2  3  1  0
  3  4  1  0
  4  5  2  0
  4  6  1  0
  7  6  1  6
  7  8  1  0
  8  9  1  0
  9 10  1  0
 10 11  1  0
 11 12  1  0
 12 13  1  0
 13 14  1  0
 13 15  1  0
 11 16  1  0
  3 17  2  0
 17 18  1  0
 18 19  1  0
 19 20  1  0
 20 21  1  0
 21 22  1  0
 22 23  1  0
 23 24  1  0
 18 25  1  0
 25 26  1  0
 26 27  2  0
 27 28  1  0
 28 29  2  0
 29 30  1  0
 30 31  2  0
 25  2  2  0
 31 26  1  0
 15  7  1  0
 24 22  1  0
 16  7  1  0
 14  9  1  0
  1 32  1  0
  1 33  1  0
  1 34  1  0
  6 35  1  0
  8 36  1  0
  8 37  1  0
  9 38  1  1
 10 39  1  0
 10 40  1  0
 11 41  1  6
 12 42  1  0
 12 43  1  0
 13 44  1  1
 14 45  1  0
 14 46  1  0
 15 47  1  0
 15 48  1  0
 16 49  1  0
 16 50  1  0
 19 51  1  0
 19 52  1  0
 20 53  1  0
 20 54  1  0
 21 55  1  0
 21 56  1  0
 22 57  1  6
 23 58  1  0
 23 59  1  0
 27 60  1  0
 28 61  1  0
 29 62  1  0
 30 63  1  0
 31 64  1  0
M  END
>  <_SMILES>  (185) 
Cc1c(C(=O)N[C@]23C[C@H]4C[C@H](C[C@H](C4)C2)C3)nn(CCC[C@@H]2CO2)c1-c1ccccc1

$$$$

     RDKit          3D

 67 71  0  0  0  0  0  0  0  0999 V2000
    0.6428   -3.6292   -1.4186 C   0  0  0  0  0  0  0  0  0  0  0  0
    1.0986   -2.5425   -0.5138 C   0  0  0  0  0  0  0  0  0  0  0  0
    0.3196   -1.4449   -0.0406 C   0  0  0  0  0  0  0  0  0  0  0  0
   -1.0909   -1.1300   -0.3451 C   0  0  0  0  0  0  0  0  0  0  0  0
   -1.7907   -1.8205   -1.0777 O   0  0  0  0  0  0  0  0  0  0  0  0
   -1.5161    0.0238    0.2777 N   0  0  0  0  0  0  0  0  0  0  0  0
   -2.8316    0.6415    0.1553 C   0  0  1  0  0  0  0  0  0  0  0  0
   -3.9537   -0.3011    0.6574 C   0  0  0  0  0  0  0  0  0  0  0  0
   -5.3258    0.3892    0.5596 C   0  0  2  0  0  0  0  0  0  0  0  0
   -5.5936    0.7782   -0.9049 C   0  0  0  0  0  0  0  0  0  0  0  0
   -4.5039    1.7414   -1.4074 C   0  0  1  0  0  0  0  0  0  0  0  0
   -4.4992    3.0017   -0.5308 C   0  0  0  0  0  0  0  0  0  0  0  0
   -4.2244    2.6182    0.9322 C   0  0  1  0  0  0  0  0  0  0  0  0
   -4.2043    3.7851    1.7428 O   0  0  0  0  0  0  0  0  0  0  0  0
   -5.3171    1.6566    1.4261 C   0  0  0  0  0  0  0  0  0  0  0  0
   -2.8581    1.9227    1.0253 C   0  0  0  0  0  0  0  0  0  0  0  0
   -3.1324    1.0505   -1.3083 C   0  0  0  0  0  0  0  0  0  0  0  0
    1.0435   -0.6484    0.7722 N   0  0  0  0  0  0  0  0  0  0  0  0
    2.2670   -1.2132    0.7903 N   0  0  0  0  0  0  0  0  0  0  0  0
    3.3155   -0.5652    1.5590 C   0  0  0  0  0  0  0  0  0  0  0  0
    4.2179    0.3523    0.7305 C   0  0  0  0  0  0  0  0  0  0  0  0
    3.5099    1.5043    0.0072 C   0  0  0  0  0  0  0  0  0  0  0  0
    2.8079    2.4851    0.9520 C   0  0  0  0  0  0  0  0  0  0  0  0
    2.1449    3.6305    0.1932 C   0  0  0  0  0  0  0  0  0  0  0  0
    3.1180    4.4225   -0.4740 O   0  0  0  0  0  0  0  0  0  0  0  0
    2.3535   -2.3675    0.0509 C   0  0  0  0  0  0  0  0  0  0  0  0
    3.5623   -3.1700   -0.0843 C   0  0  0  0  0  0  0  0  0  0  0  0
    3.9189   -4.0847    0.9126 C   0  0  0  0  0  0  0  0  0  0  0  0
    5.0779   -4.8515    0.7804 C   0  0  0  0  0  0  0  0  0  0  0  0
    5.8821   -4.7112   -0.3502 C   0  0  0  0  0  0  0  0  0  0  0  0
    5.5268   -3.8082   -1.3515 C   0  0  0  0  0  0  0  0  0  0  0  0
    4.3679   -3.0413   -1.2210 C   0  0  0  0  0  0  0  0  0  0  0  0
    1.4261   -4.3738   -1.5898 H   0  0  0  0  0  0  0  0  0  0  0  0
    0.3530   -3.2188   -2.3912 H   0  0  0  0  0  0  0  0  0  0  0  0
   -0.2193   -4.1490   -0.9884 H   0  0  0  0  0  0  0  0  0  0  0  0
   -0.7924    0.4712    0.8375 H   0  0  0  0  0  0  0  0  0  0  0  0
   -3.7590   -0.5995    1.6959 H   0  0  0  0  0  0  0  0  0  0  0  0
   -3.9778   -1.2276    0.0716 H   0  0  0  0  0  0  0  0  0  0  0  0
   -6.1082   -0.2930    0.9101 H   0  0  0  0  0  0  0  0  0  0  0  0
   -6.5792    1.2519   -0.9911 H   0  0  0  0  0  0  0  0  0  0  0  0
   -5.6166   -0.1211   -1.5327 H   0  0  0  0  0  0  0  0  0  0  0  0
   -4.7046    2.0161   -2.4490 H   0  0  0  0  0  0  0  0  0  0  0  0
   -5.4597    3.5271   -0.6109 H   0  0  0  0  0  0  0  0  0  0  0  0
   -3.7419    3.7135   -0.8839 H   0  0  0  0  0  0  0  0  0  0  0  0
   -5.0736    4.2160    1.6708 H   0  0  0  0  0  0  0  0  0  0  0  0
   -6.2977    2.1487    1.3942 H   0  0  0  0  0  0  0  0  0  0  0  0
   -5.1480    1.4011    2.4801 H   0  0  0  0  0  0  0  0  0  0  0  0
   -2.0634    2.6164    0.7159 H   0  0  0  0  0  0  0  0  0  0  0  0
   -2.6310    1.6826    2.0736 H   0  0  0  0  0  0  0  0  0  0  0  0
   -3.1245    0.1747   -1.9681 H   0  0  0  0  0  0  0  0  0  0  0  0
   -2.3480    1.7226   -1.6809 H   0  0  0  0  0  0  0  0  0  0  0  0
    2.8370   -0.0150    2.3771 H   0  0  0  0  0  0  0  0  0  0  0  0
    3.9156   -1.3508    2.0305 H   0  0  0  0  0  0  0  0  0  0  0  0
    4.7478   -0.2442   -0.0217 H   0  0  0  0  0  0  0  0  0  0  0  0
    4.9886    0.7683    1.3912 H   0  0  0  0  0  0  0  0  0  0  0  0
    4.2641    2.0446   -0.5784 H   0  0  0  0  0  0  0  0  0  0  0  0
    2.7899    1.1051   -0.7167 H   0  0  0  0  0  0  0  0  0  0  0  0
    2.0401    1.9698    1.5371 H   0  0  0  0  0  0  0  0  0  0  0  0
    3.5461    2.8907    1.6540 H   0  0  0  0  0  0  0  0  0  0  0  0
    1.4409    3.2495   -0.5534 H   0  0  0  0  0  0  0  0  0  0  0  0
    1.5909    4.2764    0.8819 H   0  0  0  0  0  0  0  0  0  0  0  0
    3.7002    4.8022    0.2057 H   0  0  0  0  0  0  0  0  0  0  0  0
    3.2925   -4.2097    1.7928 H   0  0  0  0  0  0  0  0  0  0  0  0
    5.3501   -5.5624    1.5563 H   0  0  0  0  0  0  0  0  0  0  0  0
    6.7828   -5.3109   -0.4543 H   0  0  0  0  0  0  0  0  0  0  0  0
    6.1496   -3.7039   -2.2362 H   0  0  0  0  0  0  0  0  0  0  0  0
    4.0962   -2.3432   -2.0097 H   0  0  0  0  0  0  0  0  0  0  0  0
  1  2  1  0
  2  3  1  0
  3  4  1  0
  4  5  2  0
  4  6  1  0
  7  6  1  6
  7  8  1  0
  8  9  1  0
  9 10  1  0
 10 11  1  0
 11 12  1  0
 12 13  1  0
 13 14  1  1
 13 15  1  0
 13 16  1  0
 11 17  1  0
  3 18  2  0
 18 19  1  0
 19 20  1  0
 20 21  1  0
 21 22  1  0
 22 23  1  0
 23 24  1  0
 24 25  1  0
 19 26  1  0
 26 27  1  0
 27 28  2  0
 28 29  1  0
 29 30  2  0
 30 31  1  0
 31 32  2  0
 26  2  2  0
 32 27  1  0
 16  7  1  0
 17  7  1  0
 15  9  1  0
  1 33  1  0
  1 34  1  0
  1 35  1  0
  6 36  1  0
  8 37  1  0
  8 38  1  0
  9 39  1  1
 10 40  1  0
 10 41  1  0
 11 42  1  6
 12 43  1  0
 12 44  1  0
 14 45  1  0
 15 46  1  0
 15 47  1  0
 16 48  1  0
 16 49  1  0
 17 50  1  0
 17 51  1  0
 20 52  1  0
 20 53  1  0
 21 54  1  0
 21 55  1  0
 22 56  1  0
 22 57  1  0
 23 58  1  0
 23 59  1  0
 24 60  1  0
 24 61  1  0
 25 62  1  0
 28 63  1  0
 29 64  1  0
 30 65  1  0
 31 66  1  0
 32 67  1  0
M  END
>  <_SMILES>  (186) 
Cc1c(C(=O)N[C@@]23C[C@@H]4C[C@@H](C[C@@](O)(C4)C2)C3)nn(CCCCCO)c1-c1ccccc1

$$$$

     RDKit          3D

 56 58  0  0  0  0  0  0  0  0999 V2000
    7.6384    0.7513    1.2705 C   0  0  0  0  0  0  0  0  0  0  0  0
    7.8627   -0.5064    0.6472 O   0  0  0  0  0  0  0  0  0  0  0  0
    6.7623   -1.1912    0.2095 C   0  0  0  0  0  0  0  0  0  0  0  0
    7.0402   -2.4362   -0.3543 C   0  0  0  0  0  0  0  0  0  0  0  0
    6.0084   -3.2361   -0.8402 C   0  0  0  0  0  0  0  0  0  0  0  0
    4.6858   -2.7947   -0.7669 C   0  0  0  0  0  0  0  0  0  0  0  0
    4.3884   -1.5522   -0.2061 C   0  0  0  0  0  0  0  0  0  0  0  0
    3.0831   -1.0291   -0.1044 N   0  0  0  0  0  0  0  0  0  0  0  0
    1.8880   -1.6449   -0.4480 C   0  0  0  0  0  0  0  0  0  0  0  0
    1.7609   -2.7945   -0.8547 O   0  0  0  0  0  0  0  0  0  0  0  0
    0.7257   -0.7516   -0.2580 C   0  0  0  0  0  0  0  0  0  0  0  0
   -0.3488   -1.1494    0.4420 N   0  0  0  0  0  0  0  0  0  0  0  0
   -1.1877   -0.1000    0.4100 N   0  0  0  0  0  0  0  0  0  0  0  0
   -2.4830   -0.2272    1.0586 C   0  0  0  0  0  0  0  0  0  0  0  0
   -3.5196   -0.8723    0.1410 C   0  0  0  0  0  0  0  0  0  0  0  0
   -4.8816   -0.9699    0.8286 C   0  0  0  0  0  0  0  0  0  0  0  0
   -5.9155   -1.6413   -0.0797 C   0  0  0  0  0  0  0  0  0  0  0  0
   -7.2941   -1.7077    0.5679 C   0  0  0  0  0  0  0  0  0  0  0  0
   -7.2558   -2.4756    1.7621 O   0  0  0  0  0  0  0  0  0  0  0  0
   -0.6850    0.9863   -0.2630 C   0  0  0  0  0  0  0  0  0  0  0  0
   -1.3972    2.2446   -0.4396 C   0  0  0  0  0  0  0  0  0  0  0  0
   -1.2893    3.2560    0.5209 C   0  0  0  0  0  0  0  0  0  0  0  0
   -1.9755    4.4600    0.3521 C   0  0  0  0  0  0  0  0  0  0  0  0
   -2.7679    4.6589   -0.7780 C   0  0  0  0  0  0  0  0  0  0  0  0
   -2.8738    3.6567   -1.7417 C   0  0  0  0  0  0  0  0  0  0  0  0
   -2.1886    2.4523   -1.5744 C   0  0  0  0  0  0  0  0  0  0  0  0
    0.5591    0.5902   -0.7316 C   0  0  0  0  0  0  0  0  0  0  0  0
    1.5010    1.3801   -1.5668 C   0  0  0  0  0  0  0  0  0  0  0  0
    5.4369   -0.7525    0.2797 C   0  0  0  0  0  0  0  0  0  0  0  0
    8.6100    1.1513    1.5761 H   0  0  0  0  0  0  0  0  0  0  0  0
    7.1905    1.4637    0.5700 H   0  0  0  0  0  0  0  0  0  0  0  0
    7.0249    0.6424    2.1709 H   0  0  0  0  0  0  0  0  0  0  0  0
    8.0679   -2.7862   -0.4139 H   0  0  0  0  0  0  0  0  0  0  0  0
    6.2312   -4.2062   -1.2772 H   0  0  0  0  0  0  0  0  0  0  0  0
    3.9127   -3.4480   -1.1596 H   0  0  0  0  0  0  0  0  0  0  0  0
    2.9947   -0.1197    0.3288 H   0  0  0  0  0  0  0  0  0  0  0  0
   -2.8060    0.7676    1.3814 H   0  0  0  0  0  0  0  0  0  0  0  0
   -2.3348   -0.8285    1.9637 H   0  0  0  0  0  0  0  0  0  0  0  0
   -3.1810   -1.8736   -0.1534 H   0  0  0  0  0  0  0  0  0  0  0  0
   -3.6151   -0.2900   -0.7835 H   0  0  0  0  0  0  0  0  0  0  0  0
   -4.7788   -1.5387    1.7604 H   0  0  0  0  0  0  0  0  0  0  0  0
   -5.2282    0.0349    1.0990 H   0  0  0  0  0  0  0  0  0  0  0  0
   -5.9907   -1.0930   -1.0258 H   0  0  0  0  0  0  0  0  0  0  0  0
   -5.5750   -2.6577   -0.3118 H   0  0  0  0  0  0  0  0  0  0  0  0
   -7.6553   -0.7053    0.8183 H   0  0  0  0  0  0  0  0  0  0  0  0
   -8.0166   -2.1671   -0.1141 H   0  0  0  0  0  0  0  0  0  0  0  0
   -6.9518   -3.3691    1.5262 H   0  0  0  0  0  0  0  0  0  0  0  0
   -0.6722    3.1119    1.4045 H   0  0  0  0  0  0  0  0  0  0  0  0
   -1.8911    5.2432    1.1012 H   0  0  0  0  0  0  0  0  0  0  0  0
   -3.3012    5.5973   -0.9093 H   0  0  0  0  0  0  0  0  0  0  0  0
   -3.4880    3.8138   -2.6246 H   0  0  0  0  0  0  0  0  0  0  0  0
   -2.2740    1.6779   -2.3335 H   0  0  0  0  0  0  0  0  0  0  0  0
    2.0598    0.7321   -2.2494 H   0  0  0  0  0  0  0  0  0  0  0  0
    2.2155    1.9120   -0.9307 H   0  0  0  0  0  0  0  0  0  0  0  0
    0.9724    2.1182   -2.1781 H   0  0  0  0  0  0  0  0  0  0  0  0
    5.2027    0.2132    0.7129 H   0  0  0  0  0  0  0  0  0  0  0  0
  1  2  1  0
  2  3  1  0
  3  4  1  0
  4  5  2  0
  5  6  1  0
  6  7  2  0
  7  8  1  0
  8  9  1  0
  9 10  2  0
  9 11  1  0
 11 12  2  0
 12 13  1  0
 13 14  1  0
 14 15  1  0
 15 16  1  0
 16 17  1  0
 17 18  1  0
 18 19  1  0
 13 20  1  0
 20 21  1  0
 21 22  2  0
 22 23  1  0
 23 24  2  0
 24 25  1  0
 25 26  2  0
 20 27  2  0
 27 28  1  0
  7 29  1  0
 29  3  2  0
 27 11  1  0
 26 21  1  0
  1 30  1  0
  1 31  1  0
  1 32  1  0
  4 33  1  0
  5 34  1  0
  6 35  1  0
  8 36  1  0
 14 37  1  0
 14 38  1  0
 15 39  1  0
 15 40  1  0
 16 41  1  0
 16 42  1  0
 17 43  1  0
 17 44  1  0
 18 45  1  0
 18 46  1  0
 19 47  1  0
 22 48  1  0
 23 49  1  0
 24 50  1  0
 25 51  1  0
 26 52  1  0
 28 53  1  0
 28 54  1  0
 28 55  1  0
 29 56  1  0
M  END
>  <_SMILES>  (187) 
COc1cccc(NC(=O)c2nn(CCCCCO)c(-c3ccccc3)c2C)c1

$$$$

     RDKit          3D

 58 62  0  0  0  0  0  0  0  0999 V2000
    6.8856    1.9033   -3.5136 O   0  0  0  0  0  0  0  0  0  0  0  0
    6.3916    2.0193   -2.3559 C   0  0  0  0  0  0  0  0  0  0  0  0
    6.9609    1.9501   -1.2317 O   0  0  0  0  0  0  0  0  0  0  0  0
    4.8799    2.2734   -2.3373 C   0  0  0  0  0  0  0  0  0  0  0  0
    4.1619    1.9779   -1.0223 C   0  0  0  0  0  0  0  0  0  0  0  0
    4.1623    0.4813   -0.6927 C   0  0  0  0  0  0  0  0  0  0  0  0
    3.5415    0.1734    0.6689 C   0  0  0  0  0  0  0  0  0  0  0  0
    2.0949    0.0862    0.6444 N   0  0  0  0  0  0  0  0  0  0  0  0
    1.3581    1.2051    0.7933 N   0  0  0  0  0  0  0  0  0  0  0  0
    0.1226    0.7210    0.8450 C   0  0  0  0  0  0  0  0  0  0  0  0
   -0.9629    1.5007    0.9677 N   0  0  0  0  0  0  0  0  0  0  0  0
   -2.3113    1.1039    0.5774 C   0  0  2  0  0  0  0  0  0  0  0  0
   -3.2243    2.3541    0.7382 C   0  0  0  0  0  0  0  0  0  0  0  0
   -4.6753    2.0320    0.3466 C   0  0  1  0  0  0  0  0  0  0  0  0
   -4.7100    1.5653   -1.1171 C   0  0  0  0  0  0  0  0  0  0  0  0
   -3.8321    0.3159   -1.2904 C   0  0  2  0  0  0  0  0  0  0  0  0
   -4.3558   -0.8030   -0.3731 C   0  0  0  0  0  0  0  0  0  0  0  0
   -4.3281   -0.3437    1.0954 C   0  0  2  0  0  0  0  0  0  0  0  0
   -5.2033    0.9091    1.2519 C   0  0  0  0  0  0  0  0  0  0  0  0
   -2.8793   -0.0068    1.4934 C   0  0  0  0  0  0  0  0  0  0  0  0
   -2.3817    0.6548   -0.9013 C   0  0  0  0  0  0  0  0  0  0  0  0
    0.0398   -0.6325    0.7691 N   0  0  0  0  0  0  0  0  0  0  0  0
    1.2914   -1.0318    0.6283 C   0  0  0  0  0  0  0  0  0  0  0  0
    1.7198   -2.4278    0.5511 C   0  0  0  0  0  0  0  0  0  0  0  0
    1.1817   -3.3540    1.4567 C   0  0  0  0  0  0  0  0  0  0  0  0
    1.5627   -4.6972    1.4180 C   0  0  0  0  0  0  0  0  0  0  0  0
    2.4791   -5.1322    0.4636 C   0  0  0  0  0  0  0  0  0  0  0  0
    3.0049   -4.2275   -0.4567 C   0  0  0  0  0  0  0  0  0  0  0  0
    2.6217   -2.8837   -0.4178 C   0  0  0  0  0  0  0  0  0  0  0  0
    4.7376    3.3332   -2.5829 H   0  0  0  0  0  0  0  0  0  0  0  0
    4.4144    1.6940   -3.1444 H   0  0  0  0  0  0  0  0  0  0  0  0
    3.1287    2.3343   -1.1035 H   0  0  0  0  0  0  0  0  0  0  0  0
    4.6294    2.5409   -0.2058 H   0  0  0  0  0  0  0  0  0  0  0  0
    5.1942    0.1136   -0.6753 H   0  0  0  0  0  0  0  0  0  0  0  0
    3.6452   -0.0623   -1.4910 H   0  0  0  0  0  0  0  0  0  0  0  0
    3.9206   -0.7842    1.0409 H   0  0  0  0  0  0  0  0  0  0  0  0
    3.8175    0.9267    1.4163 H   0  0  0  0  0  0  0  0  0  0  0  0
   -0.7417    2.4769    0.8064 H   0  0  0  0  0  0  0  0  0  0  0  0
   -2.8516    3.1786    0.1153 H   0  0  0  0  0  0  0  0  0  0  0  0
   -3.1917    2.7153    1.7750 H   0  0  0  0  0  0  0  0  0  0  0  0
   -5.2980    2.9258    0.4645 H   0  0  0  0  0  0  0  0  0  0  0  0
   -4.3545    2.3676   -1.7753 H   0  0  0  0  0  0  0  0  0  0  0  0
   -5.7419    1.3428   -1.4152 H   0  0  0  0  0  0  0  0  0  0  0  0
   -3.8653   -0.0161   -2.3341 H   0  0  0  0  0  0  0  0  0  0  0  0
   -5.3797   -1.0722   -0.6603 H   0  0  0  0  0  0  0  0  0  0  0  0
   -3.7435   -1.7049   -0.4952 H   0  0  0  0  0  0  0  0  0  0  0  0
   -4.7106   -1.1432    1.7398 H   0  0  0  0  0  0  0  0  0  0  0  0
   -6.2431    0.6754    0.9923 H   0  0  0  0  0  0  0  0  0  0  0  0
   -5.2027    1.2388    2.2981 H   0  0  0  0  0  0  0  0  0  0  0  0
   -2.2824   -0.9229    1.4308 H   0  0  0  0  0  0  0  0  0  0  0  0
   -2.8436    0.3114    2.5435 H   0  0  0  0  0  0  0  0  0  0  0  0
   -1.7538   -0.2270   -1.0761 H   0  0  0  0  0  0  0  0  0  0  0  0
   -1.9931    1.4444   -1.5579 H   0  0  0  0  0  0  0  0  0  0  0  0
    0.4585   -3.0230    2.2002 H   0  0  0  0  0  0  0  0  0  0  0  0
    1.1409   -5.4002    2.1308 H   0  0  0  0  0  0  0  0  0  0  0  0
    2.7779   -6.1763    0.4301 H   0  0  0  0  0  0  0  0  0  0  0  0
    3.7104   -4.5651   -1.2121 H   0  0  0  0  0  0  0  0  0  0  0  0
    3.0256   -2.2088   -1.1671 H   0  0  0  0  0  0  0  0  0  0  0  0
  1  2  2  0
  2  3  1  0
  2  4  1  0
  4  5  1  0
  5  6  1  0
  6  7  1  0
  7  8  1  0
  8  9  1  0
  9 10  2  0
 10 11  1  0
 12 11  1  1
 12 13  1  0
 13 14  1  0
 14 15  1  0
 15 16  1  0
 16 17  1  0
 17 18  1  0
 18 19  1  0
 18 20  1  0
 16 21  1  0
 10 22  1  0
 22 23  2  0
 23 24  1  0
 24 25  2  0
 25 26  1  0
 26 27  2  0
 27 28  1  0
 28 29  2  0
 23  8  1  0
 29 24  1  0
 20 12  1  0
 21 12  1  0
 19 14  1  0
  4 30  1  0
  4 31  1  0
  5 32  1  0
  5 33  1  0
  6 34  1  0
  6 35  1  0
  7 36  1  0
  7 37  1  0
 11 38  1  0
 13 39  1  0
 13 40  1  0
 14 41  1  6
 15 42  1  0
 15 43  1  0
 16 44  1  6
 17 45  1  0
 17 46  1  0
 18 47  1  1
 19 48  1  0
 19 49  1  0
 20 50  1  0
 20 51  1  0
 21 52  1  0
 21 53  1  0
 25 54  1  0
 26 55  1  0
 27 56  1  0
 28 57  1  0
 29 58  1  0
M  CHG  1   3  -1
M  END
>  <_SMILES>  (188) 
O=C([O-])CCCCn1nc(N[C@]23C[C@H]4C[C@H](C[C@H](C4)C2)C3)nc1-c1ccccc1

$$$$

     RDKit          3D

 58 62  0  0  0  0  0  0  0  0999 V2000
    4.3451    4.7677   -3.0135 O   0  0  0  0  0  0  0  0  0  0  0  0
    4.6618    4.1757   -1.9428 C   0  0  0  0  0  0  0  0  0  0  0  0
    5.7109    4.2732   -1.2499 O   0  0  0  0  0  0  0  0  0  0  0  0
    3.6022    3.1898   -1.4384 C   0  0  0  0  0  0  0  0  0  0  0  0
    3.8468    2.6719   -0.0250 C   0  0  0  0  0  0  0  0  0  0  0  0
    2.7174    1.7838    0.4971 C   0  0  0  0  0  0  0  0  0  0  0  0
    2.5603    0.4819   -0.2913 C   0  0  0  0  0  0  0  0  0  0  0  0
    1.6108   -0.3947    0.4096 N   0  0  0  0  0  0  0  0  0  0  0  0
    0.2663   -0.1137    0.1987 N   0  0  0  0  0  0  0  0  0  0  0  0
   -0.3913   -1.3256    0.1530 C   0  0  0  0  0  0  0  0  0  0  0  0
   -1.6269   -1.6335    0.1272 N   0  0  0  0  0  0  0  0  0  0  0  0
   -2.7208   -0.6676    0.0931 C   0  0  2  0  0  0  0  0  0  0  0  0
   -4.0117   -1.4993   -0.1457 C   0  0  0  0  0  0  0  0  0  0  0  0
   -5.2515   -0.5919   -0.1810 C   0  0  1  0  0  0  0  0  0  0  0  0
   -5.3693    0.1514    1.1588 C   0  0  0  0  0  0  0  0  0  0  0  0
   -4.1062    0.9920    1.4044 C   0  0  2  0  0  0  0  0  0  0  0  0
   -3.9421    2.0063    0.2582 C   0  0  0  0  0  0  0  0  0  0  0  0
   -3.8292    1.2731   -1.0907 C   0  0  2  0  0  0  0  0  0  0  0  0
   -5.0936    0.4300   -1.3173 C   0  0  0  0  0  0  0  0  0  0  0  0
   -2.5978    0.3487   -1.0621 C   0  0  0  0  0  0  0  0  0  0  0  0
   -2.8780    0.0640    1.4425 C   0  0  0  0  0  0  0  0  0  0  0  0
    0.5123   -2.3715    0.1822 N   0  0  0  0  0  0  0  0  0  0  0  0
    1.6851   -1.7897    0.3398 C   0  0  0  0  0  0  0  0  0  0  0  0
    2.9268   -2.5879    0.4580 C   0  0  0  0  0  0  0  0  0  0  0  0
    4.0124   -2.1200    1.2058 C   0  0  0  0  0  0  0  0  0  0  0  0
    5.1718   -2.8913    1.3086 C   0  0  0  0  0  0  0  0  0  0  0  0
    5.2429   -4.1338    0.6778 C   0  0  0  0  0  0  0  0  0  0  0  0
    4.1538   -4.6119   -0.0510 C   0  0  0  0  0  0  0  0  0  0  0  0
    2.9939   -3.8426   -0.1573 C   0  0  0  0  0  0  0  0  0  0  0  0
    3.5787    2.3556   -2.1489 H   0  0  0  0  0  0  0  0  0  0  0  0
    2.6261    3.6884   -1.4817 H   0  0  0  0  0  0  0  0  0  0  0  0
    3.9584    3.5234    0.6581 H   0  0  0  0  0  0  0  0  0  0  0  0
    4.7929    2.1175    0.0123 H   0  0  0  0  0  0  0  0  0  0  0  0
    1.7735    2.3428    0.4910 H   0  0  0  0  0  0  0  0  0  0  0  0
    2.9274    1.5455    1.5479 H   0  0  0  0  0  0  0  0  0  0  0  0
    3.5383    0.0029   -0.3952 H   0  0  0  0  0  0  0  0  0  0  0  0
    2.1973    0.6792   -1.3070 H   0  0  0  0  0  0  0  0  0  0  0  0
   -0.1549    0.5816    0.8001 H   0  0  0  0  0  0  0  0  0  0  0  0
   -3.9323   -2.0566   -1.0888 H   0  0  0  0  0  0  0  0  0  0  0  0
   -4.1272   -2.2533    0.6447 H   0  0  0  0  0  0  0  0  0  0  0  0
   -6.1496   -1.1967   -0.3491 H   0  0  0  0  0  0  0  0  0  0  0  0
   -6.2552    0.7982    1.1526 H   0  0  0  0  0  0  0  0  0  0  0  0
   -5.5058   -0.5677    1.9759 H   0  0  0  0  0  0  0  0  0  0  0  0
   -4.1965    1.5232    2.3585 H   0  0  0  0  0  0  0  0  0  0  0  0
   -4.7998    2.6900    0.2400 H   0  0  0  0  0  0  0  0  0  0  0  0
   -3.0490    2.6204    0.4268 H   0  0  0  0  0  0  0  0  0  0  0  0
   -3.7229    2.0035   -1.9006 H   0  0  0  0  0  0  0  0  0  0  0  0
   -5.9755    1.0807   -1.3622 H   0  0  0  0  0  0  0  0  0  0  0  0
   -5.0307   -0.0882   -2.2821 H   0  0  0  0  0  0  0  0  0  0  0  0
   -1.7034    0.9709   -0.9559 H   0  0  0  0  0  0  0  0  0  0  0  0
   -2.4972   -0.1751   -2.0214 H   0  0  0  0  0  0  0  0  0  0  0  0
   -1.9915    0.6606    1.6786 H   0  0  0  0  0  0  0  0  0  0  0  0
   -2.9822   -0.6625    2.2590 H   0  0  0  0  0  0  0  0  0  0  0  0
    3.9631   -1.1638    1.7195 H   0  0  0  0  0  0  0  0  0  0  0  0
    6.0186   -2.5225    1.8820 H   0  0  0  0  0  0  0  0  0  0  0  0
    6.1472   -4.7315    0.7576 H   0  0  0  0  0  0  0  0  0  0  0  0
    4.2055   -5.5823   -0.5371 H   0  0  0  0  0  0  0  0  0  0  0  0
    2.1443   -4.2187   -0.7234 H   0  0  0  0  0  0  0  0  0  0  0  0
  1  2  2  0
  2  3  1  0
  2  4  1  0
  4  5  1  0
  5  6  1  0
  6  7  1  0
  7  8  1  0
  8  9  1  0
  9 10  1  0
 10 11  2  0
 12 11  1  1
 12 13  1  0
 13 14  1  0
 14 15  1  0
 15 16  1  0
 16 17  1  0
 17 18  1  0
 18 19  1  0
 18 20  1  0
 16 21  1  0
 10 22  1  0
 22 23  2  0
 23 24  1  0
 24 25  2  0
 25 26  1  0
 26 27  2  0
 27 28  1  0
 28 29  2  0
 23  8  1  0
 29 24  1  0
 20 12  1  0
 21 12  1  0
 19 14  1  0
  4 30  1  0
  4 31  1  0
  5 32  1  0
  5 33  1  0
  6 34  1  0
  6 35  1  0
  7 36  1  0
  7 37  1  0
  9 38  1  0
 13 39  1  0
 13 40  1  0
 14 41  1  6
 15 42  1  0
 15 43  1  0
 16 44  1  1
 17 45  1  0
 17 46  1  0
 18 47  1  6
 19 48  1  0
 19 49  1  0
 20 50  1  0
 20 51  1  0
 21 52  1  0
 21 53  1  0
 25 54  1  0
 26 55  1  0
 27 56  1  0
 28 57  1  0
 29 58  1  0
M  CHG  1   3  -1
M  END
>  <_SMILES>  (189) 
O=C([O-])CCCCn1[nH]/c(=N\[C@]23C[C@H]4C[C@H](C[C@H](C4)C2)C3)nc1-c1ccccc1

$$$$

     RDKit          3D

 58 62  0  0  0  0  0  0  0  0999 V2000
    7.7684   -3.0194    1.0782 O   0  0  0  0  0  0  0  0  0  0  0  0
    7.4722   -2.0224    0.3601 C   0  0  0  0  0  0  0  0  0  0  0  0
    8.2179   -1.1201   -0.1090 O   0  0  0  0  0  0  0  0  0  0  0  0
    5.9780   -1.9078    0.0376 C   0  0  0  0  0  0  0  0  0  0  0  0
    5.6371   -0.8439   -1.0004 C   0  0  0  0  0  0  0  0  0  0  0  0
    4.1521   -0.8012   -1.3625 C   0  0  0  0  0  0  0  0  0  0  0  0
    3.2561   -0.4206   -0.1822 C   0  0  0  0  0  0  0  0  0  0  0  0
    1.9063   -0.1124   -0.6757 N   0  0  0  0  0  0  0  0  0  0  0  0
    1.0898   -1.2075   -0.9244 N   0  0  0  0  0  0  0  0  0  0  0  0
   -0.1906   -0.8248   -0.5914 C   0  0  0  0  0  0  0  0  0  0  0  0
   -1.2432   -1.4871   -0.8944 N   0  0  0  0  0  0  0  0  0  0  0  0
   -2.5968   -1.0461   -0.5508 C   0  0  2  0  0  0  0  0  0  0  0  0
   -2.9871    0.2711   -1.2561 C   0  0  0  0  0  0  0  0  0  0  0  0
   -4.4523    0.6276   -0.9438 C   0  0  1  0  0  0  0  0  0  0  0  0
   -5.3692   -0.4896   -1.4660 C   0  0  0  0  0  0  0  0  0  0  0  0
   -5.0138   -1.8197   -0.7839 C   0  0  2  0  0  0  0  0  0  0  0  0
   -5.2010   -1.6785    0.7345 C   0  0  0  0  0  0  0  0  0  0  0  0
   -4.2828   -0.5707    1.2741 C   0  0  2  0  0  0  0  0  0  0  0  0
   -4.6290    0.7589    0.5798 C   0  0  0  0  0  0  0  0  0  0  0  0
   -2.8167   -0.9335    0.9737 C   0  0  0  0  0  0  0  0  0  0  0  0
   -3.5446   -2.1597   -1.0800 C   0  0  0  0  0  0  0  0  0  0  0  0
   -0.1917    0.3983    0.0438 N   0  0  0  0  0  0  0  0  0  0  0  0
    1.0625    0.8019   -0.0330 C   0  0  0  0  0  0  0  0  0  0  0  0
    1.4731    2.1207    0.4999 C   0  0  0  0  0  0  0  0  0  0  0  0
    2.5289    2.8314   -0.0800 C   0  0  0  0  0  0  0  0  0  0  0  0
    2.8944    4.0773    0.4334 C   0  0  0  0  0  0  0  0  0  0  0  0
    2.1984    4.6196    1.5142 C   0  0  0  0  0  0  0  0  0  0  0  0
    1.1312    3.9220    2.0805 C   0  0  0  0  0  0  0  0  0  0  0  0
    0.7643    2.6754    1.5713 C   0  0  0  0  0  0  0  0  0  0  0  0
    5.6296   -2.8868   -0.3138 H   0  0  0  0  0  0  0  0  0  0  0  0
    5.4645   -1.6940    0.9819 H   0  0  0  0  0  0  0  0  0  0  0  0
    6.2101   -1.0350   -1.9165 H   0  0  0  0  0  0  0  0  0  0  0  0
    5.9498    0.1440   -0.6394 H   0  0  0  0  0  0  0  0  0  0  0  0
    3.8404   -1.7703   -1.7712 H   0  0  0  0  0  0  0  0  0  0  0  0
    4.0197   -0.0688   -2.1695 H   0  0  0  0  0  0  0  0  0  0  0  0
    3.2048   -1.2366    0.5487 H   0  0  0  0  0  0  0  0  0  0  0  0
    3.6901    0.4382    0.3380 H   0  0  0  0  0  0  0  0  0  0  0  0
    1.1504   -1.6695   -1.8247 H   0  0  0  0  0  0  0  0  0  0  0  0
   -2.3514    1.1029   -0.9353 H   0  0  0  0  0  0  0  0  0  0  0  0
   -2.8452    0.1782   -2.3406 H   0  0  0  0  0  0  0  0  0  0  0  0
   -4.7124    1.5749   -1.4293 H   0  0  0  0  0  0  0  0  0  0  0  0
   -5.2618   -0.5851   -2.5535 H   0  0  0  0  0  0  0  0  0  0  0  0
   -6.4184   -0.2361   -1.2706 H   0  0  0  0  0  0  0  0  0  0  0  0
   -5.6631   -2.6159   -1.1645 H   0  0  0  0  0  0  0  0  0  0  0  0
   -6.2477   -1.4431    0.9634 H   0  0  0  0  0  0  0  0  0  0  0  0
   -4.9726   -2.6296    1.2308 H   0  0  0  0  0  0  0  0  0  0  0  0
   -4.4231   -0.4703    2.3562 H   0  0  0  0  0  0  0  0  0  0  0  0
   -3.9860    1.5604    0.9637 H   0  0  0  0  0  0  0  0  0  0  0  0
   -5.6632    1.0419    0.8117 H   0  0  0  0  0  0  0  0  0  0  0  0
   -2.1717   -0.1682    1.4179 H   0  0  0  0  0  0  0  0  0  0  0  0
   -2.5543   -1.8786    1.4666 H   0  0  0  0  0  0  0  0  0  0  0  0
   -3.4053   -2.2912   -2.1615 H   0  0  0  0  0  0  0  0  0  0  0  0
   -3.2875   -3.1237   -0.6205 H   0  0  0  0  0  0  0  0  0  0  0  0
    3.0666    2.4302   -0.9349 H   0  0  0  0  0  0  0  0  0  0  0  0
    3.7225    4.6241   -0.0109 H   0  0  0  0  0  0  0  0  0  0  0  0
    2.4872    5.5884    1.9136 H   0  0  0  0  0  0  0  0  0  0  0  0
    0.5856    4.3464    2.9189 H   0  0  0  0  0  0  0  0  0  0  0  0
   -0.0692    2.1341    2.0134 H   0  0  0  0  0  0  0  0  0  0  0  0
  1  2  2  0
  2  3  1  0
  2  4  1  0
  4  5  1  0
  5  6  1  0
  6  7  1  0
  7  8  1  0
  8  9  1  0
  9 10  1  0
 10 11  2  0
 12 11  1  1
 12 13  1  0
 13 14  1  0
 14 15  1  0
 15 16  1  0
 16 17  1  0
 17 18  1  0
 18 19  1  0
 18 20  1  0
 16 21  1  0
 10 22  1  0
 22 23  2  0
 23 24  1  0
 24 25  2  0
 25 26  1  0
 26 27  2  0
 27 28  1  0
 28 29  2  0
 23  8  1  0
 29 24  1  0
 20 12  1  0
 21 12  1  0
 19 14  1  0
  4 30  1  0
  4 31  1  0
  5 32  1  0
  5 33  1  0
  6 34  1  0
  6 35  1  0
  7 36  1  0
  7 37  1  0
  9 38  1  0
 13 39  1  0
 13 40  1  0
 14 41  1  6
 15 42  1  0
 15 43  1  0
 16 44  1  6
 17 45  1  0
 17 46  1  0
 18 47  1  1
 19 48  1  0
 19 49  1  0
 20 50  1  0
 20 51  1  0
 21 52  1  0
 21 53  1  0
 25 54  1  0
 26 55  1  0
 27 56  1  0
 28 57  1  0
 29 58  1  0
M  CHG  1   3  -1
M  END
>  <_SMILES>  (190) 
O=C([O-])CCCCn1[nH]/c(=N/[C@]23C[C@H]4C[C@H](C[C@H](C4)C2)C3)nc1-c1ccccc1

$$$$

     RDKit          3D

 59 63  0  0  0  0  0  0  0  0999 V2000
    4.3189   -0.8168    2.6323 C   0  0  0  0  0  0  0  0  0  0  0  0
    3.6124   -1.8075    1.7093 C   0  0  0  0  0  0  0  0  0  0  0  0
    4.5958   -2.5447    0.8020 C   0  0  0  0  0  0  0  0  0  0  0  0
    2.4920   -1.2036    0.9890 N   0  0  0  0  0  0  0  0  0  0  0  0
    1.2516   -1.5925    1.3516 N   0  0  0  0  0  0  0  0  0  0  0  0
    0.4110   -0.9219    0.5474 C   0  0  0  0  0  0  0  0  0  0  0  0
   -1.0559   -1.0999    0.6371 C   0  0  0  0  0  0  0  0  0  0  0  0
   -1.5775   -2.0474    1.2178 O   0  0  0  0  0  0  0  0  0  0  0  0
   -1.7935   -0.0977    0.0232 N   0  0  0  0  0  0  0  0  0  0  0  0
   -3.2571   -0.0077    0.0475 C   0  0  2  0  0  0  0  0  0  0  0  0
   -3.6795    1.2402   -0.7763 C   0  0  0  0  0  0  0  0  0  0  0  0
   -5.2075    1.4037   -0.7896 C   0  0  1  0  0  0  0  0  0  0  0  0
   -5.8421    0.1540   -1.4186 C   0  0  0  0  0  0  0  0  0  0  0  0
   -5.4590   -1.0926   -0.6064 C   0  0  2  0  0  0  0  0  0  0  0  0
   -5.9567   -0.9294    0.8400 C   0  0  0  0  0  0  0  0  0  0  0  0
   -5.3273    0.3201    1.4793 C   0  0  2  0  0  0  0  0  0  0  0  0
   -5.7103    1.5588    0.6542 C   0  0  0  0  0  0  0  0  0  0  0  0
   -3.7958    0.1684    1.4887 C   0  0  0  0  0  0  0  0  0  0  0  0
   -3.9275   -1.2461   -0.6003 C   0  0  0  0  0  0  0  0  0  0  0  0
    1.1493   -0.0887   -0.3330 C   0  0  0  0  0  0  0  0  0  0  0  0
    2.4841   -0.2748   -0.0268 C   0  0  0  0  0  0  0  0  0  0  0  0
    3.6416    0.3467   -0.6509 C   0  0  0  0  0  0  0  0  0  0  0  0
    4.1761   -0.1867   -1.8283 C   0  0  0  0  0  0  0  0  0  0  0  0
    5.2697    0.4243   -2.4477 C   0  0  0  0  0  0  0  0  0  0  0  0
    5.8418    1.5837   -1.9024 C   0  0  0  0  0  0  0  0  0  0  0  0
    7.0081    2.2582   -2.5834 C   0  0  0  0  0  0  0  0  0  0  0  0
    6.6080    3.1866   -3.4949 F   0  0  0  0  0  0  0  0  0  0  0  0
    7.8267    2.9144   -1.7143 F   0  0  0  0  0  0  0  0  0  0  0  0
    7.8079    1.3878   -3.2606 F   0  0  0  0  0  0  0  0  0  0  0  0
    5.2828    2.1300   -0.7370 C   0  0  0  0  0  0  0  0  0  0  0  0
    4.1890    1.5177   -0.1189 C   0  0  0  0  0  0  0  0  0  0  0  0
    5.0099   -1.3433    3.2995 H   0  0  0  0  0  0  0  0  0  0  0  0
    4.9034   -0.0810    2.0740 H   0  0  0  0  0  0  0  0  0  0  0  0
    3.5987   -0.2738    3.2539 H   0  0  0  0  0  0  0  0  0  0  0  0
    3.1599   -2.5723    2.3567 H   0  0  0  0  0  0  0  0  0  0  0  0
    5.2623   -3.1762    1.3998 H   0  0  0  0  0  0  0  0  0  0  0  0
    5.2296   -1.8562    0.2367 H   0  0  0  0  0  0  0  0  0  0  0  0
    4.0707   -3.1898    0.0895 H   0  0  0  0  0  0  0  0  0  0  0  0
   -1.2906    0.7374   -0.2386 H   0  0  0  0  0  0  0  0  0  0  0  0
   -3.3063    1.1562   -1.8059 H   0  0  0  0  0  0  0  0  0  0  0  0
   -3.2169    2.1437   -0.3566 H   0  0  0  0  0  0  0  0  0  0  0  0
   -5.4800    2.2901   -1.3732 H   0  0  0  0  0  0  0  0  0  0  0  0
   -6.9333    0.2618   -1.4480 H   0  0  0  0  0  0  0  0  0  0  0  0
   -5.5049    0.0437   -2.4565 H   0  0  0  0  0  0  0  0  0  0  0  0
   -5.9165   -1.9808   -1.0565 H   0  0  0  0  0  0  0  0  0  0  0  0
   -7.0503   -0.8441    0.8512 H   0  0  0  0  0  0  0  0  0  0  0  0
   -5.7010   -1.8200    1.4272 H   0  0  0  0  0  0  0  0  0  0  0  0
   -5.6925    0.4336    2.5061 H   0  0  0  0  0  0  0  0  0  0  0  0
   -6.7993    1.6908    0.6597 H   0  0  0  0  0  0  0  0  0  0  0  0
   -5.2782    2.4595    1.1073 H   0  0  0  0  0  0  0  0  0  0  0  0
   -3.3363    1.0481    1.9583 H   0  0  0  0  0  0  0  0  0  0  0  0
   -3.5253   -0.6896    2.1154 H   0  0  0  0  0  0  0  0  0  0  0  0
   -3.6684   -2.1640   -0.0609 H   0  0  0  0  0  0  0  0  0  0  0  0
   -3.5608   -1.3796   -1.6265 H   0  0  0  0  0  0  0  0  0  0  0  0
    0.7682    0.5589   -1.1096 H   0  0  0  0  0  0  0  0  0  0  0  0
    3.7445   -1.0834   -2.2693 H   0  0  0  0  0  0  0  0  0  0  0  0
    5.6738   -0.0089   -3.3619 H   0  0  0  0  0  0  0  0  0  0  0  0
    5.6970    3.0405   -0.3053 H   0  0  0  0  0  0  0  0  0  0  0  0
    3.7657    1.9626    0.7797 H   0  0  0  0  0  0  0  0  0  0  0  0
  1  2  1  0
  2  3  1  0
  2  4  1  0
  4  5  1  0
  5  6  2  0
  6  7  1  0
  7  8  2  0
  7  9  1  0
 10  9  1  1
 10 11  1  0
 11 12  1  0
 12 13  1  0
 13 14  1  0
 14 15  1  0
 15 16  1  0
 16 17  1  0
 16 18  1  0
 14 19  1  0
  6 20  1  0
 20 21  2  0
 21 22  1  0
 22 23  1  0
 23 24  2  0
 24 25  1  0
 25 26  1  0
 26 27  1  0
 26 28  1  0
 26 29  1  0
 25 30  2  0
 30 31  1  0
 21  4  1  0
 31 22  2  0
 18 10  1  0
 19 10  1  0
 17 12  1  0
  1 32  1  0
  1 33  1  0
  1 34  1  0
  2 35  1  0
  3 36  1  0
  3 37  1  0
  3 38  1  0
  9 39  1  0
 11 40  1  0
 11 41  1  0
 12 42  1  6
 13 43  1  0
 13 44  1  0
 14 45  1  6
 15 46  1  0
 15 47  1  0
 16 48  1  1
 17 49  1  0
 17 50  1  0
 18 51  1  0
 18 52  1  0
 19 53  1  0
 19 54  1  0
 20 55  1  0
 23 56  1  0
 24 57  1  0
 30 58  1  0
 31 59  1  0
M  END
>  <_SMILES>  (191) 
CC(C)n1nc(C(=O)N[C@]23C[C@H]4C[C@H](C[C@H](C4)C2)C3)cc1-c1ccc(C(F)(F)F)cc1

$$$$

     RDKit          3D

 59 62  0  0  0  0  0  0  0  0999 V2000
    0.8905    2.2564    0.2244 C   0  0  0  0  0  0  0  0  0  0  0  0
    0.0554    1.0809   -0.1369 C   0  0  0  0  0  0  0  0  0  0  0  0
    0.4930   -0.1859   -0.6432 C   0  0  0  0  0  0  0  0  0  0  0  0
    1.8713   -0.6532   -0.8902 C   0  0  0  0  0  0  0  0  0  0  0  0
    2.1920   -1.2943   -1.8872 O   0  0  0  0  0  0  0  0  0  0  0  0
    2.7719   -0.3230    0.1075 N   0  0  0  0  0  0  0  0  0  0  0  0
    4.1886   -0.6295    0.0014 C   0  0  0  0  0  0  0  0  0  0  0  0
    4.9162    0.4250   -0.8368 C   0  0  0  0  0  0  0  0  0  0  0  0
    6.3895    0.0683   -1.0486 C   0  0  0  0  0  0  0  0  0  0  0  0
    6.9824   -0.7808    0.0768 C   0  0  0  0  0  0  0  0  0  0  0  0
    6.3268   -0.4792    1.4167 C   0  0  0  0  0  0  0  0  0  0  0  0
    4.8213   -0.7569    1.3970 C   0  0  0  0  0  0  0  0  0  0  0  0
   -0.5572   -0.9833   -0.9027 N   0  0  0  0  0  0  0  0  0  0  0  0
   -1.6394   -0.2582   -0.5591 N   0  0  0  0  0  0  0  0  0  0  0  0
   -2.9678   -0.8472   -0.7292 C   0  0  2  0  0  0  0  0  0  0  0  0
   -3.3305   -1.7597    0.4559 C   0  0  0  0  0  0  0  0  0  0  0  0
   -4.4335   -2.7693    0.1212 C   0  0  0  0  0  0  0  0  0  0  0  0
   -5.3439   -2.2809   -0.9991 C   0  0  0  0  0  0  0  0  0  0  0  0
   -4.5809   -1.9969   -2.3005 C   0  0  0  0  0  0  0  0  0  0  0  0
   -3.1207   -1.5793   -2.0769 C   0  0  2  0  0  0  0  0  0  0  0  0
   -2.3213   -2.7682   -2.1197 O   0  0  0  0  0  0  0  0  0  0  0  0
   -1.3276    0.9885   -0.0729 C   0  0  0  0  0  0  0  0  0  0  0  0
   -2.3107    1.9656    0.3760 C   0  0  0  0  0  0  0  0  0  0  0  0
   -2.7994    1.9224    1.6860 C   0  0  0  0  0  0  0  0  0  0  0  0
   -3.7477    2.8538    2.1120 C   0  0  0  0  0  0  0  0  0  0  0  0
   -4.2076    3.8334    1.2325 C   0  0  0  0  0  0  0  0  0  0  0  0
   -3.7189    3.8852   -0.0724 C   0  0  0  0  0  0  0  0  0  0  0  0
   -2.7709    2.9544   -0.5005 C   0  0  0  0  0  0  0  0  0  0  0  0
    1.2113    2.1870    1.2685 H   0  0  0  0  0  0  0  0  0  0  0  0
    0.3390    3.1935    0.0996 H   0  0  0  0  0  0  0  0  0  0  0  0
    1.7800    2.3183   -0.4104 H   0  0  0  0  0  0  0  0  0  0  0  0
    2.4308    0.1688    0.9209 H   0  0  0  0  0  0  0  0  0  0  0  0
    4.2790   -1.5964   -0.5113 H   0  0  0  0  0  0  0  0  0  0  0  0
    4.4325    0.5580   -1.8121 H   0  0  0  0  0  0  0  0  0  0  0  0
    4.8470    1.3987   -0.3332 H   0  0  0  0  0  0  0  0  0  0  0  0
    6.9632    0.9970   -1.1551 H   0  0  0  0  0  0  0  0  0  0  0  0
    6.5074   -0.4730   -1.9952 H   0  0  0  0  0  0  0  0  0  0  0  0
    8.0634   -0.6105    0.1350 H   0  0  0  0  0  0  0  0  0  0  0  0
    6.8468   -1.8439   -0.1588 H   0  0  0  0  0  0  0  0  0  0  0  0
    6.7985   -1.0675    2.2118 H   0  0  0  0  0  0  0  0  0  0  0  0
    6.4960    0.5757    1.6679 H   0  0  0  0  0  0  0  0  0  0  0  0
    4.3383   -0.0799    2.1134 H   0  0  0  0  0  0  0  0  0  0  0  0
    4.6292   -1.7700    1.7735 H   0  0  0  0  0  0  0  0  0  0  0  0
   -3.6723   -0.0060   -0.7467 H   0  0  0  0  0  0  0  0  0  0  0  0
   -3.6585   -1.1311    1.2936 H   0  0  0  0  0  0  0  0  0  0  0  0
   -2.4536   -2.3077    0.8235 H   0  0  0  0  0  0  0  0  0  0  0  0
   -5.0223   -2.9794    1.0215 H   0  0  0  0  0  0  0  0  0  0  0  0
   -3.9774   -3.7216   -0.1767 H   0  0  0  0  0  0  0  0  0  0  0  0
   -5.8495   -1.3635   -0.6713 H   0  0  0  0  0  0  0  0  0  0  0  0
   -6.1342   -3.0155   -1.1917 H   0  0  0  0  0  0  0  0  0  0  0  0
   -4.6191   -2.8878   -2.9395 H   0  0  0  0  0  0  0  0  0  0  0  0
   -5.1126   -1.1999   -2.8345 H   0  0  0  0  0  0  0  0  0  0  0  0
   -2.7933   -0.9469   -2.9106 H   0  0  0  0  0  0  0  0  0  0  0  0
   -1.4072   -2.4833   -1.8869 H   0  0  0  0  0  0  0  0  0  0  0  0
   -2.4440    1.1655    2.3815 H   0  0  0  0  0  0  0  0  0  0  0  0
   -4.1260    2.8170    3.1305 H   0  0  0  0  0  0  0  0  0  0  0  0
   -4.9452    4.5595    1.5655 H   0  0  0  0  0  0  0  0  0  0  0  0
   -4.0746    4.6518   -0.7562 H   0  0  0  0  0  0  0  0  0  0  0  0
   -2.3936    3.0051   -1.5194 H   0  0  0  0  0  0  0  0  0  0  0  0
  1  2  1  0
  2  3  1  0
  3  4  1  0
  4  5  2  0
  4  6  1  0
  6  7  1  0
  7  8  1  0
  8  9  1  0
  9 10  1  0
 10 11  1  0
 11 12  1  0
  3 13  2  0
 13 14  1  0
 14 15  1  0
 15 16  1  0
 16 17  1  0
 17 18  1  0
 18 19  1  0
 19 20  1  0
 20 21  1  0
 14 22  1  0
 22 23  1  0
 23 24  2  0
 24 25  1  0
 25 26  2  0
 26 27  1  0
 27 28  2  0
 22  2  2  0
 28 23  1  0
 12  7  1  0
 20 15  1  0
  1 29  1  0
  1 30  1  0
  1 31  1  0
  6 32  1  0
  7 33  1  0
  8 34  1  0
  8 35  1  0
  9 36  1  0
  9 37  1  0
 10 38  1  0
 10 39  1  0
 11 40  1  0
 11 41  1  0
 12 42  1  0
 12 43  1  0
 15 44  1  6
 16 45  1  0
 16 46  1  0
 17 47  1  0
 17 48  1  0
 18 49  1  0
 18 50  1  0
 19 51  1  0
 19 52  1  0
 20 53  1  6
 21 54  1  0
 24 55  1  0
 25 56  1  0
 26 57  1  0
 27 58  1  0
 28 59  1  0
M  END
>  <_SMILES>  (192) 
Cc1c(C(=O)NC2CCCCC2)nn([C@@H]2CCCC[C@@H]2O)c1-c1ccccc1

$$$$

     RDKit          3D

 59 62  0  0  0  0  0  0  0  0999 V2000
    1.0782    1.9341   -0.5176 C   0  0  0  0  0  0  0  0  0  0  0  0
    0.1691    0.7709   -0.3436 C   0  0  0  0  0  0  0  0  0  0  0  0
    0.5131   -0.6196   -0.3349 C   0  0  0  0  0  0  0  0  0  0  0  0
    1.8491   -1.2369   -0.4498 C   0  0  0  0  0  0  0  0  0  0  0  0
    2.0747   -2.2283   -1.1386 O   0  0  0  0  0  0  0  0  0  0  0  0
    2.8297   -0.6105    0.3002 N   0  0  0  0  0  0  0  0  0  0  0  0
    4.2301   -1.0032    0.2289 C   0  0  0  0  0  0  0  0  0  0  0  0
    4.9164   -0.3591   -0.9905 C   0  0  0  0  0  0  0  0  0  0  0  0
    5.5920    0.9590   -0.6287 C   0  0  0  0  0  0  0  0  0  0  0  0
    6.6807    0.7668    0.4294 C   0  0  0  0  0  0  0  0  0  0  0  0
    6.4246   -0.4206    1.3595 C   0  0  0  0  0  0  0  0  0  0  0  0
    4.9346   -0.6678    1.5551 C   0  0  0  0  0  0  0  0  0  0  0  0
   -0.5856   -1.3806   -0.1998 N   0  0  0  0  0  0  0  0  0  0  0  0
   -1.6085   -0.5103   -0.1220 N   0  0  0  0  0  0  0  0  0  0  0  0
   -2.9762   -1.0213   -0.0022 C   0  0  1  0  0  0  0  0  0  0  0  0
   -3.5954   -1.2321   -1.3914 C   0  0  0  0  0  0  0  0  0  0  0  0
   -5.0294   -1.7471   -1.2950 C   0  0  0  0  0  0  0  0  0  0  0  0
   -5.1199   -3.0140   -0.4502 C   0  0  0  0  0  0  0  0  0  0  0  0
   -4.5022   -2.8129    0.9286 C   0  0  0  0  0  0  0  0  0  0  0  0
   -3.0582   -2.3158    0.8358 C   0  0  2  0  0  0  0  0  0  0  0  0
   -2.5905   -2.0885    2.1691 O   0  0  0  0  0  0  0  0  0  0  0  0
   -1.2078    0.8047   -0.1736 C   0  0  0  0  0  0  0  0  0  0  0  0
   -2.1129    1.9451   -0.1003 C   0  0  0  0  0  0  0  0  0  0  0  0
   -2.5633    2.4087    1.1407 C   0  0  0  0  0  0  0  0  0  0  0  0
   -3.4327    3.4987    1.2096 C   0  0  0  0  0  0  0  0  0  0  0  0
   -3.8516    4.1321    0.0402 C   0  0  0  0  0  0  0  0  0  0  0  0
   -3.4010    3.6786   -1.1990 C   0  0  0  0  0  0  0  0  0  0  0  0
   -2.5320    2.5886   -1.2698 C   0  0  0  0  0  0  0  0  0  0  0  0
    0.5610    2.7832   -0.9751 H   0  0  0  0  0  0  0  0  0  0  0  0
    1.9215    1.6817   -1.1683 H   0  0  0  0  0  0  0  0  0  0  0  0
    1.4706    2.2572    0.4517 H   0  0  0  0  0  0  0  0  0  0  0  0
    2.5699    0.1913    0.8567 H   0  0  0  0  0  0  0  0  0  0  0  0
    4.2565   -2.0907    0.0837 H   0  0  0  0  0  0  0  0  0  0  0  0
    5.6816   -1.0468   -1.3737 H   0  0  0  0  0  0  0  0  0  0  0  0
    4.2044   -0.2003   -1.8089 H   0  0  0  0  0  0  0  0  0  0  0  0
    6.0275    1.4201   -1.5224 H   0  0  0  0  0  0  0  0  0  0  0  0
    4.8368    1.6607   -0.2526 H   0  0  0  0  0  0  0  0  0  0  0  0
    7.6528    0.6267   -0.0586 H   0  0  0  0  0  0  0  0  0  0  0  0
    6.7649    1.6887    1.0176 H   0  0  0  0  0  0  0  0  0  0  0  0
    6.9112   -0.2428    2.3251 H   0  0  0  0  0  0  0  0  0  0  0  0
    6.8876   -1.3218    0.9381 H   0  0  0  0  0  0  0  0  0  0  0  0
    4.4899    0.2235    2.0176 H   0  0  0  0  0  0  0  0  0  0  0  0
    4.7783   -1.4874    2.2668 H   0  0  0  0  0  0  0  0  0  0  0  0
   -3.5402   -0.2477    0.5331 H   0  0  0  0  0  0  0  0  0  0  0  0
   -3.5881   -0.2948   -1.9600 H   0  0  0  0  0  0  0  0  0  0  0  0
   -2.9912   -1.9465   -1.9661 H   0  0  0  0  0  0  0  0  0  0  0  0
   -5.6660   -0.9693   -0.8555 H   0  0  0  0  0  0  0  0  0  0  0  0
   -5.4174   -1.9464   -2.3003 H   0  0  0  0  0  0  0  0  0  0  0  0
   -6.1690   -3.3125   -0.3448 H   0  0  0  0  0  0  0  0  0  0  0  0
   -4.6043   -3.8339   -0.9652 H   0  0  0  0  0  0  0  0  0  0  0  0
   -4.5341   -3.7522    1.4941 H   0  0  0  0  0  0  0  0  0  0  0  0
   -5.1033   -2.0992    1.5072 H   0  0  0  0  0  0  0  0  0  0  0  0
   -2.4440   -3.1132    0.3983 H   0  0  0  0  0  0  0  0  0  0  0  0
   -1.6177   -2.0213    2.0926 H   0  0  0  0  0  0  0  0  0  0  0  0
   -2.2423    1.9226    2.0594 H   0  0  0  0  0  0  0  0  0  0  0  0
   -3.7826    3.8535    2.1758 H   0  0  0  0  0  0  0  0  0  0  0  0
   -4.5285    4.9811    0.0949 H   0  0  0  0  0  0  0  0  0  0  0  0
   -3.7256    4.1743   -2.1103 H   0  0  0  0  0  0  0  0  0  0  0  0
   -2.1851    2.2432   -2.2411 H   0  0  0  0  0  0  0  0  0  0  0  0
  1  2  1  0
  2  3  1  0
  3  4  1  0
  4  5  2  0
  4  6  1  0
  6  7  1  0
  7  8  1  0
  8  9  1  0
  9 10  1  0
 10 11  1  0
 11 12  1  0
  3 13  2  0
 13 14  1  0
 14 15  1  0
 15 16  1  0
 16 17  1  0
 17 18  1  0
 18 19  1  0
 19 20  1  0
 20 21  1  0
 14 22  1  0
 22 23  1  0
 23 24  2  0
 24 25  1  0
 25 26  2  0
 26 27  1  0
 27 28  2  0
 22  2  2  0
 28 23  1  0
 12  7  1  0
 20 15  1  0
  1 29  1  0
  1 30  1  0
  1 31  1  0
  6 32  1  0
  7 33  1  0
  8 34  1  0
  8 35  1  0
  9 36  1  0
  9 37  1  0
 10 38  1  0
 10 39  1  0
 11 40  1  0
 11 41  1  0
 12 42  1  0
 12 43  1  0
 15 44  1  1
 16 45  1  0
 16 46  1  0
 17 47  1  0
 17 48  1  0
 18 49  1  0
 18 50  1  0
 19 51  1  0
 19 52  1  0
 20 53  1  6
 21 54  1  0
 24 55  1  0
 25 56  1  0
 26 57  1  0
 27 58  1  0
 28 59  1  0
M  END
>  <_SMILES>  (193) 
Cc1c(C(=O)NC2CCCCC2)nn([C@H]2CCCC[C@@H]2O)c1-c1ccccc1

$$$$

     RDKit          3D

 59 62  0  0  0  0  0  0  0  0999 V2000
    1.4660    1.4616    1.0716 C   0  0  0  0  0  0  0  0  0  0  0  0
    0.3293    0.5956    0.6624 C   0  0  0  0  0  0  0  0  0  0  0  0
    0.3887   -0.7527    0.1827 C   0  0  0  0  0  0  0  0  0  0  0  0
    1.5790   -1.5893   -0.0668 C   0  0  0  0  0  0  0  0  0  0  0  0
    1.6391   -2.7818    0.2217 O   0  0  0  0  0  0  0  0  0  0  0  0
    2.6204   -0.9200   -0.6873 N   0  0  0  0  0  0  0  0  0  0  0  0
    3.8637   -1.5864   -1.0489 C   0  0  0  0  0  0  0  0  0  0  0  0
    4.7814   -1.7578    0.1708 C   0  0  0  0  0  0  0  0  0  0  0  0
    5.3882   -0.4358    0.6396 C   0  0  0  0  0  0  0  0  0  0  0  0
    6.1075    0.2870   -0.4943 C   0  0  0  0  0  0  0  0  0  0  0  0
    5.1968    0.4903   -1.7005 C   0  0  0  0  0  0  0  0  0  0  0  0
    4.5819   -0.8273   -2.1729 C   0  0  0  0  0  0  0  0  0  0  0  0
   -0.8445   -1.2312   -0.0447 N   0  0  0  0  0  0  0  0  0  0  0  0
   -1.6771   -0.2146    0.2513 N   0  0  0  0  0  0  0  0  0  0  0  0
   -3.1251   -0.4352    0.1432 C   0  0  2  0  0  0  0  0  0  0  0  0
   -3.5970   -1.5327    1.1203 C   0  0  0  0  0  0  0  0  0  0  0  0
   -3.7259   -2.8975    0.4511 C   0  0  0  0  0  0  0  0  0  0  0  0
   -4.7047   -2.8763   -0.7229 C   0  0  0  0  0  0  0  0  0  0  0  0
   -4.8204   -1.5138   -1.4017 C   0  0  0  0  0  0  0  0  0  0  0  0
   -3.5214   -0.7142   -1.3238 C   0  0  1  0  0  0  0  0  0  0  0  0
   -3.7138    0.5265   -2.0166 O   0  0  0  0  0  0  0  0  0  0  0  0
   -1.0215    0.9173    0.6792 C   0  0  0  0  0  0  0  0  0  0  0  0
   -1.6822    2.1549    1.0798 C   0  0  0  0  0  0  0  0  0  0  0  0
   -2.2445    3.0013    0.1176 C   0  0  0  0  0  0  0  0  0  0  0  0
   -2.8760    4.1848    0.5041 C   0  0  0  0  0  0  0  0  0  0  0  0
   -2.9459    4.5302    1.8531 C   0  0  0  0  0  0  0  0  0  0  0  0
   -2.3856    3.6930    2.8171 C   0  0  0  0  0  0  0  0  0  0  0  0
   -1.7551    2.5084    2.4320 C   0  0  0  0  0  0  0  0  0  0  0  0
    2.2373    0.8761    1.5813 H   0  0  0  0  0  0  0  0  0  0  0  0
    1.1500    2.2486    1.7626 H   0  0  0  0  0  0  0  0  0  0  0  0
    1.9131    1.9419    0.1957 H   0  0  0  0  0  0  0  0  0  0  0  0
    2.4457    0.0178   -1.0202 H   0  0  0  0  0  0  0  0  0  0  0  0
    3.5949   -2.5827   -1.4218 H   0  0  0  0  0  0  0  0  0  0  0  0
    4.2398   -2.2212    1.0035 H   0  0  0  0  0  0  0  0  0  0  0  0
    5.5965   -2.4434   -0.0944 H   0  0  0  0  0  0  0  0  0  0  0  0
    6.0925   -0.6263    1.4574 H   0  0  0  0  0  0  0  0  0  0  0  0
    4.6010    0.2108    1.0445 H   0  0  0  0  0  0  0  0  0  0  0  0
    6.9875   -0.2942   -0.7963 H   0  0  0  0  0  0  0  0  0  0  0  0
    6.4729    1.2575   -0.1403 H   0  0  0  0  0  0  0  0  0  0  0  0
    5.7687    0.9410   -2.5197 H   0  0  0  0  0  0  0  0  0  0  0  0
    4.4025    1.2010   -1.4429 H   0  0  0  0  0  0  0  0  0  0  0  0
    3.8896   -0.6289   -3.0001 H   0  0  0  0  0  0  0  0  0  0  0  0
    5.3814   -1.4631   -2.5746 H   0  0  0  0  0  0  0  0  0  0  0  0
   -3.5988    0.4993    0.4639 H   0  0  0  0  0  0  0  0  0  0  0  0
   -2.9326   -1.6029    1.9901 H   0  0  0  0  0  0  0  0  0  0  0  0
   -4.5838   -1.2512    1.5114 H   0  0  0  0  0  0  0  0  0  0  0  0
   -2.7427   -3.2266    0.0948 H   0  0  0  0  0  0  0  0  0  0  0  0
   -4.0511   -3.6455    1.1834 H   0  0  0  0  0  0  0  0  0  0  0  0
   -5.7005   -3.1830   -0.3805 H   0  0  0  0  0  0  0  0  0  0  0  0
   -4.3901   -3.6298   -1.4552 H   0  0  0  0  0  0  0  0  0  0  0  0
   -5.6268   -0.9347   -0.9316 H   0  0  0  0  0  0  0  0  0  0  0  0
   -5.1327   -1.6416   -2.4454 H   0  0  0  0  0  0  0  0  0  0  0  0
   -2.7332   -1.2587   -1.8575 H   0  0  0  0  0  0  0  0  0  0  0  0
   -3.8639    0.3083   -2.9535 H   0  0  0  0  0  0  0  0  0  0  0  0
   -2.2011    2.7388   -0.9375 H   0  0  0  0  0  0  0  0  0  0  0  0
   -3.3152    4.8344   -0.2484 H   0  0  0  0  0  0  0  0  0  0  0  0
   -3.4384    5.4516    2.1531 H   0  0  0  0  0  0  0  0  0  0  0  0
   -2.4404    3.9614    3.8689 H   0  0  0  0  0  0  0  0  0  0  0  0
   -1.3233    1.8610    3.1918 H   0  0  0  0  0  0  0  0  0  0  0  0
  1  2  1  0
  2  3  1  0
  3  4  1  0
  4  5  2  0
  4  6  1  0
  6  7  1  0
  7  8  1  0
  8  9  1  0
  9 10  1  0
 10 11  1  0
 11 12  1  0
  3 13  2  0
 13 14  1  0
 14 15  1  0
 15 16  1  0
 16 17  1  0
 17 18  1  0
 18 19  1  0
 19 20  1  0
 20 21  1  0
 14 22  1  0
 22 23  1  0
 23 24  2  0
 24 25  1  0
 25 26  2  0
 26 27  1  0
 27 28  2  0
 22  2  2  0
 28 23  1  0
 12  7  1  0
 20 15  1  0
  1 29  1  0
  1 30  1  0
  1 31  1  0
  6 32  1  0
  7 33  1  0
  8 34  1  0
  8 35  1  0
  9 36  1  0
  9 37  1  0
 10 38  1  0
 10 39  1  0
 11 40  1  0
 11 41  1  0
 12 42  1  0
 12 43  1  0
 15 44  1  1
 16 45  1  0
 16 46  1  0
 17 47  1  0
 17 48  1  0
 18 49  1  0
 18 50  1  0
 19 51  1  0
 19 52  1  0
 20 53  1  6
 21 54  1  0
 24 55  1  0
 25 56  1  0
 26 57  1  0
 27 58  1  0
 28 59  1  0
M  END
>  <_SMILES>  (194) 
Cc1c(C(=O)NC2CCCCC2)nn([C@@H]2CCCC[C@H]2O)c1-c1ccccc1

$$$$

     RDKit          3D

 59 62  0  0  0  0  0  0  0  0999 V2000
    1.1926    1.5310   -0.9040 C   0  0  0  0  0  0  0  0  0  0  0  0
    0.3380    0.4094   -0.4309 C   0  0  0  0  0  0  0  0  0  0  0  0
    0.7159   -0.9545   -0.2411 C   0  0  0  0  0  0  0  0  0  0  0  0
    2.0438   -1.5794   -0.4063 C   0  0  0  0  0  0  0  0  0  0  0  0
    2.2100   -2.6922   -0.8993 O   0  0  0  0  0  0  0  0  0  0  0  0
    3.0945   -0.8158    0.0746 N   0  0  0  0  0  0  0  0  0  0  0  0
    4.4738   -1.2810    0.0297 C   0  0  0  0  0  0  0  0  0  0  0  0
    5.3262   -0.5610    1.0835 C   0  0  0  0  0  0  0  0  0  0  0  0
    5.6028    0.8996    0.7265 C   0  0  0  0  0  0  0  0  0  0  0  0
    6.2073    1.0346   -0.6671 C   0  0  0  0  0  0  0  0  0  0  0  0
    5.3455    0.3517   -1.7238 C   0  0  0  0  0  0  0  0  0  0  0  0
    5.0760   -1.1112   -1.3731 C   0  0  0  0  0  0  0  0  0  0  0  0
   -0.3399   -1.6845    0.1450 N   0  0  0  0  0  0  0  0  0  0  0  0
   -1.3798   -0.8237    0.2000 N   0  0  0  0  0  0  0  0  0  0  0  0
   -2.6651   -1.4078    0.5773 C   0  0  1  0  0  0  0  0  0  0  0  0
   -3.4945   -0.6479    1.6255 C   0  0  0  0  0  0  0  0  0  0  0  0
   -4.8997   -1.2377    1.8128 C   0  0  0  0  0  0  0  0  0  0  0  0
   -5.0286   -2.6615    1.2854 C   0  0  0  0  0  0  0  0  0  0  0  0
   -4.6537   -2.7816   -0.1975 C   0  0  0  0  0  0  0  0  0  0  0  0
   -3.5127   -1.8440   -0.6325 C   0  0  1  0  0  0  0  0  0  0  0  0
   -4.0947   -0.7370   -1.3286 O   0  0  0  0  0  0  0  0  0  0  0  0
   -1.0136    0.4676   -0.1077 C   0  0  0  0  0  0  0  0  0  0  0  0
   -1.8789    1.6411   -0.1139 C   0  0  0  0  0  0  0  0  0  0  0  0
   -2.6495    1.9530   -1.2377 C   0  0  0  0  0  0  0  0  0  0  0  0
   -3.4519    3.0954   -1.2478 C   0  0  0  0  0  0  0  0  0  0  0  0
   -3.4747    3.9420   -0.1404 C   0  0  0  0  0  0  0  0  0  0  0  0
   -2.6904    3.6516    0.9750 C   0  0  0  0  0  0  0  0  0  0  0  0
   -1.8888    2.5085    0.9860 C   0  0  0  0  0  0  0  0  0  0  0  0
    1.9223    1.1821   -1.6410 H   0  0  0  0  0  0  0  0  0  0  0  0
    0.5997    2.3145   -1.3860 H   0  0  0  0  0  0  0  0  0  0  0  0
    1.7306    1.9805   -0.0637 H   0  0  0  0  0  0  0  0  0  0  0  0
    2.8722    0.0270    0.5846 H   0  0  0  0  0  0  0  0  0  0  0  0
    4.4578   -2.3511    0.2712 H   0  0  0  0  0  0  0  0  0  0  0  0
    6.2854   -1.0855    1.1811 H   0  0  0  0  0  0  0  0  0  0  0  0
    4.8380   -0.6089    2.0644 H   0  0  0  0  0  0  0  0  0  0  0  0
    6.2858    1.3333    1.4658 H   0  0  0  0  0  0  0  0  0  0  0  0
    4.6731    1.4786    0.7791 H   0  0  0  0  0  0  0  0  0  0  0  0
    6.3260    2.0950   -0.9165 H   0  0  0  0  0  0  0  0  0  0  0  0
    7.2107    0.5912   -0.6733 H   0  0  0  0  0  0  0  0  0  0  0  0
    4.3960    0.8898   -1.8253 H   0  0  0  0  0  0  0  0  0  0  0  0
    5.8463    0.4081   -2.6970 H   0  0  0  0  0  0  0  0  0  0  0  0
    6.0236   -1.6632   -1.4195 H   0  0  0  0  0  0  0  0  0  0  0  0
    4.4199   -1.5493   -2.1341 H   0  0  0  0  0  0  0  0  0  0  0  0
   -2.3699   -2.3423    1.0825 H   0  0  0  0  0  0  0  0  0  0  0  0
   -3.6209    0.4057    1.3735 H   0  0  0  0  0  0  0  0  0  0  0  0
   -2.9578   -0.6656    2.5826 H   0  0  0  0  0  0  0  0  0  0  0  0
   -5.1698   -1.2057    2.8748 H   0  0  0  0  0  0  0  0  0  0  0  0
   -5.6291   -0.6018    1.2954 H   0  0  0  0  0  0  0  0  0  0  0  0
   -4.3823   -3.3220    1.8775 H   0  0  0  0  0  0  0  0  0  0  0  0
   -6.0522   -3.0251    1.4324 H   0  0  0  0  0  0  0  0  0  0  0  0
   -4.3565   -3.8216   -0.3809 H   0  0  0  0  0  0  0  0  0  0  0  0
   -5.5455   -2.5981   -0.8096 H   0  0  0  0  0  0  0  0  0  0  0  0
   -2.8899   -2.3657   -1.3683 H   0  0  0  0  0  0  0  0  0  0  0  0
   -4.6710   -0.2421   -0.7225 H   0  0  0  0  0  0  0  0  0  0  0  0
   -2.6290    1.3060   -2.1130 H   0  0  0  0  0  0  0  0  0  0  0  0
   -4.0527    3.3258   -2.1240 H   0  0  0  0  0  0  0  0  0  0  0  0
   -4.0967    4.8335   -0.1513 H   0  0  0  0  0  0  0  0  0  0  0  0
   -2.6991    4.3174    1.8341 H   0  0  0  0  0  0  0  0  0  0  0  0
   -1.2747    2.2948    1.8576 H   0  0  0  0  0  0  0  0  0  0  0  0
  1  2  1  0
  2  3  1  0
  3  4  1  0
  4  5  2  0
  4  6  1  0
  6  7  1  0
  7  8  1  0
  8  9  1  0
  9 10  1  0
 10 11  1  0
 11 12  1  0
  3 13  2  0
 13 14  1  0
 14 15  1  0
 15 16  1  0
 16 17  1  0
 17 18  1  0
 18 19  1  0
 19 20  1  0
 20 21  1  0
 14 22  1  0
 22 23  1  0
 23 24  2  0
 24 25  1  0
 25 26  2  0
 26 27  1  0
 27 28  2  0
 22  2  2  0
 28 23  1  0
 12  7  1  0
 20 15  1  0
  1 29  1  0
  1 30  1  0
  1 31  1  0
  6 32  1  0
  7 33  1  0
  8 34  1  0
  8 35  1  0
  9 36  1  0
  9 37  1  0
 10 38  1  0
 10 39  1  0
 11 40  1  0
 11 41  1  0
 12 42  1  0
 12 43  1  0
 15 44  1  1
 16 45  1  0
 16 46  1  0
 17 47  1  0
 17 48  1  0
 18 49  1  0
 18 50  1  0
 19 51  1  0
 19 52  1  0
 20 53  1  6
 21 54  1  0
 24 55  1  0
 25 56  1  0
 26 57  1  0
 27 58  1  0
 28 59  1  0
M  END
>  <_SMILES>  (195) 
Cc1c(C(=O)NC2CCCCC2)nn([C@H]2CCCC[C@H]2O)c1-c1ccccc1

$$$$

     RDKit          3D

 60 64  0  0  0  0  0  0  0  0999 V2000
   -0.7217    2.5706    0.8530 C   0  0  0  0  0  0  0  0  0  0  0  0
   -0.0970    1.4671    0.0783 C   0  0  0  0  0  0  0  0  0  0  0  0
    1.1951    1.4606   -0.4315 C   0  0  0  0  0  0  0  0  0  0  0  0
    2.2400    2.4736   -0.3469 C   0  0  0  0  0  0  0  0  0  0  0  0
    2.4587    3.3537   -1.4125 C   0  0  0  0  0  0  0  0  0  0  0  0
    3.4579    4.3249   -1.3279 C   0  0  0  0  0  0  0  0  0  0  0  0
    4.2393    4.4233   -0.1770 C   0  0  0  0  0  0  0  0  0  0  0  0
    4.0207    3.5543    0.8914 C   0  0  0  0  0  0  0  0  0  0  0  0
    3.0211    2.5835    0.8085 C   0  0  0  0  0  0  0  0  0  0  0  0
    1.3423    0.2450   -1.0495 N   0  0  0  0  0  0  0  0  0  0  0  0
    2.5189   -0.2764   -1.7253 C   0  0  0  0  0  0  0  0  0  0  0  0
    3.5396   -0.9030   -0.7720 C   0  0  0  0  0  0  0  0  0  0  0  0
    3.0998   -2.2731   -0.2399 C   0  0  1  0  0  0  0  0  0  0  0  0
    3.0541   -3.2119   -1.3187 O   0  0  0  0  0  0  0  0  0  0  0  0
    4.0492   -2.8060    0.8435 C   0  0  0  0  0  0  0  0  0  0  0  0
    4.1359   -1.9142    1.9458 O   0  0  0  0  0  0  0  0  0  0  0  0
    0.2352   -0.5098   -1.0088 N   0  0  0  0  0  0  0  0  0  0  0  0
   -0.6501    0.2001   -0.2972 C   0  0  0  0  0  0  0  0  0  0  0  0
   -2.0323   -0.3894   -0.0255 C   0  0  2  0  0  0  0  0  0  0  0  0
   -2.4034   -0.3030    1.4818 C   0  0  0  0  0  0  0  0  0  0  0  0
   -3.8046   -0.8815    1.7452 C   0  0  1  0  0  0  0  0  0  0  0  0
   -4.8371   -0.1005    0.9157 C   0  0  0  0  0  0  0  0  0  0  0  0
   -4.5156   -0.2261   -0.5824 C   0  0  2  0  0  0  0  0  0  0  0  0
   -4.5386   -1.7087   -0.9827 C   0  0  0  0  0  0  0  0  0  0  0  0
   -3.5016   -2.4882   -0.1607 C   0  0  2  0  0  0  0  0  0  0  0  0
   -3.8313   -2.3594    1.3325 C   0  0  0  0  0  0  0  0  0  0  0  0
   -2.1049   -1.9011   -0.4232 C   0  0  0  0  0  0  0  0  0  0  0  0
   -3.1161    0.3537   -0.8539 C   0  0  0  0  0  0  0  0  0  0  0  0
   -1.7849    2.6744    0.6259 H   0  0  0  0  0  0  0  0  0  0  0  0
   -0.2540    3.5342    0.6258 H   0  0  0  0  0  0  0  0  0  0  0  0
   -0.6101    2.3878    1.9265 H   0  0  0  0  0  0  0  0  0  0  0  0
    1.8474    3.2894   -2.3097 H   0  0  0  0  0  0  0  0  0  0  0  0
    3.6231    5.0069   -2.1578 H   0  0  0  0  0  0  0  0  0  0  0  0
    5.0160    5.1809   -0.1106 H   0  0  0  0  0  0  0  0  0  0  0  0
    4.6264    3.6325    1.7904 H   0  0  0  0  0  0  0  0  0  0  0  0
    2.8565    1.9092    1.6464 H   0  0  0  0  0  0  0  0  0  0  0  0
    2.9781    0.5588   -2.2651 H   0  0  0  0  0  0  0  0  0  0  0  0
    2.1830   -0.9922   -2.4846 H   0  0  0  0  0  0  0  0  0  0  0  0
    3.7395   -0.2193    0.0593 H   0  0  0  0  0  0  0  0  0  0  0  0
    4.4795   -1.0245   -1.3254 H   0  0  0  0  0  0  0  0  0  0  0  0
    2.0952   -2.2008    0.1891 H   0  0  0  0  0  0  0  0  0  0  0  0
    3.9436   -3.2781   -1.7045 H   0  0  0  0  0  0  0  0  0  0  0  0
    5.0543   -2.9588    0.4348 H   0  0  0  0  0  0  0  0  0  0  0  0
    3.6934   -3.7790    1.2006 H   0  0  0  0  0  0  0  0  0  0  0  0
    4.6371   -2.3718    2.6427 H   0  0  0  0  0  0  0  0  0  0  0  0
   -2.3918    0.7337    1.8330 H   0  0  0  0  0  0  0  0  0  0  0  0
   -1.6594   -0.8401    2.0852 H   0  0  0  0  0  0  0  0  0  0  0  0
   -4.0447   -0.7927    2.8107 H   0  0  0  0  0  0  0  0  0  0  0  0
   -4.8356    0.9556    1.2124 H   0  0  0  0  0  0  0  0  0  0  0  0
   -5.8448   -0.4855    1.1153 H   0  0  0  0  0  0  0  0  0  0  0  0
   -5.2611    0.3245   -1.1670 H   0  0  0  0  0  0  0  0  0  0  0  0
   -4.3238   -1.8118   -2.0535 H   0  0  0  0  0  0  0  0  0  0  0  0
   -5.5392   -2.1266   -0.8174 H   0  0  0  0  0  0  0  0  0  0  0  0
   -3.5185   -3.5443   -0.4522 H   0  0  0  0  0  0  0  0  0  0  0  0
   -4.8197   -2.7887    1.5373 H   0  0  0  0  0  0  0  0  0  0  0  0
   -3.1073   -2.9290    1.9280 H   0  0  0  0  0  0  0  0  0  0  0  0
   -1.3571   -2.4772    0.1390 H   0  0  0  0  0  0  0  0  0  0  0  0
   -1.8629   -2.0299   -1.4870 H   0  0  0  0  0  0  0  0  0  0  0  0
   -3.1235    1.4238   -0.6182 H   0  0  0  0  0  0  0  0  0  0  0  0
   -2.8878    0.2805   -1.9258 H   0  0  0  0  0  0  0  0  0  0  0  0
  1  2  1  0
  2  3  2  0
  3  4  1  0
  4  5  2  0
  5  6  1  0
  6  7  2  0
  7  8  1  0
  8  9  2  0
  3 10  1  0
 10 11  1  0
 11 12  1  0
 12 13  1  0
 13 14  1  0
 13 15  1  0
 15 16  1  0
 10 17  1  0
 17 18  2  0
 19 18  1  1
 19 20  1  0
 20 21  1  0
 21 22  1  0
 22 23  1  0
 23 24  1  0
 24 25  1  0
 25 26  1  0
 25 27  1  0
 23 28  1  0
 18  2  1  0
 27 19  1  0
  9  4  1  0
 28 19  1  0
 26 21  1  0
  1 29  1  0
  1 30  1  0
  1 31  1  0
  5 32  1  0
  6 33  1  0
  7 34  1  0
  8 35  1  0
  9 36  1  0
 11 37  1  0
 11 38  1  0
 12 39  1  0
 12 40  1  0
 13 41  1  1
 14 42  1  0
 15 43  1  0
 15 44  1  0
 16 45  1  0
 20 46  1  0
 20 47  1  0
 21 48  1  1
 22 49  1  0
 22 50  1  0
 23 51  1  6
 24 52  1  0
 24 53  1  0
 25 54  1  6
 26 55  1  0
 26 56  1  0
 27 57  1  0
 27 58  1  0
 28 59  1  0
 28 60  1  0
M  END
>  <_SMILES>  (196) 
Cc1c(-c2ccccc2)n(CC[C@@H](O)CO)nc1[C@]12C[C@H]3C[C@H](C[C@H](C3)C1)C2

$$$$

     RDKit          3D

 60 64  0  0  0  0  0  0  0  0999 V2000
   -1.2624    2.3878   -1.3532 C   0  0  0  0  0  0  0  0  0  0  0  0
   -0.3088    1.5586   -0.5705 C   0  0  0  0  0  0  0  0  0  0  0  0
    0.9830    1.9226   -0.2168 C   0  0  0  0  0  0  0  0  0  0  0  0
    1.7290    3.1425   -0.4980 C   0  0  0  0  0  0  0  0  0  0  0  0
    1.7575    4.1838    0.4358 C   0  0  0  0  0  0  0  0  0  0  0  0
    2.4773    5.3489    0.1655 C   0  0  0  0  0  0  0  0  0  0  0  0
    3.1684    5.4784   -1.0388 C   0  0  0  0  0  0  0  0  0  0  0  0
    3.1388    4.4455   -1.9753 C   0  0  0  0  0  0  0  0  0  0  0  0
    2.4191    3.2801   -1.7069 C   0  0  0  0  0  0  0  0  0  0  0  0
    1.4919    0.8604    0.4846 N   0  0  0  0  0  0  0  0  0  0  0  0
    2.8226    0.7614    1.0669 C   0  0  0  0  0  0  0  0  0  0  0  0
    3.1978   -0.6002    1.6649 C   0  0  0  0  0  0  0  0  0  0  0  0
    3.5831   -1.6555    0.6146 C   0  0  2  0  0  0  0  0  0  0  0  0
    2.6220   -1.7724   -0.4293 O   0  0  0  0  0  0  0  0  0  0  0  0
    3.7917   -3.0404    1.2436 C   0  0  0  0  0  0  0  0  0  0  0  0
    4.7541   -3.0139    2.2908 O   0  0  0  0  0  0  0  0  0  0  0  0
    0.6214   -0.1590    0.6122 N   0  0  0  0  0  0  0  0  0  0  0  0
   -0.4827    0.2406   -0.0363 C   0  0  0  0  0  0  0  0  0  0  0  0
   -1.6912   -0.6924   -0.0984 C   0  0  2  0  0  0  0  0  0  0  0  0
   -1.3419   -2.1259    0.4231 C   0  0  0  0  0  0  0  0  0  0  0  0
   -2.5634   -3.0585    0.3739 C   0  0  1  0  0  0  0  0  0  0  0  0
   -3.6815   -2.4715    1.2477 C   0  0  0  0  0  0  0  0  0  0  0  0
   -4.0715   -1.0786    0.7315 C   0  0  2  0  0  0  0  0  0  0  0  0
   -4.5534   -1.1936   -0.7239 C   0  0  0  0  0  0  0  0  0  0  0  0
   -3.4397   -1.7839   -1.6044 C   0  0  2  0  0  0  0  0  0  0  0  0
   -3.0536   -3.1721   -1.0759 C   0  0  0  0  0  0  0  0  0  0  0  0
   -2.2116   -0.8582   -1.5537 C   0  0  0  0  0  0  0  0  0  0  0  0
   -2.8447   -0.1514    0.7905 C   0  0  0  0  0  0  0  0  0  0  0  0
   -2.2906    2.2566   -1.0094 H   0  0  0  0  0  0  0  0  0  0  0  0
   -1.0322    3.4545   -1.2641 H   0  0  0  0  0  0  0  0  0  0  0  0
   -1.2115    2.1210   -2.4135 H   0  0  0  0  0  0  0  0  0  0  0  0
    1.2151    4.0943    1.3741 H   0  0  0  0  0  0  0  0  0  0  0  0
    2.4958    6.1567    0.8925 H   0  0  0  0  0  0  0  0  0  0  0  0
    3.7275    6.3866   -1.2497 H   0  0  0  0  0  0  0  0  0  0  0  0
    3.6744    4.5477   -2.9157 H   0  0  0  0  0  0  0  0  0  0  0  0
    2.3995    2.4797   -2.4435 H   0  0  0  0  0  0  0  0  0  0  0  0
    3.5445    1.0483    0.2944 H   0  0  0  0  0  0  0  0  0  0  0  0
    2.8500    1.5148    1.8632 H   0  0  0  0  0  0  0  0  0  0  0  0
    2.3777   -0.9740    2.2904 H   0  0  0  0  0  0  0  0  0  0  0  0
    4.0540   -0.4511    2.3348 H   0  0  0  0  0  0  0  0  0  0  0  0
    4.5252   -1.3404    0.1504 H   0  0  0  0  0  0  0  0  0  0  0  0
    1.7413   -1.5243   -0.0684 H   0  0  0  0  0  0  0  0  0  0  0  0
    2.8491   -3.4447    1.6307 H   0  0  0  0  0  0  0  0  0  0  0  0
    4.1394   -3.7437    0.4790 H   0  0  0  0  0  0  0  0  0  0  0  0
    4.2885   -2.7549    3.1044 H   0  0  0  0  0  0  0  0  0  0  0  0
   -0.9748   -2.0791    1.4574 H   0  0  0  0  0  0  0  0  0  0  0  0
   -0.5306   -2.5603   -0.1767 H   0  0  0  0  0  0  0  0  0  0  0  0
   -2.2855   -4.0503    0.7479 H   0  0  0  0  0  0  0  0  0  0  0  0
   -4.5552   -3.1347    1.2345 H   0  0  0  0  0  0  0  0  0  0  0  0
   -3.3480   -2.4055    2.2907 H   0  0  0  0  0  0  0  0  0  0  0  0
   -4.8736   -0.6667    1.3542 H   0  0  0  0  0  0  0  0  0  0  0  0
   -4.8466   -0.2062   -1.1011 H   0  0  0  0  0  0  0  0  0  0  0  0
   -5.4453   -1.8304   -0.7729 H   0  0  0  0  0  0  0  0  0  0  0  0
   -3.7934   -1.8691   -2.6381 H   0  0  0  0  0  0  0  0  0  0  0  0
   -2.2685   -3.6087   -1.7052 H   0  0  0  0  0  0  0  0  0  0  0  0
   -3.9163   -3.8474   -1.1288 H   0  0  0  0  0  0  0  0  0  0  0  0
   -1.4161   -1.2592   -2.1958 H   0  0  0  0  0  0  0  0  0  0  0  0
   -2.4954    0.1073   -1.9845 H   0  0  0  0  0  0  0  0  0  0  0  0
   -3.1443    0.8539    0.4739 H   0  0  0  0  0  0  0  0  0  0  0  0
   -2.5054   -0.0537    1.8306 H   0  0  0  0  0  0  0  0  0  0  0  0
  1  2  1  0
  2  3  2  0
  3  4  1  0
  4  5  2  0
  5  6  1  0
  6  7  2  0
  7  8  1  0
  8  9  2  0
  3 10  1  0
 10 11  1  0
 11 12  1  0
 12 13  1  0
 13 14  1  0
 13 15  1  0
 15 16  1  0
 10 17  1  0
 17 18  2  0
 19 18  1  6
 19 20  1  0
 20 21  1  0
 21 22  1  0
 22 23  1  0
 23 24  1  0
 24 25  1  0
 25 26  1  0
 25 27  1  0
 23 28  1  0
 18  2  1  0
 27 19  1  0
  9  4  1  0
 28 19  1  0
 26 21  1  0
  1 29  1  0
  1 30  1  0
  1 31  1  0
  5 32  1  0
  6 33  1  0
  7 34  1  0
  8 35  1  0
  9 36  1  0
 11 37  1  0
 11 38  1  0
 12 39  1  0
 12 40  1  0
 13 41  1  6
 14 42  1  0
 15 43  1  0
 15 44  1  0
 16 45  1  0
 20 46  1  0
 20 47  1  0
 21 48  1  1
 22 49  1  0
 22 50  1  0
 23 51  1  1
 24 52  1  0
 24 53  1  0
 25 54  1  6
 26 55  1  0
 26 56  1  0
 27 57  1  0
 27 58  1  0
 28 59  1  0
 28 60  1  0
M  END
>  <_SMILES>  (197) 
Cc1c(-c2ccccc2)n(CC[C@H](O)CO)nc1[C@]12C[C@H]3C[C@H](C[C@H](C3)C1)C2

$$$$
