
     RDKit          3D

 48 52  0  0  0  0  0  0  0  0999 V2000
   13.3560    5.9300  -59.5540 C   0  0  0  0  0  0  0  0  0  0  0  0
   11.9850    5.8620  -59.1590 O   0  0  0  0  0  0  0  0  0  0  0  0
   11.6490    4.7150  -58.5010 C   0  0  0  0  0  0  0  0  0  0  0  0
   12.4490    3.8540  -58.1580 O   0  0  0  0  0  0  0  0  0  0  0  0
   10.1500    4.6770  -58.2440 C   0  0  1  0  0  0  0  0  0  0  0  0
    9.3410    5.1010  -59.4970 C   0  0  2  0  0  0  0  0  0  0  0  0
    7.8520    5.2310  -59.1090 C   0  0  0  0  0  0  0  0  0  0  0  0
    7.3150    3.8880  -58.5960 C   0  0  2  0  0  0  0  0  0  0  0  0
    8.1240    3.4070  -57.3840 C   0  0  0  0  0  0  0  0  0  0  0  0
    9.6390    3.2980  -57.7370 C   0  0  2  0  0  0  0  0  0  0  0  0
   10.4040    2.7440  -56.6060 N   0  0  0  0  0  0  0  0  0  0  0  0
   10.1650    1.4560  -56.1080 C   0  0  0  0  0  0  0  0  0  0  0  0
    9.0340    1.2900  -55.3080 C   0  0  0  0  0  0  0  0  0  0  0  0
    8.7240    0.0480  -54.7600 C   0  0  0  0  0  0  0  0  0  0  0  0
    9.6010   -1.0000  -55.0450 C   0  0  0  0  0  0  0  0  0  0  0  0
    9.5300   -2.6390  -54.5400 S   0  0  0  0  0  0  0  0  0  0  0  0
   10.9710   -3.0380  -55.3690 C   0  0  0  0  0  0  0  0  0  0  0  0
   11.4960   -4.4310  -55.3190 C   0  0  0  0  0  0  0  0  0  0  0  0
   11.5000   -1.9440  -56.0210 C   0  0  0  0  0  0  0  0  0  0  0  0
   10.7180   -0.7650  -55.8410 C   0  0  0  0  0  0  0  0  0  0  0  0
   11.0080    0.4510  -56.3720 N   0  0  0  0  0  0  0  0  0  0  0  0
    9.7340    2.2390  -58.8880 C   0  0  0  0  0  0  0  0  0  0  0  0
    8.9590    2.6910  -60.1260 C   0  0  2  0  0  0  0  0  0  0  0  0
    9.4710    4.0480  -60.6150 C   0  0  0  0  0  0  0  0  0  0  0  0
    7.5110    2.8740  -59.7080 C   0  0  0  0  0  0  0  0  0  0  0  0
    6.5820    2.2690  -60.2340 O   0  0  0  0  0  0  0  0  0  0  0  0
   13.9944    5.9617  -58.6587 H   0  0  0  0  0  0  0  0  0  0  0  0
   13.6092    5.0433  -60.1537 H   0  0  0  0  0  0  0  0  0  0  0  0
   13.5202    6.8374  -60.1537 H   0  0  0  0  0  0  0  0  0  0  0  0
    9.9826    5.4057  -57.4372 H   0  0  0  0  0  0  0  0  0  0  0  0
    9.7348    6.0602  -59.8642 H   0  0  0  0  0  0  0  0  0  0  0  0
    7.7480    5.9889  -58.3186 H   0  0  0  0  0  0  0  0  0  0  0  0
    7.2761    5.5304  -59.9971 H   0  0  0  0  0  0  0  0  0  0  0  0
    6.2600    3.9997  -58.3054 H   0  0  0  0  0  0  0  0  0  0  0  0
    7.9967    4.1227  -56.5585 H   0  0  0  0  0  0  0  0  0  0  0  0
    7.7585    2.4125  -57.0885 H   0  0  0  0  0  0  0  0  0  0  0  0
   10.3770    3.3890  -55.8100 H   0  0  0  0  0  0  0  0  0  0  0  0
    8.3792    2.1509  -55.1077 H   0  0  0  0  0  0  0  0  0  0  0  0
    7.8321   -0.1000  -54.1335 H   0  0  0  0  0  0  0  0  0  0  0  0
   11.6130   -4.7413  -54.2702 H   0  0  0  0  0  0  0  0  0  0  0  0
   10.7909   -5.1070  -55.8249 H   0  0  0  0  0  0  0  0  0  0  0  0
   12.4718   -4.4735  -55.8249 H   0  0  0  0  0  0  0  0  0  0  0  0
   12.4249   -1.9771  -56.6155 H   0  0  0  0  0  0  0  0  0  0  0  0
   10.7908    2.0983  -59.1588 H   0  0  0  0  0  0  0  0  0  0  0  0
    9.2947    1.2966  -58.5290 H   0  0  0  0  0  0  0  0  0  0  0  0
    9.0766    1.9465  -60.9271 H   0  0  0  0  0  0  0  0  0  0  0  0
   10.5280    3.9545  -60.9048 H   0  0  0  0  0  0  0  0  0  0  0  0
    8.8710    4.3672  -61.4799 H   0  0  0  0  0  0  0  0  0  0  0  0
  1  2  1  0
  2  3  1  0
  3  4  2  0
  3  5  1  0
  5  6  1  0
  6  7  1  0
  7  8  1  0
  8  9  1  0
  9 10  1  0
 10 11  1  1
 11 12  1  0
 12 13  1  0
 13 14  2  0
 14 15  1  0
 15 16  1  0
 16 17  1  0
 17 18  1  0
 17 19  2  0
 19 20  1  0
 20 21  1  0
 10 22  1  0
 22 23  1  0
 23 24  1  0
 23 25  1  0
 25 26  2  0
 10  5  1  0
 21 12  2  0
 24  6  1  0
 25  8  1  0
 20 15  2  0
  1 27  1  0
  1 28  1  0
  1 29  1  0
  5 30  1  1
  6 31  1  6
  7 32  1  0
  7 33  1  0
  8 34  1  1
  9 35  1  0
  9 36  1  0
 11 37  1  0
 13 38  1  0
 14 39  1  0
 18 40  1  0
 18 41  1  0
 18 42  1  0
 19 43  1  0
 22 44  1  0
 22 45  1  0
 23 46  1  6
 24 47  1  0
 24 48  1  0
M  END
>  <meeko>  (1) 
{"is_sidechain": false}

$$$$

     RDKit          3D

 48 52  0  0  0  0  0  0  0  0999 V2000
   13.3540    4.5880  -58.6960 C   0  0  0  0  0  0  0  0  0  0  0  0
   12.2500    4.8930  -57.8440 O   0  0  0  0  0  0  0  0  0  0  0  0
   11.4380    3.8270  -57.5860 C   0  0  0  0  0  0  0  0  0  0  0  0
   11.8360    2.7240  -57.2350 O   0  0  0  0  0  0  0  0  0  0  0  0
    9.9800    4.2020  -57.8320 C   0  0  1  0  0  0  0  0  0  0  0  0
    9.8260    5.1360  -59.0550 C   0  0  2  0  0  0  0  0  0  0  0  0
    8.3760    5.6660  -59.0740 C   0  0  0  0  0  0  0  0  0  0  0  0
    7.3920    4.4930  -59.1540 C   0  0  2  0  0  0  0  0  0  0  0  0
    7.5840    3.5320  -57.9720 C   0  0  0  0  0  0  0  0  0  0  0  0
    9.0310    2.9670  -57.9610 C   0  0  2  0  0  0  0  0  0  0  0  0
    9.2640    2.1380  -56.7870 N   0  0  0  0  0  0  0  0  0  0  0  0
    8.4630    1.4150  -56.0870 C   0  0  0  0  0  0  0  0  0  0  0  0
    6.9800    1.2410  -56.3250 C   0  0  0  0  0  0  0  0  0  0  0  0
    6.2740    0.4430  -55.5040 C   0  0  0  0  0  0  0  0  0  0  0  0
    6.9790   -0.1930  -54.4530 C   0  0  0  0  0  0  0  0  0  0  0  0
    6.2710   -1.2390  -53.3120 S   0  0  0  0  0  0  0  0  0  0  0  0
    7.7720   -1.4880  -52.5150 C   0  0  0  0  0  0  0  0  0  0  0  0
    7.8370   -2.3870  -51.3270 C   0  0  0  0  0  0  0  0  0  0  0  0
    8.7970   -0.7800  -53.1150 C   0  0  0  0  0  0  0  0  0  0  0  0
    8.3300   -0.0390  -54.2260 C   0  0  0  0  0  0  0  0  0  0  0  0
    9.0690    0.7570  -55.0280 N   0  0  0  0  0  0  0  0  0  0  0  0
    9.3260    2.2300  -59.2890 C   0  0  0  0  0  0  0  0  0  0  0  0
    9.1340    3.1770  -60.4820 C   0  0  2  0  0  0  0  0  0  0  0  0
   10.0670    4.3850  -60.3810 C   0  0  0  0  0  0  0  0  0  0  0  0
    7.7080    3.7020  -60.4160 C   0  0  0  0  0  0  0  0  0  0  0  0
    6.8730    3.4780  -61.2850 O   0  0  0  0  0  0  0  0  0  0  0  0
   14.2342    4.3448  -58.0827 H   0  0  0  0  0  0  0  0  0  0  0  0
   13.1001    3.7264  -59.3309 H   0  0  0  0  0  0  0  0  0  0  0  0
   13.5784    5.4578  -59.3309 H   0  0  0  0  0  0  0  0  0  0  0  0
    9.6649    4.7488  -56.9310 H   0  0  0  0  0  0  0  0  0  0  0  0
   10.5659    5.9452  -58.9673 H   0  0  0  0  0  0  0  0  0  0  0  0
    8.1854    6.2398  -58.1550 H   0  0  0  0  0  0  0  0  0  0  0  0
    8.2390    6.3138  -59.9524 H   0  0  0  0  0  0  0  0  0  0  0  0
    6.3673    4.8930  -59.1468 H   0  0  0  0  0  0  0  0  0  0  0  0
    7.3991    4.0726  -57.0320 H   0  0  0  0  0  0  0  0  0  0  0  0
    6.8761    2.6963  -58.0738 H   0  0  0  0  0  0  0  0  0  0  0  0
    6.4849    1.7603  -57.1588 H   0  0  0  0  0  0  0  0  0  0  0  0
    5.1935    0.2906  -55.6431 H   0  0  0  0  0  0  0  0  0  0  0  0
    7.7934   -1.7840  -50.4080 H   0  0  0  0  0  0  0  0  0  0  0  0
    6.9870   -3.0848  -51.3483 H   0  0  0  0  0  0  0  0  0  0  0  0
    8.7786   -2.9553  -51.3483 H   0  0  0  0  0  0  0  0  0  0  0  0
    9.8422   -0.7914  -52.7722 H   0  0  0  0  0  0  0  0  0  0  0  0
   10.0640    0.9100  -54.9280 H   0  0  0  0  0  0  0  0  0  0  0  0
   10.3641    1.8663  -59.2786 H   0  0  0  0  0  0  0  0  0  0  0  0
    8.6297    1.3844  -59.3896 H   0  0  0  0  0  0  0  0  0  0  0  0
    9.3469    2.6325  -61.4138 H   0  0  0  0  0  0  0  0  0  0  0  0
   11.1113    4.0416  -60.4193 H   0  0  0  0  0  0  0  0  0  0  0  0
    9.8642    5.0659  -61.2207 H   0  0  0  0  0  0  0  0  0  0  0  0
  1  2  1  0
  2  3  1  0
  3  4  2  0
  3  5  1  0
  5  6  1  0
  6  7  1  0
  7  8  1  0
  8  9  1  0
  9 10  1  0
 10 11  1  1
 11 12  2  0
 12 13  1  0
 13 14  2  0
 14 15  1  0
 15 16  1  0
 16 17  1  0
 17 18  1  0
 17 19  2  0
 19 20  1  0
 20 21  1  0
 10 22  1  0
 22 23  1  0
 23 24  1  0
 23 25  1  0
 25 26  2  0
 10  5  1  0
 21 12  1  0
 24  6  1  0
 25  8  1  0
 20 15  2  0
  1 27  1  0
  1 28  1  0
  1 29  1  0
  5 30  1  1
  6 31  1  1
  7 32  1  0
  7 33  1  0
  8 34  1  6
  9 35  1  0
  9 36  1  0
 13 37  1  0
 14 38  1  0
 18 39  1  0
 18 40  1  0
 18 41  1  0
 19 42  1  0
 21 43  1  0
 22 44  1  0
 22 45  1  0
 23 46  1  6
 24 47  1  0
 24 48  1  0
M  END
>  <meeko>  (2) 
{"is_sidechain": false}

$$$$

     RDKit          3D

 48 52  0  0  0  0  0  0  0  0999 V2000
    6.1960    2.2630  -60.6890 C   0  0  0  0  0  0  0  0  0  0  0  0
    7.1340    1.6970  -59.7750 O   0  0  0  0  0  0  0  0  0  0  0  0
    7.5510    2.5530  -58.8010 C   0  0  0  0  0  0  0  0  0  0  0  0
    6.8170    3.3050  -58.1700 O   0  0  0  0  0  0  0  0  0  0  0  0
    9.0560    2.4770  -58.6380 C   0  0  1  0  0  0  0  0  0  0  0  0
    9.7320    3.2010  -59.8310 C   0  0  2  0  0  0  0  0  0  0  0  0
   11.2420    2.8840  -59.8130 C   0  0  0  0  0  0  0  0  0  0  0  0
   11.8600    3.3690  -58.4970 C   0  0  2  0  0  0  0  0  0  0  0  0
   11.1500    2.7270  -57.3020 C   0  0  0  0  0  0  0  0  0  0  0  0
    9.6080    3.0410  -57.3040 C   0  0  2  0  0  0  0  0  0  0  0  0
    9.1270    2.3280  -56.1270 N   0  0  0  0  0  0  0  0  0  0  0  0
    9.3680    1.1310  -55.7230 C   0  0  0  0  0  0  0  0  0  0  0  0
    8.5860    0.7660  -54.4780 C   0  0  0  0  0  0  0  0  0  0  0  0
    8.7420   -0.4480  -53.9260 C   0  0  0  0  0  0  0  0  0  0  0  0
    9.6620   -1.3200  -54.5550 C   0  0  0  0  0  0  0  0  0  0  0  0
   10.0380   -2.8850  -53.9990 S   0  0  0  0  0  0  0  0  0  0  0  0
   11.1690   -3.1330  -55.2700 C   0  0  0  0  0  0  0  0  0  0  0  0
   11.9100   -4.4220  -55.3580 C   0  0  0  0  0  0  0  0  0  0  0  0
   11.2530   -2.0330  -56.1030 C   0  0  0  0  0  0  0  0  0  0  0  0
   10.3770   -1.0010  -55.6890 C   0  0  0  0  0  0  0  0  0  0  0  0
   10.2230    0.2020  -56.2920 N   0  0  0  0  0  0  0  0  0  0  0  0
    9.4900    4.5790  -57.1970 C   0  0  0  0  0  0  0  0  0  0  0  0
   10.1530    5.2540  -58.4060 C   0  0  2  0  0  0  0  0  0  0  0  0
    9.5580    4.7340  -59.7210 C   0  0  0  0  0  0  0  0  0  0  0  0
   11.6210    4.8650  -58.4030 C   0  0  0  0  0  0  0  0  0  0  0  0
   12.5300    5.6850  -58.3480 O   0  0  0  0  0  0  0  0  0  0  0  0
    5.3861    2.7517  -60.1276 H   0  0  0  0  0  0  0  0  0  0  0  0
    6.7034    3.0058  -61.3221 H   0  0  0  0  0  0  0  0  0  0  0  0
    5.7753    1.4678  -61.3221 H   0  0  0  0  0  0  0  0  0  0  0  0
    9.3005    1.4047  -58.6182 H   0  0  0  0  0  0  0  0  0  0  0  0
    9.2618    2.8526  -60.7624 H   0  0  0  0  0  0  0  0  0  0  0  0
   11.3880    1.7977  -59.9062 H   0  0  0  0  0  0  0  0  0  0  0  0
   11.7305    3.3978  -60.6541 H   0  0  0  0  0  0  0  0  0  0  0  0
   12.9286    3.1084  -58.4801 H   0  0  0  0  0  0  0  0  0  0  0  0
   11.2920    1.6371  -57.3464 H   0  0  0  0  0  0  0  0  0  0  0  0
   11.5837    3.1437  -56.3810 H   0  0  0  0  0  0  0  0  0  0  0  0
    7.8933    1.4924  -54.0281 H   0  0  0  0  0  0  0  0  0  0  0  0
    8.1820   -0.7500  -53.0287 H   0  0  0  0  0  0  0  0  0  0  0  0
   12.1230   -4.7924  -54.3444 H   0  0  0  0  0  0  0  0  0  0  0  0
   11.2985   -5.1604  -55.8973 H   0  0  0  0  0  0  0  0  0  0  0  0
   12.8558   -4.2651  -55.8973 H   0  0  0  0  0  0  0  0  0  0  0  0
   11.9170   -1.9678  -56.9775 H   0  0  0  0  0  0  0  0  0  0  0  0
   10.8560    0.4970  -57.0310 H   0  0  0  0  0  0  0  0  0  0  0  0
    8.4268    4.8591  -57.1639 H   0  0  0  0  0  0  0  0  0  0  0  0
    9.9984    4.9121  -56.2802 H   0  0  0  0  0  0  0  0  0  0  0  0
    9.9987    6.3408  -58.3349 H   0  0  0  0  0  0  0  0  0  0  0  0
    8.4862    4.9791  -59.7543 H   0  0  0  0  0  0  0  0  0  0  0  0
   10.0847    5.2110  -60.5607 H   0  0  0  0  0  0  0  0  0  0  0  0
  1  2  1  0
  2  3  1  0
  3  4  2  0
  3  5  1  0
  5  6  1  0
  6  7  1  0
  7  8  1  0
  8  9  1  0
  9 10  1  0
 10 11  1  1
 11 12  2  0
 12 13  1  0
 13 14  2  0
 14 15  1  0
 15 16  1  0
 16 17  1  0
 17 18  1  0
 17 19  2  0
 19 20  1  0
 20 21  1  0
 10 22  1  0
 22 23  1  0
 23 24  1  0
 23 25  1  0
 25 26  2  0
 10  5  1  0
 21 12  1  0
 24  6  1  0
 25  8  1  0
 20 15  2  0
  1 27  1  0
  1 28  1  0
  1 29  1  0
  5 30  1  6
  6 31  1  6
  7 32  1  0
  7 33  1  0
  8 34  1  6
  9 35  1  0
  9 36  1  0
 13 37  1  0
 14 38  1  0
 18 39  1  0
 18 40  1  0
 18 41  1  0
 19 42  1  0
 21 43  1  0
 22 44  1  0
 22 45  1  0
 23 46  1  1
 24 47  1  0
 24 48  1  0
M  END
>  <meeko>  (3) 
{"is_sidechain": false}

$$$$

     RDKit          3D

 52 56  0  0  0  0  0  0  0  0999 V2000
    6.3180   -0.2530  -55.3270 C   0  0  0  0  0  0  0  0  0  0  0  0
    6.3880    1.2200  -55.7260 C   0  0  0  0  0  0  0  0  0  0  0  0
    6.9950    1.3840  -57.0630 N   0  0  0  0  0  0  0  0  0  0  0  0
    5.9590    1.6330  -58.0040 C   0  0  0  0  0  0  0  0  0  0  0  0
    4.8570    2.3770  -57.5630 C   0  0  0  0  0  0  0  0  0  0  0  0
    3.8040    2.6730  -58.4270 C   0  0  0  0  0  0  0  0  0  0  0  0
    3.9420    2.1850  -59.7220 C   0  0  0  0  0  0  0  0  0  0  0  0
    3.1280    2.2720  -60.8260 N   0  0  0  0  0  0  0  0  0  0  0  0
    3.7040    1.6200  -61.8870 C   0  0  0  0  0  0  0  0  0  0  0  0
    4.9100    1.1060  -61.4620 C   0  0  0  0  0  0  0  0  0  0  0  0
    5.0660    1.4600  -60.1020 C   0  0  0  0  0  0  0  0  0  0  0  0
    6.0880    1.1790  -59.2620 N   0  0  0  0  0  0  0  0  0  0  0  0
    8.1960    2.2760  -57.2260 C   0  0  2  0  0  0  0  0  0  0  0  0
    7.6850    3.7680  -57.0660 C   0  0  0  0  0  0  0  0  0  0  0  0
    8.8010    4.7940  -57.2900 C   0  0  1  0  0  0  0  0  0  0  0  0
    9.9620    4.5470  -56.3240 C   0  0  0  0  0  0  0  0  0  0  0  0
   10.5000    3.1120  -56.5030 C   0  0  2  0  0  0  0  0  0  0  0  0
   11.0110    2.9650  -57.9520 C   0  0  0  0  0  0  0  0  0  0  0  0
    9.8680    3.1940  -58.9450 C   0  0  1  0  0  0  0  0  0  0  0  0
    8.7260    2.2050  -58.6980 C   0  0  0  0  0  0  0  0  0  0  0  0
    9.3220    4.5850  -58.6960 C   0  0  0  0  0  0  0  0  0  0  0  0
    9.3030    5.4600  -59.5550 O   0  0  0  0  0  0  0  0  0  0  0  0
    9.3590    2.1020  -56.2000 C   0  0  2  0  0  0  0  0  0  0  0  0
    9.9740    0.7280  -55.9860 C   0  0  0  0  0  0  0  0  0  0  0  0
   10.8210    0.2530  -56.7360 O   0  0  0  0  0  0  0  0  0  0  0  0
    9.3920    0.0380  -54.9720 O   0  0  0  0  0  0  0  0  0  0  0  0
    9.9110   -1.2800  -54.7890 C   0  0  0  0  0  0  0  0  0  0  0  0
    6.3141   -0.3360  -54.2301 H   0  0  0  0  0  0  0  0  0  0  0  0
    5.3976   -0.6992  -55.7318 H   0  0  0  0  0  0  0  0  0  0  0  0
    7.1919   -0.7845  -55.7318 H   0  0  0  0  0  0  0  0  0  0  0  0
    5.3699    1.6363  -55.7408 H   0  0  0  0  0  0  0  0  0  0  0  0
    7.0135    1.7498  -54.9925 H   0  0  0  0  0  0  0  0  0  0  0  0
    4.8222    2.7319  -56.5224 H   0  0  0  0  0  0  0  0  0  0  0  0
    2.9253    3.2521  -58.1069 H   0  0  0  0  0  0  0  0  0  0  0  0
    2.2350    2.7480  -60.8490 H   0  0  0  0  0  0  0  0  0  0  0  0
    3.2789    1.5245  -62.8970 H   0  0  0  0  0  0  0  0  0  0  0  0
    5.6209    0.5266  -62.0694 H   0  0  0  0  0  0  0  0  0  0  0  0
    6.8862    3.9487  -57.8004 H   0  0  0  0  0  0  0  0  0  0  0  0
    7.3195    3.8890  -56.0356 H   0  0  0  0  0  0  0  0  0  0  0  0
    8.4086    5.8093  -57.1314 H   0  0  0  0  0  0  0  0  0  0  0  0
   10.7677    5.2667  -56.5309 H   0  0  0  0  0  0  0  0  0  0  0  0
    9.6058    4.6733  -55.2910 H   0  0  0  0  0  0  0  0  0  0  0  0
   11.3298    2.9082  -55.8103 H   0  0  0  0  0  0  0  0  0  0  0  0
   11.8036    3.7057  -58.1341 H   0  0  0  0  0  0  0  0  0  0  0  0
   11.4064    1.9479  -58.0903 H   0  0  0  0  0  0  0  0  0  0  0  0
   10.2467    3.0651  -59.9697 H   0  0  0  0  0  0  0  0  0  0  0  0
    7.8991    2.4387  -59.3848 H   0  0  0  0  0  0  0  0  0  0  0  0
    9.1125    1.1898  -58.8712 H   0  0  0  0  0  0  0  0  0  0  0  0
    8.8345    2.2913  -55.2518 H   0  0  0  0  0  0  0  0  0  0  0  0
    9.9956   -1.4947  -53.7135 H   0  0  0  0  0  0  0  0  0  0  0  0
    9.2329   -2.0093  -55.2563 H   0  0  0  0  0  0  0  0  0  0  0  0
   10.9043   -1.3511  -55.2563 H   0  0  0  0  0  0  0  0  0  0  0  0
  1  2  1  0
  2  3  1  0
  3  4  1  0
  4  5  1  0
  5  6  2  0
  6  7  1  0
  7  8  1  0
  8  9  1  0
  9 10  2  0
 10 11  1  0
 11 12  1  0
 13  3  1  6
 13 14  1  0
 14 15  1  0
 15 16  1  0
 16 17  1  0
 17 18  1  0
 18 19  1  0
 19 20  1  0
 19 21  1  0
 21 22  2  0
 17 23  1  0
 23 24  1  0
 24 25  2  0
 24 26  1  0
 26 27  1  0
 12  4  2  0
 20 13  1  0
 11  7  2  0
 23 13  1  0
 21 15  1  0
  1 28  1  0
  1 29  1  0
  1 30  1  0
  2 31  1  0
  2 32  1  0
  5 33  1  0
  6 34  1  0
  8 35  1  0
  9 36  1  0
 10 37  1  0
 14 38  1  0
 14 39  1  0
 15 40  1  6
 16 41  1  0
 16 42  1  0
 17 43  1  1
 18 44  1  0
 18 45  1  0
 19 46  1  6
 20 47  1  0
 20 48  1  0
 23 49  1  1
 27 50  1  0
 27 51  1  0
 27 52  1  0
M  END
>  <meeko>  (4) 
{"is_sidechain": false}

$$$$

     RDKit          3D

 52 56  0  0  0  0  0  0  0  0999 V2000
    9.4630    2.3560  -61.8700 C   0  0  0  0  0  0  0  0  0  0  0  0
    9.1680    1.4330  -60.6970 C   0  0  0  0  0  0  0  0  0  0  0  0
    8.4350    2.1430  -59.6230 N   0  0  0  0  0  0  0  0  0  0  0  0
    7.0400    2.1590  -59.7250 C   0  0  0  0  0  0  0  0  0  0  0  0
    6.2710    2.2800  -58.6120 C   0  0  0  0  0  0  0  0  0  0  0  0
    4.8150    2.2870  -58.6930 C   0  0  0  0  0  0  0  0  0  0  0  0
    4.2390    2.1400  -59.8910 C   0  0  0  0  0  0  0  0  0  0  0  0
    2.9120    2.0830  -60.2170 N   0  0  0  0  0  0  0  0  0  0  0  0
    2.9280    1.8980  -61.5020 C   0  0  0  0  0  0  0  0  0  0  0  0
    4.2470    1.8160  -62.1400 C   0  0  0  0  0  0  0  0  0  0  0  0
    5.0460    1.9870  -61.0890 C   0  0  0  0  0  0  0  0  0  0  0  0
    6.4100    2.0290  -60.9540 N   0  0  0  0  0  0  0  0  0  0  0  0
    9.1830    3.1380  -58.7840 C   0  0  2  0  0  0  0  0  0  0  0  0
    8.7260    4.5880  -59.1700 C   0  0  0  0  0  0  0  0  0  0  0  0
    9.4680    5.6490  -58.3450 C   0  0  1  0  0  0  0  0  0  0  0  0
    9.2300    5.4350  -56.8470 C   0  0  0  0  0  0  0  0  0  0  0  0
    9.6990    4.0260  -56.4360 C   0  0  2  0  0  0  0  0  0  0  0  0
   11.2080    3.9040  -56.7170 C   0  0  0  0  0  0  0  0  0  0  0  0
   11.4840    4.1000  -58.2080 C   0  0  1  0  0  0  0  0  0  0  0  0
   10.7230    3.0730  -59.0520 C   0  0  0  0  0  0  0  0  0  0  0  0
   10.9530    5.4670  -58.6020 C   0  0  0  0  0  0  0  0  0  0  0  0
   11.6530    6.3390  -59.1040 O   0  0  0  0  0  0  0  0  0  0  0  0
    8.9060    2.9720  -57.2490 C   0  0  2  0  0  0  0  0  0  0  0  0
    9.1120    1.6070  -56.6040 C   0  0  0  0  0  0  0  0  0  0  0  0
   10.1260    0.9410  -56.7960 O   0  0  0  0  0  0  0  0  0  0  0  0
    8.0450    1.1700  -55.8930 O   0  0  0  0  0  0  0  0  0  0  0  0
    8.3820    0.4080  -54.7330 C   0  0  0  0  0  0  0  0  0  0  0  0
    9.7775    3.3400  -61.4922 H   0  0  0  0  0  0  0  0  0  0  0  0
   10.2679    1.9242  -62.4829 H   0  0  0  0  0  0  0  0  0  0  0  0
    8.5569    2.4711  -62.4829 H   0  0  0  0  0  0  0  0  0  0  0  0
    8.5570    0.5892  -61.0501 H   0  0  0  0  0  0  0  0  0  0  0  0
   10.1246    1.0769  -60.2870 H   0  0  0  0  0  0  0  0  0  0  0  0
    6.7564    2.3746  -57.6294 H   0  0  0  0  0  0  0  0  0  0  0  0
    4.2030    2.4106  -57.7873 H   0  0  0  0  0  0  0  0  0  0  0  0
    1.9988    1.8072  -62.0837 H   0  0  0  0  0  0  0  0  0  0  0  0
    4.5049    1.6568  -63.1974 H   0  0  0  0  0  0  0  0  0  0  0  0
    6.9820    1.7490  -61.7330 H   0  0  0  0  0  0  0  0  0  0  0  0
    8.9327    4.7559  -60.2373 H   0  0  0  0  0  0  0  0  0  0  0  0
    7.6498    4.6782  -58.9611 H   0  0  0  0  0  0  0  0  0  0  0  0
    9.1107    6.6494  -58.6304 H   0  0  0  0  0  0  0  0  0  0  0  0
    9.7945    6.1877  -56.2771 H   0  0  0  0  0  0  0  0  0  0  0  0
    8.1555    5.5349  -56.6337 H   0  0  0  0  0  0  0  0  0  0  0  0
    9.5187    3.8555  -55.3644 H   0  0  0  0  0  0  0  0  0  0  0  0
   11.7478    4.6718  -56.1434 H   0  0  0  0  0  0  0  0  0  0  0  0
   11.5495    2.9023  -56.4170 H   0  0  0  0  0  0  0  0  0  0  0  0
   12.5650    3.9931  -58.3814 H   0  0  0  0  0  0  0  0  0  0  0  0
   10.9093    3.2770  -60.1167 H   0  0  0  0  0  0  0  0  0  0  0  0
   11.0788    2.0691  -58.7772 H   0  0  0  0  0  0  0  0  0  0  0  0
    7.8164    3.1172  -57.2086 H   0  0  0  0  0  0  0  0  0  0  0  0
    8.1278    0.9827  -53.8302 H   0  0  0  0  0  0  0  0  0  0  0  0
    7.8175   -0.5361  -54.7377 H   0  0  0  0  0  0  0  0  0  0  0  0
    9.4603    0.1905  -54.7377 H   0  0  0  0  0  0  0  0  0  0  0  0
  1  2  1  0
  2  3  1  0
  3  4  1  0
  4  5  2  0
  5  6  1  0
  6  7  2  0
  7  8  1  0
  8  9  2  0
  9 10  1  0
 10 11  2  0
 11 12  1  0
 13  3  1  6
 13 14  1  0
 14 15  1  0
 15 16  1  0
 16 17  1  0
 17 18  1  0
 18 19  1  0
 19 20  1  0
 19 21  1  0
 21 22  2  0
 17 23  1  0
 23 24  1  0
 24 25  2  0
 24 26  1  0
 26 27  1  0
 12  4  1  0
 20 13  1  0
 11  7  1  0
 23 13  1  0
 21 15  1  0
  1 28  1  0
  1 29  1  0
  1 30  1  0
  2 31  1  0
  2 32  1  0
  5 33  1  0
  6 34  1  0
  9 35  1  0
 10 36  1  0
 12 37  1  0
 14 38  1  0
 14 39  1  0
 15 40  1  6
 16 41  1  0
 16 42  1  0
 17 43  1  1
 18 44  1  0
 18 45  1  0
 19 46  1  1
 20 47  1  0
 20 48  1  0
 23 49  1  6
 27 50  1  0
 27 51  1  0
 27 52  1  0
M  END
>  <meeko>  (5) 
{"is_sidechain": false}

$$$$

     RDKit          3D

 45 49  0  0  0  0  0  0  0  0999 V2000
    9.6060    1.2070  -60.9070 C   0  0  0  0  0  0  0  0  0  0  0  0
    8.9010    2.0000  -59.8890 N   0  0  0  0  0  0  0  0  0  0  0  0
    7.5730    2.2000  -60.1470 C   0  0  0  0  0  0  0  0  0  0  0  0
    6.9740    2.3950  -61.3720 C   0  0  0  0  0  0  0  0  0  0  0  0
    5.6250    2.5230  -61.2280 O   0  0  0  0  0  0  0  0  0  0  0  0
    5.3610    2.4150  -59.8960 C   0  0  0  0  0  0  0  0  0  0  0  0
    4.0950    2.4940  -59.3140 C   0  0  0  0  0  0  0  0  0  0  0  0
    4.0350    2.3550  -57.9230 C   0  0  0  0  0  0  0  0  0  0  0  0
    5.1920    2.1450  -57.1670 C   0  0  0  0  0  0  0  0  0  0  0  0
    6.4500    2.0690  -57.7810 C   0  0  0  0  0  0  0  0  0  0  0  0
    6.5330    2.2110  -59.1790 C   0  0  0  0  0  0  0  0  0  0  0  0
    9.6930    3.0660  -59.1850 C   0  0  2  0  0  0  0  0  0  0  0  0
    9.1040    4.4260  -59.7160 C   0  0  0  0  0  0  0  0  0  0  0  0
    9.8050    5.6300  -59.0840 C   0  0  1  0  0  0  0  0  0  0  0  0
    9.6980    5.5860  -57.5560 C   0  0  0  0  0  0  0  0  0  0  0  0
   10.3110    4.2720  -57.0250 C   0  0  2  0  0  0  0  0  0  0  0  0
   11.8020    4.2460  -57.4230 C   0  0  0  0  0  0  0  0  0  0  0  0
   11.9440    4.2620  -58.9460 C   0  0  1  0  0  0  0  0  0  0  0  0
   11.2040    3.0830  -59.5860 C   0  0  0  0  0  0  0  0  0  0  0  0
   11.2750    5.5310  -59.4400 C   0  0  0  0  0  0  0  0  0  0  0  0
   11.8680    6.4060  -60.0650 O   0  0  0  0  0  0  0  0  0  0  0  0
    9.5300    3.0800  -57.6440 C   0  0  2  0  0  0  0  0  0  0  0  0
    9.8980    1.8320  -56.8300 C   0  0  0  0  0  0  0  0  0  0  0  0
    9.2450    1.7100  -55.7520 O   0  0  0  0  0  0  0  0  0  0  0  0
   10.7990    1.0860  -57.2950 O   0  0  0  0  0  0  0  0  0  0  0  0
   10.2588    0.4727  -60.4125 H   0  0  0  0  0  0  0  0  0  0  0  0
    8.8720    0.6808  -61.5350 H   0  0  0  0  0  0  0  0  0  0  0  0
   10.2145    1.8743  -61.5350 H   0  0  0  0  0  0  0  0  0  0  0  0
    7.5095    2.4409  -62.3318 H   0  0  0  0  0  0  0  0  0  0  0  0
    3.1903    2.6572  -59.9181 H   0  0  0  0  0  0  0  0  0  0  0  0
    3.0607    2.4119  -57.4156 H   0  0  0  0  0  0  0  0  0  0  0  0
    5.1142    2.0379  -56.0750 H   0  0  0  0  0  0  0  0  0  0  0  0
    7.3564    1.9013  -57.1808 H   0  0  0  0  0  0  0  0  0  0  0  0
    9.2348    4.4695  -60.8073 H   0  0  0  0  0  0  0  0  0  0  0  0
    8.0387    4.4678  -59.4453 H   0  0  0  0  0  0  0  0  0  0  0  0
    9.3402    6.5569  -59.4513 H   0  0  0  0  0  0  0  0  0  0  0  0
   10.2409    6.4413  -57.1274 H   0  0  0  0  0  0  0  0  0  0  0  0
    8.6383    5.6353  -57.2651 H   0  0  0  0  0  0  0  0  0  0  0  0
   10.2383    4.1987  -55.9299 H   0  0  0  0  0  0  0  0  0  0  0  0
   12.3056    5.1287  -57.0021 H   0  0  0  0  0  0  0  0  0  0  0  0
   12.2619    3.3273  -57.0299 H   0  0  0  0  0  0  0  0  0  0  0  0
   13.0101    4.2029  -59.2105 H   0  0  0  0  0  0  0  0  0  0  0  0
   11.2821    3.1641  -60.6802 H   0  0  0  0  0  0  0  0  0  0  0  0
   11.6657    2.1513  -59.2272 H   0  0  0  0  0  0  0  0  0  0  0  0
    8.4356    3.1510  -57.5593 H   0  0  0  0  0  0  0  0  0  0  0  0
  1  2  1  0
  2  3  1  0
  3  4  2  0
  4  5  1  0
  5  6  1  0
  6  7  2  0
  7  8  1  0
  8  9  2  0
  9 10  1  0
 10 11  2  0
 12  2  1  6
 12 13  1  0
 13 14  1  0
 14 15  1  0
 15 16  1  0
 16 17  1  0
 17 18  1  0
 18 19  1  0
 18 20  1  0
 20 21  2  0
 16 22  1  0
 22 23  1  0
 23 24  2  0
 23 25  1  0
 11  3  1  0
 19 12  1  0
 11  6  1  0
 22 12  1  0
 20 14  1  0
  1 26  1  0
  1 27  1  0
  1 28  1  0
  4 29  1  0
  7 30  1  0
  8 31  1  0
  9 32  1  0
 10 33  1  0
 13 34  1  0
 13 35  1  0
 14 36  1  6
 15 37  1  0
 15 38  1  0
 16 39  1  1
 17 40  1  0
 17 41  1  0
 18 42  1  1
 19 43  1  0
 19 44  1  0
 22 45  1  6
M  CHG  1  25  -1
M  END
>  <meeko>  (6) 
{"is_sidechain": false}

$$$$

     RDKit          3D

 54 58  0  0  0  0  0  0  0  0999 V2000
    3.3770    0.6580  -63.0520 C   0  0  0  0  0  0  0  0  0  0  0  0
    3.8950    1.1650  -61.7500 C   0  0  0  0  0  0  0  0  0  0  0  0
    5.1990    1.2050  -61.3030 C   0  0  0  0  0  0  0  0  0  0  0  0
    5.3160    1.7620  -59.9970 C   0  0  0  0  0  0  0  0  0  0  0  0
    6.4820    1.9190  -59.3190 N   0  0  0  0  0  0  0  0  0  0  0  0
    6.4180    2.4710  -58.1000 C   0  0  0  0  0  0  0  0  0  0  0  0
    7.5980    2.6390  -57.3630 N   0  0  0  0  0  0  0  0  0  0  0  0
    7.7230    1.8070  -56.1430 C   0  0  0  0  0  0  0  0  0  0  0  0
    9.1140    1.2090  -55.9450 C   0  0  0  0  0  0  0  0  0  0  0  0
    6.6580    0.7020  -56.0850 C   0  0  0  0  0  0  0  0  0  0  0  0
    8.7540    3.3130  -58.0320 C   0  0  2  0  0  0  0  0  0  0  0  0
    8.2950    4.3520  -59.1050 C   0  0  0  0  0  0  0  0  0  0  0  0
    9.4840    4.9710  -59.8530 C   0  0  1  0  0  0  0  0  0  0  0  0
   10.4690    5.6340  -58.8880 C   0  0  0  0  0  0  0  0  0  0  0  0
   10.9580    4.6060  -57.8480 C   0  0  2  0  0  0  0  0  0  0  0  0
   11.6980    3.4780  -58.5930 C   0  0  0  0  0  0  0  0  0  0  0  0
   10.7480    2.7850  -59.5720 C   0  0  1  0  0  0  0  0  0  0  0  0
    9.5460    2.2080  -58.8210 C   0  0  0  0  0  0  0  0  0  0  0  0
   10.2210    3.8320  -60.5320 C   0  0  0  0  0  0  0  0  0  0  0  0
   10.3670    3.7610  -61.7470 O   0  0  0  0  0  0  0  0  0  0  0  0
    9.7620    4.0120  -57.0460 C   0  0  1  0  0  0  0  0  0  0  0  0
    9.1610    5.1030  -56.1490 C   0  0  0  0  0  0  0  0  0  0  0  0
    5.2080    2.8550  -57.5190 C   0  0  0  0  0  0  0  0  0  0  0  0
    4.0060    2.6980  -58.2030 C   0  0  0  0  0  0  0  0  0  0  0  0
    4.0800    2.1350  -59.4790 C   0  0  0  0  0  0  0  0  0  0  0  0
    2.8140    1.8010  -60.5890 S   0  0  0  0  0  0  0  0  0  0  0  0
    2.6020   -0.1006  -62.8679 H   0  0  0  0  0  0  0  0  0  0  0  0
    2.9451    1.4920  -63.6246 H   0  0  0  0  0  0  0  0  0  0  0  0
    4.2016    0.2083  -63.6246 H   0  0  0  0  0  0  0  0  0  0  0  0
    6.0562    0.8456  -61.8913 H   0  0  0  0  0  0  0  0  0  0  0  0
    7.5539    2.5052  -55.3100 H   0  0  0  0  0  0  0  0  0  0  0  0
    9.3245    1.1185  -54.8691 H   0  0  0  0  0  0  0  0  0  0  0  0
    9.1551    0.2137  -56.4116 H   0  0  0  0  0  0  0  0  0  0  0  0
    9.8645    1.8640  -56.4116 H   0  0  0  0  0  0  0  0  0  0  0  0
    6.4309    0.4664  -55.0348 H   0  0  0  0  0  0  0  0  0  0  0  0
    5.7435    1.0474  -56.5893 H   0  0  0  0  0  0  0  0  0  0  0  0
    7.0368   -0.1992  -56.5893 H   0  0  0  0  0  0  0  0  0  0  0  0
    7.6424    3.8466  -59.8321 H   0  0  0  0  0  0  0  0  0  0  0  0
    7.7613    5.1621  -58.5864 H   0  0  0  0  0  0  0  0  0  0  0  0
    9.1108    5.7286  -60.5578 H   0  0  0  0  0  0  0  0  0  0  0  0
   11.3305    6.0186  -59.4535 H   0  0  0  0  0  0  0  0  0  0  0  0
    9.9649    6.4624  -58.3688 H   0  0  0  0  0  0  0  0  0  0  0  0
   11.6304    5.1026  -57.1330 H   0  0  0  0  0  0  0  0  0  0  0  0
   12.5463    3.9041  -59.1487 H   0  0  0  0  0  0  0  0  0  0  0  0
   12.0626    2.7415  -57.8618 H   0  0  0  0  0  0  0  0  0  0  0  0
   11.2860    1.9798  -60.0938 H   0  0  0  0  0  0  0  0  0  0  0  0
    8.8677    1.7360  -59.5470 H   0  0  0  0  0  0  0  0  0  0  0  0
    9.9227    1.4760  -58.0914 H   0  0  0  0  0  0  0  0  0  0  0  0
   10.0870    3.2151  -56.3610 H   0  0  0  0  0  0  0  0  0  0  0  0
    9.3099    4.8328  -55.0931 H   0  0  0  0  0  0  0  0  0  0  0  0
    9.6579    6.0624  -56.3555 H   0  0  0  0  0  0  0  0  0  0  0  0
    8.0845    5.1957  -56.3555 H   0  0  0  0  0  0  0  0  0  0  0  0
    5.2045    3.2873  -56.5075 H   0  0  0  0  0  0  0  0  0  0  0  0
    3.0458    3.0021  -57.7607 H   0  0  0  0  0  0  0  0  0  0  0  0
  1  2  1  0
  2  3  2  0
  3  4  1  0
  4  5  1  0
  5  6  2  0
  6  7  1  0
  7  8  1  0
  8  9  1  0
  8 10  1  0
 11  7  1  1
 11 12  1  0
 12 13  1  0
 13 14  1  0
 14 15  1  0
 15 16  1  0
 16 17  1  0
 17 18  1  0
 17 19  1  0
 19 20  2  0
 15 21  1  0
 21 22  1  0
  6 23  1  0
 23 24  2  0
 24 25  1  0
 25 26  1  0
 26  2  1  0
 25  4  2  0
 18 11  1  0
 21 11  1  0
 19 13  1  0
  1 27  1  0
  1 28  1  0
  1 29  1  0
  3 30  1  0
  8 31  1  0
  9 32  1  0
  9 33  1  0
  9 34  1  0
 10 35  1  0
 10 36  1  0
 10 37  1  0
 12 38  1  0
 12 39  1  0
 13 40  1  6
 14 41  1  0
 14 42  1  0
 15 43  1  1
 16 44  1  0
 16 45  1  0
 17 46  1  6
 18 47  1  0
 18 48  1  0
 21 49  1  1
 22 50  1  0
 22 51  1  0
 22 52  1  0
 23 53  1  0
 24 54  1  0
M  END
>  <meeko>  (7) 
{"is_sidechain": false}

$$$$

     RDKit          3D

 56 60  0  0  0  0  0  0  0  0999 V2000
    3.5740    2.2380  -59.8370 C   0  0  0  0  0  0  0  0  0  0  0  0
    4.1730    2.6020  -58.4930 C   0  0  0  0  0  0  0  0  0  0  0  0
    5.2700    1.7160  -58.2440 O   0  0  0  0  0  0  0  0  0  0  0  0
    6.3880    2.3160  -57.7740 C   0  0  0  0  0  0  0  0  0  0  0  0
    6.4190    3.0060  -56.7580 O   0  0  0  0  0  0  0  0  0  0  0  0
    7.6410    1.9950  -58.5790 C   0  0  1  0  0  0  0  0  0  0  0  0
    7.3380    2.1630  -60.0870 C   0  0  2  0  0  0  0  0  0  0  0  0
    8.4760    1.5060  -60.8950 C   0  0  0  0  0  0  0  0  0  0  0  0
    9.8120    2.1740  -60.5580 C   0  0  2  0  0  0  0  0  0  0  0  0
   10.1250    2.0740  -59.0560 C   0  0  0  0  0  0  0  0  0  0  0  0
    8.9890    2.7130  -58.1940 C   0  0  2  0  0  0  0  0  0  0  0  0
    9.3100    2.6350  -56.7340 N   0  0  0  0  0  0  0  0  0  0  0  0
   10.0260    3.7340  -56.0500 C   0  0  0  0  0  0  0  0  0  0  0  0
    9.2670    5.0590  -56.0170 C   0  0  0  0  0  0  0  0  0  0  0  0
    9.5570    1.3830  -56.1460 C   0  0  0  0  0  0  0  0  0  0  0  0
   10.7150    0.6910  -56.5090 C   0  0  0  0  0  0  0  0  0  0  0  0
   11.0020   -0.5580  -55.9630 C   0  0  0  0  0  0  0  0  0  0  0  0
   10.0790   -1.0700  -55.0500 C   0  0  0  0  0  0  0  0  0  0  0  0
   10.1130   -2.5580  -54.1950 S   0  0  0  0  0  0  0  0  0  0  0  0
    8.6370   -2.2270  -53.4050 C   0  0  0  0  0  0  0  0  0  0  0  0
    8.1000   -3.1010  -52.5270 N   0  0  0  0  0  0  0  0  0  0  0  0
    8.1210   -1.0100  -53.7820 C   0  0  0  0  0  0  0  0  0  0  0  0
    8.9440   -0.3330  -54.7290 C   0  0  0  0  0  0  0  0  0  0  0  0
    8.6760    0.8860  -55.2660 N   0  0  0  0  0  0  0  0  0  0  0  0
    8.9030    4.2170  -58.6410 C   0  0  0  0  0  0  0  0  0  0  0  0
    8.5630    4.3510  -60.1290 C   0  0  2  0  0  0  0  0  0  0  0  0
    7.2490    3.6520  -60.4610 C   0  0  0  0  0  0  0  0  0  0  0  0
    9.6710    3.6480  -60.8940 C   0  0  0  0  0  0  0  0  0  0  0  0
   10.3950    4.2230  -61.7000 O   0  0  0  0  0  0  0  0  0  0  0  0
    2.6433    1.6724  -59.6825 H   0  0  0  0  0  0  0  0  0  0  0  0
    3.3556    3.1563  -60.4019 H   0  0  0  0  0  0  0  0  0  0  0  0
    4.2884    1.6212  -60.4019 H   0  0  0  0  0  0  0  0  0  0  0  0
    4.5301    3.6422  -58.5127 H   0  0  0  0  0  0  0  0  0  0  0  0
    3.4173    2.5077  -57.6992 H   0  0  0  0  0  0  0  0  0  0  0  0
    7.8596    0.9517  -58.3074 H   0  0  0  0  0  0  0  0  0  0  0  0
    6.3738    1.6854  -60.3156 H   0  0  0  0  0  0  0  0  0  0  0  0
    8.5302    0.4364  -60.6441 H   0  0  0  0  0  0  0  0  0  0  0  0
    8.2726    1.6278  -61.9691 H   0  0  0  0  0  0  0  0  0  0  0  0
   10.6155    1.6788  -61.1229 H   0  0  0  0  0  0  0  0  0  0  0  0
   10.2293    1.0138  -58.7818 H   0  0  0  0  0  0  0  0  0  0  0  0
   11.0587    2.6212  -58.8594 H   0  0  0  0  0  0  0  0  0  0  0  0
   10.2215    3.4239  -55.0129 H   0  0  0  0  0  0  0  0  0  0  0  0
   10.9462    3.9142  -56.6252 H   0  0  0  0  0  0  0  0  0  0  0  0
    9.0959    5.3576  -54.9722 H   0  0  0  0  0  0  0  0  0  0  0  0
    9.8586    5.8332  -56.5275 H   0  0  0  0  0  0  0  0  0  0  0  0
    8.2999    4.9404  -56.5275 H   0  0  0  0  0  0  0  0  0  0  0  0
   11.4093    1.1383  -57.2355 H   0  0  0  0  0  0  0  0  0  0  0  0
   11.9110   -1.1131  -56.2378 H   0  0  0  0  0  0  0  0  0  0  0  0
    7.2070   -2.8670  -52.1010 H   0  0  0  0  0  0  0  0  0  0  0  0
    8.2260   -4.1000  -52.6670 H   0  0  0  0  0  0  0  0  0  0  0  0
    7.1754   -0.6026  -53.3949 H   0  0  0  0  0  0  0  0  0  0  0  0
    8.1224    4.7195  -58.0510 H   0  0  0  0  0  0  0  0  0  0  0  0
    9.8864    4.6800  -58.4724 H   0  0  0  0  0  0  0  0  0  0  0  0
    8.4684    5.4148  -60.3924 H   0  0  0  0  0  0  0  0  0  0  0  0
    6.4324    4.1222  -59.8935 H   0  0  0  0  0  0  0  0  0  0  0  0
    7.0533    3.7430  -61.5396 H   0  0  0  0  0  0  0  0  0  0  0  0
  1  2  1  0
  2  3  1  0
  3  4  1  0
  4  5  2  0
  4  6  1  0
  6  7  1  0
  7  8  1  0
  8  9  1  0
  9 10  1  0
 10 11  1  0
 11 12  1  1
 12 13  1  0
 13 14  1  0
 12 15  1  0
 15 16  1  0
 16 17  2  0
 17 18  1  0
 18 19  1  0
 19 20  1  0
 20 21  1  0
 20 22  2  0
 22 23  1  0
 23 24  1  0
 11 25  1  0
 25 26  1  0
 26 27  1  0
 26 28  1  0
 28 29  2  0
 11  6  1  0
 24 15  2  0
 27  7  1  0
 28  9  1  0
 23 18  2  0
  1 30  1  0
  1 31  1  0
  1 32  1  0
  2 33  1  0
  2 34  1  0
  6 35  1  6
  7 36  1  1
  8 37  1  0
  8 38  1  0
  9 39  1  6
 10 40  1  0
 10 41  1  0
 13 42  1  0
 13 43  1  0
 14 44  1  0
 14 45  1  0
 14 46  1  0
 16 47  1  0
 17 48  1  0
 21 49  1  0
 21 50  1  0
 22 51  1  0
 25 52  1  0
 25 53  1  0
 26 54  1  6
 27 55  1  0
 27 56  1  0
M  END
>  <meeko>  (8) 
{"is_sidechain": false}

$$$$

     RDKit          3D

 56 60  0  0  0  0  0  0  0  0999 V2000
   13.3770    4.8780  -58.5610 C   0  0  0  0  0  0  0  0  0  0  0  0
   12.2840    4.4510  -57.6010 C   0  0  0  0  0  0  0  0  0  0  0  0
   12.2820    3.0230  -57.4360 O   0  0  0  0  0  0  0  0  0  0  0  0
   11.1300    2.3880  -57.7680 C   0  0  0  0  0  0  0  0  0  0  0  0
   10.7960    1.2940  -57.3300 O   0  0  0  0  0  0  0  0  0  0  0  0
   10.2480    3.2090  -58.6940 C   0  0  1  0  0  0  0  0  0  0  0  0
   10.6650    3.0380  -60.1780 C   0  0  2  0  0  0  0  0  0  0  0  0
   10.0220    4.1790  -60.9990 C   0  0  0  0  0  0  0  0  0  0  0  0
    8.4950    4.1150  -60.8790 C   0  0  2  0  0  0  0  0  0  0  0  0
    8.0600    4.1960  -59.4120 C   0  0  0  0  0  0  0  0  0  0  0  0
    8.7110    3.0520  -58.5370 C   0  0  2  0  0  0  0  0  0  0  0  0
    8.2460    3.2160  -57.1180 N   0  0  0  0  0  0  0  0  0  0  0  0
    7.9400    4.5640  -56.6000 C   0  0  0  0  0  0  0  0  0  0  0  0
    9.2130    5.2500  -56.1280 C   0  0  0  0  0  0  0  0  0  0  0  0
    7.7560    2.1330  -56.3860 C   0  0  0  0  0  0  0  0  0  0  0  0
    6.4480    1.7720  -56.4060 C   0  0  0  0  0  0  0  0  0  0  0  0
    5.9720    0.6420  -55.6150 C   0  0  0  0  0  0  0  0  0  0  0  0
    6.8430   -0.0270  -54.8480 C   0  0  0  0  0  0  0  0  0  0  0  0
    6.5100   -1.3700  -53.8290 S   0  0  0  0  0  0  0  0  0  0  0  0
    8.1870   -1.4420  -53.3150 C   0  0  0  0  0  0  0  0  0  0  0  0
    8.5940   -2.3190  -52.4730 N   0  0  0  0  0  0  0  0  0  0  0  0
    8.9910   -0.3910  -53.9720 C   0  0  0  0  0  0  0  0  0  0  0  0
    8.2470    0.3540  -54.7970 C   0  0  0  0  0  0  0  0  0  0  0  0
    8.6270    1.4140  -55.5840 N   0  0  0  0  0  0  0  0  0  0  0  0
    8.2060    1.7190  -59.1760 C   0  0  0  0  0  0  0  0  0  0  0  0
    8.6450    1.5940  -60.6410 C   0  0  2  0  0  0  0  0  0  0  0  0
   10.1660    1.7030  -60.7730 C   0  0  0  0  0  0  0  0  0  0  0  0
    8.0450    2.7640  -61.3950 C   0  0  0  0  0  0  0  0  0  0  0  0
    7.2580    2.6280  -62.3240 O   0  0  0  0  0  0  0  0  0  0  0  0
   14.2530    5.2202  -57.9905 H   0  0  0  0  0  0  0  0  0  0  0  0
   13.6623    4.0252  -59.1945 H   0  0  0  0  0  0  0  0  0  0  0  0
   13.0087    5.6984  -59.1945 H   0  0  0  0  0  0  0  0  0  0  0  0
   12.4550    4.9271  -56.6242 H   0  0  0  0  0  0  0  0  0  0  0  0
   11.3117    4.7609  -58.0116 H   0  0  0  0  0  0  0  0  0  0  0  0
   10.4403    4.2382  -58.3566 H   0  0  0  0  0  0  0  0  0  0  0  0
   11.7640    3.0554  -60.2221 H   0  0  0  0  0  0  0  0  0  0  0  0
   10.3772    5.1475  -60.6171 H   0  0  0  0  0  0  0  0  0  0  0  0
   10.3062    4.0679  -62.0558 H   0  0  0  0  0  0  0  0  0  0  0  0
    8.0593    4.9521  -61.4442 H   0  0  0  0  0  0  0  0  0  0  0  0
    8.3645    5.1714  -59.0047 H   0  0  0  0  0  0  0  0  0  0  0  0
    6.9676    4.0724  -59.3744 H   0  0  0  0  0  0  0  0  0  0  0  0
    7.4794    5.1638  -57.3989 H   0  0  0  0  0  0  0  0  0  0  0  0
    7.2472    4.4720  -55.7506 H   0  0  0  0  0  0  0  0  0  0  0  0
    9.2366    5.2627  -55.0283 H   0  0  0  0  0  0  0  0  0  0  0  0
   10.0876    4.7010  -56.5072 H   0  0  0  0  0  0  0  0  0  0  0  0
    9.2354    6.2823  -56.5072 H   0  0  0  0  0  0  0  0  0  0  0  0
    5.7377    2.3383  -57.0263 H   0  0  0  0  0  0  0  0  0  0  0  0
    4.9137    0.3439  -55.6480 H   0  0  0  0  0  0  0  0  0  0  0  0
    9.5950   -2.2090  -52.2930 H   0  0  0  0  0  0  0  0  0  0  0  0
   10.0675   -0.2399  -53.8037 H   0  0  0  0  0  0  0  0  0  0  0  0
    9.5740    1.7630  -55.5410 H   0  0  0  0  0  0  0  0  0  0  0  0
    8.6165    0.8720  -58.6067 H   0  0  0  0  0  0  0  0  0  0  0  0
    7.1065    1.7169  -59.1446 H   0  0  0  0  0  0  0  0  0  0  0  0
    8.3165    0.6197  -61.0320 H   0  0  0  0  0  0  0  0  0  0  0  0
   10.6371    0.8677  -60.2342 H   0  0  0  0  0  0  0  0  0  0  0  0
   10.4347    1.6655  -61.8390 H   0  0  0  0  0  0  0  0  0  0  0  0
  1  2  1  0
  2  3  1  0
  3  4  1  0
  4  5  2  0
  4  6  1  0
  6  7  1  0
  7  8  1  0
  8  9  1  0
  9 10  1  0
 10 11  1  0
 11 12  1  1
 12 13  1  0
 13 14  1  0
 12 15  1  0
 15 16  2  0
 16 17  1  0
 17 18  2  0
 18 19  1  0
 19 20  1  0
 20 21  2  3
 20 22  1  0
 22 23  2  0
 23 24  1  0
 11 25  1  0
 25 26  1  0
 26 27  1  0
 26 28  1  0
 28 29  2  0
 11  6  1  0
 24 15  1  0
 27  7  1  0
 28  9  1  0
 23 18  1  0
  1 30  1  0
  1 31  1  0
  1 32  1  0
  2 33  1  0
  2 34  1  0
  6 35  1  1
  7 36  1  1
  8 37  1  0
  8 38  1  0
  9 39  1  6
 10 40  1  0
 10 41  1  0
 13 42  1  0
 13 43  1  0
 14 44  1  0
 14 45  1  0
 14 46  1  0
 16 47  1  0
 17 48  1  0
 21 49  1  0
 22 50  1  0
 24 51  1  0
 25 52  1  0
 25 53  1  0
 26 54  1  6
 27 55  1  0
 27 56  1  0
M  END
>  <meeko>  (9) 
{"is_sidechain": false}

$$$$

     RDKit          3D

 59 63  0  0  0  0  0  0  0  0999 V2000
   12.7030    7.0500  -60.4310 C   0  0  0  0  0  0  0  0  0  0  0  0
   13.0070    5.9330  -59.4550 C   0  0  0  0  0  0  0  0  0  0  0  0
   11.8470    5.6260  -58.6670 O   0  0  0  0  0  0  0  0  0  0  0  0
   11.3730    4.3450  -58.7570 C   0  0  0  0  0  0  0  0  0  0  0  0
   12.0760    3.3570  -58.9140 O   0  0  0  0  0  0  0  0  0  0  0  0
    9.8490    4.3750  -58.7640 C   0  0  1  0  0  0  0  0  0  0  0  0
    9.3210    4.5480  -60.2180 C   0  0  2  0  0  0  0  0  0  0  0  0
    7.8230    4.9030  -60.1540 C   0  0  0  0  0  0  0  0  0  0  0  0
    7.0400    3.7580  -59.4840 C   0  0  2  0  0  0  0  0  0  0  0  0
    7.5890    3.5350  -58.0690 C   0  0  0  0  0  0  0  0  0  0  0  0
    9.1300    3.1880  -58.0720 C   0  0  2  0  0  0  0  0  0  0  0  0
    9.4670    2.9700  -56.6300 N   0  0  0  0  0  0  0  0  0  0  0  0
   10.3750    3.9140  -55.9660 C   0  0  0  0  0  0  0  0  0  0  0  0
    9.7090    1.6700  -56.1530 C   0  0  0  0  0  0  0  0  0  0  0  0
   10.8200    0.9810  -56.6420 C   0  0  0  0  0  0  0  0  0  0  0  0
   11.1130   -0.3110  -56.2050 C   0  0  0  0  0  0  0  0  0  0  0  0
   10.2490   -0.8610  -55.2560 C   0  0  0  0  0  0  0  0  0  0  0  0
   10.3100   -2.3960  -54.4950 S   0  0  0  0  0  0  0  0  0  0  0  0
    8.9030   -2.0840  -53.5650 C   0  0  0  0  0  0  0  0  0  0  0  0
    8.4170   -3.0960  -52.6490 C   0  0  0  0  0  0  0  0  0  0  0  0
    7.6190   -3.9900  -52.9080 O   0  0  0  0  0  0  0  0  0  0  0  0
    8.9820   -2.9140  -51.4190 O   0  0  0  0  0  0  0  0  0  0  0  0
    8.0520   -2.5630  -50.3950 C   0  0  0  0  0  0  0  0  0  0  0  0
    8.3970   -0.8280  -53.8370 C   0  0  0  0  0  0  0  0  0  0  0  0
    9.1590   -0.1210  -54.8110 C   0  0  0  0  0  0  0  0  0  0  0  0
    8.8750    1.1240  -55.2630 N   0  0  0  0  0  0  0  0  0  0  0  0
    9.2550    1.8950  -58.9430 C   0  0  0  0  0  0  0  0  0  0  0  0
    8.6960    2.1050  -60.3620 C   0  0  2  0  0  0  0  0  0  0  0  0
    9.4640    3.2520  -61.0400 C   0  0  0  0  0  0  0  0  0  0  0  0
    7.2030    2.4520  -60.2740 C   0  0  2  0  0  0  0  0  0  0  0  0
    6.6590    2.5910  -61.5810 O   0  0  0  0  0  0  0  0  0  0  0  0
   12.4538    7.9655  -59.8744 H   0  0  0  0  0  0  0  0  0  0  0  0
   13.5838    7.2338  -61.0638 H   0  0  0  0  0  0  0  0  0  0  0  0
   11.8505    6.7621  -61.0638 H   0  0  0  0  0  0  0  0  0  0  0  0
   13.3126    5.0365  -60.0143 H   0  0  0  0  0  0  0  0  0  0  0  0
   13.8176    6.2559  -58.7851 H   0  0  0  0  0  0  0  0  0  0  0  0
    9.5949    5.2447  -58.1403 H   0  0  0  0  0  0  0  0  0  0  0  0
    9.9128    5.3385  -60.7026 H   0  0  0  0  0  0  0  0  0  0  0  0
    7.6916    5.8254  -59.5693 H   0  0  0  0  0  0  0  0  0  0  0  0
    7.4426    5.0522  -61.1753 H   0  0  0  0  0  0  0  0  0  0  0  0
    5.9758    4.0348  -59.4542 H   0  0  0  0  0  0  0  0  0  0  0  0
    7.4339    4.4515  -57.4808 H   0  0  0  0  0  0  0  0  0  0  0  0
    7.0524    2.6807  -57.6305 H   0  0  0  0  0  0  0  0  0  0  0  0
   10.2766    3.8117  -54.8752 H   0  0  0  0  0  0  0  0  0  0  0  0
   11.4116    3.6961  -56.2627 H   0  0  0  0  0  0  0  0  0  0  0  0
   10.1169    4.9413  -56.2627 H   0  0  0  0  0  0  0  0  0  0  0  0
   11.4742    1.4639  -57.3829 H   0  0  0  0  0  0  0  0  0  0  0  0
   11.9805   -0.8681  -56.5885 H   0  0  0  0  0  0  0  0  0  0  0  0
    8.5093   -2.7356  -49.4095 H   0  0  0  0  0  0  0  0  0  0  0  0
    7.7821   -1.5011  -50.4931 H   0  0  0  0  0  0  0  0  0  0  0  0
    7.1478   -3.1817  -50.4931 H   0  0  0  0  0  0  0  0  0  0  0  0
    7.4994   -0.4166  -53.3522 H   0  0  0  0  0  0  0  0  0  0  0  0
   10.3166    1.6163  -59.0162 H   0  0  0  0  0  0  0  0  0  0  0  0
    8.6696    1.0991  -58.4593 H   0  0  0  0  0  0  0  0  0  0  0  0
    8.8170    1.1859  -60.9541 H   0  0  0  0  0  0  0  0  0  0  0  0
   10.5282    2.9835  -61.1127 H   0  0  0  0  0  0  0  0  0  0  0  0
    9.0486    3.4170  -62.0451 H   0  0  0  0  0  0  0  0  0  0  0  0
    6.6624    1.6447  -59.7583 H   0  0  0  0  0  0  0  0  0  0  0  0
    7.1160    3.3320  -62.0130 H   0  0  0  0  0  0  0  0  0  0  0  0
  1  2  1  0
  2  3  1  0
  3  4  1  0
  4  5  2  0
  4  6  1  0
  6  7  1  0
  7  8  1  0
  8  9  1  0
  9 10  1  0
 10 11  1  0
 11 12  1  1
 12 13  1  0
 12 14  1  0
 14 15  1  0
 15 16  2  0
 16 17  1  0
 17 18  1  0
 18 19  1  0
 19 20  1  0
 20 21  2  0
 20 22  1  0
 22 23  1  0
 19 24  2  0
 24 25  1  0
 25 26  1  0
 11 27  1  0
 27 28  1  0
 28 29  1  0
 28 30  1  0
 30 31  1  0
 11  6  1  0
 26 14  2  0
 29  7  1  0
 30  9  1  0
 25 17  2  0
  1 32  1  0
  1 33  1  0
  1 34  1  0
  2 35  1  0
  2 36  1  0
  6 37  1  1
  7 38  1  6
  8 39  1  0
  8 40  1  0
  9 41  1  1
 10 42  1  0
 10 43  1  0
 13 44  1  0
 13 45  1  0
 13 46  1  0
 15 47  1  0
 16 48  1  0
 23 49  1  0
 23 50  1  0
 23 51  1  0
 24 52  1  0
 27 53  1  0
 27 54  1  0
 28 55  1  6
 29 56  1  0
 29 57  1  0
 30 58  1  1
 31 59  1  0
M  END
>  <meeko>  (10) 
{"is_sidechain": false}

$$$$

     RDKit          3D

 63 68  0  0  0  0  0  0  0  0999 V2000
    5.8270    2.4840  -56.8810 C   0  0  0  0  0  0  0  0  0  0  0  0
    6.8590    2.3500  -57.9120 N   0  0  0  0  0  0  0  0  0  0  0  0
    6.3470    2.2750  -59.2110 C   0  0  0  0  0  0  0  0  0  0  0  0
    7.0880    2.7050  -60.3140 C   0  0  0  0  0  0  0  0  0  0  0  0
    6.5650    2.6230  -61.6040 C   0  0  0  0  0  0  0  0  0  0  0  0
    5.2780    2.0970  -61.7290 C   0  0  0  0  0  0  0  0  0  0  0  0
    4.3400    1.8560  -63.1490 S   0  0  0  0  0  0  0  0  0  0  0  0
    3.0330    1.2080  -62.2590 C   0  0  0  0  0  0  0  0  0  0  0  0
    3.2970    1.1720  -60.9080 C   0  0  0  0  0  0  0  0  0  0  0  0
    4.5900    1.6820  -60.5920 C   0  0  0  0  0  0  0  0  0  0  0  0
    5.1120    1.7620  -59.3420 N   0  0  0  0  0  0  0  0  0  0  0  0
    8.1860    2.9970  -57.7060 C   0  0  2  0  0  0  0  0  0  0  0  0
    8.0060    4.5560  -57.7800 C   0  0  0  0  0  0  0  0  0  0  0  0
    9.3320    5.2920  -57.5640 C   0  0  1  0  0  0  0  0  0  0  0  0
    9.9430    4.9180  -56.2150 C   0  0  0  0  0  0  0  0  0  0  0  0
   10.1710    3.3900  -56.1340 C   0  0  2  0  0  0  0  0  0  0  0  0
   11.1530    2.9870  -57.2440 C   0  0  0  0  0  0  0  0  0  0  0  0
   10.5690    3.3350  -58.6120 C   0  0  1  0  0  0  0  0  0  0  0  0
    9.2230    2.6430  -58.8300 C   0  0  0  0  0  0  0  0  0  0  0  0
   10.2990    4.8280  -58.6340 C   0  0  0  0  0  0  0  0  0  0  0  0
   10.8140    5.5890  -59.4460 O   0  0  0  0  0  0  0  0  0  0  0  0
    8.7940    2.6560  -56.2810 C   0  0  2  0  0  0  0  0  0  0  0  0
    8.7970    1.1540  -55.7770 C   0  0  2  0  0  0  0  0  0  0  0  0
    7.4440    0.4400  -55.7840 C   0  0  0  0  0  0  0  0  0  0  0  0
    9.2790    1.1940  -54.4320 O   0  0  0  0  0  0  0  0  0  0  0  0
    9.7910    0.4820  -56.5680 O   0  0  0  0  0  0  0  0  0  0  0  0
   10.9070   -0.1280  -55.9320 C   0  0  0  0  0  0  0  0  0  0  0  0
   10.8810   -1.6370  -55.9320 C   0  0  0  0  0  0  0  0  0  0  0  0
   10.1310   -2.3350  -54.9760 C   0  0  0  0  0  0  0  0  0  0  0  0
   10.1150   -3.7300  -54.9660 C   0  0  0  0  0  0  0  0  0  0  0  0
   10.8590   -4.4420  -55.9050 C   0  0  0  0  0  0  0  0  0  0  0  0
   11.6190   -3.7590  -56.8530 C   0  0  0  0  0  0  0  0  0  0  0  0
   11.6340   -2.3630  -56.8640 C   0  0  0  0  0  0  0  0  0  0  0  0
    6.2925    2.4236  -55.8862 H   0  0  0  0  0  0  0  0  0  0  0  0
    5.3224    3.4552  -56.9913 H   0  0  0  0  0  0  0  0  0  0  0  0
    5.0911    1.6739  -56.9913 H   0  0  0  0  0  0  0  0  0  0  0  0
    8.0979    3.1139  -60.1630 H   0  0  0  0  0  0  0  0  0  0  0  0
    7.1390    2.9568  -62.4810 H   0  0  0  0  0  0  0  0  0  0  0  0
    2.0924    0.8608  -62.7116 H   0  0  0  0  0  0  0  0  0  0  0  0
    2.5891    0.7921  -60.1566 H   0  0  0  0  0  0  0  0  0  0  0  0
    7.6082    4.8220  -58.7705 H   0  0  0  0  0  0  0  0  0  0  0  0
    7.3126    4.8587  -56.9815 H   0  0  0  0  0  0  0  0  0  0  0  0
    9.1505    6.3763  -57.6018 H   0  0  0  0  0  0  0  0  0  0  0  0
   10.9065    5.4354  -56.0971 H   0  0  0  0  0  0  0  0  0  0  0  0
    9.2527    5.2198  -55.4135 H   0  0  0  0  0  0  0  0  0  0  0  0
   10.6027    3.1030  -55.1638 H   0  0  0  0  0  0  0  0  0  0  0  0
   12.1011    3.5271  -57.1049 H   0  0  0  0  0  0  0  0  0  0  0  0
   11.3296    1.9025  -57.1928 H   0  0  0  0  0  0  0  0  0  0  0  0
   11.2797    3.0158  -59.3885 H   0  0  0  0  0  0  0  0  0  0  0  0
    8.8149    2.9597  -59.8011 H   0  0  0  0  0  0  0  0  0  0  0  0
    9.3932    1.5566  -58.8027 H   0  0  0  0  0  0  0  0  0  0  0  0
    8.0591    3.0474  -55.5621 H   0  0  0  0  0  0  0  0  0  0  0  0
    7.1155    0.2667  -54.7486 H   0  0  0  0  0  0  0  0  0  0  0  0
    6.7026    1.0643  -56.3042 H   0  0  0  0  0  0  0  0  0  0  0  0
    7.5410   -0.5243  -56.3042 H   0  0  0  0  0  0  0  0  0  0  0  0
    9.4440    0.2800  -54.1490 H   0  0  0  0  0  0  0  0  0  0  0  0
   11.8196    0.1997  -56.4514 H   0  0  0  0  0  0  0  0  0  0  0  0
   10.8754    0.1850  -54.8779 H   0  0  0  0  0  0  0  0  0  0  0  0
    9.5496   -1.7779  -54.2266 H   0  0  0  0  0  0  0  0  0  0  0  0
    9.5152   -4.2679  -54.2170 H   0  0  0  0  0  0  0  0  0  0  0  0
   10.8465   -5.5419  -55.8980 H   0  0  0  0  0  0  0  0  0  0  0  0
   12.2077   -4.3206  -57.5934 H   0  0  0  0  0  0  0  0  0  0  0  0
   12.2414   -1.8293  -57.6098 H   0  0  0  0  0  0  0  0  0  0  0  0
  1  2  1  0
  2  3  1  0
  3  4  1  0
  4  5  2  0
  5  6  1  0
  6  7  1  0
  7  8  1  0
  8  9  2  0
  9 10  1  0
 10 11  1  0
 12  2  1  6
 12 13  1  0
 13 14  1  0
 14 15  1  0
 15 16  1  0
 16 17  1  0
 17 18  1  0
 18 19  1  0
 18 20  1  0
 20 21  2  0
 16 22  1  0
 22 23  1  0
 23 24  1  0
 23 25  1  1
 23 26  1  0
 26 27  1  0
 27 28  1  0
 28 29  2  0
 29 30  1  0
 30 31  2  0
 31 32  1  0
 32 33  2  0
 11  3  2  0
 19 12  1  0
 33 28  1  0
 10  6  2  0
 22 12  1  0
 20 14  1  0
  1 34  1  0
  1 35  1  0
  1 36  1  0
  4 37  1  0
  5 38  1  0
  8 39  1  0
  9 40  1  0
 13 41  1  0
 13 42  1  0
 14 43  1  1
 15 44  1  0
 15 45  1  0
 16 46  1  1
 17 47  1  0
 17 48  1  0
 18 49  1  6
 19 50  1  0
 19 51  1  0
 22 52  1  1
 24 53  1  0
 24 54  1  0
 24 55  1  0
 25 56  1  0
 27 57  1  0
 27 58  1  0
 29 59  1  0
 30 60  1  0
 31 61  1  0
 32 62  1  0
 33 63  1  0
M  END
>  <meeko>  (11) 
{"is_sidechain": false}

$$$$

     RDKit          3D

 51 55  0  0  0  0  0  0  0  0999 V2000
    7.5490   -0.3690  -54.6210 C   0  0  0  0  0  0  0  0  0  0  0  0
    8.7910    0.4070  -55.0160 C   0  0  0  0  0  0  0  0  0  0  0  0
    8.4650    1.3990  -56.0000 O   0  0  0  0  0  0  0  0  0  0  0  0
    9.4810    1.7740  -56.8330 C   0  0  0  0  0  0  0  0  0  0  0  0
   10.5400    1.1740  -56.9460 O   0  0  0  0  0  0  0  0  0  0  0  0
    9.1200    3.0840  -57.5190 C   0  0  1  0  0  0  0  0  0  0  0  0
    9.8790    4.2590  -56.8610 C   0  0  2  0  0  0  0  0  0  0  0  0
    9.3040    5.5800  -57.4120 C   0  0  0  0  0  0  0  0  0  0  0  0
    9.4770    5.6370  -58.9350 C   0  0  2  0  0  0  0  0  0  0  0  0
    8.7770    4.4520  -59.6190 C   0  0  0  0  0  0  0  0  0  0  0  0
    9.3170    3.0880  -59.0730 C   0  0  2  0  0  0  0  0  0  0  0  0
    8.6760    1.9130  -59.7470 N   0  0  0  0  0  0  0  0  0  0  0  0
    9.3130    1.3780  -60.9600 C   0  0  0  0  0  0  0  0  0  0  0  0
    7.2780    1.9500  -59.9680 C   0  0  0  0  0  0  0  0  0  0  0  0
    6.4460    1.8570  -58.8490 C   0  0  0  0  0  0  0  0  0  0  0  0
    5.0610    1.8890  -58.9860 C   0  0  0  0  0  0  0  0  0  0  0  0
    4.5620    2.0180  -60.2830 C   0  0  0  0  0  0  0  0  0  0  0  0
    2.9280    2.0980  -60.8100 S   0  0  0  0  0  0  0  0  0  0  0  0
    3.3910    2.2420  -62.4490 C   0  0  0  0  0  0  0  0  0  0  0  0
    4.7580    2.2320  -62.6010 C   0  0  0  0  0  0  0  0  0  0  0  0
    5.4440    2.1040  -61.3570 C   0  0  0  0  0  0  0  0  0  0  0  0
    6.7950    2.0690  -61.2120 N   0  0  0  0  0  0  0  0  0  0  0  0
   10.8550    3.0710  -59.3860 C   0  0  0  0  0  0  0  0  0  0  0  0
   11.5880    4.2310  -58.7030 C   0  0  2  0  0  0  0  0  0  0  0  0
   11.3820    4.2050  -57.1890 C   0  0  0  0  0  0  0  0  0  0  0  0
   10.9620    5.5130  -59.2250 C   0  0  0  0  0  0  0  0  0  0  0  0
   11.5950    6.3660  -59.8370 O   0  0  0  0  0  0  0  0  0  0  0  0
    7.4778   -0.4135  -53.5242 H   0  0  0  0  0  0  0  0  0  0  0  0
    6.6583    0.1336  -55.0262 H   0  0  0  0  0  0  0  0  0  0  0  0
    7.6102   -1.3898  -55.0262 H   0  0  0  0  0  0  0  0  0  0  0  0
    9.2084    0.9014  -54.1264 H   0  0  0  0  0  0  0  0  0  0  0  0
    9.5289   -0.2897  -55.4403 H   0  0  0  0  0  0  0  0  0  0  0  0
    8.0369    3.2082  -57.3722 H   0  0  0  0  0  0  0  0  0  0  0  0
    9.7556    4.1919  -55.7700 H   0  0  0  0  0  0  0  0  0  0  0  0
    8.2339    5.6417  -57.1651 H   0  0  0  0  0  0  0  0  0  0  0  0
    9.8430    6.4241  -56.9571 H   0  0  0  0  0  0  0  0  0  0  0  0
    9.0445    6.5758  -59.3115 H   0  0  0  0  0  0  0  0  0  0  0  0
    7.6957    4.5135  -59.4264 H   0  0  0  0  0  0  0  0  0  0  0  0
    8.9804    4.5016  -60.6989 H   0  0  0  0  0  0  0  0  0  0  0  0
   10.1267    0.6946  -60.6758 H   0  0  0  0  0  0  0  0  0  0  0  0
    8.5667    0.8319  -61.5557 H   0  0  0  0  0  0  0  0  0  0  0  0
    9.7220    2.2074  -61.5557 H   0  0  0  0  0  0  0  0  0  0  0  0
    6.8908    1.7573  -57.8479 H   0  0  0  0  0  0  0  0  0  0  0  0
    4.3930    1.8162  -58.1151 H   0  0  0  0  0  0  0  0  0  0  0  0
    2.6799    2.3320  -63.2834 H   0  0  0  0  0  0  0  0  0  0  0  0
    5.2656    2.3136  -63.5735 H   0  0  0  0  0  0  0  0  0  0  0  0
   11.2805    2.1215  -59.0290 H   0  0  0  0  0  0  0  0  0  0  0  0
   10.9838    3.1781  -60.4732 H   0  0  0  0  0  0  0  0  0  0  0  0
   12.6649    4.1574  -58.9147 H   0  0  0  0  0  0  0  0  0  0  0  0
   11.8113    3.2790  -56.7788 H   0  0  0  0  0  0  0  0  0  0  0  0
   11.8807    5.0775  -56.7418 H   0  0  0  0  0  0  0  0  0  0  0  0
  1  2  1  0
  2  3  1  0
  3  4  1  0
  4  5  2  0
  4  6  1  0
  6  7  1  0
  7  8  1  0
  8  9  1  0
  9 10  1  0
 10 11  1  0
 11 12  1  6
 12 13  1  0
 12 14  1  0
 14 15  1  0
 15 16  2  0
 16 17  1  0
 17 18  1  0
 18 19  1  0
 19 20  2  0
 20 21  1  0
 21 22  1  0
 11 23  1  0
 23 24  1  0
 24 25  1  0
 24 26  1  0
 26 27  2  0
 11  6  1  0
 22 14  2  0
 25  7  1  0
 26  9  1  0
 21 17  2  0
  1 28  1  0
  1 29  1  0
  1 30  1  0
  2 31  1  0
  2 32  1  0
  6 33  1  6
  7 34  1  1
  8 35  1  0
  8 36  1  0
  9 37  1  6
 10 38  1  0
 10 39  1  0
 13 40  1  0
 13 41  1  0
 13 42  1  0
 15 43  1  0
 16 44  1  0
 19 45  1  0
 20 46  1  0
 23 47  1  0
 23 48  1  0
 24 49  1  1
 25 50  1  0
 25 51  1  0
M  END
>  <meeko>  (12) 
{"is_sidechain": false}

$$$$

     RDKit          3D

 51 55  0  0  0  0  0  0  0  0999 V2000
   12.6680    7.1450  -60.4810 C   0  0  0  0  0  0  0  0  0  0  0  0
   13.3090    6.0430  -59.6580 C   0  0  0  0  0  0  0  0  0  0  0  0
   12.3580    5.6140  -58.6780 O   0  0  0  0  0  0  0  0  0  0  0  0
   11.7900    4.4100  -58.9290 C   0  0  0  0  0  0  0  0  0  0  0  0
   12.4190    3.3840  -59.1690 O   0  0  0  0  0  0  0  0  0  0  0  0
   10.2740    4.4330  -58.8210 C   0  0  1  0  0  0  0  0  0  0  0  0
    9.5900    4.7500  -60.1680 C   0  0  2  0  0  0  0  0  0  0  0  0
    8.1200    5.1290  -59.8760 C   0  0  0  0  0  0  0  0  0  0  0  0
    7.4100    3.9670  -59.1660 C   0  0  2  0  0  0  0  0  0  0  0  0
    8.1240    3.5940  -57.8560 C   0  0  0  0  0  0  0  0  0  0  0  0
    9.6140    3.1980  -58.1210 C   0  0  2  0  0  0  0  0  0  0  0  0
   10.3670    2.8800  -56.8690 N   0  0  0  0  0  0  0  0  0  0  0  0
   10.3460    3.8700  -55.7810 C   0  0  0  0  0  0  0  0  0  0  0  0
   10.1510    1.6090  -56.2870 C   0  0  0  0  0  0  0  0  0  0  0  0
    9.0310    1.4670  -55.4660 C   0  0  0  0  0  0  0  0  0  0  0  0
    8.7400    0.2430  -54.8690 C   0  0  0  0  0  0  0  0  0  0  0  0
    9.6150   -0.8110  -55.1420 C   0  0  0  0  0  0  0  0  0  0  0  0
    9.5630   -2.4350  -54.5780 S   0  0  0  0  0  0  0  0  0  0  0  0
   10.9690   -2.8330  -55.4330 C   0  0  0  0  0  0  0  0  0  0  0  0
   11.7450   -4.5800  -55.4080 Br  0  0  0  0  0  0  0  0  0  0  0  0
   11.4940   -1.7850  -56.1410 C   0  0  0  0  0  0  0  0  0  0  0  0
   10.7130   -0.6030  -55.9790 C   0  0  0  0  0  0  0  0  0  0  0  0
   10.9850    0.5940  -56.5590 N   0  0  0  0  0  0  0  0  0  0  0  0
    9.5970    1.9840  -59.1110 C   0  0  0  0  0  0  0  0  0  0  0  0
    8.9090    2.3430  -60.4320 C   0  0  2  0  0  0  0  0  0  0  0  0
    9.5920    3.5310  -61.1090 C   0  0  0  0  0  0  0  0  0  0  0  0
    7.4900    2.7680  -60.0940 C   0  0  0  0  0  0  0  0  0  0  0  0
    6.4980    2.2040  -60.5430 O   0  0  0  0  0  0  0  0  0  0  0  0
   12.2303    7.8975  -59.8086 H   0  0  0  0  0  0  0  0  0  0  0  0
   13.4309    7.6198  -61.1155 H   0  0  0  0  0  0  0  0  0  0  0  0
   11.8782    6.7166  -61.1155 H   0  0  0  0  0  0  0  0  0  0  0  0
   13.5799    5.1994  -60.3099 H   0  0  0  0  0  0  0  0  0  0  0  0
   14.2222    6.4128  -59.1687 H   0  0  0  0  0  0  0  0  0  0  0  0
   10.0891    5.2676  -58.1287 H   0  0  0  0  0  0  0  0  0  0  0  0
   10.1404    5.5670  -60.6575 H   0  0  0  0  0  0  0  0  0  0  0  0
    8.0945    6.0200  -59.2315 H   0  0  0  0  0  0  0  0  0  0  0  0
    7.6060    5.3408  -60.8252 H   0  0  0  0  0  0  0  0  0  0  0  0
    6.3754    4.2582  -58.9318 H   0  0  0  0  0  0  0  0  0  0  0  0
    8.0972    4.4565  -57.1738 H   0  0  0  0  0  0  0  0  0  0  0  0
    7.6071    2.7320  -57.4090 H   0  0  0  0  0  0  0  0  0  0  0  0
   10.3570    3.3499  -54.8118 H   0  0  0  0  0  0  0  0  0  0  0  0
   11.2306    4.5192  -55.8589 H   0  0  0  0  0  0  0  0  0  0  0  0
    9.4347    4.4811  -55.8589 H   0  0  0  0  0  0  0  0  0  0  0  0
    8.3722    2.3299  -55.2890 H   0  0  0  0  0  0  0  0  0  0  0  0
    7.8650    0.1127  -54.2153 H   0  0  0  0  0  0  0  0  0  0  0  0
   12.4033   -1.8471  -56.7569 H   0  0  0  0  0  0  0  0  0  0  0  0
   10.6331    1.6789  -59.3195 H   0  0  0  0  0  0  0  0  0  0  0  0
    9.0332    1.1647  -58.6410 H   0  0  0  0  0  0  0  0  0  0  0  0
    8.9491    1.4763  -61.1081 H   0  0  0  0  0  0  0  0  0  0  0  0
   10.6302    3.2624  -61.3541 H   0  0  0  0  0  0  0  0  0  0  0  0
    9.0439    3.7852  -62.0282 H   0  0  0  0  0  0  0  0  0  0  0  0
  1  2  1  0
  2  3  1  0
  3  4  1  0
  4  5  2  0
  4  6  1  0
  6  7  1  0
  7  8  1  0
  8  9  1  0
  9 10  1  0
 10 11  1  0
 11 12  1  1
 12 13  1  0
 12 14  1  0
 14 15  1  0
 15 16  2  0
 16 17  1  0
 17 18  1  0
 18 19  1  0
 19 20  1  0
 19 21  2  0
 21 22  1  0
 22 23  1  0
 11 24  1  0
 24 25  1  0
 25 26  1  0
 25 27  1  0
 27 28  2  0
 11  6  1  0
 23 14  2  0
 26  7  1  0
 27  9  1  0
 22 17  2  0
  1 29  1  0
  1 30  1  0
  1 31  1  0
  2 32  1  0
  2 33  1  0
  6 34  1  1
  7 35  1  6
  8 36  1  0
  8 37  1  0
  9 38  1  1
 10 39  1  0
 10 40  1  0
 13 41  1  0
 13 42  1  0
 13 43  1  0
 15 44  1  0
 16 45  1  0
 21 46  1  0
 24 47  1  0
 24 48  1  0
 25 49  1  6
 26 50  1  0
 26 51  1  0
M  END
>  <meeko>  (13) 
{"is_sidechain": false}

$$$$

     RDKit          3D

 53 57  0  0  0  0  0  0  0  0999 V2000
   12.6170    7.0780  -60.4880 C   0  0  0  0  0  0  0  0  0  0  0  0
   13.2430    6.0680  -59.5450 C   0  0  0  0  0  0  0  0  0  0  0  0
   12.2420    5.5250  -58.6720 O   0  0  0  0  0  0  0  0  0  0  0  0
   11.6880    4.3420  -59.0670 C   0  0  0  0  0  0  0  0  0  0  0  0
   12.3180    3.3910  -59.5090 O   0  0  0  0  0  0  0  0  0  0  0  0
   10.1770    4.3920  -58.8890 C   0  0  1  0  0  0  0  0  0  0  0  0
    9.4420    4.6730  -60.2190 C   0  0  2  0  0  0  0  0  0  0  0  0
    7.9530    4.9350  -59.8960 C   0  0  0  0  0  0  0  0  0  0  0  0
    7.3400    3.7100  -59.2010 C   0  0  2  0  0  0  0  0  0  0  0  0
    8.0970    3.3760  -57.9080 C   0  0  0  0  0  0  0  0  0  0  0  0
    9.6130    3.1140  -58.1920 C   0  0  2  0  0  0  0  0  0  0  0  0
   10.3890    2.8470  -56.9370 N   0  0  0  0  0  0  0  0  0  0  0  0
   10.3650    3.8800  -55.8880 C   0  0  0  0  0  0  0  0  0  0  0  0
   10.1280    1.5970  -56.3220 C   0  0  0  0  0  0  0  0  0  0  0  0
    8.9870    1.5120  -55.5190 C   0  0  0  0  0  0  0  0  0  0  0  0
    8.6620    0.3210  -54.8760 C   0  0  0  0  0  0  0  0  0  0  0  0
    9.5310   -0.7490  -55.0910 C   0  0  0  0  0  0  0  0  0  0  0  0
    9.4900   -2.3570  -54.4900 S   0  0  0  0  0  0  0  0  0  0  0  0
   10.9330   -2.7100  -55.3550 C   0  0  0  0  0  0  0  0  0  0  0  0
   11.5310   -4.0710  -55.2760 C   0  0  0  0  0  0  0  0  0  0  0  0
   11.4360   -1.7210  -56.0580 N   0  0  0  0  0  0  0  0  0  0  0  0
   10.6480   -0.5980  -55.9120 C   0  0  0  0  0  0  0  0  0  0  0  0
   10.9570    0.5640  -56.5360 N   0  0  0  0  0  0  0  0  0  0  0  0
    9.6860    1.9160  -59.1980 C   0  0  0  0  0  0  0  0  0  0  0  0
    8.9440    2.2230  -60.5030 C   0  0  2  0  0  0  0  0  0  0  0  0
    9.5120    3.4690  -61.1810 C   0  0  0  0  0  0  0  0  0  0  0  0
    7.5020    2.5310  -60.1430 C   0  0  0  0  0  0  0  0  0  0  0  0
    6.5510    1.8970  -60.5900 O   0  0  0  0  0  0  0  0  0  0  0  0
   12.1261    7.8701  -59.9036 H   0  0  0  0  0  0  0  0  0  0  0  0
   13.3989    7.5213  -61.1221 H   0  0  0  0  0  0  0  0  0  0  0  0
   11.8721    6.5750  -61.1221 H   0  0  0  0  0  0  0  0  0  0  0  0
   13.6954    5.2544  -60.1309 H   0  0  0  0  0  0  0  0  0  0  0  0
   14.0153    6.5678  -58.9418 H   0  0  0  0  0  0  0  0  0  0  0  0
    9.9799    5.2399  -58.2165 H   0  0  0  0  0  0  0  0  0  0  0  0
    9.9229    5.5353  -60.7041 H   0  0  0  0  0  0  0  0  0  0  0  0
    7.8730    5.8081  -59.2317 H   0  0  0  0  0  0  0  0  0  0  0  0
    7.4097    5.1266  -60.8331 H   0  0  0  0  0  0  0  0  0  0  0  0
    6.2875    3.9174  -58.9578 H   0  0  0  0  0  0  0  0  0  0  0  0
    8.0035    4.2203  -57.2091 H   0  0  0  0  0  0  0  0  0  0  0  0
    7.6609    2.4638  -57.4746 H   0  0  0  0  0  0  0  0  0  0  0  0
   10.3762    3.3986  -54.8990 H   0  0  0  0  0  0  0  0  0  0  0  0
   11.2483    4.5274  -55.9907 H   0  0  0  0  0  0  0  0  0  0  0  0
    9.4525    4.4857  -55.9907 H   0  0  0  0  0  0  0  0  0  0  0  0
    8.3408    2.3934  -55.3942 H   0  0  0  0  0  0  0  0  0  0  0  0
    7.7722    0.2289  -54.2359 H   0  0  0  0  0  0  0  0  0  0  0  0
   11.6561   -4.3558  -54.2209 H   0  0  0  0  0  0  0  0  0  0  0  0
   10.8671   -4.7927  -55.7744 H   0  0  0  0  0  0  0  0  0  0  0  0
   12.5116   -4.0701  -55.7744 H   0  0  0  0  0  0  0  0  0  0  0  0
   10.7413    1.7086  -59.4287 H   0  0  0  0  0  0  0  0  0  0  0  0
    9.2056    1.0451  -58.7282 H   0  0  0  0  0  0  0  0  0  0  0  0
    9.0429    1.3628  -61.1814 H   0  0  0  0  0  0  0  0  0  0  0  0
   10.5603    3.2860  -61.4595 H   0  0  0  0  0  0  0  0  0  0  0  0
    8.9197    3.6915  -62.0808 H   0  0  0  0  0  0  0  0  0  0  0  0
  1  2  1  0
  2  3  1  0
  3  4  1  0
  4  5  2  0
  4  6  1  0
  6  7  1  0
  7  8  1  0
  8  9  1  0
  9 10  1  0
 10 11  1  0
 11 12  1  1
 12 13  1  0
 12 14  1  0
 14 15  2  0
 15 16  1  0
 16 17  2  0
 17 18  1  0
 18 19  1  0
 19 20  1  0
 19 21  2  0
 21 22  1  0
 22 23  2  0
 11 24  1  0
 24 25  1  0
 25 26  1  0
 25 27  1  0
 27 28  2  0
 11  6  1  0
 23 14  1  0
 26  7  1  0
 27  9  1  0
 22 17  1  0
  1 29  1  0
  1 30  1  0
  1 31  1  0
  2 32  1  0
  2 33  1  0
  6 34  1  1
  7 35  1  6
  8 36  1  0
  8 37  1  0
  9 38  1  1
 10 39  1  0
 10 40  1  0
 13 41  1  0
 13 42  1  0
 13 43  1  0
 15 44  1  0
 16 45  1  0
 20 46  1  0
 20 47  1  0
 20 48  1  0
 24 49  1  0
 24 50  1  0
 25 51  1  6
 26 52  1  0
 26 53  1  0
M  END
>  <meeko>  (14) 
{"is_sidechain": false}

$$$$

     RDKit          3D

 60 64  0  0  0  0  0  0  0  0999 V2000
   11.1080   -2.3430  -53.2030 C   0  0  0  0  0  0  0  0  0  0  0  0
    9.9810   -1.5980  -53.8300 C   0  0  0  0  0  0  0  0  0  0  0  0
   10.0250   -0.4250  -54.5530 C   0  0  0  0  0  0  0  0  0  0  0  0
    8.7380   -0.0060  -55.0020 C   0  0  0  0  0  0  0  0  0  0  0  0
    8.4940    1.1130  -55.7320 N   0  0  0  0  0  0  0  0  0  0  0  0
    7.2250    1.3580  -56.0830 C   0  0  0  0  0  0  0  0  0  0  0  0
    6.9190    2.4970  -56.8620 N   0  0  0  0  0  0  0  0  0  0  0  0
    5.4680    2.6990  -56.8440 C   0  0  0  0  0  0  0  0  0  0  0  0
    7.7020    2.7310  -58.1170 C   0  0  2  0  0  0  0  0  0  0  0  0
    9.2250    2.8460  -57.6970 C   0  0  0  0  0  0  0  0  0  0  0  0
   10.1290    3.1800  -58.8870 C   0  0  1  0  0  0  0  0  0  0  0  0
    9.9750    2.1360  -59.9960 C   0  0  0  0  0  0  0  0  0  0  0  0
    8.5010    2.0590  -60.4490 C   0  0  2  0  0  0  0  0  0  0  0  0
    8.0930    3.4390  -60.9980 C   0  0  0  0  0  0  0  0  0  0  0  0
    8.2170    4.5030  -59.9050 C   0  0  1  0  0  0  0  0  0  0  0  0
    7.3510    4.1480  -58.6930 C   0  0  0  0  0  0  0  0  0  0  0  0
    9.6600    4.5100  -59.4430 C   0  0  0  0  0  0  0  0  0  0  0  0
   10.3810    5.4990  -59.5150 O   0  0  0  0  0  0  0  0  0  0  0  0
    7.6220    1.6470  -59.2360 C   0  0  2  0  0  0  0  0  0  0  0  0
    6.2650    1.1870  -59.7390 C   0  0  0  0  0  0  0  0  0  0  0  0
    5.9190    0.0100  -59.7170 O   0  0  0  0  0  0  0  0  0  0  0  0
    5.5360    2.1810  -60.3070 O   0  0  0  0  0  0  0  0  0  0  0  0
    4.1510    1.8840  -60.5590 C   0  0  0  0  0  0  0  0  0  0  0  0
    3.8670    1.8940  -62.0670 C   0  0  0  0  0  0  0  0  0  0  0  0
    5.1310    2.2580  -62.8440 C   0  0  0  0  0  0  0  0  0  0  0  0
    3.3360    0.5360  -62.5340 C   0  0  0  0  0  0  0  0  0  0  0  0
    6.1740    0.5140  -55.7150 C   0  0  0  0  0  0  0  0  0  0  0  0
    6.4110   -0.6330  -54.9600 C   0  0  0  0  0  0  0  0  0  0  0  0
    7.7370   -0.8880  -54.6040 C   0  0  0  0  0  0  0  0  0  0  0  0
    8.3820   -2.1920  -53.6940 S   0  0  0  0  0  0  0  0  0  0  0  0
   11.0212   -2.2856  -52.1079 H   0  0  0  0  0  0  0  0  0  0  0  0
   11.0723   -3.3960  -53.5190 H   0  0  0  0  0  0  0  0  0  0  0  0
   12.0628   -1.8975  -53.5190 H   0  0  0  0  0  0  0  0  0  0  0  0
   10.9528    0.1281  -54.7611 H   0  0  0  0  0  0  0  0  0  0  0  0
    5.1175    2.7478  -55.8025 H   0  0  0  0  0  0  0  0  0  0  0  0
    5.2224    3.6400  -57.3580 H   0  0  0  0  0  0  0  0  0  0  0  0
    4.9747    1.8609  -57.3580 H   0  0  0  0  0  0  0  0  0  0  0  0
    9.3254    3.6397  -56.9420 H   0  0  0  0  0  0  0  0  0  0  0  0
    9.5397    1.8709  -57.2967 H   0  0  0  0  0  0  0  0  0  0  0  0
   11.1782    3.2038  -58.5576 H   0  0  0  0  0  0  0  0  0  0  0  0
   10.6048    2.4189  -60.8524 H   0  0  0  0  0  0  0  0  0  0  0  0
   10.2861    1.1533  -59.6120 H   0  0  0  0  0  0  0  0  0  0  0  0
    8.3642    1.3079  -61.2409 H   0  0  0  0  0  0  0  0  0  0  0  0
    8.7509    3.7041  -61.8388 H   0  0  0  0  0  0  0  0  0  0  0  0
    7.0475    3.3945  -61.3372 H   0  0  0  0  0  0  0  0  0  0  0  0
    7.8949    5.4747  -60.3076 H   0  0  0  0  0  0  0  0  0  0  0  0
    7.5128    4.9010  -57.9077 H   0  0  0  0  0  0  0  0  0  0  0  0
    6.3002    4.1329  -59.0179 H   0  0  0  0  0  0  0  0  0  0  0  0
    7.9953    0.7600  -58.7032 H   0  0  0  0  0  0  0  0  0  0  0  0
    3.9137    0.8899  -60.1522 H   0  0  0  0  0  0  0  0  0  0  0  0
    3.5281    2.6498  -60.0737 H   0  0  0  0  0  0  0  0  0  0  0  0
    3.0956    2.6533  -62.2630 H   0  0  0  0  0  0  0  0  0  0  0  0
    5.9412    2.4913  -62.1375 H   0  0  0  0  0  0  0  0  0  0  0  0
    5.4295    1.4093  -63.4770 H   0  0  0  0  0  0  0  0  0  0  0  0
    4.9324    3.1355  -63.4770 H   0  0  0  0  0  0  0  0  0  0  0  0
    3.0936   -0.0838  -61.6582 H   0  0  0  0  0  0  0  0  0  0  0  0
    2.4300    0.6852  -63.1397 H   0  0  0  0  0  0  0  0  0  0  0  0
    4.1029    0.0310  -63.1397 H   0  0  0  0  0  0  0  0  0  0  0  0
    5.1472    0.7579  -56.0250 H   0  0  0  0  0  0  0  0  0  0  0  0
    5.5935   -1.3047  -54.6591 H   0  0  0  0  0  0  0  0  0  0  0  0
  1  2  1  0
  2  3  2  0
  3  4  1  0
  4  5  1  0
  5  6  2  0
  6  7  1  0
  7  8  1  0
  9  7  1  1
  9 10  1  0
 10 11  1  0
 11 12  1  0
 12 13  1  0
 13 14  1  0
 14 15  1  0
 15 16  1  0
 15 17  1  0
 17 18  2  0
 13 19  1  0
 19 20  1  0
 20 21  2  0
 20 22  1  0
 22 23  1  0
 23 24  1  0
 24 25  1  0
 24 26  1  0
  6 27  1  0
 27 28  2  0
 28 29  1  0
 29 30  1  0
 30  2  1  0
 29  4  2  0
 16  9  1  0
 19  9  1  0
 17 11  1  0
  1 31  1  0
  1 32  1  0
  1 33  1  0
  3 34  1  0
  8 35  1  0
  8 36  1  0
  8 37  1  0
 10 38  1  0
 10 39  1  0
 11 40  1  1
 12 41  1  0
 12 42  1  0
 13 43  1  6
 14 44  1  0
 14 45  1  0
 15 46  1  6
 16 47  1  0
 16 48  1  0
 19 49  1  1
 23 50  1  0
 23 51  1  0
 24 52  1  0
 25 53  1  0
 25 54  1  0
 25 55  1  0
 26 56  1  0
 26 57  1  0
 26 58  1  0
 27 59  1  0
 28 60  1  0
M  END
>  <meeko>  (15) 
{"is_sidechain": false}

$$$$

     RDKit          3D

 53 57  0  0  0  0  0  0  0  0999 V2000
    6.8520    0.3920  -55.3020 C   0  0  0  0  0  0  0  0  0  0  0  0
    8.3650    0.4380  -55.3240 C   0  0  0  0  0  0  0  0  0  0  0  0
    8.8410    1.7480  -55.6690 O   0  0  0  0  0  0  0  0  0  0  0  0
    9.6300    1.8230  -56.7810 C   0  0  0  0  0  0  0  0  0  0  0  0
   10.5410    1.0500  -57.0410 O   0  0  0  0  0  0  0  0  0  0  0  0
    9.3130    3.0990  -57.5530 C   0  0  1  0  0  0  0  0  0  0  0  0
   10.0770    4.3140  -56.9490 C   0  0  2  0  0  0  0  0  0  0  0  0
    9.4800    5.6120  -57.5380 C   0  0  0  0  0  0  0  0  0  0  0  0
    9.6460    5.6220  -59.0610 C   0  0  2  0  0  0  0  0  0  0  0  0
    8.9780    4.3970  -59.6870 C   0  0  0  0  0  0  0  0  0  0  0  0
    9.5290    3.0400  -59.0870 C   0  0  2  0  0  0  0  0  0  0  0  0
    8.7610    1.9720  -59.7970 N   0  0  0  0  0  0  0  0  0  0  0  0
    9.3640    1.3010  -60.9540 C   0  0  0  0  0  0  0  0  0  0  0  0
    7.3650    1.9920  -59.8760 C   0  0  0  0  0  0  0  0  0  0  0  0
    6.6110    1.9600  -58.7040 C   0  0  0  0  0  0  0  0  0  0  0  0
    5.2240    1.9850  -58.7730 C   0  0  0  0  0  0  0  0  0  0  0  0
    4.6130    2.0490  -60.0230 C   0  0  0  0  0  0  0  0  0  0  0  0
    3.2190    2.0890  -60.1650 C   0  0  0  0  0  0  0  0  0  0  0  0
    2.6660    2.1600  -61.4330 C   0  0  0  0  0  0  0  0  0  0  0  0
    3.5350    2.1900  -62.5040 C   0  0  0  0  0  0  0  0  0  0  0  0
    4.8800    2.1510  -62.3860 N   0  0  0  0  0  0  0  0  0  0  0  0
    5.4260    2.0800  -61.1680 C   0  0  0  0  0  0  0  0  0  0  0  0
    6.7580    2.0390  -61.0740 N   0  0  0  0  0  0  0  0  0  0  0  0
   11.0590    3.0470  -59.4190 C   0  0  0  0  0  0  0  0  0  0  0  0
   11.7730    4.2640  -58.8170 C   0  0  2  0  0  0  0  0  0  0  0  0
   11.5820    4.2950  -57.3000 C   0  0  0  0  0  0  0  0  0  0  0  0
   11.1240    5.5130  -59.3730 C   0  0  0  0  0  0  0  0  0  0  0  0
   11.7330    6.3620  -60.0160 O   0  0  0  0  0  0  0  0  0  0  0  0
    6.5006    0.3813  -54.2597 H   0  0  0  0  0  0  0  0  0  0  0  0
    6.4507    1.2784  -55.8152 H   0  0  0  0  0  0  0  0  0  0  0  0
    6.5053   -0.5171  -55.8152 H   0  0  0  0  0  0  0  0  0  0  0  0
    8.7464    0.1687  -54.3280 H   0  0  0  0  0  0  0  0  0  0  0  0
    8.7235   -0.2732  -56.0827 H   0  0  0  0  0  0  0  0  0  0  0  0
    8.2269    3.2217  -57.4295 H   0  0  0  0  0  0  0  0  0  0  0  0
    9.9707    4.2620  -55.8554 H   0  0  0  0  0  0  0  0  0  0  0  0
    8.4102    5.6670  -57.2879 H   0  0  0  0  0  0  0  0  0  0  0  0
   10.0081    6.4778  -57.1119 H   0  0  0  0  0  0  0  0  0  0  0  0
    9.1948    6.5434  -59.4578 H   0  0  0  0  0  0  0  0  0  0  0  0
    7.8950    4.4515  -59.5022 H   0  0  0  0  0  0  0  0  0  0  0  0
    9.2027    4.4046  -60.7638 H   0  0  0  0  0  0  0  0  0  0  0  0
   10.0614    0.5250  -60.6054 H   0  0  0  0  0  0  0  0  0  0  0  0
    8.5733    0.8371  -61.5620 H   0  0  0  0  0  0  0  0  0  0  0  0
    9.9094    2.0378  -61.5620 H   0  0  0  0  0  0  0  0  0  0  0  0
    7.1134    1.9150  -57.7265 H   0  0  0  0  0  0  0  0  0  0  0  0
    4.6180    1.9547  -57.8555 H   0  0  0  0  0  0  0  0  0  0  0  0
    2.5699    2.0642  -59.2772 H   0  0  0  0  0  0  0  0  0  0  0  0
    1.5763    2.1912  -61.5802 H   0  0  0  0  0  0  0  0  0  0  0  0
    3.1066    2.2493  -63.5154 H   0  0  0  0  0  0  0  0  0  0  0  0
   11.5145    2.1316  -59.0132 H   0  0  0  0  0  0  0  0  0  0  0  0
   11.1688    3.0956  -60.5124 H   0  0  0  0  0  0  0  0  0  0  0  0
   12.8442    4.2091  -59.0610 H   0  0  0  0  0  0  0  0  0  0  0  0
   12.0465    3.4015  -56.8575 H   0  0  0  0  0  0  0  0  0  0  0  0
   12.0545    5.2036  -56.8984 H   0  0  0  0  0  0  0  0  0  0  0  0
  1  2  1  0
  2  3  1  0
  3  4  1  0
  4  5  2  0
  4  6  1  0
  6  7  1  0
  7  8  1  0
  8  9  1  0
  9 10  1  0
 10 11  1  0
 11 12  1  6
 12 13  1  0
 12 14  1  0
 14 15  2  0
 15 16  1  0
 16 17  2  0
 17 18  1  0
 18 19  2  0
 19 20  1  0
 20 21  2  0
 21 22  1  0
 22 23  2  0
 11 24  1  0
 24 25  1  0
 25 26  1  0
 25 27  1  0
 27 28  2  0
 11  6  1  0
 23 14  1  0
 26  7  1  0
 27  9  1  0
 22 17  1  0
  1 29  1  0
  1 30  1  0
  1 31  1  0
  2 32  1  0
  2 33  1  0
  6 34  1  6
  7 35  1  1
  8 36  1  0
  8 37  1  0
  9 38  1  6
 10 39  1  0
 10 40  1  0
 13 41  1  0
 13 42  1  0
 13 43  1  0
 15 44  1  0
 16 45  1  0
 18 46  1  0
 19 47  1  0
 20 48  1  0
 24 49  1  0
 24 50  1  0
 25 51  1  1
 26 52  1  0
 26 53  1  0
M  END
>  <meeko>  (16) 
{"is_sidechain": false}

$$$$

     RDKit          3D

 57 61  0  0  0  0  0  0  0  0999 V2000
   13.1600    7.4180  -60.6670 C   0  0  0  0  0  0  0  0  0  0  0  0
   13.2920    6.2240  -59.7400 C   0  0  0  0  0  0  0  0  0  0  0  0
   12.0270    5.9400  -59.1210 O   0  0  0  0  0  0  0  0  0  0  0  0
   11.6330    4.6410  -59.1350 C   0  0  0  0  0  0  0  0  0  0  0  0
   12.4030    3.6900  -59.2240 O   0  0  0  0  0  0  0  0  0  0  0  0
   10.1420    4.4770  -58.9060 C   0  0  1  0  0  0  0  0  0  0  0  0
    9.3820    4.6560  -60.2480 C   0  0  2  0  0  0  0  0  0  0  0  0
    7.8870    4.8910  -59.9380 C   0  0  0  0  0  0  0  0  0  0  0  0
    7.3100    3.6860  -59.1860 C   0  0  2  0  0  0  0  0  0  0  0  0
    8.0870    3.4280  -57.8900 C   0  0  0  0  0  0  0  0  0  0  0  0
    9.6320    3.2100  -58.1570 C   0  0  2  0  0  0  0  0  0  0  0  0
   10.2750    2.8830  -56.8430 N   0  0  0  0  0  0  0  0  0  0  0  0
   10.2720    3.8720  -55.7590 C   0  0  0  0  0  0  0  0  0  0  0  0
   10.0750    1.6020  -56.2970 C   0  0  0  0  0  0  0  0  0  0  0  0
   11.0550    0.6290  -56.4710 C   0  0  0  0  0  0  0  0  0  0  0  0
   10.8790   -0.6400  -55.9200 C   0  0  0  0  0  0  0  0  0  0  0  0
    9.7400   -0.9400  -55.1970 C   0  0  0  0  0  0  0  0  0  0  0  0
    9.5850   -2.1690  -54.6650 N   0  0  0  0  0  0  0  0  0  0  0  0
    8.4540   -2.3990  -53.9680 C   0  0  0  0  0  0  0  0  0  0  0  0
    8.2310   -3.6350  -53.3970 O   0  0  0  0  0  0  0  0  0  0  0  0
    7.0870   -3.6600  -52.5500 C   0  0  0  0  0  0  0  0  0  0  0  0
    7.4690   -1.4500  -53.7780 C   0  0  0  0  0  0  0  0  0  0  0  0
    7.6570   -0.1890  -54.3400 C   0  0  0  0  0  0  0  0  0  0  0  0
    8.7990    0.0990  -55.0680 C   0  0  0  0  0  0  0  0  0  0  0  0
    8.9560    1.3270  -55.6040 N   0  0  0  0  0  0  0  0  0  0  0  0
    9.6880    1.9490  -59.0900 C   0  0  0  0  0  0  0  0  0  0  0  0
    8.9430    2.1780  -60.4090 C   0  0  2  0  0  0  0  0  0  0  0  0
    9.4940    3.4040  -61.1410 C   0  0  0  0  0  0  0  0  0  0  0  0
    7.4960    2.4680  -60.0660 C   0  0  0  0  0  0  0  0  0  0  0  0
    6.5630    1.7820  -60.4690 O   0  0  0  0  0  0  0  0  0  0  0  0
   13.0585    8.3363  -60.0700 H   0  0  0  0  0  0  0  0  0  0  0  0
   14.0556    7.4903  -61.3015 H   0  0  0  0  0  0  0  0  0  0  0  0
   12.2702    7.2930  -61.3015 H   0  0  0  0  0  0  0  0  0  0  0  0
   13.6191    5.3478  -60.3190 H   0  0  0  0  0  0  0  0  0  0  0  0
   14.0325    6.4531  -58.9595 H   0  0  0  0  0  0  0  0  0  0  0  0
    9.9178    5.2752  -58.1830 H   0  0  0  0  0  0  0  0  0  0  0  0
    9.8279    5.5080  -60.7821 H   0  0  0  0  0  0  0  0  0  0  0  0
    7.7815    5.7925  -59.3165 H   0  0  0  0  0  0  0  0  0  0  0  0
    7.3393    5.0221  -60.8829 H   0  0  0  0  0  0  0  0  0  0  0  0
    6.2540    3.8820  -58.9485 H   0  0  0  0  0  0  0  0  0  0  0  0
    7.9608    4.2930  -57.2223 H   0  0  0  0  0  0  0  0  0  0  0  0
    7.6889    2.5102  -57.4327 H   0  0  0  0  0  0  0  0  0  0  0  0
   10.2736    3.3530  -54.7891 H   0  0  0  0  0  0  0  0  0  0  0  0
   11.1682    4.5049  -55.8376 H   0  0  0  0  0  0  0  0  0  0  0  0
    9.3719    4.4995  -55.8376 H   0  0  0  0  0  0  0  0  0  0  0  0
   11.9663    0.8605  -57.0419 H   0  0  0  0  0  0  0  0  0  0  0  0
   11.6531   -1.4085  -56.0620 H   0  0  0  0  0  0  0  0  0  0  0  0
    7.4092   -3.6530  -51.4983 H   0  0  0  0  0  0  0  0  0  0  0  0
    6.4643   -2.7752  -52.7486 H   0  0  0  0  0  0  0  0  0  0  0  0
    6.5035   -4.5711  -52.7486 H   0  0  0  0  0  0  0  0  0  0  0  0
    6.5626   -1.6828  -53.1999 H   0  0  0  0  0  0  0  0  0  0  0  0
    6.8892    0.5868  -54.2037 H   0  0  0  0  0  0  0  0  0  0  0  0
   10.7403    1.7177  -59.3119 H   0  0  0  0  0  0  0  0  0  0  0  0
    9.1999    1.1151  -58.5642 H   0  0  0  0  0  0  0  0  0  0  0  0
    9.0574    1.2912  -61.0497 H   0  0  0  0  0  0  0  0  0  0  0  0
   10.5507    3.2315  -61.3931 H   0  0  0  0  0  0  0  0  0  0  0  0
    8.9091    3.5656  -62.0585 H   0  0  0  0  0  0  0  0  0  0  0  0
  1  2  1  0
  2  3  1  0
  3  4  1  0
  4  5  2  0
  4  6  1  0
  6  7  1  0
  7  8  1  0
  8  9  1  0
  9 10  1  0
 10 11  1  0
 11 12  1  1
 12 13  1  0
 12 14  1  0
 14 15  1  0
 15 16  2  0
 16 17  1  0
 17 18  2  0
 18 19  1  0
 19 20  1  0
 20 21  1  0
 19 22  2  0
 22 23  1  0
 23 24  2  0
 24 25  1  0
 11 26  1  0
 26 27  1  0
 27 28  1  0
 27 29  1  0
 29 30  2  0
 11  6  1  0
 25 14  2  0
 28  7  1  0
 29  9  1  0
 24 17  1  0
  1 31  1  0
  1 32  1  0
  1 33  1  0
  2 34  1  0
  2 35  1  0
  6 36  1  1
  7 37  1  6
  8 38  1  0
  8 39  1  0
  9 40  1  1
 10 41  1  0
 10 42  1  0
 13 43  1  0
 13 44  1  0
 13 45  1  0
 15 46  1  0
 16 47  1  0
 21 48  1  0
 21 49  1  0
 21 50  1  0
 22 51  1  0
 23 52  1  0
 26 53  1  0
 26 54  1  0
 27 55  1  6
 28 56  1  0
 28 57  1  0
M  END
>  <meeko>  (17) 
{"is_sidechain": false}

$$$$

     RDKit          3D

 41 45  0  0  0  0  0  0  0  0999 V2000
    7.0250    3.3870  -60.7480 O   0  0  0  0  0  0  0  0  0  0  0  0
    7.9360    3.5980  -59.9510 C   0  0  0  0  0  0  0  0  0  0  0  0
    7.8500    4.6540  -58.8670 C   0  0  2  0  0  0  0  0  0  0  0  0
    8.9930    5.6480  -59.0700 C   0  0  0  0  0  0  0  0  0  0  0  0
   10.3430    4.9070  -59.0200 C   0  0  2  0  0  0  0  0  0  0  0  0
   10.3480    3.8690  -60.1710 C   0  0  0  0  0  0  0  0  0  0  0  0
    9.2430    2.8300  -59.9580 C   0  0  1  0  0  0  0  0  0  0  0  0
    9.3770    2.1260  -58.5980 C   0  0  0  0  0  0  0  0  0  0  0  0
    9.4010    3.1590  -57.4430 C   0  0  2  0  0  0  0  0  0  0  0  0
    9.3210    2.5320  -56.1070 N   0  0  0  0  0  0  0  0  0  0  0  0
    8.5480    1.4390  -55.7680 C   0  0  0  0  0  0  0  0  0  0  0  0
    7.1940    1.3280  -56.0300 C   0  0  0  0  0  0  0  0  0  0  0  0
    6.4810    0.2040  -55.6150 C   0  0  0  0  0  0  0  0  0  0  0  0
    7.1890   -0.7730  -54.9150 C   0  0  0  0  0  0  0  0  0  0  0  0
    6.6340   -2.2670  -54.2740 S   0  0  0  0  0  0  0  0  0  0  0  0
    8.1820   -2.6590  -53.6620 C   0  0  0  0  0  0  0  0  0  0  0  0
    9.1050   -1.6740  -53.9310 C   0  0  0  0  0  0  0  0  0  0  0  0
    8.5440   -0.5820  -54.6570 C   0  0  0  0  0  0  0  0  0  0  0  0
    9.2270    0.5230  -55.0510 N   0  0  0  0  0  0  0  0  0  0  0  0
    8.0190    3.9260  -57.5360 C   0  0  0  0  0  0  0  0  0  0  0  0
   10.5040    4.2210  -57.6240 C   0  0  1  0  0  0  0  0  0  0  0  0
   12.0030    3.8700  -57.5900 C   0  0  0  0  0  0  0  0  0  0  0  0
   12.2540    2.6970  -57.1880 O   0  0  0  0  0  0  0  0  0  0  0  0
   12.8070    4.7890  -57.9020 O   0  0  0  0  0  0  0  0  0  0  0  0
    6.8952    5.1997  -58.8920 H   0  0  0  0  0  0  0  0  0  0  0  0
    8.8814    6.1383  -60.0484 H   0  0  0  0  0  0  0  0  0  0  0  0
    8.9635    6.4040  -58.2715 H   0  0  0  0  0  0  0  0  0  0  0  0
   11.1898    5.5971  -59.1494 H   0  0  0  0  0  0  0  0  0  0  0  0
   10.1792    4.3868  -61.1267 H   0  0  0  0  0  0  0  0  0  0  0  0
   11.3214    3.3568  -60.1852 H   0  0  0  0  0  0  0  0  0  0  0  0
    9.2993    2.0655  -60.7469 H   0  0  0  0  0  0  0  0  0  0  0  0
    8.5225    1.4477  -58.4574 H   0  0  0  0  0  0  0  0  0  0  0  0
   10.3208    1.5611  -58.5851 H   0  0  0  0  0  0  0  0  0  0  0  0
   10.2420    2.2250  -55.7910 H   0  0  0  0  0  0  0  0  0  0  0  0
    6.6755    2.1336  -56.5705 H   0  0  0  0  0  0  0  0  0  0  0  0
    5.4080    0.0926  -55.8300 H   0  0  0  0  0  0  0  0  0  0  0  0
    8.4125   -3.5872  -53.1185 H   0  0  0  0  0  0  0  0  0  0  0  0
   10.1591   -1.7235  -53.6203 H   0  0  0  0  0  0  0  0  0  0  0  0
    7.2020    3.1980  -57.4246 H   0  0  0  0  0  0  0  0  0  0  0  0
    7.9972    4.6794  -56.7348 H   0  0  0  0  0  0  0  0  0  0  0  0
   10.3156    4.8017  -56.7090 H   0  0  0  0  0  0  0  0  0  0  0  0
  1  2  2  0
  2  3  1  0
  3  4  1  0
  4  5  1  0
  5  6  1  0
  6  7  1  0
  7  8  1  0
  8  9  1  0
  9 10  1  1
 10 11  1  0
 11 12  1  0
 12 13  2  0
 13 14  1  0
 14 15  1  0
 15 16  1  0
 16 17  2  0
 17 18  1  0
 18 19  1  0
  9 20  1  0
  9 21  1  0
 21 22  1  0
 22 23  2  0
 22 24  1  0
  7  2  1  0
 19 11  2  0
 20  3  1  0
 21  5  1  0
 18 14  2  0
  3 25  1  1
  4 26  1  0
  4 27  1  0
  5 28  1  6
  6 29  1  0
  6 30  1  0
  7 31  1  6
  8 32  1  0
  8 33  1  0
 10 34  1  0
 12 35  1  0
 13 36  1  0
 16 37  1  0
 17 38  1  0
 20 39  1  0
 20 40  1  0
 21 41  1  1
M  CHG  1  24  -1
M  END
>  <meeko>  (18) 
{"is_sidechain": false}

$$$$

     RDKit          3D

 41 45  0  0  0  0  0  0  0  0999 V2000
    7.1020    3.6210  -61.1390 O   0  0  0  0  0  0  0  0  0  0  0  0
    7.9670    3.7720  -60.2790 C   0  0  0  0  0  0  0  0  0  0  0  0
    7.7700    4.6600  -59.0640 C   0  0  2  0  0  0  0  0  0  0  0  0
    8.8500    5.7480  -59.1180 C   0  0  0  0  0  0  0  0  0  0  0  0
   10.2550    5.1030  -59.1230 C   0  0  2  0  0  0  0  0  0  0  0  0
   10.3760    4.2160  -60.3800 C   0  0  0  0  0  0  0  0  0  0  0  0
    9.3290    3.1020  -60.3410 C   0  0  1  0  0  0  0  0  0  0  0  0
    9.4690    2.2620  -59.0700 C   0  0  0  0  0  0  0  0  0  0  0  0
    9.3610    3.1470  -57.7890 C   0  0  2  0  0  0  0  0  0  0  0  0
    9.4650    2.2210  -56.6700 N   0  0  0  0  0  0  0  0  0  0  0  0
    8.5720    1.5160  -56.0710 C   0  0  0  0  0  0  0  0  0  0  0  0
    7.1120    1.4140  -56.4400 C   0  0  0  0  0  0  0  0  0  0  0  0
    6.2990    0.6420  -55.6960 C   0  0  0  0  0  0  0  0  0  0  0  0
    6.8780   -0.0360  -54.5940 C   0  0  0  0  0  0  0  0  0  0  0  0
    6.0170   -1.0370  -53.5160 S   0  0  0  0  0  0  0  0  0  0  0  0
    7.4300   -1.3430  -52.5880 C   0  0  0  0  0  0  0  0  0  0  0  0
    8.5400   -0.6980  -53.0950 C   0  0  0  0  0  0  0  0  0  0  0  0
    8.2110    0.0460  -54.2540 C   0  0  0  0  0  0  0  0  0  0  0  0
    9.0610    0.7850  -54.9980 N   0  0  0  0  0  0  0  0  0  0  0  0
    7.9400    3.7790  -57.8210 C   0  0  0  0  0  0  0  0  0  0  0  0
   10.4210    4.2680  -57.8230 C   0  0  1  0  0  0  0  0  0  0  0  0
   11.9230    3.9590  -57.6740 C   0  0  0  0  0  0  0  0  0  0  0  0
   12.6760    4.9240  -58.0050 O   0  0  0  0  0  0  0  0  0  0  0  0
   12.2410    2.8030  -57.2920 O   0  0  0  0  0  0  0  0  0  0  0  0
    6.7774    5.1333  -59.0378 H   0  0  0  0  0  0  0  0  0  0  0  0
    8.7202    6.3442  -60.0333 H   0  0  0  0  0  0  0  0  0  0  0  0
    8.7540    6.3944  -58.2332 H   0  0  0  0  0  0  0  0  0  0  0  0
   11.0481    5.8647  -59.1507 H   0  0  0  0  0  0  0  0  0  0  0  0
   10.2175    4.8328  -61.2769 H   0  0  0  0  0  0  0  0  0  0  0  0
   11.3793    3.7658  -60.4073 H   0  0  0  0  0  0  0  0  0  0  0  0
    9.4544    2.4558  -61.2223 H   0  0  0  0  0  0  0  0  0  0  0  0
    8.6706    1.5055  -59.0510 H   0  0  0  0  0  0  0  0  0  0  0  0
   10.4594    1.7834  -59.0782 H   0  0  0  0  0  0  0  0  0  0  0  0
    6.7173    1.9642  -57.3069 H   0  0  0  0  0  0  0  0  0  0  0  0
    5.2296    0.5412  -55.9331 H   0  0  0  0  0  0  0  0  0  0  0  0
    7.4481   -1.9804  -51.6917 H   0  0  0  0  0  0  0  0  0  0  0  0
    9.5473   -0.7545  -52.6566 H   0  0  0  0  0  0  0  0  0  0  0  0
   10.0180    1.0010  -54.7540 H   0  0  0  0  0  0  0  0  0  0  0  0
    7.1877    2.9767  -57.8407 H   0  0  0  0  0  0  0  0  0  0  0  0
    7.8082    4.4017  -56.9239 H   0  0  0  0  0  0  0  0  0  0  0  0
   10.1828    4.7803  -56.8792 H   0  0  0  0  0  0  0  0  0  0  0  0
  1  2  2  0
  2  3  1  0
  3  4  1  0
  4  5  1  0
  5  6  1  0
  6  7  1  0
  7  8  1  0
  8  9  1  0
  9 10  1  1
 10 11  2  0
 11 12  1  0
 12 13  2  0
 13 14  1  0
 14 15  1  0
 15 16  1  0
 16 17  2  0
 17 18  1  0
 18 19  1  0
  9 20  1  0
  9 21  1  0
 21 22  1  0
 22 23  2  0
 22 24  1  0
  7  2  1  0
 19 11  1  0
 20  3  1  0
 21  5  1  0
 18 14  2  0
  3 25  1  6
  4 26  1  0
  4 27  1  0
  5 28  1  6
  6 29  1  0
  6 30  1  0
  7 31  1  6
  8 32  1  0
  8 33  1  0
 12 34  1  0
 13 35  1  0
 16 36  1  0
 17 37  1  0
 19 38  1  0
 20 39  1  0
 20 40  1  0
 21 41  1  1
M  CHG  1  24  -1
M  END
>  <meeko>  (19) 
{"is_sidechain": false}

$$$$

     RDKit          3D

 41 45  0  0  0  0  0  0  0  0999 V2000
   11.1500    5.1650  -60.0080 O   0  0  0  0  0  0  0  0  0  0  0  0
   10.5990    4.5660  -59.0870 C   0  0  0  0  0  0  0  0  0  0  0  0
    9.8740    5.2850  -57.9600 C   0  0  2  0  0  0  0  0  0  0  0  0
   10.4790    4.8180  -56.6360 C   0  0  0  0  0  0  0  0  0  0  0  0
   10.3420    3.2880  -56.5070 C   0  0  2  0  0  0  0  0  0  0  0  0
   11.1290    2.6350  -57.6630 C   0  0  0  0  0  0  0  0  0  0  0  0
   10.5310    3.0480  -59.0090 C   0  0  1  0  0  0  0  0  0  0  0  0
    9.0450    2.6700  -59.1070 C   0  0  0  0  0  0  0  0  0  0  0  0
    8.2480    3.3320  -57.9570 C   0  0  2  0  0  0  0  0  0  0  0  0
    6.8340    2.9800  -57.9540 N   0  0  0  0  0  0  0  0  0  0  0  0
    6.0580    2.6890  -58.9350 C   0  0  0  0  0  0  0  0  0  0  0  0
    4.6530    2.3420  -58.4930 C   0  0  0  0  0  0  0  0  0  0  0  0
    3.7250    2.0300  -59.4110 C   0  0  0  0  0  0  0  0  0  0  0  0
    4.1370    2.0460  -60.7670 C   0  0  0  0  0  0  0  0  0  0  0  0
    3.1200    1.6860  -62.0860 S   0  0  0  0  0  0  0  0  0  0  0  0
    4.3960    1.9380  -63.2090 C   0  0  0  0  0  0  0  0  0  0  0  0
    5.5760    2.2930  -62.5870 C   0  0  0  0  0  0  0  0  0  0  0  0
    5.4170    2.3540  -61.1820 C   0  0  0  0  0  0  0  0  0  0  0  0
    6.3790    2.6730  -60.2840 N   0  0  0  0  0  0  0  0  0  0  0  0
    8.3990    4.8790  -58.0540 C   0  0  0  0  0  0  0  0  0  0  0  0
    8.8380    2.9090  -56.5810 C   0  0  1  0  0  0  0  0  0  0  0  0
    8.7620    1.4470  -56.0850 C   0  0  0  0  0  0  0  0  0  0  0  0
    9.8370    0.7920  -56.0500 O   0  0  0  0  0  0  0  0  0  0  0  0
    7.6050    1.0900  -55.7040 O   0  0  0  0  0  0  0  0  0  0  0  0
    9.9682    6.3789  -58.0268 H   0  0  0  0  0  0  0  0  0  0  0  0
   11.5437    5.0928  -56.6045 H   0  0  0  0  0  0  0  0  0  0  0  0
    9.9455    5.3007  -55.8039 H   0  0  0  0  0  0  0  0  0  0  0  0
   10.7452    2.9332  -55.5470 H   0  0  0  0  0  0  0  0  0  0  0  0
   12.1789    2.9599  -57.6169 H   0  0  0  0  0  0  0  0  0  0  0  0
   11.0697    1.5410  -57.5645 H   0  0  0  0  0  0  0  0  0  0  0  0
   11.0886    2.5427  -59.8114 H   0  0  0  0  0  0  0  0  0  0  0  0
    8.6452    3.0152  -60.0719 H   0  0  0  0  0  0  0  0  0  0  0  0
    8.9468    1.5772  -59.0291 H   0  0  0  0  0  0  0  0  0  0  0  0
    4.3934    2.3455  -57.4241 H   0  0  0  0  0  0  0  0  0  0  0  0
    2.6942    1.7742  -59.1247 H   0  0  0  0  0  0  0  0  0  0  0  0
    4.2852    1.8290  -64.2980 H   0  0  0  0  0  0  0  0  0  0  0  0
    6.5182    2.5015  -63.1151 H   0  0  0  0  0  0  0  0  0  0  0  0
    7.3220    2.8950  -60.5520 H   0  0  0  0  0  0  0  0  0  0  0  0
    7.9903    5.2223  -59.0158 H   0  0  0  0  0  0  0  0  0  0  0  0
    7.8505    5.3414  -57.2201 H   0  0  0  0  0  0  0  0  0  0  0  0
    8.1485    3.4577  -55.9225 H   0  0  0  0  0  0  0  0  0  0  0  0
  1  2  2  0
  2  3  1  0
  3  4  1  0
  4  5  1  0
  5  6  1  0
  6  7  1  0
  7  8  1  0
  8  9  1  0
  9 10  1  1
 10 11  2  0
 11 12  1  0
 12 13  2  0
 13 14  1  0
 14 15  1  0
 15 16  1  0
 16 17  2  0
 17 18  1  0
 18 19  1  0
  9 20  1  0
  9 21  1  0
 21 22  1  0
 22 23  2  0
 22 24  1  0
  7  2  1  0
 19 11  1  0
 20  3  1  0
 21  5  1  0
 18 14  2  0
  3 25  1  6
  4 26  1  0
  4 27  1  0
  5 28  1  1
  6 29  1  0
  6 30  1  0
  7 31  1  6
  8 32  1  0
  8 33  1  0
 12 34  1  0
 13 35  1  0
 16 36  1  0
 17 37  1  0
 19 38  1  0
 20 39  1  0
 20 40  1  0
 21 41  1  1
M  CHG  1  24  -1
M  END
>  <meeko>  (20) 
{"is_sidechain": false}

$$$$

     RDKit          3D

 44 48  0  0  0  0  0  0  0  0999 V2000
    7.0200    3.3850  -60.7760 O   0  0  0  0  0  0  0  0  0  0  0  0
    7.9260    3.5920  -59.9750 C   0  0  0  0  0  0  0  0  0  0  0  0
    7.8300    4.6360  -58.8790 C   0  0  2  0  0  0  0  0  0  0  0  0
    8.9640    5.6420  -59.0680 C   0  0  0  0  0  0  0  0  0  0  0  0
   10.3210    4.9110  -59.0250 C   0  0  2  0  0  0  0  0  0  0  0  0
   10.3360    3.8860  -60.1870 C   0  0  0  0  0  0  0  0  0  0  0  0
    9.2400    2.8350  -59.9880 C   0  0  1  0  0  0  0  0  0  0  0  0
    9.3770    2.1180  -58.6350 C   0  0  0  0  0  0  0  0  0  0  0  0
    9.3900    3.1370  -57.4690 C   0  0  2  0  0  0  0  0  0  0  0  0
    9.3120    2.4970  -56.1440 N   0  0  0  0  0  0  0  0  0  0  0  0
    8.5520    1.4090  -55.7830 C   0  0  0  0  0  0  0  0  0  0  0  0
    7.1930    1.2790  -55.9800 C   0  0  0  0  0  0  0  0  0  0  0  0
    6.5400    0.1330  -55.5300 C   0  0  0  0  0  0  0  0  0  0  0  0
    7.2610   -0.8550  -54.8610 C   0  0  0  0  0  0  0  0  0  0  0  0
    6.6530   -2.0350  -54.3930 C   0  0  0  0  0  0  0  0  0  0  0  0
    7.4080   -2.9960  -53.7240 C   0  0  0  0  0  0  0  0  0  0  0  0
    8.7660   -2.7810  -53.5220 C   0  0  0  0  0  0  0  0  0  0  0  0
    9.3620   -1.6060  -53.9940 C   0  0  0  0  0  0  0  0  0  0  0  0
    8.6350   -0.6330  -54.6650 C   0  0  0  0  0  0  0  0  0  0  0  0
    9.2580    0.4790  -55.0990 N   0  0  0  0  0  0  0  0  0  0  0  0
    8.0030    3.8950  -57.5570 C   0  0  0  0  0  0  0  0  0  0  0  0
   10.4850    4.2100  -57.6360 C   0  0  1  0  0  0  0  0  0  0  0  0
   11.9900    3.8780  -57.6040 C   0  0  0  0  0  0  0  0  0  0  0  0
   12.7820    4.8130  -57.9000 O   0  0  0  0  0  0  0  0  0  0  0  0
   12.2580    2.7050  -57.2130 O   0  0  0  0  0  0  0  0  0  0  0  0
    6.8708    5.1741  -58.9002 H   0  0  0  0  0  0  0  0  0  0  0  0
    8.8496    6.1433  -60.0404 H   0  0  0  0  0  0  0  0  0  0  0  0
    8.9269    6.3882  -58.2606 H   0  0  0  0  0  0  0  0  0  0  0  0
   11.1623    5.6093  -59.1459 H   0  0  0  0  0  0  0  0  0  0  0  0
   10.1642    4.4131  -61.1371 H   0  0  0  0  0  0  0  0  0  0  0  0
   11.3136    3.3821  -60.2049 H   0  0  0  0  0  0  0  0  0  0  0  0
    9.3048    2.0796  -60.7850 H   0  0  0  0  0  0  0  0  0  0  0  0
    8.5279    1.4311  -58.5037 H   0  0  0  0  0  0  0  0  0  0  0  0
   10.3259    1.5616  -58.6264 H   0  0  0  0  0  0  0  0  0  0  0  0
   10.2300    2.2370  -55.7860 H   0  0  0  0  0  0  0  0  0  0  0  0
    6.6286    2.0743  -56.4888 H   0  0  0  0  0  0  0  0  0  0  0  0
    5.4607    0.0086  -55.7019 H   0  0  0  0  0  0  0  0  0  0  0  0
    5.5776   -2.1991  -54.5561 H   0  0  0  0  0  0  0  0  0  0  0  0
    6.9327   -3.9182  -53.3584 H   0  0  0  0  0  0  0  0  0  0  0  0
    9.3707   -3.5321  -52.9927 H   0  0  0  0  0  0  0  0  0  0  0  0
   10.4381   -1.4492  -53.8282 H   0  0  0  0  0  0  0  0  0  0  0  0
    7.1912    3.1598  -57.4549 H   0  0  0  0  0  0  0  0  0  0  0  0
    7.9752    4.6399  -56.7481 H   0  0  0  0  0  0  0  0  0  0  0  0
   10.2884    4.7738  -56.7122 H   0  0  0  0  0  0  0  0  0  0  0  0
  1  2  2  0
  2  3  1  0
  3  4  1  0
  4  5  1  0
  5  6  1  0
  6  7  1  0
  7  8  1  0
  8  9  1  0
  9 10  1  1
 10 11  1  0
 11 12  1  0
 12 13  2  0
 13 14  1  0
 14 15  2  0
 15 16  1  0
 16 17  2  0
 17 18  1  0
 18 19  2  0
 19 20  1  0
  9 21  1  0
  9 22  1  0
 22 23  1  0
 23 24  2  0
 23 25  1  0
  7  2  1  0
 20 11  2  0
 21  3  1  0
 22  5  1  0
 19 14  1  0
  3 26  1  1
  4 27  1  0
  4 28  1  0
  5 29  1  6
  6 30  1  0
  6 31  1  0
  7 32  1  6
  8 33  1  0
  8 34  1  0
 10 35  1  0
 12 36  1  0
 13 37  1  0
 15 38  1  0
 16 39  1  0
 17 40  1  0
 18 41  1  0
 21 42  1  0
 21 43  1  0
 22 44  1  1
M  CHG  1  25  -1
M  END
>  <meeko>  (21) 
{"is_sidechain": false}

$$$$

     RDKit          3D

 44 48  0  0  0  0  0  0  0  0999 V2000
    7.0270    3.5040  -61.2920 O   0  0  0  0  0  0  0  0  0  0  0  0
    7.8620    3.6910  -60.4100 C   0  0  0  0  0  0  0  0  0  0  0  0
    7.5720    4.5200  -59.1700 C   0  0  2  0  0  0  0  0  0  0  0  0
    8.6030    5.6480  -59.1110 C   0  0  0  0  0  0  0  0  0  0  0  0
   10.0260    5.0560  -59.0690 C   0  0  2  0  0  0  0  0  0  0  0  0
   10.2520    4.2490  -60.3660 C   0  0  0  0  0  0  0  0  0  0  0  0
    9.2580    3.0890  -60.4470 C   0  0  1  0  0  0  0  0  0  0  0  0
    9.3760    2.1620  -59.2300 C   0  0  0  0  0  0  0  0  0  0  0  0
    9.1390    2.9580  -57.9260 C   0  0  2  0  0  0  0  0  0  0  0  0
    9.2950    2.1600  -56.7210 N   0  0  0  0  0  0  0  0  0  0  0  0
    8.4710    1.4430  -56.0500 C   0  0  0  0  0  0  0  0  0  0  0  0
    7.0080    1.2700  -56.3100 C   0  0  0  0  0  0  0  0  0  0  0  0
    6.3160    0.3910  -55.5680 C   0  0  0  0  0  0  0  0  0  0  0  0
    6.9680   -0.4040  -54.5190 C   0  0  0  0  0  0  0  0  0  0  0  0
    6.2510   -1.3450  -53.7730 C   0  0  0  0  0  0  0  0  0  0  0  0
    6.8930   -2.0820  -52.7760 C   0  0  0  0  0  0  0  0  0  0  0  0
    8.2480   -1.8760  -52.5180 C   0  0  0  0  0  0  0  0  0  0  0  0
    8.9690   -0.9380  -53.2590 C   0  0  0  0  0  0  0  0  0  0  0  0
    8.3410   -0.2100  -54.2740 C   0  0  0  0  0  0  0  0  0  0  0  0
    9.0340    0.7760  -54.9870 N   0  0  0  0  0  0  0  0  0  0  0  0
    7.7180    3.5890  -57.9600 C   0  0  0  0  0  0  0  0  0  0  0  0
   10.1500    4.1380  -57.8240 C   0  0  1  0  0  0  0  0  0  0  0  0
   11.6650    3.8870  -57.6410 C   0  0  0  0  0  0  0  0  0  0  0  0
   12.3930    4.8850  -57.9260 O   0  0  0  0  0  0  0  0  0  0  0  0
   12.0210    2.7310  -57.2880 O   0  0  0  0  0  0  0  0  0  0  0  0
    6.5623    4.9564  -59.1821 H   0  0  0  0  0  0  0  0  0  0  0  0
    8.4988    6.2845  -60.0021 H   0  0  0  0  0  0  0  0  0  0  0  0
    8.4330    6.2473  -58.2044 H   0  0  0  0  0  0  0  0  0  0  0  0
   10.7838    5.8502  -58.9984 H   0  0  0  0  0  0  0  0  0  0  0  0
   10.1109    4.9096  -61.2341 H   0  0  0  0  0  0  0  0  0  0  0  0
   11.2752    3.8451  -60.3635 H   0  0  0  0  0  0  0  0  0  0  0  0
    9.4589    2.5113  -61.3613 H   0  0  0  0  0  0  0  0  0  0  0  0
    8.6251    1.3620  -59.3087 H   0  0  0  0  0  0  0  0  0  0  0  0
   10.3866    1.7283  -59.2065 H   0  0  0  0  0  0  0  0  0  0  0  0
    6.5073    1.8537  -57.0965 H   0  0  0  0  0  0  0  0  0  0  0  0
    5.2386    0.2635  -55.7493 H   0  0  0  0  0  0  0  0  0  0  0  0
    5.1809   -1.5045  -53.9718 H   0  0  0  0  0  0  0  0  0  0  0  0
    6.3296   -2.8258  -52.1935 H   0  0  0  0  0  0  0  0  0  0  0  0
    8.7500   -2.4543  -51.7284 H   0  0  0  0  0  0  0  0  0  0  0  0
   10.0347   -0.7711  -53.0436 H   0  0  0  0  0  0  0  0  0  0  0  0
   10.0450    0.7710  -54.9960 H   0  0  0  0  0  0  0  0  0  0  0  0
    6.9676    2.7875  -58.0274 H   0  0  0  0  0  0  0  0  0  0  0  0
    7.5667    4.1741  -57.0409 H   0  0  0  0  0  0  0  0  0  0  0  0
    9.8280    4.5602  -56.8607 H   0  0  0  0  0  0  0  0  0  0  0  0
  1  2  2  0
  2  3  1  0
  3  4  1  0
  4  5  1  0
  5  6  1  0
  6  7  1  0
  7  8  1  0
  8  9  1  0
  9 10  1  1
 10 11  2  0
 11 12  1  0
 12 13  2  0
 13 14  1  0
 14 15  2  0
 15 16  1  0
 16 17  2  0
 17 18  1  0
 18 19  2  0
 19 20  1  0
  9 21  1  0
  9 22  1  0
 22 23  1  0
 23 24  2  0
 23 25  1  0
  7  2  1  0
 20 11  1  0
 21  3  1  0
 22  5  1  0
 19 14  1  0
  3 26  1  6
  4 27  1  0
  4 28  1  0
  5 29  1  1
  6 30  1  0
  6 31  1  0
  7 32  1  6
  8 33  1  0
  8 34  1  0
 12 35  1  0
 13 36  1  0
 15 37  1  0
 16 38  1  0
 17 39  1  0
 18 40  1  0
 20 41  1  0
 21 42  1  0
 21 43  1  0
 22 44  1  1
M  CHG  1  25  -1
M  END
>  <meeko>  (22) 
{"is_sidechain": false}

$$$$

     RDKit          3D

 44 48  0  0  0  0  0  0  0  0999 V2000
    8.1720   -5.8800  -50.4180 O   0  0  0  0  0  0  0  0  0  0  0  0
    8.0080   -4.7320  -50.8250 C   0  0  0  0  0  0  0  0  0  0  0  0
    8.7680   -3.5440  -50.2560 C   0  0  2  0  0  0  0  0  0  0  0  0
    7.7460   -2.5100  -49.7830 C   0  0  0  0  0  0  0  0  0  0  0  0
    6.8430   -2.0890  -50.9600 C   0  0  2  0  0  0  0  0  0  0  0  0
    6.0850   -3.3390  -51.4550 C   0  0  0  0  0  0  0  0  0  0  0  0
    7.0730   -4.3860  -51.9730 C   0  0  1  0  0  0  0  0  0  0  0  0
    7.9530   -3.8250  -53.1000 C   0  0  0  0  0  0  0  0  0  0  0  0
    8.7250   -2.5790  -52.6060 C   0  0  2  0  0  0  0  0  0  0  0  0
    9.5500   -1.9610  -53.6380 N   0  0  0  0  0  0  0  0  0  0  0  0
   10.2050   -2.5120  -54.5940 C   0  0  0  0  0  0  0  0  0  0  0  0
   10.9160   -1.5350  -55.4810 C   0  0  0  0  0  0  0  0  0  0  0  0
   11.6390   -1.9820  -56.5170 C   0  0  0  0  0  0  0  0  0  0  0  0
   11.7430   -3.4200  -56.7960 C   0  0  0  0  0  0  0  0  0  0  0  0
   12.4960   -3.8900  -57.8770 C   0  0  0  0  0  0  0  0  0  0  0  0
   12.5820   -5.2610  -58.1260 C   0  0  0  0  0  0  0  0  0  0  0  0
   11.9150   -6.1650  -57.2990 C   0  0  0  0  0  0  0  0  0  0  0  0
   11.1620   -5.7020  -56.2190 C   0  0  0  0  0  0  0  0  0  0  0  0
   11.0660   -4.3310  -55.9610 C   0  0  0  0  0  0  0  0  0  0  0  0
   10.3210   -3.8540  -54.8720 N   0  0  0  0  0  0  0  0  0  0  0  0
    9.6210   -2.9800  -51.3960 C   0  0  0  0  0  0  0  0  0  0  0  0
    7.7310   -1.4990  -52.0890 C   0  0  1  0  0  0  0  0  0  0  0  0
    6.7490   -0.7790  -53.0410 C   0  0  0  0  0  0  0  0  0  0  0  0
    6.3110   -1.4370  -54.0240 O   0  0  0  0  0  0  0  0  0  0  0  0
    6.4410    0.3960  -52.6780 O   0  0  0  0  0  0  0  0  0  0  0  0
    9.4097   -3.8206  -49.4065 H   0  0  0  0  0  0  0  0  0  0  0  0
    7.1265   -2.9474  -48.9862 H   0  0  0  0  0  0  0  0  0  0  0  0
    8.2760   -1.6261  -49.3987 H   0  0  0  0  0  0  0  0  0  0  0  0
    6.1169   -1.3230  -50.6500 H   0  0  0  0  0  0  0  0  0  0  0  0
    5.5062   -3.7661  -50.6228 H   0  0  0  0  0  0  0  0  0  0  0  0
    5.4090   -3.0482  -52.2726 H   0  0  0  0  0  0  0  0  0  0  0  0
    6.5042   -5.2485  -52.3506 H   0  0  0  0  0  0  0  0  0  0  0  0
    8.6714   -4.5952  -53.4174 H   0  0  0  0  0  0  0  0  0  0  0  0
    7.3118   -3.5374  -53.9463 H   0  0  0  0  0  0  0  0  0  0  0  0
   10.8446   -0.4554  -55.2823 H   0  0  0  0  0  0  0  0  0  0  0  0
   12.1607   -1.2633  -57.1661 H   0  0  0  0  0  0  0  0  0  0  0  0
   13.0209   -3.1787  -58.5316 H   0  0  0  0  0  0  0  0  0  0  0  0
   13.1764   -5.6289  -58.9753 H   0  0  0  0  0  0  0  0  0  0  0  0
   11.9827   -7.2446  -57.4985 H   0  0  0  0  0  0  0  0  0  0  0  0
   10.6414   -6.4192  -55.5674 H   0  0  0  0  0  0  0  0  0  0  0  0
    9.8160   -4.5200  -54.3170 H   0  0  0  0  0  0  0  0  0  0  0  0
   10.3434   -3.7441  -51.7189 H   0  0  0  0  0  0  0  0  0  0  0  0
   10.1489   -2.0853  -51.0342 H   0  0  0  0  0  0  0  0  0  0  0  0
    8.4570   -0.7223  -51.8066 H   0  0  0  0  0  0  0  0  0  0  0  0
  1  2  2  0
  2  3  1  0
  3  4  1  0
  4  5  1  0
  5  6  1  0
  6  7  1  0
  7  8  1  0
  8  9  1  0
  9 10  1  6
 10 11  2  0
 11 12  1  0
 12 13  2  0
 13 14  1  0
 14 15  2  0
 15 16  1  0
 16 17  2  0
 17 18  1  0
 18 19  2  0
 19 20  1  0
  9 21  1  0
  9 22  1  0
 22 23  1  0
 23 24  2  0
 23 25  1  0
  7  2  1  0
 20 11  1  0
 21  3  1  0
 22  5  1  0
 19 14  1  0
  3 26  1  1
  4 27  1  0
  4 28  1  0
  5 29  1  1
  6 30  1  0
  6 31  1  0
  7 32  1  6
  8 33  1  0
  8 34  1  0
 12 35  1  0
 13 36  1  0
 15 37  1  0
 16 38  1  0
 17 39  1  0
 18 40  1  0
 20 41  1  0
 21 42  1  0
 21 43  1  0
 22 44  1  1
M  CHG  1  25  -1
M  END
>  <meeko>  (23) 
{"is_sidechain": false}

$$$$

     RDKit          3D

 48 52  0  0  0  0  0  0  0  0999 V2000
   13.4630    4.9940  -59.3900 C   0  0  0  0  0  0  0  0  0  0  0  0
   12.3550    5.3620  -58.5680 O   0  0  0  0  0  0  0  0  0  0  0  0
   11.7060    4.2990  -58.0090 C   0  0  0  0  0  0  0  0  0  0  0  0
   12.2530    3.2930  -57.5810 O   0  0  0  0  0  0  0  0  0  0  0  0
   10.2050    4.5440  -58.0320 C   0  0  1  0  0  0  0  0  0  0  0  0
    9.7830    5.1690  -59.3840 C   0  0  2  0  0  0  0  0  0  0  0  0
    8.3060    5.6070  -59.2930 C   0  0  0  0  0  0  0  0  0  0  0  0
    7.4130    4.3980  -58.9880 C   0  0  2  0  0  0  0  0  0  0  0  0
    7.8460    3.7270  -57.6770 C   0  0  0  0  0  0  0  0  0  0  0  0
    9.3390    3.2800  -57.7400 C   0  0  2  0  0  0  0  0  0  0  0  0
    9.7350    2.5450  -56.5140 N   0  0  0  0  0  0  0  0  0  0  0  0
    8.8540    1.5800  -56.0260 C   0  0  0  0  0  0  0  0  0  0  0  0
    7.4910    1.6470  -56.2650 C   0  0  0  0  0  0  0  0  0  0  0  0
    6.6640    0.6570  -55.7450 C   0  0  0  0  0  0  0  0  0  0  0  0
    7.2240   -0.3850  -55.0010 C   0  0  0  0  0  0  0  0  0  0  0  0
    6.4370   -1.4100  -54.4520 C   0  0  0  0  0  0  0  0  0  0  0  0
    7.0430   -2.4260  -53.7250 C   0  0  0  0  0  0  0  0  0  0  0  0
    6.2920   -3.4020  -53.2010 F   0  0  0  0  0  0  0  0  0  0  0  0
    8.4160   -2.4420  -53.5380 C   0  0  0  0  0  0  0  0  0  0  0  0
    9.1940   -1.4190  -54.0880 C   0  0  0  0  0  0  0  0  0  0  0  0
    8.6230   -0.3840  -54.8200 C   0  0  0  0  0  0  0  0  0  0  0  0
    9.4130    0.5780  -55.3240 N   0  0  0  0  0  0  0  0  0  0  0  0
    9.4350    2.2620  -58.9210 C   0  0  0  0  0  0  0  0  0  0  0  0
    9.0480    2.9130  -60.2500 C   0  0  2  0  0  0  0  0  0  0  0  0
    9.9200    4.1410  -60.5280 C   0  0  0  0  0  0  0  0  0  0  0  0
    7.6160    3.3940  -60.1080 C   0  0  0  0  0  0  0  0  0  0  0  0
    6.7050    3.0140  -60.8360 O   0  0  0  0  0  0  0  0  0  0  0  0
   14.3141    4.7113  -58.7531 H   0  0  0  0  0  0  0  0  0  0  0  0
   13.1811    4.1412  -60.0251 H   0  0  0  0  0  0  0  0  0  0  0  0
   13.7473    5.8460  -60.0251 H   0  0  0  0  0  0  0  0  0  0  0  0
   10.0092    5.2432  -57.2057 H   0  0  0  0  0  0  0  0  0  0  0  0
   10.4355    6.0294  -59.5936 H   0  0  0  0  0  0  0  0  0  0  0  0
    8.1965    6.3513  -58.4905 H   0  0  0  0  0  0  0  0  0  0  0  0
    8.0014    6.0446  -60.2551 H   0  0  0  0  0  0  0  0  0  0  0  0
    6.3659    4.7236  -58.9012 H   0  0  0  0  0  0  0  0  0  0  0  0
    7.7195    4.4407  -56.8495 H   0  0  0  0  0  0  0  0  0  0  0  0
    7.2213    2.8356  -57.5184 H   0  0  0  0  0  0  0  0  0  0  0  0
    9.7320    3.2340  -55.7490 H   0  0  0  0  0  0  0  0  0  0  0  0
    7.0687    2.4718  -56.8578 H   0  0  0  0  0  0  0  0  0  0  0  0
    5.5783    0.6939  -55.9179 H   0  0  0  0  0  0  0  0  0  0  0  0
    5.3466   -1.4082  -54.5970 H   0  0  0  0  0  0  0  0  0  0  0  0
    8.8889   -3.2515  -52.9626 H   0  0  0  0  0  0  0  0  0  0  0  0
   10.2836   -1.4332  -53.9381 H   0  0  0  0  0  0  0  0  0  0  0  0
   10.4683    1.8913  -58.9912 H   0  0  0  0  0  0  0  0  0  0  0  0
    8.7370    1.4351  -58.7237 H   0  0  0  0  0  0  0  0  0  0  0  0
    9.1751    2.1876  -61.0671 H   0  0  0  0  0  0  0  0  0  0  0  0
   10.9713    3.8279  -60.6099 H   0  0  0  0  0  0  0  0  0  0  0  0
    9.5900    4.6074  -61.4680 H   0  0  0  0  0  0  0  0  0  0  0  0
  1  2  1  0
  2  3  1  0
  3  4  2  0
  3  5  1  0
  5  6  1  0
  6  7  1  0
  7  8  1  0
  8  9  1  0
  9 10  1  0
 10 11  1  1
 11 12  1  0
 12 13  1  0
 13 14  2  0
 14 15  1  0
 15 16  2  0
 16 17  1  0
 17 18  1  0
 17 19  2  0
 19 20  1  0
 20 21  2  0
 21 22  1  0
 10 23  1  0
 23 24  1  0
 24 25  1  0
 24 26  1  0
 26 27  2  0
 10  5  1  0
 22 12  2  0
 25  6  1  0
 26  8  1  0
 21 15  1  0
  1 28  1  0
  1 29  1  0
  1 30  1  0
  5 31  1  1
  6 32  1  6
  7 33  1  0
  7 34  1  0
  8 35  1  1
  9 36  1  0
  9 37  1  0
 11 38  1  0
 13 39  1  0
 14 40  1  0
 16 41  1  0
 19 42  1  0
 20 43  1  0
 23 44  1  0
 23 45  1  0
 24 46  1  6
 25 47  1  0
 25 48  1  0
M  END
>  <meeko>  (24) 
{"is_sidechain": false}

$$$$

     RDKit          3D

 48 52  0  0  0  0  0  0  0  0999 V2000
   13.3780    4.5190  -58.7550 C   0  0  0  0  0  0  0  0  0  0  0  0
   12.2490    4.8730  -57.9560 O   0  0  0  0  0  0  0  0  0  0  0  0
   11.4490    3.8170  -57.6260 C   0  0  0  0  0  0  0  0  0  0  0  0
   11.8630    2.7330  -57.2370 O   0  0  0  0  0  0  0  0  0  0  0  0
    9.9840    4.1730  -57.8520 C   0  0  1  0  0  0  0  0  0  0  0  0
    9.8090    5.1470  -59.0410 C   0  0  2  0  0  0  0  0  0  0  0  0
    8.3500    5.6520  -59.0370 C   0  0  0  0  0  0  0  0  0  0  0  0
    7.3850    4.4650  -59.1560 C   0  0  2  0  0  0  0  0  0  0  0  0
    7.6000    3.4680  -58.0070 C   0  0  0  0  0  0  0  0  0  0  0  0
    9.0560    2.9280  -58.0200 C   0  0  2  0  0  0  0  0  0  0  0  0
    9.3080    2.0640  -56.8770 N   0  0  0  0  0  0  0  0  0  0  0  0
    8.5070    1.3530  -56.1660 C   0  0  0  0  0  0  0  0  0  0  0  0
    7.0240    1.2290  -56.3370 C   0  0  0  0  0  0  0  0  0  0  0  0
    6.3380    0.4170  -55.5180 C   0  0  0  0  0  0  0  0  0  0  0  0
    7.0090   -0.3490  -54.4590 C   0  0  0  0  0  0  0  0  0  0  0  0
    6.2890   -1.1960  -53.6140 C   0  0  0  0  0  0  0  0  0  0  0  0
    6.9610   -1.9000  -52.6220 C   0  0  0  0  0  0  0  0  0  0  0  0
    6.2730   -2.7130  -51.8100 F   0  0  0  0  0  0  0  0  0  0  0  0
    8.3370   -1.7750  -52.4540 C   0  0  0  0  0  0  0  0  0  0  0  0
    9.0610   -0.9300  -53.2960 C   0  0  0  0  0  0  0  0  0  0  0  0
    8.4060   -0.2160  -54.3050 C   0  0  0  0  0  0  0  0  0  0  0  0
    9.1090    0.6450  -55.1520 N   0  0  0  0  0  0  0  0  0  0  0  0
    9.3560    2.2420  -59.3750 C   0  0  0  0  0  0  0  0  0  0  0  0
    9.1450    3.2260  -60.5330 C   0  0  2  0  0  0  0  0  0  0  0  0
   10.0580    4.4460  -60.3930 C   0  0  0  0  0  0  0  0  0  0  0  0
    7.7110    3.7250  -60.4440 C   0  0  0  0  0  0  0  0  0  0  0  0
    6.8770    3.5200  -61.3210 O   0  0  0  0  0  0  0  0  0  0  0  0
   14.2218    4.2544  -58.1007 H   0  0  0  0  0  0  0  0  0  0  0  0
   13.1223    3.6579  -59.3899 H   0  0  0  0  0  0  0  0  0  0  0  0
   13.6598    5.3719  -59.3899 H   0  0  0  0  0  0  0  0  0  0  0  0
    9.6628    4.6806  -56.9305 H   0  0  0  0  0  0  0  0  0  0  0  0
   10.5346    5.9659  -58.9275 H   0  0  0  0  0  0  0  0  0  0  0  0
    8.1528    6.1893  -58.0976 H   0  0  0  0  0  0  0  0  0  0  0  0
    8.1989    6.3280  -59.8915 H   0  0  0  0  0  0  0  0  0  0  0  0
    6.3529    4.8449  -59.1334 H   0  0  0  0  0  0  0  0  0  0  0  0
    7.4101    3.9737  -57.0488 H   0  0  0  0  0  0  0  0  0  0  0  0
    6.9065    2.6237  -58.1345 H   0  0  0  0  0  0  0  0  0  0  0  0
    6.5043    1.7960  -57.1234 H   0  0  0  0  0  0  0  0  0  0  0  0
    5.2491    0.3228  -55.6423 H   0  0  0  0  0  0  0  0  0  0  0  0
    5.2008   -1.3049  -53.7324 H   0  0  0  0  0  0  0  0  0  0  0  0
    8.8509   -2.3392  -51.6618 H   0  0  0  0  0  0  0  0  0  0  0  0
   10.1483   -0.8252  -53.1662 H   0  0  0  0  0  0  0  0  0  0  0  0
   10.1120    0.7160  -55.0810 H   0  0  0  0  0  0  0  0  0  0  0  0
   10.3994    1.8937  -59.3814 H   0  0  0  0  0  0  0  0  0  0  0  0
    8.6715    1.3904  -59.5022 H   0  0  0  0  0  0  0  0  0  0  0  0
    9.3642    2.7176  -61.4835 H   0  0  0  0  0  0  0  0  0  0  0  0
   11.1078    4.1219  -60.4461 H   0  0  0  0  0  0  0  0  0  0  0  0
    9.8406    5.1519  -61.2082 H   0  0  0  0  0  0  0  0  0  0  0  0
  1  2  1  0
  2  3  1  0
  3  4  2  0
  3  5  1  0
  5  6  1  0
  6  7  1  0
  7  8  1  0
  8  9  1  0
  9 10  1  0
 10 11  1  1
 11 12  2  0
 12 13  1  0
 13 14  2  0
 14 15  1  0
 15 16  2  0
 16 17  1  0
 17 18  1  0
 17 19  2  0
 19 20  1  0
 20 21  2  0
 21 22  1  0
 10 23  1  0
 23 24  1  0
 24 25  1  0
 24 26  1  0
 26 27  2  0
 10  5  1  0
 22 12  1  0
 25  6  1  0
 26  8  1  0
 21 15  1  0
  1 28  1  0
  1 29  1  0
  1 30  1  0
  5 31  1  1
  6 32  1  1
  7 33  1  0
  7 34  1  0
  8 35  1  6
  9 36  1  0
  9 37  1  0
 13 38  1  0
 14 39  1  0
 16 40  1  0
 19 41  1  0
 20 42  1  0
 22 43  1  0
 23 44  1  0
 23 45  1  0
 24 46  1  6
 25 47  1  0
 25 48  1  0
M  END
>  <meeko>  (25) 
{"is_sidechain": false}

$$$$

     RDKit          3D

 48 52  0  0  0  0  0  0  0  0999 V2000
    6.4180    2.3080  -60.5410 C   0  0  0  0  0  0  0  0  0  0  0  0
    7.1820    3.4360  -60.9660 O   0  0  0  0  0  0  0  0  0  0  0  0
    7.7830    4.1150  -59.9450 C   0  0  0  0  0  0  0  0  0  0  0  0
    7.3730    5.1710  -59.4820 O   0  0  0  0  0  0  0  0  0  0  0  0
    9.0520    3.3920  -59.5080 C   0  0  1  0  0  0  0  0  0  0  0  0
   10.3130    4.0120  -60.1540 C   0  0  2  0  0  0  0  0  0  0  0  0
   11.5080    3.0780  -59.8680 C   0  0  0  0  0  0  0  0  0  0  0  0
   11.6950    2.9150  -58.3550 C   0  0  2  0  0  0  0  0  0  0  0  0
   10.4220    2.3560  -57.7020 C   0  0  0  0  0  0  0  0  0  0  0  0
    9.2190    3.3060  -57.9590 C   0  0  2  0  0  0  0  0  0  0  0  0
    7.9840    2.7390  -57.4300 N   0  0  0  0  0  0  0  0  0  0  0  0
    7.8450    1.8260  -56.5350 C   0  0  0  0  0  0  0  0  0  0  0  0
    6.4150    1.4930  -56.2310 C   0  0  0  0  0  0  0  0  0  0  0  0
    6.1310    0.5570  -55.3160 C   0  0  0  0  0  0  0  0  0  0  0  0
    7.2020   -0.1500  -54.6040 C   0  0  0  0  0  0  0  0  0  0  0  0
    6.9080   -1.1260  -53.6490 C   0  0  0  0  0  0  0  0  0  0  0  0
    7.9480   -1.7760  -52.9940 C   0  0  0  0  0  0  0  0  0  0  0  0
    7.6650   -2.7120  -52.0790 F   0  0  0  0  0  0  0  0  0  0  0  0
    9.2760   -1.4720  -53.2700 C   0  0  0  0  0  0  0  0  0  0  0  0
    9.5790   -0.4970  -54.2240 C   0  0  0  0  0  0  0  0  0  0  0  0
    8.5470    0.1700  -54.8960 C   0  0  0  0  0  0  0  0  0  0  0  0
    8.8350    1.1520  -55.8590 N   0  0  0  0  0  0  0  0  0  0  0  0
    9.5260    4.7110  -57.3870 C   0  0  0  0  0  0  0  0  0  0  0  0
   10.7960    5.2840  -58.0320 C   0  0  2  0  0  0  0  0  0  0  0  0
   10.6440    5.3930  -59.5500 C   0  0  0  0  0  0  0  0  0  0  0  0
   11.9180    4.2940  -57.7550 C   0  0  0  0  0  0  0  0  0  0  0  0
   12.8890    4.5660  -57.0570 O   0  0  0  0  0  0  0  0  0  0  0  0
    6.3949    2.2739  -59.4418 H   0  0  0  0  0  0  0  0  0  0  0  0
    5.3915    2.3940  -60.9268 H   0  0  0  0  0  0  0  0  0  0  0  0
    6.8787    1.3867  -60.9268 H   0  0  0  0  0  0  0  0  0  0  0  0
    8.9387    2.3598  -59.8710 H   0  0  0  0  0  0  0  0  0  0  0  0
   10.1252    4.1324  -61.2311 H   0  0  0  0  0  0  0  0  0  0  0  0
   11.3172    2.0934  -60.3197 H   0  0  0  0  0  0  0  0  0  0  0  0
   12.4201    3.5157  -60.2997 H   0  0  0  0  0  0  0  0  0  0  0  0
   12.5398    2.2327  -58.1795 H   0  0  0  0  0  0  0  0  0  0  0  0
   10.2002    1.3667  -58.1288 H   0  0  0  0  0  0  0  0  0  0  0  0
   10.5848    2.2720  -56.6174 H   0  0  0  0  0  0  0  0  0  0  0  0
    5.6025    2.0153  -56.7573 H   0  0  0  0  0  0  0  0  0  0  0  0
    5.0809    0.3150  -55.0952 H   0  0  0  0  0  0  0  0  0  0  0  0
    5.8627   -1.3782  -53.4171 H   0  0  0  0  0  0  0  0  0  0  0  0
   10.0846   -1.9965  -52.7399 H   0  0  0  0  0  0  0  0  0  0  0  0
   10.6282   -0.2533  -54.4472 H   0  0  0  0  0  0  0  0  0  0  0  0
    9.8040    1.3500  -56.0330 H   0  0  0  0  0  0  0  0  0  0  0  0
    8.6790    5.3809  -57.5963 H   0  0  0  0  0  0  0  0  0  0  0  0
    9.6824    4.6286  -56.3013 H   0  0  0  0  0  0  0  0  0  0  0  0
   10.9949    6.2851  -57.6217 H   0  0  0  0  0  0  0  0  0  0  0  0
    9.8310    6.0960  -59.7840 H   0  0  0  0  0  0  0  0  0  0  0  0
   11.5896    5.7550  -59.9799 H   0  0  0  0  0  0  0  0  0  0  0  0
  1  2  1  0
  2  3  1  0
  3  4  2  0
  3  5  1  0
  5  6  1  0
  6  7  1  0
  7  8  1  0
  8  9  1  0
  9 10  1  0
 10 11  1  1
 11 12  2  0
 12 13  1  0
 13 14  2  0
 14 15  1  0
 15 16  2  0
 16 17  1  0
 17 18  1  0
 17 19  2  0
 19 20  1  0
 20 21  2  0
 21 22  1  0
 10 23  1  0
 23 24  1  0
 24 25  1  0
 24 26  1  0
 26 27  2  0
 10  5  1  0
 22 12  1  0
 25  6  1  0
 26  8  1  0
 21 15  1  0
  1 28  1  0
  1 29  1  0
  1 30  1  0
  5 31  1  6
  6 32  1  6
  7 33  1  0
  7 34  1  0
  8 35  1  6
  9 36  1  0
  9 37  1  0
 13 38  1  0
 14 39  1  0
 16 40  1  0
 19 41  1  0
 20 42  1  0
 22 43  1  0
 23 44  1  0
 23 45  1  0
 24 46  1  1
 25 47  1  0
 25 48  1  0
M  END
>  <meeko>  (26) 
{"is_sidechain": false}

$$$$

     RDKit          3D

 52 55  0  0  0  0  0  0  0  0999 V2000
    5.9710    2.6530  -62.5190 C   0  0  0  0  0  0  0  0  0  0  0  0
    6.5760    2.6810  -61.1280 C   0  0  0  0  0  0  0  0  0  0  0  0
    7.4520    3.8110  -60.9920 O   0  0  0  0  0  0  0  0  0  0  0  0
    7.7740    4.1700  -59.7180 C   0  0  0  0  0  0  0  0  0  0  0  0
    7.1330    4.9520  -59.0290 O   0  0  0  0  0  0  0  0  0  0  0  0
    9.0120    3.4090  -59.2490 C   0  0  1  0  0  0  0  0  0  0  0  0
   10.2590    3.8070  -60.0760 C   0  0  2  0  0  0  0  0  0  0  0  0
   11.4250    2.8650  -59.7120 C   0  0  0  0  0  0  0  0  0  0  0  0
   11.7350    2.9710  -58.2170 C   0  0  2  0  0  0  0  0  0  0  0  0
   10.4950    2.6270  -57.3810 C   0  0  0  0  0  0  0  0  0  0  0  0
    9.3120    3.5750  -57.7190 C   0  0  2  0  0  0  0  0  0  0  0  0
    8.0850    3.2550  -56.9640 N   0  0  0  0  0  0  0  0  0  0  0  0
    7.0230    1.9840  -57.1800 S   0  0  0  0  0  0  0  0  0  0  0  0
    7.4480    1.2190  -58.3300 O   0  0  0  0  0  0  0  0  0  0  0  0
    5.6970    2.5610  -57.1150 O   0  0  0  0  0  0  0  0  0  0  0  0
    7.2350    1.0000  -55.7240 C   0  0  0  0  0  0  0  0  0  0  0  0
    8.5100    0.7920  -55.1930 C   0  0  0  0  0  0  0  0  0  0  0  0
    8.6550    0.0160  -54.0420 C   0  0  0  0  0  0  0  0  0  0  0  0
    7.5390   -0.5750  -53.4360 C   0  0  0  0  0  0  0  0  0  0  0  0
    7.6970   -1.3830  -52.1820 C   0  0  0  0  0  0  0  0  0  0  0  0
    6.2660   -0.3650  -53.9850 C   0  0  0  0  0  0  0  0  0  0  0  0
    6.1130    0.4120  -55.1350 C   0  0  0  0  0  0  0  0  0  0  0  0
    9.7610    5.0290  -57.4180 C   0  0  0  0  0  0  0  0  0  0  0  0
   10.9820    5.4080  -58.2650 C   0  0  2  0  0  0  0  0  0  0  0  0
   10.6770    5.2580  -59.7570 C   0  0  0  0  0  0  0  0  0  0  0  0
   12.0880    4.4210  -57.9260 C   0  0  0  0  0  0  0  0  0  0  0  0
   13.1670    4.7650  -57.4590 O   0  0  0  0  0  0  0  0  0  0  0  0
    4.8749    2.6023  -62.4412 H   0  0  0  0  0  0  0  0  0  0  0  0
    6.2582    3.5654  -63.0622 H   0  0  0  0  0  0  0  0  0  0  0  0
    6.3412    1.7710  -63.0622 H   0  0  0  0  0  0  0  0  0  0  0  0
    5.7704    2.7537  -60.3825 H   0  0  0  0  0  0  0  0  0  0  0  0
    7.1526    1.7580  -60.9682 H   0  0  0  0  0  0  0  0  0  0  0  0
    8.7825    2.3461  -59.4150 H   0  0  0  0  0  0  0  0  0  0  0  0
   10.0165    3.7276  -61.1460 H   0  0  0  0  0  0  0  0  0  0  0  0
   11.1456    1.8289  -59.9537 H   0  0  0  0  0  0  0  0  0  0  0  0
   12.3167    3.1543  -60.2875 H   0  0  0  0  0  0  0  0  0  0  0  0
   12.5515    2.2785  -57.9646 H   0  0  0  0  0  0  0  0  0  0  0  0
   10.1958    1.5898  -57.5922 H   0  0  0  0  0  0  0  0  0  0  0  0
   10.7465    2.7479  -56.3170 H   0  0  0  0  0  0  0  0  0  0  0  0
    8.0090    3.6690  -56.0250 H   0  0  0  0  0  0  0  0  0  0  0  0
    9.3921    1.2359  -55.6777 H   0  0  0  0  0  0  0  0  0  0  0  0
    9.6543   -0.1327  -53.6070 H   0  0  0  0  0  0  0  0  0  0  0  0
    7.5692   -0.7297  -51.3063 H   0  0  0  0  0  0  0  0  0  0  0  0
    6.9374   -2.1783  -52.1601 H   0  0  0  0  0  0  0  0  0  0  0  0
    8.7003   -1.8335  -52.1601 H   0  0  0  0  0  0  0  0  0  0  0  0
    5.3832   -0.8148  -53.5072 H   0  0  0  0  0  0  0  0  0  0  0  0
    5.1155    0.5602  -55.5743 H   0  0  0  0  0  0  0  0  0  0  0  0
    8.9343    5.7169  -57.6489 H   0  0  0  0  0  0  0  0  0  0  0  0
   10.0333    5.1011  -56.3547 H   0  0  0  0  0  0  0  0  0  0  0  0
   11.2632    6.4506  -58.0555 H   0  0  0  0  0  0  0  0  0  0  0  0
    9.8581    5.9397  -60.0301 H   0  0  0  0  0  0  0  0  0  0  0  0
   11.5811    5.5044  -60.3332 H   0  0  0  0  0  0  0  0  0  0  0  0
  1  2  1  0
  2  3  1  0
  3  4  1  0
  4  5  2  0
  4  6  1  0
  6  7  1  0
  7  8  1  0
  8  9  1  0
  9 10  1  0
 10 11  1  0
 11 12  1  1
 12 13  1  0
 13 14  2  0
 13 15  2  0
 13 16  1  0
 16 17  1  0
 17 18  2  0
 18 19  1  0
 19 20  1  0
 19 21  2  0
 21 22  1  0
 11 23  1  0
 23 24  1  0
 24 25  1  0
 24 26  1  0
 26 27  2  0
 11  6  1  0
 22 16  2  0
 25  7  1  0
 26  9  1  0
  1 28  1  0
  1 29  1  0
  1 30  1  0
  2 31  1  0
  2 32  1  0
  6 33  1  1
  7 34  1  6
  8 35  1  0
  8 36  1  0
  9 37  1  1
 10 38  1  0
 10 39  1  0
 12 40  1  0
 17 41  1  0
 18 42  1  0
 20 43  1  0
 20 44  1  0
 20 45  1  0
 21 46  1  0
 22 47  1  0
 23 48  1  0
 23 49  1  0
 24 50  1  6
 25 51  1  0
 25 52  1  0
M  END
>  <meeko>  (27) 
{"is_sidechain": false}

$$$$

     RDKit          3D

 39 41  0  0  0  0  0  0  0  0999 V2000
    3.3420    1.9150  -61.8150 N   0  0  0  0  0  0  0  0  0  0  0  0
    4.2130    2.0170  -60.7740 C   0  0  0  0  0  0  0  0  0  0  0  0
    5.6790    1.9030  -60.9170 C   0  0  0  0  0  0  0  0  0  0  0  0
    6.0910    2.0430  -59.6600 C   0  0  0  0  0  0  0  0  0  0  0  0
    7.3330    2.0390  -59.0780 N   0  0  0  0  0  0  0  0  0  0  0  0
    7.5350    2.2830  -57.7260 C   0  0  0  0  0  0  0  0  0  0  0  0
    8.8330    2.2990  -57.2590 N   0  0  0  0  0  0  0  0  0  0  0  0
   10.0270    2.0990  -58.0690 C   0  0  0  0  0  0  0  0  0  0  0  0
   10.6980    3.4460  -58.3950 C   0  0  2  0  0  0  0  0  0  0  0  0
   10.5190    3.8500  -59.8650 C   0  0  0  0  0  0  0  0  0  0  0  0
   11.1080    5.2340  -60.1580 C   0  0  0  0  0  0  0  0  0  0  0  0
   12.2280    5.6420  -59.1990 C   0  0  2  0  0  0  0  0  0  0  0  0
   13.0620    6.5910  -59.8510 O   0  0  0  0  0  0  0  0  0  0  0  0
   13.0470    4.4360  -58.7610 C   0  0  0  0  0  0  0  0  0  0  0  0
   12.1970    3.3890  -58.0390 C   0  0  0  0  0  0  0  0  0  0  0  0
    6.4460    2.4900  -56.9400 C   0  0  0  0  0  0  0  0  0  0  0  0
    5.0950    2.4640  -57.4940 C   0  0  0  0  0  0  0  0  0  0  0  0
    4.9410    2.2510  -58.8060 C   0  0  0  0  0  0  0  0  0  0  0  0
    3.7950    2.2130  -59.5500 N   0  0  0  0  0  0  0  0  0  0  0  0
    3.6080    1.2850  -62.5610 H   0  0  0  0  0  0  0  0  0  0  0  0
    2.3890    1.7740  -61.4940 H   0  0  0  0  0  0  0  0  0  0  0  0
    6.2755    1.7436  -61.8274 H   0  0  0  0  0  0  0  0  0  0  0  0
    8.1420    2.0670  -59.6770 H   0  0  0  0  0  0  0  0  0  0  0  0
    8.9400    2.9950  -56.5280 H   0  0  0  0  0  0  0  0  0  0  0  0
   10.7369    1.4671  -57.5152 H   0  0  0  0  0  0  0  0  0  0  0  0
    9.7363    1.6124  -59.0117 H   0  0  0  0  0  0  0  0  0  0  0  0
   10.2006    4.2143  -57.7849 H   0  0  0  0  0  0  0  0  0  0  0  0
   11.0238    3.1078  -60.5009 H   0  0  0  0  0  0  0  0  0  0  0  0
    9.4403    3.8891  -60.0767 H   0  0  0  0  0  0  0  0  0  0  0  0
   11.5115    5.2300  -61.1813 H   0  0  0  0  0  0  0  0  0  0  0  0
   10.2942    5.9630  -60.0302 H   0  0  0  0  0  0  0  0  0  0  0  0
   11.7835    6.0853  -58.2957 H   0  0  0  0  0  0  0  0  0  0  0  0
   12.9120    6.5080  -60.8070 H   0  0  0  0  0  0  0  0  0  0  0  0
   13.4985    3.9729  -59.6507 H   0  0  0  0  0  0  0  0  0  0  0  0
   13.8160    4.7885  -58.0579 H   0  0  0  0  0  0  0  0  0  0  0  0
   12.5779    2.3916  -58.3037 H   0  0  0  0  0  0  0  0  0  0  0  0
   12.2772    3.6005  -56.9625 H   0  0  0  0  0  0  0  0  0  0  0  0
    6.5848    2.6809  -55.8656 H   0  0  0  0  0  0  0  0  0  0  0  0
    4.2203    2.6167  -56.8448 H   0  0  0  0  0  0  0  0  0  0  0  0
  1  2  1  0
  2  3  1  0
  3  4  2  0
  4  5  1  0
  5  6  1  0
  6  7  1  0
  7  8  1  0
  8  9  1  0
  9 10  1  0
 10 11  1  0
 11 12  1  0
 12 13  1  0
 12 14  1  0
 14 15  1  0
  6 16  2  0
 16 17  1  0
 17 18  2  0
 18 19  1  0
 19  2  2  0
 18  4  1  0
 15  9  1  0
  1 20  1  0
  1 21  1  0
  3 22  1  0
  5 23  1  0
  7 24  1  0
  8 25  1  0
  8 26  1  0
  9 27  1  6
 10 28  1  0
 10 29  1  0
 11 30  1  0
 11 31  1  0
 12 32  1  6
 13 33  1  0
 14 34  1  0
 14 35  1  0
 15 36  1  0
 15 37  1  0
 16 38  1  0
 17 39  1  0
M  END
>  <meeko>  (28) 
{"is_sidechain": false}

$$$$

     RDKit          3D

 39 41  0  0  0  0  0  0  0  0999 V2000
    3.0310    1.7850  -62.5150 N   0  0  0  0  0  0  0  0  0  0  0  0
    4.1530    1.9690  -61.9170 C   0  0  0  0  0  0  0  0  0  0  0  0
    4.4000    1.7690  -60.4620 C   0  0  0  0  0  0  0  0  0  0  0  0
    5.7030    2.0660  -60.3150 C   0  0  0  0  0  0  0  0  0  0  0  0
    6.5150    2.0690  -59.2090 N   0  0  0  0  0  0  0  0  0  0  0  0
    7.8730    2.3390  -59.2610 C   0  0  0  0  0  0  0  0  0  0  0  0
    8.6670    2.2790  -58.1300 N   0  0  0  0  0  0  0  0  0  0  0  0
   10.1140    2.1180  -58.1420 C   0  0  0  0  0  0  0  0  0  0  0  0
   10.7770    3.1650  -57.2210 C   0  0  2  0  0  0  0  0  0  0  0  0
   10.0560    4.5260  -57.2540 C   0  0  0  0  0  0  0  0  0  0  0  0
   10.2680    5.2810  -58.5640 C   0  0  0  0  0  0  0  0  0  0  0  0
   11.7500    5.4390  -58.8930 C   0  0  2  0  0  0  0  0  0  0  0  0
   11.8690    6.0300  -60.1820 O   0  0  0  0  0  0  0  0  0  0  0  0
   12.4800    4.0980  -58.8810 C   0  0  0  0  0  0  0  0  0  0  0  0
   12.2640    3.3470  -57.5700 C   0  0  0  0  0  0  0  0  0  0  0  0
    8.4220    2.6560  -60.4620 C   0  0  0  0  0  0  0  0  0  0  0  0
    7.6140    2.7210  -61.6750 C   0  0  0  0  0  0  0  0  0  0  0  0
    6.3080    2.4340  -61.6040 C   0  0  0  0  0  0  0  0  0  0  0  0
    5.3070    2.3750  -62.5170 N   0  0  0  0  0  0  0  0  0  0  0  0
    2.3180    1.4780  -61.8450 H   0  0  0  0  0  0  0  0  0  0  0  0
    3.6843    1.4525  -59.6890 H   0  0  0  0  0  0  0  0  0  0  0  0
    6.1590    1.6720  -58.3540 H   0  0  0  0  0  0  0  0  0  0  0  0
    8.2120    1.7830  -57.3670 H   0  0  0  0  0  0  0  0  0  0  0  0
   10.3698    1.1087  -57.7872 H   0  0  0  0  0  0  0  0  0  0  0  0
   10.4815    2.2607  -59.1689 H   0  0  0  0  0  0  0  0  0  0  0  0
   10.6930    2.7726  -56.1968 H   0  0  0  0  0  0  0  0  0  0  0  0
    8.9779    4.3551  -57.1183 H   0  0  0  0  0  0  0  0  0  0  0  0
   10.4785    5.1422  -56.4467 H   0  0  0  0  0  0  0  0  0  0  0  0
    9.7796    4.7256  -59.3783 H   0  0  0  0  0  0  0  0  0  0  0  0
    9.8329    6.2853  -58.4544 H   0  0  0  0  0  0  0  0  0  0  0  0
   12.2109    6.0769  -58.1245 H   0  0  0  0  0  0  0  0  0  0  0  0
   12.4600    5.4680  -60.7110 H   0  0  0  0  0  0  0  0  0  0  0  0
   12.1049    3.4810  -59.7108 H   0  0  0  0  0  0  0  0  0  0  0  0
   13.5570    4.2939  -58.9895 H   0  0  0  0  0  0  0  0  0  0  0  0
   12.7287    2.3535  -57.6542 H   0  0  0  0  0  0  0  0  0  0  0  0
   12.7198    3.9462  -56.7680 H   0  0  0  0  0  0  0  0  0  0  0  0
    9.4996    2.8684  -60.5215 H   0  0  0  0  0  0  0  0  0  0  0  0
    8.0715    3.0020  -62.6351 H   0  0  0  0  0  0  0  0  0  0  0  0
    5.4140    2.5250  -63.5060 H   0  0  0  0  0  0  0  0  0  0  0  0
  1  2  2  3
  2  3  1  0
  3  4  2  0
  4  5  1  0
  5  6  1  0
  6  7  1  0
  7  8  1  0
  8  9  1  0
  9 10  1  0
 10 11  1  0
 11 12  1  0
 12 13  1  0
 12 14  1  0
 14 15  1  0
  6 16  2  0
 16 17  1  0
 17 18  2  0
 18 19  1  0
 19  2  1  0
 18  4  1  0
 15  9  1  0
  1 20  1  0
  3 21  1  0
  5 22  1  0
  7 23  1  0
  8 24  1  0
  8 25  1  0
  9 26  1  6
 10 27  1  0
 10 28  1  0
 11 29  1  0
 11 30  1  0
 12 31  1  6
 13 32  1  0
 14 33  1  0
 14 34  1  0
 15 35  1  0
 15 36  1  0
 16 37  1  0
 17 38  1  0
 19 39  1  0
M  END
>  <meeko>  (29) 
{"is_sidechain": false}

$$$$

     RDKit          3D

 39 41  0  0  0  0  0  0  0  0999 V2000
    2.5310    1.8020  -63.0160 N   0  0  0  0  0  0  0  0  0  0  0  0
    3.4020    1.9270  -62.0000 C   0  0  0  0  0  0  0  0  0  0  0  0
    4.7760    1.8710  -61.9730 C   0  0  0  0  0  0  0  0  0  0  0  0
    5.1800    2.0700  -60.6300 C   0  0  0  0  0  0  0  0  0  0  0  0
    6.4300    2.0930  -60.1120 N   0  0  0  0  0  0  0  0  0  0  0  0
    6.5200    2.3140  -58.7880 C   0  0  0  0  0  0  0  0  0  0  0  0
    7.7840    2.3400  -58.1520 N   0  0  0  0  0  0  0  0  0  0  0  0
    8.9170    2.3020  -59.0770 C   0  0  0  0  0  0  0  0  0  0  0  0
    9.8560    3.4980  -58.8190 C   0  0  2  0  0  0  0  0  0  0  0  0
   10.4520    4.0560  -60.1230 C   0  0  0  0  0  0  0  0  0  0  0  0
   11.4380    5.1950  -59.8560 C   0  0  0  0  0  0  0  0  0  0  0  0
   12.5420    4.7890  -58.8830 C   0  0  2  0  0  0  0  0  0  0  0  0
   13.3760    3.8010  -59.4850 O   0  0  0  0  0  0  0  0  0  0  0  0
   11.9620    4.2190  -57.5900 C   0  0  0  0  0  0  0  0  0  0  0  0
   10.9780    3.0800  -57.8540 C   0  0  0  0  0  0  0  0  0  0  0  0
    5.4010    2.4950  -57.9670 C   0  0  0  0  0  0  0  0  0  0  0  0
    4.1090    2.4720  -58.4950 C   0  0  0  0  0  0  0  0  0  0  0  0
    4.0340    2.2530  -59.8660 C   0  0  0  0  0  0  0  0  0  0  0  0
    2.9630    2.1640  -60.7240 N   0  0  0  0  0  0  0  0  0  0  0  0
    2.6880    1.1650  -63.7920 H   0  0  0  0  0  0  0  0  0  0  0  0
    1.9460    2.5950  -63.2740 H   0  0  0  0  0  0  0  0  0  0  0  0
    5.4385    1.7028  -62.8348 H   0  0  0  0  0  0  0  0  0  0  0  0
    7.8070    3.1620  -57.5560 H   0  0  0  0  0  0  0  0  0  0  0  0
    9.4740    1.3647  -58.9309 H   0  0  0  0  0  0  0  0  0  0  0  0
    8.5398    2.3580  -60.1088 H   0  0  0  0  0  0  0  0  0  0  0  0
    9.2591    4.3022  -58.3640 H   0  0  0  0  0  0  0  0  0  0  0  0
   10.9781    3.2458  -60.6492 H   0  0  0  0  0  0  0  0  0  0  0  0
    9.6274    4.4538  -60.7327 H   0  0  0  0  0  0  0  0  0  0  0  0
   11.8988    5.4947  -60.8088 H   0  0  0  0  0  0  0  0  0  0  0  0
   10.8778    6.0257  -59.4020 H   0  0  0  0  0  0  0  0  0  0  0  0
   13.1256    5.6900  -58.6431 H   0  0  0  0  0  0  0  0  0  0  0  0
   14.1980    3.7560  -58.9680 H   0  0  0  0  0  0  0  0  0  0  0  0
   12.7864    3.8386  -56.9689 H   0  0  0  0  0  0  0  0  0  0  0  0
   11.4166    5.0260  -57.0789 H   0  0  0  0  0  0  0  0  0  0  0  0
   11.5255    2.2325  -58.2922 H   0  0  0  0  0  0  0  0  0  0  0  0
   10.5151    2.8028  -56.8954 H   0  0  0  0  0  0  0  0  0  0  0  0
    5.5419    2.6580  -56.8883 H   0  0  0  0  0  0  0  0  0  0  0  0
    3.2146    2.6167  -57.8713 H   0  0  0  0  0  0  0  0  0  0  0  0
    1.9970    2.2690  -60.4560 H   0  0  0  0  0  0  0  0  0  0  0  0
  1  2  1  0
  2  3  2  0
  3  4  1  0
  4  5  1  0
  5  6  2  0
  6  7  1  0
  7  8  1  0
  8  9  1  0
  9 10  1  0
 10 11  1  0
 11 12  1  0
 12 13  1  0
 12 14  1  0
 14 15  1  0
  6 16  1  0
 16 17  2  0
 17 18  1  0
 18 19  1  0
 19  2  1  0
 18  4  2  0
 15  9  1  0
  1 20  1  0
  1 21  1  0
  3 22  1  0
  7 23  1  0
  8 24  1  0
  8 25  1  0
  9 26  1  6
 10 27  1  0
 10 28  1  0
 11 29  1  0
 11 30  1  0
 12 31  1  6
 13 32  1  0
 14 33  1  0
 14 34  1  0
 15 35  1  0
 15 36  1  0
 16 37  1  0
 17 38  1  0
 19 39  1  0
M  END
>  <meeko>  (30) 
{"is_sidechain": false}

$$$$

     RDKit          3D

 39 41  0  0  0  0  0  0  0  0999 V2000
    2.5310    1.8060  -60.9640 N   0  0  0  0  0  0  0  0  0  0  0  0
    3.7860    1.9380  -60.4990 C   0  0  0  0  0  0  0  0  0  0  0  0
    5.0050    1.7470  -61.1230 C   0  0  0  0  0  0  0  0  0  0  0  0
    5.9880    2.0290  -60.1600 C   0  0  0  0  0  0  0  0  0  0  0  0
    7.3300    2.0070  -60.2270 N   0  0  0  0  0  0  0  0  0  0  0  0
    8.0570    2.3280  -59.0870 C   0  0  0  0  0  0  0  0  0  0  0  0
    9.3450    2.2800  -59.2200 N   0  0  0  0  0  0  0  0  0  0  0  0
   10.2580    2.5670  -58.1220 C   0  0  0  0  0  0  0  0  0  0  0  0
   11.1150    3.8030  -58.4370 C   0  0  2  0  0  0  0  0  0  0  0  0
   10.4030    4.7490  -59.4270 C   0  0  0  0  0  0  0  0  0  0  0  0
   11.3570    5.6590  -60.2050 C   0  0  0  0  0  0  0  0  0  0  0  0
   12.6600    5.8990  -59.4550 C   0  0  2  0  0  0  0  0  0  0  0  0
   13.4940    6.7900  -60.1890 O   0  0  0  0  0  0  0  0  0  0  0  0
   13.4110    4.5900  -59.1960 C   0  0  0  0  0  0  0  0  0  0  0  0
   12.4880    3.3890  -58.9780 C   0  0  0  0  0  0  0  0  0  0  0  0
    7.3320    2.7110  -57.7990 C   0  0  0  0  0  0  0  0  0  0  0  0
    5.9860    2.7240  -57.7790 C   0  0  0  0  0  0  0  0  0  0  0  0
    5.3640    2.3720  -58.9900 C   0  0  0  0  0  0  0  0  0  0  0  0
    4.0160    2.3130  -59.1940 N   0  0  0  0  0  0  0  0  0  0  0  0
    1.7630    2.2490  -60.4650 H   0  0  0  0  0  0  0  0  0  0  0  0
    2.2350    0.9930  -61.4960 H   0  0  0  0  0  0  0  0  0  0  0  0
    5.1717    1.4364  -62.1650 H   0  0  0  0  0  0  0  0  0  0  0  0
    7.8680    1.7580  -61.0450 H   0  0  0  0  0  0  0  0  0  0  0  0
    9.6757    2.7548  -57.2079 H   0  0  0  0  0  0  0  0  0  0  0  0
   10.9231    1.7024  -57.9800 H   0  0  0  0  0  0  0  0  0  0  0  0
   11.2619    4.3532  -57.4959 H   0  0  0  0  0  0  0  0  0  0  0  0
    9.8412    4.1374  -60.1484 H   0  0  0  0  0  0  0  0  0  0  0  0
    9.7493    5.4035  -58.8317 H   0  0  0  0  0  0  0  0  0  0  0  0
   11.5863    5.1881  -61.1723 H   0  0  0  0  0  0  0  0  0  0  0  0
   10.8611    6.6313  -60.3416 H   0  0  0  0  0  0  0  0  0  0  0  0
   12.4049    6.3471  -58.4834 H   0  0  0  0  0  0  0  0  0  0  0  0
   14.3100    6.3140  -60.4170 H   0  0  0  0  0  0  0  0  0  0  0  0
   14.0553    4.3810  -60.0627 H   0  0  0  0  0  0  0  0  0  0  0  0
   13.9885    4.7263  -58.2697 H   0  0  0  0  0  0  0  0  0  0  0  0
   12.3486    2.8708  -59.9382 H   0  0  0  0  0  0  0  0  0  0  0  0
   12.9600    2.7320  -58.2326 H   0  0  0  0  0  0  0  0  0  0  0  0
    7.9037    2.9736  -56.8966 H   0  0  0  0  0  0  0  0  0  0  0  0
    5.4131    2.9912  -56.8788 H   0  0  0  0  0  0  0  0  0  0  0  0
    3.2980    2.4970  -58.5090 H   0  0  0  0  0  0  0  0  0  0  0  0
  1  2  1  0
  2  3  2  0
  3  4  1  0
  4  5  1  0
  5  6  1  0
  6  7  2  0
  7  8  1  0
  8  9  1  0
  9 10  1  0
 10 11  1  0
 11 12  1  0
 12 13  1  0
 12 14  1  0
 14 15  1  0
  6 16  1  0
 16 17  2  0
 17 18  1  0
 18 19  1  0
 19  2  1  0
 18  4  2  0
 15  9  1  0
  1 20  1  0
  1 21  1  0
  3 22  1  0
  5 23  1  0
  8 24  1  0
  8 25  1  0
  9 26  1  6
 10 27  1  0
 10 28  1  0
 11 29  1  0
 11 30  1  0
 12 31  1  6
 13 32  1  0
 14 33  1  0
 14 34  1  0
 15 35  1  0
 15 36  1  0
 16 37  1  0
 17 38  1  0
 19 39  1  0
M  END
>  <meeko>  (31) 
{"is_sidechain": false}

$$$$

     RDKit          3D

 39 41  0  0  0  0  0  0  0  0999 V2000
    9.7820    3.8320  -58.3760 N   0  0  0  0  0  0  0  0  0  0  0  0
    9.2760    2.9280  -57.5210 C   0  0  0  0  0  0  0  0  0  0  0  0
    9.8850    2.1780  -56.5320 C   0  0  0  0  0  0  0  0  0  0  0  0
    8.8740    1.3970  -55.9470 C   0  0  0  0  0  0  0  0  0  0  0  0
    8.9170    0.4950  -54.9480 N   0  0  0  0  0  0  0  0  0  0  0  0
    7.7230   -0.1250  -54.5820 C   0  0  0  0  0  0  0  0  0  0  0  0
    7.5870   -1.0110  -53.6450 N   0  0  0  0  0  0  0  0  0  0  0  0
    8.7640   -1.4160  -52.8830 C   0  0  0  0  0  0  0  0  0  0  0  0
    8.5930   -2.8820  -52.4400 C   0  0  2  0  0  0  0  0  0  0  0  0
    7.1920   -3.4140  -52.8140 C   0  0  0  0  0  0  0  0  0  0  0  0
    6.7740   -4.5860  -51.9310 C   0  0  0  0  0  0  0  0  0  0  0  0
    6.6940   -4.1760  -50.4560 C   0  0  2  0  0  0  0  0  0  0  0  0
    5.3570   -3.8030  -50.1260 O   0  0  0  0  0  0  0  0  0  0  0  0
    7.6310   -3.0200  -50.0920 C   0  0  0  0  0  0  0  0  0  0  0  0
    8.8980   -3.0430  -50.9360 C   0  0  0  0  0  0  0  0  0  0  0  0
    6.4250    0.2160  -55.3000 C   0  0  0  0  0  0  0  0  0  0  0  0
    6.4320    1.1230  -56.2920 C   0  0  0  0  0  0  0  0  0  0  0  0
    7.6900    1.6840  -56.5750 C   0  0  0  0  0  0  0  0  0  0  0  0
    7.9320    2.6240  -57.5340 N   0  0  0  0  0  0  0  0  0  0  0  0
   10.0820    3.5830  -59.3150 H   0  0  0  0  0  0  0  0  0  0  0  0
   10.2600    4.6540  -58.0160 H   0  0  0  0  0  0  0  0  0  0  0  0
   10.9501    2.1903  -56.2575 H   0  0  0  0  0  0  0  0  0  0  0  0
    9.7680    0.2570  -54.4630 H   0  0  0  0  0  0  0  0  0  0  0  0
    9.6612   -1.3230  -53.5126 H   0  0  0  0  0  0  0  0  0  0  0  0
    8.8755   -0.7706  -51.9992 H   0  0  0  0  0  0  0  0  0  0  0  0
    9.3250   -3.4967  -52.9844 H   0  0  0  0  0  0  0  0  0  0  0  0
    6.4600   -2.6014  -52.6964 H   0  0  0  0  0  0  0  0  0  0  0  0
    7.2283   -3.7675  -53.8550 H   0  0  0  0  0  0  0  0  0  0  0  0
    5.7864   -4.9447  -52.2566 H   0  0  0  0  0  0  0  0  0  0  0  0
    7.5298   -5.3792  -52.0288 H   0  0  0  0  0  0  0  0  0  0  0  0
    7.0147   -5.0546  -49.8771 H   0  0  0  0  0  0  0  0  0  0  0  0
    4.9500   -4.5480  -49.6520 H   0  0  0  0  0  0  0  0  0  0  0  0
    7.1064   -2.0679  -50.2603 H   0  0  0  0  0  0  0  0  0  0  0  0
    7.9177   -3.1272  -49.0354 H   0  0  0  0  0  0  0  0  0  0  0  0
    9.5529   -2.2191  -50.6162 H   0  0  0  0  0  0  0  0  0  0  0  0
    9.3858   -4.0181  -50.7905 H   0  0  0  0  0  0  0  0  0  0  0  0
    5.4860   -0.2773  -55.0086 H   0  0  0  0  0  0  0  0  0  0  0  0
    5.5218    1.4053  -56.8413 H   0  0  0  0  0  0  0  0  0  0  0  0
    7.2490    3.0430  -58.1480 H   0  0  0  0  0  0  0  0  0  0  0  0
  1  2  1  0
  2  3  2  0
  3  4  1  0
  4  5  1  0
  5  6  1  0
  6  7  2  0
  7  8  1  0
  8  9  1  0
  9 10  1  0
 10 11  1  0
 11 12  1  0
 12 13  1  0
 12 14  1  0
 14 15  1  0
  6 16  1  0
 16 17  2  0
 17 18  1  0
 18 19  1  0
 19  2  1  0
 18  4  2  0
 15  9  1  0
  1 20  1  0
  1 21  1  0
  3 22  1  0
  5 23  1  0
  8 24  1  0
  8 25  1  0
  9 26  1  1
 10 27  1  0
 10 28  1  0
 11 29  1  0
 11 30  1  0
 12 31  1  6
 13 32  1  0
 14 33  1  0
 14 34  1  0
 15 35  1  0
 15 36  1  0
 16 37  1  0
 17 38  1  0
 19 39  1  0
M  END
>  <meeko>  (32) 
{"is_sidechain": false}

$$$$

     RDKit          3D

 35 37  0  0  0  0  0  0  0  0999 V2000
    5.2680   -4.4530  -50.4610 N   0  0  0  0  0  0  0  0  0  0  0  0
    6.4040   -4.0860  -51.1160 C   0  0  0  0  0  0  0  0  0  0  0  0
    6.5460   -4.1050  -52.5860 C   0  0  0  0  0  0  0  0  0  0  0  0
    7.7890   -3.6560  -52.7480 C   0  0  0  0  0  0  0  0  0  0  0  0
    8.5590   -3.4240  -53.8580 N   0  0  0  0  0  0  0  0  0  0  0  0
    9.8790   -2.9980  -53.7870 C   0  0  0  0  0  0  0  0  0  0  0  0
   10.6460   -2.8110  -54.9210 N   0  0  0  0  0  0  0  0  0  0  0  0
   10.8910   -3.7950  -55.9690 C   0  0  0  0  0  0  0  0  0  0  0  0
   11.4890   -3.1140  -57.2050 C   0  0  0  0  0  0  0  0  0  0  0  0
   11.8670   -4.1300  -58.2800 C   0  0  0  0  0  0  0  0  0  0  0  0
   12.8010   -5.2060  -57.7360 C   0  0  0  0  0  0  0  0  0  0  0  0
   12.2180   -5.8860  -56.5010 C   0  0  0  0  0  0  0  0  0  0  0  0
   11.8430   -4.8700  -55.4260 C   0  0  0  0  0  0  0  0  0  0  0  0
   10.4160   -2.7720  -52.5590 C   0  0  0  0  0  0  0  0  0  0  0  0
    9.6340   -2.9660  -51.3410 C   0  0  0  0  0  0  0  0  0  0  0  0
    8.3710   -3.3950  -51.4480 C   0  0  0  0  0  0  0  0  0  0  0  0
    7.4610   -3.6710  -50.4670 N   0  0  0  0  0  0  0  0  0  0  0  0
    5.2750   -4.1450  -49.4940 H   0  0  0  0  0  0  0  0  0  0  0  0
    4.3950   -4.2570  -50.9350 H   0  0  0  0  0  0  0  0  0  0  0  0
    5.8148   -4.4107  -53.3488 H   0  0  0  0  0  0  0  0  0  0  0  0
    8.2180   -3.7270  -54.7550 H   0  0  0  0  0  0  0  0  0  0  0  0
   10.6210   -1.8520  -55.2580 H   0  0  0  0  0  0  0  0  0  0  0  0
    9.9432   -4.2663  -56.2682 H   0  0  0  0  0  0  0  0  0  0  0  0
   10.7487   -2.4142  -57.6200 H   0  0  0  0  0  0  0  0  0  0  0  0
   12.4022   -2.5837  -56.8971 H   0  0  0  0  0  0  0  0  0  0  0  0
   10.9509   -4.6096  -58.6551 H   0  0  0  0  0  0  0  0  0  0  0  0
   12.3914   -3.5966  -59.0866 H   0  0  0  0  0  0  0  0  0  0  0  0
   12.9650   -5.9637  -58.5164 H   0  0  0  0  0  0  0  0  0  0  0  0
   13.7478   -4.7255  -57.4486 H   0  0  0  0  0  0  0  0  0  0  0  0
   11.3173   -6.4457  -56.7932 H   0  0  0  0  0  0  0  0  0  0  0  0
   12.9817   -6.5604  -56.0863 H   0  0  0  0  0  0  0  0  0  0  0  0
   11.3503   -5.3957  -54.5948 H   0  0  0  0  0  0  0  0  0  0  0  0
   12.7641   -4.3732  -55.0871 H   0  0  0  0  0  0  0  0  0  0  0  0
   11.4606   -2.4362  -52.4811 H   0  0  0  0  0  0  0  0  0  0  0  0
   10.0750   -2.7632  -50.3539 H   0  0  0  0  0  0  0  0  0  0  0  0
  1  2  1  0
  2  3  1  0
  3  4  2  0
  4  5  1  0
  5  6  1  0
  6  7  1  0
  7  8  1  0
  8  9  1  0
  9 10  1  0
 10 11  1  0
 11 12  1  0
 12 13  1  0
  6 14  2  0
 14 15  1  0
 15 16  2  0
 16 17  1  0
 17  2  2  0
 16  4  1  0
 13  8  1  0
  1 18  1  0
  1 19  1  0
  3 20  1  0
  5 21  1  0
  7 22  1  0
  8 23  1  0
  9 24  1  0
  9 25  1  0
 10 26  1  0
 10 27  1  0
 11 28  1  0
 11 29  1  0
 12 30  1  0
 12 31  1  0
 13 32  1  0
 13 33  1  0
 14 34  1  0
 15 35  1  0
M  END
>  <meeko>  (33) 
{"is_sidechain": false}

$$$$

     RDKit          3D

 35 37  0  0  0  0  0  0  0  0999 V2000
    3.6840    1.9050  -60.2120 N   0  0  0  0  0  0  0  0  0  0  0  0
    4.9520    2.1130  -60.2380 C   0  0  0  0  0  0  0  0  0  0  0  0
    5.8380    2.1920  -59.0430 C   0  0  0  0  0  0  0  0  0  0  0  0
    7.0590    2.4080  -59.5630 C   0  0  0  0  0  0  0  0  0  0  0  0
    8.2840    2.5700  -58.9700 N   0  0  0  0  0  0  0  0  0  0  0  0
    9.4620    2.7460  -59.6780 C   0  0  0  0  0  0  0  0  0  0  0  0
   10.6840    2.8760  -59.0470 N   0  0  0  0  0  0  0  0  0  0  0  0
   11.0870    3.9490  -58.1420 C   0  0  0  0  0  0  0  0  0  0  0  0
   10.6390    5.3150  -58.6810 C   0  0  0  0  0  0  0  0  0  0  0  0
   11.4330    5.7600  -59.9090 C   0  0  0  0  0  0  0  0  0  0  0  0
   12.9340    5.7410  -59.6420 C   0  0  0  0  0  0  0  0  0  0  0  0
   13.4030    4.3760  -59.1510 C   0  0  0  0  0  0  0  0  0  0  0  0
   12.6080    3.9040  -57.9340 C   0  0  0  0  0  0  0  0  0  0  0  0
    9.3950    2.7810  -61.0350 C   0  0  0  0  0  0  0  0  0  0  0  0
    8.1230    2.6440  -61.7400 C   0  0  0  0  0  0  0  0  0  0  0  0
    7.0020    2.4640  -61.0320 C   0  0  0  0  0  0  0  0  0  0  0  0
    5.6990    2.2920  -61.3640 N   0  0  0  0  0  0  0  0  0  0  0  0
    3.3610    1.8020  -59.2460 H   0  0  0  0  0  0  0  0  0  0  0  0
    5.5587    2.0961  -57.9834 H   0  0  0  0  0  0  0  0  0  0  0  0
    8.3590    2.4380  -57.9750 H   0  0  0  0  0  0  0  0  0  0  0  0
   11.4480    2.4750  -59.5840 H   0  0  0  0  0  0  0  0  0  0  0  0
   10.5948    3.8026  -57.1692 H   0  0  0  0  0  0  0  0  0  0  0  0
    9.5754    5.2526  -58.9546 H   0  0  0  0  0  0  0  0  0  0  0  0
   10.8151    6.0565  -57.8878 H   0  0  0  0  0  0  0  0  0  0  0  0
   11.2101    5.0799  -60.7443 H   0  0  0  0  0  0  0  0  0  0  0  0
   11.1395    6.7914  -60.1542 H   0  0  0  0  0  0  0  0  0  0  0  0
   13.4648    5.9862  -60.5737 H   0  0  0  0  0  0  0  0  0  0  0  0
   13.1517    6.4806  -58.8574 H   0  0  0  0  0  0  0  0  0  0  0  0
   13.2786    3.6441  -59.9627 H   0  0  0  0  0  0  0  0  0  0  0  0
   14.4588    4.4645  -58.8551 H   0  0  0  0  0  0  0  0  0  0  0  0
   12.8983    2.8671  -57.7090 H   0  0  0  0  0  0  0  0  0  0  0  0
   12.8424    4.5910  -57.1075 H   0  0  0  0  0  0  0  0  0  0  0  0
   10.3196    2.9155  -61.6156 H   0  0  0  0  0  0  0  0  0  0  0  0
    8.0872    2.6882  -62.8385 H   0  0  0  0  0  0  0  0  0  0  0  0
    5.3390    2.2490  -62.3010 H   0  0  0  0  0  0  0  0  0  0  0  0
  1  2  2  3
  2  3  1  0
  3  4  2  0
  4  5  1  0
  5  6  1  0
  6  7  1  0
  7  8  1  0
  8  9  1  0
  9 10  1  0
 10 11  1  0
 11 12  1  0
 12 13  1  0
  6 14  2  0
 14 15  1  0
 15 16  2  0
 16 17  1  0
 17  2  1  0
 16  4  1  0
 13  8  1  0
  1 18  1  0
  3 19  1  0
  5 20  1  0
  7 21  1  0
  8 22  1  0
  9 23  1  0
  9 24  1  0
 10 25  1  0
 10 26  1  0
 11 27  1  0
 11 28  1  0
 12 29  1  0
 12 30  1  0
 13 31  1  0
 13 32  1  0
 14 33  1  0
 15 34  1  0
 17 35  1  0
M  END
>  <meeko>  (34) 
{"is_sidechain": false}

$$$$

     RDKit          3D

 35 37  0  0  0  0  0  0  0  0999 V2000
    6.0070   -3.7150  -50.7880 N   0  0  0  0  0  0  0  0  0  0  0  0
    7.0630   -3.4710  -51.5820 C   0  0  0  0  0  0  0  0  0  0  0  0
    7.1730   -3.4280  -52.9530 C   0  0  0  0  0  0  0  0  0  0  0  0
    8.5230   -3.1260  -53.2580 C   0  0  0  0  0  0  0  0  0  0  0  0
    9.1130   -2.9850  -54.4680 N   0  0  0  0  0  0  0  0  0  0  0  0
   10.4210   -2.6740  -54.4480 C   0  0  0  0  0  0  0  0  0  0  0  0
   11.0100   -2.5300  -55.7090 N   0  0  0  0  0  0  0  0  0  0  0  0
   11.1250   -3.7330  -56.5560 C   0  0  0  0  0  0  0  0  0  0  0  0
   11.7070   -4.9440  -55.8200 C   0  0  0  0  0  0  0  0  0  0  0  0
   11.6730   -6.1890  -56.7070 C   0  0  0  0  0  0  0  0  0  0  0  0
   12.3890   -5.9490  -58.0340 C   0  0  0  0  0  0  0  0  0  0  0  0
   11.8360   -4.7290  -58.7670 C   0  0  0  0  0  0  0  0  0  0  0  0
   11.8510   -3.4800  -57.8860 C   0  0  0  0  0  0  0  0  0  0  0  0
   11.1680   -2.5390  -53.2800 C   0  0  0  0  0  0  0  0  0  0  0  0
   10.5660   -2.6870  -52.0310 C   0  0  0  0  0  0  0  0  0  0  0  0
    9.2070   -2.9840  -52.0560 C   0  0  0  0  0  0  0  0  0  0  0  0
    8.2950   -3.1960  -51.0500 N   0  0  0  0  0  0  0  0  0  0  0  0
    5.2580   -4.3190  -51.1230 H   0  0  0  0  0  0  0  0  0  0  0  0
    6.0750   -3.7030  -49.7730 H   0  0  0  0  0  0  0  0  0  0  0  0
    6.3629   -3.5968  -53.6777 H   0  0  0  0  0  0  0  0  0  0  0  0
   11.9610   -2.2530  -55.4500 H   0  0  0  0  0  0  0  0  0  0  0  0
   10.0852   -3.9872  -56.8092 H   0  0  0  0  0  0  0  0  0  0  0  0
   12.7490   -4.7291  -55.5406 H   0  0  0  0  0  0  0  0  0  0  0  0
   11.1004   -5.1350  -54.9225 H   0  0  0  0  0  0  0  0  0  0  0  0
   12.1669   -7.0179  -56.1789 H   0  0  0  0  0  0  0  0  0  0  0  0
   10.6218   -6.4326  -56.9206 H   0  0  0  0  0  0  0  0  0  0  0  0
   13.4595   -5.7904  -57.8369 H   0  0  0  0  0  0  0  0  0  0  0  0
   12.2296   -6.8310  -58.6717 H   0  0  0  0  0  0  0  0  0  0  0  0
   12.4505   -4.5418  -59.6600 H   0  0  0  0  0  0  0  0  0  0  0  0
   10.7920   -4.9403  -59.0415 H   0  0  0  0  0  0  0  0  0  0  0  0
   12.8941   -3.1993  -57.6783 H   0  0  0  0  0  0  0  0  0  0  0  0
   11.3317   -2.6700  -58.4191 H   0  0  0  0  0  0  0  0  0  0  0  0
   12.2428   -2.3135  -53.3436 H   0  0  0  0  0  0  0  0  0  0  0  0
   11.1267   -2.5766  -51.0911 H   0  0  0  0  0  0  0  0  0  0  0  0
    8.4990   -3.1470  -50.0640 H   0  0  0  0  0  0  0  0  0  0  0  0
  1  2  1  0
  2  3  2  0
  3  4  1  0
  4  5  1  0
  5  6  2  0
  6  7  1  0
  7  8  1  0
  8  9  1  0
  9 10  1  0
 10 11  1  0
 11 12  1  0
 12 13  1  0
  6 14  1  0
 14 15  2  0
 15 16  1  0
 16 17  1  0
 17  2  1  0
 16  4  2  0
 13  8  1  0
  1 18  1  0
  1 19  1  0
  3 20  1  0
  7 21  1  0
  8 22  1  0
  9 23  1  0
  9 24  1  0
 10 25  1  0
 10 26  1  0
 11 27  1  0
 11 28  1  0
 12 29  1  0
 12 30  1  0
 13 31  1  0
 13 32  1  0
 14 33  1  0
 15 34  1  0
 17 35  1  0
M  END
>  <meeko>  (35) 
{"is_sidechain": false}

$$$$

     RDKit          3D

 35 37  0  0  0  0  0  0  0  0999 V2000
    3.1110    1.4530  -60.5860 N   0  0  0  0  0  0  0  0  0  0  0  0
    4.3750    1.8810  -60.4320 C   0  0  0  0  0  0  0  0  0  0  0  0
    5.0720    2.2570  -59.2980 C   0  0  0  0  0  0  0  0  0  0  0  0
    6.3600    2.6160  -59.7270 C   0  0  0  0  0  0  0  0  0  0  0  0
    7.4340    3.0490  -59.0460 N   0  0  0  0  0  0  0  0  0  0  0  0
    8.5930    3.3440  -59.7550 C   0  0  0  0  0  0  0  0  0  0  0  0
    9.5850    3.7690  -59.0370 N   0  0  0  0  0  0  0  0  0  0  0  0
   10.8730    4.1430  -59.6120 C   0  0  0  0  0  0  0  0  0  0  0  0
   10.8990    5.6750  -59.7250 C   0  0  0  0  0  0  0  0  0  0  0  0
   12.2570    6.1820  -60.2030 C   0  0  0  0  0  0  0  0  0  0  0  0
   13.3890    5.6800  -59.3120 C   0  0  0  0  0  0  0  0  0  0  0  0
   13.3660    4.1610  -59.1740 C   0  0  0  0  0  0  0  0  0  0  0  0
   12.0050    3.6590  -58.6970 C   0  0  0  0  0  0  0  0  0  0  0  0
    8.6340    3.1590  -61.2690 C   0  0  0  0  0  0  0  0  0  0  0  0
    7.5340    2.7170  -61.9080 C   0  0  0  0  0  0  0  0  0  0  0  0
    6.4230    2.4620  -61.0870 C   0  0  0  0  0  0  0  0  0  0  0  0
    5.2070    2.0170  -61.5210 N   0  0  0  0  0  0  0  0  0  0  0  0
    2.7940    0.6310  -60.0750 H   0  0  0  0  0  0  0  0  0  0  0  0
    2.5860    1.6080  -61.4410 H   0  0  0  0  0  0  0  0  0  0  0  0
    4.6928    2.2718  -58.2655 H   0  0  0  0  0  0  0  0  0  0  0  0
    7.4710    3.1990  -58.0480 H   0  0  0  0  0  0  0  0  0  0  0  0
   11.0109    3.6838  -60.6020 H   0  0  0  0  0  0  0  0  0  0  0  0
   10.1273    5.9929  -60.4415 H   0  0  0  0  0  0  0  0  0  0  0  0
   10.7072    6.0961  -58.7271 H   0  0  0  0  0  0  0  0  0  0  0  0
   12.4283    5.8291  -61.2307 H   0  0  0  0  0  0  0  0  0  0  0  0
   12.2480    7.2812  -60.1615 H   0  0  0  0  0  0  0  0  0  0  0  0
   14.3504    5.9836  -59.7518 H   0  0  0  0  0  0  0  0  0  0  0  0
   13.2580    6.1176  -58.3113 H   0  0  0  0  0  0  0  0  0  0  0  0
   13.5895    3.7105  -60.1523 H   0  0  0  0  0  0  0  0  0  0  0  0
   14.1197    3.8726  -58.4265 H   0  0  0  0  0  0  0  0  0  0  0  0
   12.0126    2.5591  -58.6896 H   0  0  0  0  0  0  0  0  0  0  0  0
   11.8257    4.0571  -57.6873 H   0  0  0  0  0  0  0  0  0  0  0  0
    9.5517    3.3841  -61.8322 H   0  0  0  0  0  0  0  0  0  0  0  0
    7.5073    2.5661  -62.9973 H   0  0  0  0  0  0  0  0  0  0  0  0
    4.9450    1.8290  -62.4770 H   0  0  0  0  0  0  0  0  0  0  0  0
  1  2  1  0
  2  3  2  0
  3  4  1  0
  4  5  1  0
  5  6  1  0
  6  7  2  0
  7  8  1  0
  8  9  1  0
  9 10  1  0
 10 11  1  0
 11 12  1  0
 12 13  1  0
  6 14  1  0
 14 15  2  0
 15 16  1  0
 16 17  1  0
 17  2  1  0
 16  4  2  0
 13  8  1  0
  1 18  1  0
  1 19  1  0
  3 20  1  0
  5 21  1  0
  8 22  1  0
  9 23  1  0
  9 24  1  0
 10 25  1  0
 10 26  1  0
 11 27  1  0
 11 28  1  0
 12 29  1  0
 12 30  1  0
 13 31  1  0
 13 32  1  0
 14 33  1  0
 15 34  1  0
 17 35  1  0
M  END
>  <meeko>  (36) 
{"is_sidechain": false}

$$$$

     RDKit          3D

 35 37  0  0  0  0  0  0  0  0999 V2000
   12.5380   -5.6010  -58.6910 N   0  0  0  0  0  0  0  0  0  0  0  0
   11.9530   -4.8920  -57.7100 C   0  0  0  0  0  0  0  0  0  0  0  0
   11.1690   -5.2970  -56.6460 C   0  0  0  0  0  0  0  0  0  0  0  0
   10.8290   -4.1310  -55.9390 C   0  0  0  0  0  0  0  0  0  0  0  0
   10.0880   -3.9530  -54.8280 N   0  0  0  0  0  0  0  0  0  0  0  0
    9.9120   -2.6500  -54.3660 C   0  0  0  0  0  0  0  0  0  0  0  0
    9.2270   -2.2940  -53.3260 N   0  0  0  0  0  0  0  0  0  0  0  0
    8.5570   -3.2910  -52.4920 C   0  0  0  0  0  0  0  0  0  0  0  0
    8.8760   -2.9630  -51.0220 C   0  0  0  0  0  0  0  0  0  0  0  0
    7.7870   -3.4070  -50.0420 C   0  0  0  0  0  0  0  0  0  0  0  0
    7.0020   -4.6010  -50.5650 C   0  0  0  0  0  0  0  0  0  0  0  0
    6.3090   -4.2890  -51.8910 C   0  0  0  0  0  0  0  0  0  0  0  0
    7.0480   -3.2490  -52.7360 C   0  0  0  0  0  0  0  0  0  0  0  0
   10.5530   -1.4800  -55.1010 C   0  0  0  0  0  0  0  0  0  0  0  0
   11.2880   -1.7080  -56.2040 C   0  0  0  0  0  0  0  0  0  0  0  0
   11.3930   -3.0580  -56.5790 C   0  0  0  0  0  0  0  0  0  0  0  0
   12.0770   -3.5210  -57.6650 N   0  0  0  0  0  0  0  0  0  0  0  0
   13.4260   -6.0660  -58.5140 H   0  0  0  0  0  0  0  0  0  0  0  0
   12.3990   -5.3830  -59.6740 H   0  0  0  0  0  0  0  0  0  0  0  0
   10.8706   -6.3271  -56.4013 H   0  0  0  0  0  0  0  0  0  0  0  0
    9.6320   -4.7130  -54.3500 H   0  0  0  0  0  0  0  0  0  0  0  0
    8.9098   -4.3032  -52.7389 H   0  0  0  0  0  0  0  0  0  0  0  0
    9.8149   -3.4672  -50.7496 H   0  0  0  0  0  0  0  0  0  0  0  0
    8.9501   -1.8681  -50.9457 H   0  0  0  0  0  0  0  0  0  0  0  0
    8.2591   -3.6829  -49.0876 H   0  0  0  0  0  0  0  0  0  0  0  0
    7.0854   -2.5699  -49.9115 H   0  0  0  0  0  0  0  0  0  0  0  0
    7.6932   -5.4436  -50.7143 H   0  0  0  0  0  0  0  0  0  0  0  0
    6.2272   -4.8509  -49.8252 H   0  0  0  0  0  0  0  0  0  0  0  0
    6.2338   -5.2200  -52.4721 H   0  0  0  0  0  0  0  0  0  0  0  0
    5.3222   -3.8674  -51.6490 H   0  0  0  0  0  0  0  0  0  0  0  0
    6.8531   -3.4502  -53.7997 H   0  0  0  0  0  0  0  0  0  0  0  0
    6.6820   -2.2519  -52.4500 H   0  0  0  0  0  0  0  0  0  0  0  0
   10.4154   -0.4532  -54.7313 H   0  0  0  0  0  0  0  0  0  0  0  0
   11.7709   -0.8980  -56.7703 H   0  0  0  0  0  0  0  0  0  0  0  0
   12.5820   -2.9620  -58.3370 H   0  0  0  0  0  0  0  0  0  0  0  0
  1  2  1  0
  2  3  2  0
  3  4  1  0
  4  5  1  0
  5  6  1  0
  6  7  2  0
  7  8  1  0
  8  9  1  0
  9 10  1  0
 10 11  1  0
 11 12  1  0
 12 13  1  0
  6 14  1  0
 14 15  2  0
 15 16  1  0
 16 17  1  0
 17  2  1  0
 16  4  2  0
 13  8  1  0
  1 18  1  0
  1 19  1  0
  3 20  1  0
  5 21  1  0
  8 22  1  0
  9 23  1  0
  9 24  1  0
 10 25  1  0
 10 26  1  0
 11 27  1  0
 11 28  1  0
 12 29  1  0
 12 30  1  0
 13 31  1  0
 13 32  1  0
 14 33  1  0
 15 34  1  0
 17 35  1  0
M  END
>  <meeko>  (37) 
{"is_sidechain": false}

$$$$

     RDKit          3D

 39 41  0  0  0  0  0  0  0  0999 V2000
    2.5780    1.7660  -62.8590 N   0  0  0  0  0  0  0  0  0  0  0  0
    3.3770    1.8860  -61.7630 C   0  0  0  0  0  0  0  0  0  0  0  0
    4.8350    1.6540  -61.7820 C   0  0  0  0  0  0  0  0  0  0  0  0
    5.1700    1.9020  -60.5180 C   0  0  0  0  0  0  0  0  0  0  0  0
    6.3660    1.8770  -59.8460 N   0  0  0  0  0  0  0  0  0  0  0  0
    6.4750    2.1260  -58.4850 C   0  0  0  0  0  0  0  0  0  0  0  0
    7.7200    2.0410  -57.9040 N   0  0  0  0  0  0  0  0  0  0  0  0
    8.6660    3.1170  -57.6520 C   0  0  0  0  0  0  0  0  0  0  0  0
   10.0620    2.8060  -58.2260 C   0  0  1  0  0  0  0  0  0  0  0  0
    9.9850    2.5600  -59.7460 C   0  0  0  0  0  0  0  0  0  0  0  0
    9.7410    3.8380  -60.5460 C   0  0  0  0  0  0  0  0  0  0  0  0
   10.7720    4.9140  -60.2200 C   0  0  0  0  0  0  0  0  0  0  0  0
   10.8590    5.1870  -58.7190 C   0  0  0  0  0  0  0  0  0  0  0  0
   11.0910    3.9080  -57.9100 C   0  0  2  0  0  0  0  0  0  0  0  0
   12.4050    3.4300  -58.2170 O   0  0  0  0  0  0  0  0  0  0  0  0
    5.3460    2.4380  -57.7970 C   0  0  0  0  0  0  0  0  0  0  0  0
    4.0470    2.5130  -58.4630 C   0  0  0  0  0  0  0  0  0  0  0  0
    3.9790    2.2510  -59.7730 C   0  0  0  0  0  0  0  0  0  0  0  0
    2.8910    2.2350  -60.6000 N   0  0  0  0  0  0  0  0  0  0  0  0
    2.9950    2.0130  -63.7470 H   0  0  0  0  0  0  0  0  0  0  0  0
    1.6690    2.1940  -62.7120 H   0  0  0  0  0  0  0  0  0  0  0  0
    5.4777    1.3540  -62.6228 H   0  0  0  0  0  0  0  0  0  0  0  0
    7.1740    1.5120  -60.3230 H   0  0  0  0  0  0  0  0  0  0  0  0
    8.1320    1.1180  -57.9760 H   0  0  0  0  0  0  0  0  0  0  0  0
    8.2877    4.0387  -58.1183 H   0  0  0  0  0  0  0  0  0  0  0  0
    8.7652    3.2334  -56.5627 H   0  0  0  0  0  0  0  0  0  0  0  0
   10.4109    1.8877  -57.7310 H   0  0  0  0  0  0  0  0  0  0  0  0
   10.9347    2.1149  -60.0776 H   0  0  0  0  0  0  0  0  0  0  0  0
    9.1317    1.8901  -59.9280 H   0  0  0  0  0  0  0  0  0  0  0  0
    9.7982    3.6031  -61.6191 H   0  0  0  0  0  0  0  0  0  0  0  0
    8.7463    4.2245  -60.2792 H   0  0  0  0  0  0  0  0  0  0  0  0
   11.7575    4.5818  -60.5783 H   0  0  0  0  0  0  0  0  0  0  0  0
   10.4609    5.8446  -60.7173 H   0  0  0  0  0  0  0  0  0  0  0  0
   11.6929    5.8798  -58.5329 H   0  0  0  0  0  0  0  0  0  0  0  0
    9.8996    5.6193  -58.3987 H   0  0  0  0  0  0  0  0  0  0  0  0
   10.9802    4.1489  -56.8424 H   0  0  0  0  0  0  0  0  0  0  0  0
   12.7600    4.0000  -58.9210 H   0  0  0  0  0  0  0  0  0  0  0  0
    5.4106    2.6382  -56.7173 H   0  0  0  0  0  0  0  0  0  0  0  0
    3.1421    2.7800  -57.8974 H   0  0  0  0  0  0  0  0  0  0  0  0
  1  2  1  0
  2  3  1  0
  3  4  2  0
  4  5  1  0
  5  6  1  0
  6  7  1  0
  7  8  1  0
  8  9  1  0
  9 10  1  0
 10 11  1  0
 11 12  1  0
 12 13  1  0
 13 14  1  0
 14 15  1  0
  6 16  2  0
 16 17  1  0
 17 18  2  0
 18 19  1  0
 19  2  2  0
 18  4  1  0
 14  9  1  0
  1 20  1  0
  1 21  1  0
  3 22  1  0
  5 23  1  0
  7 24  1  0
  8 25  1  0
  8 26  1  0
  9 27  1  1
 10 28  1  0
 10 29  1  0
 11 30  1  0
 11 31  1  0
 12 32  1  0
 12 33  1  0
 13 34  1  0
 13 35  1  0
 14 36  1  1
 15 37  1  0
 16 38  1  0
 17 39  1  0
M  END
>  <meeko>  (38) 
{"is_sidechain": false}

$$$$

     RDKit          3D

 39 41  0  0  0  0  0  0  0  0999 V2000
    7.7330   -0.6220  -54.2390 N   0  0  0  0  0  0  0  0  0  0  0  0
    7.6250    0.3530  -55.1830 C   0  0  0  0  0  0  0  0  0  0  0  0
    8.7610    1.1710  -55.6520 C   0  0  0  0  0  0  0  0  0  0  0  0
    8.1760    1.9750  -56.5360 C   0  0  0  0  0  0  0  0  0  0  0  0
    8.6480    2.9790  -57.3400 N   0  0  0  0  0  0  0  0  0  0  0  0
    7.8460    3.6750  -58.2340 C   0  0  0  0  0  0  0  0  0  0  0  0
    8.4370    4.6480  -59.0130 N   0  0  0  0  0  0  0  0  0  0  0  0
    9.7240    5.2750  -58.7470 C   0  0  0  0  0  0  0  0  0  0  0  0
   10.7340    4.9610  -59.8770 C   0  0  1  0  0  0  0  0  0  0  0  0
   11.8150    6.0630  -59.9500 C   0  0  0  0  0  0  0  0  0  0  0  0
   13.1780    5.6470  -59.3860 C   0  0  0  0  0  0  0  0  0  0  0  0
   13.0530    4.7200  -58.1840 C   0  0  0  0  0  0  0  0  0  0  0  0
   12.2620    3.4500  -58.5030 C   0  0  0  0  0  0  0  0  0  0  0  0
   11.3990    3.5780  -59.7600 C   0  0  1  0  0  0  0  0  0  0  0  0
   10.4370    2.5250  -59.7740 O   0  0  0  0  0  0  0  0  0  0  0  0
    6.5270    3.3570  -58.2960 C   0  0  0  0  0  0  0  0  0  0  0  0
    5.9580    2.3110  -57.4470 C   0  0  0  0  0  0  0  0  0  0  0  0
    6.7660    1.6540  -56.6070 C   0  0  0  0  0  0  0  0  0  0  0  0
    6.4750    0.6400  -55.7370 N   0  0  0  0  0  0  0  0  0  0  0  0
    8.4210   -0.4660  -53.5130 H   0  0  0  0  0  0  0  0  0  0  0  0
    6.8250   -0.8960  -53.8760 H   0  0  0  0  0  0  0  0  0  0  0  0
    9.8175    1.1271  -55.3490 H   0  0  0  0  0  0  0  0  0  0  0  0
    9.6400    3.1540  -57.3730 H   0  0  0  0  0  0  0  0  0  0  0  0
    8.3430    4.4150  -60.0060 H   0  0  0  0  0  0  0  0  0  0  0  0
    9.5869    6.3643  -58.6786 H   0  0  0  0  0  0  0  0  0  0  0  0
   10.1200    4.8780  -57.8006 H   0  0  0  0  0  0  0  0  0  0  0  0
   10.1469    4.9398  -60.8070 H   0  0  0  0  0  0  0  0  0  0  0  0
   11.9498    6.3441  -61.0049 H   0  0  0  0  0  0  0  0  0  0  0  0
   11.4576    6.8969  -59.3280 H   0  0  0  0  0  0  0  0  0  0  0  0
   13.7427    5.1281  -60.1746 H   0  0  0  0  0  0  0  0  0  0  0  0
   13.6945    6.5592  -59.0526 H   0  0  0  0  0  0  0  0  0  0  0  0
   14.0622    4.4333  -57.8533 H   0  0  0  0  0  0  0  0  0  0  0  0
   12.5089    5.2639  -57.3978 H   0  0  0  0  0  0  0  0  0  0  0  0
   12.9724    2.6230  -58.6492 H   0  0  0  0  0  0  0  0  0  0  0  0
   11.5830    3.2663  -57.6573 H   0  0  0  0  0  0  0  0  0  0  0  0
   12.0496    3.4860  -60.6422 H   0  0  0  0  0  0  0  0  0  0  0  0
   10.6170    1.9920  -60.5710 H   0  0  0  0  0  0  0  0  0  0  0  0
    5.8743    3.8965  -58.9981 H   0  0  0  0  0  0  0  0  0  0  0  0
    4.8862    2.0690  -57.4980 H   0  0  0  0  0  0  0  0  0  0  0  0
  1  2  1  0
  2  3  1  0
  3  4  2  0
  4  5  1  0
  5  6  1  0
  6  7  1  0
  7  8  1  0
  8  9  1  0
  9 10  1  0
 10 11  1  0
 11 12  1  0
 12 13  1  0
 13 14  1  0
 14 15  1  0
  6 16  2  0
 16 17  1  0
 17 18  2  0
 18 19  1  0
 19  2  2  0
 18  4  1  0
 14  9  1  0
  1 20  1  0
  1 21  1  0
  3 22  1  0
  5 23  1  0
  7 24  1  0
  8 25  1  0
  8 26  1  0
  9 27  1  6
 10 28  1  0
 10 29  1  0
 11 30  1  0
 11 31  1  0
 12 32  1  0
 12 33  1  0
 13 34  1  0
 13 35  1  0
 14 36  1  6
 15 37  1  0
 16 38  1  0
 17 39  1  0
M  END
>  <meeko>  (39) 
{"is_sidechain": false}

$$$$

     RDKit          3D

 39 41  0  0  0  0  0  0  0  0999 V2000
    3.1080    1.9630  -61.7780 N   0  0  0  0  0  0  0  0  0  0  0  0
    3.9450    2.0600  -60.8110 C   0  0  0  0  0  0  0  0  0  0  0  0
    5.4170    1.9780  -61.0030 C   0  0  0  0  0  0  0  0  0  0  0  0
    5.9130    2.1220  -59.7620 C   0  0  0  0  0  0  0  0  0  0  0  0
    7.1990    2.1330  -59.2910 N   0  0  0  0  0  0  0  0  0  0  0  0
    7.5270    2.2950  -57.9560 C   0  0  0  0  0  0  0  0  0  0  0  0
    8.8360    2.3020  -57.5260 N   0  0  0  0  0  0  0  0  0  0  0  0
   10.0290    2.2510  -58.3550 C   0  0  0  0  0  0  0  0  0  0  0  0
   10.7710    3.6000  -58.3770 C   0  0  1  0  0  0  0  0  0  0  0  0
   12.2600    3.4290  -58.0270 C   0  0  0  0  0  0  0  0  0  0  0  0
   13.0210    4.7510  -58.1100 C   0  0  0  0  0  0  0  0  0  0  0  0
   12.8540    5.4130  -59.4720 C   0  0  0  0  0  0  0  0  0  0  0  0
   11.3840    5.5940  -59.8250 C   0  0  0  0  0  0  0  0  0  0  0  0
   10.6140    4.2750  -59.7510 C   0  0  2  0  0  0  0  0  0  0  0  0
    9.2330    4.5330  -59.9930 O   0  0  0  0  0  0  0  0  0  0  0  0
    6.5170    2.4480  -57.0620 C   0  0  0  0  0  0  0  0  0  0  0  0
    5.1180    2.4480  -57.4830 C   0  0  0  0  0  0  0  0  0  0  0  0
    4.8290    2.2920  -58.7820 C   0  0  0  0  0  0  0  0  0  0  0  0
    3.6670    2.2460  -59.4860 N   0  0  0  0  0  0  0  0  0  0  0  0
    2.1580    2.0480  -61.4090 H   0  0  0  0  0  0  0  0  0  0  0  0
    5.9712    1.8332  -61.9421 H   0  0  0  0  0  0  0  0  0  0  0  0
    7.9550    2.0070  -59.9480 H   0  0  0  0  0  0  0  0  0  0  0  0
    8.9720    2.6780  -56.5930 H   0  0  0  0  0  0  0  0  0  0  0  0
   10.7052    1.4796  -57.9580 H   0  0  0  0  0  0  0  0  0  0  0  0
    9.7193    2.0154  -59.3839 H   0  0  0  0  0  0  0  0  0  0  0  0
   10.3192    4.2462  -57.6100 H   0  0  0  0  0  0  0  0  0  0  0  0
   12.3416    3.0356  -57.0030 H   0  0  0  0  0  0  0  0  0  0  0  0
   12.7035    2.7344  -58.7556 H   0  0  0  0  0  0  0  0  0  0  0  0
   12.6398    5.4311  -57.3340 H   0  0  0  0  0  0  0  0  0  0  0  0
   14.0903    4.5411  -57.9597 H   0  0  0  0  0  0  0  0  0  0  0  0
   13.3416    6.3989  -59.4530 H   0  0  0  0  0  0  0  0  0  0  0  0
   13.3151    4.7642  -60.2312 H   0  0  0  0  0  0  0  0  0  0  0  0
   10.9342    6.3086  -59.1200 H   0  0  0  0  0  0  0  0  0  0  0  0
   11.3246    5.9663  -60.8584 H   0  0  0  0  0  0  0  0  0  0  0  0
   11.0232    3.5934  -60.5112 H   0  0  0  0  0  0  0  0  0  0  0  0
    8.9070    5.1030  -59.2750 H   0  0  0  0  0  0  0  0  0  0  0  0
    6.7574    2.5749  -55.9961 H   0  0  0  0  0  0  0  0  0  0  0  0
    4.3132    2.5743  -56.7439 H   0  0  0  0  0  0  0  0  0  0  0  0
    2.7610    2.3270  -59.0620 H   0  0  0  0  0  0  0  0  0  0  0  0
  1  2  2  3
  2  3  1  0
  3  4  2  0
  4  5  1  0
  5  6  1  0
  6  7  1  0
  7  8  1  0
  8  9  1  0
  9 10  1  0
 10 11  1  0
 11 12  1  0
 12 13  1  0
 13 14  1  0
 14 15  1  0
  6 16  2  0
 16 17  1  0
 17 18  2  0
 18 19  1  0
 19  2  1  0
 18  4  1  0
 14  9  1  0
  1 20  1  0
  3 21  1  0
  5 22  1  0
  7 23  1  0
  8 24  1  0
  8 25  1  0
  9 26  1  1
 10 27  1  0
 10 28  1  0
 11 29  1  0
 11 30  1  0
 12 31  1  0
 12 32  1  0
 13 33  1  0
 13 34  1  0
 14 35  1  6
 15 36  1  0
 16 37  1  0
 17 38  1  0
 19 39  1  0
M  END
>  <meeko>  (40) 
{"is_sidechain": false}

$$$$

     RDKit          3D

 39 41  0  0  0  0  0  0  0  0999 V2000
    7.8430   -0.6270  -54.2430 N   0  0  0  0  0  0  0  0  0  0  0  0
    7.6980    0.3050  -55.1160 C   0  0  0  0  0  0  0  0  0  0  0  0
    8.7940    1.1530  -55.6640 C   0  0  0  0  0  0  0  0  0  0  0  0
    8.1670    1.9600  -56.5390 C   0  0  0  0  0  0  0  0  0  0  0  0
    8.6370    2.9550  -57.3560 N   0  0  0  0  0  0  0  0  0  0  0  0
    7.8380    3.6570  -58.2430 C   0  0  0  0  0  0  0  0  0  0  0  0
    8.4350    4.6090  -59.0390 N   0  0  0  0  0  0  0  0  0  0  0  0
    9.6960    5.2810  -58.7670 C   0  0  0  0  0  0  0  0  0  0  0  0
   10.7220    4.9840  -59.8850 C   0  0  1  0  0  0  0  0  0  0  0  0
   11.8080    6.0820  -59.9340 C   0  0  0  0  0  0  0  0  0  0  0  0
   13.1690    5.6500  -59.3820 C   0  0  0  0  0  0  0  0  0  0  0  0
   13.0360    4.7200  -58.1840 C   0  0  0  0  0  0  0  0  0  0  0  0
   12.2470    3.4530  -58.5180 C   0  0  0  0  0  0  0  0  0  0  0  0
   11.3740    3.5920  -59.7670 C   0  0  1  0  0  0  0  0  0  0  0  0
   10.3890    2.5580  -59.7790 O   0  0  0  0  0  0  0  0  0  0  0  0
    6.5130    3.3660  -58.2870 C   0  0  0  0  0  0  0  0  0  0  0  0
    5.9310    2.3430  -57.4240 C   0  0  0  0  0  0  0  0  0  0  0  0
    6.7260    1.6660  -56.5860 C   0  0  0  0  0  0  0  0  0  0  0  0
    6.5170    0.6700  -55.6880 N   0  0  0  0  0  0  0  0  0  0  0  0
    8.8270   -0.7070  -53.9720 H   0  0  0  0  0  0  0  0  0  0  0  0
    9.8644    1.1256  -55.4122 H   0  0  0  0  0  0  0  0  0  0  0  0
    9.6320    3.1010  -57.4250 H   0  0  0  0  0  0  0  0  0  0  0  0
    8.3440    4.3820  -60.0340 H   0  0  0  0  0  0  0  0  0  0  0  0
    9.5234    6.3661  -58.7134 H   0  0  0  0  0  0  0  0  0  0  0  0
   10.0959    4.9121  -57.8110 H   0  0  0  0  0  0  0  0  0  0  0  0
   10.1547    4.9843  -60.8274 H   0  0  0  0  0  0  0  0  0  0  0  0
   11.9427    6.3862  -60.9825 H   0  0  0  0  0  0  0  0  0  0  0  0
   11.4546    6.9022  -59.2918 H   0  0  0  0  0  0  0  0  0  0  0  0
   13.7234    5.1279  -60.1757 H   0  0  0  0  0  0  0  0  0  0  0  0
   13.7005    6.5540  -59.0498 H   0  0  0  0  0  0  0  0  0  0  0  0
   14.0424    4.4314  -57.8466 H   0  0  0  0  0  0  0  0  0  0  0  0
   12.4884    5.2601  -57.3976 H   0  0  0  0  0  0  0  0  0  0  0  0
   12.9598    2.6311  -58.6806 H   0  0  0  0  0  0  0  0  0  0  0  0
   11.5730    3.2576  -57.6709 H   0  0  0  0  0  0  0  0  0  0  0  0
   12.0260    3.4861  -60.6466 H   0  0  0  0  0  0  0  0  0  0  0  0
   10.7660    1.7980  -59.3000 H   0  0  0  0  0  0  0  0  0  0  0  0
    5.8645    3.9125  -58.9875 H   0  0  0  0  0  0  0  0  0  0  0  0
    4.8523    2.1308  -57.4616 H   0  0  0  0  0  0  0  0  0  0  0  0
    5.6350    0.2210  -55.5170 H   0  0  0  0  0  0  0  0  0  0  0  0
  1  2  2  3
  2  3  1  0
  3  4  2  0
  4  5  1  0
  5  6  1  0
  6  7  1  0
  7  8  1  0
  8  9  1  0
  9 10  1  0
 10 11  1  0
 11 12  1  0
 12 13  1  0
 13 14  1  0
 14 15  1  0
  6 16  2  0
 16 17  1  0
 17 18  2  0
 18 19  1  0
 19  2  1  0
 18  4  1  0
 14  9  1  0
  1 20  1  0
  3 21  1  0
  5 22  1  0
  7 23  1  0
  8 24  1  0
  8 25  1  0
  9 26  1  6
 10 27  1  0
 10 28  1  0
 11 29  1  0
 11 30  1  0
 12 31  1  0
 12 32  1  0
 13 33  1  0
 13 34  1  0
 14 35  1  6
 15 36  1  0
 16 37  1  0
 17 38  1  0
 19 39  1  0
M  END
>  <meeko>  (41) 
{"is_sidechain": false}

$$$$

     RDKit          3D

 39 41  0  0  0  0  0  0  0  0999 V2000
    2.5310    1.6850  -63.1340 N   0  0  0  0  0  0  0  0  0  0  0  0
    3.5970    1.8180  -62.3270 C   0  0  0  0  0  0  0  0  0  0  0  0
    3.7440    1.5940  -60.9770 C   0  0  0  0  0  0  0  0  0  0  0  0
    5.0870    1.8940  -60.6430 C   0  0  0  0  0  0  0  0  0  0  0  0
    5.7010    1.8300  -59.4390 N   0  0  0  0  0  0  0  0  0  0  0  0
    7.0000    2.1790  -59.4160 C   0  0  0  0  0  0  0  0  0  0  0  0
    7.7280    2.1250  -58.2030 N   0  0  0  0  0  0  0  0  0  0  0  0
    9.1740    2.2910  -58.3690 C   0  0  0  0  0  0  0  0  0  0  0  0
    9.6890    3.3690  -57.3920 C   0  0  1  0  0  0  0  0  0  0  0  0
   11.2040    3.6110  -57.5820 C   0  0  0  0  0  0  0  0  0  0  0  0
   11.5610    4.8960  -58.3310 C   0  0  0  0  0  0  0  0  0  0  0  0
   10.5360    5.2490  -59.3980 C   0  0  0  0  0  0  0  0  0  0  0  0
    9.1230    5.4170  -58.8290 C   0  0  0  0  0  0  0  0  0  0  0  0
    8.8910    4.6790  -57.5070 C   0  0  2  0  0  0  0  0  0  0  0  0
    9.2770    5.5520  -56.4370 O   0  0  0  0  0  0  0  0  0  0  0  0
    7.7060    2.5730  -60.5580 C   0  0  0  0  0  0  0  0  0  0  0  0
    7.0790    2.6430  -61.8010 C   0  0  0  0  0  0  0  0  0  0  0  0
    5.7350    2.2900  -61.8090 C   0  0  0  0  0  0  0  0  0  0  0  0
    4.8070    2.2290  -62.8220 N   0  0  0  0  0  0  0  0  0  0  0  0
    2.6520    1.3140  -64.0740 H   0  0  0  0  0  0  0  0  0  0  0  0
    1.5860    1.5680  -62.7810 H   0  0  0  0  0  0  0  0  0  0  0  0
    2.9626    1.2462  -60.2853 H   0  0  0  0  0  0  0  0  0  0  0  0
    7.4980    1.2480  -57.7440 H   0  0  0  0  0  0  0  0  0  0  0  0
    9.6782    1.3362  -58.1590 H   0  0  0  0  0  0  0  0  0  0  0  0
    9.3889    2.6026  -59.4018 H   0  0  0  0  0  0  0  0  0  0  0  0
    9.5324    2.9887  -56.3718 H   0  0  0  0  0  0  0  0  0  0  0  0
   11.6707    3.6544  -56.5869 H   0  0  0  0  0  0  0  0  0  0  0  0
   11.5744    2.7800  -58.2002 H   0  0  0  0  0  0  0  0  0  0  0  0
   11.6168    5.7227  -57.6075 H   0  0  0  0  0  0  0  0  0  0  0  0
   12.5261    4.7343  -58.8335 H   0  0  0  0  0  0  0  0  0  0  0  0
   10.8370    6.1926  -59.8765 H   0  0  0  0  0  0  0  0  0  0  0  0
   10.5072    4.4183  -60.1184 H   0  0  0  0  0  0  0  0  0  0  0  0
    8.9425    6.4893  -58.6627 H   0  0  0  0  0  0  0  0  0  0  0  0
    8.4306    4.9793  -59.5631 H   0  0  0  0  0  0  0  0  0  0  0  0
    7.8260    4.4080  -57.4593 H   0  0  0  0  0  0  0  0  0  0  0  0
    8.9420    6.4390  -56.6560 H   0  0  0  0  0  0  0  0  0  0  0  0
    8.7719    2.8314  -60.4736 H   0  0  0  0  0  0  0  0  0  0  0  0
    7.6108    2.9557  -62.7117 H   0  0  0  0  0  0  0  0  0  0  0  0
    4.9910    2.4420  -63.7890 H   0  0  0  0  0  0  0  0  0  0  0  0
  1  2  1  0
  2  3  2  0
  3  4  1  0
  4  5  1  0
  5  6  2  0
  6  7  1  0
  7  8  1  0
  8  9  1  0
  9 10  1  0
 10 11  1  0
 11 12  1  0
 12 13  1  0
 13 14  1  0
 14 15  1  0
  6 16  1  0
 16 17  2  0
 17 18  1  0
 18 19  1  0
 19  2  1  0
 18  4  2  0
 14  9  1  0
  1 20  1  0
  1 21  1  0
  3 22  1  0
  7 23  1  0
  8 24  1  0
  8 25  1  0
  9 26  1  1
 10 27  1  0
 10 28  1  0
 11 29  1  0
 11 30  1  0
 12 31  1  0
 12 32  1  0
 13 33  1  0
 13 34  1  0
 14 35  1  1
 15 36  1  0
 16 37  1  0
 17 38  1  0
 19 39  1  0
M  END
>  <meeko>  (42) 
{"is_sidechain": false}

$$$$

     RDKit          3D

 39 41  0  0  0  0  0  0  0  0999 V2000
    3.0600    1.7730  -60.9100 N   0  0  0  0  0  0  0  0  0  0  0  0
    4.3780    1.9060  -60.6810 C   0  0  0  0  0  0  0  0  0  0  0  0
    5.1180    1.7540  -59.5310 C   0  0  0  0  0  0  0  0  0  0  0  0
    6.4700    2.0160  -59.8620 C   0  0  0  0  0  0  0  0  0  0  0  0
    7.5640    1.9830  -59.0640 N   0  0  0  0  0  0  0  0  0  0  0  0
    8.7280    2.2920  -59.6580 C   0  0  0  0  0  0  0  0  0  0  0  0
    9.8660    2.2500  -58.8350 N   0  0  0  0  0  0  0  0  0  0  0  0
    9.6730    2.9240  -57.5500 C   0  0  0  0  0  0  0  0  0  0  0  0
   10.7280    4.0350  -57.3670 C   0  0  1  0  0  0  0  0  0  0  0  0
   12.1310    3.4620  -57.6700 C   0  0  0  0  0  0  0  0  0  0  0  0
   13.1140    4.5340  -58.1160 C   0  0  0  0  0  0  0  0  0  0  0  0
   12.6570    5.2060  -59.4120 C   0  0  0  0  0  0  0  0  0  0  0  0
   11.1370    5.3000  -59.5420 C   0  0  0  0  0  0  0  0  0  0  0  0
   10.4500    5.3260  -58.1790 C   0  0  1  0  0  0  0  0  0  0  0  0
    9.0560    5.5510  -58.3460 O   0  0  0  0  0  0  0  0  0  0  0  0
    8.8510    2.6070  -61.0140 C   0  0  0  0  0  0  0  0  0  0  0  0
    7.7260    2.6400  -61.8390 C   0  0  0  0  0  0  0  0  0  0  0  0
    6.5220    2.3340  -61.2150 C   0  0  0  0  0  0  0  0  0  0  0  0
    5.2340    2.2620  -61.6900 N   0  0  0  0  0  0  0  0  0  0  0  0
    2.4450    1.5170  -60.1390 H   0  0  0  0  0  0  0  0  0  0  0  0
    2.6930    1.4850  -61.8130 H   0  0  0  0  0  0  0  0  0  0  0  0
    4.7312    1.4798  -58.5384 H   0  0  0  0  0  0  0  0  0  0  0  0
    9.9910    1.2460  -58.6430 H   0  0  0  0  0  0  0  0  0  0  0  0
    8.6676    3.3693  -57.5207 H   0  0  0  0  0  0  0  0  0  0  0  0
    9.7819    2.1887  -56.7392 H   0  0  0  0  0  0  0  0  0  0  0  0
   10.6720    4.3581  -56.3170 H   0  0  0  0  0  0  0  0  0  0  0  0
   12.5205    2.9829  -56.7597 H   0  0  0  0  0  0  0  0  0  0  0  0
   12.0267    2.7405  -58.4937 H   0  0  0  0  0  0  0  0  0  0  0  0
   13.1948    5.2961  -57.3269 H   0  0  0  0  0  0  0  0  0  0  0  0
   14.0879    4.0563  -58.2985 H   0  0  0  0  0  0  0  0  0  0  0  0
   13.0735    6.2236  -59.4431 H   0  0  0  0  0  0  0  0  0  0  0  0
   13.0170    4.5846  -60.2452 H   0  0  0  0  0  0  0  0  0  0  0  0
   10.8829    6.2216  -60.0861 H   0  0  0  0  0  0  0  0  0  0  0  0
   10.7854    4.4099  -60.0842 H   0  0  0  0  0  0  0  0  0  0  0  0
   10.8718    6.1569  -57.5944 H   0  0  0  0  0  0  0  0  0  0  0  0
    8.6790    5.7710  -57.4760 H   0  0  0  0  0  0  0  0  0  0  0  0
    9.8426    2.8307  -61.4344 H   0  0  0  0  0  0  0  0  0  0  0  0
    7.7876    2.8906  -62.9083 H   0  0  0  0  0  0  0  0  0  0  0  0
    4.9570    2.4540  -62.6410 H   0  0  0  0  0  0  0  0  0  0  0  0
  1  2  1  0
  2  3  2  0
  3  4  1  0
  4  5  1  0
  5  6  2  0
  6  7  1  0
  7  8  1  0
  8  9  1  0
  9 10  1  0
 10 11  1  0
 11 12  1  0
 12 13  1  0
 13 14  1  0
 14 15  1  0
  6 16  1  0
 16 17  2  0
 17 18  1  0
 18 19  1  0
 19  2  1  0
 18  4  2  0
 14  9  1  0
  1 20  1  0
  1 21  1  0
  3 22  1  0
  7 23  1  0
  8 24  1  0
  8 25  1  0
  9 26  1  1
 10 27  1  0
 10 28  1  0
 11 29  1  0
 11 30  1  0
 12 31  1  0
 12 32  1  0
 13 33  1  0
 13 34  1  0
 14 35  1  1
 15 36  1  0
 16 37  1  0
 17 38  1  0
 19 39  1  0
M  END
>  <meeko>  (43) 
{"is_sidechain": false}

$$$$

     RDKit          3D

 39 41  0  0  0  0  0  0  0  0999 V2000
    2.5340    1.8330  -62.8010 N   0  0  0  0  0  0  0  0  0  0  0  0
    3.7190    1.9060  -62.1730 C   0  0  0  0  0  0  0  0  0  0  0  0
    4.0690    1.6220  -60.8660 C   0  0  0  0  0  0  0  0  0  0  0  0
    5.4460    1.8770  -60.7620 C   0  0  0  0  0  0  0  0  0  0  0  0
    6.2940    1.7710  -59.7240 N   0  0  0  0  0  0  0  0  0  0  0  0
    7.6290    2.0920  -59.9260 C   0  0  0  0  0  0  0  0  0  0  0  0
    8.3980    1.9660  -58.8900 N   0  0  0  0  0  0  0  0  0  0  0  0
    9.8250    2.2700  -58.9810 C   0  0  0  0  0  0  0  0  0  0  0  0
   10.1800    3.3280  -57.9170 C   0  0  1  0  0  0  0  0  0  0  0  0
   11.6650    3.2440  -57.4890 C   0  0  0  0  0  0  0  0  0  0  0  0
   12.5570    4.3490  -58.0630 C   0  0  0  0  0  0  0  0  0  0  0  0
   12.1470    4.7460  -59.4730 C   0  0  0  0  0  0  0  0  0  0  0  0
   10.6950    5.2250  -59.5590 C   0  0  0  0  0  0  0  0  0  0  0  0
    9.8080    4.7360  -58.4070 C   0  0  2  0  0  0  0  0  0  0  0  0
    9.9200    5.6440  -57.3060 O   0  0  0  0  0  0  0  0  0  0  0  0
    8.1110    2.5580  -61.2990 C   0  0  0  0  0  0  0  0  0  0  0  0
    7.2250    2.6500  -62.3090 C   0  0  0  0  0  0  0  0  0  0  0  0
    5.9030    2.2970  -61.9840 C   0  0  0  0  0  0  0  0  0  0  0  0
    4.8490    2.3110  -62.8500 N   0  0  0  0  0  0  0  0  0  0  0  0
    2.4110    1.3180  -63.6690 H   0  0  0  0  0  0  0  0  0  0  0  0
    1.8650    2.5940  -62.6980 H   0  0  0  0  0  0  0  0  0  0  0  0
    3.4018    1.2670  -60.0668 H   0  0  0  0  0  0  0  0  0  0  0  0
    6.0420    1.4650  -58.7940 H   0  0  0  0  0  0  0  0  0  0  0  0
   10.4094    1.3555  -58.8015 H   0  0  0  0  0  0  0  0  0  0  0  0
   10.0601    2.6567  -59.9836 H   0  0  0  0  0  0  0  0  0  0  0  0
    9.5827    3.1123  -57.0189 H   0  0  0  0  0  0  0  0  0  0  0  0
   11.7097    3.3024  -56.3915 H   0  0  0  0  0  0  0  0  0  0  0  0
   12.0509    2.2936  -57.8863 H   0  0  0  0  0  0  0  0  0  0  0  0
   12.4883    5.2332  -57.4122 H   0  0  0  0  0  0  0  0  0  0  0  0
   13.5859    3.9626  -58.1074 H   0  0  0  0  0  0  0  0  0  0  0  0
   12.8054    5.5584  -59.8143 H   0  0  0  0  0  0  0  0  0  0  0  0
   12.2376    3.8518  -60.1072 H   0  0  0  0  0  0  0  0  0  0  0  0
   10.6927    6.3250  -59.5546 H   0  0  0  0  0  0  0  0  0  0  0  0
   10.2752    4.8046  -60.4848 H   0  0  0  0  0  0  0  0  0  0  0  0
    8.7788    4.6939  -58.7930 H   0  0  0  0  0  0  0  0  0  0  0  0
    9.5550    6.4980  -57.5910 H   0  0  0  0  0  0  0  0  0  0  0  0
    9.1683    2.8151  -61.4604 H   0  0  0  0  0  0  0  0  0  0  0  0
    7.5151    2.9784  -63.3180 H   0  0  0  0  0  0  0  0  0  0  0  0
    4.8790    2.5600  -63.8270 H   0  0  0  0  0  0  0  0  0  0  0  0
  1  2  1  0
  2  3  2  0
  3  4  1  0
  4  5  1  0
  5  6  1  0
  6  7  2  0
  7  8  1  0
  8  9  1  0
  9 10  1  0
 10 11  1  0
 11 12  1  0
 12 13  1  0
 13 14  1  0
 14 15  1  0
  6 16  1  0
 16 17  2  0
 17 18  1  0
 18 19  1  0
 19  2  1  0
 18  4  2  0
 14  9  1  0
  1 20  1  0
  1 21  1  0
  3 22  1  0
  5 23  1  0
  8 24  1  0
  8 25  1  0
  9 26  1  1
 10 27  1  0
 10 28  1  0
 11 29  1  0
 11 30  1  0
 12 31  1  0
 12 32  1  0
 13 33  1  0
 13 34  1  0
 14 35  1  6
 15 36  1  0
 16 37  1  0
 17 38  1  0
 19 39  1  0
M  END
>  <meeko>  (44) 
{"is_sidechain": false}

$$$$

     RDKit          3D

 39 41  0  0  0  0  0  0  0  0999 V2000
    2.5320    1.6790  -62.9490 N   0  0  0  0  0  0  0  0  0  0  0  0
    3.7300    1.8430  -62.3640 C   0  0  0  0  0  0  0  0  0  0  0  0
    4.9260    2.3200  -62.8690 C   0  0  0  0  0  0  0  0  0  0  0  0
    5.8480    2.2730  -61.8110 C   0  0  0  0  0  0  0  0  0  0  0  0
    7.1460    2.6130  -61.7490 N   0  0  0  0  0  0  0  0  0  0  0  0
    7.8130    2.4530  -60.5400 C   0  0  0  0  0  0  0  0  0  0  0  0
    9.0670    2.7950  -60.5410 N   0  0  0  0  0  0  0  0  0  0  0  0
    9.8680    2.6550  -59.3250 C   0  0  0  0  0  0  0  0  0  0  0  0
   11.1020    3.5760  -59.3950 C   0  0  1  0  0  0  0  0  0  0  0  0
   10.7910    4.8820  -60.1540 C   0  0  0  0  0  0  0  0  0  0  0  0
   11.7780    6.0140  -59.8490 C   0  0  0  0  0  0  0  0  0  0  0  0
   13.1340    5.4940  -59.3950 C   0  0  0  0  0  0  0  0  0  0  0  0
   13.0350    4.6330  -58.1310 C   0  0  0  0  0  0  0  0  0  0  0  0
   11.7120    3.8650  -58.0120 C   0  0  1  0  0  0  0  0  0  0  0  0
   10.8160    4.6450  -57.2170 O   0  0  0  0  0  0  0  0  0  0  0  0
    7.0750    1.9100  -59.3180 C   0  0  0  0  0  0  0  0  0  0  0  0
    5.7730    1.5850  -59.4280 C   0  0  0  0  0  0  0  0  0  0  0  0
    5.2080    1.7850  -60.7000 C   0  0  0  0  0  0  0  0  0  0  0  0
    3.9120    1.5270  -61.0360 N   0  0  0  0  0  0  0  0  0  0  0  0
    1.7430    1.3540  -62.3940 H   0  0  0  0  0  0  0  0  0  0  0  0
    2.2440    2.2200  -63.7590 H   0  0  0  0  0  0  0  0  0  0  0  0
    5.1169    2.6671  -63.8952 H   0  0  0  0  0  0  0  0  0  0  0  0
    7.6850    2.9720  -62.5260 H   0  0  0  0  0  0  0  0  0  0  0  0
    9.2569    2.9310  -58.4530 H   0  0  0  0  0  0  0  0  0  0  0  0
   10.2024    1.6112  -59.2322 H   0  0  0  0  0  0  0  0  0  0  0  0
   11.8653    3.0253  -59.9644 H   0  0  0  0  0  0  0  0  0  0  0  0
   10.8225    4.6736  -61.2336 H   0  0  0  0  0  0  0  0  0  0  0  0
    9.7976    5.2202  -59.8241 H   0  0  0  0  0  0  0  0  0  0  0  0
   11.9171    6.6162  -60.7589 H   0  0  0  0  0  0  0  0  0  0  0  0
   11.3571    6.6144  -59.0290 H   0  0  0  0  0  0  0  0  0  0  0  0
   13.5684    4.8870  -60.2030 H   0  0  0  0  0  0  0  0  0  0  0  0
   13.7658    6.3634  -59.1605 H   0  0  0  0  0  0  0  0  0  0  0  0
   13.8598    3.9052  -58.1407 H   0  0  0  0  0  0  0  0  0  0  0  0
   13.0895    5.3162  -57.2706 H   0  0  0  0  0  0  0  0  0  0  0  0
   11.8947    2.8907  -57.5352 H   0  0  0  0  0  0  0  0  0  0  0  0
   10.4050    5.2840  -57.8400 H   0  0  0  0  0  0  0  0  0  0  0  0
    7.6007    1.7860  -58.3598 H   0  0  0  0  0  0  0  0  0  0  0  0
    5.1917    1.1904  -58.5816 H   0  0  0  0  0  0  0  0  0  0  0  0
    3.1920    1.1750  -60.4220 H   0  0  0  0  0  0  0  0  0  0  0  0
  1  2  1  0
  2  3  2  0
  3  4  1  0
  4  5  1  0
  5  6  1  0
  6  7  2  0
  7  8  1  0
  8  9  1  0
  9 10  1  0
 10 11  1  0
 11 12  1  0
 12 13  1  0
 13 14  1  0
 14 15  1  0
  6 16  1  0
 16 17  2  0
 17 18  1  0
 18 19  1  0
 19  2  1  0
 18  4  2  0
 14  9  1  0
  1 20  1  0
  1 21  1  0
  3 22  1  0
  5 23  1  0
  8 24  1  0
  8 25  1  0
  9 26  1  6
 10 27  1  0
 10 28  1  0
 11 29  1  0
 11 30  1  0
 12 31  1  0
 12 32  1  0
 13 33  1  0
 13 34  1  0
 14 35  1  1
 15 36  1  0
 16 37  1  0
 17 38  1  0
 19 39  1  0
M  END
>  <meeko>  (45) 
{"is_sidechain": false}

$$$$

     RDKit          3D

 39 41  0  0  0  0  0  0  0  0999 V2000
    2.5310    1.7730  -62.9110 N   0  0  0  0  0  0  0  0  0  0  0  0
    3.4150    1.9020  -61.9070 C   0  0  0  0  0  0  0  0  0  0  0  0
    4.7960    1.8270  -61.9030 C   0  0  0  0  0  0  0  0  0  0  0  0
    5.1990    2.0400  -60.5740 C   0  0  0  0  0  0  0  0  0  0  0  0
    6.4240    2.0730  -60.0150 N   0  0  0  0  0  0  0  0  0  0  0  0
    6.5050    2.2910  -58.6410 C   0  0  0  0  0  0  0  0  0  0  0  0
    7.5930    2.3310  -57.9370 N   0  0  0  0  0  0  0  0  0  0  0  0
    8.8970    2.1710  -58.5740 C   0  0  0  0  0  0  0  0  0  0  0  0
    9.8970    3.2000  -58.0220 C   0  0  1  0  0  0  0  0  0  0  0  0
   11.1920    2.4710  -57.6080 C   0  0  0  0  0  0  0  0  0  0  0  0
   12.3740    3.4260  -57.5110 C   0  0  0  0  0  0  0  0  0  0  0  0
   12.6840    4.0810  -58.8570 C   0  0  0  0  0  0  0  0  0  0  0  0
   11.4730    4.1560  -59.7910 C   0  0  0  0  0  0  0  0  0  0  0  0
   10.1580    4.3390  -59.0370 C   0  0  2  0  0  0  0  0  0  0  0  0
   10.2270    5.5860  -58.3350 O   0  0  0  0  0  0  0  0  0  0  0  0
    5.2400    2.5000  -57.8180 C   0  0  0  0  0  0  0  0  0  0  0  0
    4.0400    2.4660  -58.4220 C   0  0  0  0  0  0  0  0  0  0  0  0
    4.0790    2.2300  -59.8080 C   0  0  0  0  0  0  0  0  0  0  0  0
    2.9870    2.1430  -60.6210 N   0  0  0  0  0  0  0  0  0  0  0  0
    2.6110    1.0460  -63.6160 H   0  0  0  0  0  0  0  0  0  0  0  0
    1.5740    2.0950  -62.7850 H   0  0  0  0  0  0  0  0  0  0  0  0
    5.4488    1.6382  -62.7680 H   0  0  0  0  0  0  0  0  0  0  0  0
    7.2660    1.9060  -60.5430 H   0  0  0  0  0  0  0  0  0  0  0  0
    9.2746    1.1571  -58.3756 H   0  0  0  0  0  0  0  0  0  0  0  0
    8.7853    2.3295  -59.6568 H   0  0  0  0  0  0  0  0  0  0  0  0
    9.4703    3.6844  -57.1313 H   0  0  0  0  0  0  0  0  0  0  0  0
   11.0358    1.9975  -56.6275 H   0  0  0  0  0  0  0  0  0  0  0  0
   11.4222    1.7202  -58.3783 H   0  0  0  0  0  0  0  0  0  0  0  0
   12.1382    4.2117  -56.7782 H   0  0  0  0  0  0  0  0  0  0  0  0
   13.2568    2.8483  -57.1995 H   0  0  0  0  0  0  0  0  0  0  0  0
   13.0454    5.1034  -58.6721 H   0  0  0  0  0  0  0  0  0  0  0  0
   13.4398    3.4562  -59.3554 H   0  0  0  0  0  0  0  0  0  0  0  0
   11.6080    5.0071  -60.4747 H   0  0  0  0  0  0  0  0  0  0  0  0
   11.4138    3.2021  -60.3357 H   0  0  0  0  0  0  0  0  0  0  0  0
    9.3323    4.3227  -59.7636 H   0  0  0  0  0  0  0  0  0  0  0  0
   10.2340    6.2820  -59.0160 H   0  0  0  0  0  0  0  0  0  0  0  0
    5.3086    2.6779  -56.7346 H   0  0  0  0  0  0  0  0  0  0  0  0
    3.0978    2.6118  -57.8735 H   0  0  0  0  0  0  0  0  0  0  0  0
    2.0220    2.2250  -60.3380 H   0  0  0  0  0  0  0  0  0  0  0  0
  1  2  1  0
  2  3  2  0
  3  4  1  0
  4  5  1  0
  5  6  1  0
  6  7  2  0
  7  8  1  0
  8  9  1  0
  9 10  1  0
 10 11  1  0
 11 12  1  0
 12 13  1  0
 13 14  1  0
 14 15  1  0
  6 16  1  0
 16 17  2  0
 17 18  1  0
 18 19  1  0
 19  2  1  0
 18  4  2  0
 14  9  1  0
  1 20  1  0
  1 21  1  0
  3 22  1  0
  5 23  1  0
  8 24  1  0
  8 25  1  0
  9 26  1  1
 10 27  1  0
 10 28  1  0
 11 29  1  0
 11 30  1  0
 12 31  1  0
 12 32  1  0
 13 33  1  0
 13 34  1  0
 14 35  1  6
 15 36  1  0
 16 37  1  0
 17 38  1  0
 19 39  1  0
M  END
>  <meeko>  (46) 
{"is_sidechain": false}

$$$$

     RDKit          3D

 39 41  0  0  0  0  0  0  0  0999 V2000
    4.0650    1.9660  -61.7750 N   0  0  0  0  0  0  0  0  0  0  0  0
    5.0200    2.0390  -60.8320 C   0  0  0  0  0  0  0  0  0  0  0  0
    6.3870    2.2080  -60.9420 C   0  0  0  0  0  0  0  0  0  0  0  0
    6.8910    2.2130  -59.6300 C   0  0  0  0  0  0  0  0  0  0  0  0
    8.1500    2.3410  -59.1650 N   0  0  0  0  0  0  0  0  0  0  0  0
    8.3370    2.3030  -57.7850 C   0  0  0  0  0  0  0  0  0  0  0  0
    9.4730    2.3940  -57.1650 N   0  0  0  0  0  0  0  0  0  0  0  0
   10.7150    2.5790  -57.9170 C   0  0  0  0  0  0  0  0  0  0  0  0
   11.1460    4.0570  -57.8990 C   0  0  1  0  0  0  0  0  0  0  0  0
   12.6810    4.1640  -57.7700 C   0  0  0  0  0  0  0  0  0  0  0  0
   13.3670    4.3280  -59.1200 C   0  0  0  0  0  0  0  0  0  0  0  0
   12.9090    5.5950  -59.8430 C   0  0  0  0  0  0  0  0  0  0  0  0
   11.5010    6.0500  -59.4460 C   0  0  0  0  0  0  0  0  0  0  0  0
   10.5930    4.8740  -59.0940 C   0  0  1  0  0  0  0  0  0  0  0  0
   10.4290    4.0730  -60.2630 O   0  0  0  0  0  0  0  0  0  0  0  0
    7.1480    2.1300  -56.8480 C   0  0  0  0  0  0  0  0  0  0  0  0
    5.9100    2.0090  -57.3610 C   0  0  0  0  0  0  0  0  0  0  0  0
    5.8410    2.0550  -58.7640 C   0  0  0  0  0  0  0  0  0  0  0  0
    4.6940    1.9550  -59.4970 N   0  0  0  0  0  0  0  0  0  0  0  0
    3.2140    1.4250  -61.6480 H   0  0  0  0  0  0  0  0  0  0  0  0
    4.3110    2.0880  -62.7550 H   0  0  0  0  0  0  0  0  0  0  0  0
    6.9655    2.3169  -61.8712 H   0  0  0  0  0  0  0  0  0  0  0  0
    8.9430    2.4510  -59.7750 H   0  0  0  0  0  0  0  0  0  0  0  0
   11.5073    1.9661  -57.4624 H   0  0  0  0  0  0  0  0  0  0  0  0
   10.5466    2.2720  -58.9598 H   0  0  0  0  0  0  0  0  0  0  0  0
   10.6918    4.5190  -57.0100 H   0  0  0  0  0  0  0  0  0  0  0  0
   12.9230    5.0346  -57.1427 H   0  0  0  0  0  0  0  0  0  0  0  0
   13.0458    3.2290  -57.3198 H   0  0  0  0  0  0  0  0  0  0  0  0
   14.4542    4.3822  -58.9620 H   0  0  0  0  0  0  0  0  0  0  0  0
   13.0993    3.4635  -59.7453 H   0  0  0  0  0  0  0  0  0  0  0  0
   13.6157    6.4046  -59.6082 H   0  0  0  0  0  0  0  0  0  0  0  0
   12.8829    5.3627  -60.9179 H   0  0  0  0  0  0  0  0  0  0  0  0
   11.5764    6.7135  -58.5719 H   0  0  0  0  0  0  0  0  0  0  0  0
   11.0591    6.5719  -60.3076 H   0  0  0  0  0  0  0  0  0  0  0  0
    9.6115    5.2477  -58.7669 H   0  0  0  0  0  0  0  0  0  0  0  0
    9.5390    4.2930  -60.6060 H   0  0  0  0  0  0  0  0  0  0  0  0
    7.3008    2.1042  -55.7590 H   0  0  0  0  0  0  0  0  0  0  0  0
    5.0183    1.8834  -56.7293 H   0  0  0  0  0  0  0  0  0  0  0  0
    3.7590    1.8500  -59.1330 H   0  0  0  0  0  0  0  0  0  0  0  0
  1  2  1  0
  2  3  2  0
  3  4  1  0
  4  5  1  0
  5  6  1  0
  6  7  2  0
  7  8  1  0
  8  9  1  0
  9 10  1  0
 10 11  1  0
 11 12  1  0
 12 13  1  0
 13 14  1  0
 14 15  1  0
  6 16  1  0
 16 17  2  0
 17 18  1  0
 18 19  1  0
 19  2  1  0
 18  4  2  0
 14  9  1  0
  1 20  1  0
  1 21  1  0
  3 22  1  0
  5 23  1  0
  8 24  1  0
  8 25  1  0
  9 26  1  1
 10 27  1  0
 10 28  1  0
 11 29  1  0
 11 30  1  0
 12 31  1  0
 12 32  1  0
 13 33  1  0
 13 34  1  0
 14 35  1  1
 15 36  1  0
 16 37  1  0
 17 38  1  0
 19 39  1  0
M  END
>  <meeko>  (47) 
{"is_sidechain": false}

$$$$

     RDKit          3D

 51 54  0  0  0  0  0  0  0  0999 V2000
   13.0740    4.5160  -57.9240 N   0  0  0  0  0  0  0  0  0  0  0  0
   11.8420    4.0340  -57.6110 C   0  0  0  0  0  0  0  0  0  0  0  0
   11.5870    2.6410  -57.1860 C   0  0  0  0  0  0  0  0  0  0  0  0
   10.2730    2.6530  -56.9680 C   0  0  0  0  0  0  0  0  0  0  0  0
    9.3890    1.6930  -56.5310 N   0  0  0  0  0  0  0  0  0  0  0  0
    8.0130    1.9050  -56.5300 C   0  0  0  0  0  0  0  0  0  0  0  0
    7.1480    0.9160  -56.1220 N   0  0  0  0  0  0  0  0  0  0  0  0
    6.9950    0.3840  -54.7830 C   0  0  0  0  0  0  0  0  0  0  0  0
    7.4900   -1.0710  -54.6700 C   0  0  2  0  0  0  0  0  0  0  0  0
    6.7730   -1.8710  -53.5640 C   0  0  0  0  0  0  0  0  0  0  0  0
    7.6870   -2.1660  -52.3820 C   0  0  0  0  0  0  0  0  0  0  0  0
    8.9530   -2.9220  -52.7810 C   0  0  0  0  0  0  0  0  0  0  0  0
    9.4010   -2.5650  -54.1830 N   0  0  2  0  0  0  0  0  0  0  0  0
   10.8800   -2.8180  -54.3980 C   0  0  0  0  0  0  0  0  0  0  0  0
   11.1700   -3.4810  -55.7170 C   0  0  0  0  0  0  0  0  0  0  0  0
   11.6410   -2.7300  -56.8050 C   0  0  0  0  0  0  0  0  0  0  0  0
   11.9400   -3.3530  -58.0170 C   0  0  0  0  0  0  0  0  0  0  0  0
   11.7710   -4.7290  -58.1560 C   0  0  0  0  0  0  0  0  0  0  0  0
   11.2980   -5.4840  -57.0860 C   0  0  0  0  0  0  0  0  0  0  0  0
   10.9980   -4.8670  -55.8710 C   0  0  0  0  0  0  0  0  0  0  0  0
    9.0170   -1.1540  -54.5600 C   0  0  0  0  0  0  0  0  0  0  0  0
    7.5350    3.1190  -56.9060 C   0  0  0  0  0  0  0  0  0  0  0  0
    8.4360    4.2010  -57.2850 C   0  0  0  0  0  0  0  0  0  0  0  0
    9.7530    3.9620  -57.3040 C   0  0  0  0  0  0  0  0  0  0  0  0
   10.7750    4.7900  -57.6640 N   0  0  0  0  0  0  0  0  0  0  0  0
   13.7130    3.8700  -58.3700 H   0  0  0  0  0  0  0  0  0  0  0  0
   13.0220    5.4080  -58.4100 H   0  0  0  0  0  0  0  0  0  0  0  0
   12.2988    1.8093  -57.0778 H   0  0  0  0  0  0  0  0  0  0  0  0
    9.6720    0.7350  -56.6940 H   0  0  0  0  0  0  0  0  0  0  0  0
    6.3790    0.7310  -56.7640 H   0  0  0  0  0  0  0  0  0  0  0  0
    7.5727    1.0090  -54.0862 H   0  0  0  0  0  0  0  0  0  0  0  0
    5.9226    0.3939  -54.5382 H   0  0  0  0  0  0  0  0  0  0  0  0
    7.2131   -1.5611  -55.6150 H   0  0  0  0  0  0  0  0  0  0  0  0
    5.9106   -1.2884  -53.2080 H   0  0  0  0  0  0  0  0  0  0  0  0
    6.4567   -2.8327  -53.9942 H   0  0  0  0  0  0  0  0  0  0  0  0
    7.9796   -1.2123  -51.9185 H   0  0  0  0  0  0  0  0  0  0  0  0
    7.1271   -2.8065  -51.6847 H   0  0  0  0  0  0  0  0  0  0  0  0
    9.7571   -2.6684  -52.0745 H   0  0  0  0  0  0  0  0  0  0  0  0
    8.7311   -3.9991  -52.7561 H   0  0  0  0  0  0  0  0  0  0  0  0
    8.9150   -3.2030  -54.8250 H   0  0  0  0  0  0  0  0  0  0  0  0
   11.4103   -1.8549  -54.3641 H   0  0  0  0  0  0  0  0  0  0  0  0
   11.2198   -3.4977  -53.6027 H   0  0  0  0  0  0  0  0  0  0  0  0
   11.7753   -1.6431  -56.7015 H   0  0  0  0  0  0  0  0  0  0  0  0
   12.3098   -2.7569  -58.8643 H   0  0  0  0  0  0  0  0  0  0  0  0
   12.0113   -5.2189  -59.1111 H   0  0  0  0  0  0  0  0  0  0  0  0
   11.1605   -6.5695  -57.1988 H   0  0  0  0  0  0  0  0  0  0  0  0
   10.6249   -5.4688  -55.0292 H   0  0  0  0  0  0  0  0  0  0  0  0
    9.3707   -0.4555  -53.7873 H   0  0  0  0  0  0  0  0  0  0  0  0
    9.4765   -0.8858  -55.5228 H   0  0  0  0  0  0  0  0  0  0  0  0
    6.4484    3.2893  -56.9250 H   0  0  0  0  0  0  0  0  0  0  0  0
    8.0416    5.1931  -57.5498 H   0  0  0  0  0  0  0  0  0  0  0  0
  1  2  1  0
  2  3  1  0
  3  4  2  0
  4  5  1  0
  5  6  1  0
  6  7  1  0
  7  8  1  0
  8  9  1  0
  9 10  1  0
 10 11  1  0
 11 12  1  0
 12 13  1  0
 13 14  1  0
 14 15  1  0
 15 16  2  0
 16 17  1  0
 17 18  2  0
 18 19  1  0
 19 20  2  0
 13 21  1  0
  6 22  2  0
 22 23  1  0
 23 24  2  0
 24 25  1  0
 25  2  2  0
 24  4  1  0
 21  9  1  0
 20 15  1  0
  1 26  1  0
  1 27  1  0
  3 28  1  0
  5 29  1  0
  7 30  1  0
  8 31  1  0
  8 32  1  0
  9 33  1  6
 10 34  1  0
 10 35  1  0
 11 36  1  0
 11 37  1  0
 12 38  1  0
 12 39  1  0
 13 40  1  6
 14 41  1  0
 14 42  1  0
 16 43  1  0
 17 44  1  0
 18 45  1  0
 19 46  1  0
 20 47  1  0
 21 48  1  0
 21 49  1  0
 22 50  1  0
 23 51  1  0
M  CHG  1  13   1
M  END
>  <meeko>  (48) 
{"is_sidechain": false}

$$$$

     RDKit          3D

 51 54  0  0  0  0  0  0  0  0999 V2000
   13.1520    5.7960  -59.4090 N   0  0  0  0  0  0  0  0  0  0  0  0
   12.2590    5.0400  -58.7140 C   0  0  0  0  0  0  0  0  0  0  0  0
   12.5700    3.7100  -58.1520 C   0  0  0  0  0  0  0  0  0  0  0  0
   11.4230    3.3820  -57.5610 C   0  0  0  0  0  0  0  0  0  0  0  0
   11.0180    2.2750  -56.8500 N   0  0  0  0  0  0  0  0  0  0  0  0
    9.7000    2.0950  -56.4480 C   0  0  0  0  0  0  0  0  0  0  0  0
    9.3020    0.9360  -55.8070 N   0  0  0  0  0  0  0  0  0  0  0  0
    7.9690    0.6880  -55.2930 C   0  0  0  0  0  0  0  0  0  0  0  0
    8.0090   -0.0060  -53.9170 C   0  0  1  0  0  0  0  0  0  0  0  0
    6.7920   -0.9030  -53.6470 C   0  0  0  0  0  0  0  0  0  0  0  0
    6.8320   -2.2000  -54.4480 C   0  0  0  0  0  0  0  0  0  0  0  0
    8.1280   -2.9620  -54.2200 C   0  0  0  0  0  0  0  0  0  0  0  0
    9.3050   -2.0720  -54.5510 N   0  0  2  0  0  0  0  0  0  0  0  0
   10.6300   -2.8040  -54.4190 C   0  0  0  0  0  0  0  0  0  0  0  0
   11.0590   -3.4780  -55.6930 C   0  0  0  0  0  0  0  0  0  0  0  0
   10.9350   -4.8670  -55.8420 C   0  0  0  0  0  0  0  0  0  0  0  0
   11.3060   -5.4860  -57.0360 C   0  0  0  0  0  0  0  0  0  0  0  0
   11.8060   -4.7250  -58.0910 C   0  0  0  0  0  0  0  0  0  0  0  0
   11.9410   -3.3450  -57.9530 C   0  0  0  0  0  0  0  0  0  0  0  0
   11.5710   -2.7230  -56.7600 C   0  0  0  0  0  0  0  0  0  0  0  0
    9.3070   -0.7990  -53.7350 C   0  0  0  0  0  0  0  0  0  0  0  0
    8.7990    3.0810  -56.6960 C   0  0  0  0  0  0  0  0  0  0  0  0
    9.1930    4.3130  -57.3720 C   0  0  0  0  0  0  0  0  0  0  0  0
   10.4600    4.4400  -57.7850 C   0  0  0  0  0  0  0  0  0  0  0  0
   11.0410    5.4580  -58.4850 N   0  0  0  0  0  0  0  0  0  0  0  0
   12.8420    6.7570  -59.5200 H   0  0  0  0  0  0  0  0  0  0  0  0
   14.1270    5.7160  -59.1520 H   0  0  0  0  0  0  0  0  0  0  0  0
   13.5078    3.1378  -58.2075 H   0  0  0  0  0  0  0  0  0  0  0  0
   11.5480    1.4310  -57.0050 H   0  0  0  0  0  0  0  0  0  0  0  0
    9.7870    0.1130  -56.1610 H   0  0  0  0  0  0  0  0  0  0  0  0
    7.4411    1.6479  -55.1930 H   0  0  0  0  0  0  0  0  0  0  0  0
    7.4478    0.0232  -55.9976 H   0  0  0  0  0  0  0  0  0  0  0  0
    7.9730    0.8040  -53.1736 H   0  0  0  0  0  0  0  0  0  0  0  0
    6.7675   -1.1509  -52.5756 H   0  0  0  0  0  0  0  0  0  0  0  0
    5.8935   -0.3481  -53.9549 H   0  0  0  0  0  0  0  0  0  0  0  0
    5.9870   -2.8342  -54.1419 H   0  0  0  0  0  0  0  0  0  0  0  0
    6.7672   -1.9455  -55.5162 H   0  0  0  0  0  0  0  0  0  0  0  0
    8.1892   -3.2732  -53.1667 H   0  0  0  0  0  0  0  0  0  0  0  0
    8.1482   -3.8504  -54.8683 H   0  0  0  0  0  0  0  0  0  0  0  0
    9.2280   -1.8330  -55.5470 H   0  0  0  0  0  0  0  0  0  0  0  0
   11.4039   -2.0782  -54.1287 H   0  0  0  0  0  0  0  0  0  0  0  0
   10.4977   -3.5892  -53.6601 H   0  0  0  0  0  0  0  0  0  0  0  0
   10.5425   -5.4725  -55.0118 H   0  0  0  0  0  0  0  0  0  0  0  0
   11.2038   -6.5758  -57.1448 H   0  0  0  0  0  0  0  0  0  0  0  0
   12.0943   -5.2140  -59.0332 H   0  0  0  0  0  0  0  0  0  0  0  0
   12.3394   -2.7457  -58.7849 H   0  0  0  0  0  0  0  0  0  0  0  0
   11.6813   -1.6336  -56.6549 H   0  0  0  0  0  0  0  0  0  0  0  0
    9.4205   -1.0575  -52.6718 H   0  0  0  0  0  0  0  0  0  0  0  0
   10.1425   -0.1723  -54.0803 H   0  0  0  0  0  0  0  0  0  0  0  0
    7.7533    2.9484  -56.3815 H   0  0  0  0  0  0  0  0  0  0  0  0
    8.4643    5.1200  -57.5386 H   0  0  0  0  0  0  0  0  0  0  0  0
  1  2  1  0
  2  3  1  0
  3  4  2  0
  4  5  1  0
  5  6  1  0
  6  7  1  0
  7  8  1  0
  8  9  1  0
  9 10  1  0
 10 11  1  0
 11 12  1  0
 12 13  1  0
 13 14  1  0
 14 15  1  0
 15 16  2  0
 16 17  1  0
 17 18  2  0
 18 19  1  0
 19 20  2  0
 13 21  1  0
  6 22  2  0
 22 23  1  0
 23 24  2  0
 24 25  1  0
 25  2  2  0
 24  4  1  0
 21  9  1  0
 20 15  1  0
  1 26  1  0
  1 27  1  0
  3 28  1  0
  5 29  1  0
  7 30  1  0
  8 31  1  0
  8 32  1  0
  9 33  1  1
 10 34  1  0
 10 35  1  0
 11 36  1  0
 11 37  1  0
 12 38  1  0
 12 39  1  0
 13 40  1  6
 14 41  1  0
 14 42  1  0
 16 43  1  0
 17 44  1  0
 18 45  1  0
 19 46  1  0
 20 47  1  0
 21 48  1  0
 21 49  1  0
 22 50  1  0
 23 51  1  0
M  CHG  1  13   1
M  END
>  <meeko>  (49) 
{"is_sidechain": false}

$$$$

     RDKit          3D

 51 54  0  0  0  0  0  0  0  0999 V2000
   13.1400    4.4970  -57.7410 N   0  0  0  0  0  0  0  0  0  0  0  0
   11.8530    4.0840  -57.5890 C   0  0  0  0  0  0  0  0  0  0  0  0
   11.4690    2.7050  -57.2250 C   0  0  0  0  0  0  0  0  0  0  0  0
   10.1400    2.7800  -57.2110 C   0  0  0  0  0  0  0  0  0  0  0  0
    9.1530    1.8630  -56.9480 N   0  0  0  0  0  0  0  0  0  0  0  0
    7.8050    2.1940  -56.9160 C   0  0  0  0  0  0  0  0  0  0  0  0
    6.9040    1.1950  -56.5930 N   0  0  0  0  0  0  0  0  0  0  0  0
    6.5690    0.7710  -55.2450 C   0  0  0  0  0  0  0  0  0  0  0  0
    7.1400   -0.6310  -54.9700 C   0  0  2  0  0  0  0  0  0  0  0  0
    6.3050   -1.4260  -53.9630 C   0  0  0  0  0  0  0  0  0  0  0  0
    6.8510   -2.8450  -53.7880 C   0  0  0  0  0  0  0  0  0  0  0  0
    8.3350   -2.9800  -54.1180 C   0  0  0  0  0  0  0  0  0  0  0  0
    9.0450   -1.7180  -53.7070 N   0  0  1  0  0  0  0  0  0  0  0  0
   10.5540   -1.8510  -53.7110 C   0  0  0  0  0  0  0  0  0  0  0  0
   11.0660   -2.6990  -54.8440 C   0  0  0  0  0  0  0  0  0  0  0  0
   11.2440   -2.1460  -56.1220 C   0  0  0  0  0  0  0  0  0  0  0  0
   11.7440   -2.9260  -57.1660 C   0  0  0  0  0  0  0  0  0  0  0  0
   12.0670   -4.2630  -56.9460 C   0  0  0  0  0  0  0  0  0  0  0  0
   11.8870   -4.8250  -55.6840 C   0  0  0  0  0  0  0  0  0  0  0  0
   11.3880   -4.0490  -54.6370 C   0  0  0  0  0  0  0  0  0  0  0  0
    8.5940   -0.5050  -54.4960 C   0  0  0  0  0  0  0  0  0  0  0  0
    7.4490    3.4720  -57.2080 C   0  0  0  0  0  0  0  0  0  0  0  0
    8.4510    4.4820  -57.5380 C   0  0  0  0  0  0  0  0  0  0  0  0
    9.7420    4.1340  -57.5330 C   0  0  0  0  0  0  0  0  0  0  0  0
   10.8460    4.9010  -57.7710 N   0  0  0  0  0  0  0  0  0  0  0  0
   13.2040    5.3930  -58.2150 H   0  0  0  0  0  0  0  0  0  0  0  0
   13.8010    3.8150  -58.0880 H   0  0  0  0  0  0  0  0  0  0  0  0
   12.1150    1.8389  -57.0186 H   0  0  0  0  0  0  0  0  0  0  0  0
    9.4320    0.9790  -56.5510 H   0  0  0  0  0  0  0  0  0  0  0  0
    6.1180    1.2410  -57.2360 H   0  0  0  0  0  0  0  0  0  0  0  0
    6.9945    1.4842  -54.5237 H   0  0  0  0  0  0  0  0  0  0  0  0
    5.4744    0.7387  -55.1412 H   0  0  0  0  0  0  0  0  0  0  0  0
    7.1030   -1.1977  -55.9121 H   0  0  0  0  0  0  0  0  0  0  0  0
    6.3282   -0.9105  -52.9916 H   0  0  0  0  0  0  0  0  0  0  0  0
    5.2746   -1.4939  -54.3420 H   0  0  0  0  0  0  0  0  0  0  0  0
    6.6997   -3.1480  -52.7414 H   0  0  0  0  0  0  0  0  0  0  0  0
    6.3061   -3.4871  -54.4957 H   0  0  0  0  0  0  0  0  0  0  0  0
    8.7580   -3.8358  -53.5716 H   0  0  0  0  0  0  0  0  0  0  0  0
    8.4622   -3.1431  -55.1984 H   0  0  0  0  0  0  0  0  0  0  0  0
    8.7920   -1.5580  -52.7230 H   0  0  0  0  0  0  0  0  0  0  0  0
   10.9943   -0.8467  -53.7979 H   0  0  0  0  0  0  0  0  0  0  0  0
   10.8434   -2.3460  -52.7723 H   0  0  0  0  0  0  0  0  0  0  0  0
   10.9879   -1.0915  -56.3018 H   0  0  0  0  0  0  0  0  0  0  0  0
   11.8831   -2.4843  -58.1638 H   0  0  0  0  0  0  0  0  0  0  0  0
   12.4643   -4.8753  -57.7690 H   0  0  0  0  0  0  0  0  0  0  0  0
   12.1386   -5.8820  -55.5126 H   0  0  0  0  0  0  0  0  0  0  0  0
   11.2462   -4.4985  -53.6431 H   0  0  0  0  0  0  0  0  0  0  0  0
    8.6826    0.3862  -53.8574 H   0  0  0  0  0  0  0  0  0  0  0  0
    9.2342   -0.4238  -55.3868 H   0  0  0  0  0  0  0  0  0  0  0  0
    6.3852    3.7517  -57.1957 H   0  0  0  0  0  0  0  0  0  0  0  0
    8.1491    5.5102  -57.7861 H   0  0  0  0  0  0  0  0  0  0  0  0
  1  2  1  0
  2  3  1  0
  3  4  2  0
  4  5  1  0
  5  6  1  0
  6  7  1  0
  7  8  1  0
  8  9  1  0
  9 10  1  0
 10 11  1  0
 11 12  1  0
 12 13  1  0
 13 14  1  0
 14 15  1  0
 15 16  2  0
 16 17  1  0
 17 18  2  0
 18 19  1  0
 19 20  2  0
 13 21  1  0
  6 22  2  0
 22 23  1  0
 23 24  2  0
 24 25  1  0
 25  2  2  0
 24  4  1  0
 21  9  1  0
 20 15  1  0
  1 26  1  0
  1 27  1  0
  3 28  1  0
  5 29  1  0
  7 30  1  0
  8 31  1  0
  8 32  1  0
  9 33  1  6
 10 34  1  0
 10 35  1  0
 11 36  1  0
 11 37  1  0
 12 38  1  0
 12 39  1  0
 13 40  1  1
 14 41  1  0
 14 42  1  0
 16 43  1  0
 17 44  1  0
 18 45  1  0
 19 46  1  0
 20 47  1  0
 21 48  1  0
 21 49  1  0
 22 50  1  0
 23 51  1  0
M  CHG  1  13   1
M  END
>  <meeko>  (50) 
{"is_sidechain": false}

$$$$

     RDKit          3D

 51 54  0  0  0  0  0  0  0  0999 V2000
   13.1020    6.0810  -59.7450 N   0  0  0  0  0  0  0  0  0  0  0  0
   12.2810    5.2610  -59.0330 C   0  0  0  0  0  0  0  0  0  0  0  0
   12.6450    3.8890  -58.6210 C   0  0  0  0  0  0  0  0  0  0  0  0
   11.5580    3.5000  -57.9580 C   0  0  0  0  0  0  0  0  0  0  0  0
   11.2270    2.3400  -57.3010 N   0  0  0  0  0  0  0  0  0  0  0  0
    9.9790    2.1300  -56.7310 C   0  0  0  0  0  0  0  0  0  0  0  0
    9.6550    0.9330  -56.1110 N   0  0  0  0  0  0  0  0  0  0  0  0
    8.5560    0.7840  -55.1740 C   0  0  0  0  0  0  0  0  0  0  0  0
    8.8660   -0.3330  -54.1620 C   0  0  1  0  0  0  0  0  0  0  0  0
    7.6110   -1.1350  -53.7590 C   0  0  0  0  0  0  0  0  0  0  0  0
    7.5170   -2.4570  -54.5080 C   0  0  0  0  0  0  0  0  0  0  0  0
    8.7250   -3.3560  -54.2620 C   0  0  0  0  0  0  0  0  0  0  0  0
    9.9730   -2.5450  -53.9950 N   0  0  1  0  0  0  0  0  0  0  0  0
   11.2260   -3.3680  -54.2210 C   0  0  0  0  0  0  0  0  0  0  0  0
   11.3830   -3.8130  -55.6490 C   0  0  0  0  0  0  0  0  0  0  0  0
   11.7440   -2.8960  -56.6470 C   0  0  0  0  0  0  0  0  0  0  0  0
   11.9150   -3.3180  -57.9660 C   0  0  0  0  0  0  0  0  0  0  0  0
   11.7260   -4.6570  -58.3010 C   0  0  0  0  0  0  0  0  0  0  0  0
   11.3600   -5.5750  -57.3210 C   0  0  0  0  0  0  0  0  0  0  0  0
   11.1870   -5.1580  -56.0010 C   0  0  0  0  0  0  0  0  0  0  0  0
    9.9720   -1.2290  -54.7340 C   0  0  0  0  0  0  0  0  0  0  0  0
    9.0620    3.1310  -56.7970 C   0  0  0  0  0  0  0  0  0  0  0  0
    9.3730    4.4050  -57.4380 C   0  0  0  0  0  0  0  0  0  0  0  0
   10.5800    4.5670  -57.9920 C   0  0  0  0  0  0  0  0  0  0  0  0
   11.0860    5.6420  -58.6640 N   0  0  0  0  0  0  0  0  0  0  0  0
   12.6040    6.8800  -60.1250 H   0  0  0  0  0  0  0  0  0  0  0  0
   13.7140    5.6390  -60.4170 H   0  0  0  0  0  0  0  0  0  0  0  0
   13.5744    3.3327  -58.8127 H   0  0  0  0  0  0  0  0  0  0  0  0
   11.8200    1.5400  -57.4390 H   0  0  0  0  0  0  0  0  0  0  0  0
    9.7470    0.1580  -56.7660 H   0  0  0  0  0  0  0  0  0  0  0  0
    8.4075    1.7313  -54.6350 H   0  0  0  0  0  0  0  0  0  0  0  0
    7.6443    0.5206  -55.7302 H   0  0  0  0  0  0  0  0  0  0  0  0
    9.2227    0.1258  -53.2281 H   0  0  0  0  0  0  0  0  0  0  0  0
    7.6518   -1.3403  -52.6791 H   0  0  0  0  0  0  0  0  0  0  0  0
    6.7259   -0.5344  -54.0155 H   0  0  0  0  0  0  0  0  0  0  0  0
    6.6108   -2.9858  -54.1776 H   0  0  0  0  0  0  0  0  0  0  0  0
    7.4835   -2.2296  -55.5837 H   0  0  0  0  0  0  0  0  0  0  0  0
    8.5222   -3.9972  -53.3916 H   0  0  0  0  0  0  0  0  0  0  0  0
    8.8936   -3.9627  -55.1639 H   0  0  0  0  0  0  0  0  0  0  0  0
    9.9780   -2.3160  -52.9920 H   0  0  0  0  0  0  0  0  0  0  0  0
   12.1001   -2.7601  -53.9445 H   0  0  0  0  0  0  0  0  0  0  0  0
   11.1440   -4.2723  -53.6001 H   0  0  0  0  0  0  0  0  0  0  0  0
   11.8933   -1.8373  -56.3882 H   0  0  0  0  0  0  0  0  0  0  0  0
   12.1994   -2.5924  -58.7423 H   0  0  0  0  0  0  0  0  0  0  0  0
   11.8661   -4.9888  -59.3404 H   0  0  0  0  0  0  0  0  0  0  0  0
   11.2069   -6.6311  -57.5877 H   0  0  0  0  0  0  0  0  0  0  0  0
   10.8952   -5.8875  -55.2311 H   0  0  0  0  0  0  0  0  0  0  0  0
   10.9472   -0.7356  -54.6091 H   0  0  0  0  0  0  0  0  0  0  0  0
    9.7897   -1.4052  -55.8044 H   0  0  0  0  0  0  0  0  0  0  0  0
    8.0649    2.9779  -56.3583 H   0  0  0  0  0  0  0  0  0  0  0  0
    8.6299    5.2156  -57.4650 H   0  0  0  0  0  0  0  0  0  0  0  0
  1  2  1  0
  2  3  1  0
  3  4  2  0
  4  5  1  0
  5  6  1  0
  6  7  1  0
  7  8  1  0
  8  9  1  0
  9 10  1  0
 10 11  1  0
 11 12  1  0
 12 13  1  0
 13 14  1  0
 14 15  1  0
 15 16  2  0
 16 17  1  0
 17 18  2  0
 18 19  1  0
 19 20  2  0
 13 21  1  0
  6 22  2  0
 22 23  1  0
 23 24  2  0
 24 25  1  0
 25  2  2  0
 24  4  1  0
 21  9  1  0
 20 15  1  0
  1 26  1  0
  1 27  1  0
  3 28  1  0
  5 29  1  0
  7 30  1  0
  8 31  1  0
  8 32  1  0
  9 33  1  1
 10 34  1  0
 10 35  1  0
 11 36  1  0
 11 37  1  0
 12 38  1  0
 12 39  1  0
 13 40  1  1
 14 41  1  0
 14 42  1  0
 16 43  1  0
 17 44  1  0
 18 45  1  0
 19 46  1  0
 20 47  1  0
 21 48  1  0
 21 49  1  0
 22 50  1  0
 23 51  1  0
M  CHG  1  13   1
M  END
>  <meeko>  (51) 
{"is_sidechain": false}

$$$$

     RDKit          3D

 51 54  0  0  0  0  0  0  0  0999 V2000
   13.0490    4.5020  -58.0060 N   0  0  0  0  0  0  0  0  0  0  0  0
   11.8670    4.1070  -57.7020 C   0  0  0  0  0  0  0  0  0  0  0  0
   11.5800    2.7360  -57.2060 C   0  0  0  0  0  0  0  0  0  0  0  0
   10.2490    2.7320  -57.0210 C   0  0  0  0  0  0  0  0  0  0  0  0
    9.3950    1.7520  -56.5770 N   0  0  0  0  0  0  0  0  0  0  0  0
    8.0200    1.9100  -56.5100 C   0  0  0  0  0  0  0  0  0  0  0  0
    7.2700    0.8340  -56.0780 N   0  0  0  0  0  0  0  0  0  0  0  0
    7.1550    0.3770  -54.7070 C   0  0  0  0  0  0  0  0  0  0  0  0
    7.6020   -1.0930  -54.5960 C   0  0  2  0  0  0  0  0  0  0  0  0
    6.9930   -1.8070  -53.3700 C   0  0  0  0  0  0  0  0  0  0  0  0
    7.9760   -1.8750  -52.2090 C   0  0  0  0  0  0  0  0  0  0  0  0
    9.2530   -2.6280  -52.5700 C   0  0  0  0  0  0  0  0  0  0  0  0
    9.5890   -2.4700  -54.0400 N   0  0  2  0  0  0  0  0  0  0  0  0
   11.0480   -2.7500  -54.3360 C   0  0  0  0  0  0  0  0  0  0  0  0
   11.2490   -3.4700  -55.6420 C   0  0  0  0  0  0  0  0  0  0  0  0
   11.0400   -4.8560  -55.7300 C   0  0  0  0  0  0  0  0  0  0  0  0
   11.2590   -5.5280  -56.9330 C   0  0  0  0  0  0  0  0  0  0  0  0
   11.6900   -4.8260  -58.0560 C   0  0  0  0  0  0  0  0  0  0  0  0
   11.8990   -3.4520  -57.9820 C   0  0  0  0  0  0  0  0  0  0  0  0
   11.6790   -2.7740  -56.7820 C   0  0  0  0  0  0  0  0  0  0  0  0
    9.1350   -1.1470  -54.5950 C   0  0  0  0  0  0  0  0  0  0  0  0
    7.4940    3.1100  -56.8670 C   0  0  0  0  0  0  0  0  0  0  0  0
    8.3420    4.2140  -57.3120 C   0  0  0  0  0  0  0  0  0  0  0  0
    9.6650    4.0310  -57.3880 C   0  0  0  0  0  0  0  0  0  0  0  0
   10.7040    4.8190  -57.7740 N   0  0  0  0  0  0  0  0  0  0  0  0
   13.0160    5.4740  -58.3220 H   0  0  0  0  0  0  0  0  0  0  0  0
   12.2914    1.9155  -57.0310 H   0  0  0  0  0  0  0  0  0  0  0  0
    9.7750    0.8240  -56.4700 H   0  0  0  0  0  0  0  0  0  0  0  0
    7.3140    0.0930  -56.7730 H   0  0  0  0  0  0  0  0  0  0  0  0
    7.7919    1.0000  -54.0619 H   0  0  0  0  0  0  0  0  0  0  0  0
    6.1050    0.4574  -54.3891 H   0  0  0  0  0  0  0  0  0  0  0  0
    7.2219   -1.6444  -55.4687 H   0  0  0  0  0  0  0  0  0  0  0  0
    6.0972   -1.2569  -53.0463 H   0  0  0  0  0  0  0  0  0  0  0  0
    6.7401   -2.8362  -53.6645 H   0  0  0  0  0  0  0  0  0  0  0  0
    8.2426   -0.8501  -51.9116 H   0  0  0  0  0  0  0  0  0  0  0  0
    7.4871   -2.4193  -51.3876 H   0  0  0  0  0  0  0  0  0  0  0  0
   10.0844   -2.2327  -51.9679 H   0  0  0  0  0  0  0  0  0  0  0  0
    9.0961   -3.6968  -52.3627 H   0  0  0  0  0  0  0  0  0  0  0  0
    9.0680   -3.2060  -54.5360 H   0  0  0  0  0  0  0  0  0  0  0  0
   11.5889   -1.7930  -54.3751 H   0  0  0  0  0  0  0  0  0  0  0  0
   11.4298   -3.4013  -53.5359 H   0  0  0  0  0  0  0  0  0  0  0  0
   10.7016   -5.4151  -54.8452 H   0  0  0  0  0  0  0  0  0  0  0  0
   11.0911   -6.6134  -56.9945 H   0  0  0  0  0  0  0  0  0  0  0  0
   11.8654   -5.3581  -59.0026 H   0  0  0  0  0  0  0  0  0  0  0  0
   12.2381   -2.8995  -58.8707 H   0  0  0  0  0  0  0  0  0  0  0  0
   11.8437   -1.6877  -56.7296 H   0  0  0  0  0  0  0  0  0  0  0  0
    9.5304   -0.3322  -53.9707 H   0  0  0  0  0  0  0  0  0  0  0  0
    9.5070   -1.0335  -55.6240 H   0  0  0  0  0  0  0  0  0  0  0  0
    6.4045    3.2544  -56.8202 H   0  0  0  0  0  0  0  0  0  0  0  0
    7.8978    5.1836  -57.5812 H   0  0  0  0  0  0  0  0  0  0  0  0
   10.5920    5.7560  -58.1180 H   0  0  0  0  0  0  0  0  0  0  0  0
  1  2  2  3
  2  3  1  0
  3  4  2  0
  4  5  1  0
  5  6  1  0
  6  7  1  0
  7  8  1  0
  8  9  1  0
  9 10  1  0
 10 11  1  0
 11 12  1  0
 12 13  1  0
 13 14  1  0
 14 15  1  0
 15 16  2  0
 16 17  1  0
 17 18  2  0
 18 19  1  0
 19 20  2  0
 13 21  1  0
  6 22  2  0
 22 23  1  0
 23 24  2  0
 24 25  1  0
 25  2  1  0
 24  4  1  0
 21  9  1  0
 20 15  1  0
  1 26  1  0
  3 27  1  0
  5 28  1  0
  7 29  1  0
  8 30  1  0
  8 31  1  0
  9 32  1  6
 10 33  1  0
 10 34  1  0
 11 35  1  0
 11 36  1  0
 12 37  1  0
 12 38  1  0
 13 39  1  6
 14 40  1  0
 14 41  1  0
 16 42  1  0
 17 43  1  0
 18 44  1  0
 19 45  1  0
 20 46  1  0
 21 47  1  0
 21 48  1  0
 22 49  1  0
 23 50  1  0
 25 51  1  0
M  CHG  1  13   1
M  END
>  <meeko>  (52) 
{"is_sidechain": false}

$$$$

     RDKit          3D

 51 54  0  0  0  0  0  0  0  0999 V2000
   13.2550    5.7420  -59.3210 N   0  0  0  0  0  0  0  0  0  0  0  0
   12.3120    5.0970  -58.7360 C   0  0  0  0  0  0  0  0  0  0  0  0
   12.5260    3.7800  -58.0810 C   0  0  0  0  0  0  0  0  0  0  0  0
   11.3130    3.4620  -57.5960 C   0  0  0  0  0  0  0  0  0  0  0  0
   10.8730    2.3680  -56.8940 N   0  0  0  0  0  0  0  0  0  0  0  0
    9.5790    2.2320  -56.4200 C   0  0  0  0  0  0  0  0  0  0  0  0
    9.2730    1.0940  -55.7010 N   0  0  0  0  0  0  0  0  0  0  0  0
    7.9440    0.6360  -55.3520 C   0  0  0  0  0  0  0  0  0  0  0  0
    7.9500   -0.0400  -53.9670 C   0  0  1  0  0  0  0  0  0  0  0  0
    6.7370   -0.9590  -53.7260 C   0  0  0  0  0  0  0  0  0  0  0  0
    6.8280   -2.2720  -54.4980 C   0  0  0  0  0  0  0  0  0  0  0  0
    8.1290   -3.0010  -54.1960 C   0  0  0  0  0  0  0  0  0  0  0  0
    9.2900   -2.0950  -54.5310 N   0  0  2  0  0  0  0  0  0  0  0  0
   10.6340   -2.8040  -54.4750 C   0  0  0  0  0  0  0  0  0  0  0  0
   11.0780   -3.4830  -55.7410 C   0  0  0  0  0  0  0  0  0  0  0  0
   11.6070   -2.7380  -56.8070 C   0  0  0  0  0  0  0  0  0  0  0  0
   12.0000   -3.3700  -57.9880 C   0  0  0  0  0  0  0  0  0  0  0  0
   11.8730   -4.7510  -58.1170 C   0  0  0  0  0  0  0  0  0  0  0  0
   11.3630   -5.5050  -57.0630 C   0  0  0  0  0  0  0  0  0  0  0  0
   10.9680   -4.8770  -55.8800 C   0  0  0  0  0  0  0  0  0  0  0  0
    9.2560   -0.8100  -53.7330 C   0  0  0  0  0  0  0  0  0  0  0  0
    8.6890    3.2210  -56.6940 C   0  0  0  0  0  0  0  0  0  0  0  0
    9.0730    4.4010  -57.4650 C   0  0  0  0  0  0  0  0  0  0  0  0
   10.3360    4.5170  -57.8970 C   0  0  0  0  0  0  0  0  0  0  0  0
   11.0050    5.4680  -58.6010 N   0  0  0  0  0  0  0  0  0  0  0  0
   12.8890    6.6180  -59.7000 H   0  0  0  0  0  0  0  0  0  0  0  0
   13.4586    3.2010  -58.0097 H   0  0  0  0  0  0  0  0  0  0  0  0
   11.5700    1.7100  -56.5780 H   0  0  0  0  0  0  0  0  0  0  0  0
    9.9310    0.3540  -55.9400 H   0  0  0  0  0  0  0  0  0  0  0  0
    7.2588    1.4963  -55.3315 H   0  0  0  0  0  0  0  0  0  0  0  0
    7.6125   -0.0964  -56.1028 H   0  0  0  0  0  0  0  0  0  0  0  0
    7.8754    0.7782  -53.2356 H   0  0  0  0  0  0  0  0  0  0  0  0
    6.6762   -1.1864  -52.6515 H   0  0  0  0  0  0  0  0  0  0  0  0
    5.8423   -0.4269  -54.0814 H   0  0  0  0  0  0  0  0  0  0  0  0
    5.9823   -2.9149  -54.2127 H   0  0  0  0  0  0  0  0  0  0  0  0
    6.7984   -2.0453  -55.5740 H   0  0  0  0  0  0  0  0  0  0  0  0
    8.1640   -3.2660  -53.1290 H   0  0  0  0  0  0  0  0  0  0  0  0
    8.1887   -3.9194  -54.7984 H   0  0  0  0  0  0  0  0  0  0  0  0
    9.1840   -1.8540  -55.5230 H   0  0  0  0  0  0  0  0  0  0  0  0
   11.3968   -2.0574  -54.2090 H   0  0  0  0  0  0  0  0  0  0  0  0
   10.5123   -3.6091  -53.7354 H   0  0  0  0  0  0  0  0  0  0  0  0
   11.7126   -1.6473  -56.7108 H   0  0  0  0  0  0  0  0  0  0  0  0
   12.4106   -2.7764  -58.8181 H   0  0  0  0  0  0  0  0  0  0  0  0
   12.1756   -5.2462  -59.0515 H   0  0  0  0  0  0  0  0  0  0  0  0
   11.2712   -6.5966  -57.1625 H   0  0  0  0  0  0  0  0  0  0  0  0
   10.5676   -5.4782  -55.0504 H   0  0  0  0  0  0  0  0  0  0  0  0
    9.3427   -1.0507  -52.6632 H   0  0  0  0  0  0  0  0  0  0  0  0
   10.0942   -0.1772  -54.0600 H   0  0  0  0  0  0  0  0  0  0  0  0
    7.6559    3.1314  -56.3271 H   0  0  0  0  0  0  0  0  0  0  0  0
    8.3342    5.1848  -57.6882 H   0  0  0  0  0  0  0  0  0  0  0  0
   10.5870    6.3250  -58.9180 H   0  0  0  0  0  0  0  0  0  0  0  0
  1  2  2  3
  2  3  1  0
  3  4  2  0
  4  5  1  0
  5  6  1  0
  6  7  1  0
  7  8  1  0
  8  9  1  0
  9 10  1  0
 10 11  1  0
 11 12  1  0
 12 13  1  0
 13 14  1  0
 14 15  1  0
 15 16  2  0
 16 17  1  0
 17 18  2  0
 18 19  1  0
 19 20  2  0
 13 21  1  0
  6 22  2  0
 22 23  1  0
 23 24  2  0
 24 25  1  0
 25  2  1  0
 24  4  1  0
 21  9  1  0
 20 15  1  0
  1 26  1  0
  3 27  1  0
  5 28  1  0
  7 29  1  0
  8 30  1  0
  8 31  1  0
  9 32  1  1
 10 33  1  0
 10 34  1  0
 11 35  1  0
 11 36  1  0
 12 37  1  0
 12 38  1  0
 13 39  1  6
 14 40  1  0
 14 41  1  0
 16 42  1  0
 17 43  1  0
 18 44  1  0
 19 45  1  0
 20 46  1  0
 21 47  1  0
 21 48  1  0
 22 49  1  0
 23 50  1  0
 25 51  1  0
M  CHG  1  13   1
M  END
>  <meeko>  (53) 
{"is_sidechain": false}

$$$$

     RDKit          3D

 51 54  0  0  0  0  0  0  0  0999 V2000
   13.1710    5.9290  -59.7000 N   0  0  0  0  0  0  0  0  0  0  0  0
   12.3890    5.1940  -58.9960 C   0  0  0  0  0  0  0  0  0  0  0  0
   12.6890    3.8110  -58.5300 C   0  0  0  0  0  0  0  0  0  0  0  0
   11.5830    3.4550  -57.8510 C   0  0  0  0  0  0  0  0  0  0  0  0
   11.2550    2.2980  -57.1890 N   0  0  0  0  0  0  0  0  0  0  0  0
   10.0210    2.0820  -56.5960 C   0  0  0  0  0  0  0  0  0  0  0  0
    9.7060    0.8850  -55.9720 N   0  0  0  0  0  0  0  0  0  0  0  0
    8.5390    0.6900  -55.1280 C   0  0  0  0  0  0  0  0  0  0  0  0
    8.5270   -0.7430  -54.5680 C   0  0  2  0  0  0  0  0  0  0  0  0
    8.0640   -0.7830  -53.0990 C   0  0  0  0  0  0  0  0  0  0  0  0
    8.6190   -1.9830  -52.3300 C   0  0  0  0  0  0  0  0  0  0  0  0
    8.8380   -3.1780  -53.2410 C   0  0  0  0  0  0  0  0  0  0  0  0
    9.8720   -2.8380  -54.2990 N   0  0  1  0  0  0  0  0  0  0  0  0
    9.7940   -3.7730  -55.4940 C   0  0  0  0  0  0  0  0  0  0  0  0
   11.1400   -4.0600  -56.1030 C   0  0  0  0  0  0  0  0  0  0  0  0
   11.6240   -3.2810  -57.1650 C   0  0  0  0  0  0  0  0  0  0  0  0
   12.8570   -3.5690  -57.7490 C   0  0  0  0  0  0  0  0  0  0  0  0
   13.6200   -4.6350  -57.2780 C   0  0  0  0  0  0  0  0  0  0  0  0
   13.1550   -5.4120  -56.2210 C   0  0  0  0  0  0  0  0  0  0  0  0
   11.9210   -5.1290  -55.6330 C   0  0  0  0  0  0  0  0  0  0  0  0
    9.9090   -1.3760  -54.7060 C   0  0  0  0  0  0  0  0  0  0  0  0
    9.1020    3.0820  -56.6430 C   0  0  0  0  0  0  0  0  0  0  0  0
    9.3930    4.3570  -57.2900 C   0  0  0  0  0  0  0  0  0  0  0  0
   10.5840    4.5350  -57.8730 C   0  0  0  0  0  0  0  0  0  0  0  0
   11.1500    5.5570  -58.5600 N   0  0  0  0  0  0  0  0  0  0  0  0
   14.0470    5.4380  -59.9040 H   0  0  0  0  0  0  0  0  0  0  0  0
   13.6007    3.2197  -58.7009 H   0  0  0  0  0  0  0  0  0  0  0  0
   11.8590    1.5030  -57.3200 H   0  0  0  0  0  0  0  0  0  0  0  0
    9.9070    0.1010  -56.5910 H   0  0  0  0  0  0  0  0  0  0  0  0
    8.5690    1.4066  -54.2940 H   0  0  0  0  0  0  0  0  0  0  0  0
    7.6301    0.8511  -55.7263 H   0  0  0  0  0  0  0  0  0  0  0  0
    7.8024   -1.3233  -55.1581 H   0  0  0  0  0  0  0  0  0  0  0  0
    8.3995    0.1384  -52.6005 H   0  0  0  0  0  0  0  0  0  0  0  0
    6.9676   -0.8725  -53.1018 H   0  0  0  0  0  0  0  0  0  0  0  0
    9.5794   -1.7013  -51.8736 H   0  0  0  0  0  0  0  0  0  0  0  0
    7.8864   -2.2670  -51.5601 H   0  0  0  0  0  0  0  0  0  0  0  0
    9.1934   -4.0312  -52.6445 H   0  0  0  0  0  0  0  0  0  0  0  0
    7.8888   -3.4377  -53.7324 H   0  0  0  0  0  0  0  0  0  0  0  0
   10.7840   -3.0390  -53.8690 H   0  0  0  0  0  0  0  0  0  0  0  0
    9.3469   -4.7234  -55.1672 H   0  0  0  0  0  0  0  0  0  0  0  0
    9.1837   -3.2758  -56.2624 H   0  0  0  0  0  0  0  0  0  0  0  0
   11.0263   -2.4369  -57.5396 H   0  0  0  0  0  0  0  0  0  0  0  0
   13.2275   -2.9539  -58.5823 H   0  0  0  0  0  0  0  0  0  0  0  0
   14.5910   -4.8629  -57.7419 H   0  0  0  0  0  0  0  0  0  0  0  0
   13.7612   -6.2508  -55.8482 H   0  0  0  0  0  0  0  0  0  0  0  0
   11.5584   -5.7460  -54.7976 H   0  0  0  0  0  0  0  0  0  0  0  0
   10.6185   -0.8389  -54.0594 H   0  0  0  0  0  0  0  0  0  0  0  0
   10.2254   -1.3092  -55.7574 H   0  0  0  0  0  0  0  0  0  0  0  0
    8.1153    2.9265  -56.1823 H   0  0  0  0  0  0  0  0  0  0  0  0
    8.6429    5.1615  -57.2983 H   0  0  0  0  0  0  0  0  0  0  0  0
   10.7010    6.4270  -58.7860 H   0  0  0  0  0  0  0  0  0  0  0  0
  1  2  2  3
  2  3  1  0
  3  4  2  0
  4  5  1  0
  5  6  1  0
  6  7  1  0
  7  8  1  0
  8  9  1  0
  9 10  1  0
 10 11  1  0
 11 12  1  0
 12 13  1  0
 13 14  1  0
 14 15  1  0
 15 16  2  0
 16 17  1  0
 17 18  2  0
 18 19  1  0
 19 20  2  0
 13 21  1  0
  6 22  2  0
 22 23  1  0
 23 24  2  0
 24 25  1  0
 25  2  1  0
 24  4  1  0
 21  9  1  0
 20 15  1  0
  1 26  1  0
  3 27  1  0
  5 28  1  0
  7 29  1  0
  8 30  1  0
  8 31  1  0
  9 32  1  6
 10 33  1  0
 10 34  1  0
 11 35  1  0
 11 36  1  0
 12 37  1  0
 12 38  1  0
 13 39  1  1
 14 40  1  0
 14 41  1  0
 16 42  1  0
 17 43  1  0
 18 44  1  0
 19 45  1  0
 20 46  1  0
 21 47  1  0
 21 48  1  0
 22 49  1  0
 23 50  1  0
 25 51  1  0
M  CHG  1  13   1
M  END
>  <meeko>  (54) 
{"is_sidechain": false}

$$$$

     RDKit          3D

 51 54  0  0  0  0  0  0  0  0999 V2000
   10.7890    4.3490  -58.0220 N   0  0  0  0  0  0  0  0  0  0  0  0
    9.8040    3.6580  -57.5740 C   0  0  0  0  0  0  0  0  0  0  0  0
    9.9110    2.4930  -56.6530 C   0  0  0  0  0  0  0  0  0  0  0  0
    8.6350    2.0980  -56.4870 C   0  0  0  0  0  0  0  0  0  0  0  0
    8.0860    1.0730  -55.7590 N   0  0  0  0  0  0  0  0  0  0  0  0
    6.7290    0.8000  -55.7190 C   0  0  0  0  0  0  0  0  0  0  0  0
    6.3140   -0.2580  -54.9370 N   0  0  0  0  0  0  0  0  0  0  0  0
    6.4260   -0.4180  -53.5000 C   0  0  0  0  0  0  0  0  0  0  0  0
    7.7450   -1.1240  -53.1400 C   0  0  1  0  0  0  0  0  0  0  0  0
    7.7110   -1.7120  -51.7170 C   0  0  0  0  0  0  0  0  0  0  0  0
    8.6670   -2.8930  -51.5360 C   0  0  0  0  0  0  0  0  0  0  0  0
    9.8960   -2.7660  -52.4180 C   0  0  0  0  0  0  0  0  0  0  0  0
    9.5060   -2.7370  -53.8810 N   0  0  1  0  0  0  0  0  0  0  0  0
    9.7250   -4.0570  -54.5960 C   0  0  0  0  0  0  0  0  0  0  0  0
   10.5780   -3.9190  -55.8280 C   0  0  0  0  0  0  0  0  0  0  0  0
   11.1900   -2.6950  -56.1400 C   0  0  0  0  0  0  0  0  0  0  0  0
   11.9610   -2.5650  -57.2960 C   0  0  0  0  0  0  0  0  0  0  0  0
   12.1320   -3.6540  -58.1480 C   0  0  0  0  0  0  0  0  0  0  0  0
   11.5370   -4.8770  -57.8440 C   0  0  0  0  0  0  0  0  0  0  0  0
   10.7650   -5.0110  -56.6900 C   0  0  0  0  0  0  0  0  0  0  0  0
    8.1080   -2.2040  -54.1550 C   0  0  0  0  0  0  0  0  0  0  0  0
    5.8960    1.5950  -56.4380 C   0  0  0  0  0  0  0  0  0  0  0  0
    6.4020    2.7090  -57.2370 C   0  0  0  0  0  0  0  0  0  0  0  0
    7.7180    2.9530  -57.2560 C   0  0  0  0  0  0  0  0  0  0  0  0
    8.4930    3.8770  -57.8720 N   0  0  0  0  0  0  0  0  0  0  0  0
   11.6790    3.9910  -57.6630 H   0  0  0  0  0  0  0  0  0  0  0  0
   10.8196    2.0574  -56.2118 H   0  0  0  0  0  0  0  0  0  0  0  0
    8.7120    0.4800  -55.2350 H   0  0  0  0  0  0  0  0  0  0  0  0
    5.4900   -0.7050  -55.3370 H   0  0  0  0  0  0  0  0  0  0  0  0
    6.4029    0.5725  -53.0221 H   0  0  0  0  0  0  0  0  0  0  0  0
    5.5847   -1.0299  -53.1425 H   0  0  0  0  0  0  0  0  0  0  0  0
    8.5290   -0.3530  -53.1704 H   0  0  0  0  0  0  0  0  0  0  0  0
    7.9906   -0.9221  -51.0044 H   0  0  0  0  0  0  0  0  0  0  0  0
    6.6911   -2.0834  -51.5383 H   0  0  0  0  0  0  0  0  0  0  0  0
    8.9866   -2.9340  -50.4843 H   0  0  0  0  0  0  0  0  0  0  0  0
    8.1337   -3.8109  -51.8241 H   0  0  0  0  0  0  0  0  0  0  0  0
   10.4255   -1.8350  -52.1672 H   0  0  0  0  0  0  0  0  0  0  0  0
   10.5472   -3.6352  -52.2434 H   0  0  0  0  0  0  0  0  0  0  0  0
   10.1620   -2.0830  -54.3260 H   0  0  0  0  0  0  0  0  0  0  0  0
   10.2187   -4.7542  -53.9031 H   0  0  0  0  0  0  0  0  0  0  0  0
    8.7399   -4.4278  -54.9154 H   0  0  0  0  0  0  0  0  0  0  0  0
   11.0611   -1.8328  -55.4692 H   0  0  0  0  0  0  0  0  0  0  0  0
   12.4344   -1.6012  -57.5348 H   0  0  0  0  0  0  0  0  0  0  0  0
   12.7367   -3.5485  -59.0608 H   0  0  0  0  0  0  0  0  0  0  0  0
   11.6763   -5.7376  -58.5148 H   0  0  0  0  0  0  0  0  0  0  0  0
   10.2995   -5.9792  -56.4538 H   0  0  0  0  0  0  0  0  0  0  0  0
    8.0748   -1.7761  -55.1678 H   0  0  0  0  0  0  0  0  0  0  0  0
    7.3870   -3.0306  -54.0715 H   0  0  0  0  0  0  0  0  0  0  0  0
    4.8143    1.3959  -56.4187 H   0  0  0  0  0  0  0  0  0  0  0  0
    5.7103    3.3390  -57.8154 H   0  0  0  0  0  0  0  0  0  0  0  0
    8.1720    4.5720  -58.5260 H   0  0  0  0  0  0  0  0  0  0  0  0
  1  2  2  3
  2  3  1  0
  3  4  2  0
  4  5  1  0
  5  6  1  0
  6  7  1  0
  7  8  1  0
  8  9  1  0
  9 10  1  0
 10 11  1  0
 11 12  1  0
 12 13  1  0
 13 14  1  0
 14 15  1  0
 15 16  2  0
 16 17  1  0
 17 18  2  0
 18 19  1  0
 19 20  2  0
 13 21  1  0
  6 22  2  0
 22 23  1  0
 23 24  2  0
 24 25  1  0
 25  2  1  0
 24  4  1  0
 21  9  1  0
 20 15  1  0
  1 26  1  0
  3 27  1  0
  5 28  1  0
  7 29  1  0
  8 30  1  0
  8 31  1  0
  9 32  1  1
 10 33  1  0
 10 34  1  0
 11 35  1  0
 11 36  1  0
 12 37  1  0
 12 38  1  0
 13 39  1  6
 14 40  1  0
 14 41  1  0
 16 42  1  0
 17 43  1  0
 18 44  1  0
 19 45  1  0
 20 46  1  0
 21 47  1  0
 21 48  1  0
 22 49  1  0
 23 50  1  0
 25 51  1  0
M  CHG  1  13   1
M  END
>  <meeko>  (55) 
{"is_sidechain": false}

$$$$

     RDKit          3D

 51 54  0  0  0  0  0  0  0  0999 V2000
   13.0780    4.5210  -57.8080 N   0  0  0  0  0  0  0  0  0  0  0  0
   11.8840    3.9720  -57.5320 C   0  0  0  0  0  0  0  0  0  0  0  0
   11.5440    2.7050  -57.1200 C   0  0  0  0  0  0  0  0  0  0  0  0
   10.1350    2.6700  -56.9850 C   0  0  0  0  0  0  0  0  0  0  0  0
    9.3390    1.6390  -56.6090 N   0  0  0  0  0  0  0  0  0  0  0  0
    8.0210    1.9120  -56.5490 C   0  0  0  0  0  0  0  0  0  0  0  0
    7.1670    0.8460  -56.1930 N   0  0  0  0  0  0  0  0  0  0  0  0
    7.2840    0.4660  -54.7860 C   0  0  0  0  0  0  0  0  0  0  0  0
    7.7250   -0.9990  -54.6090 C   0  0  2  0  0  0  0  0  0  0  0  0
    7.0360   -1.6540  -53.3960 C   0  0  0  0  0  0  0  0  0  0  0  0
    7.9940   -1.8540  -52.2280 C   0  0  0  0  0  0  0  0  0  0  0  0
    9.2100   -2.7000  -52.6020 C   0  0  0  0  0  0  0  0  0  0  0  0
    9.6220   -2.4730  -54.0350 N   0  0  2  0  0  0  0  0  0  0  0  0
   11.0750   -2.8000  -54.3010 C   0  0  0  0  0  0  0  0  0  0  0  0
   11.2820   -3.4830  -55.6260 C   0  0  0  0  0  0  0  0  0  0  0  0
   11.1130   -4.8710  -55.7410 C   0  0  0  0  0  0  0  0  0  0  0  0
   11.3360   -5.5110  -56.9610 C   0  0  0  0  0  0  0  0  0  0  0  0
   11.7300   -4.7730  -58.0750 C   0  0  0  0  0  0  0  0  0  0  0  0
   11.8970   -3.3930  -57.9730 C   0  0  0  0  0  0  0  0  0  0  0  0
   11.6740   -2.7490  -56.7560 C   0  0  0  0  0  0  0  0  0  0  0  0
    9.2540   -1.0990  -54.5400 C   0  0  0  0  0  0  0  0  0  0  0  0
    7.4660    3.1500  -56.8840 C   0  0  0  0  0  0  0  0  0  0  0  0
    8.2840    4.2070  -57.2830 C   0  0  0  0  0  0  0  0  0  0  0  0
    9.6460    3.9280  -57.3200 C   0  0  0  0  0  0  0  0  0  0  0  0
   10.7320    4.7030  -57.6530 N   0  0  0  0  0  0  0  0  0  0  0  0
   13.3650    4.7620  -58.7550 H   0  0  0  0  0  0  0  0  0  0  0  0
   13.5610    5.0790  -57.1070 H   0  0  0  0  0  0  0  0  0  0  0  0
   12.2380    1.8729  -56.9304 H   0  0  0  0  0  0  0  0  0  0  0  0
    7.3530    0.0630  -56.8190 H   0  0  0  0  0  0  0  0  0  0  0  0
    8.0263    1.1192  -54.3041 H   0  0  0  0  0  0  0  0  0  0  0  0
    6.2913    0.5758  -54.3249 H   0  0  0  0  0  0  0  0  0  0  0  0
    7.4002   -1.5673  -55.4931 H   0  0  0  0  0  0  0  0  0  0  0  0
    6.2076   -1.0088  -53.0681 H   0  0  0  0  0  0  0  0  0  0  0  0
    6.6730   -2.6443  -53.7082 H   0  0  0  0  0  0  0  0  0  0  0  0
    8.3426   -0.8684  -51.8859 H   0  0  0  0  0  0  0  0  0  0  0  0
    7.4473   -2.3887  -51.4373 H   0  0  0  0  0  0  0  0  0  0  0  0
   10.0484   -2.4319  -51.9423 H   0  0  0  0  0  0  0  0  0  0  0  0
    8.9421   -3.7603  -52.4839 H   0  0  0  0  0  0  0  0  0  0  0  0
    9.0920   -3.1360  -54.6150 H   0  0  0  0  0  0  0  0  0  0  0  0
   11.6537   -1.8646  -54.2928 H   0  0  0  0  0  0  0  0  0  0  0  0
   11.4100   -3.4917  -53.5140 H   0  0  0  0  0  0  0  0  0  0  0  0
   10.8028   -5.4584  -54.8642 H   0  0  0  0  0  0  0  0  0  0  0  0
   11.2005   -6.5995  -57.0431 H   0  0  0  0  0  0  0  0  0  0  0  0
   11.9093   -5.2793  -59.0349 H   0  0  0  0  0  0  0  0  0  0  0  0
   12.2052   -2.8107  -58.8539 H   0  0  0  0  0  0  0  0  0  0  0  0
   11.8062   -1.6595  -56.6816 H   0  0  0  0  0  0  0  0  0  0  0  0
    9.6452   -0.3341  -53.8530 H   0  0  0  0  0  0  0  0  0  0  0  0
    9.6877   -0.9356  -55.5376 H   0  0  0  0  0  0  0  0  0  0  0  0
    6.3764    3.2919  -56.8327 H   0  0  0  0  0  0  0  0  0  0  0  0
    7.8793    5.1943  -57.5503 H   0  0  0  0  0  0  0  0  0  0  0  0
   10.6890    5.6660  -57.9510 H   0  0  0  0  0  0  0  0  0  0  0  0
  1  2  1  0
  2  3  2  0
  3  4  1  0
  4  5  1  0
  5  6  2  0
  6  7  1  0
  7  8  1  0
  8  9  1  0
  9 10  1  0
 10 11  1  0
 11 12  1  0
 12 13  1  0
 13 14  1  0
 14 15  1  0
 15 16  2  0
 16 17  1  0
 17 18  2  0
 18 19  1  0
 19 20  2  0
 13 21  1  0
  6 22  1  0
 22 23  2  0
 23 24  1  0
 24 25  1  0
 25  2  1  0
 24  4  2  0
 21  9  1  0
 20 15  1  0
  1 26  1  0
  1 27  1  0
  3 28  1  0
  7 29  1  0
  8 30  1  0
  8 31  1  0
  9 32  1  6
 10 33  1  0
 10 34  1  0
 11 35  1  0
 11 36  1  0
 12 37  1  0
 12 38  1  0
 13 39  1  6
 14 40  1  0
 14 41  1  0
 16 42  1  0
 17 43  1  0
 18 44  1  0
 19 45  1  0
 20 46  1  0
 21 47  1  0
 21 48  1  0
 22 49  1  0
 23 50  1  0
 25 51  1  0
M  CHG  1  13   1
M  END
>  <meeko>  (56) 
{"is_sidechain": false}

$$$$

     RDKit          3D

 51 54  0  0  0  0  0  0  0  0999 V2000
   12.8590    5.9970  -59.3610 N   0  0  0  0  0  0  0  0  0  0  0  0
   12.1410    5.0790  -58.6940 C   0  0  0  0  0  0  0  0  0  0  0  0
   12.4670    3.8140  -58.2640 C   0  0  0  0  0  0  0  0  0  0  0  0
   11.3300    3.2870  -57.6060 C   0  0  0  0  0  0  0  0  0  0  0  0
   11.1680    2.0770  -57.0180 N   0  0  0  0  0  0  0  0  0  0  0  0
    9.9610    1.8610  -56.4690 C   0  0  0  0  0  0  0  0  0  0  0  0
    9.8130    0.6030  -55.8480 N   0  0  0  0  0  0  0  0  0  0  0  0
    8.4600    0.4330  -55.3310 C   0  0  0  0  0  0  0  0  0  0  0  0
    8.4970   -0.2090  -53.9290 C   0  0  1  0  0  0  0  0  0  0  0  0
    7.2020   -0.9390  -53.5410 C   0  0  0  0  0  0  0  0  0  0  0  0
    7.0160   -2.2450  -54.3050 C   0  0  0  0  0  0  0  0  0  0  0  0
    8.2180   -3.1640  -54.1450 C   0  0  0  0  0  0  0  0  0  0  0  0
    9.4740   -2.4390  -54.5730 N   0  0  2  0  0  0  0  0  0  0  0  0
   10.7030   -3.3320  -54.5060 C   0  0  0  0  0  0  0  0  0  0  0  0
   11.1740   -3.7880  -55.8590 C   0  0  0  0  0  0  0  0  0  0  0  0
   11.5880   -2.8530  -56.8210 C   0  0  0  0  0  0  0  0  0  0  0  0
   11.9980   -3.2760  -58.0860 C   0  0  0  0  0  0  0  0  0  0  0  0
   12.0020   -4.6330  -58.4010 C   0  0  0  0  0  0  0  0  0  0  0  0
   11.6000   -5.5700  -57.4530 C   0  0  0  0  0  0  0  0  0  0  0  0
   11.1890   -5.1520  -56.1860 C   0  0  0  0  0  0  0  0  0  0  0  0
    9.6920   -1.1580  -53.7980 C   0  0  0  0  0  0  0  0  0  0  0  0
    8.9160    2.7840  -56.4670 C   0  0  0  0  0  0  0  0  0  0  0  0
    9.0830    4.0300  -57.0680 C   0  0  0  0  0  0  0  0  0  0  0  0
   10.3310    4.2560  -57.6420 C   0  0  0  0  0  0  0  0  0  0  0  0
   10.8510    5.3380  -58.3150 N   0  0  0  0  0  0  0  0  0  0  0  0
   13.1860    5.7930  -60.3050 H   0  0  0  0  0  0  0  0  0  0  0  0
   12.7470    6.9950  -59.2040 H   0  0  0  0  0  0  0  0  0  0  0  0
   13.4324    3.3060  -58.4052 H   0  0  0  0  0  0  0  0  0  0  0  0
   10.4810    0.7030  -55.0770 H   0  0  0  0  0  0  0  0  0  0  0  0
    7.9703    1.4159  -55.2668 H   0  0  0  0  0  0  0  0  0  0  0  0
    7.8985   -0.2253  -56.0103 H   0  0  0  0  0  0  0  0  0  0  0  0
    8.6040    0.6287  -53.2242 H   0  0  0  0  0  0  0  0  0  0  0  0
    7.2317   -1.1615  -52.4642 H   0  0  0  0  0  0  0  0  0  0  0  0
    6.3584   -0.2804  -53.7951 H   0  0  0  0  0  0  0  0  0  0  0  0
    6.1212   -2.7579  -53.9226 H   0  0  0  0  0  0  0  0  0  0  0  0
    6.9057   -2.0059  -55.3730 H   0  0  0  0  0  0  0  0  0  0  0  0
    8.3106   -3.4649  -53.0910 H   0  0  0  0  0  0  0  0  0  0  0  0
    8.0805   -4.0565  -54.7731 H   0  0  0  0  0  0  0  0  0  0  0  0
    9.3610   -2.2150  -55.5700 H   0  0  0  0  0  0  0  0  0  0  0  0
   11.5169   -2.7721  -54.0222 H   0  0  0  0  0  0  0  0  0  0  0  0
   10.4255   -4.2303  -53.9349 H   0  0  0  0  0  0  0  0  0  0  0  0
   11.5892   -1.7806  -56.5761 H   0  0  0  0  0  0  0  0  0  0  0  0
   12.3184   -2.5371  -58.8353 H   0  0  0  0  0  0  0  0  0  0  0  0
   12.3230   -4.9644  -59.3995 H   0  0  0  0  0  0  0  0  0  0  0  0
   11.6062   -6.6413  -57.7027 H   0  0  0  0  0  0  0  0  0  0  0  0
   10.8751   -5.8967  -55.4397 H   0  0  0  0  0  0  0  0  0  0  0  0
    9.8377   -1.4039  -52.7358 H   0  0  0  0  0  0  0  0  0  0  0  0
   10.5785   -0.6535  -54.2099 H   0  0  0  0  0  0  0  0  0  0  0  0
    7.9583    2.5282  -55.9902 H   0  0  0  0  0  0  0  0  0  0  0  0
    8.2826    4.7843  -57.0876 H   0  0  0  0  0  0  0  0  0  0  0  0
   10.3600    6.2000  -58.4970 H   0  0  0  0  0  0  0  0  0  0  0  0
  1  2  1  0
  2  3  2  0
  3  4  1  0
  4  5  1  0
  5  6  2  0
  6  7  1  0
  7  8  1  0
  8  9  1  0
  9 10  1  0
 10 11  1  0
 11 12  1  0
 12 13  1  0
 13 14  1  0
 14 15  1  0
 15 16  2  0
 16 17  1  0
 17 18  2  0
 18 19  1  0
 19 20  2  0
 13 21  1  0
  6 22  1  0
 22 23  2  0
 23 24  1  0
 24 25  1  0
 25  2  1  0
 24  4  2  0
 21  9  1  0
 20 15  1  0
  1 26  1  0
  1 27  1  0
  3 28  1  0
  7 29  1  0
  8 30  1  0
  8 31  1  0
  9 32  1  1
 10 33  1  0
 10 34  1  0
 11 35  1  0
 11 36  1  0
 12 37  1  0
 12 38  1  0
 13 39  1  6
 14 40  1  0
 14 41  1  0
 16 42  1  0
 17 43  1  0
 18 44  1  0
 19 45  1  0
 20 46  1  0
 21 47  1  0
 21 48  1  0
 22 49  1  0
 23 50  1  0
 25 51  1  0
M  CHG  1  13   1
M  END
>  <meeko>  (57) 
{"is_sidechain": false}

$$$$

     RDKit          3D

 51 54  0  0  0  0  0  0  0  0999 V2000
    7.2430    4.2820  -59.0200 N   0  0  0  0  0  0  0  0  0  0  0  0
    7.2210    3.3230  -58.0820 C   0  0  0  0  0  0  0  0  0  0  0  0
    6.1800    2.5980  -57.5530 C   0  0  0  0  0  0  0  0  0  0  0  0
    6.7270    1.7130  -56.5950 C   0  0  0  0  0  0  0  0  0  0  0  0
    6.0980    0.8010  -55.8140 N   0  0  0  0  0  0  0  0  0  0  0  0
    6.8870    0.1040  -54.9850 C   0  0  0  0  0  0  0  0  0  0  0  0
    6.1820   -0.8520  -54.2290 N   0  0  0  0  0  0  0  0  0  0  0  0
    6.8010   -1.1760  -52.9350 C   0  0  0  0  0  0  0  0  0  0  0  0
    7.0690   -2.6960  -52.8190 C   0  0  2  0  0  0  0  0  0  0  0  0
    6.7710   -3.2560  -51.4150 C   0  0  0  0  0  0  0  0  0  0  0  0
    7.8600   -2.9710  -50.3830 C   0  0  0  0  0  0  0  0  0  0  0  0
    9.2520   -3.3160  -50.8950 C   0  0  0  0  0  0  0  0  0  0  0  0
    9.4720   -2.6300  -52.2110 N   0  0  1  0  0  0  0  0  0  0  0  0
   10.9070   -2.6080  -52.6690 C   0  0  0  0  0  0  0  0  0  0  0  0
   11.1150   -2.8040  -54.1470 C   0  0  0  0  0  0  0  0  0  0  0  0
   11.1810   -1.7000  -55.0120 C   0  0  0  0  0  0  0  0  0  0  0  0
   11.3950   -1.8830  -56.3790 C   0  0  0  0  0  0  0  0  0  0  0  0
   11.5420   -3.1670  -56.8970 C   0  0  0  0  0  0  0  0  0  0  0  0
   11.4690   -4.2710  -56.0520 C   0  0  0  0  0  0  0  0  0  0  0  0
   11.2550   -4.0940  -54.6840 C   0  0  0  0  0  0  0  0  0  0  0  0
    8.4860   -3.0830  -53.2580 C   0  0  0  0  0  0  0  0  0  0  0  0
    8.2730    0.2420  -54.9150 C   0  0  0  0  0  0  0  0  0  0  0  0
    8.9240    1.1780  -55.7180 C   0  0  0  0  0  0  0  0  0  0  0  0
    8.1030    1.9160  -56.5650 C   0  0  0  0  0  0  0  0  0  0  0  0
    8.3800    2.9030  -57.4820 N   0  0  0  0  0  0  0  0  0  0  0  0
    7.8150    5.1200  -58.9500 H   0  0  0  0  0  0  0  0  0  0  0  0
    6.4570    4.3970  -59.6590 H   0  0  0  0  0  0  0  0  0  0  0  0
    5.1179    2.6892  -57.8245 H   0  0  0  0  0  0  0  0  0  0  0  0
    5.3270   -0.2930  -54.0730 H   0  0  0  0  0  0  0  0  0  0  0  0
    7.7540   -0.6339  -52.8453 H   0  0  0  0  0  0  0  0  0  0  0  0
    6.1131   -0.8769  -52.1304 H   0  0  0  0  0  0  0  0  0  0  0  0
    6.3595   -3.1618  -53.5187 H   0  0  0  0  0  0  0  0  0  0  0  0
    5.8316   -2.8090  -51.0576 H   0  0  0  0  0  0  0  0  0  0  0  0
    6.7109   -4.3496  -51.5172 H   0  0  0  0  0  0  0  0  0  0  0  0
    7.8330   -1.9014  -50.1276 H   0  0  0  0  0  0  0  0  0  0  0  0
    7.6611   -3.6014  -49.5038 H   0  0  0  0  0  0  0  0  0  0  0  0
   10.0064   -2.9751  -50.1707 H   0  0  0  0  0  0  0  0  0  0  0  0
    9.3415   -4.4048  -51.0238 H   0  0  0  0  0  0  0  0  0  0  0  0
    9.2250   -1.6300  -52.0500 H   0  0  0  0  0  0  0  0  0  0  0  0
   11.3371   -1.6343  -52.3917 H   0  0  0  0  0  0  0  0  0  0  0  0
   11.3956   -3.4624  -52.1777 H   0  0  0  0  0  0  0  0  0  0  0  0
   11.0632   -0.6832  -54.6093 H   0  0  0  0  0  0  0  0  0  0  0  0
   11.4476   -1.0115  -57.0481 H   0  0  0  0  0  0  0  0  0  0  0  0
   11.7158   -3.3091  -57.9738 H   0  0  0  0  0  0  0  0  0  0  0  0
   11.5802   -5.2851  -56.4633 H   0  0  0  0  0  0  0  0  0  0  0  0
   11.1956   -4.9707  -54.0223 H   0  0  0  0  0  0  0  0  0  0  0  0
    8.7192   -2.5976  -54.2171 H   0  0  0  0  0  0  0  0  0  0  0  0
    8.5501   -4.1746  -53.3774 H   0  0  0  0  0  0  0  0  0  0  0  0
    8.8535   -0.3884  -54.2254 H   0  0  0  0  0  0  0  0  0  0  0  0
   10.0138    1.3232  -55.6841 H   0  0  0  0  0  0  0  0  0  0  0  0
    9.2980    3.2620  -57.6940 H   0  0  0  0  0  0  0  0  0  0  0  0
  1  2  1  0
  2  3  2  0
  3  4  1  0
  4  5  1  0
  5  6  2  0
  6  7  1  0
  7  8  1  0
  8  9  1  0
  9 10  1  0
 10 11  1  0
 11 12  1  0
 12 13  1  0
 13 14  1  0
 14 15  1  0
 15 16  2  0
 16 17  1  0
 17 18  2  0
 18 19  1  0
 19 20  2  0
 13 21  1  0
  6 22  1  0
 22 23  2  0
 23 24  1  0
 24 25  1  0
 25  2  1  0
 24  4  2  0
 21  9  1  0
 20 15  1  0
  1 26  1  0
  1 27  1  0
  3 28  1  0
  7 29  1  0
  8 30  1  0
  8 31  1  0
  9 32  1  6
 10 33  1  0
 10 34  1  0
 11 35  1  0
 11 36  1  0
 12 37  1  0
 12 38  1  0
 13 39  1  1
 14 40  1  0
 14 41  1  0
 16 42  1  0
 17 43  1  0
 18 44  1  0
 19 45  1  0
 20 46  1  0
 21 47  1  0
 21 48  1  0
 22 49  1  0
 23 50  1  0
 25 51  1  0
M  CHG  1  13   1
M  END
>  <meeko>  (58) 
{"is_sidechain": false}

$$$$

     RDKit          3D

 51 54  0  0  0  0  0  0  0  0999 V2000
   12.5580    3.6690  -59.1640 N   0  0  0  0  0  0  0  0  0  0  0  0
   11.3760    3.2500  -58.6820 C   0  0  0  0  0  0  0  0  0  0  0  0
   10.9610    2.9990  -57.3950 C   0  0  0  0  0  0  0  0  0  0  0  0
    9.6100    2.5850  -57.4610 C   0  0  0  0  0  0  0  0  0  0  0  0
    8.7750    2.2360  -56.4550 N   0  0  0  0  0  0  0  0  0  0  0  0
    7.5340    1.8720  -56.8110 C   0  0  0  0  0  0  0  0  0  0  0  0
    6.5900    1.5170  -55.8190 N   0  0  0  0  0  0  0  0  0  0  0  0
    6.6390    0.1350  -55.3430 C   0  0  0  0  0  0  0  0  0  0  0  0
    7.7080   -0.1000  -54.2540 C   0  0  1  0  0  0  0  0  0  0  0  0
    7.1470   -0.4380  -52.8580 C   0  0  0  0  0  0  0  0  0  0  0  0
    7.4170   -1.8820  -52.4470 C   0  0  0  0  0  0  0  0  0  0  0  0
    8.8940   -2.2600  -52.4940 C   0  0  0  0  0  0  0  0  0  0  0  0
    9.6500   -1.4300  -53.5070 N   0  0  1  0  0  0  0  0  0  0  0  0
   11.0120   -1.9860  -53.8600 C   0  0  0  0  0  0  0  0  0  0  0  0
   11.1000   -2.8040  -55.1220 C   0  0  0  0  0  0  0  0  0  0  0  0
   11.6300   -2.2470  -56.2970 C   0  0  0  0  0  0  0  0  0  0  0  0
   11.7220   -3.0080  -57.4640 C   0  0  0  0  0  0  0  0  0  0  0  0
   11.2810   -4.3280  -57.4740 C   0  0  0  0  0  0  0  0  0  0  0  0
   10.7420   -4.8900  -56.3200 C   0  0  0  0  0  0  0  0  0  0  0  0
   10.6480   -4.1330  -55.1510 C   0  0  0  0  0  0  0  0  0  0  0  0
    8.7880   -1.0910  -54.7030 C   0  0  0  0  0  0  0  0  0  0  0  0
    7.0880    1.8770  -58.1380 C   0  0  0  0  0  0  0  0  0  0  0  0
    7.9400    2.2420  -59.1800 C   0  0  0  0  0  0  0  0  0  0  0  0
    9.2280    2.5980  -58.7980 C   0  0  0  0  0  0  0  0  0  0  0  0
   10.3220    3.0050  -59.5230 N   0  0  0  0  0  0  0  0  0  0  0  0
   12.6310    4.5880  -59.5990 H   0  0  0  0  0  0  0  0  0  0  0  0
   13.4450    3.3620  -58.7730 H   0  0  0  0  0  0  0  0  0  0  0  0
   11.5675    3.1013  -56.4830 H   0  0  0  0  0  0  0  0  0  0  0  0
    5.6750    1.7260  -56.2260 H   0  0  0  0  0  0  0  0  0  0  0  0
    5.6545   -0.1259  -54.9275 H   0  0  0  0  0  0  0  0  0  0  0  0
    6.9072   -0.4958  -56.2033 H   0  0  0  0  0  0  0  0  0  0  0  0
    8.1911    0.8800  -54.1264 H   0  0  0  0  0  0  0  0  0  0  0  0
    7.6140    0.2308  -52.1200 H   0  0  0  0  0  0  0  0  0  0  0  0
    6.0560   -0.3030  -52.8976 H   0  0  0  0  0  0  0  0  0  0  0  0
    7.0530   -2.0256  -51.4189 H   0  0  0  0  0  0  0  0  0  0  0  0
    6.8939   -2.5276  -53.1677 H   0  0  0  0  0  0  0  0  0  0  0  0
    9.3355   -2.0984  -51.4995 H   0  0  0  0  0  0  0  0  0  0  0  0
    8.9691   -3.3166  -52.7907 H   0  0  0  0  0  0  0  0  0  0  0  0
    9.8530   -0.5370  -53.0440 H   0  0  0  0  0  0  0  0  0  0  0  0
   11.7026   -1.1362  -53.9642 H   0  0  0  0  0  0  0  0  0  0  0  0
   11.2614   -2.6818  -53.0453 H   0  0  0  0  0  0  0  0  0  0  0  0
   11.9755   -1.2027  -56.2981 H   0  0  0  0  0  0  0  0  0  0  0  0
   12.1439   -2.5633  -58.3774 H   0  0  0  0  0  0  0  0  0  0  0  0
   11.3583   -4.9270  -58.3934 H   0  0  0  0  0  0  0  0  0  0  0  0
   10.3897   -5.9320  -56.3294 H   0  0  0  0  0  0  0  0  0  0  0  0
   10.2159   -4.5817  -54.2444 H   0  0  0  0  0  0  0  0  0  0  0  0
    9.4068   -0.6352  -55.4900 H   0  0  0  0  0  0  0  0  0  0  0  0
    8.3217   -2.0029  -55.1042 H   0  0  0  0  0  0  0  0  0  0  0  0
    6.0503    1.5888  -58.3621 H   0  0  0  0  0  0  0  0  0  0  0  0
    7.6153    2.2477  -60.2310 H   0  0  0  0  0  0  0  0  0  0  0  0
   10.3470    3.1190  -60.5250 H   0  0  0  0  0  0  0  0  0  0  0  0
  1  2  1  0
  2  3  2  0
  3  4  1  0
  4  5  1  0
  5  6  2  0
  6  7  1  0
  7  8  1  0
  8  9  1  0
  9 10  1  0
 10 11  1  0
 11 12  1  0
 12 13  1  0
 13 14  1  0
 14 15  1  0
 15 16  2  0
 16 17  1  0
 17 18  2  0
 18 19  1  0
 19 20  2  0
 13 21  1  0
  6 22  1  0
 22 23  2  0
 23 24  1  0
 24 25  1  0
 25  2  1  0
 24  4  2  0
 21  9  1  0
 20 15  1  0
  1 26  1  0
  1 27  1  0
  3 28  1  0
  7 29  1  0
  8 30  1  0
  8 31  1  0
  9 32  1  1
 10 33  1  0
 10 34  1  0
 11 35  1  0
 11 36  1  0
 12 37  1  0
 12 38  1  0
 13 39  1  1
 14 40  1  0
 14 41  1  0
 16 42  1  0
 17 43  1  0
 18 44  1  0
 19 45  1  0
 20 46  1  0
 21 47  1  0
 21 48  1  0
 22 49  1  0
 23 50  1  0
 25 51  1  0
M  CHG  1  13   1
M  END
>  <meeko>  (59) 
{"is_sidechain": false}

$$$$

     RDKit          3D

 51 54  0  0  0  0  0  0  0  0999 V2000
   11.2940    5.6760  -59.8480 N   0  0  0  0  0  0  0  0  0  0  0  0
   10.7100    4.7950  -59.0210 C   0  0  0  0  0  0  0  0  0  0  0  0
   11.2470    3.9810  -58.0420 C   0  0  0  0  0  0  0  0  0  0  0  0
   10.1710    3.2700  -57.4870 C   0  0  0  0  0  0  0  0  0  0  0  0
   10.1260    2.3520  -56.5060 N   0  0  0  0  0  0  0  0  0  0  0  0
    8.8920    1.8200  -56.1580 C   0  0  0  0  0  0  0  0  0  0  0  0
    8.9060    0.9420  -55.2000 N   0  0  0  0  0  0  0  0  0  0  0  0
    7.6780    0.3110  -54.7460 C   0  0  0  0  0  0  0  0  0  0  0  0
    7.9540   -1.1960  -54.5980 C   0  0  2  0  0  0  0  0  0  0  0  0
    7.2090   -1.8140  -53.3960 C   0  0  0  0  0  0  0  0  0  0  0  0
    8.1340   -2.0310  -52.2060 C   0  0  0  0  0  0  0  0  0  0  0  0
    9.3050   -2.9510  -52.5400 C   0  0  0  0  0  0  0  0  0  0  0  0
    9.7190   -2.8160  -53.9910 N   0  0  2  0  0  0  0  0  0  0  0  0
   11.1340   -3.2860  -54.2440 C   0  0  0  0  0  0  0  0  0  0  0  0
   11.3420   -3.7810  -55.6490 C   0  0  0  0  0  0  0  0  0  0  0  0
   11.6810   -2.8880  -56.6780 C   0  0  0  0  0  0  0  0  0  0  0  0
   11.9060   -3.3560  -57.9730 C   0  0  0  0  0  0  0  0  0  0  0  0
   11.7950   -4.7160  -58.2540 C   0  0  0  0  0  0  0  0  0  0  0  0
   11.4540   -5.6110  -57.2420 C   0  0  0  0  0  0  0  0  0  0  0  0
   11.2290   -5.1480  -55.9450 C   0  0  0  0  0  0  0  0  0  0  0  0
    9.4640   -1.4360  -54.5350 C   0  0  0  0  0  0  0  0  0  0  0  0
    7.6250    2.2690  -56.8830 C   0  0  0  0  0  0  0  0  0  0  0  0
    7.7210    3.1900  -57.8610 C   0  0  0  0  0  0  0  0  0  0  0  0
    9.0200    3.6570  -58.1210 C   0  0  0  0  0  0  0  0  0  0  0  0
    9.3470    4.5930  -59.0600 N   0  0  0  0  0  0  0  0  0  0  0  0
   11.1270    6.6740  -59.7340 H   0  0  0  0  0  0  0  0  0  0  0  0
   12.1540    5.4760  -60.3520 H   0  0  0  0  0  0  0  0  0  0  0  0
   12.3061    3.9052  -57.7548 H   0  0  0  0  0  0  0  0  0  0  0  0
   10.9320    2.0260  -55.9920 H   0  0  0  0  0  0  0  0  0  0  0  0
    7.3758    0.7336  -53.7764 H   0  0  0  0  0  0  0  0  0  0  0  0
    6.8657    0.4852  -55.4670 H   0  0  0  0  0  0  0  0  0  0  0  0
    7.5565   -1.7124  -55.4842 H   0  0  0  0  0  0  0  0  0  0  0  0
    6.3955   -1.1373  -53.0955 H   0  0  0  0  0  0  0  0  0  0  0  0
    6.8156   -2.7935  -53.7054 H   0  0  0  0  0  0  0  0  0  0  0  0
    8.5307   -1.0567  -51.8845 H   0  0  0  0  0  0  0  0  0  0  0  0
    7.5476   -2.5103  -51.4082 H   0  0  0  0  0  0  0  0  0  0  0  0
   10.1595   -2.6897  -51.8984 H   0  0  0  0  0  0  0  0  0  0  0  0
    8.9889   -3.9901  -52.3659 H   0  0  0  0  0  0  0  0  0  0  0  0
    9.1190   -3.4600  -54.5220 H   0  0  0  0  0  0  0  0  0  0  0  0
   11.8209   -2.4464  -54.0620 H   0  0  0  0  0  0  0  0  0  0  0  0
   11.3295   -4.1283  -53.5641 H   0  0  0  0  0  0  0  0  0  0  0  0
   11.7697   -1.8131  -56.4620 H   0  0  0  0  0  0  0  0  0  0  0  0
   12.1715   -2.6499  -58.7736 H   0  0  0  0  0  0  0  0  0  0  0  0
   11.9766   -5.0833  -59.2749 H   0  0  0  0  0  0  0  0  0  0  0  0
   11.3620   -6.6841  -57.4658 H   0  0  0  0  0  0  0  0  0  0  0  0
   10.9614   -5.8591  -55.1496 H   0  0  0  0  0  0  0  0  0  0  0  0
    9.9290   -0.6881  -53.8759 H   0  0  0  0  0  0  0  0  0  0  0  0
    9.8964   -1.3482  -55.5426 H   0  0  0  0  0  0  0  0  0  0  0  0
    6.6470    1.8458  -56.6100 H   0  0  0  0  0  0  0  0  0  0  0  0
    6.8435    3.5513  -58.4173 H   0  0  0  0  0  0  0  0  0  0  0  0
    8.7110    5.0760  -59.6750 H   0  0  0  0  0  0  0  0  0  0  0  0
  1  2  1  0
  2  3  2  0
  3  4  1  0
  4  5  1  0
  5  6  1  0
  6  7  2  0
  7  8  1  0
  8  9  1  0
  9 10  1  0
 10 11  1  0
 11 12  1  0
 12 13  1  0
 13 14  1  0
 14 15  1  0
 15 16  2  0
 16 17  1  0
 17 18  2  0
 18 19  1  0
 19 20  2  0
 13 21  1  0
  6 22  1  0
 22 23  2  0
 23 24  1  0
 24 25  1  0
 25  2  1  0
 24  4  2  0
 21  9  1  0
 20 15  1  0
  1 26  1  0
  1 27  1  0
  3 28  1  0
  5 29  1  0
  8 30  1  0
  8 31  1  0
  9 32  1  6
 10 33  1  0
 10 34  1  0
 11 35  1  0
 11 36  1  0
 12 37  1  0
 12 38  1  0
 13 39  1  6
 14 40  1  0
 14 41  1  0
 16 42  1  0
 17 43  1  0
 18 44  1  0
 19 45  1  0
 20 46  1  0
 21 47  1  0
 21 48  1  0
 22 49  1  0
 23 50  1  0
 25 51  1  0
M  CHG  1  13   1
M  END
>  <meeko>  (60) 
{"is_sidechain": false}

$$$$

     RDKit          3D

 51 54  0  0  0  0  0  0  0  0999 V2000
    8.8210   -3.2880  -51.1240 N   0  0  0  0  0  0  0  0  0  0  0  0
    8.4570   -2.4050  -52.0680 C   0  0  0  0  0  0  0  0  0  0  0  0
    9.2180   -1.6520  -52.9420 C   0  0  0  0  0  0  0  0  0  0  0  0
    8.3110   -0.9060  -53.7110 C   0  0  0  0  0  0  0  0  0  0  0  0
    8.5060   -0.0170  -54.7000 N   0  0  0  0  0  0  0  0  0  0  0  0
    7.3960    0.5870  -55.2750 C   0  0  0  0  0  0  0  0  0  0  0  0
    7.6550    1.4370  -56.2210 N   0  0  0  0  0  0  0  0  0  0  0  0
    6.6220    2.1890  -56.9160 C   0  0  0  0  0  0  0  0  0  0  0  0
    7.1390    2.6120  -58.3030 C   0  0  1  0  0  0  0  0  0  0  0  0
    7.2400    4.1340  -58.4120 C   0  0  0  0  0  0  0  0  0  0  0  0
    8.4200    4.7270  -57.6440 C   0  0  0  0  0  0  0  0  0  0  0  0
    9.5880    3.7700  -57.4490 C   0  0  0  0  0  0  0  0  0  0  0  0
    9.6760    2.7840  -58.5740 N   0  0  2  0  0  0  0  0  0  0  0  0
   10.1290    3.3510  -59.9040 C   0  0  0  0  0  0  0  0  0  0  0  0
   11.3210    4.2630  -59.7850 C   0  0  0  0  0  0  0  0  0  0  0  0
   11.2040    5.6310  -60.0760 C   0  0  0  0  0  0  0  0  0  0  0  0
   12.3160    6.4690  -59.9910 C   0  0  0  0  0  0  0  0  0  0  0  0
   13.5540    5.9520  -59.6170 C   0  0  0  0  0  0  0  0  0  0  0  0
   13.6820    4.5960  -59.3210 C   0  0  0  0  0  0  0  0  0  0  0  0
   12.5730    3.7550  -59.4030 C   0  0  0  0  0  0  0  0  0  0  0  0
    8.4530    1.8950  -58.6690 C   0  0  0  0  0  0  0  0  0  0  0  0
    5.9900    0.2220  -54.8010 C   0  0  0  0  0  0  0  0  0  0  0  0
    5.8440   -0.6820  -53.8140 C   0  0  0  0  0  0  0  0  0  0  0  0
    7.0390   -1.2140  -53.3030 C   0  0  0  0  0  0  0  0  0  0  0  0
    7.1270   -2.1330  -52.2980 N   0  0  0  0  0  0  0  0  0  0  0  0
    8.6930   -3.0630  -50.1400 H   0  0  0  0  0  0  0  0  0  0  0  0
    8.8450   -4.2910  -51.2920 H   0  0  0  0  0  0  0  0  0  0  0  0
   10.3152   -1.6397  -53.0196 H   0  0  0  0  0  0  0  0  0  0  0  0
    9.4180    0.2940  -55.0080 H   0  0  0  0  0  0  0  0  0  0  0  0
    5.7276    1.5597  -57.0345 H   0  0  0  0  0  0  0  0  0  0  0  0
    6.3657    3.0851  -56.3318 H   0  0  0  0  0  0  0  0  0  0  0  0
    6.4013    2.2890  -59.0524 H   0  0  0  0  0  0  0  0  0  0  0  0
    7.3478    4.3999  -59.4739 H   0  0  0  0  0  0  0  0  0  0  0  0
    6.3243    4.5500  -57.9664 H   0  0  0  0  0  0  0  0  0  0  0  0
    8.7837    5.6057  -58.1969 H   0  0  0  0  0  0  0  0  0  0  0  0
    8.0474    4.9765  -56.6396 H   0  0  0  0  0  0  0  0  0  0  0  0
   10.5224    4.3488  -57.4056 H   0  0  0  0  0  0  0  0  0  0  0  0
    9.4306    3.2155  -56.5121 H   0  0  0  0  0  0  0  0  0  0  0  0
   10.4430    2.1520  -58.3090 H   0  0  0  0  0  0  0  0  0  0  0  0
   10.3933    2.5152  -60.5685 H   0  0  0  0  0  0  0  0  0  0  0  0
    9.2977    3.9501  -60.3040 H   0  0  0  0  0  0  0  0  0  0  0  0
   10.2292    6.0451  -60.3730 H   0  0  0  0  0  0  0  0  0  0  0  0
   12.2149    7.5402  -60.2198 H   0  0  0  0  0  0  0  0  0  0  0  0
   14.4306    6.6137  -59.5552 H   0  0  0  0  0  0  0  0  0  0  0  0
   14.6592    4.1888  -59.0223 H   0  0  0  0  0  0  0  0  0  0  0  0
   12.6796    2.6860  -59.1668 H   0  0  0  0  0  0  0  0  0  0  0  0
    8.3713    1.5252  -59.7017 H   0  0  0  0  0  0  0  0  0  0  0  0
    8.5892    1.0805  -57.9424 H   0  0  0  0  0  0  0  0  0  0  0  0
    5.1080    0.6920  -55.2605 H   0  0  0  0  0  0  0  0  0  0  0  0
    4.8566   -0.9832  -53.4340 H   0  0  0  0  0  0  0  0  0  0  0  0
    6.3570   -2.5590  -51.8030 H   0  0  0  0  0  0  0  0  0  0  0  0
  1  2  1  0
  2  3  2  0
  3  4  1  0
  4  5  1  0
  5  6  1  0
  6  7  2  0
  7  8  1  0
  8  9  1  0
  9 10  1  0
 10 11  1  0
 11 12  1  0
 12 13  1  0
 13 14  1  0
 14 15  1  0
 15 16  2  0
 16 17  1  0
 17 18  2  0
 18 19  1  0
 19 20  2  0
 13 21  1  0
  6 22  1  0
 22 23  2  0
 23 24  1  0
 24 25  1  0
 25  2  1  0
 24  4  2  0
 21  9  1  0
 20 15  1  0
  1 26  1  0
  1 27  1  0
  3 28  1  0
  5 29  1  0
  8 30  1  0
  8 31  1  0
  9 32  1  6
 10 33  1  0
 10 34  1  0
 11 35  1  0
 11 36  1  0
 12 37  1  0
 12 38  1  0
 13 39  1  1
 14 40  1  0
 14 41  1  0
 16 42  1  0
 17 43  1  0
 18 44  1  0
 19 45  1  0
 20 46  1  0
 21 47  1  0
 21 48  1  0
 22 49  1  0
 23 50  1  0
 25 51  1  0
M  CHG  1  13   1
M  END
>  <meeko>  (61) 
{"is_sidechain": false}

$$$$

     RDKit          3D

 51 54  0  0  0  0  0  0  0  0999 V2000
   10.1960    4.9640  -57.8810 N   0  0  0  0  0  0  0  0  0  0  0  0
    9.6160    3.9010  -57.3030 C   0  0  0  0  0  0  0  0  0  0  0  0
   10.1310    2.9410  -56.4530 C   0  0  0  0  0  0  0  0  0  0  0  0
    9.0750    2.0620  -56.1670 C   0  0  0  0  0  0  0  0  0  0  0  0
    9.0220    0.9580  -55.4010 N   0  0  0  0  0  0  0  0  0  0  0  0
    7.8210    0.2630  -55.3260 C   0  0  0  0  0  0  0  0  0  0  0  0
    7.8400   -0.7990  -54.5820 N   0  0  0  0  0  0  0  0  0  0  0  0
    6.6950   -1.6680  -54.3930 C   0  0  0  0  0  0  0  0  0  0  0  0
    7.0350   -2.8000  -53.4080 C   0  0  2  0  0  0  0  0  0  0  0  0
    6.7970   -2.3720  -51.9440 C   0  0  0  0  0  0  0  0  0  0  0  0
    7.6560   -3.1830  -50.9840 C   0  0  0  0  0  0  0  0  0  0  0  0
    9.1510   -3.0130  -51.2490 C   0  0  0  0  0  0  0  0  0  0  0  0
    9.4070   -2.6080  -52.6830 N   0  0  1  0  0  0  0  0  0  0  0  0
   10.8680   -2.6700  -53.0820 C   0  0  0  0  0  0  0  0  0  0  0  0
   11.1500   -2.9910  -54.5260 C   0  0  0  0  0  0  0  0  0  0  0  0
   11.3020   -4.3210  -54.9490 C   0  0  0  0  0  0  0  0  0  0  0  0
   11.5780   -4.6140  -56.2860 C   0  0  0  0  0  0  0  0  0  0  0  0
   11.6980   -3.5840  -57.2150 C   0  0  0  0  0  0  0  0  0  0  0  0
   11.5340   -2.2610  -56.8140 C   0  0  0  0  0  0  0  0  0  0  0  0
   11.2590   -1.9650  -55.4780 C   0  0  0  0  0  0  0  0  0  0  0  0
    8.4700   -3.3000  -53.6390 C   0  0  0  0  0  0  0  0  0  0  0  0
    6.5920    0.7680  -56.0790 C   0  0  0  0  0  0  0  0  0  0  0  0
    6.6910    1.8830  -56.8270 C   0  0  0  0  0  0  0  0  0  0  0  0
    7.9590    2.4900  -56.8370 C   0  0  0  0  0  0  0  0  0  0  0  0
    8.2900    3.6140  -57.5370 N   0  0  0  0  0  0  0  0  0  0  0  0
    9.6380    5.6380  -58.4010 H   0  0  0  0  0  0  0  0  0  0  0  0
   11.1850    5.0050  -58.1120 H   0  0  0  0  0  0  0  0  0  0  0  0
   11.1624    2.8783  -56.0759 H   0  0  0  0  0  0  0  0  0  0  0  0
    9.8130    0.5700  -54.9060 H   0  0  0  0  0  0  0  0  0  0  0  0
    5.8561   -1.0797  -53.9929 H   0  0  0  0  0  0  0  0  0  0  0  0
    6.4198   -2.1100  -55.3620 H   0  0  0  0  0  0  0  0  0  0  0  0
    6.3523   -3.6407  -53.6010 H   0  0  0  0  0  0  0  0  0  0  0  0
    7.0483   -1.3065  -51.8368 H   0  0  0  0  0  0  0  0  0  0  0  0
    5.7396   -2.5492  -51.6980 H   0  0  0  0  0  0  0  0  0  0  0  0
    7.4407   -2.8560  -49.9560 H   0  0  0  0  0  0  0  0  0  0  0  0
    7.4095   -4.2449  -51.1311 H   0  0  0  0  0  0  0  0  0  0  0  0
    9.5484   -2.2357  -50.5797 H   0  0  0  0  0  0  0  0  0  0  0  0
    9.6504   -3.9753  -51.0633 H   0  0  0  0  0  0  0  0  0  0  0  0
    9.1790   -1.6060  -52.7340 H   0  0  0  0  0  0  0  0  0  0  0  0
   11.3178   -1.6906  -52.8619 H   0  0  0  0  0  0  0  0  0  0  0  0
   11.2952   -3.5043  -52.5062 H   0  0  0  0  0  0  0  0  0  0  0  0
   11.2028   -5.1394  -54.2208 H   0  0  0  0  0  0  0  0  0  0  0  0
   11.7007   -5.6594  -56.6055 H   0  0  0  0  0  0  0  0  0  0  0  0
   11.9226   -3.8157  -58.2666 H   0  0  0  0  0  0  0  0  0  0  0  0
   11.6212   -1.4485  -57.5504 H   0  0  0  0  0  0  0  0  0  0  0  0
   11.1264   -0.9179  -55.1681 H   0  0  0  0  0  0  0  0  0  0  0  0
    8.7728   -3.0784  -54.6730 H   0  0  0  0  0  0  0  0  0  0  0  0
    8.5102   -4.3859  -53.4679 H   0  0  0  0  0  0  0  0  0  0  0  0
    5.6367    0.2268  -56.0110 H   0  0  0  0  0  0  0  0  0  0  0  0
    5.8391    2.2907  -57.3910 H   0  0  0  0  0  0  0  0  0  0  0  0
    7.6810    4.1490  -58.1400 H   0  0  0  0  0  0  0  0  0  0  0  0
  1  2  1  0
  2  3  2  0
  3  4  1  0
  4  5  1  0
  5  6  1  0
  6  7  2  0
  7  8  1  0
  8  9  1  0
  9 10  1  0
 10 11  1  0
 11 12  1  0
 12 13  1  0
 13 14  1  0
 14 15  1  0
 15 16  2  0
 16 17  1  0
 17 18  2  0
 18 19  1  0
 19 20  2  0
 13 21  1  0
  6 22  1  0
 22 23  2  0
 23 24  1  0
 24 25  1  0
 25  2  1  0
 24  4  2  0
 21  9  1  0
 20 15  1  0
  1 26  1  0
  1 27  1  0
  3 28  1  0
  5 29  1  0
  8 30  1  0
  8 31  1  0
  9 32  1  6
 10 33  1  0
 10 34  1  0
 11 35  1  0
 11 36  1  0
 12 37  1  0
 12 38  1  0
 13 39  1  1
 14 40  1  0
 14 41  1  0
 16 42  1  0
 17 43  1  0
 18 44  1  0
 19 45  1  0
 20 46  1  0
 21 47  1  0
 21 48  1  0
 22 49  1  0
 23 50  1  0
 25 51  1  0
M  CHG  1  13   1
M  END
>  <meeko>  (62) 
{"is_sidechain": false}

$$$$

     RDKit          3D

 51 54  0  0  0  0  0  0  0  0999 V2000
   13.1930    6.0390  -59.7140 N   0  0  0  0  0  0  0  0  0  0  0  0
   12.4450    5.1760  -59.0080 C   0  0  0  0  0  0  0  0  0  0  0  0
   12.6640    3.8530  -58.6750 C   0  0  0  0  0  0  0  0  0  0  0  0
   11.5520    3.4490  -57.9180 C   0  0  0  0  0  0  0  0  0  0  0  0
   11.2510    2.2700  -57.3450 N   0  0  0  0  0  0  0  0  0  0  0  0
   10.0550    2.1650  -56.6450 C   0  0  0  0  0  0  0  0  0  0  0  0
    9.8150    1.0040  -56.1080 N   0  0  0  0  0  0  0  0  0  0  0  0
    8.5810    0.7900  -55.3620 C   0  0  0  0  0  0  0  0  0  0  0  0
    8.8030   -0.3530  -54.3580 C   0  0  1  0  0  0  0  0  0  0  0  0
    7.5570   -1.2320  -54.2060 C   0  0  0  0  0  0  0  0  0  0  0  0
    7.7560   -2.3220  -53.1520 C   0  0  0  0  0  0  0  0  0  0  0  0
    9.2170   -2.6440  -52.8710 C   0  0  0  0  0  0  0  0  0  0  0  0
   10.0410   -2.5600  -54.1260 N   0  0  1  0  0  0  0  0  0  0  0  0
    9.7490   -3.6380  -55.1540 C   0  0  0  0  0  0  0  0  0  0  0  0
   10.9660   -4.0600  -55.9320 C   0  0  0  0  0  0  0  0  0  0  0  0
   11.1720   -3.5950  -57.2410 C   0  0  0  0  0  0  0  0  0  0  0  0
   12.2870   -4.0090  -57.9700 C   0  0  0  0  0  0  0  0  0  0  0  0
   13.2070   -4.8870  -57.4030 C   0  0  0  0  0  0  0  0  0  0  0  0
   13.0180   -5.3500  -56.1030 C   0  0  0  0  0  0  0  0  0  0  0  0
   11.9040   -4.9400  -55.3690 C   0  0  0  0  0  0  0  0  0  0  0  0
   10.0500   -1.1670  -54.7320 C   0  0  0  0  0  0  0  0  0  0  0  0
    9.1170    3.3670  -56.5360 C   0  0  0  0  0  0  0  0  0  0  0  0
    9.4640    4.5270  -57.1250 C   0  0  0  0  0  0  0  0  0  0  0  0
   10.6960    4.5110  -57.8030 C   0  0  0  0  0  0  0  0  0  0  0  0
   11.2410    5.5720  -58.4670 N   0  0  0  0  0  0  0  0  0  0  0  0
   14.0320    5.7180  -60.1920 H   0  0  0  0  0  0  0  0  0  0  0  0
   12.8190    6.8960  -60.1110 H   0  0  0  0  0  0  0  0  0  0  0  0
   13.5349    3.2390  -58.9481 H   0  0  0  0  0  0  0  0  0  0  0  0
   11.8290    1.4460  -57.4140 H   0  0  0  0  0  0  0  0  0  0  0  0
    8.3108    1.7095  -54.8221 H   0  0  0  0  0  0  0  0  0  0  0  0
    7.7662    0.5284  -56.0531 H   0  0  0  0  0  0  0  0  0  0  0  0
    8.9832    0.0938  -53.3691 H   0  0  0  0  0  0  0  0  0  0  0  0
    6.7087   -0.5986  -53.9074 H   0  0  0  0  0  0  0  0  0  0  0  0
    7.3641   -1.7216  -55.1720 H   0  0  0  0  0  0  0  0  0  0  0  0
    7.2878   -1.9877  -52.2144 H   0  0  0  0  0  0  0  0  0  0  0  0
    7.2957   -3.2392  -53.5481 H   0  0  0  0  0  0  0  0  0  0  0  0
    9.6082   -1.9255  -52.1356 H   0  0  0  0  0  0  0  0  0  0  0  0
    9.2796   -3.6703  -52.4800 H   0  0  0  0  0  0  0  0  0  0  0  0
   11.0070   -2.7480  -53.8360 H   0  0  0  0  0  0  0  0  0  0  0  0
    9.3448   -4.5182  -54.6325 H   0  0  0  0  0  0  0  0  0  0  0  0
    9.0305   -3.2180  -55.8732 H   0  0  0  0  0  0  0  0  0  0  0  0
   10.4497   -2.9001  -57.6943 H   0  0  0  0  0  0  0  0  0  0  0  0
   12.4398   -3.6409  -58.9953 H   0  0  0  0  0  0  0  0  0  0  0  0
   14.0831   -5.2150  -57.9817 H   0  0  0  0  0  0  0  0  0  0  0  0
   13.7479   -6.0398  -55.6542 H   0  0  0  0  0  0  0  0  0  0  0  0
   11.7600   -5.3087  -54.3427 H   0  0  0  0  0  0  0  0  0  0  0  0
   10.9412   -0.6319  -54.3721 H   0  0  0  0  0  0  0  0  0  0  0  0
   10.0590   -1.2795  -55.8262 H   0  0  0  0  0  0  0  0  0  0  0  0
    8.1697    3.2853  -55.9829 H   0  0  0  0  0  0  0  0  0  0  0  0
    8.8287    5.4238  -57.0791 H   0  0  0  0  0  0  0  0  0  0  0  0
   10.8480    6.4980  -58.5490 H   0  0  0  0  0  0  0  0  0  0  0  0
  1  2  1  0
  2  3  2  0
  3  4  1  0
  4  5  1  0
  5  6  1  0
  6  7  2  0
  7  8  1  0
  8  9  1  0
  9 10  1  0
 10 11  1  0
 11 12  1  0
 12 13  1  0
 13 14  1  0
 14 15  1  0
 15 16  2  0
 16 17  1  0
 17 18  2  0
 18 19  1  0
 19 20  2  0
 13 21  1  0
  6 22  1  0
 22 23  2  0
 23 24  1  0
 24 25  1  0
 25  2  1  0
 24  4  2  0
 21  9  1  0
 20 15  1  0
  1 26  1  0
  1 27  1  0
  3 28  1  0
  5 29  1  0
  8 30  1  0
  8 31  1  0
  9 32  1  1
 10 33  1  0
 10 34  1  0
 11 35  1  0
 11 36  1  0
 12 37  1  0
 12 38  1  0
 13 39  1  1
 14 40  1  0
 14 41  1  0
 16 42  1  0
 17 43  1  0
 18 44  1  0
 19 45  1  0
 20 46  1  0
 21 47  1  0
 21 48  1  0
 22 49  1  0
 23 50  1  0
 25 51  1  0
M  CHG  1  13   1
M  END
>  <meeko>  (63) 
{"is_sidechain": false}

$$$$

     RDKit          3D

 51 54  0  0  0  0  0  0  0  0999 V2000
   12.5010    3.7010  -58.9660 N   0  0  0  0  0  0  0  0  0  0  0  0
   11.3770    3.2050  -58.4280 C   0  0  0  0  0  0  0  0  0  0  0  0
   11.1670    2.5100  -57.2530 C   0  0  0  0  0  0  0  0  0  0  0  0
    9.7880    2.2440  -57.1910 C   0  0  0  0  0  0  0  0  0  0  0  0
    9.0490    1.6010  -56.2660 N   0  0  0  0  0  0  0  0  0  0  0  0
    7.6770    1.5030  -56.4880 C   0  0  0  0  0  0  0  0  0  0  0  0
    6.8220    0.9260  -55.6990 N   0  0  0  0  0  0  0  0  0  0  0  0
    7.2880    0.3190  -54.4620 C   0  0  0  0  0  0  0  0  0  0  0  0
    7.6050   -1.1590  -54.7550 C   0  0  2  0  0  0  0  0  0  0  0  0
    6.6470   -2.1220  -54.0200 C   0  0  0  0  0  0  0  0  0  0  0  0
    7.2910   -2.7290  -52.7820 C   0  0  0  0  0  0  0  0  0  0  0  0
    8.5630   -3.5070  -53.1090 C   0  0  0  0  0  0  0  0  0  0  0  0
    9.2740   -2.9310  -54.3110 N   0  0  2  0  0  0  0  0  0  0  0  0
   10.7240   -3.3590  -54.3560 C   0  0  0  0  0  0  0  0  0  0  0  0
   11.1580   -3.8290  -55.7180 C   0  0  0  0  0  0  0  0  0  0  0  0
   11.5510   -2.9060  -56.6990 C   0  0  0  0  0  0  0  0  0  0  0  0
   11.9300   -3.3440  -57.9690 C   0  0  0  0  0  0  0  0  0  0  0  0
   11.9220   -4.7040  -58.2710 C   0  0  0  0  0  0  0  0  0  0  0  0
   11.5420   -5.6300  -57.3020 C   0  0  0  0  0  0  0  0  0  0  0  0
   11.1620   -5.1970  -56.0310 C   0  0  0  0  0  0  0  0  0  0  0  0
    9.0760   -1.4410  -54.4330 C   0  0  0  0  0  0  0  0  0  0  0  0
    7.0500    2.1000  -57.7400 C   0  0  0  0  0  0  0  0  0  0  0  0
    7.8300    2.7320  -58.6360 C   0  0  0  0  0  0  0  0  0  0  0  0
    9.1960    2.7740  -58.3090 C   0  0  0  0  0  0  0  0  0  0  0  0
   10.1650    3.3660  -59.0650 N   0  0  0  0  0  0  0  0  0  0  0  0
   12.9300    4.5670  -58.6470 H   0  0  0  0  0  0  0  0  0  0  0  0
   12.7750    3.4520  -59.9140 H   0  0  0  0  0  0  0  0  0  0  0  0
   11.9278    2.2218  -56.5127 H   0  0  0  0  0  0  0  0  0  0  0  0
    9.4610    1.2020  -55.4380 H   0  0  0  0  0  0  0  0  0  0  0  0
    8.1943    0.8338  -54.1105 H   0  0  0  0  0  0  0  0  0  0  0  0
    6.5187    0.3999  -53.6800 H   0  0  0  0  0  0  0  0  0  0  0  0
    7.4411   -1.3452  -55.8267 H   0  0  0  0  0  0  0  0  0  0  0  0
    5.7477   -1.5659  -53.7165 H   0  0  0  0  0  0  0  0  0  0  0  0
    6.3934   -2.9415  -54.7086 H   0  0  0  0  0  0  0  0  0  0  0  0
    7.5427   -1.9189  -52.0817 H   0  0  0  0  0  0  0  0  0  0  0  0
    6.5709   -3.4341  -52.3412 H   0  0  0  0  0  0  0  0  0  0  0  0
    9.2386   -3.4673  -52.2418 H   0  0  0  0  0  0  0  0  0  0  0  0
    8.2814   -4.5448  -53.3406 H   0  0  0  0  0  0  0  0  0  0  0  0
    8.8390   -3.3420  -55.1470 H   0  0  0  0  0  0  0  0  0  0  0  0
   11.3509   -2.5034  -54.0646 H   0  0  0  0  0  0  0  0  0  0  0  0
   10.8377   -4.2069  -53.6645 H   0  0  0  0  0  0  0  0  0  0  0  0
   11.5605   -1.8310  -56.4659 H   0  0  0  0  0  0  0  0  0  0  0  0
   12.2356   -2.6139  -58.7329 H   0  0  0  0  0  0  0  0  0  0  0  0
   12.2156   -5.0466  -59.2742 H   0  0  0  0  0  0  0  0  0  0  0  0
   11.5415   -6.7041  -57.5391 H   0  0  0  0  0  0  0  0  0  0  0  0
   10.8637   -5.9327  -55.2696 H   0  0  0  0  0  0  0  0  0  0  0  0
    9.3460   -0.9540  -53.4843 H   0  0  0  0  0  0  0  0  0  0  0  0
    9.7151   -1.0453  -55.2361 H   0  0  0  0  0  0  0  0  0  0  0  0
    5.9667    2.0154  -57.9111 H   0  0  0  0  0  0  0  0  0  0  0  0
    7.4283    3.1822  -59.5558 H   0  0  0  0  0  0  0  0  0  0  0  0
   10.0320    3.8540  -59.9390 H   0  0  0  0  0  0  0  0  0  0  0  0
  1  2  1  0
  2  3  2  0
  3  4  1  0
  4  5  1  0
  5  6  1  0
  6  7  2  0
  7  8  1  0
  8  9  1  0
  9 10  1  0
 10 11  1  0
 11 12  1  0
 12 13  1  0
 13 14  1  0
 14 15  1  0
 15 16  2  0
 16 17  1  0
 17 18  2  0
 18 19  1  0
 19 20  2  0
 13 21  1  0
  6 22  1  0
 22 23  2  0
 23 24  1  0
 24 25  1  0
 25  2  1  0
 24  4  2  0
 21  9  1  0
 20 15  1  0
  1 26  1  0
  1 27  1  0
  3 28  1  0
  5 29  1  0
  8 30  1  0
  8 31  1  0
  9 32  1  6
 10 33  1  0
 10 34  1  0
 11 35  1  0
 11 36  1  0
 12 37  1  0
 12 38  1  0
 13 39  1  6
 14 40  1  0
 14 41  1  0
 16 42  1  0
 17 43  1  0
 18 44  1  0
 19 45  1  0
 20 46  1  0
 21 47  1  0
 21 48  1  0
 22 49  1  0
 23 50  1  0
 25 51  1  0
M  CHG  1  13   1
M  END
>  <meeko>  (64) 
{"is_sidechain": false}

$$$$

     RDKit          3D

 51 54  0  0  0  0  0  0  0  0999 V2000
    6.1410    2.6870  -61.7640 N   0  0  0  0  0  0  0  0  0  0  0  0
    6.7500    2.4670  -60.5880 C   0  0  0  0  0  0  0  0  0  0  0  0
    6.2910    1.8630  -59.4320 C   0  0  0  0  0  0  0  0  0  0  0  0
    7.3530    1.9130  -58.5140 C   0  0  0  0  0  0  0  0  0  0  0  0
    7.4440    1.4740  -57.2420 N   0  0  0  0  0  0  0  0  0  0  0  0
    8.6470    1.6830  -56.5720 C   0  0  0  0  0  0  0  0  0  0  0  0
    8.9060    1.3250  -55.3470 N   0  0  0  0  0  0  0  0  0  0  0  0
    7.8600    0.6540  -54.5860 C   0  0  0  0  0  0  0  0  0  0  0  0
    8.5250   -0.4640  -53.7730 C   0  0  1  0  0  0  0  0  0  0  0  0
    7.7150   -0.7740  -52.5030 C   0  0  0  0  0  0  0  0  0  0  0  0
    7.9470   -2.1950  -51.9860 C   0  0  0  0  0  0  0  0  0  0  0  0
    9.3350   -2.7020  -52.3370 C   0  0  0  0  0  0  0  0  0  0  0  0
    9.5040   -2.7630  -53.8420 N   0  0  2  0  0  0  0  0  0  0  0  0
   10.9620   -2.7690  -54.2600 C   0  0  0  0  0  0  0  0  0  0  0  0
   11.1870   -3.4310  -55.5940 C   0  0  0  0  0  0  0  0  0  0  0  0
   11.6820   -2.6950  -56.6810 C   0  0  0  0  0  0  0  0  0  0  0  0
   11.9190   -3.3180  -57.9070 C   0  0  0  0  0  0  0  0  0  0  0  0
   11.6640   -4.6790  -58.0590 C   0  0  0  0  0  0  0  0  0  0  0  0
   11.1680   -5.4190  -56.9880 C   0  0  0  0  0  0  0  0  0  0  0  0
   10.9290   -4.8010  -55.7600 C   0  0  0  0  0  0  0  0  0  0  0  0
    8.7010   -1.7260  -54.6130 C   0  0  0  0  0  0  0  0  0  0  0  0
    9.8090    2.3820  -57.2650 C   0  0  0  0  0  0  0  0  0  0  0  0
    9.6700    2.8000  -58.5370 C   0  0  0  0  0  0  0  0  0  0  0  0
    8.4140    2.5380  -59.1130 C   0  0  0  0  0  0  0  0  0  0  0  0
    8.0470    2.8810  -60.3820 N   0  0  0  0  0  0  0  0  0  0  0  0
    5.4740    3.4400  -61.9150 H   0  0  0  0  0  0  0  0  0  0  0  0
    6.5380    2.3280  -62.6290 H   0  0  0  0  0  0  0  0  0  0  0  0
    5.2937    1.4300  -59.2647 H   0  0  0  0  0  0  0  0  0  0  0  0
    6.6670    1.0320  -56.7750 H   0  0  0  0  0  0  0  0  0  0  0  0
    7.3701    1.3697  -53.9094 H   0  0  0  0  0  0  0  0  0  0  0  0
    7.0957    0.2401  -55.2603 H   0  0  0  0  0  0  0  0  0  0  0  0
    9.5223   -0.1103  -53.4725 H   0  0  0  0  0  0  0  0  0  0  0  0
    8.0067   -0.0618  -51.7171 H   0  0  0  0  0  0  0  0  0  0  0  0
    6.6490   -0.6839  -52.7590 H   0  0  0  0  0  0  0  0  0  0  0  0
    7.8322   -2.1993  -50.8920 H   0  0  0  0  0  0  0  0  0  0  0  0
    7.2097   -2.8575  -52.4629 H   0  0  0  0  0  0  0  0  0  0  0  0
   10.0884   -2.0213  -51.9139 H   0  0  0  0  0  0  0  0  0  0  0  0
    9.4650   -3.7114  -51.9197 H   0  0  0  0  0  0  0  0  0  0  0  0
    9.1380   -3.6770  -54.1350 H   0  0  0  0  0  0  0  0  0  0  0  0
   11.3139   -1.7286  -54.3208 H   0  0  0  0  0  0  0  0  0  0  0  0
   11.5187   -3.3463  -53.5071 H   0  0  0  0  0  0  0  0  0  0  0  0
   11.8846   -1.6199  -56.5661 H   0  0  0  0  0  0  0  0  0  0  0  0
   12.3076   -2.7338  -58.7542 H   0  0  0  0  0  0  0  0  0  0  0  0
   11.8543   -5.1696  -59.0250 H   0  0  0  0  0  0  0  0  0  0  0  0
   10.9643   -6.4930  -57.1107 H   0  0  0  0  0  0  0  0  0  0  0  0
   10.5366   -5.3900  -54.9180 H   0  0  0  0  0  0  0  0  0  0  0  0
    9.2322   -1.4727  -55.5423 H   0  0  0  0  0  0  0  0  0  0  0  0
    7.7100   -2.1417  -54.8480 H   0  0  0  0  0  0  0  0  0  0  0  0
   10.7560    2.5443  -56.7295 H   0  0  0  0  0  0  0  0  0  0  0  0
   10.4776    3.3080  -59.0844 H   0  0  0  0  0  0  0  0  0  0  0  0
    8.6130    3.3670  -61.0610 H   0  0  0  0  0  0  0  0  0  0  0  0
  1  2  1  0
  2  3  2  0
  3  4  1  0
  4  5  1  0
  5  6  1  0
  6  7  2  0
  7  8  1  0
  8  9  1  0
  9 10  1  0
 10 11  1  0
 11 12  1  0
 12 13  1  0
 13 14  1  0
 14 15  1  0
 15 16  2  0
 16 17  1  0
 17 18  2  0
 18 19  1  0
 19 20  2  0
 13 21  1  0
  6 22  1  0
 22 23  2  0
 23 24  1  0
 24 25  1  0
 25  2  1  0
 24  4  2  0
 21  9  1  0
 20 15  1  0
  1 26  1  0
  1 27  1  0
  3 28  1  0
  5 29  1  0
  8 30  1  0
  8 31  1  0
  9 32  1  1
 10 33  1  0
 10 34  1  0
 11 35  1  0
 11 36  1  0
 12 37  1  0
 12 38  1  0
 13 39  1  6
 14 40  1  0
 14 41  1  0
 16 42  1  0
 17 43  1  0
 18 44  1  0
 19 45  1  0
 20 46  1  0
 21 47  1  0
 21 48  1  0
 22 49  1  0
 23 50  1  0
 25 51  1  0
M  CHG  1  13   1
M  END
>  <meeko>  (65) 
{"is_sidechain": false}

$$$$

     RDKit          3D

 51 54  0  0  0  0  0  0  0  0999 V2000
   13.4580    4.3750  -59.3680 N   0  0  0  0  0  0  0  0  0  0  0  0
   12.4100    3.7780  -58.7810 C   0  0  0  0  0  0  0  0  0  0  0  0
   12.2920    3.1660  -57.5480 C   0  0  0  0  0  0  0  0  0  0  0  0
   10.9630    2.7200  -57.4530 C   0  0  0  0  0  0  0  0  0  0  0  0
   10.3170    2.0650  -56.4690 N   0  0  0  0  0  0  0  0  0  0  0  0
    8.9720    1.7620  -56.6700 C   0  0  0  0  0  0  0  0  0  0  0  0
    8.2010    1.1430  -55.8270 N   0  0  0  0  0  0  0  0  0  0  0  0
    8.7430    0.7160  -54.5460 C   0  0  0  0  0  0  0  0  0  0  0  0
    8.5810   -0.8110  -54.4560 C   0  0  2  0  0  0  0  0  0  0  0  0
    7.5010   -1.2040  -53.4340 C   0  0  0  0  0  0  0  0  0  0  0  0
    7.4010   -2.7170  -53.2680 C   0  0  0  0  0  0  0  0  0  0  0  0
    8.7490   -3.3410  -52.9400 C   0  0  0  0  0  0  0  0  0  0  0  0
    9.7810   -2.9590  -53.9700 N   0  0  1  0  0  0  0  0  0  0  0  0
    9.6180   -3.7000  -55.2840 C   0  0  0  0  0  0  0  0  0  0  0  0
   10.9260   -3.9590  -55.9800 C   0  0  0  0  0  0  0  0  0  0  0  0
   11.3850   -3.0890  -56.9820 C   0  0  0  0  0  0  0  0  0  0  0  0
   12.5840   -3.3490  -57.6470 C   0  0  0  0  0  0  0  0  0  0  0  0
   13.3340   -4.4770  -57.3200 C   0  0  0  0  0  0  0  0  0  0  0  0
   12.8900   -5.3450  -56.3240 C   0  0  0  0  0  0  0  0  0  0  0  0
   11.6930   -5.0890  -55.6570 C   0  0  0  0  0  0  0  0  0  0  0  0
    9.9180   -1.4560  -54.0950 C   0  0  0  0  0  0  0  0  0  0  0  0
    8.2730    2.1570  -57.9630 C   0  0  0  0  0  0  0  0  0  0  0  0
    8.9620    2.8080  -58.9170 C   0  0  0  0  0  0  0  0  0  0  0  0
   10.3090    3.0640  -58.6070 C   0  0  0  0  0  0  0  0  0  0  0  0
   11.1910    3.7160  -59.4190 N   0  0  0  0  0  0  0  0  0  0  0  0
   13.3590    5.0820  -60.0920 H   0  0  0  0  0  0  0  0  0  0  0  0
   14.3710    3.9260  -59.3770 H   0  0  0  0  0  0  0  0  0  0  0  0
   13.0817    3.0508  -56.7910 H   0  0  0  0  0  0  0  0  0  0  0  0
   10.7750    1.8060  -55.6090 H   0  0  0  0  0  0  0  0  0  0  0  0
    9.8078    0.9843  -54.4814 H   0  0  0  0  0  0  0  0  0  0  0  0
    8.2117    1.2095  -53.7188 H   0  0  0  0  0  0  0  0  0  0  0  0
    8.2558   -1.1791  -55.4403 H   0  0  0  0  0  0  0  0  0  0  0  0
    7.7511   -0.7550  -52.4614 H   0  0  0  0  0  0  0  0  0  0  0  0
    6.5320   -0.8360  -53.8023 H   0  0  0  0  0  0  0  0  0  0  0  0
    6.6978   -2.9397  -52.4520 H   0  0  0  0  0  0  0  0  0  0  0  0
    7.0505   -3.1424  -54.2200 H   0  0  0  0  0  0  0  0  0  0  0  0
    9.0785   -2.9885  -51.9515 H   0  0  0  0  0  0  0  0  0  0  0  0
    8.6399   -4.4356  -52.9396 H   0  0  0  0  0  0  0  0  0  0  0  0
   10.6840   -3.2840  -53.6060 H   0  0  0  0  0  0  0  0  0  0  0  0
    9.1306   -4.6655  -55.0836 H   0  0  0  0  0  0  0  0  0  0  0  0
    9.0133   -3.0639  -55.9471 H   0  0  0  0  0  0  0  0  0  0  0  0
   10.7962   -2.1976  -57.2442 H   0  0  0  0  0  0  0  0  0  0  0  0
   12.9376   -2.6625  -58.4304 H   0  0  0  0  0  0  0  0  0  0  0  0
   14.2768   -4.6824  -57.8481 H   0  0  0  0  0  0  0  0  0  0  0  0
   13.4848   -6.2330  -56.0640 H   0  0  0  0  0  0  0  0  0  0  0  0
   11.3472   -5.7776  -54.8720 H   0  0  0  0  0  0  0  0  0  0  0  0
   10.2676   -1.0459  -53.1360 H   0  0  0  0  0  0  0  0  0  0  0  0
   10.6399   -1.2359  -54.8952 H   0  0  0  0  0  0  0  0  0  0  0  0
    7.2117    1.9117  -58.1161 H   0  0  0  0  0  0  0  0  0  0  0  0
    8.5055    3.1171  -59.8689 H   0  0  0  0  0  0  0  0  0  0  0  0
   10.9950    4.1030  -60.3310 H   0  0  0  0  0  0  0  0  0  0  0  0
  1  2  1  0
  2  3  2  0
  3  4  1  0
  4  5  1  0
  5  6  1  0
  6  7  2  0
  7  8  1  0
  8  9  1  0
  9 10  1  0
 10 11  1  0
 11 12  1  0
 12 13  1  0
 13 14  1  0
 14 15  1  0
 15 16  2  0
 16 17  1  0
 17 18  2  0
 18 19  1  0
 19 20  2  0
 13 21  1  0
  6 22  1  0
 22 23  2  0
 23 24  1  0
 24 25  1  0
 25  2  1  0
 24  4  2  0
 21  9  1  0
 20 15  1  0
  1 26  1  0
  1 27  1  0
  3 28  1  0
  5 29  1  0
  8 30  1  0
  8 31  1  0
  9 32  1  6
 10 33  1  0
 10 34  1  0
 11 35  1  0
 11 36  1  0
 12 37  1  0
 12 38  1  0
 13 39  1  1
 14 40  1  0
 14 41  1  0
 16 42  1  0
 17 43  1  0
 18 44  1  0
 19 45  1  0
 20 46  1  0
 21 47  1  0
 21 48  1  0
 22 49  1  0
 23 50  1  0
 25 51  1  0
M  CHG  1  13   1
M  END
>  <meeko>  (66) 
{"is_sidechain": false}

$$$$

     RDKit          3D

 51 54  0  0  0  0  0  0  0  0999 V2000
   13.7770    6.9000  -60.1700 N   0  0  0  0  0  0  0  0  0  0  0  0
   12.8400    6.0560  -59.7100 C   0  0  0  0  0  0  0  0  0  0  0  0
   12.9060    5.0740  -58.7410 C   0  0  0  0  0  0  0  0  0  0  0  0
   11.6230    4.5060  -58.6670 C   0  0  0  0  0  0  0  0  0  0  0  0
   11.1370    3.5170  -57.8910 N   0  0  0  0  0  0  0  0  0  0  0  0
    9.7940    3.1790  -58.0430 C   0  0  0  0  0  0  0  0  0  0  0  0
    9.1650    2.2530  -57.3780 N   0  0  0  0  0  0  0  0  0  0  0  0
    9.8980    1.4990  -56.3700 C   0  0  0  0  0  0  0  0  0  0  0  0
    8.8940    0.9260  -55.3610 C   0  0  1  0  0  0  0  0  0  0  0  0
    7.4470    1.0260  -55.8780 C   0  0  0  0  0  0  0  0  0  0  0  0
    6.5270   -0.0350  -55.2730 C   0  0  0  0  0  0  0  0  0  0  0  0
    6.9480   -0.4120  -53.8640 C   0  0  0  0  0  0  0  0  0  0  0  0
    8.3490   -0.9890  -53.8570 N   0  0  1  0  0  0  0  0  0  0  0  0
    8.3840   -2.4990  -53.7410 C   0  0  0  0  0  0  0  0  0  0  0  0
    7.7970   -2.9990  -52.4490 C   0  0  0  0  0  0  0  0  0  0  0  0
    8.3230   -2.5780  -51.2170 C   0  0  0  0  0  0  0  0  0  0  0  0
    7.7640   -3.0240  -50.0190 C   0  0  0  0  0  0  0  0  0  0  0  0
    6.6780   -3.8960  -50.0380 C   0  0  0  0  0  0  0  0  0  0  0  0
    6.1510   -4.3280  -51.2520 C   0  0  0  0  0  0  0  0  0  0  0  0
    6.7080   -3.8850  -52.4530 C   0  0  0  0  0  0  0  0  0  0  0  0
    9.2340   -0.5160  -55.0000 C   0  0  0  0  0  0  0  0  0  0  0  0
    8.9220    3.9060  -59.0570 C   0  0  0  0  0  0  0  0  0  0  0  0
    9.4550    4.8840  -59.8100 C   0  0  0  0  0  0  0  0  0  0  0  0
   10.8160    5.1430  -59.5720 C   0  0  0  0  0  0  0  0  0  0  0  0
   11.5570    6.0950  -60.2090 N   0  0  0  0  0  0  0  0  0  0  0  0
   13.5670    7.6970  -60.7650 H   0  0  0  0  0  0  0  0  0  0  0  0
   14.7540    6.6190  -60.2130 H   0  0  0  0  0  0  0  0  0  0  0  0
   13.7873    4.7927  -58.1459 H   0  0  0  0  0  0  0  0  0  0  0  0
   11.7090    3.0490  -57.2050 H   0  0  0  0  0  0  0  0  0  0  0  0
   10.4503    0.6778  -56.8503 H   0  0  0  0  0  0  0  0  0  0  0  0
   10.6139    2.1568  -55.8555 H   0  0  0  0  0  0  0  0  0  0  0  0
    8.9692    1.5371  -54.4495 H   0  0  0  0  0  0  0  0  0  0  0  0
    7.0511    2.0204  -55.6244 H   0  0  0  0  0  0  0  0  0  0  0  0
    7.4717    0.8618  -56.9654 H   0  0  0  0  0  0  0  0  0  0  0  0
    5.5004    0.3591  -55.2440 H   0  0  0  0  0  0  0  0  0  0  0  0
    6.5879   -0.9368  -55.8999 H   0  0  0  0  0  0  0  0  0  0  0  0
    6.9245    0.4854  -53.2283 H   0  0  0  0  0  0  0  0  0  0  0  0
    6.2519   -1.1720  -53.4796 H   0  0  0  0  0  0  0  0  0  0  0  0
    8.7840   -0.6430  -52.9940 H   0  0  0  0  0  0  0  0  0  0  0  0
    7.8119   -2.9289  -54.5764 H   0  0  0  0  0  0  0  0  0  0  0  0
    9.4393   -2.8084  -53.7666 H   0  0  0  0  0  0  0  0  0  0  0  0
    9.1822   -1.8914  -51.1962 H   0  0  0  0  0  0  0  0  0  0  0  0
    8.1812   -2.6867  -49.0587 H   0  0  0  0  0  0  0  0  0  0  0  0
    6.2362   -4.2438  -49.0926 H   0  0  0  0  0  0  0  0  0  0  0  0
    5.2951   -5.0189  -51.2649 H   0  0  0  0  0  0  0  0  0  0  0  0
    6.2906   -4.2327  -53.4095 H   0  0  0  0  0  0  0  0  0  0  0  0
   10.2885   -0.5756  -54.6928 H   0  0  0  0  0  0  0  0  0  0  0  0
    9.0640   -1.1574  -55.8773 H   0  0  0  0  0  0  0  0  0  0  0  0
    7.8627    3.6330  -59.1729 H   0  0  0  0  0  0  0  0  0  0  0  0
    8.8695    5.4402  -60.5569 H   0  0  0  0  0  0  0  0  0  0  0  0
   11.2310    6.7360  -60.9190 H   0  0  0  0  0  0  0  0  0  0  0  0
  1  2  1  0
  2  3  2  0
  3  4  1  0
  4  5  1  0
  5  6  1  0
  6  7  2  0
  7  8  1  0
  8  9  1  0
  9 10  1  0
 10 11  1  0
 11 12  1  0
 12 13  1  0
 13 14  1  0
 14 15  1  0
 15 16  2  0
 16 17  1  0
 17 18  2  0
 18 19  1  0
 19 20  2  0
 13 21  1  0
  6 22  1  0
 22 23  2  0
 23 24  1  0
 24 25  1  0
 25  2  1  0
 24  4  2  0
 21  9  1  0
 20 15  1  0
  1 26  1  0
  1 27  1  0
  3 28  1  0
  5 29  1  0
  8 30  1  0
  8 31  1  0
  9 32  1  1
 10 33  1  0
 10 34  1  0
 11 35  1  0
 11 36  1  0
 12 37  1  0
 12 38  1  0
 13 39  1  1
 14 40  1  0
 14 41  1  0
 16 42  1  0
 17 43  1  0
 18 44  1  0
 19 45  1  0
 20 46  1  0
 21 47  1  0
 21 48  1  0
 22 49  1  0
 23 50  1  0
 25 51  1  0
M  CHG  1  13   1
M  END
>  <meeko>  (67) 
{"is_sidechain": false}

$$$$

     RDKit          3D

 56 58  0  0  0  0  0  0  0  0999 V2000
    8.2030   -3.6970  -52.8100 C   0  0  0  0  0  0  0  0  0  0  0  0
    7.6640   -2.4160  -52.1780 C   0  0  0  0  0  0  0  0  0  0  0  0
    7.8290   -2.4220  -50.6590 C   0  0  0  0  0  0  0  0  0  0  0  0
    8.2190   -1.2140  -52.7970 N   0  0  0  0  0  0  0  0  0  0  0  0
    7.7960   -0.7320  -54.0220 C   0  0  0  0  0  0  0  0  0  0  0  0
    6.9580   -1.2860  -54.7180 O   0  0  0  0  0  0  0  0  0  0  0  0
    8.4600    0.4280  -54.3350 N   0  0  0  0  0  0  0  0  0  0  0  0
    8.2730    1.0400  -55.5380 C   0  0  0  0  0  0  0  0  0  0  0  0
    7.2110    1.2720  -56.0930 O   0  0  0  0  0  0  0  0  0  0  0  0
    9.4820    1.4890  -55.9800 O   0  0  0  0  0  0  0  0  0  0  0  0
    9.4390    2.4490  -57.0540 C   0  0  2  0  0  0  0  0  0  0  0  0
   10.7040    2.2730  -57.8880 C   0  0  0  0  0  0  0  0  0  0  0  0
   10.7480    3.2320  -59.0780 C   0  0  0  0  0  0  0  0  0  0  0  0
   10.1860    4.6410  -58.7780 C   0  0  1  0  0  0  0  0  0  0  0  0
    8.8140    4.8370  -59.4590 C   0  0  0  0  0  0  0  0  0  0  0  0
    8.5150    3.7730  -60.4040 N   0  0  0  0  0  0  0  0  0  0  0  0
    7.3760    3.0020  -60.4760 C   0  0  0  0  0  0  0  0  0  0  0  0
    6.8730    2.3010  -59.4270 C   0  0  0  0  0  0  0  0  0  0  0  0
    5.6610    1.4960  -59.5610 C   0  0  0  0  0  0  0  0  0  0  0  0
    5.0330    1.4730  -60.7420 C   0  0  0  0  0  0  0  0  0  0  0  0
    3.8870    0.8200  -61.1030 N   0  0  0  0  0  0  0  0  0  0  0  0
    3.7040    1.1590  -62.3540 C   0  0  0  0  0  0  0  0  0  0  0  0
    2.6360    0.7040  -63.0650 N   0  0  0  0  0  0  0  0  0  0  0  0
    4.7310    2.0670  -62.9050 C   0  0  0  0  0  0  0  0  0  0  0  0
    5.5460    2.2270  -61.8660 C   0  0  0  0  0  0  0  0  0  0  0  0
    6.7030    2.9410  -61.6880 N   0  0  0  0  0  0  0  0  0  0  0  0
   10.1560    4.9030  -57.2650 C   0  0  0  0  0  0  0  0  0  0  0  0
    9.3370    3.8730  -56.4860 C   0  0  0  0  0  0  0  0  0  0  0  0
    8.4989   -4.4004  -52.0177 H   0  0  0  0  0  0  0  0  0  0  0  0
    7.4214   -4.1551  -53.4338 H   0  0  0  0  0  0  0  0  0  0  0  0
    9.0770   -3.4585  -53.4338 H   0  0  0  0  0  0  0  0  0  0  0  0
    6.5829   -2.3896  -52.3794 H   0  0  0  0  0  0  0  0  0  0  0  0
    6.8383   -2.3860  -50.1824 H   0  0  0  0  0  0  0  0  0  0  0  0
    8.3511   -3.3397  -50.3505 H   0  0  0  0  0  0  0  0  0  0  0  0
    8.4164   -1.5446  -50.3505 H   0  0  0  0  0  0  0  0  0  0  0  0
    8.5200   -0.4980  -52.1510 H   0  0  0  0  0  0  0  0  0  0  0  0
    9.4290    0.4110  -54.0670 H   0  0  0  0  0  0  0  0  0  0  0  0
    8.5547    2.2869  -57.6878 H   0  0  0  0  0  0  0  0  0  0  0  0
   11.5791    2.4611  -57.2486 H   0  0  0  0  0  0  0  0  0  0  0  0
   10.7096    1.2457  -58.2812 H   0  0  0  0  0  0  0  0  0  0  0  0
   11.7955    3.3390  -59.3962 H   0  0  0  0  0  0  0  0  0  0  0  0
   10.1076    2.7961  -59.8590 H   0  0  0  0  0  0  0  0  0  0  0  0
   10.8575    5.3977  -59.2098 H   0  0  0  0  0  0  0  0  0  0  0  0
    8.0329    4.8534  -58.6847 H   0  0  0  0  0  0  0  0  0  0  0  0
    8.8446    5.7854  -60.0155 H   0  0  0  0  0  0  0  0  0  0  0  0
    9.3340    3.3010  -60.7700 H   0  0  0  0  0  0  0  0  0  0  0  0
    7.3889    2.3401  -58.4563 H   0  0  0  0  0  0  0  0  0  0  0  0
    5.2727    0.9204  -58.7078 H   0  0  0  0  0  0  0  0  0  0  0  0
    2.2560    1.3390  -63.7540 H   0  0  0  0  0  0  0  0  0  0  0  0
    1.9270    0.3040  -62.4580 H   0  0  0  0  0  0  0  0  0  0  0  0
    4.8031    2.4992  -63.9140 H   0  0  0  0  0  0  0  0  0  0  0  0
    7.0120    3.5520  -62.4270 H   0  0  0  0  0  0  0  0  0  0  0  0
   11.1890    4.8847  -56.8875 H   0  0  0  0  0  0  0  0  0  0  0  0
    9.6754    5.8809  -57.1144 H   0  0  0  0  0  0  0  0  0  0  0  0
    9.6947    3.8590  -55.4459 H   0  0  0  0  0  0  0  0  0  0  0  0
    8.2822    4.1757  -56.5616 H   0  0  0  0  0  0  0  0  0  0  0  0
  1  2  1  0
  2  3  1  0
  2  4  1  0
  4  5  1  0
  5  6  2  0
  5  7  1  0
  7  8  1  0
  8  9  2  0
  8 10  1  0
 10 11  1  0
 11 12  1  0
 12 13  1  0
 13 14  1  0
 14 15  1  0
 15 16  1  0
 16 17  1  0
 17 18  2  0
 18 19  1  0
 19 20  2  0
 20 21  1  0
 21 22  2  0
 22 23  1  0
 22 24  1  0
 24 25  2  0
 25 26  1  0
 14 27  1  0
 27 28  1  0
 28 11  1  0
 26 17  1  0
 25 20  1  0
  1 29  1  0
  1 30  1  0
  1 31  1  0
  2 32  1  0
  3 33  1  0
  3 34  1  0
  3 35  1  0
  4 36  1  0
  7 37  1  0
 11 38  1  1
 12 39  1  0
 12 40  1  0
 13 41  1  0
 13 42  1  0
 14 43  1  1
 15 44  1  0
 15 45  1  0
 16 46  1  0
 18 47  1  0
 19 48  1  0
 23 49  1  0
 23 50  1  0
 24 51  1  0
 26 52  1  0
 27 53  1  0
 27 54  1  0
 28 55  1  0
 28 56  1  0
M  END
>  <meeko>  (68) 
{"is_sidechain": false}

$$$$

     RDKit          3D

 56 58  0  0  0  0  0  0  0  0999 V2000
   12.4380   -5.2140  -56.0720 C   0  0  0  0  0  0  0  0  0  0  0  0
   11.3970   -4.3540  -56.7880 C   0  0  0  0  0  0  0  0  0  0  0  0
   11.8400   -4.0500  -58.2150 C   0  0  0  0  0  0  0  0  0  0  0  0
   11.1640   -3.1070  -56.0670 N   0  0  0  0  0  0  0  0  0  0  0  0
   10.2730   -3.0610  -55.0090 C   0  0  0  0  0  0  0  0  0  0  0  0
    9.5890   -4.0170  -54.6710 O   0  0  0  0  0  0  0  0  0  0  0  0
   10.2650   -1.8160  -54.4370 N   0  0  0  0  0  0  0  0  0  0  0  0
    9.3920   -1.5080  -53.4370 C   0  0  0  0  0  0  0  0  0  0  0  0
    9.1370   -2.1790  -52.4490 O   0  0  0  0  0  0  0  0  0  0  0  0
    8.9350   -0.2430  -53.6460 O   0  0  0  0  0  0  0  0  0  0  0  0
    8.1810   -0.0360  -54.8560 C   0  0  2  0  0  0  0  0  0  0  0  0
    8.8050    1.1550  -55.5850 C   0  0  0  0  0  0  0  0  0  0  0  0
    8.0110    1.5380  -56.8300 C   0  0  0  0  0  0  0  0  0  0  0  0
    6.5340    1.8200  -56.5010 C   0  0  1  0  0  0  0  0  0  0  0  0
    5.7130    2.1310  -57.7650 C   0  0  0  0  0  0  0  0  0  0  0  0
    6.1170    3.3870  -58.3770 N   0  0  0  0  0  0  0  0  0  0  0  0
    7.2960    3.6600  -59.0360 C   0  0  0  0  0  0  0  0  0  0  0  0
    7.6350    3.1100  -60.2300 C   0  0  0  0  0  0  0  0  0  0  0  0
    8.8970    3.4330  -60.8880 C   0  0  0  0  0  0  0  0  0  0  0  0
    9.7470    4.2770  -60.2910 C   0  0  0  0  0  0  0  0  0  0  0  0
   10.9730    4.7600  -60.6100 N   0  0  0  0  0  0  0  0  0  0  0  0
   11.4280    5.5710  -59.6120 C   0  0  0  0  0  0  0  0  0  0  0  0
   12.5670    6.1640  -59.6000 N   0  0  0  0  0  0  0  0  0  0  0  0
   10.3980    5.6550  -58.5390 C   0  0  0  0  0  0  0  0  0  0  0  0
    9.4030    4.8690  -58.9880 C   0  0  0  0  0  0  0  0  0  0  0  0
    8.1850    4.5440  -58.4450 N   0  0  0  0  0  0  0  0  0  0  0  0
    5.9140    0.6260  -55.7570 C   0  0  0  0  0  0  0  0  0  0  0  0
    6.7170    0.2490  -54.5150 C   0  0  0  0  0  0  0  0  0  0  0  0
   12.3132   -5.1109  -54.9840 H   0  0  0  0  0  0  0  0  0  0  0  0
   12.3030   -6.2675  -56.3583 H   0  0  0  0  0  0  0  0  0  0  0  0
   13.4471   -4.8826  -56.3583 H   0  0  0  0  0  0  0  0  0  0  0  0
   10.4562   -4.9232  -56.8190 H   0  0  0  0  0  0  0  0  0  0  0  0
   12.7468   -3.4277  -58.1927 H   0  0  0  0  0  0  0  0  0  0  0  0
   12.0546   -4.9920  -58.7409 H   0  0  0  0  0  0  0  0  0  0  0  0
   11.0382   -3.5109  -58.7409 H   0  0  0  0  0  0  0  0  0  0  0  0
   11.9650   -2.4980  -55.9680 H   0  0  0  0  0  0  0  0  0  0  0  0
   10.3460   -1.0720  -55.1090 H   0  0  0  0  0  0  0  0  0  0  0  0
    8.2088   -0.9311  -55.4948 H   0  0  0  0  0  0  0  0  0  0  0  0
    8.8320    2.0163  -54.9013 H   0  0  0  0  0  0  0  0  0  0  0  0
    9.8188    0.8686  -55.9014 H   0  0  0  0  0  0  0  0  0  0  0  0
    8.4561    2.4414  -57.2724 H   0  0  0  0  0  0  0  0  0  0  0  0
    8.0496    0.6934  -57.5337 H   0  0  0  0  0  0  0  0  0  0  0  0
    6.5072    2.7093  -55.8542 H   0  0  0  0  0  0  0  0  0  0  0  0
    5.8573    1.3182  -58.4920 H   0  0  0  0  0  0  0  0  0  0  0  0
    4.6560    2.2178  -57.4730 H   0  0  0  0  0  0  0  0  0  0  0  0
    5.3430    3.9460  -58.7200 H   0  0  0  0  0  0  0  0  0  0  0  0
    6.9425    2.4046  -60.7126 H   0  0  0  0  0  0  0  0  0  0  0  0
    9.1465    2.9882  -61.8626 H   0  0  0  0  0  0  0  0  0  0  0  0
   11.5020    4.5070  -61.4260 H   0  0  0  0  0  0  0  0  0  0  0  0
   12.6730    6.7110  -58.7410 H   0  0  0  0  0  0  0  0  0  0  0  0
   10.4410    6.2259  -57.5998 H   0  0  0  0  0  0  0  0  0  0  0  0
    7.9880    4.8420  -57.5030 H   0  0  0  0  0  0  0  0  0  0  0  0
    4.8906    0.8898  -55.4521 H   0  0  0  0  0  0  0  0  0  0  0  0
    5.9151   -0.2376  -56.4383 H   0  0  0  0  0  0  0  0  0  0  0  0
    6.6733    1.0801  -53.7957 H   0  0  0  0  0  0  0  0  0  0  0  0
    6.2793   -0.6647  -54.0866 H   0  0  0  0  0  0  0  0  0  0  0  0
  1  2  1  0
  2  3  1  0
  2  4  1  0
  4  5  1  0
  5  6  2  0
  5  7  1  0
  7  8  1  0
  8  9  2  0
  8 10  1  0
 10 11  1  0
 11 12  1  0
 12 13  1  0
 13 14  1  0
 14 15  1  0
 15 16  1  0
 16 17  1  0
 17 18  2  0
 18 19  1  0
 19 20  2  0
 20 21  1  0
 21 22  1  0
 22 23  2  3
 22 24  1  0
 24 25  2  0
 25 26  1  0
 14 27  1  0
 27 28  1  0
 28 11  1  0
 26 17  1  0
 25 20  1  0
  1 29  1  0
  1 30  1  0
  1 31  1  0
  2 32  1  0
  3 33  1  0
  3 34  1  0
  3 35  1  0
  4 36  1  0
  7 37  1  0
 11 38  1  1
 12 39  1  0
 12 40  1  0
 13 41  1  0
 13 42  1  0
 14 43  1  6
 15 44  1  0
 15 45  1  0
 16 46  1  0
 18 47  1  0
 19 48  1  0
 21 49  1  0
 23 50  1  0
 24 51  1  0
 26 52  1  0
 27 53  1  0
 27 54  1  0
 28 55  1  0
 28 56  1  0
M  END
>  <meeko>  (69) 
{"is_sidechain": false}

$$$$

     RDKit          3D

 56 58  0  0  0  0  0  0  0  0999 V2000
    7.8950   -2.4750  -50.5800 C   0  0  0  0  0  0  0  0  0  0  0  0
    7.6830   -2.4600  -52.0910 C   0  0  0  0  0  0  0  0  0  0  0  0
    8.2090   -3.7330  -52.7500 C   0  0  0  0  0  0  0  0  0  0  0  0
    8.2100   -1.2510  -52.7200 N   0  0  0  0  0  0  0  0  0  0  0  0
    7.7870   -0.7950  -53.9560 C   0  0  0  0  0  0  0  0  0  0  0  0
    6.9730   -1.3820  -54.6520 O   0  0  0  0  0  0  0  0  0  0  0  0
    8.4220    0.3780  -54.2770 N   0  0  0  0  0  0  0  0  0  0  0  0
    8.2370    0.9700  -55.4900 C   0  0  0  0  0  0  0  0  0  0  0  0
    7.1770    1.1550  -56.0690 O   0  0  0  0  0  0  0  0  0  0  0  0
    9.4360    1.4600  -55.9120 O   0  0  0  0  0  0  0  0  0  0  0  0
    9.3820    2.3820  -57.0180 C   0  0  2  0  0  0  0  0  0  0  0  0
   10.7100    2.2860  -57.7660 C   0  0  0  0  0  0  0  0  0  0  0  0
   10.7390    3.2100  -58.9840 C   0  0  0  0  0  0  0  0  0  0  0  0
   10.1230    4.6050  -58.7330 C   0  0  1  0  0  0  0  0  0  0  0  0
    8.7840    4.8000  -59.4830 C   0  0  0  0  0  0  0  0  0  0  0  0
    8.5600    3.7860  -60.5150 N   0  0  0  0  0  0  0  0  0  0  0  0
    7.3200    3.1400  -60.5000 C   0  0  0  0  0  0  0  0  0  0  0  0
    6.7160    2.7530  -59.3040 C   0  0  0  0  0  0  0  0  0  0  0  0
    5.4780    2.1100  -59.3100 C   0  0  0  0  0  0  0  0  0  0  0  0
    4.9280    1.8880  -60.5670 C   0  0  0  0  0  0  0  0  0  0  0  0
    3.7520    1.2960  -60.9640 N   0  0  0  0  0  0  0  0  0  0  0  0
    3.6580    1.3070  -62.3310 C   0  0  0  0  0  0  0  0  0  0  0  0
    2.5890    0.7800  -62.9520 N   0  0  0  0  0  0  0  0  0  0  0  0
    4.7820    1.9250  -62.8290 C   0  0  0  0  0  0  0  0  0  0  0  0
    5.5890    2.2880  -61.7240 C   0  0  0  0  0  0  0  0  0  0  0  0
    6.7910    2.9120  -61.7140 N   0  0  0  0  0  0  0  0  0  0  0  0
    9.9510    4.8740  -57.2310 C   0  0  0  0  0  0  0  0  0  0  0  0
    9.1280    3.8080  -56.5090 C   0  0  0  0  0  0  0  0  0  0  0  0
    6.9215   -2.4061  -50.0725 H   0  0  0  0  0  0  0  0  0  0  0  0
    8.3948   -3.4108  -50.2891 H   0  0  0  0  0  0  0  0  0  0  0  0
    8.5215   -1.6189  -50.2891 H   0  0  0  0  0  0  0  0  0  0  0  0
    6.5957   -2.4392  -52.2561 H   0  0  0  0  0  0  0  0  0  0  0  0
    8.5062   -4.4524  -51.9727 H   0  0  0  0  0  0  0  0  0  0  0  0
    7.4198   -4.1748  -53.3760 H   0  0  0  0  0  0  0  0  0  0  0  0
    9.0799   -3.4889  -53.3760 H   0  0  0  0  0  0  0  0  0  0  0  0
    8.4840   -0.5170  -52.0810 H   0  0  0  0  0  0  0  0  0  0  0  0
    9.3860    0.3980  -53.9920 H   0  0  0  0  0  0  0  0  0  0  0  0
    8.5547    2.1298  -57.6977 H   0  0  0  0  0  0  0  0  0  0  0  0
   11.5251    2.5692  -57.0838 H   0  0  0  0  0  0  0  0  0  0  0  0
   10.8327    1.2507  -58.1170 H   0  0  0  0  0  0  0  0  0  0  0  0
   11.7869    3.3452  -59.2901 H   0  0  0  0  0  0  0  0  0  0  0  0
   10.1277    2.7288  -59.7617 H   0  0  0  0  0  0  0  0  0  0  0  0
   10.8322    5.3417  -59.1384 H   0  0  0  0  0  0  0  0  0  0  0  0
    7.9618    4.7475  -58.7541 H   0  0  0  0  0  0  0  0  0  0  0  0
    8.8235    5.7790  -59.9830 H   0  0  0  0  0  0  0  0  0  0  0  0
    8.6280    4.1690  -61.4570 H   0  0  0  0  0  0  0  0  0  0  0  0
    7.2201    2.9565  -58.3477 H   0  0  0  0  0  0  0  0  0  0  0  0
    4.9720    1.8001  -58.3838 H   0  0  0  0  0  0  0  0  0  0  0  0
    3.0570    0.9160  -60.3410 H   0  0  0  0  0  0  0  0  0  0  0  0
    2.6470    0.3820  -63.8870 H   0  0  0  0  0  0  0  0  0  0  0  0
    1.6600    1.1390  -62.7400 H   0  0  0  0  0  0  0  0  0  0  0  0
    5.0112    2.1039  -63.8899 H   0  0  0  0  0  0  0  0  0  0  0  0
   10.9483    4.9157  -56.7687 H   0  0  0  0  0  0  0  0  0  0  0  0
    9.4049    5.8239  -57.1338 H   0  0  0  0  0  0  0  0  0  0  0  0
    9.3765    3.8438  -55.4380 H   0  0  0  0  0  0  0  0  0  0  0  0
    8.0690    4.0342  -56.7021 H   0  0  0  0  0  0  0  0  0  0  0  0
  1  2  1  0
  2  3  1  0
  2  4  1  0
  4  5  1  0
  5  6  2  0
  5  7  1  0
  7  8  1  0
  8  9  2  0
  8 10  1  0
 10 11  1  0
 11 12  1  0
 12 13  1  0
 13 14  1  0
 14 15  1  0
 15 16  1  0
 16 17  1  0
 17 18  1  0
 18 19  2  0
 19 20  1  0
 20 21  1  0
 21 22  1  0
 22 23  1  0
 22 24  2  0
 24 25  1  0
 25 26  1  0
 14 27  1  0
 27 28  1  0
 28 11  1  0
 26 17  2  0
 25 20  2  0
  1 29  1  0
  1 30  1  0
  1 31  1  0
  2 32  1  0
  3 33  1  0
  3 34  1  0
  3 35  1  0
  4 36  1  0
  7 37  1  0
 11 38  1  1
 12 39  1  0
 12 40  1  0
 13 41  1  0
 13 42  1  0
 14 43  1  1
 15 44  1  0
 15 45  1  0
 16 46  1  0
 18 47  1  0
 19 48  1  0
 21 49  1  0
 23 50  1  0
 23 51  1  0
 24 52  1  0
 27 53  1  0
 27 54  1  0
 28 55  1  0
 28 56  1  0
M  END
>  <meeko>  (70) 
{"is_sidechain": false}

$$$$

     RDKit          3D

 56 58  0  0  0  0  0  0  0  0999 V2000
   12.5320   -6.0270  -56.5260 C   0  0  0  0  0  0  0  0  0  0  0  0
   12.2330   -4.5380  -56.3490 C   0  0  0  0  0  0  0  0  0  0  0  0
   12.5040   -3.7780  -57.6430 C   0  0  0  0  0  0  0  0  0  0  0  0
   10.8500   -4.3290  -55.9340 N   0  0  0  0  0  0  0  0  0  0  0  0
   10.5620   -3.8070  -54.6850 C   0  0  0  0  0  0  0  0  0  0  0  0
   11.4230   -3.4280  -53.9040 O   0  0  0  0  0  0  0  0  0  0  0  0
    9.2080   -3.7650  -54.4810 N   0  0  0  0  0  0  0  0  0  0  0  0
    8.6850   -3.2020  -53.3560 C   0  0  0  0  0  0  0  0  0  0  0  0
    9.0460   -3.3850  -52.2030 O   0  0  0  0  0  0  0  0  0  0  0  0
    7.5830   -2.4860  -53.7130 O   0  0  0  0  0  0  0  0  0  0  0  0
    7.8140   -1.3490  -54.5700 C   0  0  2  0  0  0  0  0  0  0  0  0
    8.8140   -0.4290  -53.8560 C   0  0  0  0  0  0  0  0  0  0  0  0
    8.5550    1.0600  -54.0880 C   0  0  0  0  0  0  0  0  0  0  0  0
    8.0060    1.3780  -55.4860 C   0  0  1  0  0  0  0  0  0  0  0  0
    9.0430    1.1330  -56.6030 C   0  0  0  0  0  0  0  0  0  0  0  0
    9.0630    2.2470  -57.5420 N   0  0  0  0  0  0  0  0  0  0  0  0
   10.1420    2.9090  -57.8180 C   0  0  0  0  0  0  0  0  0  0  0  0
   11.5200    2.6030  -57.2340 C   0  0  0  0  0  0  0  0  0  0  0  0
   12.5690    3.3680  -57.5890 C   0  0  0  0  0  0  0  0  0  0  0  0
   12.2800    4.4040  -58.4950 C   0  0  0  0  0  0  0  0  0  0  0  0
   13.1860    5.3020  -58.9790 N   0  0  0  0  0  0  0  0  0  0  0  0
   12.5370    6.1600  -59.8390 C   0  0  0  0  0  0  0  0  0  0  0  0
   13.2070    7.1470  -60.4580 N   0  0  0  0  0  0  0  0  0  0  0  0
   11.2000    5.8060  -59.8870 C   0  0  0  0  0  0  0  0  0  0  0  0
   11.0560    4.6960  -59.0380 C   0  0  0  0  0  0  0  0  0  0  0  0
    9.9820    3.9570  -58.7170 N   0  0  0  0  0  0  0  0  0  0  0  0
    6.7050    0.5930  -55.7590 C   0  0  0  0  0  0  0  0  0  0  0  0
    6.5010   -0.6220  -54.8530 C   0  0  0  0  0  0  0  0  0  0  0  0
   12.6273   -6.5018  -55.5383 H   0  0  0  0  0  0  0  0  0  0  0  0
   11.7113   -6.5020  -57.0835 H   0  0  0  0  0  0  0  0  0  0  0  0
   13.4725   -6.1484  -57.0835 H   0  0  0  0  0  0  0  0  0  0  0  0
   12.8983   -4.1534  -55.5619 H   0  0  0  0  0  0  0  0  0  0  0  0
   12.8647   -2.7664  -57.4054 H   0  0  0  0  0  0  0  0  0  0  0  0
   13.2673   -4.3114  -58.2285 H   0  0  0  0  0  0  0  0  0  0  0  0
   11.5754   -3.7081  -58.2285 H   0  0  0  0  0  0  0  0  0  0  0  0
   10.1810   -5.0070  -56.2690 H   0  0  0  0  0  0  0  0  0  0  0  0
    8.6920   -3.5060  -55.3050 H   0  0  0  0  0  0  0  0  0  0  0  0
    8.2229   -1.6677  -55.5402 H   0  0  0  0  0  0  0  0  0  0  0  0
    8.7573   -0.6269  -52.7754 H   0  0  0  0  0  0  0  0  0  0  0  0
    9.8078   -0.6506  -54.2723 H   0  0  0  0  0  0  0  0  0  0  0  0
    7.8258    1.4066  -53.3409 H   0  0  0  0  0  0  0  0  0  0  0  0
    9.5234    1.5738  -53.9973 H   0  0  0  0  0  0  0  0  0  0  0  0
    7.7764    2.4537  -55.4986 H   0  0  0  0  0  0  0  0  0  0  0  0
   10.0402    1.0233  -56.1519 H   0  0  0  0  0  0  0  0  0  0  0  0
    8.7667    0.2176  -57.1468 H   0  0  0  0  0  0  0  0  0  0  0  0
   11.6534    1.7671  -56.5315 H   0  0  0  0  0  0  0  0  0  0  0  0
   13.5823    3.1948  -57.1975 H   0  0  0  0  0  0  0  0  0  0  0  0
   14.1660    5.3490  -58.7460 H   0  0  0  0  0  0  0  0  0  0  0  0
   13.3810    8.0440  -60.0170 H   0  0  0  0  0  0  0  0  0  0  0  0
   13.9020    6.9150  -61.1650 H   0  0  0  0  0  0  0  0  0  0  0  0
   10.4083    6.2958  -60.4728 H   0  0  0  0  0  0  0  0  0  0  0  0
    9.0440    4.1130  -59.0580 H   0  0  0  0  0  0  0  0  0  0  0  0
    5.8544    1.2757  -55.6164 H   0  0  0  0  0  0  0  0  0  0  0  0
    6.7782    0.2101  -56.7876 H   0  0  0  0  0  0  0  0  0  0  0  0
    6.0681   -0.2857  -53.8993 H   0  0  0  0  0  0  0  0  0  0  0  0
    5.8281   -1.3226  -55.3691 H   0  0  0  0  0  0  0  0  0  0  0  0
  1  2  1  0
  2  3  1  0
  2  4  1  0
  4  5  1  0
  5  6  2  0
  5  7  1  0
  7  8  1  0
  8  9  2  0
  8 10  1  0
 10 11  1  0
 11 12  1  0
 12 13  1  0
 13 14  1  0
 14 15  1  0
 15 16  1  0
 16 17  2  0
 17 18  1  0
 18 19  2  0
 19 20  1  0
 20 21  1  0
 21 22  1  0
 22 23  1  0
 22 24  2  0
 24 25  1  0
 25 26  1  0
 14 27  1  0
 27 28  1  0
 28 11  1  0
 26 17  1  0
 25 20  2  0
  1 29  1  0
  1 30  1  0
  1 31  1  0
  2 32  1  0
  3 33  1  0
  3 34  1  0
  3 35  1  0
  4 36  1  0
  7 37  1  0
 11 38  1  1
 12 39  1  0
 12 40  1  0
 13 41  1  0
 13 42  1  0
 14 43  1  6
 15 44  1  0
 15 45  1  0
 18 46  1  0
 19 47  1  0
 21 48  1  0
 23 49  1  0
 23 50  1  0
 24 51  1  0
 26 52  1  0
 27 53  1  0
 27 54  1  0
 28 55  1  0
 28 56  1  0
M  END
>  <meeko>  (71) 
{"is_sidechain": false}

$$$$

     RDKit          3D

 56 58  0  0  0  0  0  0  0  0999 V2000
   13.8720   -4.4150  -57.5670 C   0  0  0  0  0  0  0  0  0  0  0  0
   12.3530   -4.5270  -57.4520 C   0  0  0  0  0  0  0  0  0  0  0  0
   11.7040   -4.4710  -58.8310 C   0  0  0  0  0  0  0  0  0  0  0  0
   11.8130   -3.4650  -56.6090 N   0  0  0  0  0  0  0  0  0  0  0  0
   11.6610   -3.6560  -55.2470 C   0  0  0  0  0  0  0  0  0  0  0  0
   11.8940   -4.7210  -54.6930 O   0  0  0  0  0  0  0  0  0  0  0  0
   11.2090   -2.5100  -54.6460 N   0  0  0  0  0  0  0  0  0  0  0  0
   10.8840   -2.4870  -53.3230 C   0  0  0  0  0  0  0  0  0  0  0  0
   11.5230   -2.9610  -52.3970 O   0  0  0  0  0  0  0  0  0  0  0  0
    9.7730   -1.7150  -53.1740 O   0  0  0  0  0  0  0  0  0  0  0  0
    8.8660   -1.6820  -54.2980 C   0  0  2  0  0  0  0  0  0  0  0  0
    9.0300   -0.3190  -54.9860 C   0  0  0  0  0  0  0  0  0  0  0  0
    8.1040    0.7340  -54.3810 C   0  0  0  0  0  0  0  0  0  0  0  0
    6.6140    0.3560  -54.5210 C   0  0  1  0  0  0  0  0  0  0  0  0
    5.9450    1.0540  -55.7180 C   0  0  0  0  0  0  0  0  0  0  0  0
    6.9400    1.7290  -56.5450 N   0  0  0  0  0  0  0  0  0  0  0  0
    6.7340    1.9120  -57.8120 C   0  0  0  0  0  0  0  0  0  0  0  0
    7.8850    2.6130  -58.5210 C   0  0  0  0  0  0  0  0  0  0  0  0
    7.7970    2.8700  -59.8380 C   0  0  0  0  0  0  0  0  0  0  0  0
    6.6020    2.4510  -60.4470 C   0  0  0  0  0  0  0  0  0  0  0  0
    6.2970    2.6070  -61.7680 N   0  0  0  0  0  0  0  0  0  0  0  0
    5.0440    2.0820  -61.9930 C   0  0  0  0  0  0  0  0  0  0  0  0
    4.5010    2.1100  -63.2220 N   0  0  0  0  0  0  0  0  0  0  0  0
    4.5590    1.5760  -60.8010 C   0  0  0  0  0  0  0  0  0  0  0  0
    5.5510    1.8190  -59.8370 C   0  0  0  0  0  0  0  0  0  0  0  0
    5.5940    1.5350  -58.5200 N   0  0  0  0  0  0  0  0  0  0  0  0
    6.4080   -1.1670  -54.6290 C   0  0  0  0  0  0  0  0  0  0  0  0
    7.4330   -1.9250  -53.7980 C   0  0  0  0  0  0  0  0  0  0  0  0
   14.3145   -4.3824  -56.5605 H   0  0  0  0  0  0  0  0  0  0  0  0
   14.2637   -5.2867  -58.1117 H   0  0  0  0  0  0  0  0  0  0  0  0
   14.1317   -3.4953  -58.1117 H   0  0  0  0  0  0  0  0  0  0  0  0
   12.1227   -5.4968  -56.9867 H   0  0  0  0  0  0  0  0  0  0  0  0
   10.6137   -4.3769  -58.7196 H   0  0  0  0  0  0  0  0  0  0  0  0
   12.0923   -3.6030  -59.3840 H   0  0  0  0  0  0  0  0  0  0  0  0
   11.9379   -5.3927  -59.3840 H   0  0  0  0  0  0  0  0  0  0  0  0
   12.0570   -2.5220  -56.8770 H   0  0  0  0  0  0  0  0  0  0  0  0
   10.5450   -2.0030  -55.2050 H   0  0  0  0  0  0  0  0  0  0  0  0
    9.0870   -2.4721  -55.0307 H   0  0  0  0  0  0  0  0  0  0  0  0
   10.0719    0.0148  -54.8721 H   0  0  0  0  0  0  0  0  0  0  0  0
    8.7678   -0.4370  -56.0478 H   0  0  0  0  0  0  0  0  0  0  0  0
    8.3423    0.8423  -53.3126 H   0  0  0  0  0  0  0  0  0  0  0  0
    8.2643    1.6756  -54.9267 H   0  0  0  0  0  0  0  0  0  0  0  0
    6.1305    0.7094  -53.5983 H   0  0  0  0  0  0  0  0  0  0  0  0
    5.4197    0.3029  -56.3262 H   0  0  0  0  0  0  0  0  0  0  0  0
    5.2346    1.8031  -55.3381 H   0  0  0  0  0  0  0  0  0  0  0  0
    8.7835    2.9075  -57.9589 H   0  0  0  0  0  0  0  0  0  0  0  0
    8.6009    3.3711  -60.3971 H   0  0  0  0  0  0  0  0  0  0  0  0
    6.8860    3.0240  -62.4730 H   0  0  0  0  0  0  0  0  0  0  0  0
    4.7850    1.4700  -63.9580 H   0  0  0  0  0  0  0  0  0  0  0  0
    4.1100    2.9780  -63.5830 H   0  0  0  0  0  0  0  0  0  0  0  0
    3.5896    1.0817  -60.6399 H   0  0  0  0  0  0  0  0  0  0  0  0
    4.8330    1.0890  -58.0340 H   0  0  0  0  0  0  0  0  0  0  0  0
    5.3992   -1.4183  -54.2697 H   0  0  0  0  0  0  0  0  0  0  0  0
    6.5307   -1.4597  -55.6822 H   0  0  0  0  0  0  0  0  0  0  0  0
    7.3597   -1.5922  -52.7521 H   0  0  0  0  0  0  0  0  0  0  0  0
    7.2176   -3.0000  -53.8871 H   0  0  0  0  0  0  0  0  0  0  0  0
  1  2  1  0
  2  3  1  0
  2  4  1  0
  4  5  1  0
  5  6  2  0
  5  7  1  0
  7  8  1  0
  8  9  2  0
  8 10  1  0
 10 11  1  0
 11 12  1  0
 12 13  1  0
 13 14  1  0
 14 15  1  0
 15 16  1  0
 16 17  2  0
 17 18  1  0
 18 19  2  0
 19 20  1  0
 20 21  1  0
 21 22  1  0
 22 23  1  0
 22 24  2  0
 24 25  1  0
 25 26  1  0
 14 27  1  0
 27 28  1  0
 28 11  1  0
 26 17  1  0
 25 20  2  0
  1 29  1  0
  1 30  1  0
  1 31  1  0
  2 32  1  0
  3 33  1  0
  3 34  1  0
  3 35  1  0
  4 36  1  0
  7 37  1  0
 11 38  1  1
 12 39  1  0
 12 40  1  0
 13 41  1  0
 13 42  1  0
 14 43  1  6
 15 44  1  0
 15 45  1  0
 18 46  1  0
 19 47  1  0
 21 48  1  0
 23 49  1  0
 23 50  1  0
 24 51  1  0
 26 52  1  0
 27 53  1  0
 27 54  1  0
 28 55  1  0
 28 56  1  0
M  END
>  <meeko>  (72) 
{"is_sidechain": false}

$$$$

     RDKit          3D

 24 25  0  0  0  0  0  0  0  0999 V2000
    7.2130    2.6490  -61.3760 C   0  0  0  0  0  0  0  0  0  0  0  0
    8.1640    3.4870  -60.6880 N   0  0  0  0  0  0  0  0  0  0  0  0
    9.5220    3.4660  -60.8210 C   0  0  0  0  0  0  0  0  0  0  0  0
   10.0030    4.4320  -59.9730 C   0  0  0  0  0  0  0  0  0  0  0  0
   11.2980    4.7640  -59.7760 N   0  0  0  0  0  0  0  0  0  0  0  0
   12.2980    3.8730  -59.2000 C   0  0  0  0  0  0  0  0  0  0  0  0
   13.6200    4.5880  -59.4650 C   0  0  0  0  0  0  0  0  0  0  0  0
   13.2290    6.0560  -59.4290 C   0  0  0  0  0  0  0  0  0  0  0  0
   11.8640    6.0650  -60.1110 C   0  0  0  0  0  0  0  0  0  0  0  0
    8.8460    4.9790  -59.3730 C   0  0  0  0  0  0  0  0  0  0  0  0
    7.7200    4.4030  -59.8070 N   0  0  0  0  0  0  0  0  0  0  0  0
    6.6000    2.1089  -60.6394 H   0  0  0  0  0  0  0  0  0  0  0  0
    6.5630    3.2733  -62.0067 H   0  0  0  0  0  0  0  0  0  0  0  0
    7.7506    1.9256  -62.0067 H   0  0  0  0  0  0  0  0  0  0  0  0
   10.1120    2.8077  -61.4757 H   0  0  0  0  0  0  0  0  0  0  0  0
   12.1321    3.7439  -58.1203 H   0  0  0  0  0  0  0  0  0  0  0  0
   12.2670    2.8625  -59.6336 H   0  0  0  0  0  0  0  0  0  0  0  0
   14.3582    4.3564  -58.6831 H   0  0  0  0  0  0  0  0  0  0  0  0
   14.0920    4.2886  -60.4124 H   0  0  0  0  0  0  0  0  0  0  0  0
   13.1560    6.4203  -58.3937 H   0  0  0  0  0  0  0  0  0  0  0  0
   13.9629    6.7120  -59.9199 H   0  0  0  0  0  0  0  0  0  0  0  0
   11.2356    6.8782  -59.7189 H   0  0  0  0  0  0  0  0  0  0  0  0
   11.9322    6.2320  -61.1961 H   0  0  0  0  0  0  0  0  0  0  0  0
    8.8693    5.7900  -58.6302 H   0  0  0  0  0  0  0  0  0  0  0  0
  1  2  1  0
  2  3  1  0
  3  4  2  0
  4  5  1  0
  5  6  1  0
  6  7  1  0
  7  8  1  0
  8  9  1  0
  4 10  1  0
 10 11  2  0
 11  2  1  0
  9  5  1  0
  1 12  1  0
  1 13  1  0
  1 14  1  0
  3 15  1  0
  6 16  1  0
  6 17  1  0
  7 18  1  0
  7 19  1  0
  8 20  1  0
  8 21  1  0
  9 22  1  0
  9 23  1  0
 10 24  1  0
M  END
>  <meeko>  (73) 
{"is_sidechain": false}

$$$$

     RDKit          3D

 29 32  0  0  0  0  0  0  0  0999 V2000
    2.5700    1.7360  -63.2010 N   0  0  0  0  0  0  0  0  0  0  0  0
    3.6590    1.8920  -62.4010 C   0  0  0  0  0  0  0  0  0  0  0  0
    3.6450    1.6750  -60.9440 C   0  0  0  0  0  0  0  0  0  0  0  0
    4.9060    1.9500  -60.6140 C   0  0  0  0  0  0  0  0  0  0  0  0
    5.5560    1.8750  -59.0210 S   0  0  0  0  0  0  0  0  0  0  0  0
    7.1810    2.3470  -59.3600 C   0  0  0  0  0  0  0  0  0  0  0  0
    7.6710    2.6550  -60.5750 C   0  0  0  0  0  0  0  0  0  0  0  0
    6.9450    2.6470  -61.8080 C   0  0  0  0  0  0  0  0  0  0  0  0
    5.6490    2.3150  -61.7980 C   0  0  0  0  0  0  0  0  0  0  0  0
    4.8160    2.2620  -62.8850 N   0  0  0  0  0  0  0  0  0  0  0  0
    9.1160    2.8800  -60.3960 C   0  0  1  0  0  0  0  0  0  0  0  0
   10.0340    3.9370  -60.9660 C   0  0  0  0  0  0  0  0  0  0  0  0
   11.1300    4.0220  -59.8700 C   0  0  0  0  0  0  0  0  0  0  0  0
   10.5120    3.4070  -58.5850 C   0  0  1  0  0  0  0  0  0  0  0  0
   10.7460    4.2510  -57.4680 O   0  0  0  0  0  0  0  0  0  0  0  0
    9.0390    3.3450  -58.9470 C   0  0  2  0  0  0  0  0  0  0  0  0
    8.1350    2.4420  -58.3120 O   0  0  0  0  0  0  0  0  0  0  0  0
    1.6690    1.9400  -62.7850 H   0  0  0  0  0  0  0  0  0  0  0  0
    2.6970    2.1610  -64.1130 H   0  0  0  0  0  0  0  0  0  0  0  0
    2.8106    1.3663  -60.2971 H   0  0  0  0  0  0  0  0  0  0  0  0
    7.4457    2.9103  -62.7514 H   0  0  0  0  0  0  0  0  0  0  0  0
    9.5587    1.9907  -60.8683 H   0  0  0  0  0  0  0  0  0  0  0  0
   10.4560    3.6235  -61.9323 H   0  0  0  0  0  0  0  0  0  0  0  0
    9.5367    4.8952  -61.1770 H   0  0  0  0  0  0  0  0  0  0  0  0
   12.0191    3.4510  -60.1757 H   0  0  0  0  0  0  0  0  0  0  0  0
   11.4471    5.0619  -59.7023 H   0  0  0  0  0  0  0  0  0  0  0  0
   10.9307    2.4310  -58.2983 H   0  0  0  0  0  0  0  0  0  0  0  0
   11.7020    4.4240  -57.4250 H   0  0  0  0  0  0  0  0  0  0  0  0
    8.6185    4.3191  -58.6566 H   0  0  0  0  0  0  0  0  0  0  0  0
  1  2  1  0
  2  3  1  0
  3  4  2  0
  4  5  1  0
  5  6  1  0
  6  7  2  0
  7  8  1  0
  8  9  2  0
  9 10  1  0
  7 11  1  0
 11 12  1  0
 12 13  1  0
 13 14  1  0
 14 15  1  0
 14 16  1  0
 16 17  1  0
 10  2  2  0
 16 11  1  0
  9  4  1  0
 17  6  1  0
  1 18  1  0
  1 19  1  0
  3 20  1  0
  8 21  1  0
 11 22  1  1
 12 23  1  0
 12 24  1  0
 13 25  1  0
 13 26  1  0
 14 27  1  1
 15 28  1  0
 16 29  1  6
M  END
>  <meeko>  (74) 
{"is_sidechain": false}

$$$$

     RDKit          3D

 29 32  0  0  0  0  0  0  0  0999 V2000
    2.5310    1.5820  -63.1250 N   0  0  0  0  0  0  0  0  0  0  0  0
    3.5980    1.7890  -62.4430 C   0  0  0  0  0  0  0  0  0  0  0  0
    3.6600    1.6240  -60.9710 C   0  0  0  0  0  0  0  0  0  0  0  0
    4.9330    1.9340  -60.6650 C   0  0  0  0  0  0  0  0  0  0  0  0
    5.5770    1.9060  -59.0650 S   0  0  0  0  0  0  0  0  0  0  0  0
    7.1940    2.3990  -59.3970 C   0  0  0  0  0  0  0  0  0  0  0  0
    7.6940    2.6890  -60.6120 C   0  0  0  0  0  0  0  0  0  0  0  0
    6.9870    2.6420  -61.8560 C   0  0  0  0  0  0  0  0  0  0  0  0
    5.6960    2.2910  -61.8670 C   0  0  0  0  0  0  0  0  0  0  0  0
    4.8200    2.1790  -62.9070 N   0  0  0  0  0  0  0  0  0  0  0  0
    9.1330    2.9470  -60.4220 C   0  0  1  0  0  0  0  0  0  0  0  0
   10.0380    4.0160  -60.9930 C   0  0  0  0  0  0  0  0  0  0  0  0
   11.1050    4.1610  -59.8730 C   0  0  0  0  0  0  0  0  0  0  0  0
   10.4890    3.5270  -58.5980 C   0  0  1  0  0  0  0  0  0  0  0  0
   10.6960    4.3630  -57.4720 O   0  0  0  0  0  0  0  0  0  0  0  0
    9.0250    3.4370  -58.9850 C   0  0  2  0  0  0  0  0  0  0  0  0
    8.1320    2.5350  -58.3390 O   0  0  0  0  0  0  0  0  0  0  0  0
    2.7190    1.7550  -64.1150 H   0  0  0  0  0  0  0  0  0  0  0  0
    2.8533    1.3192  -60.2881 H   0  0  0  0  0  0  0  0  0  0  0  0
    7.5013    2.8925  -62.7956 H   0  0  0  0  0  0  0  0  0  0  0  0
    5.0670    2.3650  -63.8640 H   0  0  0  0  0  0  0  0  0  0  0  0
    9.5991    2.0604  -60.8766 H   0  0  0  0  0  0  0  0  0  0  0  0
   10.4933    3.6912  -61.9402 H   0  0  0  0  0  0  0  0  0  0  0  0
    9.5192    4.9545  -61.2380 H   0  0  0  0  0  0  0  0  0  0  0  0
   12.0268    3.6308  -60.1545 H   0  0  0  0  0  0  0  0  0  0  0  0
   11.3686    5.2160  -59.7069 H   0  0  0  0  0  0  0  0  0  0  0  0
   10.9238    2.5595  -58.3068 H   0  0  0  0  0  0  0  0  0  0  0  0
   11.6220    4.6680  -57.5090 H   0  0  0  0  0  0  0  0  0  0  0  0
    8.5807    4.4102  -58.7293 H   0  0  0  0  0  0  0  0  0  0  0  0
  1  2  2  3
  2  3  1  0
  3  4  2  0
  4  5  1  0
  5  6  1  0
  6  7  2  0
  7  8  1  0
  8  9  2  0
  9 10  1  0
  7 11  1  0
 11 12  1  0
 12 13  1  0
 13 14  1  0
 14 15  1  0
 14 16  1  0
 16 17  1  0
 10  2  1  0
 16 11  1  0
  9  4  1  0
 17  6  1  0
  1 18  1  0
  3 19  1  0
  8 20  1  0
 10 21  1  0
 11 22  1  1
 12 23  1  0
 12 24  1  0
 13 25  1  0
 13 26  1  0
 14 27  1  1
 15 28  1  0
 16 29  1  6
M  END
>  <meeko>  (75) 
{"is_sidechain": false}

$$$$

     RDKit          3D

 51 53  0  0  0  0  0  0  0  0999 V2000
    4.5720    2.2680  -58.2460 C   0  0  0  0  0  0  0  0  0  0  0  0
    5.6540    2.8990  -59.1420 C   0  0  2  0  0  0  0  0  0  0  0  0
    5.7610    2.0910  -60.4380 C   0  0  0  0  0  0  0  0  0  0  0  0
    6.4990    2.8540  -61.5130 N   0  0  2  0  0  0  0  0  0  0  0  0
    5.8100    2.6470  -62.8470 C   0  0  0  0  0  0  0  0  0  0  0  0
    7.9710    2.5410  -61.6380 C   0  0  0  0  0  0  0  0  0  0  0  0
    8.8070    2.7310  -60.3330 C   0  0  2  0  0  0  0  0  0  0  0  0
    9.3600    4.1630  -60.2140 C   0  0  0  0  0  0  0  0  0  0  0  0
    9.9660    1.8910  -60.5130 O   0  0  0  0  0  0  0  0  0  0  0  0
    8.1510    2.2760  -59.0080 C   0  0  0  0  0  0  0  0  0  0  0  0
    6.9960    3.0880  -58.3830 C   0  0  2  0  0  0  0  0  0  0  0  0
    6.9770    2.8750  -56.8470 C   0  0  0  0  0  0  0  0  0  0  0  0
    7.7810    1.7300  -56.4780 N   0  0  0  0  0  0  0  0  0  0  0  0
    7.4730    0.7750  -55.5270 C   0  0  0  0  0  0  0  0  0  0  0  0
    6.2090    0.3810  -55.2220 C   0  0  0  0  0  0  0  0  0  0  0  0
    5.9540   -0.6280  -54.1970 C   0  0  0  0  0  0  0  0  0  0  0  0
    6.9940   -1.1680  -53.5510 C   0  0  0  0  0  0  0  0  0  0  0  0
    7.0060   -2.1170  -52.5710 N   0  0  0  0  0  0  0  0  0  0  0  0
    8.2760   -2.2950  -52.3080 C   0  0  0  0  0  0  0  0  0  0  0  0
    8.6900   -3.1880  -51.3700 N   0  0  0  0  0  0  0  0  0  0  0  0
    9.1930   -1.4470  -53.0990 C   0  0  0  0  0  0  0  0  0  0  0  0
    8.3480   -0.7610  -53.8640 C   0  0  0  0  0  0  0  0  0  0  0  0
    8.5240    0.1950  -54.8320 N   0  0  0  0  0  0  0  0  0  0  0  0
    4.8356    2.4217  -57.1892 H   0  0  0  0  0  0  0  0  0  0  0  0
    3.6013    2.7416  -58.4544 H   0  0  0  0  0  0  0  0  0  0  0  0
    4.5062    1.1899  -58.4544 H   0  0  0  0  0  0  0  0  0  0  0  0
    5.3639    3.9222  -59.4229 H   0  0  0  0  0  0  0  0  0  0  0  0
    6.3005    1.1550  -60.2310 H   0  0  0  0  0  0  0  0  0  0  0  0
    4.7425    1.8872  -60.8000 H   0  0  0  0  0  0  0  0  0  0  0  0
    6.3920    3.8560  -61.3130 H   0  0  0  0  0  0  0  0  0  0  0  0
    4.7691    2.3343  -62.6774 H   0  0  0  0  0  0  0  0  0  0  0  0
    5.8220    3.5884  -63.4159 H   0  0  0  0  0  0  0  0  0  0  0  0
    6.3388    1.8681  -63.4159 H   0  0  0  0  0  0  0  0  0  0  0  0
    8.0697    1.4923  -61.9551 H   0  0  0  0  0  0  0  0  0  0  0  0
    8.3743    3.2612  -62.3650 H   0  0  0  0  0  0  0  0  0  0  0  0
    9.4628    4.4292  -59.1517 H   0  0  0  0  0  0  0  0  0  0  0  0
   10.3440    4.2179  -60.7027 H   0  0  0  0  0  0  0  0  0  0  0  0
    8.6683    4.8650  -60.7027 H   0  0  0  0  0  0  0  0  0  0  0  0
    9.7120    1.0910  -61.0140 H   0  0  0  0  0  0  0  0  0  0  0  0
    7.7643    1.2608  -59.1808 H   0  0  0  0  0  0  0  0  0  0  0  0
    8.9629    2.3997  -58.2762 H   0  0  0  0  0  0  0  0  0  0  0  0
    7.1720    4.1656  -58.5162 H   0  0  0  0  0  0  0  0  0  0  0  0
    7.3788    3.7722  -56.3533 H   0  0  0  0  0  0  0  0  0  0  0  0
    5.9396    2.6953  -56.5283 H   0  0  0  0  0  0  0  0  0  0  0  0
    8.2070    1.2740  -57.2850 H   0  0  0  0  0  0  0  0  0  0  0  0
    5.3603    0.8310  -55.7579 H   0  0  0  0  0  0  0  0  0  0  0  0
    4.9255   -0.9383  -53.9604 H   0  0  0  0  0  0  0  0  0  0  0  0
    9.5430   -2.9760  -50.8690 H   0  0  0  0  0  0  0  0  0  0  0  0
    7.9350   -3.5100  -50.7730 H   0  0  0  0  0  0  0  0  0  0  0  0
   10.2913   -1.3963  -53.0640 H   0  0  0  0  0  0  0  0  0  0  0  0
    9.4650    0.4880  -55.0430 H   0  0  0  0  0  0  0  0  0  0  0  0
  1  2  1  0
  2  3  1  0
  3  4  1  0
  4  5  1  0
  4  6  1  0
  6  7  1  0
  7  8  1  0
  7  9  1  6
  7 10  1  0
 10 11  1  0
 11 12  1  0
 12 13  1  0
 13 14  1  0
 14 15  2  0
 15 16  1  0
 16 17  2  0
 17 18  1  0
 18 19  2  0
 19 20  1  0
 19 21  1  0
 21 22  2  0
 22 23  1  0
 11  2  1  0
 23 14  1  0
 22 17  1  0
  1 24  1  0
  1 25  1  0
  1 26  1  0
  2 27  1  6
  3 28  1  0
  3 29  1  0
  4 30  1  1
  5 31  1  0
  5 32  1  0
  5 33  1  0
  6 34  1  0
  6 35  1  0
  8 36  1  0
  8 37  1  0
  8 38  1  0
  9 39  1  0
 10 40  1  0
 10 41  1  0
 11 42  1  1
 12 43  1  0
 12 44  1  0
 13 45  1  0
 15 46  1  0
 16 47  1  0
 20 48  1  0
 20 49  1  0
 21 50  1  0
 23 51  1  0
M  CHG  1   4   1
M  END
>  <meeko>  (76) 
{"is_sidechain": false}

$$$$

     RDKit          3D

 51 53  0  0  0  0  0  0  0  0999 V2000
    5.5470    1.4960  -59.4410 C   0  0  0  0  0  0  0  0  0  0  0  0
    6.8810    2.1770  -59.0930 C   0  0  1  0  0  0  0  0  0  0  0  0
    7.4520    2.9860  -60.2660 C   0  0  0  0  0  0  0  0  0  0  0  0
    8.8900    3.3820  -60.0310 N   0  0  2  0  0  0  0  0  0  0  0  0
    9.6540    3.4560  -61.3330 C   0  0  0  0  0  0  0  0  0  0  0  0
    9.6500    2.5420  -59.0270 C   0  0  0  0  0  0  0  0  0  0  0  0
    9.4240    2.9090  -57.5360 C   0  0  2  0  0  0  0  0  0  0  0  0
   10.5830    3.8240  -57.1020 C   0  0  0  0  0  0  0  0  0  0  0  0
    9.5300    1.7030  -56.7790 O   0  0  0  0  0  0  0  0  0  0  0  0
    8.0780    3.6010  -57.2420 C   0  0  0  0  0  0  0  0  0  0  0  0
    6.7710    2.9410  -57.7490 C   0  0  2  0  0  0  0  0  0  0  0  0
    6.0800    2.0730  -56.6650 C   0  0  0  0  0  0  0  0  0  0  0  0
    6.8480    0.8680  -56.4160 N   0  0  0  0  0  0  0  0  0  0  0  0
    6.9620    0.1770  -55.2250 C   0  0  0  0  0  0  0  0  0  0  0  0
    5.9130    0.1570  -54.3600 C   0  0  0  0  0  0  0  0  0  0  0  0
    5.9830   -0.5660  -53.0940 C   0  0  0  0  0  0  0  0  0  0  0  0
    7.1080   -1.2240  -52.7920 C   0  0  0  0  0  0  0  0  0  0  0  0
    7.4020   -1.9740  -51.6910 N   0  0  0  0  0  0  0  0  0  0  0  0
    8.6170   -2.4060  -51.9070 C   0  0  0  0  0  0  0  0  0  0  0  0
    9.2600   -3.2030  -51.0120 N   0  0  0  0  0  0  0  0  0  0  0  0
    9.2150   -1.9530  -53.1820 C   0  0  0  0  0  0  0  0  0  0  0  0
    8.2370   -1.2150  -53.7000 C   0  0  0  0  0  0  0  0  0  0  0  0
    8.1170   -0.5050  -54.8690 N   0  0  0  0  0  0  0  0  0  0  0  0
    5.0199    1.2269  -58.5138 H   0  0  0  0  0  0  0  0  0  0  0  0
    4.9251    2.1869  -60.0291 H   0  0  0  0  0  0  0  0  0  0  0  0
    5.7418    0.5870  -60.0291 H   0  0  0  0  0  0  0  0  0  0  0  0
    7.6428    1.4010  -58.9272 H   0  0  0  0  0  0  0  0  0  0  0  0
    7.3962    2.3755  -61.1794 H   0  0  0  0  0  0  0  0  0  0  0  0
    6.8575    3.9061  -60.3664 H   0  0  0  0  0  0  0  0  0  0  0  0
    8.9000    4.3410  -59.6700 H   0  0  0  0  0  0  0  0  0  0  0  0
   10.7286    3.5601  -61.1222 H   0  0  0  0  0  0  0  0  0  0  0  0
    9.4813    2.5369  -61.9122 H   0  0  0  0  0  0  0  0  0  0  0  0
    9.3081    4.3248  -61.9122 H   0  0  0  0  0  0  0  0  0  0  0  0
    9.3488    1.4933  -59.1666 H   0  0  0  0  0  0  0  0  0  0  0  0
   10.7158    2.7293  -59.2242 H   0  0  0  0  0  0  0  0  0  0  0  0
   10.6296    3.8608  -56.0036 H   0  0  0  0  0  0  0  0  0  0  0  0
   11.5304    3.4276  -57.4961 H   0  0  0  0  0  0  0  0  0  0  0  0
   10.4173    4.8375  -57.4961 H   0  0  0  0  0  0  0  0  0  0  0  0
   10.2930    1.1840  -57.1020 H   0  0  0  0  0  0  0  0  0  0  0  0
    7.9922    3.6893  -56.1489 H   0  0  0  0  0  0  0  0  0  0  0  0
    8.1355    4.5434  -57.8064 H   0  0  0  0  0  0  0  0  0  0  0  0
    6.1250    3.8040  -57.9679 H   0  0  0  0  0  0  0  0  0  0  0  0
    6.0017    2.6519  -55.7329 H   0  0  0  0  0  0  0  0  0  0  0  0
    5.0780    1.7902  -57.0200 H   0  0  0  0  0  0  0  0  0  0  0  0
    7.6570    0.7400  -57.0200 H   0  0  0  0  0  0  0  0  0  0  0  0
    4.9911    0.6978  -54.6202 H   0  0  0  0  0  0  0  0  0  0  0  0
    5.1279   -0.5698  -52.4021 H   0  0  0  0  0  0  0  0  0  0  0  0
   10.2620   -3.0880  -50.9330 H   0  0  0  0  0  0  0  0  0  0  0  0
    8.7890   -3.2220  -50.1120 H   0  0  0  0  0  0  0  0  0  0  0  0
   10.2111   -2.1703  -53.5950 H   0  0  0  0  0  0  0  0  0  0  0  0
    8.8710   -0.5470  -55.5300 H   0  0  0  0  0  0  0  0  0  0  0  0
  1  2  1  0
  2  3  1  0
  3  4  1  0
  4  5  1  0
  4  6  1  0
  6  7  1  0
  7  8  1  0
  7  9  1  1
  7 10  1  0
 10 11  1  0
 11 12  1  0
 12 13  1  0
 13 14  1  0
 14 15  2  0
 15 16  1  0
 16 17  2  0
 17 18  1  0
 18 19  2  0
 19 20  1  0
 19 21  1  0
 21 22  2  0
 22 23  1  0
 11  2  1  0
 23 14  1  0
 22 17  1  0
  1 24  1  0
  1 25  1  0
  1 26  1  0
  2 27  1  1
  3 28  1  0
  3 29  1  0
  4 30  1  1
  5 31  1  0
  5 32  1  0
  5 33  1  0
  6 34  1  0
  6 35  1  0
  8 36  1  0
  8 37  1  0
  8 38  1  0
  9 39  1  0
 10 40  1  0
 10 41  1  0
 11 42  1  6
 12 43  1  0
 12 44  1  0
 13 45  1  0
 15 46  1  0
 16 47  1  0
 20 48  1  0
 20 49  1  0
 21 50  1  0
 23 51  1  0
M  CHG  1   4   1
M  END
>  <meeko>  (77) 
{"is_sidechain": false}

$$$$

     RDKit          3D

 51 53  0  0  0  0  0  0  0  0999 V2000
    6.3980    0.0830  -54.7800 C   0  0  0  0  0  0  0  0  0  0  0  0
    7.5100   -0.8450  -54.2600 C   0  0  2  0  0  0  0  0  0  0  0  0
    7.5230   -0.7730  -52.7300 C   0  0  0  0  0  0  0  0  0  0  0  0
    8.3210   -1.8550  -52.0570 N   0  0  1  0  0  0  0  0  0  0  0  0
    7.7120   -2.2480  -50.7400 C   0  0  0  0  0  0  0  0  0  0  0  0
    8.6910   -3.0550  -52.9080 C   0  0  0  0  0  0  0  0  0  0  0  0
    9.9570   -2.6910  -53.7290 C   0  0  2  0  0  0  0  0  0  0  0  0
   10.0270   -3.5900  -54.9680 C   0  0  0  0  0  0  0  0  0  0  0  0
   11.0850   -2.9870  -52.8820 O   0  0  0  0  0  0  0  0  0  0  0  0
   10.0410   -1.2130  -54.1540 C   0  0  0  0  0  0  0  0  0  0  0  0
    8.8690   -0.6010  -54.9690 C   0  0  2  0  0  0  0  0  0  0  0  0
    9.1710    0.8450  -55.4250 C   0  0  0  0  0  0  0  0  0  0  0  0
   10.2680    0.9040  -56.3700 N   0  0  0  0  0  0  0  0  0  0  0  0
   10.5380    1.9370  -57.2540 C   0  0  0  0  0  0  0  0  0  0  0  0
    9.6070    2.2700  -58.1880 C   0  0  0  0  0  0  0  0  0  0  0  0
    9.8380    3.3510  -59.1420 C   0  0  0  0  0  0  0  0  0  0  0  0
   10.9920    4.0240  -59.0820 C   0  0  0  0  0  0  0  0  0  0  0  0
   11.4240    5.0710  -59.8430 N   0  0  0  0  0  0  0  0  0  0  0  0
   12.6000    5.3660  -59.3540 C   0  0  0  0  0  0  0  0  0  0  0  0
   13.3510    6.3780  -59.8660 N   0  0  0  0  0  0  0  0  0  0  0  0
   13.0300    4.5110  -58.2260 C   0  0  0  0  0  0  0  0  0  0  0  0
   11.9950    3.6860  -58.0930 C   0  0  0  0  0  0  0  0  0  0  0  0
   11.7290    2.6500  -57.2340 N   0  0  0  0  0  0  0  0  0  0  0  0
    5.8640    0.5287  -53.9278 H   0  0  0  0  0  0  0  0  0  0  0  0
    6.8430    0.8814  -55.3919 H   0  0  0  0  0  0  0  0  0  0  0  0
    5.6921   -0.4977  -55.3919 H   0  0  0  0  0  0  0  0  0  0  0  0
    7.3006   -1.8919  -54.5248 H   0  0  0  0  0  0  0  0  0  0  0  0
    7.9470    0.1986  -52.4363 H   0  0  0  0  0  0  0  0  0  0  0  0
    6.4810   -0.9068  -52.4038 H   0  0  0  0  0  0  0  0  0  0  0  0
    9.2490   -1.4660  -51.8090 H   0  0  0  0  0  0  0  0  0  0  0  0
    8.3269   -1.8512  -49.9187 H   0  0  0  0  0  0  0  0  0  0  0  0
    6.6947   -1.8355  -50.6688 H   0  0  0  0  0  0  0  0  0  0  0  0
    7.6687   -3.3448  -50.6688 H   0  0  0  0  0  0  0  0  0  0  0  0
    8.9015   -3.9199  -52.2617 H   0  0  0  0  0  0  0  0  0  0  0  0
    7.8613   -3.3152  -53.5817 H   0  0  0  0  0  0  0  0  0  0  0  0
   10.1088   -4.6411  -54.6542 H   0  0  0  0  0  0  0  0  0  0  0  0
    9.1158   -3.4568  -55.5696 H   0  0  0  0  0  0  0  0  0  0  0  0
   10.9066   -3.3174  -55.5696 H   0  0  0  0  0  0  0  0  0  0  0  0
   11.7120   -3.5390  -53.3940 H   0  0  0  0  0  0  0  0  0  0  0  0
   10.1411   -0.6174  -53.2346 H   0  0  0  0  0  0  0  0  0  0  0  0
   10.8924   -1.1843  -54.8499 H   0  0  0  0  0  0  0  0  0  0  0  0
    8.7655   -1.1357  -55.9247 H   0  0  0  0  0  0  0  0  0  0  0  0
    8.2709    1.2615  -55.9009 H   0  0  0  0  0  0  0  0  0  0  0  0
    9.4597    1.4256  -54.5364 H   0  0  0  0  0  0  0  0  0  0  0  0
   10.5080    0.0070  -56.7870 H   0  0  0  0  0  0  0  0  0  0  0  0
    8.6593    1.7128  -58.2255 H   0  0  0  0  0  0  0  0  0  0  0  0
    9.0780    3.6067  -59.8950 H   0  0  0  0  0  0  0  0  0  0  0  0
   14.3550    6.2580  -59.8490 H   0  0  0  0  0  0  0  0  0  0  0  0
   13.0030    6.6960  -60.7650 H   0  0  0  0  0  0  0  0  0  0  0  0
   13.9644    4.5479  -57.6467 H   0  0  0  0  0  0  0  0  0  0  0  0
   12.3880    2.4700  -56.4970 H   0  0  0  0  0  0  0  0  0  0  0  0
  1  2  1  0
  2  3  1  0
  3  4  1  0
  4  5  1  0
  4  6  1  0
  6  7  1  0
  7  8  1  0
  7  9  1  1
  7 10  1  0
 10 11  1  0
 11 12  1  0
 12 13  1  0
 13 14  1  0
 14 15  2  0
 15 16  1  0
 16 17  2  0
 17 18  1  0
 18 19  2  0
 19 20  1  0
 19 21  1  0
 21 22  2  0
 22 23  1  0
 11  2  1  0
 23 14  1  0
 22 17  1  0
  1 24  1  0
  1 25  1  0
  1 26  1  0
  2 27  1  1
  3 28  1  0
  3 29  1  0
  4 30  1  1
  5 31  1  0
  5 32  1  0
  5 33  1  0
  6 34  1  0
  6 35  1  0
  8 36  1  0
  8 37  1  0
  8 38  1  0
  9 39  1  0
 10 40  1  0
 10 41  1  0
 11 42  1  6
 12 43  1  0
 12 44  1  0
 13 45  1  0
 15 46  1  0
 16 47  1  0
 20 48  1  0
 20 49  1  0
 21 50  1  0
 23 51  1  0
M  CHG  1   4   1
M  END
>  <meeko>  (78) 
{"is_sidechain": false}

$$$$

     RDKit          3D

 51 53  0  0  0  0  0  0  0  0999 V2000
    5.4870   -0.4950  -54.0350 C   0  0  0  0  0  0  0  0  0  0  0  0
    6.8950   -0.6040  -53.4270 C   0  0  1  0  0  0  0  0  0  0  0  0
    6.8930   -1.8520  -52.5200 C   0  0  0  0  0  0  0  0  0  0  0  0
    8.1950   -2.1100  -51.8220 N   0  0  1  0  0  0  0  0  0  0  0  0
    7.9840   -2.6260  -50.4220 C   0  0  0  0  0  0  0  0  0  0  0  0
    9.1230   -3.0200  -52.6090 C   0  0  0  0  0  0  0  0  0  0  0  0
    9.9200   -2.1630  -53.6190 C   0  0  2  0  0  0  0  0  0  0  0  0
   10.0030   -2.9130  -54.9500 C   0  0  0  0  0  0  0  0  0  0  0  0
   11.2460   -2.0430  -53.0690 O   0  0  0  0  0  0  0  0  0  0  0  0
    9.4070   -0.7250  -53.8130 C   0  0  0  0  0  0  0  0  0  0  0  0
    8.0270   -0.5780  -54.5050 C   0  0  2  0  0  0  0  0  0  0  0  0
    8.0350    0.7260  -55.3460 C   0  0  0  0  0  0  0  0  0  0  0  0
    9.4060    1.0300  -55.7320 N   0  0  0  0  0  0  0  0  0  0  0  0
    9.7930    2.1490  -56.4520 C   0  0  0  0  0  0  0  0  0  0  0  0
    8.8650    3.0790  -56.8020 C   0  0  0  0  0  0  0  0  0  0  0  0
    9.2320    4.2710  -57.5610 C   0  0  0  0  0  0  0  0  0  0  0  0
   10.5080    4.4300  -57.9300 C   0  0  0  0  0  0  0  0  0  0  0  0
   11.0820    5.4400  -58.6460 N   0  0  0  0  0  0  0  0  0  0  0  0
   12.3410    5.0970  -58.7380 C   0  0  0  0  0  0  0  0  0  0  0  0
   13.2440    5.8730  -59.3980 N   0  0  0  0  0  0  0  0  0  0  0  0
   12.6810    3.8150  -58.0860 C   0  0  0  0  0  0  0  0  0  0  0  0
   11.5070    3.4400  -57.5840 C   0  0  0  0  0  0  0  0  0  0  0  0
   11.1060    2.3510  -56.8510 N   0  0  0  0  0  0  0  0  0  0  0  0
    4.7423   -0.4374  -53.2274 H   0  0  0  0  0  0  0  0  0  0  0  0
    5.4250    0.4106  -54.6563 H   0  0  0  0  0  0  0  0  0  0  0  0
    5.2863   -1.3803  -54.6563 H   0  0  0  0  0  0  0  0  0  0  0  0
    7.1316    0.2806  -52.8175 H   0  0  0  0  0  0  0  0  0  0  0  0
    6.1125   -1.7213  -51.7559 H   0  0  0  0  0  0  0  0  0  0  0  0
    6.7099   -2.7168  -53.1747 H   0  0  0  0  0  0  0  0  0  0  0  0
    8.7150   -1.2240  -51.6970 H   0  0  0  0  0  0  0  0  0  0  0  0
    8.2973   -1.8597  -49.6977 H   0  0  0  0  0  0  0  0  0  0  0  0
    6.9190   -2.8575  -50.2732 H   0  0  0  0  0  0  0  0  0  0  0  0
    8.5816   -3.5374  -50.2732 H   0  0  0  0  0  0  0  0  0  0  0  0
    9.8183   -3.5235  -51.9212 H   0  0  0  0  0  0  0  0  0  0  0  0
    8.5359   -3.7806  -53.1446 H   0  0  0  0  0  0  0  0  0  0  0  0
   10.1221   -3.9895  -54.7575 H   0  0  0  0  0  0  0  0  0  0  0  0
    9.0806   -2.7432  -55.5247 H   0  0  0  0  0  0  0  0  0  0  0  0
   10.8660   -2.5456  -55.5247 H   0  0  0  0  0  0  0  0  0  0  0  0
   11.8400   -2.6340  -53.5750 H   0  0  0  0  0  0  0  0  0  0  0  0
    9.3360   -0.2571  -52.8200 H   0  0  0  0  0  0  0  0  0  0  0  0
   10.1285   -0.2438  -54.4897 H   0  0  0  0  0  0  0  0  0  0  0  0
    7.8302   -1.4171  -55.1885 H   0  0  0  0  0  0  0  0  0  0  0  0
    7.4196    0.5879  -56.2473 H   0  0  0  0  0  0  0  0  0  0  0  0
    7.6225    1.5550  -54.7522 H   0  0  0  0  0  0  0  0  0  0  0  0
    9.9200    0.2090  -56.0470 H   0  0  0  0  0  0  0  0  0  0  0  0
    7.8157    2.9302  -56.5071 H   0  0  0  0  0  0  0  0  0  0  0  0
    8.4742    5.0236  -57.8243 H   0  0  0  0  0  0  0  0  0  0  0  0
   13.9970    5.3950  -59.8760 H   0  0  0  0  0  0  0  0  0  0  0  0
   12.7960    6.5830  -59.9680 H   0  0  0  0  0  0  0  0  0  0  0  0
   13.6531    3.3032  -58.0301 H   0  0  0  0  0  0  0  0  0  0  0  0
   11.7730    1.6140  -56.6940 H   0  0  0  0  0  0  0  0  0  0  0  0
  1  2  1  0
  2  3  1  0
  3  4  1  0
  4  5  1  0
  4  6  1  0
  6  7  1  0
  7  8  1  0
  7  9  1  1
  7 10  1  0
 10 11  1  0
 11 12  1  0
 12 13  1  0
 13 14  1  0
 14 15  2  0
 15 16  1  0
 16 17  2  0
 17 18  1  0
 18 19  2  0
 19 20  1  0
 19 21  1  0
 21 22  2  0
 22 23  1  0
 11  2  1  0
 23 14  1  0
 22 17  1  0
  1 24  1  0
  1 25  1  0
  1 26  1  0
  2 27  1  1
  3 28  1  0
  3 29  1  0
  4 30  1  1
  5 31  1  0
  5 32  1  0
  5 33  1  0
  6 34  1  0
  6 35  1  0
  8 36  1  0
  8 37  1  0
  8 38  1  0
  9 39  1  0
 10 40  1  0
 10 41  1  0
 11 42  1  6
 12 43  1  0
 12 44  1  0
 13 45  1  0
 15 46  1  0
 16 47  1  0
 20 48  1  0
 20 49  1  0
 21 50  1  0
 23 51  1  0
M  CHG  1   4   1
M  END
>  <meeko>  (79) 
{"is_sidechain": false}

$$$$

     RDKit          3D

 51 53  0  0  0  0  0  0  0  0999 V2000
    9.1900    4.8810  -56.2820 C   0  0  0  0  0  0  0  0  0  0  0  0
   10.3090    4.0480  -56.9190 C   0  0  2  0  0  0  0  0  0  0  0  0
   11.1850    4.8980  -57.8580 C   0  0  0  0  0  0  0  0  0  0  0  0
   10.9090    4.7310  -59.3320 N   0  0  2  0  0  0  0  0  0  0  0  0
   11.7720    5.6040  -60.1990 C   0  0  0  0  0  0  0  0  0  0  0  0
    9.4680    4.7290  -59.7850 C   0  0  0  0  0  0  0  0  0  0  0  0
    8.9020    3.2900  -59.8160 C   0  0  1  0  0  0  0  0  0  0  0  0
    7.5920    3.2790  -60.6110 C   0  0  0  0  0  0  0  0  0  0  0  0
    9.8770    2.5170  -60.5480 O   0  0  0  0  0  0  0  0  0  0  0  0
    8.7310    2.6060  -58.4440 C   0  0  0  0  0  0  0  0  0  0  0  0
    9.9280    2.6230  -57.4640 C   0  0  2  0  0  0  0  0  0  0  0  0
    9.8310    1.4710  -56.4380 C   0  0  0  0  0  0  0  0  0  0  0  0
    8.4910    1.3410  -55.9170 N   0  0  0  0  0  0  0  0  0  0  0  0
    8.0070    0.3860  -55.0450 C   0  0  0  0  0  0  0  0  0  0  0  0
    6.6710    0.1360  -55.0050 C   0  0  0  0  0  0  0  0  0  0  0  0
    6.1120   -0.8700  -54.1070 C   0  0  0  0  0  0  0  0  0  0  0  0
    6.9420   -1.5590  -53.3180 C   0  0  0  0  0  0  0  0  0  0  0  0
    6.6630   -2.5520  -52.4240 N   0  0  0  0  0  0  0  0  0  0  0  0
    7.8300   -2.9010  -51.9500 C   0  0  0  0  0  0  0  0  0  0  0  0
    7.9550   -3.8840  -51.0180 N   0  0  0  0  0  0  0  0  0  0  0  0
    8.9720   -2.1410  -52.5020 C   0  0  0  0  0  0  0  0  0  0  0  0
    8.3690   -1.3110  -53.3500 C   0  0  0  0  0  0  0  0  0  0  0  0
    8.8340   -0.3360  -54.1970 N   0  0  0  0  0  0  0  0  0  0  0  0
    9.2680    4.8229  -55.1863 H   0  0  0  0  0  0  0  0  0  0  0  0
    9.2860    5.9292  -56.6014 H   0  0  0  0  0  0  0  0  0  0  0  0
    8.2134    4.4883  -56.6014 H   0  0  0  0  0  0  0  0  0  0  0  0
   10.9419    3.7514  -56.0697 H   0  0  0  0  0  0  0  0  0  0  0  0
   11.0287    5.9562  -57.6017 H   0  0  0  0  0  0  0  0  0  0  0  0
   12.2176    4.5521  -57.7030 H   0  0  0  0  0  0  0  0  0  0  0  0
   11.1960    3.7580  -59.5400 H   0  0  0  0  0  0  0  0  0  0  0  0
   12.4032    6.2425  -59.5634 H   0  0  0  0  0  0  0  0  0  0  0  0
   12.4110    4.9728  -60.8341 H   0  0  0  0  0  0  0  0  0  0  0  0
   11.1335    6.2357  -60.8341 H   0  0  0  0  0  0  0  0  0  0  0  0
    8.8707    5.3362  -59.0889 H   0  0  0  0  0  0  0  0  0  0  0  0
    9.4179    5.1486  -60.8006 H   0  0  0  0  0  0  0  0  0  0  0  0
    6.7405    3.2719  -59.9146 H   0  0  0  0  0  0  0  0  0  0  0  0
    7.5400    4.1767  -61.2445 H   0  0  0  0  0  0  0  0  0  0  0  0
    7.5551    2.3805  -61.2445 H   0  0  0  0  0  0  0  0  0  0  0  0
   10.3470    1.9370  -59.9160 H   0  0  0  0  0  0  0  0  0  0  0  0
    7.8877    3.0979  -57.9372 H   0  0  0  0  0  0  0  0  0  0  0  0
    8.5918    1.5419  -58.6856 H   0  0  0  0  0  0  0  0  0  0  0  0
   10.8365    2.3938  -58.0403 H   0  0  0  0  0  0  0  0  0  0  0  0
   10.1169    0.5292  -56.9292 H   0  0  0  0  0  0  0  0  0  0  0  0
   10.5078    1.6955  -55.6004 H   0  0  0  0  0  0  0  0  0  0  0  0
    7.7570    1.7760  -56.4730 H   0  0  0  0  0  0  0  0  0  0  0  0
    5.9971    0.7039  -55.6633 H   0  0  0  0  0  0  0  0  0  0  0  0
    5.0284   -1.0574  -54.0802 H   0  0  0  0  0  0  0  0  0  0  0  0
    7.0630   -4.1290  -50.5990 H   0  0  0  0  0  0  0  0  0  0  0  0
    8.6980   -3.7810  -50.3380 H   0  0  0  0  0  0  0  0  0  0  0  0
   10.0433   -2.2368  -52.2714 H   0  0  0  0  0  0  0  0  0  0  0  0
    9.8290   -0.2310  -54.2930 H   0  0  0  0  0  0  0  0  0  0  0  0
  1  2  1  0
  2  3  1  0
  3  4  1  0
  4  5  1  0
  4  6  1  0
  6  7  1  0
  7  8  1  0
  7  9  1  6
  7 10  1  0
 10 11  1  0
 11 12  1  0
 12 13  1  0
 13 14  1  0
 14 15  2  0
 15 16  1  0
 16 17  2  0
 17 18  1  0
 18 19  2  0
 19 20  1  0
 19 21  1  0
 21 22  2  0
 22 23  1  0
 11  2  1  0
 23 14  1  0
 22 17  1  0
  1 24  1  0
  1 25  1  0
  1 26  1  0
  2 27  1  1
  3 28  1  0
  3 29  1  0
  4 30  1  6
  5 31  1  0
  5 32  1  0
  5 33  1  0
  6 34  1  0
  6 35  1  0
  8 36  1  0
  8 37  1  0
  8 38  1  0
  9 39  1  0
 10 40  1  0
 10 41  1  0
 11 42  1  6
 12 43  1  0
 12 44  1  0
 13 45  1  0
 15 46  1  0
 16 47  1  0
 20 48  1  0
 20 49  1  0
 21 50  1  0
 23 51  1  0
M  CHG  1   4   1
M  END
>  <meeko>  (80) 
{"is_sidechain": false}

$$$$

     RDKit          3D

 51 53  0  0  0  0  0  0  0  0999 V2000
   11.4540    2.4590  -57.2450 C   0  0  0  0  0  0  0  0  0  0  0  0
   10.1400    3.2490  -57.3270 C   0  0  1  0  0  0  0  0  0  0  0  0
   10.2940    4.5820  -58.0660 C   0  0  0  0  0  0  0  0  0  0  0  0
   10.7460    4.4850  -59.4960 N   0  0  2  0  0  0  0  0  0  0  0  0
   11.5890    5.6900  -59.8560 C   0  0  0  0  0  0  0  0  0  0  0  0
    9.7380    4.1710  -60.5680 C   0  0  0  0  0  0  0  0  0  0  0  0
    8.8460    2.9070  -60.4210 C   0  0  1  0  0  0  0  0  0  0  0  0
    7.9290    2.6600  -61.6150 C   0  0  0  0  0  0  0  0  0  0  0  0
    9.7970    1.8090  -60.4660 O   0  0  0  0  0  0  0  0  0  0  0  0
    8.1850    2.7800  -59.0350 C   0  0  0  0  0  0  0  0  0  0  0  0
    8.9570    2.3550  -57.7720 C   0  0  2  0  0  0  0  0  0  0  0  0
    8.0400    1.8830  -56.6160 C   0  0  0  0  0  0  0  0  0  0  0  0
    8.7360    1.1000  -55.6220 N   0  0  0  0  0  0  0  0  0  0  0  0
    8.1970    0.1680  -54.7530 C   0  0  0  0  0  0  0  0  0  0  0  0
    6.8470    0.0990  -54.6080 C   0  0  0  0  0  0  0  0  0  0  0  0
    6.2310   -0.8170  -53.6540 C   0  0  0  0  0  0  0  0  0  0  0  0
    7.0220   -1.6170  -52.9310 C   0  0  0  0  0  0  0  0  0  0  0  0
    6.6830   -2.5640  -52.0100 N   0  0  0  0  0  0  0  0  0  0  0  0
    7.8220   -3.1100  -51.6690 C   0  0  0  0  0  0  0  0  0  0  0  0
    7.8850   -4.1220  -50.7620 N   0  0  0  0  0  0  0  0  0  0  0  0
    9.0050   -2.5380  -52.3450 C   0  0  0  0  0  0  0  0  0  0  0  0
    8.4600   -1.5870  -53.1020 C   0  0  0  0  0  0  0  0  0  0  0  0
    8.9910   -0.6610  -53.9670 N   0  0  0  0  0  0  0  0  0  0  0  0
   11.7203    2.2989  -56.1898 H   0  0  0  0  0  0  0  0  0  0  0  0
   11.3288    1.4863  -57.7432 H   0  0  0  0  0  0  0  0  0  0  0  0
   12.2543    3.0258  -57.7432 H   0  0  0  0  0  0  0  0  0  0  0  0
    9.8669    3.5642  -56.3091 H   0  0  0  0  0  0  0  0  0  0  0  0
    9.3185    5.0902  -58.0535 H   0  0  0  0  0  0  0  0  0  0  0  0
   11.0882    5.1288  -57.5366 H   0  0  0  0  0  0  0  0  0  0  0  0
   11.4090    3.6990  -59.5210 H   0  0  0  0  0  0  0  0  0  0  0  0
   11.9345    6.1839  -58.9358 H   0  0  0  0  0  0  0  0  0  0  0  0
   12.4584    5.3660  -60.4469 H   0  0  0  0  0  0  0  0  0  0  0  0
   10.9865    6.3956  -60.4469 H   0  0  0  0  0  0  0  0  0  0  0  0
    9.0617    5.0358  -60.6368 H   0  0  0  0  0  0  0  0  0  0  0  0
   10.3548    3.9553  -61.4529 H   0  0  0  0  0  0  0  0  0  0  0  0
    6.9249    2.3895  -61.2564 H   0  0  0  0  0  0  0  0  0  0  0  0
    7.8669    3.5734  -62.2248 H   0  0  0  0  0  0  0  0  0  0  0  0
    8.3341    1.8390  -62.2248 H   0  0  0  0  0  0  0  0  0  0  0  0
    9.6410    1.2190  -59.7040 H   0  0  0  0  0  0  0  0  0  0  0  0
    7.7590    3.7691  -58.8110 H   0  0  0  0  0  0  0  0  0  0  0  0
    7.5206    1.9166  -59.1870 H   0  0  0  0  0  0  0  0  0  0  0  0
    9.4936    1.4601  -58.1202 H   0  0  0  0  0  0  0  0  0  0  0  0
    7.6111    2.7693  -56.1256 H   0  0  0  0  0  0  0  0  0  0  0  0
    7.2645    1.2387  -57.0558 H   0  0  0  0  0  0  0  0  0  0  0  0
    9.5370    1.5810  -55.2110 H   0  0  0  0  0  0  0  0  0  0  0  0
    6.2056    0.7475  -55.2229 H   0  0  0  0  0  0  0  0  0  0  0  0
    5.1383   -0.8489  -53.5319 H   0  0  0  0  0  0  0  0  0  0  0  0
    8.6030   -4.8210  -50.9080 H   0  0  0  0  0  0  0  0  0  0  0  0
    6.9720   -4.5330  -50.5840 H   0  0  0  0  0  0  0  0  0  0  0  0
   10.0628   -2.8238  -52.2481 H   0  0  0  0  0  0  0  0  0  0  0  0
    9.9320   -0.8370  -54.2840 H   0  0  0  0  0  0  0  0  0  0  0  0
  1  2  1  0
  2  3  1  0
  3  4  1  0
  4  5  1  0
  4  6  1  0
  6  7  1  0
  7  8  1  0
  7  9  1  1
  7 10  1  0
 10 11  1  0
 11 12  1  0
 12 13  1  0
 13 14  1  0
 14 15  2  0
 15 16  1  0
 16 17  2  0
 17 18  1  0
 18 19  2  0
 19 20  1  0
 19 21  1  0
 21 22  2  0
 22 23  1  0
 11  2  1  0
 23 14  1  0
 22 17  1  0
  1 24  1  0
  1 25  1  0
  1 26  1  0
  2 27  1  1
  3 28  1  0
  3 29  1  0
  4 30  1  1
  5 31  1  0
  5 32  1  0
  5 33  1  0
  6 34  1  0
  6 35  1  0
  8 36  1  0
  8 37  1  0
  8 38  1  0
  9 39  1  0
 10 40  1  0
 10 41  1  0
 11 42  1  6
 12 43  1  0
 12 44  1  0
 13 45  1  0
 15 46  1  0
 16 47  1  0
 20 48  1  0
 20 49  1  0
 21 50  1  0
 23 51  1  0
M  CHG  1   4   1
M  END
>  <meeko>  (81) 
{"is_sidechain": false}

$$$$

     RDKit          3D

 51 53  0  0  0  0  0  0  0  0999 V2000
    6.6440    0.4590  -52.5340 C   0  0  0  0  0  0  0  0  0  0  0  0
    6.6940   -0.8680  -53.3080 C   0  0  2  0  0  0  0  0  0  0  0  0
    6.7210   -2.0240  -52.3070 C   0  0  0  0  0  0  0  0  0  0  0  0
    8.0060   -2.1490  -51.5280 N   0  0  1  0  0  0  0  0  0  0  0  0
    7.7110   -2.5670  -50.1050 C   0  0  0  0  0  0  0  0  0  0  0  0
    9.0530   -3.0650  -52.1490 C   0  0  0  0  0  0  0  0  0  0  0  0
    9.6180   -2.5630  -53.5140 C   0  0  1  0  0  0  0  0  0  0  0  0
   11.1480   -2.7170  -53.5060 C   0  0  0  0  0  0  0  0  0  0  0  0
    9.1220   -3.4160  -54.5510 O   0  0  0  0  0  0  0  0  0  0  0  0
    9.2480   -1.1100  -53.8560 C   0  0  0  0  0  0  0  0  0  0  0  0
    7.8080   -0.8670  -54.3910 C   0  0  2  0  0  0  0  0  0  0  0  0
    7.7610    0.3830  -55.3070 C   0  0  0  0  0  0  0  0  0  0  0  0
    9.0870    0.7810  -55.7520 N   0  0  0  0  0  0  0  0  0  0  0  0
    9.4110    1.9230  -56.4610 C   0  0  0  0  0  0  0  0  0  0  0  0
    8.5160    2.8780  -56.8280 C   0  0  0  0  0  0  0  0  0  0  0  0
    8.9290    4.0570  -57.5850 C   0  0  0  0  0  0  0  0  0  0  0  0
   10.2170    4.1840  -57.9240 C   0  0  0  0  0  0  0  0  0  0  0  0
   10.8290    5.1700  -58.6430 N   0  0  0  0  0  0  0  0  0  0  0  0
   12.0800    4.7940  -58.7080 C   0  0  0  0  0  0  0  0  0  0  0  0
   13.0150    5.5410  -59.3560 N   0  0  0  0  0  0  0  0  0  0  0  0
   12.3790    3.5220  -58.0190 C   0  0  0  0  0  0  0  0  0  0  0  0
   11.1850    3.1790  -57.5400 C   0  0  0  0  0  0  0  0  0  0  0  0
   10.7420    2.1070  -56.8070 N   0  0  0  0  0  0  0  0  0  0  0  0
    6.6517    0.2537  -51.4534 H   0  0  0  0  0  0  0  0  0  0  0  0
    7.5197    1.0703  -52.7974 H   0  0  0  0  0  0  0  0  0  0  0  0
    5.7247    1.0027  -52.7974 H   0  0  0  0  0  0  0  0  0  0  0  0
    5.7820   -1.0085  -53.9068 H   0  0  0  0  0  0  0  0  0  0  0  0
    5.8986   -1.8776  -51.5913 H   0  0  0  0  0  0  0  0  0  0  0  0
    6.6213   -2.9483  -52.8950 H   0  0  0  0  0  0  0  0  0  0  0  0
    8.4150   -1.2130  -51.4430 H   0  0  0  0  0  0  0  0  0  0  0  0
    8.2022   -1.8710  -49.4091 H   0  0  0  0  0  0  0  0  0  0  0  0
    6.6243   -2.5492  -49.9354 H   0  0  0  0  0  0  0  0  0  0  0  0
    8.0919   -3.5849  -49.9354 H   0  0  0  0  0  0  0  0  0  0  0  0
    9.8912   -3.1584  -51.4428 H   0  0  0  0  0  0  0  0  0  0  0  0
    8.5530   -4.0242  -52.3490 H   0  0  0  0  0  0  0  0  0  0  0  0
   11.5074   -2.7532  -52.4670 H   0  0  0  0  0  0  0  0  0  0  0  0
   11.4256   -3.6476  -54.0226 H   0  0  0  0  0  0  0  0  0  0  0  0
   11.6055   -1.8604  -54.0226 H   0  0  0  0  0  0  0  0  0  0  0  0
    8.9120   -4.2890  -54.1660 H   0  0  0  0  0  0  0  0  0  0  0  0
    9.3704   -0.5102  -52.9421 H   0  0  0  0  0  0  0  0  0  0  0  0
    9.9167   -0.8266  -54.6822 H   0  0  0  0  0  0  0  0  0  0  0  0
    7.5655   -1.7487  -55.0024 H   0  0  0  0  0  0  0  0  0  0  0  0
    7.1440    0.1546  -56.1885 H   0  0  0  0  0  0  0  0  0  0  0  0
    7.3330    1.2140  -54.7271 H   0  0  0  0  0  0  0  0  0  0  0  0
    9.8140    0.6100  -55.0600 H   0  0  0  0  0  0  0  0  0  0  0  0
    7.4585    2.7605  -56.5490 H   0  0  0  0  0  0  0  0  0  0  0  0
    8.1955    4.8253  -57.8707 H   0  0  0  0  0  0  0  0  0  0  0  0
   12.6830    6.4790  -59.5570 H   0  0  0  0  0  0  0  0  0  0  0  0
   13.9530    5.5270  -58.9760 H   0  0  0  0  0  0  0  0  0  0  0  0
   13.3398    2.9945  -57.9258 H   0  0  0  0  0  0  0  0  0  0  0  0
   11.3820    1.3440  -56.6510 H   0  0  0  0  0  0  0  0  0  0  0  0
  1  2  1  0
  2  3  1  0
  3  4  1  0
  4  5  1  0
  4  6  1  0
  6  7  1  0
  7  8  1  0
  7  9  1  6
  7 10  1  0
 10 11  1  0
 11 12  1  0
 12 13  1  0
 13 14  1  0
 14 15  2  0
 15 16  1  0
 16 17  2  0
 17 18  1  0
 18 19  2  0
 19 20  1  0
 19 21  1  0
 21 22  2  0
 22 23  1  0
 11  2  1  0
 23 14  1  0
 22 17  1  0
  1 24  1  0
  1 25  1  0
  1 26  1  0
  2 27  1  6
  3 28  1  0
  3 29  1  0
  4 30  1  1
  5 31  1  0
  5 32  1  0
  5 33  1  0
  6 34  1  0
  6 35  1  0
  8 36  1  0
  8 37  1  0
  8 38  1  0
  9 39  1  0
 10 40  1  0
 10 41  1  0
 11 42  1  6
 12 43  1  0
 12 44  1  0
 13 45  1  0
 15 46  1  0
 16 47  1  0
 20 48  1  0
 20 49  1  0
 21 50  1  0
 23 51  1  0
M  CHG  1   4   1
M  END
>  <meeko>  (82) 
{"is_sidechain": false}

$$$$

     RDKit          3D

 51 53  0  0  0  0  0  0  0  0999 V2000
    5.5860    2.2490  -56.4530 C   0  0  0  0  0  0  0  0  0  0  0  0
    6.1020    1.8190  -57.8360 C   0  0  1  0  0  0  0  0  0  0  0  0
    5.0590    2.2950  -58.8670 C   0  0  0  0  0  0  0  0  0  0  0  0
    5.2750    1.7330  -60.2460 N   0  0  1  0  0  0  0  0  0  0  0  0
    3.9420    1.3760  -60.8740 C   0  0  0  0  0  0  0  0  0  0  0  0
    6.0660    2.6130  -61.1920 C   0  0  0  0  0  0  0  0  0  0  0  0
    7.5590    2.7640  -60.8130 C   0  0  1  0  0  0  0  0  0  0  0  0
    8.4960    2.5450  -62.0110 C   0  0  0  0  0  0  0  0  0  0  0  0
    7.7230    4.1530  -60.4670 O   0  0  0  0  0  0  0  0  0  0  0  0
    7.9970    1.9370  -59.5890 C   0  0  0  0  0  0  0  0  0  0  0  0
    7.5170    2.3710  -58.1800 C   0  0  2  0  0  0  0  0  0  0  0  0
    8.6190    2.0120  -57.1420 C   0  0  0  0  0  0  0  0  0  0  0  0
    9.9200    1.8920  -57.7740 N   0  0  0  0  0  0  0  0  0  0  0  0
   10.8370    2.8900  -58.0200 C   0  0  0  0  0  0  0  0  0  0  0  0
   12.0010    3.0210  -57.3300 C   0  0  0  0  0  0  0  0  0  0  0  0
   12.9320    4.1100  -57.6080 C   0  0  0  0  0  0  0  0  0  0  0  0
   12.6300    4.9800  -58.5790 C   0  0  0  0  0  0  0  0  0  0  0  0
   13.3390    6.0570  -59.0260 N   0  0  0  0  0  0  0  0  0  0  0  0
   12.6190    6.5350  -60.0070 C   0  0  0  0  0  0  0  0  0  0  0  0
   13.0160    7.6250  -60.7180 N   0  0  0  0  0  0  0  0  0  0  0  0
   11.3680    5.7940  -60.2710 C   0  0  0  0  0  0  0  0  0  0  0  0
   11.4100    4.8400  -59.3440 C   0  0  0  0  0  0  0  0  0  0  0  0
   10.5590    3.8140  -59.0170 N   0  0  0  0  0  0  0  0  0  0  0  0
    6.1796    1.7543  -55.6701 H   0  0  0  0  0  0  0  0  0  0  0  0
    5.6796    3.3401  -56.3497 H   0  0  0  0  0  0  0  0  0  0  0  0
    4.5296    1.9602  -56.3497 H   0  0  0  0  0  0  0  0  0  0  0  0
    6.2220    0.7256  -57.8476 H   0  0  0  0  0  0  0  0  0  0  0  0
    4.0614    1.9889  -58.5191 H   0  0  0  0  0  0  0  0  0  0  0  0
    5.1579    3.3878  -58.9449 H   0  0  0  0  0  0  0  0  0  0  0  0
    5.7650    0.8360  -60.1500 H   0  0  0  0  0  0  0  0  0  0  0  0
    3.2047    1.1785  -60.0819 H   0  0  0  0  0  0  0  0  0  0  0  0
    3.5947    2.2128  -61.4978 H   0  0  0  0  0  0  0  0  0  0  0  0
    4.0594    0.4777  -61.4978 H   0  0  0  0  0  0  0  0  0  0  0  0
    6.0077    2.1768  -62.2001 H   0  0  0  0  0  0  0  0  0  0  0  0
    5.6213    3.6177  -61.1382 H   0  0  0  0  0  0  0  0  0  0  0  0
    9.5069    2.3087  -61.6474 H   0  0  0  0  0  0  0  0  0  0  0  0
    8.1215    1.7102  -62.6216 H   0  0  0  0  0  0  0  0  0  0  0  0
    8.5303    3.4593  -62.6216 H   0  0  0  0  0  0  0  0  0  0  0  0
    8.4940    4.2500  -59.8750 H   0  0  0  0  0  0  0  0  0  0  0  0
    7.6394    0.9092  -59.7493 H   0  0  0  0  0  0  0  0  0  0  0  0
    9.0875    2.0767  -59.5517 H   0  0  0  0  0  0  0  0  0  0  0  0
    7.3792    3.4620  -58.1539 H   0  0  0  0  0  0  0  0  0  0  0  0
    8.6632    2.8026  -56.3784 H   0  0  0  0  0  0  0  0  0  0  0  0
    8.3641    1.0440  -56.6859 H   0  0  0  0  0  0  0  0  0  0  0  0
   10.0640    1.0620  -58.3380 H   0  0  0  0  0  0  0  0  0  0  0  0
   12.2464    2.2904  -56.5452 H   0  0  0  0  0  0  0  0  0  0  0  0
   13.8629    4.2136  -57.0312 H   0  0  0  0  0  0  0  0  0  0  0  0
   12.7570    7.6470  -61.6970 H   0  0  0  0  0  0  0  0  0  0  0  0
   13.9950    7.8470  -60.5640 H   0  0  0  0  0  0  0  0  0  0  0  0
   10.6004    5.9823  -61.0361 H   0  0  0  0  0  0  0  0  0  0  0  0
    9.7720    3.6410  -59.6230 H   0  0  0  0  0  0  0  0  0  0  0  0
  1  2  1  0
  2  3  1  0
  3  4  1  0
  4  5  1  0
  4  6  1  0
  6  7  1  0
  7  8  1  0
  7  9  1  1
  7 10  1  0
 10 11  1  0
 11 12  1  0
 12 13  1  0
 13 14  1  0
 14 15  2  0
 15 16  1  0
 16 17  2  0
 17 18  1  0
 18 19  2  0
 19 20  1  0
 19 21  1  0
 21 22  2  0
 22 23  1  0
 11  2  1  0
 23 14  1  0
 22 17  1  0
  1 24  1  0
  1 25  1  0
  1 26  1  0
  2 27  1  1
  3 28  1  0
  3 29  1  0
  4 30  1  1
  5 31  1  0
  5 32  1  0
  5 33  1  0
  6 34  1  0
  6 35  1  0
  8 36  1  0
  8 37  1  0
  8 38  1  0
  9 39  1  0
 10 40  1  0
 10 41  1  0
 11 42  1  6
 12 43  1  0
 12 44  1  0
 13 45  1  0
 15 46  1  0
 16 47  1  0
 20 48  1  0
 20 49  1  0
 21 50  1  0
 23 51  1  0
M  CHG  1   4   1
M  END
>  <meeko>  (83) 
{"is_sidechain": false}

$$$$

     RDKit          3D

 51 53  0  0  0  0  0  0  0  0999 V2000
    5.9020    0.8240  -59.7660 C   0  0  0  0  0  0  0  0  0  0  0  0
    6.7340    2.0430  -59.3210 C   0  0  2  0  0  0  0  0  0  0  0  0
    8.0160    2.0440  -60.1690 C   0  0  0  0  0  0  0  0  0  0  0  0
    8.9650    3.1560  -59.8110 N   0  0  2  0  0  0  0  0  0  0  0  0
    9.6550    3.6700  -61.0540 C   0  0  0  0  0  0  0  0  0  0  0  0
    9.9550    2.9090  -58.6930 C   0  0  0  0  0  0  0  0  0  0  0  0
    9.3950    3.1190  -57.2550 C   0  0  2  0  0  0  0  0  0  0  0  0
    9.9580    4.4420  -56.7080 C   0  0  0  0  0  0  0  0  0  0  0  0
    9.8230    2.0750  -56.3790 O   0  0  0  0  0  0  0  0  0  0  0  0
    7.8620    3.2030  -57.2690 C   0  0  0  0  0  0  0  0  0  0  0  0
    7.0600    1.9900  -57.7940 C   0  0  1  0  0  0  0  0  0  0  0  0
    5.8050    1.8050  -56.8940 C   0  0  0  0  0  0  0  0  0  0  0  0
    6.1880    1.4800  -55.5280 N   0  0  0  0  0  0  0  0  0  0  0  0
    6.7430    0.3030  -55.0630 C   0  0  0  0  0  0  0  0  0  0  0  0
    6.0240   -0.7740  -54.6520 C   0  0  0  0  0  0  0  0  0  0  0  0
    6.6790   -1.9970  -54.1930 C   0  0  0  0  0  0  0  0  0  0  0  0
    8.0160   -2.0460  -54.1830 C   0  0  0  0  0  0  0  0  0  0  0  0
    8.8420   -3.0690  -53.8170 N   0  0  0  0  0  0  0  0  0  0  0  0
   10.0460   -2.5940  -54.0020 C   0  0  0  0  0  0  0  0  0  0  0  0
   11.1540   -3.3370  -53.7320 N   0  0  0  0  0  0  0  0  0  0  0  0
   10.0920   -1.2070  -54.5080 C   0  0  0  0  0  0  0  0  0  0  0  0
    8.7990   -0.9060  -54.6090 C   0  0  0  0  0  0  0  0  0  0  0  0
    8.1280    0.2160  -55.0230 N   0  0  0  0  0  0  0  0  0  0  0  0
    5.5353    0.2868  -58.8789 H   0  0  0  0  0  0  0  0  0  0  0  0
    5.0467    1.1640  -60.3683 H   0  0  0  0  0  0  0  0  0  0  0  0
    6.5303    0.1514  -60.3683 H   0  0  0  0  0  0  0  0  0  0  0  0
    6.1666    2.9726  -59.4756 H   0  0  0  0  0  0  0  0  0  0  0  0
    8.5322    1.0837  -60.0228 H   0  0  0  0  0  0  0  0  0  0  0  0
    7.7144    2.1970  -61.2157 H   0  0  0  0  0  0  0  0  0  0  0  0
    8.3790    3.9340  -59.4850 H   0  0  0  0  0  0  0  0  0  0  0  0
   10.5062    4.3041  -60.7652 H   0  0  0  0  0  0  0  0  0  0  0  0
   10.0170    2.8197  -61.6506 H   0  0  0  0  0  0  0  0  0  0  0  0
    8.9439    4.2602  -61.6506 H   0  0  0  0  0  0  0  0  0  0  0  0
   10.3069    1.8699  -58.7731 H   0  0  0  0  0  0  0  0  0  0  0  0
   10.7541    3.6539  -58.8219 H   0  0  0  0  0  0  0  0  0  0  0  0
    9.9478    4.4180  -55.6083 H   0  0  0  0  0  0  0  0  0  0  0  0
   10.9908    4.5753  -57.0623 H   0  0  0  0  0  0  0  0  0  0  0  0
    9.3380    5.2787  -57.0623 H   0  0  0  0  0  0  0  0  0  0  0  0
    9.1270    1.3890  -56.3560 H   0  0  0  0  0  0  0  0  0  0  0  0
    7.5375    3.3829  -56.2335 H   0  0  0  0  0  0  0  0  0  0  0  0
    7.6434    4.0027  -57.9920 H   0  0  0  0  0  0  0  0  0  0  0  0
    7.6954    1.0953  -57.7183 H   0  0  0  0  0  0  0  0  0  0  0  0
    5.2225    2.7381  -56.8923 H   0  0  0  0  0  0  0  0  0  0  0  0
    5.2033    0.9768  -57.2965 H   0  0  0  0  0  0  0  0  0  0  0  0
    5.5400    1.8510  -54.8370 H   0  0  0  0  0  0  0  0  0  0  0  0
    4.9252   -0.7243  -54.6650 H   0  0  0  0  0  0  0  0  0  0  0  0
    6.0841   -2.8610  -53.8620 H   0  0  0  0  0  0  0  0  0  0  0  0
   10.9360   -4.1580  -53.1760 H   0  0  0  0  0  0  0  0  0  0  0  0
   11.9650   -2.8350  -53.3920 H   0  0  0  0  0  0  0  0  0  0  0  0
   10.9680   -0.5839  -54.7411 H   0  0  0  0  0  0  0  0  0  0  0  0
    8.6680    0.9930  -55.3710 H   0  0  0  0  0  0  0  0  0  0  0  0
  1  2  1  0
  2  3  1  0
  3  4  1  0
  4  5  1  0
  4  6  1  0
  6  7  1  0
  7  8  1  0
  7  9  1  1
  7 10  1  0
 10 11  1  0
 11 12  1  0
 12 13  1  0
 13 14  1  0
 14 15  2  0
 15 16  1  0
 16 17  2  0
 17 18  1  0
 18 19  2  0
 19 20  1  0
 19 21  1  0
 21 22  2  0
 22 23  1  0
 11  2  1  0
 23 14  1  0
 22 17  1  0
  1 24  1  0
  1 25  1  0
  1 26  1  0
  2 27  1  1
  3 28  1  0
  3 29  1  0
  4 30  1  1
  5 31  1  0
  5 32  1  0
  5 33  1  0
  6 34  1  0
  6 35  1  0
  8 36  1  0
  8 37  1  0
  8 38  1  0
  9 39  1  0
 10 40  1  0
 10 41  1  0
 11 42  1  6
 12 43  1  0
 12 44  1  0
 13 45  1  0
 15 46  1  0
 16 47  1  0
 20 48  1  0
 20 49  1  0
 21 50  1  0
 23 51  1  0
M  CHG  1   4   1
M  END
>  <meeko>  (84) 
{"is_sidechain": false}

$$$$

     RDKit          3D

 51 53  0  0  0  0  0  0  0  0999 V2000
    6.0030   -0.4240  -53.8810 C   0  0  0  0  0  0  0  0  0  0  0  0
    7.3400   -0.2260  -53.1470 C   0  0  1  0  0  0  0  0  0  0  0  0
    7.4230   -1.2300  -51.9950 C   0  0  0  0  0  0  0  0  0  0  0  0
    7.6660   -2.6530  -52.4230 N   0  0  2  0  0  0  0  0  0  0  0  0
    6.9220   -3.6030  -51.5090 C   0  0  0  0  0  0  0  0  0  0  0  0
    9.1300   -3.0560  -52.5330 C   0  0  0  0  0  0  0  0  0  0  0  0
    9.8690   -2.4750  -53.7760 C   0  0  2  0  0  0  0  0  0  0  0  0
   10.4680   -3.6290  -54.5970 C   0  0  0  0  0  0  0  0  0  0  0  0
   10.9690   -1.6830  -53.3180 O   0  0  0  0  0  0  0  0  0  0  0  0
    8.9740   -1.6080  -54.6770 C   0  0  0  0  0  0  0  0  0  0  0  0
    8.5440   -0.2120  -54.1300 C   0  0  1  0  0  0  0  0  0  0  0  0
    8.3420    0.7910  -55.2940 C   0  0  0  0  0  0  0  0  0  0  0  0
    9.6180    1.1330  -55.8960 N   0  0  0  0  0  0  0  0  0  0  0  0
    9.9000    2.3030  -56.5760 C   0  0  0  0  0  0  0  0  0  0  0  0
    9.0320    3.3420  -56.6950 C   0  0  0  0  0  0  0  0  0  0  0  0
    9.3930    4.5550  -57.4260 C   0  0  0  0  0  0  0  0  0  0  0  0
   10.6040    4.6290  -57.9910 C   0  0  0  0  0  0  0  0  0  0  0  0
   11.1570    5.6410  -58.7200 N   0  0  0  0  0  0  0  0  0  0  0  0
   12.3490    5.2000  -59.0330 C   0  0  0  0  0  0  0  0  0  0  0  0
   13.2130    5.9480  -59.7700 N   0  0  0  0  0  0  0  0  0  0  0  0
   12.6560    3.8440  -58.5330 C   0  0  0  0  0  0  0  0  0  0  0  0
   11.5390    3.5300  -57.8800 C   0  0  0  0  0  0  0  0  0  0  0  0
   11.1480    2.4220  -57.1720 N   0  0  0  0  0  0  0  0  0  0  0  0
    5.1947   -0.5437  -53.1446 H   0  0  0  0  0  0  0  0  0  0  0  0
    5.7975    0.4535  -54.5117 H   0  0  0  0  0  0  0  0  0  0  0  0
    6.0606   -1.3234  -54.5117 H   0  0  0  0  0  0  0  0  0  0  0  0
    7.3921    0.7722  -52.6878 H   0  0  0  0  0  0  0  0  0  0  0  0
    8.2464   -0.9252  -51.3323 H   0  0  0  0  0  0  0  0  0  0  0  0
    6.4423   -1.2163  -51.4969 H   0  0  0  0  0  0  0  0  0  0  0  0
    7.2270   -2.7870  -53.3410 H   0  0  0  0  0  0  0  0  0  0  0  0
    7.1279   -3.3401  -50.4609 H   0  0  0  0  0  0  0  0  0  0  0  0
    5.8416   -3.5258  -51.7010 H   0  0  0  0  0  0  0  0  0  0  0  0
    7.2558   -4.6334  -51.7010 H   0  0  0  0  0  0  0  0  0  0  0  0
    9.6512   -2.7070  -51.6294 H   0  0  0  0  0  0  0  0  0  0  0  0
    9.1456   -4.1504  -52.6432 H   0  0  0  0  0  0  0  0  0  0  0  0
   10.8659   -4.3956  -53.9159 H   0  0  0  0  0  0  0  0  0  0  0  0
    9.6861   -4.0722  -55.2312 H   0  0  0  0  0  0  0  0  0  0  0  0
   11.2804   -3.2447  -55.2312 H   0  0  0  0  0  0  0  0  0  0  0  0
   10.8480   -0.7640  -53.6240 H   0  0  0  0  0  0  0  0  0  0  0  0
    9.5171   -1.4405  -55.6188 H   0  0  0  0  0  0  0  0  0  0  0  0
    8.0360   -2.1747  -54.7713 H   0  0  0  0  0  0  0  0  0  0  0  0
    9.3820    0.1300  -53.5049 H   0  0  0  0  0  0  0  0  0  0  0  0
    7.6924    0.3356  -56.0560 H   0  0  0  0  0  0  0  0  0  0  0  0
    7.8776    1.7066  -54.8989 H   0  0  0  0  0  0  0  0  0  0  0  0
   10.4170    0.8780  -55.3190 H   0  0  0  0  0  0  0  0  0  0  0  0
    8.0371    3.2685  -56.2315 H   0  0  0  0  0  0  0  0  0  0  0  0
    8.6831    5.3910  -57.5102 H   0  0  0  0  0  0  0  0  0  0  0  0
   12.7610    6.7380  -60.2180 H   0  0  0  0  0  0  0  0  0  0  0  0
   13.8510    5.4510  -60.3790 H   0  0  0  0  0  0  0  0  0  0  0  0
   13.5709    3.2479  -58.6659 H   0  0  0  0  0  0  0  0  0  0  0  0
   11.7670    1.6270  -57.1530 H   0  0  0  0  0  0  0  0  0  0  0  0
  1  2  1  0
  2  3  1  0
  3  4  1  0
  4  5  1  0
  4  6  1  0
  6  7  1  0
  7  8  1  0
  7  9  1  1
  7 10  1  0
 10 11  1  0
 11 12  1  0
 12 13  1  0
 13 14  1  0
 14 15  2  0
 15 16  1  0
 16 17  2  0
 17 18  1  0
 18 19  2  0
 19 20  1  0
 19 21  1  0
 21 22  2  0
 22 23  1  0
 11  2  1  0
 23 14  1  0
 22 17  1  0
  1 24  1  0
  1 25  1  0
  1 26  1  0
  2 27  1  1
  3 28  1  0
  3 29  1  0
  4 30  1  6
  5 31  1  0
  5 32  1  0
  5 33  1  0
  6 34  1  0
  6 35  1  0
  8 36  1  0
  8 37  1  0
  8 38  1  0
  9 39  1  0
 10 40  1  0
 10 41  1  0
 11 42  1  1
 12 43  1  0
 12 44  1  0
 13 45  1  0
 15 46  1  0
 16 47  1  0
 20 48  1  0
 20 49  1  0
 21 50  1  0
 23 51  1  0
M  CHG  1   4   1
M  END
>  <meeko>  (85) 
{"is_sidechain": false}

$$$$

     RDKit          3D

 51 53  0  0  0  0  0  0  0  0999 V2000
   10.1210    4.1070  -56.1470 C   0  0  0  0  0  0  0  0  0  0  0  0
    9.8810    3.0160  -57.2030 C   0  0  2  0  0  0  0  0  0  0  0  0
   10.8710    3.2980  -58.3490 C   0  0  0  0  0  0  0  0  0  0  0  0
   10.4120    4.3150  -59.3470 N   0  0  1  0  0  0  0  0  0  0  0  0
   11.4590    5.3630  -59.5960 C   0  0  0  0  0  0  0  0  0  0  0  0
    9.8140    3.7690  -60.6280 C   0  0  0  0  0  0  0  0  0  0  0  0
    8.4010    3.2510  -60.2860 C   0  0  2  0  0  0  0  0  0  0  0  0
    7.7500    2.6370  -61.5290 C   0  0  0  0  0  0  0  0  0  0  0  0
    7.6390    4.4080  -59.8800 O   0  0  0  0  0  0  0  0  0  0  0  0
    8.3720    2.2460  -59.1210 C   0  0  0  0  0  0  0  0  0  0  0  0
    8.4030    2.8500  -57.6880 C   0  0  1  0  0  0  0  0  0  0  0  0
    7.5320    1.9440  -56.7790 C   0  0  0  0  0  0  0  0  0  0  0  0
    8.3900    1.1710  -55.8980 N   0  0  0  0  0  0  0  0  0  0  0  0
    7.9400    0.2520  -54.9620 C   0  0  0  0  0  0  0  0  0  0  0  0
    6.6050    0.1130  -54.7410 C   0  0  0  0  0  0  0  0  0  0  0  0
    6.0930   -0.8300  -53.7510 C   0  0  0  0  0  0  0  0  0  0  0  0
    6.9670   -1.5520  -53.0400 C   0  0  0  0  0  0  0  0  0  0  0  0
    6.7330   -2.4630  -52.0510 N   0  0  0  0  0  0  0  0  0  0  0  0
    7.9260   -2.8420  -51.6720 C   0  0  0  0  0  0  0  0  0  0  0  0
    8.1000   -3.7640  -50.6860 N   0  0  0  0  0  0  0  0  0  0  0  0
    9.0390   -2.2020  -52.4030 C   0  0  0  0  0  0  0  0  0  0  0  0
    8.3910   -1.4070  -53.2520 C   0  0  0  0  0  0  0  0  0  0  0  0
    8.8130   -0.5280  -54.2180 N   0  0  0  0  0  0  0  0  0  0  0  0
   10.0252    3.6714  -55.1415 H   0  0  0  0  0  0  0  0  0  0  0  0
   11.1320    4.5222  -56.2719 H   0  0  0  0  0  0  0  0  0  0  0  0
    9.3776    4.9081  -56.2719 H   0  0  0  0  0  0  0  0  0  0  0  0
   10.0634    2.0330  -56.7444 H   0  0  0  0  0  0  0  0  0  0  0  0
   11.8124    3.6554  -57.9062 H   0  0  0  0  0  0  0  0  0  0  0  0
   10.9786    2.3528  -58.9013 H   0  0  0  0  0  0  0  0  0  0  0  0
    9.6150    4.8360  -58.9300 H   0  0  0  0  0  0  0  0  0  0  0  0
   11.8361    5.7404  -58.6340 H   0  0  0  0  0  0  0  0  0  0  0  0
   12.2892    4.9232  -60.1682 H   0  0  0  0  0  0  0  0  0  0  0  0
   11.0184    6.1928  -60.1682 H   0  0  0  0  0  0  0  0  0  0  0  0
    9.7509    4.5654  -61.3841 H   0  0  0  0  0  0  0  0  0  0  0  0
   10.4381    2.9611  -61.0375 H   0  0  0  0  0  0  0  0  0  0  0  0
    6.9819    1.9125  -61.2206 H   0  0  0  0  0  0  0  0  0  0  0  0
    7.2841    3.4321  -62.1295 H   0  0  0  0  0  0  0  0  0  0  0  0
    8.5165    2.1254  -62.1295 H   0  0  0  0  0  0  0  0  0  0  0  0
    6.7150    4.2840  -60.1800 H   0  0  0  0  0  0  0  0  0  0  0  0
    7.4511    1.6516  -59.2142 H   0  0  0  0  0  0  0  0  0  0  0  0
    9.3004    1.6633  -59.2135 H   0  0  0  0  0  0  0  0  0  0  0  0
    7.9778    3.8640  -57.6585 H   0  0  0  0  0  0  0  0  0  0  0  0
    6.8572    2.5700  -56.1766 H   0  0  0  0  0  0  0  0  0  0  0  0
    6.9389    1.2605  -57.4043 H   0  0  0  0  0  0  0  0  0  0  0  0
    9.1670    1.7100  -55.5210 H   0  0  0  0  0  0  0  0  0  0  0  0
    5.8967    0.7236  -55.3201 H   0  0  0  0  0  0  0  0  0  0  0  0
    5.0105   -0.9447  -53.5927 H   0  0  0  0  0  0  0  0  0  0  0  0
    7.2380   -4.2560  -50.4680 H   0  0  0  0  0  0  0  0  0  0  0  0
    8.8960   -4.3820  -50.7750 H   0  0  0  0  0  0  0  0  0  0  0  0
   10.1225   -2.3452  -52.2782 H   0  0  0  0  0  0  0  0  0  0  0  0
    9.7970   -0.3240  -54.2700 H   0  0  0  0  0  0  0  0  0  0  0  0
  1  2  1  0
  2  3  1  0
  3  4  1  0
  4  5  1  0
  4  6  1  0
  6  7  1  0
  7  8  1  0
  7  9  1  1
  7 10  1  0
 10 11  1  0
 11 12  1  0
 12 13  1  0
 13 14  1  0
 14 15  2  0
 15 16  1  0
 16 17  2  0
 17 18  1  0
 18 19  2  0
 19 20  1  0
 19 21  1  0
 21 22  2  0
 22 23  1  0
 11  2  1  0
 23 14  1  0
 22 17  1  0
  1 24  1  0
  1 25  1  0
  1 26  1  0
  2 27  1  1
  3 28  1  0
  3 29  1  0
  4 30  1  1
  5 31  1  0
  5 32  1  0
  5 33  1  0
  6 34  1  0
  6 35  1  0
  8 36  1  0
  8 37  1  0
  8 38  1  0
  9 39  1  0
 10 40  1  0
 10 41  1  0
 11 42  1  6
 12 43  1  0
 12 44  1  0
 13 45  1  0
 15 46  1  0
 16 47  1  0
 20 48  1  0
 20 49  1  0
 21 50  1  0
 23 51  1  0
M  CHG  1   4   1
M  END
>  <meeko>  (86) 
{"is_sidechain": false}

$$$$

     RDKit          3D

 51 53  0  0  0  0  0  0  0  0999 V2000
    6.6300   -1.4380  -54.7080 C   0  0  0  0  0  0  0  0  0  0  0  0
    7.5790   -0.6540  -53.7950 C   0  0  1  0  0  0  0  0  0  0  0  0
    7.6070   -1.1660  -52.3470 C   0  0  0  0  0  0  0  0  0  0  0  0
    8.6050   -2.2350  -52.0070 N   0  0  1  0  0  0  0  0  0  0  0  0
    8.4490   -2.9510  -50.7000 C   0  0  0  0  0  0  0  0  0  0  0  0
    9.1090   -3.0860  -53.1380 C   0  0  0  0  0  0  0  0  0  0  0  0
   10.2830   -2.5440  -54.0090 C   0  0  2  0  0  0  0  0  0  0  0  0
   11.1010   -3.6410  -54.6790 C   0  0  0  0  0  0  0  0  0  0  0  0
   11.1750   -1.9370  -53.0470 O   0  0  0  0  0  0  0  0  0  0  0  0
    9.8360   -1.4120  -54.9440 C   0  0  0  0  0  0  0  0  0  0  0  0
    8.9560   -0.2580  -54.4140 C   0  0  1  0  0  0  0  0  0  0  0  0
    8.8990    0.9860  -55.3410 C   0  0  0  0  0  0  0  0  0  0  0  0
    9.9700    0.9910  -56.3100 N   0  0  0  0  0  0  0  0  0  0  0  0
   10.3000    1.9790  -57.2160 C   0  0  0  0  0  0  0  0  0  0  0  0
    9.4350    2.2800  -58.2200 C   0  0  0  0  0  0  0  0  0  0  0  0
    9.7460    3.3070  -59.2100 C   0  0  0  0  0  0  0  0  0  0  0  0
   10.9010    3.9730  -59.1020 C   0  0  0  0  0  0  0  0  0  0  0  0
   11.3970    4.9780  -59.8830 N   0  0  0  0  0  0  0  0  0  0  0  0
   12.5330    5.2960  -59.3190 C   0  0  0  0  0  0  0  0  0  0  0  0
   13.3250    6.2830  -59.8200 N   0  0  0  0  0  0  0  0  0  0  0  0
   12.8650    4.5090  -58.1130 C   0  0  0  0  0  0  0  0  0  0  0  0
   11.8240    3.6830  -58.0250 C   0  0  0  0  0  0  0  0  0  0  0  0
   11.4960    2.6800  -57.1470 N   0  0  0  0  0  0  0  0  0  0  0  0
    5.9267   -2.0191  -54.0935 H   0  0  0  0  0  0  0  0  0  0  0  0
    6.0691   -0.7364  -55.3429 H   0  0  0  0  0  0  0  0  0  0  0  0
    7.2131   -2.1212  -55.3429 H   0  0  0  0  0  0  0  0  0  0  0  0
    7.1078    0.3365  -53.7118 H   0  0  0  0  0  0  0  0  0  0  0  0
    7.8144   -0.3033  -51.6968 H   0  0  0  0  0  0  0  0  0  0  0  0
    6.6264   -1.6423  -52.2001 H   0  0  0  0  0  0  0  0  0  0  0  0
    9.4400   -1.6640  -51.8130 H   0  0  0  0  0  0  0  0  0  0  0  0
    8.6034   -2.2423  -49.8730 H   0  0  0  0  0  0  0  0  0  0  0  0
    7.4370   -3.3769  -50.6338 H   0  0  0  0  0  0  0  0  0  0  0  0
    9.1921   -3.7593  -50.6338 H   0  0  0  0  0  0  0  0  0  0  0  0
    9.4404   -4.0407  -52.7037 H   0  0  0  0  0  0  0  0  0  0  0  0
    8.2592   -3.1405  -53.8343 H   0  0  0  0  0  0  0  0  0  0  0  0
   11.5705   -4.2706  -53.9088 H   0  0  0  0  0  0  0  0  0  0  0  0
   10.4415   -4.2591  -55.3060 H   0  0  0  0  0  0  0  0  0  0  0  0
   11.8816   -3.1853  -55.3060 H   0  0  0  0  0  0  0  0  0  0  0  0
   11.6970   -1.2390  -53.4890 H   0  0  0  0  0  0  0  0  0  0  0  0
   10.7524   -0.9520  -55.3424 H   0  0  0  0  0  0  0  0  0  0  0  0
    9.1697   -1.9255  -55.6528 H   0  0  0  0  0  0  0  0  0  0  0  0
    9.5243    0.0663  -53.5298 H   0  0  0  0  0  0  0  0  0  0  0  0
    7.9374    0.9865  -55.8751 H   0  0  0  0  0  0  0  0  0  0  0  0
    9.0068    1.8822  -54.7123 H   0  0  0  0  0  0  0  0  0  0  0  0
   10.3700    0.0840  -56.5390 H   0  0  0  0  0  0  0  0  0  0  0  0
    8.4801    1.7383  -58.2882 H   0  0  0  0  0  0  0  0  0  0  0  0
    9.0448    3.5286  -60.0280 H   0  0  0  0  0  0  0  0  0  0  0  0
   13.8430    6.8340  -59.1470 H   0  0  0  0  0  0  0  0  0  0  0  0
   12.8330    6.8530  -60.5010 H   0  0  0  0  0  0  0  0  0  0  0  0
   13.7448    4.5857  -57.4573 H   0  0  0  0  0  0  0  0  0  0  0  0
   12.0640    2.5690  -56.3250 H   0  0  0  0  0  0  0  0  0  0  0  0
  1  2  1  0
  2  3  1  0
  3  4  1  0
  4  5  1  0
  4  6  1  0
  6  7  1  0
  7  8  1  0
  7  9  1  1
  7 10  1  0
 10 11  1  0
 11 12  1  0
 12 13  1  0
 13 14  1  0
 14 15  2  0
 15 16  1  0
 16 17  2  0
 17 18  1  0
 18 19  2  0
 19 20  1  0
 19 21  1  0
 21 22  2  0
 22 23  1  0
 11  2  1  0
 23 14  1  0
 22 17  1  0
  1 24  1  0
  1 25  1  0
  1 26  1  0
  2 27  1  1
  3 28  1  0
  3 29  1  0
  4 30  1  1
  5 31  1  0
  5 32  1  0
  5 33  1  0
  6 34  1  0
  6 35  1  0
  8 36  1  0
  8 37  1  0
  8 38  1  0
  9 39  1  0
 10 40  1  0
 10 41  1  0
 11 42  1  1
 12 43  1  0
 12 44  1  0
 13 45  1  0
 15 46  1  0
 16 47  1  0
 20 48  1  0
 20 49  1  0
 21 50  1  0
 23 51  1  0
M  CHG  1   4   1
M  END
>  <meeko>  (87) 
{"is_sidechain": false}

$$$$

     RDKit          3D

 51 53  0  0  0  0  0  0  0  0999 V2000
    9.1360    5.2510  -56.0610 C   0  0  0  0  0  0  0  0  0  0  0  0
    9.9180    4.4390  -57.1060 C   0  0  2  0  0  0  0  0  0  0  0  0
   10.0200    5.3310  -58.3610 C   0  0  0  0  0  0  0  0  0  0  0  0
   10.8470    4.7240  -59.4550 N   0  0  2  0  0  0  0  0  0  0  0  0
   11.8910    5.6750  -59.9630 C   0  0  0  0  0  0  0  0  0  0  0  0
   10.0700    4.0680  -60.5830 C   0  0  0  0  0  0  0  0  0  0  0  0
    9.5420    2.7050  -60.0640 C   0  0  1  0  0  0  0  0  0  0  0  0
    8.0120    2.6720  -60.1450 C   0  0  0  0  0  0  0  0  0  0  0  0
   10.0510    1.7030  -60.9770 O   0  0  0  0  0  0  0  0  0  0  0  0
   10.0010    2.3460  -58.6400 C   0  0  0  0  0  0  0  0  0  0  0  0
    9.3040    3.0440  -57.4420 C   0  0  1  0  0  0  0  0  0  0  0  0
    9.2940    2.0330  -56.2660 C   0  0  0  0  0  0  0  0  0  0  0  0
    7.9860    1.4100  -56.1680 N   0  0  0  0  0  0  0  0  0  0  0  0
    7.6310    0.4620  -55.2200 C   0  0  0  0  0  0  0  0  0  0  0  0
    6.3180    0.2410  -54.9460 C   0  0  0  0  0  0  0  0  0  0  0  0
    5.9050   -0.7350  -53.9410 C   0  0  0  0  0  0  0  0  0  0  0  0
    6.8480   -1.4040  -53.2690 C   0  0  0  0  0  0  0  0  0  0  0  0
    6.7110   -2.3300  -52.2760 N   0  0  0  0  0  0  0  0  0  0  0  0
    7.9400   -2.6360  -51.9460 C   0  0  0  0  0  0  0  0  0  0  0  0
    8.2100   -3.5470  -50.9720 N   0  0  0  0  0  0  0  0  0  0  0  0
    8.9810   -1.9260  -52.7190 C   0  0  0  0  0  0  0  0  0  0  0  0
    8.2520   -1.1710  -53.5380 C   0  0  0  0  0  0  0  0  0  0  0  0
    8.5810   -0.2660  -54.5150 N   0  0  0  0  0  0  0  0  0  0  0  0
    9.4385    4.9369  -55.0512 H   0  0  0  0  0  0  0  0  0  0  0  0
    9.3519    6.3216  -56.1920 H   0  0  0  0  0  0  0  0  0  0  0  0
    8.0580    5.0756  -56.1920 H   0  0  0  0  0  0  0  0  0  0  0  0
   10.9064    4.1878  -56.6937 H   0  0  0  0  0  0  0  0  0  0  0  0
    9.0053    5.5073  -58.7474 H   0  0  0  0  0  0  0  0  0  0  0  0
   10.5162    6.2646  -58.0575 H   0  0  0  0  0  0  0  0  0  0  0  0
   11.3560    3.9200  -59.0330 H   0  0  0  0  0  0  0  0  0  0  0  0
   12.4056    6.1437  -59.1112 H   0  0  0  0  0  0  0  0  0  0  0  0
   12.6211    5.1252  -60.5751 H   0  0  0  0  0  0  0  0  0  0  0  0
   11.4115    6.4531  -60.5751 H   0  0  0  0  0  0  0  0  0  0  0  0
    9.2259    4.7086  -60.8781 H   0  0  0  0  0  0  0  0  0  0  0  0
   10.7167    3.9209  -61.4606 H   0  0  0  0  0  0  0  0  0  0  0  0
    7.5911    2.6629  -59.1287 H   0  0  0  0  0  0  0  0  0  0  0  0
    7.6540    3.5626  -60.6822 H   0  0  0  0  0  0  0  0  0  0  0  0
    7.6927    1.7668  -60.6822 H   0  0  0  0  0  0  0  0  0  0  0  0
    9.3150    1.4260  -61.5610 H   0  0  0  0  0  0  0  0  0  0  0  0
    9.8556    1.2629  -58.5148 H   0  0  0  0  0  0  0  0  0  0  0  0
   11.0406    2.7024  -58.5931 H   0  0  0  0  0  0  0  0  0  0  0  0
    8.2646    3.3024  -57.6926 H   0  0  0  0  0  0  0  0  0  0  0  0
   10.0555    1.2590  -56.4426 H   0  0  0  0  0  0  0  0  0  0  0  0
    9.5167    2.5627  -55.3280 H   0  0  0  0  0  0  0  0  0  0  0  0
    7.5860    1.1710  -57.0730 H   0  0  0  0  0  0  0  0  0  0  0  0
    5.5507    0.8090  -55.4925 H   0  0  0  0  0  0  0  0  0  0  0  0
    4.8387   -0.9163  -53.7407 H   0  0  0  0  0  0  0  0  0  0  0  0
    9.0380   -4.1140  -51.0960 H   0  0  0  0  0  0  0  0  0  0  0  0
    7.3890   -4.0920  -50.7230 H   0  0  0  0  0  0  0  0  0  0  0  0
   10.0754   -2.0019  -52.6383 H   0  0  0  0  0  0  0  0  0  0  0  0
    9.5460    0.0030  -54.6030 H   0  0  0  0  0  0  0  0  0  0  0  0
  1  2  1  0
  2  3  1  0
  3  4  1  0
  4  5  1  0
  4  6  1  0
  6  7  1  0
  7  8  1  0
  7  9  1  6
  7 10  1  0
 10 11  1  0
 11 12  1  0
 12 13  1  0
 13 14  1  0
 14 15  2  0
 15 16  1  0
 16 17  2  0
 17 18  1  0
 18 19  2  0
 19 20  1  0
 19 21  1  0
 21 22  2  0
 22 23  1  0
 11  2  1  0
 23 14  1  0
 22 17  1  0
  1 24  1  0
  1 25  1  0
  1 26  1  0
  2 27  1  1
  3 28  1  0
  3 29  1  0
  4 30  1  1
  5 31  1  0
  5 32  1  0
  5 33  1  0
  6 34  1  0
  6 35  1  0
  8 36  1  0
  8 37  1  0
  8 38  1  0
  9 39  1  0
 10 40  1  0
 10 41  1  0
 11 42  1  6
 12 43  1  0
 12 44  1  0
 13 45  1  0
 15 46  1  0
 16 47  1  0
 20 48  1  0
 20 49  1  0
 21 50  1  0
 23 51  1  0
M  CHG  1   4   1
M  END
>  <meeko>  (88) 
{"is_sidechain": false}

$$$$

     RDKit          3D

 51 53  0  0  0  0  0  0  0  0999 V2000
   10.2330    4.1280  -56.1300 C   0  0  0  0  0  0  0  0  0  0  0  0
    9.2180    4.4920  -57.2170 C   0  0  1  0  0  0  0  0  0  0  0  0
    9.7680    5.4540  -58.2730 C   0  0  0  0  0  0  0  0  0  0  0  0
   10.8120    4.9010  -59.1970 N   0  0  2  0  0  0  0  0  0  0  0  0
   11.8340    5.9650  -59.5390 C   0  0  0  0  0  0  0  0  0  0  0  0
   10.4210    4.1040  -60.4160 C   0  0  0  0  0  0  0  0  0  0  0  0
    9.4120    2.9290  -60.2720 C   0  0  1  0  0  0  0  0  0  0  0  0
    8.0700    3.1770  -60.9580 C   0  0  0  0  0  0  0  0  0  0  0  0
   10.0230    1.8410  -61.0020 O   0  0  0  0  0  0  0  0  0  0  0  0
    9.2800    2.4360  -58.8220 C   0  0  0  0  0  0  0  0  0  0  0  0
    8.4590    3.2910  -57.8400 C   0  0  1  0  0  0  0  0  0  0  0  0
    7.8810    2.3810  -56.7250 C   0  0  0  0  0  0  0  0  0  0  0  0
    6.9860    1.3940  -57.3090 N   0  0  0  0  0  0  0  0  0  0  0  0
    5.8770    1.6820  -58.0840 C   0  0  0  0  0  0  0  0  0  0  0  0
    4.8030    2.3880  -57.6410 C   0  0  0  0  0  0  0  0  0  0  0  0
    3.6650    2.6670  -58.5130 C   0  0  0  0  0  0  0  0  0  0  0  0
    3.6850    2.2010  -59.7670 C   0  0  0  0  0  0  0  0  0  0  0  0
    2.7440    2.3180  -60.7490 N   0  0  0  0  0  0  0  0  0  0  0  0
    3.2510    1.6640  -61.7620 C   0  0  0  0  0  0  0  0  0  0  0  0
    2.5860    1.5540  -62.9440 N   0  0  0  0  0  0  0  0  0  0  0  0
    4.5760    1.0610  -61.5060 C   0  0  0  0  0  0  0  0  0  0  0  0
    4.8130    1.4340  -60.2510 C   0  0  0  0  0  0  0  0  0  0  0  0
    5.8660    1.2270  -59.3960 N   0  0  0  0  0  0  0  0  0  0  0  0
    9.7830    4.2894  -55.1393 H   0  0  0  0  0  0  0  0  0  0  0  0
   10.5194    3.0711  -56.2349 H   0  0  0  0  0  0  0  0  0  0  0  0
   11.1258    4.7620  -56.2349 H   0  0  0  0  0  0  0  0  0  0  0  0
    8.4460    5.0474  -56.6643 H   0  0  0  0  0  0  0  0  0  0  0  0
    8.9225    5.7949  -58.8885 H   0  0  0  0  0  0  0  0  0  0  0  0
   10.2702    6.2532  -57.7082 H   0  0  0  0  0  0  0  0  0  0  0  0
   11.3410    4.2270  -58.6270 H   0  0  0  0  0  0  0  0  0  0  0  0
   12.2437    6.3915  -58.6115 H   0  0  0  0  0  0  0  0  0  0  0  0
   12.6481    5.5160  -60.1270 H   0  0  0  0  0  0  0  0  0  0  0  0
   11.3526    6.7603  -60.1270 H   0  0  0  0  0  0  0  0  0  0  0  0
    9.9858    4.8130  -61.1357 H   0  0  0  0  0  0  0  0  0  0  0  0
   11.3568    3.6062  -60.7101 H   0  0  0  0  0  0  0  0  0  0  0  0
    7.2898    3.3212  -60.1961 H   0  0  0  0  0  0  0  0  0  0  0  0
    8.1401    4.0774  -61.5860 H   0  0  0  0  0  0  0  0  0  0  0  0
    7.8136    2.3110  -61.5860 H   0  0  0  0  0  0  0  0  0  0  0  0
    9.3620    1.4440  -61.6000 H   0  0  0  0  0  0  0  0  0  0  0  0
    8.8148    1.4398  -58.8563 H   0  0  0  0  0  0  0  0  0  0  0  0
   10.3055    2.4707  -58.4256 H   0  0  0  0  0  0  0  0  0  0  0  0
    7.6550    3.7462  -58.4369 H   0  0  0  0  0  0  0  0  0  0  0  0
    8.7054    1.8666  -56.2095 H   0  0  0  0  0  0  0  0  0  0  0  0
    7.3219    2.9980  -56.0062 H   0  0  0  0  0  0  0  0  0  0  0  0
    7.4700    0.5950  -57.7100 H   0  0  0  0  0  0  0  0  0  0  0  0
    4.7908    2.7566  -56.6047 H   0  0  0  0  0  0  0  0  0  0  0  0
    2.8073    3.2495  -58.1455 H   0  0  0  0  0  0  0  0  0  0  0  0
    1.6090    1.8230  -62.8600 H   0  0  0  0  0  0  0  0  0  0  0  0
    2.7200    0.6980  -63.4660 H   0  0  0  0  0  0  0  0  0  0  0  0
    5.2041    0.4592  -62.1793 H   0  0  0  0  0  0  0  0  0  0  0  0
    6.5900    0.5890  -59.6850 H   0  0  0  0  0  0  0  0  0  0  0  0
  1  2  1  0
  2  3  1  0
  3  4  1  0
  4  5  1  0
  4  6  1  0
  6  7  1  0
  7  8  1  0
  7  9  1  6
  7 10  1  0
 10 11  1  0
 11 12  1  0
 12 13  1  0
 13 14  1  0
 14 15  2  0
 15 16  1  0
 16 17  2  0
 17 18  1  0
 18 19  2  0
 19 20  1  0
 19 21  1  0
 21 22  2  0
 22 23  1  0
 11  2  1  0
 23 14  1  0
 22 17  1  0
  1 24  1  0
  1 25  1  0
  1 26  1  0
  2 27  1  1
  3 28  1  0
  3 29  1  0
  4 30  1  1
  5 31  1  0
  5 32  1  0
  5 33  1  0
  6 34  1  0
  6 35  1  0
  8 36  1  0
  8 37  1  0
  8 38  1  0
  9 39  1  0
 10 40  1  0
 10 41  1  0
 11 42  1  6
 12 43  1  0
 12 44  1  0
 13 45  1  0
 15 46  1  0
 16 47  1  0
 20 48  1  0
 20 49  1  0
 21 50  1  0
 23 51  1  0
M  CHG  1   4   1
M  END
>  <meeko>  (89) 
{"is_sidechain": false}

$$$$

     RDKit          3D

 51 53  0  0  0  0  0  0  0  0999 V2000
    3.9660    2.6450  -58.0260 C   0  0  0  0  0  0  0  0  0  0  0  0
    4.8720    2.3800  -59.2350 C   0  0  2  0  0  0  0  0  0  0  0  0
    4.1520    1.6060  -60.3450 C   0  0  0  0  0  0  0  0  0  0  0  0
    4.9040    1.5410  -61.6450 N   0  0  1  0  0  0  0  0  0  0  0  0
    3.9400    1.3400  -62.7940 C   0  0  0  0  0  0  0  0  0  0  0  0
    5.9040    2.6430  -61.9300 C   0  0  0  0  0  0  0  0  0  0  0  0
    7.2080    2.5770  -61.0950 C   0  0  1  0  0  0  0  0  0  0  0  0
    8.3690    2.3100  -62.0670 C   0  0  0  0  0  0  0  0  0  0  0  0
    7.4400    3.8640  -60.5040 O   0  0  0  0  0  0  0  0  0  0  0  0
    7.2170    1.5220  -59.9650 C   0  0  0  0  0  0  0  0  0  0  0  0
    6.2560    1.8070  -58.7900 C   0  0  1  0  0  0  0  0  0  0  0  0
    6.9320    2.7290  -57.7380 C   0  0  0  0  0  0  0  0  0  0  0  0
    8.2590    2.2620  -57.3890 N   0  0  0  0  0  0  0  0  0  0  0  0
    9.4770    2.8280  -57.6920 C   0  0  0  0  0  0  0  0  0  0  0  0
   10.5980    2.3920  -57.0580 C   0  0  0  0  0  0  0  0  0  0  0  0
   11.9080    2.9630  -57.3570 C   0  0  0  0  0  0  0  0  0  0  0  0
   11.9850    3.9620  -58.2420 C   0  0  0  0  0  0  0  0  0  0  0  0
   13.0730    4.6850  -58.6370 N   0  0  0  0  0  0  0  0  0  0  0  0
   12.5850    5.5980  -59.4360 C   0  0  0  0  0  0  0  0  0  0  0  0
   13.3820    6.5320  -60.0220 N   0  0  0  0  0  0  0  0  0  0  0  0
   11.1230    5.5160  -59.6440 C   0  0  0  0  0  0  0  0  0  0  0  0
   10.7950    4.4660  -58.8960 C   0  0  0  0  0  0  0  0  0  0  0  0
    9.5990    3.8400  -58.6360 N   0  0  0  0  0  0  0  0  0  0  0  0
    4.5340    2.4789  -57.0988 H   0  0  0  0  0  0  0  0  0  0  0  0
    3.6093    3.6851  -58.0561 H   0  0  0  0  0  0  0  0  0  0  0  0
    3.1050    1.9611  -58.0561 H   0  0  0  0  0  0  0  0  0  0  0  0
    5.1121    3.3405  -59.7144 H   0  0  0  0  0  0  0  0  0  0  0  0
    3.9832    0.5775  -59.9934 H   0  0  0  0  0  0  0  0  0  0  0  0
    3.2170    2.1480  -60.5500 H   0  0  0  0  0  0  0  0  0  0  0  0
    5.4570    0.6760  -61.6150 H   0  0  0  0  0  0  0  0  0  0  0  0
    2.9355    1.1306  -62.3975 H   0  0  0  0  0  0  0  0  0  0  0  0
    3.9085    2.2509  -63.4098 H   0  0  0  0  0  0  0  0  0  0  0  0
    4.2752    0.4924  -63.4098 H   0  0  0  0  0  0  0  0  0  0  0  0
    6.1772    2.5888  -62.9941 H   0  0  0  0  0  0  0  0  0  0  0  0
    5.4094    3.5857  -61.6532 H   0  0  0  0  0  0  0  0  0  0  0  0
    9.2848    2.0994  -61.4952 H   0  0  0  0  0  0  0  0  0  0  0  0
    8.1251    1.4445  -62.7006 H   0  0  0  0  0  0  0  0  0  0  0  0
    8.5277    3.1951  -62.7006 H   0  0  0  0  0  0  0  0  0  0  0  0
    6.6920    4.0720  -59.9090 H   0  0  0  0  0  0  0  0  0  0  0  0
    6.9400    0.5519  -60.4033 H   0  0  0  0  0  0  0  0  0  0  0  0
    8.2315    1.5393  -59.5400 H   0  0  0  0  0  0  0  0  0  0  0  0
    6.0404    0.8327  -58.3272 H   0  0  0  0  0  0  0  0  0  0  0  0
    7.0092    3.7452  -58.1519 H   0  0  0  0  0  0  0  0  0  0  0  0
    6.3150    2.7198  -56.8274 H   0  0  0  0  0  0  0  0  0  0  0  0
    8.3150    1.3300  -56.9890 H   0  0  0  0  0  0  0  0  0  0  0  0
   10.5164    1.5939  -56.3055 H   0  0  0  0  0  0  0  0  0  0  0  0
   12.8133    2.5790  -56.8641 H   0  0  0  0  0  0  0  0  0  0  0  0
   13.1060    6.8800  -60.9310 H   0  0  0  0  0  0  0  0  0  0  0  0
   14.3680    6.3080  -59.9500 H   0  0  0  0  0  0  0  0  0  0  0  0
   10.4744    6.1576  -60.2585 H   0  0  0  0  0  0  0  0  0  0  0  0
    8.7600    4.3630  -58.8390 H   0  0  0  0  0  0  0  0  0  0  0  0
  1  2  1  0
  2  3  1  0
  3  4  1  0
  4  5  1  0
  4  6  1  0
  6  7  1  0
  7  8  1  0
  7  9  1  1
  7 10  1  0
 10 11  1  0
 11 12  1  0
 12 13  1  0
 13 14  1  0
 14 15  2  0
 15 16  1  0
 16 17  2  0
 17 18  1  0
 18 19  2  0
 19 20  1  0
 19 21  1  0
 21 22  2  0
 22 23  1  0
 11  2  1  0
 23 14  1  0
 22 17  1  0
  1 24  1  0
  1 25  1  0
  1 26  1  0
  2 27  1  6
  3 28  1  0
  3 29  1  0
  4 30  1  1
  5 31  1  0
  5 32  1  0
  5 33  1  0
  6 34  1  0
  6 35  1  0
  8 36  1  0
  8 37  1  0
  8 38  1  0
  9 39  1  0
 10 40  1  0
 10 41  1  0
 11 42  1  1
 12 43  1  0
 12 44  1  0
 13 45  1  0
 15 46  1  0
 16 47  1  0
 20 48  1  0
 20 49  1  0
 21 50  1  0
 23 51  1  0
M  CHG  1   4   1
M  END
>  <meeko>  (90) 
{"is_sidechain": false}

$$$$

     RDKit          3D

 51 53  0  0  0  0  0  0  0  0999 V2000
    5.8690    0.0800  -53.5060 C   0  0  0  0  0  0  0  0  0  0  0  0
    7.1930   -0.4050  -52.9170 C   0  0  1  0  0  0  0  0  0  0  0  0
    7.0900   -1.7160  -52.1290 C   0  0  0  0  0  0  0  0  0  0  0  0
    8.3550   -2.3160  -51.5830 N   0  0  1  0  0  0  0  0  0  0  0  0
    8.1370   -2.9690  -50.2330 C   0  0  0  0  0  0  0  0  0  0  0  0
    9.2230   -3.1980  -52.4410 C   0  0  0  0  0  0  0  0  0  0  0  0
    9.8190   -2.5860  -53.7320 C   0  0  1  0  0  0  0  0  0  0  0  0
   11.1560   -1.8790  -53.5110 C   0  0  0  0  0  0  0  0  0  0  0  0
   10.1080   -3.7190  -54.5740 O   0  0  0  0  0  0  0  0  0  0  0  0
    8.7940   -1.7340  -54.4940 C   0  0  0  0  0  0  0  0  0  0  0  0
    8.4020   -0.3740  -53.8910 C   0  0  1  0  0  0  0  0  0  0  0  0
    8.1430    0.6380  -55.0400 C   0  0  0  0  0  0  0  0  0  0  0  0
    9.3850    0.8990  -55.7530 N   0  0  0  0  0  0  0  0  0  0  0  0
    9.6550    2.0350  -56.4960 C   0  0  0  0  0  0  0  0  0  0  0  0
    8.7130    2.9390  -56.8700 C   0  0  0  0  0  0  0  0  0  0  0  0
    9.0640    4.1250  -57.6470 C   0  0  0  0  0  0  0  0  0  0  0  0
   10.3400    4.3070  -58.0040 C   0  0  0  0  0  0  0  0  0  0  0  0
   10.9010    5.3150  -58.7330 N   0  0  0  0  0  0  0  0  0  0  0  0
   12.1660    4.9940  -58.8090 C   0  0  0  0  0  0  0  0  0  0  0  0
   13.0590    5.7740  -59.4770 N   0  0  0  0  0  0  0  0  0  0  0  0
   12.5250    3.7340  -58.1270 C   0  0  0  0  0  0  0  0  0  0  0  0
   11.3540    3.3450  -57.6270 C   0  0  0  0  0  0  0  0  0  0  0  0
   10.9710    2.2650  -56.8740 N   0  0  0  0  0  0  0  0  0  0  0  0
    5.1760    0.3339  -52.6904 H   0  0  0  0  0  0  0  0  0  0  0  0
    6.0479    0.9710  -54.1258 H   0  0  0  0  0  0  0  0  0  0  0  0
    5.4301   -0.7157  -54.1258 H   0  0  0  0  0  0  0  0  0  0  0  0
    7.4249    0.3695  -52.1711 H   0  0  0  0  0  0  0  0  0  0  0  0
    6.4210   -1.5321  -51.2754 H   0  0  0  0  0  0  0  0  0  0  0  0
    6.7352   -2.4509  -52.8666 H   0  0  0  0  0  0  0  0  0  0  0  0
    8.9540   -1.5060  -51.3650 H   0  0  0  0  0  0  0  0  0  0  0  0
    8.3768   -2.2506  -49.4352 H   0  0  0  0  0  0  0  0  0  0  0  0
    7.0860   -3.2808  -50.1419 H   0  0  0  0  0  0  0  0  0  0  0  0
    8.7899   -3.8496  -50.1419 H   0  0  0  0  0  0  0  0  0  0  0  0
   10.0649   -3.5354  -51.8186 H   0  0  0  0  0  0  0  0  0  0  0  0
    8.5481   -3.9909  -52.7957 H   0  0  0  0  0  0  0  0  0  0  0  0
   11.3442   -1.7795  -52.4318 H   0  0  0  0  0  0  0  0  0  0  0  0
   11.9629   -2.4683  -53.9711 H   0  0  0  0  0  0  0  0  0  0  0  0
   11.1232   -0.8804  -53.9711 H   0  0  0  0  0  0  0  0  0  0  0  0
   10.3150   -4.4920  -54.0140 H   0  0  0  0  0  0  0  0  0  0  0  0
    9.2065   -1.5422  -55.4955 H   0  0  0  0  0  0  0  0  0  0  0  0
    7.8673   -2.3261  -54.4679 H   0  0  0  0  0  0  0  0  0  0  0  0
    9.2539   -0.0628  -53.2685 H   0  0  0  0  0  0  0  0  0  0  0  0
    7.4025    0.2184  -55.7369 H   0  0  0  0  0  0  0  0  0  0  0  0
    7.7608    1.5790  -54.6175 H   0  0  0  0  0  0  0  0  0  0  0  0
   10.2160    0.6440  -55.2280 H   0  0  0  0  0  0  0  0  0  0  0  0
    7.6642    2.7747  -56.5819 H   0  0  0  0  0  0  0  0  0  0  0  0
    8.2928    4.8553  -57.9333 H   0  0  0  0  0  0  0  0  0  0  0  0
   13.8270    5.3000  -59.9370 H   0  0  0  0  0  0  0  0  0  0  0  0
   12.6010    6.4600  -60.0690 H   0  0  0  0  0  0  0  0  0  0  0  0
   13.5067    3.2435  -58.0516 H   0  0  0  0  0  0  0  0  0  0  0  0
   11.6460    1.5330  -56.7200 H   0  0  0  0  0  0  0  0  0  0  0  0
  1  2  1  0
  2  3  1  0
  3  4  1  0
  4  5  1  0
  4  6  1  0
  6  7  1  0
  7  8  1  0
  7  9  1  6
  7 10  1  0
 10 11  1  0
 11 12  1  0
 12 13  1  0
 13 14  1  0
 14 15  2  0
 15 16  1  0
 16 17  2  0
 17 18  1  0
 18 19  2  0
 19 20  1  0
 19 21  1  0
 21 22  2  0
 22 23  1  0
 11  2  1  0
 23 14  1  0
 22 17  1  0
  1 24  1  0
  1 25  1  0
  1 26  1  0
  2 27  1  1
  3 28  1  0
  3 29  1  0
  4 30  1  1
  5 31  1  0
  5 32  1  0
  5 33  1  0
  6 34  1  0
  6 35  1  0
  8 36  1  0
  8 37  1  0
  8 38  1  0
  9 39  1  0
 10 40  1  0
 10 41  1  0
 11 42  1  1
 12 43  1  0
 12 44  1  0
 13 45  1  0
 15 46  1  0
 16 47  1  0
 20 48  1  0
 20 49  1  0
 21 50  1  0
 23 51  1  0
M  CHG  1   4   1
M  END
>  <meeko>  (91) 
{"is_sidechain": false}

$$$$

     RDKit          3D

 51 53  0  0  0  0  0  0  0  0999 V2000
    8.4970    2.6000  -61.2580 C   0  0  0  0  0  0  0  0  0  0  0  0
    8.9400    3.6680  -60.2430 C   0  0  2  0  0  0  0  0  0  0  0  0
   10.3570    4.1470  -60.6010 C   0  0  0  0  0  0  0  0  0  0  0  0
   11.0620    4.8620  -59.4750 N   0  0  2  0  0  0  0  0  0  0  0  0
   11.8440    6.0350  -60.0280 C   0  0  0  0  0  0  0  0  0  0  0  0
   11.9140    4.0540  -58.5120 C   0  0  0  0  0  0  0  0  0  0  0  0
   11.1320    3.1160  -57.5640 C   0  0  2  0  0  0  0  0  0  0  0  0
   10.4230    3.9650  -56.4970 C   0  0  0  0  0  0  0  0  0  0  0  0
   12.0050    2.2230  -56.8760 O   0  0  0  0  0  0  0  0  0  0  0  0
   10.0700    2.3440  -58.3650 C   0  0  0  0  0  0  0  0  0  0  0  0
    8.8050    3.1100  -58.7930 C   0  0  2  0  0  0  0  0  0  0  0  0
    7.4360    2.4130  -58.5210 C   0  0  0  0  0  0  0  0  0  0  0  0
    6.9850    2.4750  -57.1320 N   0  0  0  0  0  0  0  0  0  0  0  0
    7.0360    1.4260  -56.2240 C   0  0  0  0  0  0  0  0  0  0  0  0
    5.9420    0.8140  -55.7000 C   0  0  0  0  0  0  0  0  0  0  0  0
    6.0660   -0.2830  -54.7450 C   0  0  0  0  0  0  0  0  0  0  0  0
    7.2860   -0.6890  -54.3740 C   0  0  0  0  0  0  0  0  0  0  0  0
    7.7400   -1.6440  -53.5260 N   0  0  0  0  0  0  0  0  0  0  0  0
    9.1020   -1.6380  -53.5040 C   0  0  0  0  0  0  0  0  0  0  0  0
    9.8350   -2.4200  -52.7980 N   0  0  0  0  0  0  0  0  0  0  0  0
    9.6030   -0.5800  -54.4250 C   0  0  0  0  0  0  0  0  0  0  0  0
    8.4810   -0.0360  -54.9290 C   0  0  0  0  0  0  0  0  0  0  0  0
    8.2870    0.9790  -55.8330 N   0  0  0  0  0  0  0  0  0  0  0  0
    8.1293    1.7135  -60.7205 H   0  0  0  0  0  0  0  0  0  0  0  0
    7.6929    3.0056  -61.8896 H   0  0  0  0  0  0  0  0  0  0  0  0
    9.3521    2.3173  -61.8896 H   0  0  0  0  0  0  0  0  0  0  0  0
    8.2871    4.5522  -60.2875 H   0  0  0  0  0  0  0  0  0  0  0  0
   10.9578    3.2704  -60.8849 H   0  0  0  0  0  0  0  0  0  0  0  0
   10.2519    4.8703  -61.4231 H   0  0  0  0  0  0  0  0  0  0  0  0
   10.3230    5.2790  -58.8970 H   0  0  0  0  0  0  0  0  0  0  0  0
   12.2434    6.6341  -59.1964 H   0  0  0  0  0  0  0  0  0  0  0  0
   12.6756    5.6633  -60.6446 H   0  0  0  0  0  0  0  0  0  0  0  0
   11.1810    6.6597  -60.6446 H   0  0  0  0  0  0  0  0  0  0  0  0
   12.6055    3.4377  -59.1053 H   0  0  0  0  0  0  0  0  0  0  0  0
   12.4196    4.7865  -57.8656 H   0  0  0  0  0  0  0  0  0  0  0  0
   10.7154    3.6149  -55.4960 H   0  0  0  0  0  0  0  0  0  0  0  0
   10.7125    5.0196  -56.6156 H   0  0  0  0  0  0  0  0  0  0  0  0
    9.3337    3.8682  -56.6156 H   0  0  0  0  0  0  0  0  0  0  0  0
   12.9190    2.5480  -57.0520 H   0  0  0  0  0  0  0  0  0  0  0  0
   10.5542    1.9708  -59.2795 H   0  0  0  0  0  0  0  0  0  0  0  0
    9.7072    1.5688  -57.6740 H   0  0  0  0  0  0  0  0  0  0  0  0
    8.7603    3.9624  -58.0991 H   0  0  0  0  0  0  0  0  0  0  0  0
    6.6743    2.8962  -59.1506 H   0  0  0  0  0  0  0  0  0  0  0  0
    7.5777    1.3475  -58.7546 H   0  0  0  0  0  0  0  0  0  0  0  0
    7.3880    3.2880  -56.6600 H   0  0  0  0  0  0  0  0  0  0  0  0
    4.9401    1.1529  -56.0023 H   0  0  0  0  0  0  0  0  0  0  0  0
    5.1684   -0.7696  -54.3357 H   0  0  0  0  0  0  0  0  0  0  0  0
    7.1670   -2.2740  -52.9910 H   0  0  0  0  0  0  0  0  0  0  0  0
   10.8280   -2.2260  -52.9520 H   0  0  0  0  0  0  0  0  0  0  0  0
   10.6463   -0.3074  -54.6421 H   0  0  0  0  0  0  0  0  0  0  0  0
    9.1010    1.4710  -56.1670 H   0  0  0  0  0  0  0  0  0  0  0  0
  1  2  1  0
  2  3  1  0
  3  4  1  0
  4  5  1  0
  4  6  1  0
  6  7  1  0
  7  8  1  0
  7  9  1  1
  7 10  1  0
 10 11  1  0
 11 12  1  0
 12 13  1  0
 13 14  1  0
 14 15  2  0
 15 16  1  0
 16 17  2  0
 17 18  1  0
 18 19  1  0
 19 20  2  3
 19 21  1  0
 21 22  2  0
 22 23  1  0
 11  2  1  0
 23 14  1  0
 22 17  1  0
  1 24  1  0
  1 25  1  0
  1 26  1  0
  2 27  1  1
  3 28  1  0
  3 29  1  0
  4 30  1  1
  5 31  1  0
  5 32  1  0
  5 33  1  0
  6 34  1  0
  6 35  1  0
  8 36  1  0
  8 37  1  0
  8 38  1  0
  9 39  1  0
 10 40  1  0
 10 41  1  0
 11 42  1  1
 12 43  1  0
 12 44  1  0
 13 45  1  0
 15 46  1  0
 16 47  1  0
 18 48  1  0
 20 49  1  0
 21 50  1  0
 23 51  1  0
M  CHG  1   4   1
M  END
>  <meeko>  (92) 
{"is_sidechain": false}

$$$$

     RDKit          3D

 51 53  0  0  0  0  0  0  0  0999 V2000
   11.5240    2.6790  -57.2320 C   0  0  0  0  0  0  0  0  0  0  0  0
   10.1690    3.3970  -57.0910 C   0  0  1  0  0  0  0  0  0  0  0  0
   10.2340    4.7580  -57.7990 C   0  0  0  0  0  0  0  0  0  0  0  0
   10.7460    4.6360  -59.2180 N   0  0  2  0  0  0  0  0  0  0  0  0
   11.6200    5.8120  -59.5840 C   0  0  0  0  0  0  0  0  0  0  0  0
    9.6180    4.4890  -60.2180 C   0  0  0  0  0  0  0  0  0  0  0  0
    8.7570    3.2220  -60.0360 C   0  0  2  0  0  0  0  0  0  0  0  0
    9.5390    1.9700  -60.4540 C   0  0  0  0  0  0  0  0  0  0  0  0
    7.6640    3.3570  -60.9600 O   0  0  0  0  0  0  0  0  0  0  0  0
    8.1230    3.0860  -58.6360 C   0  0  0  0  0  0  0  0  0  0  0  0
    9.0120    2.4610  -57.5400 C   0  0  2  0  0  0  0  0  0  0  0  0
    8.1390    2.0470  -56.3190 C   0  0  0  0  0  0  0  0  0  0  0  0
    8.7700    0.9530  -55.6020 N   0  0  0  0  0  0  0  0  0  0  0  0
    8.1820    0.1110  -54.6820 C   0  0  0  0  0  0  0  0  0  0  0  0
    6.8340    0.1080  -54.5240 C   0  0  0  0  0  0  0  0  0  0  0  0
    6.1840   -0.7620  -53.5500 C   0  0  0  0  0  0  0  0  0  0  0  0
    6.9320   -1.6040  -52.8270 C   0  0  0  0  0  0  0  0  0  0  0  0
    6.6510   -2.5440  -51.8910 N   0  0  0  0  0  0  0  0  0  0  0  0
    7.7880   -3.2160  -51.5540 C   0  0  0  0  0  0  0  0  0  0  0  0
    7.8470   -4.2100  -50.7440 N   0  0  0  0  0  0  0  0  0  0  0  0
    8.9450   -2.6250  -52.2830 C   0  0  0  0  0  0  0  0  0  0  0  0
    8.3900   -1.6490  -53.0240 C   0  0  0  0  0  0  0  0  0  0  0  0
    8.9420   -0.7520  -53.9060 N   0  0  0  0  0  0  0  0  0  0  0  0
   11.9305    2.4636  -56.2328 H   0  0  0  0  0  0  0  0  0  0  0  0
   11.3842    1.7367  -57.7819 H   0  0  0  0  0  0  0  0  0  0  0  0
   12.2252    3.3239  -57.7819 H   0  0  0  0  0  0  0  0  0  0  0  0
    9.9464    3.6248  -56.0381 H   0  0  0  0  0  0  0  0  0  0  0  0
    9.2247    5.1947  -57.8221 H   0  0  0  0  0  0  0  0  0  0  0  0
   10.9323    5.3983  -57.2401 H   0  0  0  0  0  0  0  0  0  0  0  0
   11.3550    3.8120  -59.2950 H   0  0  0  0  0  0  0  0  0  0  0  0
   11.9821    6.2992  -58.6667 H   0  0  0  0  0  0  0  0  0  0  0  0
   12.4781    5.4609  -60.1759 H   0  0  0  0  0  0  0  0  0  0  0  0
   11.0364    6.5324  -60.1759 H   0  0  0  0  0  0  0  0  0  0  0  0
    8.9609    5.3662  -60.1249 H   0  0  0  0  0  0  0  0  0  0  0  0
   10.0894    4.4050  -61.2083 H   0  0  0  0  0  0  0  0  0  0  0  0
    9.8756    1.4311  -59.5560 H   0  0  0  0  0  0  0  0  0  0  0  0
    8.8893    1.3148  -61.0528 H   0  0  0  0  0  0  0  0  0  0  0  0
   10.4128    2.2664  -61.0528 H   0  0  0  0  0  0  0  0  0  0  0  0
    7.8770    4.0680  -61.5970 H   0  0  0  0  0  0  0  0  0  0  0  0
    7.8344    4.0928  -58.2996 H   0  0  0  0  0  0  0  0  0  0  0  0
    7.2805    2.3901  -58.7622 H   0  0  0  0  0  0  0  0  0  0  0  0
    9.4843    1.5688  -57.9769 H   0  0  0  0  0  0  0  0  0  0  0  0
    8.0267    2.9079  -55.6435 H   0  0  0  0  0  0  0  0  0  0  0  0
    7.1514    1.7206  -56.6769 H   0  0  0  0  0  0  0  0  0  0  0  0
    9.5780    0.5470  -56.0680 H   0  0  0  0  0  0  0  0  0  0  0  0
    6.2182    0.7762  -55.1439 H   0  0  0  0  0  0  0  0  0  0  0  0
    5.0933   -0.7264  -53.4116 H   0  0  0  0  0  0  0  0  0  0  0  0
    5.7260   -2.8460  -51.6350 H   0  0  0  0  0  0  0  0  0  0  0  0
    8.8070   -4.5550  -50.6590 H   0  0  0  0  0  0  0  0  0  0  0  0
   10.0039   -2.9178  -52.2283 H   0  0  0  0  0  0  0  0  0  0  0  0
    9.8650   -0.9630  -54.2560 H   0  0  0  0  0  0  0  0  0  0  0  0
  1  2  1  0
  2  3  1  0
  3  4  1  0
  4  5  1  0
  4  6  1  0
  6  7  1  0
  7  8  1  0
  7  9  1  6
  7 10  1  0
 10 11  1  0
 11 12  1  0
 12 13  1  0
 13 14  1  0
 14 15  2  0
 15 16  1  0
 16 17  2  0
 17 18  1  0
 18 19  1  0
 19 20  2  3
 19 21  1  0
 21 22  2  0
 22 23  1  0
 11  2  1  0
 23 14  1  0
 22 17  1  0
  1 24  1  0
  1 25  1  0
  1 26  1  0
  2 27  1  1
  3 28  1  0
  3 29  1  0
  4 30  1  1
  5 31  1  0
  5 32  1  0
  5 33  1  0
  6 34  1  0
  6 35  1  0
  8 36  1  0
  8 37  1  0
  8 38  1  0
  9 39  1  0
 10 40  1  0
 10 41  1  0
 11 42  1  6
 12 43  1  0
 12 44  1  0
 13 45  1  0
 15 46  1  0
 16 47  1  0
 18 48  1  0
 20 49  1  0
 21 50  1  0
 23 51  1  0
M  CHG  1   4   1
M  END
>  <meeko>  (93) 
{"is_sidechain": false}

$$$$

     RDKit          3D

 51 53  0  0  0  0  0  0  0  0999 V2000
    6.3390    0.4010  -52.7030 C   0  0  0  0  0  0  0  0  0  0  0  0
    6.7250   -0.8870  -53.4450 C   0  0  2  0  0  0  0  0  0  0  0  0
    6.7250   -2.0730  -52.4710 C   0  0  0  0  0  0  0  0  0  0  0  0
    8.0330   -2.2370  -51.7500 N   0  0  1  0  0  0  0  0  0  0  0  0
    7.8520   -2.5800  -50.2980 C   0  0  0  0  0  0  0  0  0  0  0  0
    8.9520   -3.2290  -52.4470 C   0  0  0  0  0  0  0  0  0  0  0  0
    9.7710   -2.4920  -53.5390 C   0  0  2  0  0  0  0  0  0  0  0  0
    9.6450   -3.2620  -54.8580 C   0  0  0  0  0  0  0  0  0  0  0  0
   11.1370   -2.5510  -53.1190 O   0  0  0  0  0  0  0  0  0  0  0  0
    9.3310   -1.0260  -53.7340 C   0  0  0  0  0  0  0  0  0  0  0  0
    7.9560   -0.7510  -54.4070 C   0  0  2  0  0  0  0  0  0  0  0  0
    7.8980    0.4840  -55.3540 C   0  0  0  0  0  0  0  0  0  0  0  0
    9.2090    1.0220  -55.7130 N   0  0  0  0  0  0  0  0  0  0  0  0
    9.4550    2.1570  -56.4680 C   0  0  0  0  0  0  0  0  0  0  0  0
    8.5100    3.0550  -56.8480 C   0  0  0  0  0  0  0  0  0  0  0  0
    8.8540    4.2330  -57.6430 C   0  0  0  0  0  0  0  0  0  0  0  0
   10.1260    4.4270  -58.0090 C   0  0  0  0  0  0  0  0  0  0  0  0
   10.7610    5.3840  -58.7350 N   0  0  0  0  0  0  0  0  0  0  0  0
   12.0910    5.0850  -58.8180 C   0  0  0  0  0  0  0  0  0  0  0  0
   13.0080    5.7460  -59.4230 N   0  0  0  0  0  0  0  0  0  0  0  0
   12.3630    3.8240  -58.0810 C   0  0  0  0  0  0  0  0  0  0  0  0
   11.1600    3.4620  -57.6050 C   0  0  0  0  0  0  0  0  0  0  0  0
   10.7670    2.3900  -56.8460 N   0  0  0  0  0  0  0  0  0  0  0  0
    6.3907    0.2285  -51.6178 H   0  0  0  0  0  0  0  0  0  0  0  0
    7.0353    1.2063  -52.9798 H   0  0  0  0  0  0  0  0  0  0  0  0
    5.3146    0.6907  -52.9798 H   0  0  0  0  0  0  0  0  0  0  0  0
    5.9423   -1.1108  -54.1848 H   0  0  0  0  0  0  0  0  0  0  0  0
    5.9309   -1.9156  -51.7262 H   0  0  0  0  0  0  0  0  0  0  0  0
    6.5569   -2.9855  -53.0618 H   0  0  0  0  0  0  0  0  0  0  0  0
    8.5690   -1.3530  -51.7670 H   0  0  0  0  0  0  0  0  0  0  0  0
    8.2755   -1.7775  -49.6761 H   0  0  0  0  0  0  0  0  0  0  0  0
    6.7797   -2.6876  -50.0776 H   0  0  0  0  0  0  0  0  0  0  0  0
    8.3684   -3.5259  -50.0776 H   0  0  0  0  0  0  0  0  0  0  0  0
    9.6380   -3.6736  -51.7110 H   0  0  0  0  0  0  0  0  0  0  0  0
    8.3502   -4.0236  -52.9122 H   0  0  0  0  0  0  0  0  0  0  0  0
    9.4707   -4.3271  -54.6456 H   0  0  0  0  0  0  0  0  0  0  0  0
    8.8006   -2.8607  -55.4376 H   0  0  0  0  0  0  0  0  0  0  0  0
   10.5733   -3.1508  -55.4376 H   0  0  0  0  0  0  0  0  0  0  0  0
   11.3590   -3.5100  -53.0660 H   0  0  0  0  0  0  0  0  0  0  0  0
    9.3054   -0.5587  -52.7385 H   0  0  0  0  0  0  0  0  0  0  0  0
   10.0660   -0.6143  -54.4413 H   0  0  0  0  0  0  0  0  0  0  0  0
    7.8574   -1.5951  -55.1054 H   0  0  0  0  0  0  0  0  0  0  0  0
    7.3815    0.1866  -56.2785 H   0  0  0  0  0  0  0  0  0  0  0  0
    7.3675    1.2781  -54.8081 H   0  0  0  0  0  0  0  0  0  0  0  0
    9.8090    1.0920  -54.8860 H   0  0  0  0  0  0  0  0  0  0  0  0
    7.4632    2.8928  -56.5514 H   0  0  0  0  0  0  0  0  0  0  0  0
    8.0752    4.9520  -57.9370 H   0  0  0  0  0  0  0  0  0  0  0  0
   10.2950    6.1800  -59.1370 H   0  0  0  0  0  0  0  0  0  0  0  0
   12.6040    6.5770  -59.8610 H   0  0  0  0  0  0  0  0  0  0  0  0
   13.3256    3.3070  -57.9545 H   0  0  0  0  0  0  0  0  0  0  0  0
   11.4630    1.6960  -56.6210 H   0  0  0  0  0  0  0  0  0  0  0  0
  1  2  1  0
  2  3  1  0
  3  4  1  0
  4  5  1  0
  4  6  1  0
  6  7  1  0
  7  8  1  0
  7  9  1  1
  7 10  1  0
 10 11  1  0
 11 12  1  0
 12 13  1  0
 13 14  1  0
 14 15  2  0
 15 16  1  0
 16 17  2  0
 17 18  1  0
 18 19  1  0
 19 20  2  3
 19 21  1  0
 21 22  2  0
 22 23  1  0
 11  2  1  0
 23 14  1  0
 22 17  1  0
  1 24  1  0
  1 25  1  0
  1 26  1  0
  2 27  1  6
  3 28  1  0
  3 29  1  0
  4 30  1  1
  5 31  1  0
  5 32  1  0
  5 33  1  0
  6 34  1  0
  6 35  1  0
  8 36  1  0
  8 37  1  0
  8 38  1  0
  9 39  1  0
 10 40  1  0
 10 41  1  0
 11 42  1  6
 12 43  1  0
 12 44  1  0
 13 45  1  0
 15 46  1  0
 16 47  1  0
 18 48  1  0
 20 49  1  0
 21 50  1  0
 23 51  1  0
M  CHG  1   4   1
M  END
>  <meeko>  (94) 
{"is_sidechain": false}

$$$$

     RDKit          3D

 51 53  0  0  0  0  0  0  0  0999 V2000
    5.5470   -0.4550  -54.2680 C   0  0  0  0  0  0  0  0  0  0  0  0
    6.8770   -0.6250  -53.5240 C   0  0  1  0  0  0  0  0  0  0  0  0
    6.8380   -1.8020  -52.5340 C   0  0  0  0  0  0  0  0  0  0  0  0
    8.1420   -2.1850  -51.8950 N   0  0  1  0  0  0  0  0  0  0  0  0
    8.0150   -2.6270  -50.4670 C   0  0  0  0  0  0  0  0  0  0  0  0
    9.0870   -3.0610  -52.6880 C   0  0  0  0  0  0  0  0  0  0  0  0
    9.9290   -2.1980  -53.6560 C   0  0  2  0  0  0  0  0  0  0  0  0
   10.0030   -2.9020  -55.0160 C   0  0  0  0  0  0  0  0  0  0  0  0
   11.2550   -2.1550  -53.0920 O   0  0  0  0  0  0  0  0  0  0  0  0
    9.4450   -0.7380  -53.8260 C   0  0  0  0  0  0  0  0  0  0  0  0
    8.0760   -0.5890  -54.5230 C   0  0  2  0  0  0  0  0  0  0  0  0
    8.0360    0.7270  -55.3430 C   0  0  0  0  0  0  0  0  0  0  0  0
    9.3960    1.1430  -55.6460 N   0  0  0  0  0  0  0  0  0  0  0  0
    9.7280    2.2570  -56.4000 C   0  0  0  0  0  0  0  0  0  0  0  0
    8.7600    3.1380  -56.7680 C   0  0  0  0  0  0  0  0  0  0  0  0
    9.0670    4.3200  -57.5690 C   0  0  0  0  0  0  0  0  0  0  0  0
   10.3270    4.5250  -57.9690 C   0  0  0  0  0  0  0  0  0  0  0  0
   10.9300    5.4810  -58.7170 N   0  0  0  0  0  0  0  0  0  0  0  0
   12.2550    5.1930  -58.8600 C   0  0  0  0  0  0  0  0  0  0  0  0
   13.0980    5.8950  -59.5280 N   0  0  0  0  0  0  0  0  0  0  0  0
   12.5670    3.9360  -58.1240 C   0  0  0  0  0  0  0  0  0  0  0  0
   11.3830    3.5710  -57.5980 C   0  0  0  0  0  0  0  0  0  0  0  0
   11.0260    2.5000  -56.8170 N   0  0  0  0  0  0  0  0  0  0  0  0
    4.7298   -0.3506  -53.5391 H   0  0  0  0  0  0  0  0  0  0  0  0
    5.5924    0.4446  -54.8993 H   0  0  0  0  0  0  0  0  0  0  0  0
    5.3647   -1.3371  -54.8993 H   0  0  0  0  0  0  0  0  0  0  0  0
    7.0476    0.2389  -52.8647 H   0  0  0  0  0  0  0  0  0  0  0  0
    6.1363   -1.5382  -51.7290 H   0  0  0  0  0  0  0  0  0  0  0  0
    6.5401   -2.6755  -53.1326 H   0  0  0  0  0  0  0  0  0  0  0  0
    8.6690   -1.2940  -51.8690 H   0  0  0  0  0  0  0  0  0  0  0  0
    8.2566   -1.7863  -49.8001 H   0  0  0  0  0  0  0  0  0  0  0  0
    6.9844   -2.9614  -50.2769 H   0  0  0  0  0  0  0  0  0  0  0  0
    8.7109   -3.4574  -50.2769 H   0  0  0  0  0  0  0  0  0  0  0  0
    9.7582   -3.5909  -51.9961 H   0  0  0  0  0  0  0  0  0  0  0  0
    8.5004   -3.7861  -53.2712 H   0  0  0  0  0  0  0  0  0  0  0  0
   10.1169   -3.9853  -54.8624 H   0  0  0  0  0  0  0  0  0  0  0  0
    9.0794   -2.7068  -55.5807 H   0  0  0  0  0  0  0  0  0  0  0  0
   10.8658   -2.5190  -55.5807 H   0  0  0  0  0  0  0  0  0  0  0  0
   11.4160   -1.2440  -52.7720 H   0  0  0  0  0  0  0  0  0  0  0  0
    9.3723   -0.2827  -52.8273 H   0  0  0  0  0  0  0  0  0  0  0  0
   10.1801   -0.2409  -54.4760 H   0  0  0  0  0  0  0  0  0  0  0  0
    7.9653   -1.4552  -55.1919 H   0  0  0  0  0  0  0  0  0  0  0  0
    7.4849    0.5599  -56.2802 H   0  0  0  0  0  0  0  0  0  0  0  0
    7.5311    1.5109  -54.7594 H   0  0  0  0  0  0  0  0  0  0  0  0
   10.0080    0.3610  -55.8710 H   0  0  0  0  0  0  0  0  0  0  0  0
    7.7212    2.9562  -56.4551 H   0  0  0  0  0  0  0  0  0  0  0  0
    8.2732    5.0318  -57.8396 H   0  0  0  0  0  0  0  0  0  0  0  0
   10.4700    6.2660  -59.1440 H   0  0  0  0  0  0  0  0  0  0  0  0
   14.0300    5.4750  -59.4890 H   0  0  0  0  0  0  0  0  0  0  0  0
   13.5372    3.4259  -58.0320 H   0  0  0  0  0  0  0  0  0  0  0  0
   11.7120    1.7770  -56.6720 H   0  0  0  0  0  0  0  0  0  0  0  0
  1  2  1  0
  2  3  1  0
  3  4  1  0
  4  5  1  0
  4  6  1  0
  6  7  1  0
  7  8  1  0
  7  9  1  1
  7 10  1  0
 10 11  1  0
 11 12  1  0
 12 13  1  0
 13 14  1  0
 14 15  2  0
 15 16  1  0
 16 17  2  0
 17 18  1  0
 18 19  1  0
 19 20  2  3
 19 21  1  0
 21 22  2  0
 22 23  1  0
 11  2  1  0
 23 14  1  0
 22 17  1  0
  1 24  1  0
  1 25  1  0
  1 26  1  0
  2 27  1  1
  3 28  1  0
  3 29  1  0
  4 30  1  1
  5 31  1  0
  5 32  1  0
  5 33  1  0
  6 34  1  0
  6 35  1  0
  8 36  1  0
  8 37  1  0
  8 38  1  0
  9 39  1  0
 10 40  1  0
 10 41  1  0
 11 42  1  6
 12 43  1  0
 12 44  1  0
 13 45  1  0
 15 46  1  0
 16 47  1  0
 18 48  1  0
 20 49  1  0
 21 50  1  0
 23 51  1  0
M  CHG  1   4   1
M  END
>  <meeko>  (95) 
{"is_sidechain": false}

$$$$

     RDKit          3D

 51 53  0  0  0  0  0  0  0  0999 V2000
    9.1980    4.8240  -56.4040 C   0  0  0  0  0  0  0  0  0  0  0  0
   10.3930    4.0610  -56.9970 C   0  0  2  0  0  0  0  0  0  0  0  0
   11.2120    4.9730  -57.9340 C   0  0  0  0  0  0  0  0  0  0  0  0
   11.0420    4.7410  -59.4030 N   0  0  2  0  0  0  0  0  0  0  0  0
   11.9190    5.6600  -60.2100 C   0  0  0  0  0  0  0  0  0  0  0  0
    9.6210    4.7030  -59.9260 C   0  0  0  0  0  0  0  0  0  0  0  0
    9.1730    3.2200  -59.9620 C   0  0  1  0  0  0  0  0  0  0  0  0
    7.9410    3.0770  -60.8590 C   0  0  0  0  0  0  0  0  0  0  0  0
   10.2690    2.4830  -60.5470 O   0  0  0  0  0  0  0  0  0  0  0  0
    8.8940    2.6150  -58.5760 C   0  0  0  0  0  0  0  0  0  0  0  0
   10.0730    2.6520  -57.5750 C   0  0  2  0  0  0  0  0  0  0  0  0
    9.8710    1.5970  -56.4530 C   0  0  0  0  0  0  0  0  0  0  0  0
    8.4640    1.3500  -56.1970 N   0  0  0  0  0  0  0  0  0  0  0  0
    7.9720    0.4350  -55.2790 C   0  0  0  0  0  0  0  0  0  0  0  0
    6.6290    0.2900  -55.1260 C   0  0  0  0  0  0  0  0  0  0  0  0
    6.0680   -0.6510  -54.1610 C   0  0  0  0  0  0  0  0  0  0  0  0
    6.8970   -1.3720  -53.3970 C   0  0  0  0  0  0  0  0  0  0  0  0
    6.7110   -2.2950  -52.4210 N   0  0  0  0  0  0  0  0  0  0  0  0
    7.9150   -2.7090  -51.9380 C   0  0  0  0  0  0  0  0  0  0  0  0
    8.0810   -3.5700  -50.9980 N   0  0  0  0  0  0  0  0  0  0  0  0
    9.0070   -2.0040  -52.6660 C   0  0  0  0  0  0  0  0  0  0  0  0
    8.3520   -1.2140  -53.5370 C   0  0  0  0  0  0  0  0  0  0  0  0
    8.8080   -0.3290  -54.4820 N   0  0  0  0  0  0  0  0  0  0  0  0
    9.2502    4.7907  -55.3057 H   0  0  0  0  0  0  0  0  0  0  0  0
    9.2276    5.8707  -56.7409 H   0  0  0  0  0  0  0  0  0  0  0  0
    8.2609    4.3567  -56.7409 H   0  0  0  0  0  0  0  0  0  0  0  0
   11.0412    3.8000  -56.1475 H   0  0  0  0  0  0  0  0  0  0  0  0
   10.9243    6.0137  -57.7239 H   0  0  0  0  0  0  0  0  0  0  0  0
   12.2658    4.7404  -57.7211 H   0  0  0  0  0  0  0  0  0  0  0  0
   11.3890    3.7870  -59.6260 H   0  0  0  0  0  0  0  0  0  0  0  0
   12.5166    6.2862  -59.5312 H   0  0  0  0  0  0  0  0  0  0  0  0
   12.5905    5.0627  -60.8443 H   0  0  0  0  0  0  0  0  0  0  0  0
   11.2909    6.3028  -60.8443 H   0  0  0  0  0  0  0  0  0  0  0  0
    8.9609    5.2779  -59.2599 H   0  0  0  0  0  0  0  0  0  0  0  0
    9.5679    5.1465  -60.9312 H   0  0  0  0  0  0  0  0  0  0  0  0
    7.0422    2.9727  -60.2335 H   0  0  0  0  0  0  0  0  0  0  0  0
    7.8442    3.9699  -61.4941 H   0  0  0  0  0  0  0  0  0  0  0  0
    8.0513    2.1856  -61.4941 H   0  0  0  0  0  0  0  0  0  0  0  0
   11.1040    2.8570  -60.1960 H   0  0  0  0  0  0  0  0  0  0  0  0
    8.0546    3.1680  -58.1292 H   0  0  0  0  0  0  0  0  0  0  0  0
    8.6851    1.5495  -58.7519 H   0  0  0  0  0  0  0  0  0  0  0  0
   10.9681    2.3882  -58.1575 H   0  0  0  0  0  0  0  0  0  0  0  0
   10.3486    0.6546  -56.7593 H   0  0  0  0  0  0  0  0  0  0  0  0
   10.3248    1.9864  -55.5297 H   0  0  0  0  0  0  0  0  0  0  0  0
    7.9020    1.3430  -57.0460 H   0  0  0  0  0  0  0  0  0  0  0  0
    5.9493    0.8956  -55.7435 H   0  0  0  0  0  0  0  0  0  0  0  0
    4.9784   -0.7658  -54.0632 H   0  0  0  0  0  0  0  0  0  0  0  0
    5.8210   -2.6130  -52.0800 H   0  0  0  0  0  0  0  0  0  0  0  0
    9.0760   -3.7160  -50.8120 H   0  0  0  0  0  0  0  0  0  0  0  0
   10.0932   -2.1053  -52.5249 H   0  0  0  0  0  0  0  0  0  0  0  0
    9.7950   -0.1370  -54.5090 H   0  0  0  0  0  0  0  0  0  0  0  0
  1  2  1  0
  2  3  1  0
  3  4  1  0
  4  5  1  0
  4  6  1  0
  6  7  1  0
  7  8  1  0
  7  9  1  6
  7 10  1  0
 10 11  1  0
 11 12  1  0
 12 13  1  0
 13 14  1  0
 14 15  2  0
 15 16  1  0
 16 17  2  0
 17 18  1  0
 18 19  1  0
 19 20  2  3
 19 21  1  0
 21 22  2  0
 22 23  1  0
 11  2  1  0
 23 14  1  0
 22 17  1  0
  1 24  1  0
  1 25  1  0
  1 26  1  0
  2 27  1  1
  3 28  1  0
  3 29  1  0
  4 30  1  1
  5 31  1  0
  5 32  1  0
  5 33  1  0
  6 34  1  0
  6 35  1  0
  8 36  1  0
  8 37  1  0
  8 38  1  0
  9 39  1  0
 10 40  1  0
 10 41  1  0
 11 42  1  6
 12 43  1  0
 12 44  1  0
 13 45  1  0
 15 46  1  0
 16 47  1  0
 18 48  1  0
 20 49  1  0
 21 50  1  0
 23 51  1  0
M  CHG  1   4   1
M  END
>  <meeko>  (96) 
{"is_sidechain": false}

$$$$

     RDKit          3D

 51 53  0  0  0  0  0  0  0  0999 V2000
    4.5070    2.5130  -58.3560 C   0  0  0  0  0  0  0  0  0  0  0  0
    5.8090    1.7410  -58.6250 C   0  0  1  0  0  0  0  0  0  0  0  0
    5.7250    1.2500  -60.0830 C   0  0  0  0  0  0  0  0  0  0  0  0
    5.8550    2.3180  -61.1220 N   0  0  2  0  0  0  0  0  0  0  0  0
    4.7530    2.2410  -62.1400 C   0  0  0  0  0  0  0  0  0  0  0  0
    7.2240    2.4720  -61.7520 C   0  0  0  0  0  0  0  0  0  0  0  0
    8.2020    3.0100  -60.6520 C   0  0  1  0  0  0  0  0  0  0  0  0
    9.6140    3.1230  -61.2320 C   0  0  0  0  0  0  0  0  0  0  0  0
    7.7290    4.3300  -60.3070 O   0  0  0  0  0  0  0  0  0  0  0  0
    8.2220    2.1740  -59.3600 C   0  0  0  0  0  0  0  0  0  0  0  0
    7.1330    2.5070  -58.3010 C   0  0  2  0  0  0  0  0  0  0  0  0
    7.7280    2.1810  -56.9050 C   0  0  0  0  0  0  0  0  0  0  0  0
    8.6410    3.2400  -56.5040 N   0  0  0  0  0  0  0  0  0  0  0  0
    9.8850    3.4860  -57.0560 C   0  0  0  0  0  0  0  0  0  0  0  0
   10.9800    2.7100  -56.8480 C   0  0  0  0  0  0  0  0  0  0  0  0
   12.2670    3.0250  -57.4630 C   0  0  0  0  0  0  0  0  0  0  0  0
   12.3740    4.1140  -58.2350 C   0  0  0  0  0  0  0  0  0  0  0  0
   13.3990    4.6850  -58.9190 N   0  0  0  0  0  0  0  0  0  0  0  0
   12.9630    5.8300  -59.5220 C   0  0  0  0  0  0  0  0  0  0  0  0
   13.6420    6.6510  -60.2370 N   0  0  0  0  0  0  0  0  0  0  0  0
   11.5190    6.0270  -59.2270 C   0  0  0  0  0  0  0  0  0  0  0  0
   11.2010    4.9720  -58.4580 C   0  0  0  0  0  0  0  0  0  0  0  0
   10.0170    4.5970  -57.8740 N   0  0  0  0  0  0  0  0  0  0  0  0
    4.3526    2.6046  -57.2708 H   0  0  0  0  0  0  0  0  0  0  0  0
    4.5765    3.5159  -58.8024 H   0  0  0  0  0  0  0  0  0  0  0  0
    3.6604    1.9708  -58.8024 H   0  0  0  0  0  0  0  0  0  0  0  0
    5.8773    0.8994  -57.9200 H   0  0  0  0  0  0  0  0  0  0  0  0
    6.5314    0.5192  -60.2432 H   0  0  0  0  0  0  0  0  0  0  0  0
    4.7175    0.8256  -60.2051 H   0  0  0  0  0  0  0  0  0  0  0  0
    5.7180    3.2370  -60.6550 H   0  0  0  0  0  0  0  0  0  0  0  0
    3.7829    2.1732  -61.6258 H   0  0  0  0  0  0  0  0  0  0  0  0
    4.7720    3.1427  -62.7698 H   0  0  0  0  0  0  0  0  0  0  0  0
    4.8972    1.3507  -62.7698 H   0  0  0  0  0  0  0  0  0  0  0  0
    7.5769    1.4981  -62.1221 H   0  0  0  0  0  0  0  0  0  0  0  0
    7.1793    3.1709  -62.6003 H   0  0  0  0  0  0  0  0  0  0  0  0
   10.3440    3.1814  -60.4112 H   0  0  0  0  0  0  0  0  0  0  0  0
    9.8280    2.2391  -61.8508 H   0  0  0  0  0  0  0  0  0  0  0  0
    9.6847    4.0297  -61.8508 H   0  0  0  0  0  0  0  0  0  0  0  0
    8.4110    4.7600  -59.7500 H   0  0  0  0  0  0  0  0  0  0  0  0
    8.1008    1.1181  -59.6433 H   0  0  0  0  0  0  0  0  0  0  0  0
    9.1809    2.4099  -58.8755 H   0  0  0  0  0  0  0  0  0  0  0  0
    6.8571    3.5718  -58.3140 H   0  0  0  0  0  0  0  0  0  0  0  0
    6.9139    2.1017  -56.1696 H   0  0  0  0  0  0  0  0  0  0  0  0
    8.2740    1.2274  -56.9544 H   0  0  0  0  0  0  0  0  0  0  0  0
    8.1750    4.1290  -56.3400 H   0  0  0  0  0  0  0  0  0  0  0  0
   10.8958    1.8240  -56.2016 H   0  0  0  0  0  0  0  0  0  0  0  0
   13.1383    2.3751  -57.2939 H   0  0  0  0  0  0  0  0  0  0  0  0
   14.3360    4.3220  -58.9210 H   0  0  0  0  0  0  0  0  0  0  0  0
   14.6080    6.3210  -60.3100 H   0  0  0  0  0  0  0  0  0  0  0  0
   10.8640    6.8454  -59.5605 H   0  0  0  0  0  0  0  0  0  0  0  0
    9.2480    5.2470  -57.9250 H   0  0  0  0  0  0  0  0  0  0  0  0
  1  2  1  0
  2  3  1  0
  3  4  1  0
  4  5  1  0
  4  6  1  0
  6  7  1  0
  7  8  1  0
  7  9  1  1
  7 10  1  0
 10 11  1  0
 11 12  1  0
 12 13  1  0
 13 14  1  0
 14 15  2  0
 15 16  1  0
 16 17  2  0
 17 18  1  0
 18 19  1  0
 19 20  2  3
 19 21  1  0
 21 22  2  0
 22 23  1  0
 11  2  1  0
 23 14  1  0
 22 17  1  0
  1 24  1  0
  1 25  1  0
  1 26  1  0
  2 27  1  1
  3 28  1  0
  3 29  1  0
  4 30  1  1
  5 31  1  0
  5 32  1  0
  5 33  1  0
  6 34  1  0
  6 35  1  0
  8 36  1  0
  8 37  1  0
  8 38  1  0
  9 39  1  0
 10 40  1  0
 10 41  1  0
 11 42  1  1
 12 43  1  0
 12 44  1  0
 13 45  1  0
 15 46  1  0
 16 47  1  0
 18 48  1  0
 20 49  1  0
 21 50  1  0
 23 51  1  0
M  CHG  1   4   1
M  END
>  <meeko>  (97) 
{"is_sidechain": false}

$$$$

     RDKit          3D

 51 53  0  0  0  0  0  0  0  0999 V2000
    6.5580    0.4830  -52.5740 C   0  0  0  0  0  0  0  0  0  0  0  0
    6.6770   -0.8600  -53.2980 C   0  0  2  0  0  0  0  0  0  0  0  0
    6.7410   -2.0680  -52.3610 C   0  0  0  0  0  0  0  0  0  0  0  0
    8.0060   -2.2060  -51.5600 N   0  0  1  0  0  0  0  0  0  0  0  0
    7.6630   -2.7200  -50.1770 C   0  0  0  0  0  0  0  0  0  0  0  0
    9.1720   -2.9800  -52.1440 C   0  0  0  0  0  0  0  0  0  0  0  0
    9.6410   -2.5550  -53.5650 C   0  0  1  0  0  0  0  0  0  0  0  0
   11.1790   -2.6180  -53.5890 C   0  0  0  0  0  0  0  0  0  0  0  0
    9.1580   -3.4630  -54.5560 O   0  0  0  0  0  0  0  0  0  0  0  0
    9.2060   -1.1150  -53.8980 C   0  0  0  0  0  0  0  0  0  0  0  0
    7.7660   -0.9190  -54.4060 C   0  0  2  0  0  0  0  0  0  0  0  0
    7.7300    0.3280  -55.3250 C   0  0  0  0  0  0  0  0  0  0  0  0
    9.0850    0.7220  -55.6670 N   0  0  0  0  0  0  0  0  0  0  0  0
    9.4340    1.8730  -56.3530 C   0  0  0  0  0  0  0  0  0  0  0  0
    8.5140    2.8560  -56.5400 C   0  0  0  0  0  0  0  0  0  0  0  0
    8.8450    4.0890  -57.2480 C   0  0  0  0  0  0  0  0  0  0  0  0
   10.0920    4.2640  -57.7050 C   0  0  0  0  0  0  0  0  0  0  0  0
   10.7170    5.2700  -58.3710 N   0  0  0  0  0  0  0  0  0  0  0  0
   12.0260    4.9390  -58.5720 C   0  0  0  0  0  0  0  0  0  0  0  0
   12.9340    5.6370  -59.1490 N   0  0  0  0  0  0  0  0  0  0  0  0
   12.2900    3.5920  -58.0010 C   0  0  0  0  0  0  0  0  0  0  0  0
   11.1030    3.2170  -57.4950 C   0  0  0  0  0  0  0  0  0  0  0  0
   10.7130    2.0750  -56.8440 N   0  0  0  0  0  0  0  0  0  0  0  0
    6.5728    0.3160  -51.4868 H   0  0  0  0  0  0  0  0  0  0  0  0
    7.4025    1.1284  -52.8574 H   0  0  0  0  0  0  0  0  0  0  0  0
    5.6132    0.9699  -52.8574 H   0  0  0  0  0  0  0  0  0  0  0  0
    5.7197   -0.9323  -53.8350 H   0  0  0  0  0  0  0  0  0  0  0  0
    5.9006   -1.9931  -51.6552 H   0  0  0  0  0  0  0  0  0  0  0  0
    6.6999   -2.9542  -53.0113 H   0  0  0  0  0  0  0  0  0  0  0  0
    8.3520   -1.2510  -51.4110 H   0  0  0  0  0  0  0  0  0  0  0  0
    8.1056   -2.0568  -49.4192 H   0  0  0  0  0  0  0  0  0  0  0  0
    6.5701   -2.7397  -50.0538 H   0  0  0  0  0  0  0  0  0  0  0  0
    8.0643   -3.7368  -50.0538 H   0  0  0  0  0  0  0  0  0  0  0  0
   10.0264   -2.8643  -51.4609 H   0  0  0  0  0  0  0  0  0  0  0  0
    8.8122   -4.0139  -52.2517 H   0  0  0  0  0  0  0  0  0  0  0  0
   11.5615   -2.6337  -52.5578 H   0  0  0  0  0  0  0  0  0  0  0  0
   11.5005   -3.5301  -54.1132 H   0  0  0  0  0  0  0  0  0  0  0  0
   11.5740   -1.7353  -54.1132 H   0  0  0  0  0  0  0  0  0  0  0  0
    8.7680   -2.9460  -55.2880 H   0  0  0  0  0  0  0  0  0  0  0  0
    9.3198   -0.5143  -52.9836 H   0  0  0  0  0  0  0  0  0  0  0  0
    9.8486   -0.8096  -54.7369 H   0  0  0  0  0  0  0  0  0  0  0  0
    7.4987   -1.8225  -54.9737 H   0  0  0  0  0  0  0  0  0  0  0  0
    7.1754    0.0890  -56.2444 H   0  0  0  0  0  0  0  0  0  0  0  0
    7.2317    1.1551  -54.7981 H   0  0  0  0  0  0  0  0  0  0  0  0
    9.7570    0.5150  -54.9290 H   0  0  0  0  0  0  0  0  0  0  0  0
    7.4953    2.7191  -56.1483 H   0  0  0  0  0  0  0  0  0  0  0  0
    8.0804    4.8643  -57.4042 H   0  0  0  0  0  0  0  0  0  0  0  0
   10.2620    6.1280  -58.6340 H   0  0  0  0  0  0  0  0  0  0  0  0
   12.5350    6.5240  -59.4640 H   0  0  0  0  0  0  0  0  0  0  0  0
   13.2370    3.0324  -57.9943 H   0  0  0  0  0  0  0  0  0  0  0  0
   11.4240    1.4010  -56.6210 H   0  0  0  0  0  0  0  0  0  0  0  0
  1  2  1  0
  2  3  1  0
  3  4  1  0
  4  5  1  0
  4  6  1  0
  6  7  1  0
  7  8  1  0
  7  9  1  6
  7 10  1  0
 10 11  1  0
 11 12  1  0
 12 13  1  0
 13 14  1  0
 14 15  2  0
 15 16  1  0
 16 17  2  0
 17 18  1  0
 18 19  1  0
 19 20  2  3
 19 21  1  0
 21 22  2  0
 22 23  1  0
 11  2  1  0
 23 14  1  0
 22 17  1  0
  1 24  1  0
  1 25  1  0
  1 26  1  0
  2 27  1  6
  3 28  1  0
  3 29  1  0
  4 30  1  1
  5 31  1  0
  5 32  1  0
  5 33  1  0
  6 34  1  0
  6 35  1  0
  8 36  1  0
  8 37  1  0
  8 38  1  0
  9 39  1  0
 10 40  1  0
 10 41  1  0
 11 42  1  6
 12 43  1  0
 12 44  1  0
 13 45  1  0
 15 46  1  0
 16 47  1  0
 18 48  1  0
 20 49  1  0
 21 50  1  0
 23 51  1  0
M  CHG  1   4   1
M  END
>  <meeko>  (98) 
{"is_sidechain": false}

$$$$

     RDKit          3D

 51 53  0  0  0  0  0  0  0  0999 V2000
    5.6100    2.2340  -56.4850 C   0  0  0  0  0  0  0  0  0  0  0  0
    6.2080    1.8140  -57.8420 C   0  0  1  0  0  0  0  0  0  0  0  0
    5.1260    2.1400  -58.8860 C   0  0  0  0  0  0  0  0  0  0  0  0
    5.3930    1.7390  -60.3040 N   0  0  1  0  0  0  0  0  0  0  0  0
    4.1920    1.1280  -60.9860 C   0  0  0  0  0  0  0  0  0  0  0  0
    6.2150    2.6660  -61.1710 C   0  0  0  0  0  0  0  0  0  0  0  0
    7.6960    2.8510  -60.7440 C   0  0  1  0  0  0  0  0  0  0  0  0
    8.5850    2.4800  -61.9450 C   0  0  0  0  0  0  0  0  0  0  0  0
    7.9690    4.2250  -60.4360 O   0  0  0  0  0  0  0  0  0  0  0  0
    8.1050    1.9880  -59.5450 C   0  0  0  0  0  0  0  0  0  0  0  0
    7.6020    2.4390  -58.1510 C   0  0  2  0  0  0  0  0  0  0  0  0
    8.7030    2.1250  -57.1000 C   0  0  0  0  0  0  0  0  0  0  0  0
    9.9980    1.9210  -57.7340 N   0  0  0  0  0  0  0  0  0  0  0  0
   10.9050    2.9370  -57.9990 C   0  0  0  0  0  0  0  0  0  0  0  0
   12.0270    3.0620  -57.2410 C   0  0  0  0  0  0  0  0  0  0  0  0
   12.9990    4.1230  -57.4840 C   0  0  0  0  0  0  0  0  0  0  0  0
   12.7690    5.0080  -58.4610 C   0  0  0  0  0  0  0  0  0  0  0  0
   13.4410    6.0970  -58.9230 N   0  0  0  0  0  0  0  0  0  0  0  0
   12.7290    6.6760  -59.9330 C   0  0  0  0  0  0  0  0  0  0  0  0
   13.0290    7.7280  -60.6050 N   0  0  0  0  0  0  0  0  0  0  0  0
   11.4880    5.8960  -60.1770 C   0  0  0  0  0  0  0  0  0  0  0  0
   11.5510    4.8990  -59.2780 C   0  0  0  0  0  0  0  0  0  0  0  0
   10.6980    3.8590  -59.0140 N   0  0  0  0  0  0  0  0  0  0  0  0
    6.2150    1.8091  -55.6705 H   0  0  0  0  0  0  0  0  0  0  0  0
    5.6103    3.3313  -56.4080 H   0  0  0  0  0  0  0  0  0  0  0  0
    4.5779    1.8613  -56.4080 H   0  0  0  0  0  0  0  0  0  0  0  0
    6.4468    0.7402  -57.8464 H   0  0  0  0  0  0  0  0  0  0  0  0
    4.2002    1.6371  -58.5697 H   0  0  0  0  0  0  0  0  0  0  0  0
    5.0791    3.2388  -58.9086 H   0  0  0  0  0  0  0  0  0  0  0  0
    6.0140    0.9260  -60.2080 H   0  0  0  0  0  0  0  0  0  0  0  0
    3.4830    0.7673  -60.2263 H   0  0  0  0  0  0  0  0  0  0  0  0
    3.7019    1.8863  -61.6142 H   0  0  0  0  0  0  0  0  0  0  0  0
    4.5164    0.2853  -61.6142 H   0  0  0  0  0  0  0  0  0  0  0  0
    6.2062    2.2664  -62.1958 H   0  0  0  0  0  0  0  0  0  0  0  0
    5.7493    3.6579  -61.0747 H   0  0  0  0  0  0  0  0  0  0  0  0
    9.5433    2.0801  -61.5821 H   0  0  0  0  0  0  0  0  0  0  0  0
    8.0775    1.7186  -62.5555 H   0  0  0  0  0  0  0  0  0  0  0  0
    8.7693    3.3763  -62.5555 H   0  0  0  0  0  0  0  0  0  0  0  0
    8.5030    4.2600  -59.6180 H   0  0  0  0  0  0  0  0  0  0  0  0
    7.7243    0.9713  -59.7224 H   0  0  0  0  0  0  0  0  0  0  0  0
    9.2008    2.0699  -59.4940 H   0  0  0  0  0  0  0  0  0  0  0  0
    7.4334    3.5256  -58.1202 H   0  0  0  0  0  0  0  0  0  0  0  0
    8.7773    2.9674  -56.3965 H   0  0  0  0  0  0  0  0  0  0  0  0
    8.4255    1.2004  -56.5726 H   0  0  0  0  0  0  0  0  0  0  0  0
    9.9610    1.2750  -58.5190 H   0  0  0  0  0  0  0  0  0  0  0  0
   12.2062    2.3463  -56.4252 H   0  0  0  0  0  0  0  0  0  0  0  0
   13.9098    4.1944  -56.8714 H   0  0  0  0  0  0  0  0  0  0  0  0
   14.3030    6.4260  -58.5260 H   0  0  0  0  0  0  0  0  0  0  0  0
   13.9220    8.1020  -60.2730 H   0  0  0  0  0  0  0  0  0  0  0  0
   10.7008    6.0896  -60.9205 H   0  0  0  0  0  0  0  0  0  0  0  0
    9.8110    3.8530  -59.4890 H   0  0  0  0  0  0  0  0  0  0  0  0
  1  2  1  0
  2  3  1  0
  3  4  1  0
  4  5  1  0
  4  6  1  0
  6  7  1  0
  7  8  1  0
  7  9  1  1
  7 10  1  0
 10 11  1  0
 11 12  1  0
 12 13  1  0
 13 14  1  0
 14 15  2  0
 15 16  1  0
 16 17  2  0
 17 18  1  0
 18 19  1  0
 19 20  2  3
 19 21  1  0
 21 22  2  0
 22 23  1  0
 11  2  1  0
 23 14  1  0
 22 17  1  0
  1 24  1  0
  1 25  1  0
  1 26  1  0
  2 27  1  1
  3 28  1  0
  3 29  1  0
  4 30  1  1
  5 31  1  0
  5 32  1  0
  5 33  1  0
  6 34  1  0
  6 35  1  0
  8 36  1  0
  8 37  1  0
  8 38  1  0
  9 39  1  0
 10 40  1  0
 10 41  1  0
 11 42  1  6
 12 43  1  0
 12 44  1  0
 13 45  1  0
 15 46  1  0
 16 47  1  0
 18 48  1  0
 20 49  1  0
 21 50  1  0
 23 51  1  0
M  CHG  1   4   1
M  END
>  <meeko>  (99) 
{"is_sidechain": false}

$$$$

     RDKit          3D

 51 53  0  0  0  0  0  0  0  0999 V2000
    5.9700    0.9690  -59.8410 C   0  0  0  0  0  0  0  0  0  0  0  0
    6.8660    2.1260  -59.3580 C   0  0  2  0  0  0  0  0  0  0  0  0
    8.0780    2.1830  -60.3030 C   0  0  0  0  0  0  0  0  0  0  0  0
    9.0590    3.2350  -59.8480 N   0  0  2  0  0  0  0  0  0  0  0  0
    9.8730    3.7730  -61.0020 C   0  0  0  0  0  0  0  0  0  0  0  0
    9.9780    2.7930  -58.7260 C   0  0  0  0  0  0  0  0  0  0  0  0
    9.4670    3.1590  -57.3090 C   0  0  2  0  0  0  0  0  0  0  0  0
   10.0530    4.5340  -56.9480 C   0  0  0  0  0  0  0  0  0  0  0  0
   10.0000    2.2140  -56.3760 O   0  0  0  0  0  0  0  0  0  0  0  0
    7.9330    3.1790  -57.1970 C   0  0  0  0  0  0  0  0  0  0  0  0
    7.1830    1.9770  -57.8390 C   0  0  1  0  0  0  0  0  0  0  0  0
    5.8710    1.7320  -57.0360 C   0  0  0  0  0  0  0  0  0  0  0  0
    6.1810    1.5100  -55.6330 N   0  0  0  0  0  0  0  0  0  0  0  0
    6.7180    0.3540  -55.0970 C   0  0  0  0  0  0  0  0  0  0  0  0
    5.9780   -0.6690  -54.5980 C   0  0  0  0  0  0  0  0  0  0  0  0
    6.6070   -1.8680  -54.0460 C   0  0  0  0  0  0  0  0  0  0  0  0
    7.9430   -1.9500  -54.0180 C   0  0  0  0  0  0  0  0  0  0  0  0
    8.8180   -2.8890  -53.5710 N   0  0  0  0  0  0  0  0  0  0  0  0
   10.0960   -2.4440  -53.7550 C   0  0  0  0  0  0  0  0  0  0  0  0
   11.1890   -3.0420  -53.4460 N   0  0  0  0  0  0  0  0  0  0  0  0
   10.0680   -1.1030  -54.3940 C   0  0  0  0  0  0  0  0  0  0  0  0
    8.7570   -0.8430  -54.5420 C   0  0  0  0  0  0  0  0  0  0  0  0
    8.0980    0.2360  -55.0700 N   0  0  0  0  0  0  0  0  0  0  0  0
    5.5578    0.4367  -58.9711 H   0  0  0  0  0  0  0  0  0  0  0  0
    5.1462    1.3721  -60.4483 H   0  0  0  0  0  0  0  0  0  0  0  0
    6.5664    0.2723  -60.4483 H   0  0  0  0  0  0  0  0  0  0  0  0
    6.3695    3.1060  -59.4144 H   0  0  0  0  0  0  0  0  0  0  0  0
    8.5770    1.2027  -60.3100 H   0  0  0  0  0  0  0  0  0  0  0  0
    7.7272    2.4395  -61.3135 H   0  0  0  0  0  0  0  0  0  0  0  0
    8.5220    4.0370  -59.5010 H   0  0  0  0  0  0  0  0  0  0  0  0
   10.7312    4.3402  -60.6124 H   0  0  0  0  0  0  0  0  0  0  0  0
   10.2354    2.9359  -61.6168 H   0  0  0  0  0  0  0  0  0  0  0  0
    9.2449    4.4345  -61.6168 H   0  0  0  0  0  0  0  0  0  0  0  0
   10.0901    1.7001  -58.7814 H   0  0  0  0  0  0  0  0  0  0  0  0
   10.9303    3.3251  -58.8674 H   0  0  0  0  0  0  0  0  0  0  0  0
   10.0973    4.6379  -55.8538 H   0  0  0  0  0  0  0  0  0  0  0  0
   11.0667    4.6218  -57.3660 H   0  0  0  0  0  0  0  0  0  0  0  0
    9.4142    5.3260  -57.3660 H   0  0  0  0  0  0  0  0  0  0  0  0
    9.6910    2.4550  -55.4800 H   0  0  0  0  0  0  0  0  0  0  0  0
    7.6746    3.2039  -56.1281 H   0  0  0  0  0  0  0  0  0  0  0  0
    7.6076    4.0652  -57.7616 H   0  0  0  0  0  0  0  0  0  0  0  0
    7.8653    1.1160  -57.7831 H   0  0  0  0  0  0  0  0  0  0  0  0
    5.2169    2.6114  -57.1298 H   0  0  0  0  0  0  0  0  0  0  0  0
    5.3619    0.8438  -57.4383 H   0  0  0  0  0  0  0  0  0  0  0  0
    6.6110    2.3140  -55.1830 H   0  0  0  0  0  0  0  0  0  0  0  0
    4.8806   -0.5942  -54.6092 H   0  0  0  0  0  0  0  0  0  0  0  0
    5.9902   -2.6923  -53.6586 H   0  0  0  0  0  0  0  0  0  0  0  0
    8.5360   -3.7510  -53.1380 H   0  0  0  0  0  0  0  0  0  0  0  0
   10.9740   -3.9470  -53.0210 H   0  0  0  0  0  0  0  0  0  0  0  0
   10.9212   -0.4701  -54.6796 H   0  0  0  0  0  0  0  0  0  0  0  0
    8.6500    1.0420  -55.3240 H   0  0  0  0  0  0  0  0  0  0  0  0
  1  2  1  0
  2  3  1  0
  3  4  1  0
  4  5  1  0
  4  6  1  0
  6  7  1  0
  7  8  1  0
  7  9  1  1
  7 10  1  0
 10 11  1  0
 11 12  1  0
 12 13  1  0
 13 14  1  0
 14 15  2  0
 15 16  1  0
 16 17  2  0
 17 18  1  0
 18 19  1  0
 19 20  2  3
 19 21  1  0
 21 22  2  0
 22 23  1  0
 11  2  1  0
 23 14  1  0
 22 17  1  0
  1 24  1  0
  1 25  1  0
  1 26  1  0
  2 27  1  1
  3 28  1  0
  3 29  1  0
  4 30  1  1
  5 31  1  0
  5 32  1  0
  5 33  1  0
  6 34  1  0
  6 35  1  0
  8 36  1  0
  8 37  1  0
  8 38  1  0
  9 39  1  0
 10 40  1  0
 10 41  1  0
 11 42  1  6
 12 43  1  0
 12 44  1  0
 13 45  1  0
 15 46  1  0
 16 47  1  0
 18 48  1  0
 20 49  1  0
 21 50  1  0
 23 51  1  0
M  CHG  1   4   1
M  END
>  <meeko>  (100) 
{"is_sidechain": false}

$$$$

     RDKit          3D

 51 53  0  0  0  0  0  0  0  0999 V2000
   10.3320    4.1220  -56.1900 C   0  0  0  0  0  0  0  0  0  0  0  0
    9.2070    4.5650  -57.1410 C   0  0  1  0  0  0  0  0  0  0  0  0
    9.7000    5.5990  -58.1660 C   0  0  0  0  0  0  0  0  0  0  0  0
   10.6630    4.9920  -59.1590 N   0  0  2  0  0  0  0  0  0  0  0  0
   11.7770    5.9550  -59.4950 C   0  0  0  0  0  0  0  0  0  0  0  0
   10.0390    4.4550  -60.4300 C   0  0  0  0  0  0  0  0  0  0  0  0
    9.1570    3.1740  -60.2590 C   0  0  2  0  0  0  0  0  0  0  0  0
    9.6560    2.1350  -61.2770 C   0  0  0  0  0  0  0  0  0  0  0  0
    7.8090    3.5010  -60.6210 O   0  0  0  0  0  0  0  0  0  0  0  0
    9.1740    2.5750  -58.8380 C   0  0  0  0  0  0  0  0  0  0  0  0
    8.4090    3.3830  -57.7620 C   0  0  1  0  0  0  0  0  0  0  0  0
    7.8610    2.4030  -56.6920 C   0  0  0  0  0  0  0  0  0  0  0  0
    6.9920    1.4210  -57.3190 N   0  0  0  0  0  0  0  0  0  0  0  0
    5.8820    1.7020  -58.0940 C   0  0  0  0  0  0  0  0  0  0  0  0
    4.7920    2.3750  -57.6430 C   0  0  0  0  0  0  0  0  0  0  0  0
    3.6470    2.6430  -58.5100 C   0  0  0  0  0  0  0  0  0  0  0  0
    3.6820    2.2290  -59.7820 C   0  0  0  0  0  0  0  0  0  0  0  0
    2.8220    2.3250  -60.8250 N   0  0  0  0  0  0  0  0  0  0  0  0
    3.3680    1.7500  -61.9330 C   0  0  0  0  0  0  0  0  0  0  0  0
    2.8100    1.6900  -63.0880 N   0  0  0  0  0  0  0  0  0  0  0  0
    4.7130    1.2060  -61.5930 C   0  0  0  0  0  0  0  0  0  0  0  0
    4.8590    1.5090  -60.2900 C   0  0  0  0  0  0  0  0  0  0  0  0
    5.8860    1.2700  -59.4110 N   0  0  0  0  0  0  0  0  0  0  0  0
   10.0036    4.2513  -55.1482 H   0  0  0  0  0  0  0  0  0  0  0  0
   10.5694    3.0633  -56.3709 H   0  0  0  0  0  0  0  0  0  0  0  0
   11.2275    4.7346  -56.3709 H   0  0  0  0  0  0  0  0  0  0  0  0
    8.4611    5.0842  -56.5213 H   0  0  0  0  0  0  0  0  0  0  0  0
    8.8331    6.0008  -58.7111 H   0  0  0  0  0  0  0  0  0  0  0  0
   10.2287    6.3947  -57.6207 H   0  0  0  0  0  0  0  0  0  0  0  0
   11.1300    4.2000  -58.7060 H   0  0  0  0  0  0  0  0  0  0  0  0
   12.2220    6.3397  -58.5655 H   0  0  0  0  0  0  0  0  0  0  0  0
   12.5475    5.4339  -60.0821 H   0  0  0  0  0  0  0  0  0  0  0  0
   11.3728    6.7928  -60.0821 H   0  0  0  0  0  0  0  0  0  0  0  0
    9.4068    5.2470  -60.8579 H   0  0  0  0  0  0  0  0  0  0  0  0
   10.8783    4.1593  -61.0766 H   0  0  0  0  0  0  0  0  0  0  0  0
   10.0722    1.2684  -60.7424 H   0  0  0  0  0  0  0  0  0  0  0  0
    8.8168    1.8079  -61.9084 H   0  0  0  0  0  0  0  0  0  0  0  0
   10.4360    2.5855  -61.9084 H   0  0  0  0  0  0  0  0  0  0  0  0
    7.5550    4.3330  -60.1750 H   0  0  0  0  0  0  0  0  0  0  0  0
    8.7271    1.5711  -58.8886 H   0  0  0  0  0  0  0  0  0  0  0  0
   10.2280    2.5775  -58.5232 H   0  0  0  0  0  0  0  0  0  0  0  0
    7.5717    3.8875  -58.2664 H   0  0  0  0  0  0  0  0  0  0  0  0
    8.7018    1.8876  -56.2048 H   0  0  0  0  0  0  0  0  0  0  0  0
    7.2871    2.9686  -55.9431 H   0  0  0  0  0  0  0  0  0  0  0  0
    6.7890    0.6250  -56.7200 H   0  0  0  0  0  0  0  0  0  0  0  0
    4.7707    2.7264  -56.6009 H   0  0  0  0  0  0  0  0  0  0  0  0
    2.7676    3.1781  -58.1222 H   0  0  0  0  0  0  0  0  0  0  0  0
    1.9250    2.7810  -60.8050 H   0  0  0  0  0  0  0  0  0  0  0  0
    3.4160    1.2100  -63.7580 H   0  0  0  0  0  0  0  0  0  0  0  0
    5.4200    0.6805  -62.2519 H   0  0  0  0  0  0  0  0  0  0  0  0
    6.7400    0.8830  -59.7800 H   0  0  0  0  0  0  0  0  0  0  0  0
  1  2  1  0
  2  3  1  0
  3  4  1  0
  4  5  1  0
  4  6  1  0
  6  7  1  0
  7  8  1  0
  7  9  1  6
  7 10  1  0
 10 11  1  0
 11 12  1  0
 12 13  1  0
 13 14  1  0
 14 15  2  0
 15 16  1  0
 16 17  2  0
 17 18  1  0
 18 19  1  0
 19 20  2  3
 19 21  1  0
 21 22  2  0
 22 23  1  0
 11  2  1  0
 23 14  1  0
 22 17  1  0
  1 24  1  0
  1 25  1  0
  1 26  1  0
  2 27  1  1
  3 28  1  0
  3 29  1  0
  4 30  1  1
  5 31  1  0
  5 32  1  0
  5 33  1  0
  6 34  1  0
  6 35  1  0
  8 36  1  0
  8 37  1  0
  8 38  1  0
  9 39  1  0
 10 40  1  0
 10 41  1  0
 11 42  1  6
 12 43  1  0
 12 44  1  0
 13 45  1  0
 15 46  1  0
 16 47  1  0
 18 48  1  0
 20 49  1  0
 21 50  1  0
 23 51  1  0
M  CHG  1   4   1
M  END
>  <meeko>  (101) 
{"is_sidechain": false}

$$$$

     RDKit          3D

 51 53  0  0  0  0  0  0  0  0999 V2000
   10.0250    4.5280  -56.0120 C   0  0  0  0  0  0  0  0  0  0  0  0
   10.1310    3.1040  -56.5860 C   0  0  2  0  0  0  0  0  0  0  0  0
   11.4750    2.9650  -57.3190 C   0  0  0  0  0  0  0  0  0  0  0  0
   11.6610    3.9600  -58.4480 N   0  0  1  0  0  0  0  0  0  0  0  0
   13.0190    4.6030  -58.4280 C   0  0  0  0  0  0  0  0  0  0  0  0
   11.2710    3.5200  -59.8480 C   0  0  0  0  0  0  0  0  0  0  0  0
    9.7340    3.3330  -59.9080 C   0  0  2  0  0  0  0  0  0  0  0  0
    9.3110    3.0280  -61.3460 C   0  0  0  0  0  0  0  0  0  0  0  0
    9.1790    4.6180  -59.5410 O   0  0  0  0  0  0  0  0  0  0  0  0
    9.1670    2.3240  -58.8950 C   0  0  0  0  0  0  0  0  0  0  0  0
    8.8660    2.8030  -57.4550 C   0  0  1  0  0  0  0  0  0  0  0  0
    7.8940    1.8830  -56.6810 C   0  0  0  0  0  0  0  0  0  0  0  0
    8.6130    1.1130  -55.6930 N   0  0  0  0  0  0  0  0  0  0  0  0
    8.0770    0.1870  -54.8180 C   0  0  0  0  0  0  0  0  0  0  0  0
    6.7290    0.0280  -54.7600 C   0  0  0  0  0  0  0  0  0  0  0  0
    6.1120   -0.9430  -53.8620 C   0  0  0  0  0  0  0  0  0  0  0  0
    6.8940   -1.6840  -53.0690 C   0  0  0  0  0  0  0  0  0  0  0  0
    6.6510   -2.6350  -52.1340 N   0  0  0  0  0  0  0  0  0  0  0  0
    7.8220   -3.0430  -51.5690 C   0  0  0  0  0  0  0  0  0  0  0  0
    7.9290   -3.9140  -50.6320 N   0  0  0  0  0  0  0  0  0  0  0  0
    8.9550   -2.3140  -52.2070 C   0  0  0  0  0  0  0  0  0  0  0  0
    8.3550   -1.5140  -53.1070 C   0  0  0  0  0  0  0  0  0  0  0  0
    8.8670   -0.6050  -54.0000 N   0  0  0  0  0  0  0  0  0  0  0  0
   10.0285    4.4815  -54.9130 H   0  0  0  0  0  0  0  0  0  0  0  0
   10.8811    5.1268  -56.3564 H   0  0  0  0  0  0  0  0  0  0  0  0
    9.0897    4.9935  -56.3564 H   0  0  0  0  0  0  0  0  0  0  0  0
   10.1351    2.3365  -55.7980 H   0  0  0  0  0  0  0  0  0  0  0  0
   12.2850    3.1125  -56.5895 H   0  0  0  0  0  0  0  0  0  0  0  0
   11.4924    1.9616  -57.7695 H   0  0  0  0  0  0  0  0  0  0  0  0
   10.9830    4.7240  -58.2690 H   0  0  0  0  0  0  0  0  0  0  0  0
   13.3379    4.7540  -57.3861 H   0  0  0  0  0  0  0  0  0  0  0  0
   13.7410    3.9511  -58.9416 H   0  0  0  0  0  0  0  0  0  0  0  0
   12.9723    5.5746  -58.9416 H   0  0  0  0  0  0  0  0  0  0  0  0
   11.5779    4.2868  -60.5745 H   0  0  0  0  0  0  0  0  0  0  0  0
   11.7707    2.5710  -60.0921 H   0  0  0  0  0  0  0  0  0  0  0  0
    8.4188    2.3847  -61.3371 H   0  0  0  0  0  0  0  0  0  0  0  0
    9.0797    3.9685  -61.8675 H   0  0  0  0  0  0  0  0  0  0  0  0
   10.1303    2.5115  -61.8675 H   0  0  0  0  0  0  0  0  0  0  0  0
    9.8650    5.2980  -59.7040 H   0  0  0  0  0  0  0  0  0  0  0  0
    8.2237    1.9420  -59.3125 H   0  0  0  0  0  0  0  0  0  0  0  0
    9.9772    1.5909  -58.7677 H   0  0  0  0  0  0  0  0  0  0  0  0
    8.3600    3.7649  -57.6245 H   0  0  0  0  0  0  0  0  0  0  0  0
    7.1339    2.4990  -56.1783 H   0  0  0  0  0  0  0  0  0  0  0  0
    7.4117    1.1942  -57.3902 H   0  0  0  0  0  0  0  0  0  0  0  0
    9.5800    0.8970  -55.9320 H   0  0  0  0  0  0  0  0  0  0  0  0
    6.0873    0.6459  -55.4053 H   0  0  0  0  0  0  0  0  0  0  0  0
    5.0189   -1.0639  -53.8376 H   0  0  0  0  0  0  0  0  0  0  0  0
    5.7400   -2.9430  -51.8380 H   0  0  0  0  0  0  0  0  0  0  0  0
    8.9100   -4.0500  -50.3710 H   0  0  0  0  0  0  0  0  0  0  0  0
   10.0297   -2.4081  -51.9923 H   0  0  0  0  0  0  0  0  0  0  0  0
    9.8490   -0.3940  -53.9350 H   0  0  0  0  0  0  0  0  0  0  0  0
  1  2  1  0
  2  3  1  0
  3  4  1  0
  4  5  1  0
  4  6  1  0
  6  7  1  0
  7  8  1  0
  7  9  1  1
  7 10  1  0
 10 11  1  0
 11 12  1  0
 12 13  1  0
 13 14  1  0
 14 15  2  0
 15 16  1  0
 16 17  2  0
 17 18  1  0
 18 19  1  0
 19 20  2  3
 19 21  1  0
 21 22  2  0
 22 23  1  0
 11  2  1  0
 23 14  1  0
 22 17  1  0
  1 24  1  0
  1 25  1  0
  1 26  1  0
  2 27  1  1
  3 28  1  0
  3 29  1  0
  4 30  1  1
  5 31  1  0
  5 32  1  0
  5 33  1  0
  6 34  1  0
  6 35  1  0
  8 36  1  0
  8 37  1  0
  8 38  1  0
  9 39  1  0
 10 40  1  0
 10 41  1  0
 11 42  1  6
 12 43  1  0
 12 44  1  0
 13 45  1  0
 15 46  1  0
 16 47  1  0
 18 48  1  0
 20 49  1  0
 21 50  1  0
 23 51  1  0
M  CHG  1   4   1
M  END
>  <meeko>  (102) 
{"is_sidechain": false}

$$$$

     RDKit          3D

 51 53  0  0  0  0  0  0  0  0999 V2000
    6.0800    0.0700  -53.5140 C   0  0  0  0  0  0  0  0  0  0  0  0
    7.4090   -0.4420  -52.9350 C   0  0  1  0  0  0  0  0  0  0  0  0
    7.2050   -1.8500  -52.3610 C   0  0  0  0  0  0  0  0  0  0  0  0
    8.5030   -2.3960  -51.8190 N   0  0  1  0  0  0  0  0  0  0  0  0
    8.3460   -2.9700  -50.4390 C   0  0  0  0  0  0  0  0  0  0  0  0
    9.2190   -3.3550  -52.7420 C   0  0  0  0  0  0  0  0  0  0  0  0
   10.0080   -2.5780  -53.8180 C   0  0  2  0  0  0  0  0  0  0  0  0
   10.6530   -3.5850  -54.7800 C   0  0  0  0  0  0  0  0  0  0  0  0
   11.0510   -1.8380  -53.1700 O   0  0  0  0  0  0  0  0  0  0  0  0
    9.0760   -1.6390  -54.5980 C   0  0  0  0  0  0  0  0  0  0  0  0
    8.5860   -0.3170  -53.9450 C   0  0  1  0  0  0  0  0  0  0  0  0
    8.3150    0.7300  -55.0620 C   0  0  0  0  0  0  0  0  0  0  0  0
    9.5410    1.0320  -55.7820 N   0  0  0  0  0  0  0  0  0  0  0  0
    9.8110    2.2000  -56.4700 C   0  0  0  0  0  0  0  0  0  0  0  0
    8.9000    3.1830  -56.6890 C   0  0  0  0  0  0  0  0  0  0  0  0
    9.2510    4.3970  -57.4230 C   0  0  0  0  0  0  0  0  0  0  0  0
   10.4930    4.5350  -57.9020 C   0  0  0  0  0  0  0  0  0  0  0  0
   11.1220    5.5040  -58.6200 N   0  0  0  0  0  0  0  0  0  0  0  0
   12.4070    5.1170  -58.8760 C   0  0  0  0  0  0  0  0  0  0  0  0
   13.3020    5.7570  -59.5360 N   0  0  0  0  0  0  0  0  0  0  0  0
   12.6560    3.7860  -58.2640 C   0  0  0  0  0  0  0  0  0  0  0  0
   11.4860    3.4730  -57.6840 C   0  0  0  0  0  0  0  0  0  0  0  0
   11.0930    2.3750  -56.9620 N   0  0  0  0  0  0  0  0  0  0  0  0
    5.3986    0.3325  -52.6914 H   0  0  0  0  0  0  0  0  0  0  0  0
    6.2681    0.9600  -54.1325 H   0  0  0  0  0  0  0  0  0  0  0  0
    5.6224   -0.7162  -54.1325 H   0  0  0  0  0  0  0  0  0  0  0  0
    7.7178    0.2043  -52.1002 H   0  0  0  0  0  0  0  0  0  0  0  0
    6.4644   -1.8055  -51.5489 H   0  0  0  0  0  0  0  0  0  0  0  0
    6.8497   -2.5123  -53.1642 H   0  0  0  0  0  0  0  0  0  0  0  0
    9.1700   -1.6070  -51.7400 H   0  0  0  0  0  0  0  0  0  0  0  0
    8.5589   -2.1915  -49.6916 H   0  0  0  0  0  0  0  0  0  0  0  0
    7.3157   -3.3324  -50.3076 H   0  0  0  0  0  0  0  0  0  0  0  0
    9.0484   -3.8063  -50.3076 H   0  0  0  0  0  0  0  0  0  0  0  0
    9.9164   -3.9706  -52.1550 H   0  0  0  0  0  0  0  0  0  0  0  0
    8.4750   -3.9957  -53.2380 H   0  0  0  0  0  0  0  0  0  0  0  0
   11.1577   -4.3730  -54.2017 H   0  0  0  0  0  0  0  0  0  0  0  0
    9.8755   -4.0363  -55.4139 H   0  0  0  0  0  0  0  0  0  0  0  0
   11.3881   -3.0675  -55.4139 H   0  0  0  0  0  0  0  0  0  0  0  0
   11.8580   -1.9130  -53.7190 H   0  0  0  0  0  0  0  0  0  0  0  0
    9.6050   -1.3607  -55.5214 H   0  0  0  0  0  0  0  0  0  0  0  0
    8.1528   -2.2276  -54.7040 H   0  0  0  0  0  0  0  0  0  0  0  0
    9.4040    0.0256  -53.2942 H   0  0  0  0  0  0  0  0  0  0  0  0
    7.5720    0.3257  -55.7652 H   0  0  0  0  0  0  0  0  0  0  0  0
    7.9355    1.6537  -54.6007 H   0  0  0  0  0  0  0  0  0  0  0  0
   10.3800    0.7310  -55.2930 H   0  0  0  0  0  0  0  0  0  0  0  0
    7.8760    3.0629  -56.3057 H   0  0  0  0  0  0  0  0  0  0  0  0
    8.5030    5.1882  -57.5799 H   0  0  0  0  0  0  0  0  0  0  0  0
   10.6740    6.3490  -58.9280 H   0  0  0  0  0  0  0  0  0  0  0  0
   12.9170    6.6450  -59.8640 H   0  0  0  0  0  0  0  0  0  0  0  0
   13.5833    3.1945  -58.2819 H   0  0  0  0  0  0  0  0  0  0  0  0
   11.7370    1.6000  -56.9040 H   0  0  0  0  0  0  0  0  0  0  0  0
  1  2  1  0
  2  3  1  0
  3  4  1  0
  4  5  1  0
  4  6  1  0
  6  7  1  0
  7  8  1  0
  7  9  1  1
  7 10  1  0
 10 11  1  0
 11 12  1  0
 12 13  1  0
 13 14  1  0
 14 15  2  0
 15 16  1  0
 16 17  2  0
 17 18  1  0
 18 19  1  0
 19 20  2  3
 19 21  1  0
 21 22  2  0
 22 23  1  0
 11  2  1  0
 23 14  1  0
 22 17  1  0
  1 24  1  0
  1 25  1  0
  1 26  1  0
  2 27  1  1
  3 28  1  0
  3 29  1  0
  4 30  1  1
  5 31  1  0
  5 32  1  0
  5 33  1  0
  6 34  1  0
  6 35  1  0
  8 36  1  0
  8 37  1  0
  8 38  1  0
  9 39  1  0
 10 40  1  0
 10 41  1  0
 11 42  1  1
 12 43  1  0
 12 44  1  0
 13 45  1  0
 15 46  1  0
 16 47  1  0
 18 48  1  0
 20 49  1  0
 21 50  1  0
 23 51  1  0
M  CHG  1   4   1
M  END
>  <meeko>  (103) 
{"is_sidechain": false}

$$$$

     RDKit          3D

 51 53  0  0  0  0  0  0  0  0999 V2000
    9.0660    5.3530  -56.1190 C   0  0  0  0  0  0  0  0  0  0  0  0
    9.7230    4.3770  -57.1100 C   0  0  2  0  0  0  0  0  0  0  0  0
   10.4130    5.2390  -58.1910 C   0  0  0  0  0  0  0  0  0  0  0  0
   11.1460    4.4350  -59.2200 N   0  0  2  0  0  0  0  0  0  0  0  0
   12.5500    4.9240  -59.4240 C   0  0  0  0  0  0  0  0  0  0  0  0
   10.4170    4.2300  -60.5390 C   0  0  0  0  0  0  0  0  0  0  0  0
    9.3380    3.1480  -60.3130 C   0  0  1  0  0  0  0  0  0  0  0  0
    7.9460    3.6980  -60.6410 C   0  0  0  0  0  0  0  0  0  0  0  0
    9.6330    2.1010  -61.2690 O   0  0  0  0  0  0  0  0  0  0  0  0
    9.3450    2.5390  -58.9010 C   0  0  0  0  0  0  0  0  0  0  0  0
    8.7210    3.3620  -57.7410 C   0  0  1  0  0  0  0  0  0  0  0  0
    8.0760    2.3830  -56.7190 C   0  0  0  0  0  0  0  0  0  0  0  0
    7.2400    1.3960  -57.3810 N   0  0  0  0  0  0  0  0  0  0  0  0
    6.1140    1.6480  -58.1370 C   0  0  0  0  0  0  0  0  0  0  0  0
    5.1000    2.3900  -57.6260 C   0  0  0  0  0  0  0  0  0  0  0  0
    3.8910    2.6590  -58.3970 C   0  0  0  0  0  0  0  0  0  0  0  0
    3.8020    2.1970  -59.6510 C   0  0  0  0  0  0  0  0  0  0  0  0
    2.8650    2.3010  -60.6250 N   0  0  0  0  0  0  0  0  0  0  0  0
    3.3370    1.7500  -61.7800 C   0  0  0  0  0  0  0  0  0  0  0  0
    2.7200    1.7530  -62.9060 N   0  0  0  0  0  0  0  0  0  0  0  0
    4.6810    1.1590  -61.5310 C   0  0  0  0  0  0  0  0  0  0  0  0
    4.9170    1.4340  -60.2350 C   0  0  0  0  0  0  0  0  0  0  0  0
    5.9900    1.1480  -59.4270 N   0  0  0  0  0  0  0  0  0  0  0  0
    9.2825    5.0314  -55.0896 H   0  0  0  0  0  0  0  0  0  0  0  0
    9.4679    6.3643  -56.2794 H   0  0  0  0  0  0  0  0  0  0  0  0
    7.9778    5.3612  -56.2794 H   0  0  0  0  0  0  0  0  0  0  0  0
   10.4482    3.7466  -56.5746 H   0  0  0  0  0  0  0  0  0  0  0  0
    9.6445    5.8387  -58.7007 H   0  0  0  0  0  0  0  0  0  0  0  0
   11.1588    5.8641  -57.6781 H   0  0  0  0  0  0  0  0  0  0  0  0
   11.2150    3.4650  -58.8510 H   0  0  0  0  0  0  0  0  0  0  0  0
   13.0262    5.0899  -58.4464 H   0  0  0  0  0  0  0  0  0  0  0  0
   13.1219    4.1721  -59.9876 H   0  0  0  0  0  0  0  0  0  0  0  0
   12.5311    5.8685  -59.9876 H   0  0  0  0  0  0  0  0  0  0  0  0
    9.9439    5.1710  -60.8563 H   0  0  0  0  0  0  0  0  0  0  0  0
   11.1203    3.9161  -61.3244 H   0  0  0  0  0  0  0  0  0  0  0  0
    7.4064    3.9112  -59.7064 H   0  0  0  0  0  0  0  0  0  0  0  0
    8.0462    4.6241  -61.2260 H   0  0  0  0  0  0  0  0  0  0  0  0
    7.3861    2.9535  -61.2260 H   0  0  0  0  0  0  0  0  0  0  0  0
    9.8330    1.2850  -60.7640 H   0  0  0  0  0  0  0  0  0  0  0  0
    8.7986    1.5858  -58.9547 H   0  0  0  0  0  0  0  0  0  0  0  0
   10.4115    2.4688  -58.6409 H   0  0  0  0  0  0  0  0  0  0  0  0
    7.9235    4.0062  -58.1398 H   0  0  0  0  0  0  0  0  0  0  0  0
    8.8744    1.8637  -56.1687 H   0  0  0  0  0  0  0  0  0  0  0  0
    7.4437    2.9668  -56.0339 H   0  0  0  0  0  0  0  0  0  0  0  0
    7.6970    0.5120  -57.5950 H   0  0  0  0  0  0  0  0  0  0  0  0
    5.1912    2.7977  -56.6084 H   0  0  0  0  0  0  0  0  0  0  0  0
    3.0638    3.2334  -57.9545 H   0  0  0  0  0  0  0  0  0  0  0  0
    2.0480    2.8860  -60.5780 H   0  0  0  0  0  0  0  0  0  0  0  0
    3.2780    1.2910  -63.6290 H   0  0  0  0  0  0  0  0  0  0  0  0
    5.3290    0.6232  -62.2402 H   0  0  0  0  0  0  0  0  0  0  0  0
    6.8590    0.9260  -59.8910 H   0  0  0  0  0  0  0  0  0  0  0  0
  1  2  1  0
  2  3  1  0
  3  4  1  0
  4  5  1  0
  4  6  1  0
  6  7  1  0
  7  8  1  0
  7  9  1  6
  7 10  1  0
 10 11  1  0
 11 12  1  0
 12 13  1  0
 13 14  1  0
 14 15  2  0
 15 16  1  0
 16 17  2  0
 17 18  1  0
 18 19  1  0
 19 20  2  3
 19 21  1  0
 21 22  2  0
 22 23  1  0
 11  2  1  0
 23 14  1  0
 22 17  1  0
  1 24  1  0
  1 25  1  0
  1 26  1  0
  2 27  1  1
  3 28  1  0
  3 29  1  0
  4 30  1  1
  5 31  1  0
  5 32  1  0
  5 33  1  0
  6 34  1  0
  6 35  1  0
  8 36  1  0
  8 37  1  0
  8 38  1  0
  9 39  1  0
 10 40  1  0
 10 41  1  0
 11 42  1  6
 12 43  1  0
 12 44  1  0
 13 45  1  0
 15 46  1  0
 16 47  1  0
 18 48  1  0
 20 49  1  0
 21 50  1  0
 23 51  1  0
M  CHG  1   4   1
M  END
>  <meeko>  (104) 
{"is_sidechain": false}

$$$$

     RDKit          3D

 51 53  0  0  0  0  0  0  0  0999 V2000
    9.1420    5.1560  -56.6620 C   0  0  0  0  0  0  0  0  0  0  0  0
    8.2780    5.0530  -57.9290 C   0  0  1  0  0  0  0  0  0  0  0  0
    9.0770    5.6450  -59.1070 C   0  0  0  0  0  0  0  0  0  0  0  0
   10.2150    4.7740  -59.6080 N   0  0  2  0  0  0  0  0  0  0  0  0
   11.4570    5.5900  -59.8660 C   0  0  0  0  0  0  0  0  0  0  0  0
    9.8790    3.8820  -60.7870 C   0  0  0  0  0  0  0  0  0  0  0  0
    8.9030    2.7480  -60.3440 C   0  0  1  0  0  0  0  0  0  0  0  0
    7.6080    2.8340  -61.1520 C   0  0  0  0  0  0  0  0  0  0  0  0
    9.5690    1.5140  -60.6780 O   0  0  0  0  0  0  0  0  0  0  0  0
    8.6360    2.6430  -58.8300 C   0  0  0  0  0  0  0  0  0  0  0  0
    7.6690    3.6390  -58.1660 C   0  0  1  0  0  0  0  0  0  0  0  0
    7.1170    2.9550  -56.8850 C   0  0  0  0  0  0  0  0  0  0  0  0
    7.6840    1.6310  -56.7210 N   0  0  0  0  0  0  0  0  0  0  0  0
    7.4050    0.7510  -55.6940 C   0  0  0  0  0  0  0  0  0  0  0  0
    6.1500    0.3800  -55.3290 C   0  0  0  0  0  0  0  0  0  0  0  0
    5.9210   -0.5550  -54.2300 C   0  0  0  0  0  0  0  0  0  0  0  0
    6.9730   -1.0720  -53.5820 C   0  0  0  0  0  0  0  0  0  0  0  0
    7.1050   -1.9560  -52.5570 N   0  0  0  0  0  0  0  0  0  0  0  0
    8.4310   -2.1650  -52.3060 C   0  0  0  0  0  0  0  0  0  0  0  0
    8.9500   -2.9420  -51.4270 N   0  0  0  0  0  0  0  0  0  0  0  0
    9.2490   -1.3380  -53.2310 C   0  0  0  0  0  0  0  0  0  0  0  0
    8.3370   -0.6900  -53.9760 C   0  0  0  0  0  0  0  0  0  0  0  0
    8.4750    0.2150  -54.9960 N   0  0  0  0  0  0  0  0  0  0  0  0
    8.4992    5.0794  -55.7726 H   0  0  0  0  0  0  0  0  0  0  0  0
    9.8789    4.3393  -56.6533 H   0  0  0  0  0  0  0  0  0  0  0  0
    9.6662    6.1230  -56.6533 H   0  0  0  0  0  0  0  0  0  0  0  0
    7.3666    5.6568  -57.8074 H   0  0  0  0  0  0  0  0  0  0  0  0
    8.3811    5.8122  -59.9424 H   0  0  0  0  0  0  0  0  0  0  0  0
    9.5382    6.5710  -58.7331 H   0  0  0  0  0  0  0  0  0  0  0  0
   10.4960    4.1310  -58.8540 H   0  0  0  0  0  0  0  0  0  0  0  0
   11.9072    5.8858  -58.9069 H   0  0  0  0  0  0  0  0  0  0  0  0
   12.1780    4.9890  -60.4396 H   0  0  0  0  0  0  0  0  0  0  0  0
   11.1916    6.4903  -60.4396 H   0  0  0  0  0  0  0  0  0  0  0  0
    9.4024    4.4846  -61.5743 H   0  0  0  0  0  0  0  0  0  0  0  0
   10.8054    3.4289  -61.1697 H   0  0  0  0  0  0  0  0  0  0  0  0
    6.7505    2.8909  -60.4654 H   0  0  0  0  0  0  0  0  0  0  0  0
    7.6304    3.7326  -61.7860 H   0  0  0  0  0  0  0  0  0  0  0  0
    7.5114    1.9403  -61.7860 H   0  0  0  0  0  0  0  0  0  0  0  0
    9.8420    1.0680  -59.8520 H   0  0  0  0  0  0  0  0  0  0  0  0
    8.2369    1.6351  -58.6435 H   0  0  0  0  0  0  0  0  0  0  0  0
    9.6091    2.8820  -58.3762 H   0  0  0  0  0  0  0  0  0  0  0  0
    6.8369    3.8643  -58.8492 H   0  0  0  0  0  0  0  0  0  0  0  0
    7.3752    3.5685  -56.0092 H   0  0  0  0  0  0  0  0  0  0  0  0
    6.0251    2.8608  -56.9793 H   0  0  0  0  0  0  0  0  0  0  0  0
    8.6730    1.5730  -56.9520 H   0  0  0  0  0  0  0  0  0  0  0  0
    5.2875    0.7926  -55.8728 H   0  0  0  0  0  0  0  0  0  0  0  0
    4.8969   -0.8310  -53.9383 H   0  0  0  0  0  0  0  0  0  0  0  0
    6.3280   -2.4000  -52.1030 H   0  0  0  0  0  0  0  0  0  0  0  0
    8.2080   -3.4120  -50.9030 H   0  0  0  0  0  0  0  0  0  0  0  0
   10.3453   -1.2717  -53.2918 H   0  0  0  0  0  0  0  0  0  0  0  0
    9.4050    0.3860  -55.3460 H   0  0  0  0  0  0  0  0  0  0  0  0
  1  2  1  0
  2  3  1  0
  3  4  1  0
  4  5  1  0
  4  6  1  0
  6  7  1  0
  7  8  1  0
  7  9  1  6
  7 10  1  0
 10 11  1  0
 11 12  1  0
 12 13  1  0
 13 14  1  0
 14 15  2  0
 15 16  1  0
 16 17  2  0
 17 18  1  0
 18 19  1  0
 19 20  2  3
 19 21  1  0
 21 22  2  0
 22 23  1  0
 11  2  1  0
 23 14  1  0
 22 17  1  0
  1 24  1  0
  1 25  1  0
  1 26  1  0
  2 27  1  1
  3 28  1  0
  3 29  1  0
  4 30  1  1
  5 31  1  0
  5 32  1  0
  5 33  1  0
  6 34  1  0
  6 35  1  0
  8 36  1  0
  8 37  1  0
  8 38  1  0
  9 39  1  0
 10 40  1  0
 10 41  1  0
 11 42  1  6
 12 43  1  0
 12 44  1  0
 13 45  1  0
 15 46  1  0
 16 47  1  0
 18 48  1  0
 20 49  1  0
 21 50  1  0
 23 51  1  0
M  CHG  1   4   1
M  END
>  <meeko>  (105) 
{"is_sidechain": false}

$$$$

     RDKit          3D

 51 53  0  0  0  0  0  0  0  0999 V2000
    3.9420    2.6370  -58.0800 C   0  0  0  0  0  0  0  0  0  0  0  0
    4.9960    2.4620  -59.1860 C   0  0  2  0  0  0  0  0  0  0  0  0
    4.3260    1.6290  -60.2910 C   0  0  0  0  0  0  0  0  0  0  0  0
    4.9850    1.6870  -61.6370 N   0  0  1  0  0  0  0  0  0  0  0  0
    4.0850    1.4230  -62.8110 C   0  0  0  0  0  0  0  0  0  0  0  0
    5.9710    2.8170  -61.8140 C   0  0  0  0  0  0  0  0  0  0  0  0
    7.2660    2.6990  -60.9850 C   0  0  1  0  0  0  0  0  0  0  0  0
    8.4310    2.4950  -61.9670 C   0  0  0  0  0  0  0  0  0  0  0  0
    7.4760    3.9640  -60.3310 O   0  0  0  0  0  0  0  0  0  0  0  0
    7.2930    1.6160  -59.8900 C   0  0  0  0  0  0  0  0  0  0  0  0
    6.3490    1.8490  -58.6890 C   0  0  1  0  0  0  0  0  0  0  0  0
    7.0920    2.7220  -57.6400 C   0  0  0  0  0  0  0  0  0  0  0  0
    8.4210    2.2030  -57.3900 N   0  0  0  0  0  0  0  0  0  0  0  0
    9.6320    2.8170  -57.6190 C   0  0  0  0  0  0  0  0  0  0  0  0
   10.7400    2.4030  -56.9540 C   0  0  0  0  0  0  0  0  0  0  0  0
   12.0430    3.0230  -57.1820 C   0  0  0  0  0  0  0  0  0  0  0  0
   12.1370    4.0380  -58.0480 C   0  0  0  0  0  0  0  0  0  0  0  0
   13.1620    4.8360  -58.4530 N   0  0  0  0  0  0  0  0  0  0  0  0
   12.6840    5.7940  -59.3010 C   0  0  0  0  0  0  0  0  0  0  0  0
   13.3340    6.7460  -59.8610 N   0  0  0  0  0  0  0  0  0  0  0  0
   11.2260    5.5920  -59.5080 C   0  0  0  0  0  0  0  0  0  0  0  0
   10.9390    4.5190  -58.7520 C   0  0  0  0  0  0  0  0  0  0  0  0
    9.7580    3.8550  -58.5320 N   0  0  0  0  0  0  0  0  0  0  0  0
    4.4265    2.5566  -57.0957 H   0  0  0  0  0  0  0  0  0  0  0  0
    3.4699    3.6258  -58.1766 H   0  0  0  0  0  0  0  0  0  0  0  0
    3.1757    1.8538  -58.1766 H   0  0  0  0  0  0  0  0  0  0  0  0
    5.3052    3.4462  -59.5678 H   0  0  0  0  0  0  0  0  0  0  0  0
    4.3163    0.5788  -59.9641 H   0  0  0  0  0  0  0  0  0  0  0  0
    3.3241    2.0619  -60.4280 H   0  0  0  0  0  0  0  0  0  0  0  0
    5.5950    0.8590  -61.6320 H   0  0  0  0  0  0  0  0  0  0  0  0
    3.0879    1.1305  -62.4501 H   0  0  0  0  0  0  0  0  0  0  0  0
    4.0013    2.3344  -63.4211 H   0  0  0  0  0  0  0  0  0  0  0  0
    4.5069    0.6108  -63.4211 H   0  0  0  0  0  0  0  0  0  0  0  0
    6.2509    2.8601  -62.8769 H   0  0  0  0  0  0  0  0  0  0  0  0
    5.4619    3.7234  -61.4546 H   0  0  0  0  0  0  0  0  0  0  0  0
    9.3614    2.3321  -61.4033 H   0  0  0  0  0  0  0  0  0  0  0  0
    8.2277    1.6188  -62.6002 H   0  0  0  0  0  0  0  0  0  0  0  0
    8.5375    3.3882  -62.6002 H   0  0  0  0  0  0  0  0  0  0  0  0
    8.1750    3.8530  -59.6560 H   0  0  0  0  0  0  0  0  0  0  0  0
    7.0165    0.6586  -60.3556 H   0  0  0  0  0  0  0  0  0  0  0  0
    8.3121    1.6352  -59.4765 H   0  0  0  0  0  0  0  0  0  0  0  0
    6.0834    0.9030  -58.1945 H   0  0  0  0  0  0  0  0  0  0  0  0
    7.1719    3.7516  -58.0188 H   0  0  0  0  0  0  0  0  0  0  0  0
    6.5229    2.7043  -56.6988 H   0  0  0  0  0  0  0  0  0  0  0  0
    8.4760    1.3130  -56.8990 H   0  0  0  0  0  0  0  0  0  0  0  0
   10.6552    1.5820  -56.2268 H   0  0  0  0  0  0  0  0  0  0  0  0
   12.9342    2.6602  -56.6490 H   0  0  0  0  0  0  0  0  0  0  0  0
   14.0830    4.7960  -58.0520 H   0  0  0  0  0  0  0  0  0  0  0  0
   14.3170    6.7020  -59.5820 H   0  0  0  0  0  0  0  0  0  0  0  0
   10.5416    6.1832  -60.1342 H   0  0  0  0  0  0  0  0  0  0  0  0
    8.9110    4.3510  -58.7670 H   0  0  0  0  0  0  0  0  0  0  0  0
  1  2  1  0
  2  3  1  0
  3  4  1  0
  4  5  1  0
  4  6  1  0
  6  7  1  0
  7  8  1  0
  7  9  1  1
  7 10  1  0
 10 11  1  0
 11 12  1  0
 12 13  1  0
 13 14  1  0
 14 15  2  0
 15 16  1  0
 16 17  2  0
 17 18  1  0
 18 19  1  0
 19 20  2  3
 19 21  1  0
 21 22  2  0
 22 23  1  0
 11  2  1  0
 23 14  1  0
 22 17  1  0
  1 24  1  0
  1 25  1  0
  1 26  1  0
  2 27  1  6
  3 28  1  0
  3 29  1  0
  4 30  1  1
  5 31  1  0
  5 32  1  0
  5 33  1  0
  6 34  1  0
  6 35  1  0
  8 36  1  0
  8 37  1  0
  8 38  1  0
  9 39  1  0
 10 40  1  0
 10 41  1  0
 11 42  1  1
 12 43  1  0
 12 44  1  0
 13 45  1  0
 15 46  1  0
 16 47  1  0
 18 48  1  0
 20 49  1  0
 21 50  1  0
 23 51  1  0
M  CHG  1   4   1
M  END
>  <meeko>  (106) 
{"is_sidechain": false}

$$$$

     RDKit          3D

 51 53  0  0  0  0  0  0  0  0999 V2000
   10.2930    0.8470  -56.4700 C   0  0  0  0  0  0  0  0  0  0  0  0
   10.3710    2.3550  -56.7430 C   0  0  1  0  0  0  0  0  0  0  0  0
   11.7600    2.7870  -57.2480 C   0  0  0  0  0  0  0  0  0  0  0  0
   11.8220    4.0780  -58.0310 N   0  0  1  0  0  0  0  0  0  0  0  0
   13.1420    4.7910  -57.8360 C   0  0  0  0  0  0  0  0  0  0  0  0
   11.4590    4.0450  -59.4940 C   0  0  0  0  0  0  0  0  0  0  0  0
    9.9550    3.9770  -59.7790 C   0  0  1  0  0  0  0  0  0  0  0  0
    9.2890    5.3240  -59.4730 C   0  0  0  0  0  0  0  0  0  0  0  0
    9.8270    3.7630  -61.1910 O   0  0  0  0  0  0  0  0  0  0  0  0
    9.2090    2.8580  -59.0280 C   0  0  0  0  0  0  0  0  0  0  0  0
    9.1440    2.9900  -57.4870 C   0  0  1  0  0  0  0  0  0  0  0  0
    7.7590    2.6310  -56.9040 C   0  0  0  0  0  0  0  0  0  0  0  0
    7.1360    1.5940  -57.7170 N   0  0  0  0  0  0  0  0  0  0  0  0
    5.9810    1.7880  -58.4560 C   0  0  0  0  0  0  0  0  0  0  0  0
    4.8980    2.3870  -57.8960 C   0  0  0  0  0  0  0  0  0  0  0  0
    3.6770    2.6230  -58.6610 C   0  0  0  0  0  0  0  0  0  0  0  0
    3.6400    2.2700  -59.9510 C   0  0  0  0  0  0  0  0  0  0  0  0
    2.7020    2.3710  -60.9260 N   0  0  0  0  0  0  0  0  0  0  0  0
    3.2010    1.9000  -62.1030 C   0  0  0  0  0  0  0  0  0  0  0  0
    2.5720    1.8840  -63.2210 N   0  0  0  0  0  0  0  0  0  0  0  0
    4.5930    1.4150  -61.8870 C   0  0  0  0  0  0  0  0  0  0  0  0
    4.8140    1.6450  -60.5810 C   0  0  0  0  0  0  0  0  0  0  0  0
    5.9100    1.4110  -59.7880 N   0  0  0  0  0  0  0  0  0  0  0  0
   10.2839    0.6709  -55.3842 H   0  0  0  0  0  0  0  0  0  0  0  0
    9.3727    0.4409  -56.9150 H   0  0  0  0  0  0  0  0  0  0  0  0
   11.1665    0.3481  -56.9150 H   0  0  0  0  0  0  0  0  0  0  0  0
   10.2613    2.8259  -55.7550 H   0  0  0  0  0  0  0  0  0  0  0  0
   12.4151    2.8963  -56.3712 H   0  0  0  0  0  0  0  0  0  0  0  0
   12.0692    2.0030  -57.9549 H   0  0  0  0  0  0  0  0  0  0  0  0
   11.1340    4.7020  -57.5880 H   0  0  0  0  0  0  0  0  0  0  0  0
   13.3443    4.9003  -56.7603 H   0  0  0  0  0  0  0  0  0  0  0  0
   13.9476    4.2053  -58.3030 H   0  0  0  0  0  0  0  0  0  0  0  0
   13.0939    5.7858  -58.3030 H   0  0  0  0  0  0  0  0  0  0  0  0
   11.8564    4.9555  -59.9663 H   0  0  0  0  0  0  0  0  0  0  0  0
   11.8946    3.1207  -59.9015 H   0  0  0  0  0  0  0  0  0  0  0  0
    9.2215    5.4606  -58.3836 H   0  0  0  0  0  0  0  0  0  0  0  0
    9.8890    6.1369  -59.9080 H   0  0  0  0  0  0  0  0  0  0  0  0
    8.2788    5.3408  -59.9080 H   0  0  0  0  0  0  0  0  0  0  0  0
    9.6710    2.8070  -61.3520 H   0  0  0  0  0  0  0  0  0  0  0  0
    8.1762    2.8319  -59.4058 H   0  0  0  0  0  0  0  0  0  0  0  0
    9.7865    1.9415  -59.2193 H   0  0  0  0  0  0  0  0  0  0  0  0
    9.2518    4.0636  -57.2730 H   0  0  0  0  0  0  0  0  0  0  0  0
    7.8800    2.2643  -55.8740 H   0  0  0  0  0  0  0  0  0  0  0  0
    7.1206    3.5268  -56.9054 H   0  0  0  0  0  0  0  0  0  0  0  0
    7.8250    1.0640  -58.2540 H   0  0  0  0  0  0  0  0  0  0  0  0
    4.9419    2.7012  -56.8428 H   0  0  0  0  0  0  0  0  0  0  0  0
    2.8000    3.0845  -58.1836 H   0  0  0  0  0  0  0  0  0  0  0  0
    1.7940    2.7920  -60.8200 H   0  0  0  0  0  0  0  0  0  0  0  0
    3.1550    1.4830  -63.9610 H   0  0  0  0  0  0  0  0  0  0  0  0
    5.2794    0.9723  -62.6238 H   0  0  0  0  0  0  0  0  0  0  0  0
    6.7740    1.1500  -60.2440 H   0  0  0  0  0  0  0  0  0  0  0  0
  1  2  1  0
  2  3  1  0
  3  4  1  0
  4  5  1  0
  4  6  1  0
  6  7  1  0
  7  8  1  0
  7  9  1  6
  7 10  1  0
 10 11  1  0
 11 12  1  0
 12 13  1  0
 13 14  1  0
 14 15  2  0
 15 16  1  0
 16 17  2  0
 17 18  1  0
 18 19  1  0
 19 20  2  3
 19 21  1  0
 21 22  2  0
 22 23  1  0
 11  2  1  0
 23 14  1  0
 22 17  1  0
  1 24  1  0
  1 25  1  0
  1 26  1  0
  2 27  1  1
  3 28  1  0
  3 29  1  0
  4 30  1  1
  5 31  1  0
  5 32  1  0
  5 33  1  0
  6 34  1  0
  6 35  1  0
  8 36  1  0
  8 37  1  0
  8 38  1  0
  9 39  1  0
 10 40  1  0
 10 41  1  0
 11 42  1  6
 12 43  1  0
 12 44  1  0
 13 45  1  0
 15 46  1  0
 16 47  1  0
 18 48  1  0
 20 49  1  0
 21 50  1  0
 23 51  1  0
M  CHG  1   4   1
M  END
>  <meeko>  (107) 
{"is_sidechain": false}

$$$$

     RDKit          3D

 51 53  0  0  0  0  0  0  0  0999 V2000
    8.9080    5.2600  -56.4780 C   0  0  0  0  0  0  0  0  0  0  0  0
    9.8050    4.0140  -56.5720 C   0  0  2  0  0  0  0  0  0  0  0  0
   11.0980    4.3800  -57.3080 C   0  0  0  0  0  0  0  0  0  0  0  0
   11.2200    3.7120  -58.6530 N   0  0  2  0  0  0  0  0  0  0  0  0
   12.6560    3.7610  -59.1280 C   0  0  0  0  0  0  0  0  0  0  0  0
   10.2580    4.1200  -59.7540 C   0  0  0  0  0  0  0  0  0  0  0  0
    8.9260    3.3090  -59.8220 C   0  0  2  0  0  0  0  0  0  0  0  0
    9.2790    1.8720  -60.2490 C   0  0  0  0  0  0  0  0  0  0  0  0
    8.0630    3.8530  -60.8200 O   0  0  0  0  0  0  0  0  0  0  0  0
    8.2160    3.2530  -58.4560 C   0  0  0  0  0  0  0  0  0  0  0  0
    9.0290    2.8250  -57.2140 C   0  0  2  0  0  0  0  0  0  0  0  0
    8.2130    1.9800  -56.1920 C   0  0  0  0  0  0  0  0  0  0  0  0
    8.9890    0.9290  -55.5400 N   0  0  0  0  0  0  0  0  0  0  0  0
    8.2730    0.0350  -54.7390 C   0  0  0  0  0  0  0  0  0  0  0  0
    6.8820   -0.0410  -54.7940 C   0  0  0  0  0  0  0  0  0  0  0  0
    6.1930   -0.9310  -53.9690 C   0  0  0  0  0  0  0  0  0  0  0  0
    6.9860   -1.7050  -53.1290 C   0  0  0  0  0  0  0  0  0  0  0  0
    6.6720   -2.6720  -52.2040 N   0  0  0  0  0  0  0  0  0  0  0  0
    7.8160   -3.1540  -51.6230 C   0  0  0  0  0  0  0  0  0  0  0  0
    7.7580   -4.1090  -50.6780 N   0  0  0  0  0  0  0  0  0  0  0  0
    8.8870   -2.4940  -52.1770 C   0  0  0  0  0  0  0  0  0  0  0  0
    8.3730   -1.5830  -53.1300 C   0  0  0  0  0  0  0  0  0  0  0  0
    9.0390   -0.7160  -53.9300 N   0  0  0  0  0  0  0  0  0  0  0  0
    8.7312    5.5056  -55.4204 H   0  0  0  0  0  0  0  0  0  0  0  0
    9.4046    6.1075  -56.9732 H   0  0  0  0  0  0  0  0  0  0  0  0
    7.9468    5.0580  -56.9732 H   0  0  0  0  0  0  0  0  0  0  0  0
   10.0916    3.6686  -55.5677 H   0  0  0  0  0  0  0  0  0  0  0  0
   11.1212    5.4699  -57.4547 H   0  0  0  0  0  0  0  0  0  0  0  0
   11.9382    4.0305  -56.6900 H   0  0  0  0  0  0  0  0  0  0  0  0
   11.0290    2.7160  -58.4890 H   0  0  0  0  0  0  0  0  0  0  0  0
   13.3293    3.7840  -58.2584 H   0  0  0  0  0  0  0  0  0  0  0  0
   12.8719    2.8697  -59.7354 H   0  0  0  0  0  0  0  0  0  0  0  0
   12.8106    4.6649  -59.7354 H   0  0  0  0  0  0  0  0  0  0  0  0
   10.0018    5.1792  -59.6040 H   0  0  0  0  0  0  0  0  0  0  0  0
   10.7813    3.9181  -60.7003 H   0  0  0  0  0  0  0  0  0  0  0  0
    9.4316    1.2506  -59.3542 H   0  0  0  0  0  0  0  0  0  0  0  0
    8.4565    1.4552  -60.8489 H   0  0  0  0  0  0  0  0  0  0  0  0
   10.2010    1.8838  -60.8489 H   0  0  0  0  0  0  0  0  0  0  0  0
    7.3610    4.3670  -60.3730 H   0  0  0  0  0  0  0  0  0  0  0  0
    7.8227    4.2602  -58.2541 H   0  0  0  0  0  0  0  0  0  0  0  0
    7.4702    2.4533  -58.5754 H   0  0  0  0  0  0  0  0  0  0  0  0
    9.7991    2.1315  -57.5827 H   0  0  0  0  0  0  0  0  0  0  0  0
    7.8245    2.6558  -55.4159 H   0  0  0  0  0  0  0  0  0  0  0  0
    7.4120    1.4814  -56.7574 H   0  0  0  0  0  0  0  0  0  0  0  0
    9.7120    1.2810  -54.9160 H   0  0  0  0  0  0  0  0  0  0  0  0
    6.3253    0.6032  -55.4905 H   0  0  0  0  0  0  0  0  0  0  0  0
    5.0963   -1.0146  -53.9823 H   0  0  0  0  0  0  0  0  0  0  0  0
    5.7380   -2.9780  -51.9770 H   0  0  0  0  0  0  0  0  0  0  0  0
    8.3030   -4.9620  -50.7920 H   0  0  0  0  0  0  0  0  0  0  0  0
    6.9300   -4.2580  -50.1070 H   0  0  0  0  0  0  0  0  0  0  0  0
    9.9472   -2.6459  -51.9260 H   0  0  0  0  0  0  0  0  0  0  0  0
  1  2  1  0
  2  3  1  0
  3  4  1  0
  4  5  1  0
  4  6  1  0
  6  7  1  0
  7  8  1  0
  7  9  1  6
  7 10  1  0
 10 11  1  0
 11 12  1  0
 12 13  1  0
 13 14  1  0
 14 15  1  0
 15 16  2  0
 16 17  1  0
 17 18  1  0
 18 19  1  0
 19 20  1  0
 19 21  2  0
 21 22  1  0
 22 23  1  0
 11  2  1  0
 23 14  2  0
 22 17  2  0
  1 24  1  0
  1 25  1  0
  1 26  1  0
  2 27  1  1
  3 28  1  0
  3 29  1  0
  4 30  1  1
  5 31  1  0
  5 32  1  0
  5 33  1  0
  6 34  1  0
  6 35  1  0
  8 36  1  0
  8 37  1  0
  8 38  1  0
  9 39  1  0
 10 40  1  0
 10 41  1  0
 11 42  1  6
 12 43  1  0
 12 44  1  0
 13 45  1  0
 15 46  1  0
 16 47  1  0
 18 48  1  0
 20 49  1  0
 20 50  1  0
 21 51  1  0
M  CHG  1   4   1
M  END
>  <meeko>  (108) 
{"is_sidechain": false}

$$$$

     RDKit          3D

 51 53  0  0  0  0  0  0  0  0999 V2000
    9.1780    5.2660  -56.0980 C   0  0  0  0  0  0  0  0  0  0  0  0
    9.5810    4.7360  -57.4780 C   0  0  1  0  0  0  0  0  0  0  0  0
   10.9440    5.2670  -57.9480 C   0  0  0  0  0  0  0  0  0  0  0  0
   11.3420    4.9320  -59.3600 N   0  0  2  0  0  0  0  0  0  0  0  0
   12.3430    5.9630  -59.8460 C   0  0  0  0  0  0  0  0  0  0  0  0
   10.2680    4.7150  -60.4160 C   0  0  0  0  0  0  0  0  0  0  0  0
    9.3450    3.4810  -60.2250 C   0  0  2  0  0  0  0  0  0  0  0  0
    9.4850    2.6080  -61.4830 C   0  0  0  0  0  0  0  0  0  0  0  0
    7.9800    3.8850  -60.1440 O   0  0  0  0  0  0  0  0  0  0  0  0
    9.7560    2.6470  -59.0010 C   0  0  0  0  0  0  0  0  0  0  0  0
    9.3960    3.2000  -57.6080 C   0  0  2  0  0  0  0  0  0  0  0  0
    8.0100    2.7560  -57.0530 C   0  0  0  0  0  0  0  0  0  0  0  0
    7.4610    1.5870  -57.7420 N   0  0  0  0  0  0  0  0  0  0  0  0
    6.2240    1.8420  -58.3690 C   0  0  0  0  0  0  0  0  0  0  0  0
    5.1500    2.4030  -57.6800 C   0  0  0  0  0  0  0  0  0  0  0  0
    3.9400    2.6350  -58.3350 C   0  0  0  0  0  0  0  0  0  0  0  0
    3.9040    2.2670  -59.6760 C   0  0  0  0  0  0  0  0  0  0  0  0
    2.9100    2.3410  -60.6230 N   0  0  0  0  0  0  0  0  0  0  0  0
    3.3610    1.8400  -61.8170 C   0  0  0  0  0  0  0  0  0  0  0  0
    2.5630    1.8130  -62.8970 N   0  0  0  0  0  0  0  0  0  0  0  0
    4.6650    1.4390  -61.6450 C   0  0  0  0  0  0  0  0  0  0  0  0
    5.0130    1.7010  -60.2980 C   0  0  0  0  0  0  0  0  0  0  0  0
    6.1850    1.4760  -59.6580 N   0  0  0  0  0  0  0  0  0  0  0  0
    9.6469    4.6493  -55.3171 H   0  0  0  0  0  0  0  0  0  0  0  0
    9.5138    6.3082  -55.9931 H   0  0  0  0  0  0  0  0  0  0  0  0
    8.0839    5.2210  -55.9931 H   0  0  0  0  0  0  0  0  0  0  0  0
    8.8668    5.1573  -58.2008 H   0  0  0  0  0  0  0  0  0  0  0  0
   10.9257    6.3630  -57.8566 H   0  0  0  0  0  0  0  0  0  0  0  0
   11.6878    4.7688  -57.3088 H   0  0  0  0  0  0  0  0  0  0  0  0
   11.8670    4.0510  -59.3110 H   0  0  0  0  0  0  0  0  0  0  0  0
   12.8164    6.4506  -58.9810 H   0  0  0  0  0  0  0  0  0  0  0  0
   13.1136    5.4674  -60.4547 H   0  0  0  0  0  0  0  0  0  0  0  0
   11.8248    6.7187  -60.4547 H   0  0  0  0  0  0  0  0  0  0  0  0
    9.6293    5.6104  -60.4314 H   0  0  0  0  0  0  0  0  0  0  0  0
   10.8149    4.5263  -61.3516 H   0  0  0  0  0  0  0  0  0  0  0  0
    9.6527    1.5620  -61.1866 H   0  0  0  0  0  0  0  0  0  0  0  0
    8.5644    2.6765  -62.0812 H   0  0  0  0  0  0  0  0  0  0  0  0
   10.3380    2.9609  -62.0812 H   0  0  0  0  0  0  0  0  0  0  0  0
    7.6430    3.5530  -59.2810 H   0  0  0  0  0  0  0  0  0  0  0  0
    9.2767    1.6617  -59.0980 H   0  0  0  0  0  0  0  0  0  0  0  0
   10.8557    2.6404  -59.0236 H   0  0  0  0  0  0  0  0  0  0  0  0
   10.1446    2.7184  -56.9617 H   0  0  0  0  0  0  0  0  0  0  0  0
    8.1222    2.5124  -55.9862 H   0  0  0  0  0  0  0  0  0  0  0  0
    7.3106    3.5894  -57.2149 H   0  0  0  0  0  0  0  0  0  0  0  0
    8.0210    1.3930  -58.5830 H   0  0  0  0  0  0  0  0  0  0  0  0
    5.2567    2.6636  -56.6167 H   0  0  0  0  0  0  0  0  0  0  0  0
    3.0725    3.0792  -57.8250 H   0  0  0  0  0  0  0  0  0  0  0  0
    1.9870    2.7180  -60.4710 H   0  0  0  0  0  0  0  0  0  0  0  0
    1.7740    2.4420  -63.0190 H   0  0  0  0  0  0  0  0  0  0  0  0
    2.4690    0.9570  -63.4390 H   0  0  0  0  0  0  0  0  0  0  0  0
    5.3172    0.9964  -62.4123 H   0  0  0  0  0  0  0  0  0  0  0  0
  1  2  1  0
  2  3  1  0
  3  4  1  0
  4  5  1  0
  4  6  1  0
  6  7  1  0
  7  8  1  0
  7  9  1  1
  7 10  1  0
 10 11  1  0
 11 12  1  0
 12 13  1  0
 13 14  1  0
 14 15  1  0
 15 16  2  0
 16 17  1  0
 17 18  1  0
 18 19  1  0
 19 20  1  0
 19 21  2  0
 21 22  1  0
 22 23  1  0
 11  2  1  0
 23 14  2  0
 22 17  2  0
  1 24  1  0
  1 25  1  0
  1 26  1  0
  2 27  1  6
  3 28  1  0
  3 29  1  0
  4 30  1  1
  5 31  1  0
  5 32  1  0
  5 33  1  0
  6 34  1  0
  6 35  1  0
  8 36  1  0
  8 37  1  0
  8 38  1  0
  9 39  1  0
 10 40  1  0
 10 41  1  0
 11 42  1  1
 12 43  1  0
 12 44  1  0
 13 45  1  0
 15 46  1  0
 16 47  1  0
 18 48  1  0
 20 49  1  0
 20 50  1  0
 21 51  1  0
M  CHG  1   4   1
M  END
>  <meeko>  (109) 
{"is_sidechain": false}

$$$$

     RDKit          3D

 51 53  0  0  0  0  0  0  0  0999 V2000
    6.2080   -0.1360  -53.4980 C   0  0  0  0  0  0  0  0  0  0  0  0
    6.9560   -0.9560  -54.5630 C   0  0  2  0  0  0  0  0  0  0  0  0
    6.8160   -2.4440  -54.2010 C   0  0  0  0  0  0  0  0  0  0  0  0
    7.8680   -3.0010  -53.2950 N   0  0  1  0  0  0  0  0  0  0  0  0
    7.3040   -4.0090  -52.3330 C   0  0  0  0  0  0  0  0  0  0  0  0
    9.1540   -3.4800  -53.9470 C   0  0  0  0  0  0  0  0  0  0  0  0
   10.1010   -2.2520  -54.0180 C   0  0  2  0  0  0  0  0  0  0  0  0
   10.7690   -2.1670  -55.3910 C   0  0  0  0  0  0  0  0  0  0  0  0
   11.1280   -2.4830  -53.0320 O   0  0  0  0  0  0  0  0  0  0  0  0
    9.3690   -0.9430  -53.7050 C   0  0  0  0  0  0  0  0  0  0  0  0
    8.3900   -0.3930  -54.7700 C   0  0  2  0  0  0  0  0  0  0  0  0
    8.4270    1.1380  -55.0210 C   0  0  0  0  0  0  0  0  0  0  0  0
    8.2200    1.5140  -56.4250 N   0  0  0  0  0  0  0  0  0  0  0  0
    9.2770    2.2780  -56.9960 C   0  0  0  0  0  0  0  0  0  0  0  0
   10.5810    1.8730  -56.6890 C   0  0  0  0  0  0  0  0  0  0  0  0
   11.6820    2.5440  -57.2220 C   0  0  0  0  0  0  0  0  0  0  0  0
   11.3790    3.6080  -58.0640 C   0  0  0  0  0  0  0  0  0  0  0  0
   12.1770    4.4830  -58.7630 N   0  0  0  0  0  0  0  0  0  0  0  0
   11.4010    5.3690  -59.4620 C   0  0  0  0  0  0  0  0  0  0  0  0
   11.9620    6.3200  -60.2260 N   0  0  0  0  0  0  0  0  0  0  0  0
   10.0810    5.0630  -59.2220 C   0  0  0  0  0  0  0  0  0  0  0  0
   10.0610    3.9560  -58.3390 C   0  0  0  0  0  0  0  0  0  0  0  0
    8.9970    3.3010  -57.8190 N   0  0  0  0  0  0  0  0  0  0  0  0
    6.5136   -0.4710  -52.4958 H   0  0  0  0  0  0  0  0  0  0  0  0
    6.4513    0.9300  -53.6183 H   0  0  0  0  0  0  0  0  0  0  0  0
    5.1242   -0.2806  -53.6183 H   0  0  0  0  0  0  0  0  0  0  0  0
    6.5192   -0.8645  -55.5684 H   0  0  0  0  0  0  0  0  0  0  0  0
    5.8417   -2.5803  -53.7089 H   0  0  0  0  0  0  0  0  0  0  0  0
    6.9221   -2.9909  -55.1495 H   0  0  0  0  0  0  0  0  0  0  0  0
    8.2210   -2.2310  -52.6920 H   0  0  0  0  0  0  0  0  0  0  0  0
    7.4905   -3.6757  -51.3014 H   0  0  0  0  0  0  0  0  0  0  0  0
    6.2206   -4.1059  -52.4968 H   0  0  0  0  0  0  0  0  0  0  0  0
    7.7882   -4.9830  -52.4968 H   0  0  0  0  0  0  0  0  0  0  0  0
    9.6114   -4.2773  -53.3428 H   0  0  0  0  0  0  0  0  0  0  0  0
    8.9611   -3.8900  -54.9493 H   0  0  0  0  0  0  0  0  0  0  0  0
   11.8528   -2.0291  -55.2635 H   0  0  0  0  0  0  0  0  0  0  0  0
   10.5807   -3.0963  -55.9485 H   0  0  0  0  0  0  0  0  0  0  0  0
   10.3540   -1.3144  -55.9485 H   0  0  0  0  0  0  0  0  0  0  0  0
   11.1390   -1.6880  -52.4460 H   0  0  0  0  0  0  0  0  0  0  0  0
    8.7938   -1.1013  -52.7808 H   0  0  0  0  0  0  0  0  0  0  0  0
   10.1658   -0.1871  -53.6435 H   0  0  0  0  0  0  0  0  0  0  0  0
    8.7750   -0.7821  -55.7242 H   0  0  0  0  0  0  0  0  0  0  0  0
    7.6373    1.6077  -54.4162 H   0  0  0  0  0  0  0  0  0  0  0  0
    9.4332    1.4839  -54.7420 H   0  0  0  0  0  0  0  0  0  0  0  0
    8.1580    0.6790  -57.0130 H   0  0  0  0  0  0  0  0  0  0  0  0
   10.7398    1.0150  -56.0192 H   0  0  0  0  0  0  0  0  0  0  0  0
   12.7172    2.2517  -56.9921 H   0  0  0  0  0  0  0  0  0  0  0  0
   13.1860    4.4700  -58.7700 H   0  0  0  0  0  0  0  0  0  0  0  0
   12.2170    7.2200  -59.8210 H   0  0  0  0  0  0  0  0  0  0  0  0
   12.4800    6.1140  -61.0760 H   0  0  0  0  0  0  0  0  0  0  0  0
    9.2048    5.5815  -59.6384 H   0  0  0  0  0  0  0  0  0  0  0  0
  1  2  1  0
  2  3  1  0
  3  4  1  0
  4  5  1  0
  4  6  1  0
  6  7  1  0
  7  8  1  0
  7  9  1  1
  7 10  1  0
 10 11  1  0
 11 12  1  0
 12 13  1  0
 13 14  1  0
 14 15  1  0
 15 16  2  0
 16 17  1  0
 17 18  1  0
 18 19  1  0
 19 20  1  0
 19 21  2  0
 21 22  1  0
 22 23  1  0
 11  2  1  0
 23 14  2  0
 22 17  2  0
  1 24  1  0
  1 25  1  0
  1 26  1  0
  2 27  1  6
  3 28  1  0
  3 29  1  0
  4 30  1  1
  5 31  1  0
  5 32  1  0
  5 33  1  0
  6 34  1  0
  6 35  1  0
  8 36  1  0
  8 37  1  0
  8 38  1  0
  9 39  1  0
 10 40  1  0
 10 41  1  0
 11 42  1  6
 12 43  1  0
 12 44  1  0
 13 45  1  0
 15 46  1  0
 16 47  1  0
 18 48  1  0
 20 49  1  0
 20 50  1  0
 21 51  1  0
M  CHG  1   4   1
M  END
>  <meeko>  (110) 
{"is_sidechain": false}

$$$$

     RDKit          3D

 51 53  0  0  0  0  0  0  0  0999 V2000
    5.6320    2.5670  -58.9140 C   0  0  0  0  0  0  0  0  0  0  0  0
    7.1640    2.5970  -58.8640 C   0  0  1  0  0  0  0  0  0  0  0  0
    7.7720    3.5540  -59.8980 C   0  0  0  0  0  0  0  0  0  0  0  0
    9.2700    3.6870  -59.8830 N   0  0  1  0  0  0  0  0  0  0  0  0
    9.8850    3.7040  -61.2500 C   0  0  0  0  0  0  0  0  0  0  0  0
    9.8680    4.7270  -58.9660 C   0  0  0  0  0  0  0  0  0  0  0  0
    9.7930    4.2490  -57.4930 C   0  0  2  0  0  0  0  0  0  0  0  0
    9.0070    5.2790  -56.6750 C   0  0  0  0  0  0  0  0  0  0  0  0
   11.1550    4.2440  -57.0170 O   0  0  0  0  0  0  0  0  0  0  0  0
    9.2110    2.8290  -57.2810 C   0  0  0  0  0  0  0  0  0  0  0  0
    7.6730    2.7360  -57.3960 C   0  0  2  0  0  0  0  0  0  0  0  0
    7.1230    1.6070  -56.4800 C   0  0  0  0  0  0  0  0  0  0  0  0
    8.1930    0.9720  -55.7130 N   0  0  0  0  0  0  0  0  0  0  0  0
    7.7950    0.0140  -54.7490 C   0  0  0  0  0  0  0  0  0  0  0  0
    6.4180   -0.1580  -54.5630 C   0  0  0  0  0  0  0  0  0  0  0  0
    5.9280   -1.0490  -53.6090 C   0  0  0  0  0  0  0  0  0  0  0  0
    6.8950   -1.7220  -52.8730 C   0  0  0  0  0  0  0  0  0  0  0  0
    6.7990   -2.6560  -51.8680 N   0  0  0  0  0  0  0  0  0  0  0  0
    8.0510   -3.0240  -51.4490 C   0  0  0  0  0  0  0  0  0  0  0  0
    8.2120   -3.9260  -50.4680 N   0  0  0  0  0  0  0  0  0  0  0  0
    8.9720   -2.3180  -52.1890 C   0  0  0  0  0  0  0  0  0  0  0  0
    8.2490   -1.4980  -53.0890 C   0  0  0  0  0  0  0  0  0  0  0  0
    8.7180   -0.6270  -54.0130 N   0  0  0  0  0  0  0  0  0  0  0  0
    5.2318    2.5592  -57.8894 H   0  0  0  0  0  0  0  0  0  0  0  0
    5.2649    3.4581  -59.4442 H   0  0  0  0  0  0  0  0  0  0  0  0
    5.3001    1.6622  -59.4442 H   0  0  0  0  0  0  0  0  0  0  0  0
    7.5531    1.6224  -59.1938 H   0  0  0  0  0  0  0  0  0  0  0  0
    7.4770    3.1997  -60.8967 H   0  0  0  0  0  0  0  0  0  0  0  0
    7.3865    4.5507  -59.6374 H   0  0  0  0  0  0  0  0  0  0  0  0
    9.5860    2.8100  -59.4360 H   0  0  0  0  0  0  0  0  0  0  0  0
   10.9808    3.7343  -61.1587 H   0  0  0  0  0  0  0  0  0  0  0  0
    9.5876    2.7973  -61.7972 H   0  0  0  0  0  0  0  0  0  0  0  0
    9.5379    4.5929  -61.7972 H   0  0  0  0  0  0  0  0  0  0  0  0
   10.9201    4.8922  -59.2412 H   0  0  0  0  0  0  0  0  0  0  0  0
    9.3013    5.6642  -59.0684 H   0  0  0  0  0  0  0  0  0  0  0  0
    9.1548    5.0853  -55.6023 H   0  0  0  0  0  0  0  0  0  0  0  0
    9.3650    6.2904  -56.9177 H   0  0  0  0  0  0  0  0  0  0  0  0
    7.9370    5.2007  -56.9177 H   0  0  0  0  0  0  0  0  0  0  0  0
   11.7450    4.3240  -57.7940 H   0  0  0  0  0  0  0  0  0  0  0  0
    9.6517    2.1621  -58.0366 H   0  0  0  0  0  0  0  0  0  0  0  0
    9.4626    2.5417  -56.2494 H   0  0  0  0  0  0  0  0  0  0  0  0
    7.2717    3.6974  -57.0430 H   0  0  0  0  0  0  0  0  0  0  0  0
    6.3899    2.0379  -55.7822 H   0  0  0  0  0  0  0  0  0  0  0  0
    6.6540    0.8427  -57.1171 H   0  0  0  0  0  0  0  0  0  0  0  0
    8.7470    1.6690  -55.2150 H   0  0  0  0  0  0  0  0  0  0  0  0
    5.7120    0.4185  -55.1788 H   0  0  0  0  0  0  0  0  0  0  0  0
    4.8512   -1.2079  -53.4503 H   0  0  0  0  0  0  0  0  0  0  0  0
    5.9370   -3.0130  -51.4850 H   0  0  0  0  0  0  0  0  0  0  0  0
    7.9400   -4.8950  -50.6220 H   0  0  0  0  0  0  0  0  0  0  0  0
    8.1770   -3.6710  -49.4830 H   0  0  0  0  0  0  0  0  0  0  0  0
   10.0665   -2.3793  -52.0982 H   0  0  0  0  0  0  0  0  0  0  0  0
  1  2  1  0
  2  3  1  0
  3  4  1  0
  4  5  1  0
  4  6  1  0
  6  7  1  0
  7  8  1  0
  7  9  1  1
  7 10  1  0
 10 11  1  0
 11 12  1  0
 12 13  1  0
 13 14  1  0
 14 15  1  0
 15 16  2  0
 16 17  1  0
 17 18  1  0
 18 19  1  0
 19 20  1  0
 19 21  2  0
 21 22  1  0
 22 23  1  0
 11  2  1  0
 23 14  2  0
 22 17  2  0
  1 24  1  0
  1 25  1  0
  1 26  1  0
  2 27  1  6
  3 28  1  0
  3 29  1  0
  4 30  1  1
  5 31  1  0
  5 32  1  0
  5 33  1  0
  6 34  1  0
  6 35  1  0
  8 36  1  0
  8 37  1  0
  8 38  1  0
  9 39  1  0
 10 40  1  0
 10 41  1  0
 11 42  1  1
 12 43  1  0
 12 44  1  0
 13 45  1  0
 15 46  1  0
 16 47  1  0
 18 48  1  0
 20 49  1  0
 20 50  1  0
 21 51  1  0
M  CHG  1   4   1
M  END
>  <meeko>  (111) 
{"is_sidechain": false}

$$$$

     RDKit          3D

 51 53  0  0  0  0  0  0  0  0999 V2000
    4.4070    2.2800  -58.1590 C   0  0  0  0  0  0  0  0  0  0  0  0
    5.5390    2.8060  -59.0510 C   0  0  2  0  0  0  0  0  0  0  0  0
    5.6080    1.9540  -60.3290 C   0  0  0  0  0  0  0  0  0  0  0  0
    6.2490    2.6900  -61.4630 N   0  0  2  0  0  0  0  0  0  0  0  0
    5.6280    2.3130  -62.7900 C   0  0  0  0  0  0  0  0  0  0  0  0
    7.7590    2.6220  -61.5530 C   0  0  0  0  0  0  0  0  0  0  0  0
    8.6290    2.8970  -60.2860 C   0  0  1  0  0  0  0  0  0  0  0  0
   10.1070    2.5310  -60.5030 C   0  0  0  0  0  0  0  0  0  0  0  0
    8.6330    4.3400  -60.1670 O   0  0  0  0  0  0  0  0  0  0  0  0
    8.1100    2.3640  -58.9340 C   0  0  0  0  0  0  0  0  0  0  0  0
    6.8830    3.0330  -58.2990 C   0  0  2  0  0  0  0  0  0  0  0  0
    6.8000    2.6230  -56.8030 C   0  0  0  0  0  0  0  0  0  0  0  0
    7.9000    1.7080  -56.5090 N   0  0  0  0  0  0  0  0  0  0  0  0
    7.5660    0.7500  -55.5340 C   0  0  0  0  0  0  0  0  0  0  0  0
    6.2390    0.4080  -55.2770 C   0  0  0  0  0  0  0  0  0  0  0  0
    5.9350   -0.5380  -54.2980 C   0  0  0  0  0  0  0  0  0  0  0  0
    7.0280   -1.0770  -53.6270 C   0  0  0  0  0  0  0  0  0  0  0  0
    7.1190   -2.0070  -52.6180 N   0  0  0  0  0  0  0  0  0  0  0  0
    8.4320   -2.2100  -52.2840 C   0  0  0  0  0  0  0  0  0  0  0  0
    8.7690   -3.0770  -51.3180 N   0  0  0  0  0  0  0  0  0  0  0  0
    9.2050   -1.3940  -53.0780 C   0  0  0  0  0  0  0  0  0  0  0  0
    8.3280   -0.6790  -53.9270 C   0  0  0  0  0  0  0  0  0  0  0  0
    8.6210    0.2390  -54.8790 N   0  0  0  0  0  0  0  0  0  0  0  0
    4.6833    2.4084  -57.1020 H   0  0  0  0  0  0  0  0  0  0  0  0
    3.4846    2.8418  -58.3677 H   0  0  0  0  0  0  0  0  0  0  0  0
    4.2415    1.2127  -58.3677 H   0  0  0  0  0  0  0  0  0  0  0  0
    5.3061    3.8327  -59.3698 H   0  0  0  0  0  0  0  0  0  0  0  0
    6.1935    1.0467  -60.1191 H   0  0  0  0  0  0  0  0  0  0  0  0
    4.5784    1.7052  -60.6259 H   0  0  0  0  0  0  0  0  0  0  0  0
    6.0000    3.6820  -61.3540 H   0  0  0  0  0  0  0  0  0  0  0  0
    4.6999    1.7496  -62.6136 H   0  0  0  0  0  0  0  0  0  0  0  0
    5.4002    3.2254  -63.3606 H   0  0  0  0  0  0  0  0  0  0  0  0
    6.3324    1.6899  -63.3606 H   0  0  0  0  0  0  0  0  0  0  0  0
    8.0114    1.6084  -61.8978 H   0  0  0  0  0  0  0  0  0  0  0  0
    8.0109    3.4598  -62.2198 H   0  0  0  0  0  0  0  0  0  0  0  0
   10.6014    2.4086  -59.5280 H   0  0  0  0  0  0  0  0  0  0  0  0
   10.1725    1.5895  -61.0681 H   0  0  0  0  0  0  0  0  0  0  0  0
   10.6042    3.3331  -61.0681 H   0  0  0  0  0  0  0  0  0  0  0  0
    9.5330    4.6780  -60.3430 H   0  0  0  0  0  0  0  0  0  0  0  0
    7.8611    1.3023  -59.0787 H   0  0  0  0  0  0  0  0  0  0  0  0
    8.9267    2.5819  -58.2301 H   0  0  0  0  0  0  0  0  0  0  0  0
    7.0339    4.1193  -58.3842 H   0  0  0  0  0  0  0  0  0  0  0  0
    6.8825    3.5177  -56.1684 H   0  0  0  0  0  0  0  0  0  0  0  0
    5.8373    2.1306  -56.6011 H   0  0  0  0  0  0  0  0  0  0  0  0
    8.0840    1.0970  -57.3080 H   0  0  0  0  0  0  0  0  0  0  0  0
    5.4292    0.8857  -55.8481 H   0  0  0  0  0  0  0  0  0  0  0  0
    4.9010   -0.8375  -54.0718 H   0  0  0  0  0  0  0  0  0  0  0  0
    6.3360   -2.4650  -52.1780 H   0  0  0  0  0  0  0  0  0  0  0  0
    8.0520   -3.5380  -50.7600 H   0  0  0  0  0  0  0  0  0  0  0  0
    9.6900   -3.1140  -50.8900 H   0  0  0  0  0  0  0  0  0  0  0  0
   10.3018   -1.3128  -53.0565 H   0  0  0  0  0  0  0  0  0  0  0  0
  1  2  1  0
  2  3  1  0
  3  4  1  0
  4  5  1  0
  4  6  1  0
  6  7  1  0
  7  8  1  0
  7  9  1  1
  7 10  1  0
 10 11  1  0
 11 12  1  0
 12 13  1  0
 13 14  1  0
 14 15  1  0
 15 16  2  0
 16 17  1  0
 17 18  1  0
 18 19  1  0
 19 20  1  0
 19 21  2  0
 21 22  1  0
 22 23  1  0
 11  2  1  0
 23 14  2  0
 22 17  2  0
  1 24  1  0
  1 25  1  0
  1 26  1  0
  2 27  1  6
  3 28  1  0
  3 29  1  0
  4 30  1  1
  5 31  1  0
  5 32  1  0
  5 33  1  0
  6 34  1  0
  6 35  1  0
  8 36  1  0
  8 37  1  0
  8 38  1  0
  9 39  1  0
 10 40  1  0
 10 41  1  0
 11 42  1  1
 12 43  1  0
 12 44  1  0
 13 45  1  0
 15 46  1  0
 16 47  1  0
 18 48  1  0
 20 49  1  0
 20 50  1  0
 21 51  1  0
M  CHG  1   4   1
M  END
>  <meeko>  (112) 
{"is_sidechain": false}

$$$$

     RDKit          3D

 51 53  0  0  0  0  0  0  0  0999 V2000
   11.5200    2.6600  -57.2170 C   0  0  0  0  0  0  0  0  0  0  0  0
   10.0950    3.2120  -57.0490 C   0  0  1  0  0  0  0  0  0  0  0  0
   10.0670    4.5710  -57.7750 C   0  0  0  0  0  0  0  0  0  0  0  0
   10.3670    4.5100  -59.2400 N   0  0  2  0  0  0  0  0  0  0  0  0
   11.3920    5.5320  -59.6420 C   0  0  0  0  0  0  0  0  0  0  0  0
    9.1670    4.4870  -60.1650 C   0  0  0  0  0  0  0  0  0  0  0  0
    8.4100    3.1710  -59.8940 C   0  0  1  0  0  0  0  0  0  0  0  0
    7.2100    3.0600  -60.8380 C   0  0  0  0  0  0  0  0  0  0  0  0
    9.3360    2.1020  -60.1860 O   0  0  0  0  0  0  0  0  0  0  0  0
    7.9540    3.0050  -58.4330 C   0  0  0  0  0  0  0  0  0  0  0  0
    8.9370    2.2580  -57.4870 C   0  0  2  0  0  0  0  0  0  0  0  0
    8.1100    1.6700  -56.3130 C   0  0  0  0  0  0  0  0  0  0  0  0
    8.9900    0.8700  -55.4660 N   0  0  0  0  0  0  0  0  0  0  0  0
    8.2820    0.0090  -54.6070 C   0  0  0  0  0  0  0  0  0  0  0  0
    6.8880    0.0140  -54.5630 C   0  0  0  0  0  0  0  0  0  0  0  0
    6.2090   -0.8460  -53.7020 C   0  0  0  0  0  0  0  0  0  0  0  0
    7.0150   -1.6670  -52.9180 C   0  0  0  0  0  0  0  0  0  0  0  0
    6.7130   -2.6190  -51.9740 N   0  0  0  0  0  0  0  0  0  0  0  0
    7.8650   -3.1610  -51.4670 C   0  0  0  0  0  0  0  0  0  0  0  0
    7.8200   -4.1210  -50.5290 N   0  0  0  0  0  0  0  0  0  0  0  0
    8.9300   -2.5570  -52.0930 C   0  0  0  0  0  0  0  0  0  0  0  0
    8.4030   -1.6120  -53.0050 C   0  0  0  0  0  0  0  0  0  0  0  0
    9.0610   -0.7750  -53.8440 N   0  0  0  0  0  0  0  0  0  0  0  0
   11.9655    2.4874  -56.2262 H   0  0  0  0  0  0  0  0  0  0  0  0
   11.4826    1.7113  -57.7725 H   0  0  0  0  0  0  0  0  0  0  0  0
   12.1314    3.3863  -57.7725 H   0  0  0  0  0  0  0  0  0  0  0  0
    9.8855    3.3213  -55.9747 H   0  0  0  0  0  0  0  0  0  0  0  0
    9.0639    5.0046  -57.6496 H   0  0  0  0  0  0  0  0  0  0  0  0
   10.8643    5.1787  -57.3222 H   0  0  0  0  0  0  0  0  0  0  0  0
   10.8200    3.5950  -59.4350 H   0  0  0  0  0  0  0  0  0  0  0  0
   11.8387    5.9774  -58.7408 H   0  0  0  0  0  0  0  0  0  0  0  0
   12.1781    5.0475  -60.2398 H   0  0  0  0  0  0  0  0  0  0  0  0
   10.9098    6.3195  -60.2398 H   0  0  0  0  0  0  0  0  0  0  0  0
    8.5140    5.3475  -59.9572 H   0  0  0  0  0  0  0  0  0  0  0  0
    9.4827    4.5473  -61.2170 H   0  0  0  0  0  0  0  0  0  0  0  0
    6.2858    2.9745  -60.2477 H   0  0  0  0  0  0  0  0  0  0  0  0
    7.1583    3.9572  -61.4723 H   0  0  0  0  0  0  0  0  0  0  0  0
    7.3237    2.1685  -61.4723 H   0  0  0  0  0  0  0  0  0  0  0  0
   10.2450    2.4530  -60.0920 H   0  0  0  0  0  0  0  0  0  0  0  0
    7.7867    4.0097  -58.0175 H   0  0  0  0  0  0  0  0  0  0  0  0
    7.0522    2.3765  -58.4759 H   0  0  0  0  0  0  0  0  0  0  0  0
    9.4371    1.4187  -57.9924 H   0  0  0  0  0  0  0  0  0  0  0  0
    7.6741    2.4891  -55.7223 H   0  0  0  0  0  0  0  0  0  0  0  0
    7.3000    1.0393  -56.7081 H   0  0  0  0  0  0  0  0  0  0  0  0
    9.5120    0.1900  -56.0240 H   0  0  0  0  0  0  0  0  0  0  0  0
    6.3221    0.6997  -55.2107 H   0  0  0  0  0  0  0  0  0  0  0  0
    5.1108   -0.8743  -53.6456 H   0  0  0  0  0  0  0  0  0  0  0  0
    5.7800   -2.8900  -51.6990 H   0  0  0  0  0  0  0  0  0  0  0  0
    7.8960   -3.8730  -49.5440 H   0  0  0  0  0  0  0  0  0  0  0  0
    7.3470   -5.0100  -50.6720 H   0  0  0  0  0  0  0  0  0  0  0  0
    9.9949   -2.7692  -51.9173 H   0  0  0  0  0  0  0  0  0  0  0  0
  1  2  1  0
  2  3  1  0
  3  4  1  0
  4  5  1  0
  4  6  1  0
  6  7  1  0
  7  8  1  0
  7  9  1  6
  7 10  1  0
 10 11  1  0
 11 12  1  0
 12 13  1  0
 13 14  1  0
 14 15  1  0
 15 16  2  0
 16 17  1  0
 17 18  1  0
 18 19  1  0
 19 20  1  0
 19 21  2  0
 21 22  1  0
 22 23  1  0
 11  2  1  0
 23 14  2  0
 22 17  2  0
  1 24  1  0
  1 25  1  0
  1 26  1  0
  2 27  1  1
  3 28  1  0
  3 29  1  0
  4 30  1  1
  5 31  1  0
  5 32  1  0
  5 33  1  0
  6 34  1  0
  6 35  1  0
  8 36  1  0
  8 37  1  0
  8 38  1  0
  9 39  1  0
 10 40  1  0
 10 41  1  0
 11 42  1  6
 12 43  1  0
 12 44  1  0
 13 45  1  0
 15 46  1  0
 16 47  1  0
 18 48  1  0
 20 49  1  0
 20 50  1  0
 21 51  1  0
M  CHG  1   4   1
M  END
>  <meeko>  (113) 
{"is_sidechain": false}

$$$$

     RDKit          3D

 51 53  0  0  0  0  0  0  0  0999 V2000
   10.3910    4.2530  -56.3180 C   0  0  0  0  0  0  0  0  0  0  0  0
   10.8950    3.0280  -57.1010 C   0  0  2  0  0  0  0  0  0  0  0  0
   11.9750    3.4880  -58.0860 C   0  0  0  0  0  0  0  0  0  0  0  0
   11.6050    4.7080  -58.8960 N   0  0  1  0  0  0  0  0  0  0  0  0
   12.8290    5.5390  -59.2260 C   0  0  0  0  0  0  0  0  0  0  0  0
   10.7650    4.5420  -60.1380 C   0  0  0  0  0  0  0  0  0  0  0  0
    9.4730    3.6960  -60.0100 C   0  0  1  0  0  0  0  0  0  0  0  0
    8.2770    4.4900  -59.4910 C   0  0  0  0  0  0  0  0  0  0  0  0
    9.1410    3.3590  -61.3740 O   0  0  0  0  0  0  0  0  0  0  0  0
    9.7180    2.3570  -59.2980 C   0  0  0  0  0  0  0  0  0  0  0  0
    9.6980    2.2740  -57.7580 C   0  0  2  0  0  0  0  0  0  0  0  0
    8.3200    2.5820  -57.1080 C   0  0  0  0  0  0  0  0  0  0  0  0
    7.3440    1.5090  -57.2350 N   0  0  0  0  0  0  0  0  0  0  0  0
    6.1960    1.7830  -57.9830 C   0  0  0  0  0  0  0  0  0  0  0  0
    5.0770    2.3880  -57.4130 C   0  0  0  0  0  0  0  0  0  0  0  0
    3.9400    2.6340  -58.1810 C   0  0  0  0  0  0  0  0  0  0  0  0
    4.0220    2.2400  -59.5130 C   0  0  0  0  0  0  0  0  0  0  0  0
    3.1250    2.3220  -60.5520 N   0  0  0  0  0  0  0  0  0  0  0  0
    3.6770    1.7960  -61.6900 C   0  0  0  0  0  0  0  0  0  0  0  0
    2.9810    1.7600  -62.8390 N   0  0  0  0  0  0  0  0  0  0  0  0
    4.9480    1.3650  -61.3880 C   0  0  0  0  0  0  0  0  0  0  0  0
    5.1730    1.6470  -60.0200 C   0  0  0  0  0  0  0  0  0  0  0  0
    6.2760    1.4080  -59.2700 N   0  0  0  0  0  0  0  0  0  0  0  0
   10.4717    4.0569  -55.2386 H   0  0  0  0  0  0  0  0  0  0  0  0
   11.0011    5.1307  -56.5778 H   0  0  0  0  0  0  0  0  0  0  0  0
    9.3399    4.4472  -56.5778 H   0  0  0  0  0  0  0  0  0  0  0  0
   11.3644    2.2907  -56.4332 H   0  0  0  0  0  0  0  0  0  0  0  0
   12.8859    3.7185  -57.5141 H   0  0  0  0  0  0  0  0  0  0  0  0
   12.1144    2.6662  -58.8038 H   0  0  0  0  0  0  0  0  0  0  0  0
   11.0510    5.3080  -58.2690 H   0  0  0  0  0  0  0  0  0  0  0  0
   13.3119    5.8668  -58.2936 H   0  0  0  0  0  0  0  0  0  0  0  0
   13.5362    4.9335  -59.8119 H   0  0  0  0  0  0  0  0  0  0  0  0
   12.5272    6.4197  -59.8119 H   0  0  0  0  0  0  0  0  0  0  0  0
   10.4708    5.5468  -60.4755 H   0  0  0  0  0  0  0  0  0  0  0  0
   11.4022    3.9831  -60.8392 H   0  0  0  0  0  0  0  0  0  0  0  0
    8.2835    4.4857  -58.3910 H   0  0  0  0  0  0  0  0  0  0  0  0
    8.3396    5.5265  -59.8540 H   0  0  0  0  0  0  0  0  0  0  0  0
    7.3461    4.0300  -59.8540 H   0  0  0  0  0  0  0  0  0  0  0  0
    8.6560    4.1040  -61.7810 H   0  0  0  0  0  0  0  0  0  0  0  0
    8.9471    1.6614  -59.6611 H   0  0  0  0  0  0  0  0  0  0  0  0
   10.7667    2.1343  -59.5441 H   0  0  0  0  0  0  0  0  0  0  0  0
    9.8516    1.2094  -57.5277 H   0  0  0  0  0  0  0  0  0  0  0  0
    8.4801    2.7770  -56.0373 H   0  0  0  0  0  0  0  0  0  0  0  0
    7.9061    3.4491  -57.6435 H   0  0  0  0  0  0  0  0  0  0  0  0
    6.9810    1.1660  -56.3480 H   0  0  0  0  0  0  0  0  0  0  0  0
    5.0913    2.6730  -56.3507 H   0  0  0  0  0  0  0  0  0  0  0  0
    3.0395    3.1073  -57.7626 H   0  0  0  0  0  0  0  0  0  0  0  0
    2.1940    2.7060  -60.4880 H   0  0  0  0  0  0  0  0  0  0  0  0
    2.2200    1.0920  -62.9460 H   0  0  0  0  0  0  0  0  0  0  0  0
    3.3910    2.0190  -63.7330 H   0  0  0  0  0  0  0  0  0  0  0  0
    5.6575    0.8895  -62.0812 H   0  0  0  0  0  0  0  0  0  0  0  0
  1  2  1  0
  2  3  1  0
  3  4  1  0
  4  5  1  0
  4  6  1  0
  6  7  1  0
  7  8  1  0
  7  9  1  6
  7 10  1  0
 10 11  1  0
 11 12  1  0
 12 13  1  0
 13 14  1  0
 14 15  1  0
 15 16  2  0
 16 17  1  0
 17 18  1  0
 18 19  1  0
 19 20  1  0
 19 21  2  0
 21 22  1  0
 22 23  1  0
 11  2  1  0
 23 14  2  0
 22 17  2  0
  1 24  1  0
  1 25  1  0
  1 26  1  0
  2 27  1  1
  3 28  1  0
  3 29  1  0
  4 30  1  1
  5 31  1  0
  5 32  1  0
  5 33  1  0
  6 34  1  0
  6 35  1  0
  8 36  1  0
  8 37  1  0
  8 38  1  0
  9 39  1  0
 10 40  1  0
 10 41  1  0
 11 42  1  6
 12 43  1  0
 12 44  1  0
 13 45  1  0
 15 46  1  0
 16 47  1  0
 18 48  1  0
 20 49  1  0
 20 50  1  0
 21 51  1  0
M  CHG  1   4   1
M  END
>  <meeko>  (114) 
{"is_sidechain": false}

$$$$

     RDKit          3D

 51 53  0  0  0  0  0  0  0  0999 V2000
    5.6010    2.2120  -56.4840 C   0  0  0  0  0  0  0  0  0  0  0  0
    6.2170    1.8240  -57.8400 C   0  0  1  0  0  0  0  0  0  0  0  0
    5.1960    2.1950  -58.9270 C   0  0  0  0  0  0  0  0  0  0  0  0
    5.6720    1.7120  -60.2780 N   0  0  1  0  0  0  0  0  0  0  0  0
    4.5400    1.1330  -61.0890 C   0  0  0  0  0  0  0  0  0  0  0  0
    6.4250    2.7420  -61.0900 C   0  0  0  0  0  0  0  0  0  0  0  0
    7.8500    3.0730  -60.5660 C   0  0  1  0  0  0  0  0  0  0  0  0
    8.8280    2.9560  -61.7460 C   0  0  0  0  0  0  0  0  0  0  0  0
    7.8740    4.4380  -60.1340 O   0  0  0  0  0  0  0  0  0  0  0  0
    8.2960    2.1610  -59.4070 C   0  0  0  0  0  0  0  0  0  0  0  0
    7.6430    2.4350  -58.0260 C   0  0  2  0  0  0  0  0  0  0  0  0
    8.6270    1.9130  -56.9380 C   0  0  0  0  0  0  0  0  0  0  0  0
    9.3090    3.0290  -56.2950 N   0  0  0  0  0  0  0  0  0  0  0  0
   10.3450    3.5920  -57.0830 C   0  0  0  0  0  0  0  0  0  0  0  0
   11.5870    2.9480  -57.0440 C   0  0  0  0  0  0  0  0  0  0  0  0
   12.6600    3.4180  -57.8030 C   0  0  0  0  0  0  0  0  0  0  0  0
   12.3930    4.5380  -58.5810 C   0  0  0  0  0  0  0  0  0  0  0  0
   13.1780    5.2650  -59.4430 N   0  0  0  0  0  0  0  0  0  0  0  0
   12.4550    6.2960  -59.9830 C   0  0  0  0  0  0  0  0  0  0  0  0
   13.0140    7.1450  -60.8590 N   0  0  0  0  0  0  0  0  0  0  0  0
   11.1780    6.2310  -59.4730 C   0  0  0  0  0  0  0  0  0  0  0  0
   11.1330    5.1280  -58.5870 C   0  0  0  0  0  0  0  0  0  0  0  0
   10.0950    4.6680  -57.8500 N   0  0  0  0  0  0  0  0  0  0  0  0
    6.2274    1.8175  -55.6704 H   0  0  0  0  0  0  0  0  0  0  0  0
    5.5463    3.3079  -56.4062 H   0  0  0  0  0  0  0  0  0  0  0  0
    4.5890    1.7880  -56.4062 H   0  0  0  0  0  0  0  0  0  0  0  0
    6.4029    0.7419  -57.9069 H   0  0  0  0  0  0  0  0  0  0  0  0
    4.2294    1.7249  -58.6931 H   0  0  0  0  0  0  0  0  0  0  0  0
    5.0847    3.2890  -58.9561 H   0  0  0  0  0  0  0  0  0  0  0  0
    6.3130    0.9250  -60.1140 H   0  0  0  0  0  0  0  0  0  0  0  0
    3.7683    0.7383  -60.4118 H   0  0  0  0  0  0  0  0  0  0  0  0
    4.1040    1.9188  -61.7234 H   0  0  0  0  0  0  0  0  0  0  0  0
    4.9220    0.3196  -61.7234 H   0  0  0  0  0  0  0  0  0  0  0  0
    6.5183    2.3645  -62.1190 H   0  0  0  0  0  0  0  0  0  0  0  0
    5.8457    3.6745  -61.0195 H   0  0  0  0  0  0  0  0  0  0  0  0
    9.8518    2.8335  -61.3629 H   0  0  0  0  0  0  0  0  0  0  0  0
    8.5594    2.0836  -62.3598 H   0  0  0  0  0  0  0  0  0  0  0  0
    8.7727    3.8672  -62.3598 H   0  0  0  0  0  0  0  0  0  0  0  0
    8.5300    4.9270  -60.6700 H   0  0  0  0  0  0  0  0  0  0  0  0
    8.0626    1.1234  -59.6881 H   0  0  0  0  0  0  0  0  0  0  0  0
    9.3683    2.3642  -59.2699 H   0  0  0  0  0  0  0  0  0  0  0  0
    7.4749    3.5186  -57.9395 H   0  0  0  0  0  0  0  0  0  0  0  0
    8.0640    1.3471  -56.1811 H   0  0  0  0  0  0  0  0  0  0  0  0
    9.3756    1.2632  -57.4149 H   0  0  0  0  0  0  0  0  0  0  0  0
    8.6750    3.7860  -56.0470 H   0  0  0  0  0  0  0  0  0  0  0  0
   11.7192    2.0607  -56.4075 H   0  0  0  0  0  0  0  0  0  0  0  0
   13.6483    2.9353  -57.7864 H   0  0  0  0  0  0  0  0  0  0  0  0
   14.1430    5.0650  -59.6580 H   0  0  0  0  0  0  0  0  0  0  0  0
   12.6060    7.2730  -61.7830 H   0  0  0  0  0  0  0  0  0  0  0  0
   13.6000    7.9270  -60.5760 H   0  0  0  0  0  0  0  0  0  0  0  0
   10.3462    6.9106  -59.7102 H   0  0  0  0  0  0  0  0  0  0  0  0
  1  2  1  0
  2  3  1  0
  3  4  1  0
  4  5  1  0
  4  6  1  0
  6  7  1  0
  7  8  1  0
  7  9  1  1
  7 10  1  0
 10 11  1  0
 11 12  1  0
 12 13  1  0
 13 14  1  0
 14 15  1  0
 15 16  2  0
 16 17  1  0
 17 18  1  0
 18 19  1  0
 19 20  1  0
 19 21  2  0
 21 22  1  0
 22 23  1  0
 11  2  1  0
 23 14  2  0
 22 17  2  0
  1 24  1  0
  1 25  1  0
  1 26  1  0
  2 27  1  1
  3 28  1  0
  3 29  1  0
  4 30  1  1
  5 31  1  0
  5 32  1  0
  5 33  1  0
  6 34  1  0
  6 35  1  0
  8 36  1  0
  8 37  1  0
  8 38  1  0
  9 39  1  0
 10 40  1  0
 10 41  1  0
 11 42  1  1
 12 43  1  0
 12 44  1  0
 13 45  1  0
 15 46  1  0
 16 47  1  0
 18 48  1  0
 20 49  1  0
 20 50  1  0
 21 51  1  0
M  CHG  1   4   1
M  END
>  <meeko>  (115) 
{"is_sidechain": false}

$$$$

     RDKit          3D

 51 53  0  0  0  0  0  0  0  0999 V2000
    9.1420    5.2670  -56.0350 C   0  0  0  0  0  0  0  0  0  0  0  0
    9.6930    4.3620  -57.1520 C   0  0  2  0  0  0  0  0  0  0  0  0
   10.5490    5.2620  -58.0590 C   0  0  0  0  0  0  0  0  0  0  0  0
   11.2700    4.5080  -59.1520 N   0  0  2  0  0  0  0  0  0  0  0  0
   12.5470    5.2200  -59.5340 C   0  0  0  0  0  0  0  0  0  0  0  0
   10.3970    4.2950  -60.3710 C   0  0  0  0  0  0  0  0  0  0  0  0
    9.5150    3.0260  -60.2820 C   0  0  2  0  0  0  0  0  0  0  0  0
   10.1360    1.8930  -61.1120 C   0  0  0  0  0  0  0  0  0  0  0  0
    8.2610    3.3660  -60.8820 O   0  0  0  0  0  0  0  0  0  0  0  0
    9.2410    2.5210  -58.8530 C   0  0  0  0  0  0  0  0  0  0  0  0
    8.5810    3.5630  -57.9100 C   0  0  1  0  0  0  0  0  0  0  0  0
    7.5990    2.8420  -56.9450 C   0  0  0  0  0  0  0  0  0  0  0  0
    7.0970    1.6140  -57.5620 N   0  0  0  0  0  0  0  0  0  0  0  0
    5.9630    1.8270  -58.3900 C   0  0  0  0  0  0  0  0  0  0  0  0
    4.8310    2.3790  -57.7770 C   0  0  0  0  0  0  0  0  0  0  0  0
    3.6670    2.6180  -58.5080 C   0  0  0  0  0  0  0  0  0  0  0  0
    3.7270    2.2690  -59.8530 C   0  0  0  0  0  0  0  0  0  0  0  0
    2.8000    2.3480  -60.8640 N   0  0  0  0  0  0  0  0  0  0  0  0
    3.3360    1.8730  -62.0330 C   0  0  0  0  0  0  0  0  0  0  0  0
    2.6120    1.8500  -63.1620 N   0  0  0  0  0  0  0  0  0  0  0  0
    4.6260    1.4700  -61.7750 C   0  0  0  0  0  0  0  0  0  0  0  0
    4.8790    1.7190  -60.4040 C   0  0  0  0  0  0  0  0  0  0  0  0
    6.0070    1.4900  -59.6910 N   0  0  0  0  0  0  0  0  0  0  0  0
    9.4021    4.8398  -55.0553 H   0  0  0  0  0  0  0  0  0  0  0  0
    9.5823    6.2709  -56.1258 H   0  0  0  0  0  0  0  0  0  0  0  0
    8.0480    5.3368  -56.1258 H   0  0  0  0  0  0  0  0  0  0  0  0
   10.3138    3.5584  -56.7292 H   0  0  0  0  0  0  0  0  0  0  0  0
    9.8918    6.0094  -58.5274 H   0  0  0  0  0  0  0  0  0  0  0  0
   11.3190    5.7224  -57.4226 H   0  0  0  0  0  0  0  0  0  0  0  0
   11.5670    3.5980  -58.7790 H   0  0  0  0  0  0  0  0  0  0  0  0
   13.0858    5.5204  -58.6233 H   0  0  0  0  0  0  0  0  0  0  0  0
   13.1797    4.5445  -60.1284 H   0  0  0  0  0  0  0  0  0  0  0  0
   12.3050    6.1134  -60.1284 H   0  0  0  0  0  0  0  0  0  0  0  0
    9.7394    5.1692  -60.4858 H   0  0  0  0  0  0  0  0  0  0  0  0
   11.0686    4.1636  -61.2322 H   0  0  0  0  0  0  0  0  0  0  0  0
   10.5537    1.1309  -60.4376 H   0  0  0  0  0  0  0  0  0  0  0  0
    9.3620    1.4366  -61.7465 H   0  0  0  0  0  0  0  0  0  0  0  0
   10.9372    2.2999  -61.7465 H   0  0  0  0  0  0  0  0  0  0  0  0
    8.2450    4.3190  -61.0880 H   0  0  0  0  0  0  0  0  0  0  0  0
    8.5737    1.6491  -58.9202 H   0  0  0  0  0  0  0  0  0  0  0  0
   10.2217    2.2839  -58.4148 H   0  0  0  0  0  0  0  0  0  0  0  0
    7.9942    4.2905  -58.4900 H   0  0  0  0  0  0  0  0  0  0  0  0
    8.1246    2.5915  -56.0117 H   0  0  0  0  0  0  0  0  0  0  0  0
    6.7512    3.5091  -56.7302 H   0  0  0  0  0  0  0  0  0  0  0  0
    6.8270    0.8990  -56.8940 H   0  0  0  0  0  0  0  0  0  0  0  0
    4.8601    2.6272  -56.7058 H   0  0  0  0  0  0  0  0  0  0  0  0
    2.7648    3.0521  -58.0524 H   0  0  0  0  0  0  0  0  0  0  0  0
    1.8570    2.6930  -60.7620 H   0  0  0  0  0  0  0  0  0  0  0  0
    2.0630    1.0480  -63.4600 H   0  0  0  0  0  0  0  0  0  0  0  0
    2.3220    2.7190  -63.6080 H   0  0  0  0  0  0  0  0  0  0  0  0
    5.3303    1.0350  -62.4994 H   0  0  0  0  0  0  0  0  0  0  0  0
  1  2  1  0
  2  3  1  0
  3  4  1  0
  4  5  1  0
  4  6  1  0
  6  7  1  0
  7  8  1  0
  7  9  1  6
  7 10  1  0
 10 11  1  0
 11 12  1  0
 12 13  1  0
 13 14  1  0
 14 15  1  0
 15 16  2  0
 16 17  1  0
 17 18  1  0
 18 19  1  0
 19 20  1  0
 19 21  2  0
 21 22  1  0
 22 23  1  0
 11  2  1  0
 23 14  2  0
 22 17  2  0
  1 24  1  0
  1 25  1  0
  1 26  1  0
  2 27  1  1
  3 28  1  0
  3 29  1  0
  4 30  1  1
  5 31  1  0
  5 32  1  0
  5 33  1  0
  6 34  1  0
  6 35  1  0
  8 36  1  0
  8 37  1  0
  8 38  1  0
  9 39  1  0
 10 40  1  0
 10 41  1  0
 11 42  1  6
 12 43  1  0
 12 44  1  0
 13 45  1  0
 15 46  1  0
 16 47  1  0
 18 48  1  0
 20 49  1  0
 20 50  1  0
 21 51  1  0
M  CHG  1   4   1
M  END
>  <meeko>  (116) 
{"is_sidechain": false}

$$$$

     RDKit          3D

 51 53  0  0  0  0  0  0  0  0999 V2000
   10.3240    4.0410  -56.0770 C   0  0  0  0  0  0  0  0  0  0  0  0
    9.2480    4.4000  -57.1110 C   0  0  1  0  0  0  0  0  0  0  0  0
    9.7540    5.4610  -58.1020 C   0  0  0  0  0  0  0  0  0  0  0  0
   10.6570    4.9240  -59.1770 N   0  0  2  0  0  0  0  0  0  0  0  0
   11.7440    5.9270  -59.5030 C   0  0  0  0  0  0  0  0  0  0  0  0
   10.0120    4.3620  -60.4300 C   0  0  0  0  0  0  0  0  0  0  0  0
    9.3250    2.9920  -60.2610 C   0  0  2  0  0  0  0  0  0  0  0  0
   10.0020    2.0070  -61.2260 C   0  0  0  0  0  0  0  0  0  0  0  0
    7.9640    3.1280  -60.7080 O   0  0  0  0  0  0  0  0  0  0  0  0
    9.2770    2.4270  -58.8270 C   0  0  0  0  0  0  0  0  0  0  0  0
    8.4660    3.1960  -57.7530 C   0  0  1  0  0  0  0  0  0  0  0  0
    7.7060    2.2970  -56.7450 C   0  0  0  0  0  0  0  0  0  0  0  0
    6.9620    1.2070  -57.3660 N   0  0  0  0  0  0  0  0  0  0  0  0
    5.8510    1.5670  -58.1360 C   0  0  0  0  0  0  0  0  0  0  0  0
    4.7880    2.2870  -57.5940 C   0  0  0  0  0  0  0  0  0  0  0  0
    3.7000    2.6450  -58.3910 C   0  0  0  0  0  0  0  0  0  0  0  0
    3.7700    2.2310  -59.7170 C   0  0  0  0  0  0  0  0  0  0  0  0
    2.9040    2.3880  -60.7750 N   0  0  0  0  0  0  0  0  0  0  0  0
    3.4200    1.7910  -61.8950 C   0  0  0  0  0  0  0  0  0  0  0  0
    2.7520    1.8210  -63.0600 N   0  0  0  0  0  0  0  0  0  0  0  0
    4.6350    1.2390  -61.5630 C   0  0  0  0  0  0  0  0  0  0  0  0
    4.8590    1.5070  -60.1910 C   0  0  0  0  0  0  0  0  0  0  0  0
    5.9150    1.1640  -59.4160 N   0  0  0  0  0  0  0  0  0  0  0  0
    9.9183    4.1764  -55.0635 H   0  0  0  0  0  0  0  0  0  0  0  0
   10.6282    2.9927  -56.2132 H   0  0  0  0  0  0  0  0  0  0  0  0
   11.1967    4.6967  -56.2132 H   0  0  0  0  0  0  0  0  0  0  0  0
    8.4378    4.8704  -56.5346 H   0  0  0  0  0  0  0  0  0  0  0  0
    8.8814    5.9248  -58.5852 H   0  0  0  0  0  0  0  0  0  0  0  0
   10.3510    6.1772  -57.5184 H   0  0  0  0  0  0  0  0  0  0  0  0
   11.1590    4.1280  -58.7620 H   0  0  0  0  0  0  0  0  0  0  0  0
   12.1712    6.3212  -58.5691 H   0  0  0  0  0  0  0  0  0  0  0  0
   12.5342    5.4341  -60.0883 H   0  0  0  0  0  0  0  0  0  0  0  0
   11.3161    6.7542  -60.0883 H   0  0  0  0  0  0  0  0  0  0  0  0
    9.2546    5.0816  -60.7741 H   0  0  0  0  0  0  0  0  0  0  0  0
   10.8301    4.2050  -61.1484 H   0  0  0  0  0  0  0  0  0  0  0  0
   10.5326    1.2350  -60.6494 H   0  0  0  0  0  0  0  0  0  0  0  0
    9.2389    1.5316  -61.8598 H   0  0  0  0  0  0  0  0  0  0  0  0
   10.7193    2.5491  -61.8598 H   0  0  0  0  0  0  0  0  0  0  0  0
    7.7840    2.4190  -61.3580 H   0  0  0  0  0  0  0  0  0  0  0  0
    8.8514    1.4147  -58.8915 H   0  0  0  0  0  0  0  0  0  0  0  0
   10.3176    2.4953  -58.4770 H   0  0  0  0  0  0  0  0  0  0  0  0
    7.6505    3.6739  -58.3157 H   0  0  0  0  0  0  0  0  0  0  0  0
    8.4382    1.8631  -56.0482 H   0  0  0  0  0  0  0  0  0  0  0  0
    6.9687    2.9382  -56.2397 H   0  0  0  0  0  0  0  0  0  0  0  0
    7.5110    0.6310  -58.0010 H   0  0  0  0  0  0  0  0  0  0  0  0
    4.8067    2.5746  -56.5324 H   0  0  0  0  0  0  0  0  0  0  0  0
    2.8457    3.2154  -57.9976 H   0  0  0  0  0  0  0  0  0  0  0  0
    2.0230    2.8760  -60.7360 H   0  0  0  0  0  0  0  0  0  0  0  0
    3.0460    1.2160  -63.8250 H   0  0  0  0  0  0  0  0  0  0  0  0
    1.7620    2.0500  -63.1130 H   0  0  0  0  0  0  0  0  0  0  0  0
    5.3082    0.6907  -62.2384 H   0  0  0  0  0  0  0  0  0  0  0  0
  1  2  1  0
  2  3  1  0
  3  4  1  0
  4  5  1  0
  4  6  1  0
  6  7  1  0
  7  8  1  0
  7  9  1  6
  7 10  1  0
 10 11  1  0
 11 12  1  0
 12 13  1  0
 13 14  1  0
 14 15  1  0
 15 16  2  0
 16 17  1  0
 17 18  1  0
 18 19  1  0
 19 20  1  0
 19 21  2  0
 21 22  1  0
 22 23  1  0
 11  2  1  0
 23 14  2  0
 22 17  2  0
  1 24  1  0
  1 25  1  0
  1 26  1  0
  2 27  1  1
  3 28  1  0
  3 29  1  0
  4 30  1  1
  5 31  1  0
  5 32  1  0
  5 33  1  0
  6 34  1  0
  6 35  1  0
  8 36  1  0
  8 37  1  0
  8 38  1  0
  9 39  1  0
 10 40  1  0
 10 41  1  0
 11 42  1  6
 12 43  1  0
 12 44  1  0
 13 45  1  0
 15 46  1  0
 16 47  1  0
 18 48  1  0
 20 49  1  0
 20 50  1  0
 21 51  1  0
M  CHG  1   4   1
M  END
>  <meeko>  (117) 
{"is_sidechain": false}

$$$$

     RDKit          3D

 51 53  0  0  0  0  0  0  0  0999 V2000
    9.2260    5.1460  -56.5320 C   0  0  0  0  0  0  0  0  0  0  0  0
    9.3380    3.7010  -57.0310 C   0  0  2  0  0  0  0  0  0  0  0  0
   10.4620    3.6780  -58.0860 C   0  0  0  0  0  0  0  0  0  0  0  0
   10.2320    4.5850  -59.2560 N   0  0  1  0  0  0  0  0  0  0  0  0
   11.4260    5.4520  -59.5320 C   0  0  0  0  0  0  0  0  0  0  0  0
    9.6740    3.9300  -60.5050 C   0  0  0  0  0  0  0  0  0  0  0  0
    8.2880    3.3410  -60.1440 C   0  0  2  0  0  0  0  0  0  0  0  0
    7.6780    2.6490  -61.3660 C   0  0  0  0  0  0  0  0  0  0  0  0
    7.4590    4.4670  -59.7880 O   0  0  0  0  0  0  0  0  0  0  0  0
    8.3050    2.3740  -58.9410 C   0  0  0  0  0  0  0  0  0  0  0  0
    8.0320    3.0230  -57.5510 C   0  0  1  0  0  0  0  0  0  0  0  0
    7.3970    1.9470  -56.6250 C   0  0  0  0  0  0  0  0  0  0  0  0
    8.3620    1.2560  -55.7660 N   0  0  0  0  0  0  0  0  0  0  0  0
    7.8230    0.2770  -54.9240 C   0  0  0  0  0  0  0  0  0  0  0  0
    6.4430    0.1240  -54.8010 C   0  0  0  0  0  0  0  0  0  0  0  0
    5.9150   -0.8130  -53.9130 C   0  0  0  0  0  0  0  0  0  0  0  0
    6.8520   -1.5440  -53.1890 C   0  0  0  0  0  0  0  0  0  0  0  0
    6.7130   -2.5370  -52.2480 N   0  0  0  0  0  0  0  0  0  0  0  0
    7.9460   -2.9470  -51.8140 C   0  0  0  0  0  0  0  0  0  0  0  0
    8.0630   -3.9050  -50.8780 N   0  0  0  0  0  0  0  0  0  0  0  0
    8.9000   -2.2240  -52.4910 C   0  0  0  0  0  0  0  0  0  0  0  0
    8.2180   -1.3400  -53.3610 C   0  0  0  0  0  0  0  0  0  0  0  0
    8.7290   -0.4260  -54.2190 N   0  0  0  0  0  0  0  0  0  0  0  0
    9.2253    5.1550  -55.4320 H   0  0  0  0  0  0  0  0  0  0  0  0
   10.0816    5.7294  -56.9029 H   0  0  0  0  0  0  0  0  0  0  0  0
    8.2907    5.5906  -56.9029 H   0  0  0  0  0  0  0  0  0  0  0  0
    9.5669    3.0764  -56.1550 H   0  0  0  0  0  0  0  0  0  0  0  0
   11.3997    3.9795  -57.5962 H   0  0  0  0  0  0  0  0  0  0  0  0
   10.4965    2.6536  -58.4853 H   0  0  0  0  0  0  0  0  0  0  0  0
    9.4840    5.2590  -58.9930 H   0  0  0  0  0  0  0  0  0  0  0  0
   11.8719    5.7758  -58.5800 H   0  0  0  0  0  0  0  0  0  0  0  0
   12.1682    4.8810  -60.1091 H   0  0  0  0  0  0  0  0  0  0  0  0
   11.1128    6.3345  -60.1091 H   0  0  0  0  0  0  0  0  0  0  0  0
    9.5674    4.6774  -61.3050 H   0  0  0  0  0  0  0  0  0  0  0  0
   10.3497    3.1386  -60.8615 H   0  0  0  0  0  0  0  0  0  0  0  0
    6.9846    1.8624  -61.0338 H   0  0  0  0  0  0  0  0  0  0  0  0
    7.1318    3.3876  -61.9711 H   0  0  0  0  0  0  0  0  0  0  0  0
    8.4793    2.1998  -61.9711 H   0  0  0  0  0  0  0  0  0  0  0  0
    6.9550    4.7380  -60.5810 H   0  0  0  0  0  0  0  0  0  0  0  0
    7.5360    1.6065  -59.1130 H   0  0  0  0  0  0  0  0  0  0  0  0
    9.3287    1.9747  -58.8906 H   0  0  0  0  0  0  0  0  0  0  0  0
    7.2987    3.8417  -57.5954 H   0  0  0  0  0  0  0  0  0  0  0  0
    6.6523    2.4395  -55.9824 H   0  0  0  0  0  0  0  0  0  0  0  0
    6.9519    1.1847  -57.2813 H   0  0  0  0  0  0  0  0  0  0  0  0
    8.8450    1.8920  -55.1360 H   0  0  0  0  0  0  0  0  0  0  0  0
    5.7672    0.7452  -55.4071 H   0  0  0  0  0  0  0  0  0  0  0  0
    4.8320   -0.9638  -53.7931 H   0  0  0  0  0  0  0  0  0  0  0  0
    5.8330   -2.9070  -51.9200 H   0  0  0  0  0  0  0  0  0  0  0  0
    7.2430   -4.3340  -50.4530 H   0  0  0  0  0  0  0  0  0  0  0  0
    8.8330   -4.5690  -50.9430 H   0  0  0  0  0  0  0  0  0  0  0  0
    9.9903   -2.3156  -52.3775 H   0  0  0  0  0  0  0  0  0  0  0  0
  1  2  1  0
  2  3  1  0
  3  4  1  0
  4  5  1  0
  4  6  1  0
  6  7  1  0
  7  8  1  0
  7  9  1  1
  7 10  1  0
 10 11  1  0
 11 12  1  0
 12 13  1  0
 13 14  1  0
 14 15  1  0
 15 16  2  0
 16 17  1  0
 17 18  1  0
 18 19  1  0
 19 20  1  0
 19 21  2  0
 21 22  1  0
 22 23  1  0
 11  2  1  0
 23 14  2  0
 22 17  2  0
  1 24  1  0
  1 25  1  0
  1 26  1  0
  2 27  1  1
  3 28  1  0
  3 29  1  0
  4 30  1  1
  5 31  1  0
  5 32  1  0
  5 33  1  0
  6 34  1  0
  6 35  1  0
  8 36  1  0
  8 37  1  0
  8 38  1  0
  9 39  1  0
 10 40  1  0
 10 41  1  0
 11 42  1  6
 12 43  1  0
 12 44  1  0
 13 45  1  0
 15 46  1  0
 16 47  1  0
 18 48  1  0
 20 49  1  0
 20 50  1  0
 21 51  1  0
M  CHG  1   4   1
M  END
>  <meeko>  (118) 
{"is_sidechain": false}

$$$$

     RDKit          3D

 51 53  0  0  0  0  0  0  0  0999 V2000
    6.1660    0.1040  -53.8080 C   0  0  0  0  0  0  0  0  0  0  0  0
    7.4680   -0.3360  -53.1190 C   0  0  1  0  0  0  0  0  0  0  0  0
    7.2540   -1.6700  -52.4120 C   0  0  0  0  0  0  0  0  0  0  0  0
    8.4330   -2.1630  -51.6020 N   0  0  1  0  0  0  0  0  0  0  0  0
    8.0700   -2.6140  -50.2170 C   0  0  0  0  0  0  0  0  0  0  0  0
    9.4840   -2.9790  -52.3110 C   0  0  0  0  0  0  0  0  0  0  0  0
   10.1500   -2.3890  -53.6020 C   0  0  2  0  0  0  0  0  0  0  0  0
   10.8300   -3.5340  -54.3720 C   0  0  0  0  0  0  0  0  0  0  0  0
   11.1930   -1.4970  -53.1800 O   0  0  0  0  0  0  0  0  0  0  0  0
    9.2380   -1.6110  -54.5620 C   0  0  0  0  0  0  0  0  0  0  0  0
    8.6900   -0.2510  -54.0650 C   0  0  1  0  0  0  0  0  0  0  0  0
    8.5850    0.7650  -55.2310 C   0  0  0  0  0  0  0  0  0  0  0  0
    9.7870    0.7890  -56.0760 N   0  0  0  0  0  0  0  0  0  0  0  0
   10.0460    1.9890  -56.7760 C   0  0  0  0  0  0  0  0  0  0  0  0
    9.0290    2.9520  -56.7890 C   0  0  0  0  0  0  0  0  0  0  0  0
    9.2220    4.1950  -57.3940 C   0  0  0  0  0  0  0  0  0  0  0  0
   10.4790    4.3950  -57.9490 C   0  0  0  0  0  0  0  0  0  0  0  0
   11.0280    5.4640  -58.6180 N   0  0  0  0  0  0  0  0  0  0  0  0
   12.3250    5.1830  -58.9630 C   0  0  0  0  0  0  0  0  0  0  0  0
   13.0730    6.0850  -59.6170 N   0  0  0  0  0  0  0  0  0  0  0  0
   12.6200    3.9150  -58.5180 C   0  0  0  0  0  0  0  0  0  0  0  0
   11.4590    3.4130  -57.8830 C   0  0  0  0  0  0  0  0  0  0  0  0
   11.2660    2.2150  -57.2830 N   0  0  0  0  0  0  0  0  0  0  0  0
    5.4151    0.3577  -53.0452 H   0  0  0  0  0  0  0  0  0  0  0  0
    6.3632    0.9854  -54.4359 H   0  0  0  0  0  0  0  0  0  0  0  0
    5.7881   -0.7163  -54.4359 H   0  0  0  0  0  0  0  0  0  0  0  0
    7.7319    0.3766  -52.3236 H   0  0  0  0  0  0  0  0  0  0  0  0
    6.3953   -1.5620  -51.7331 H   0  0  0  0  0  0  0  0  0  0  0  0
    7.0940   -2.4151  -53.2052 H   0  0  0  0  0  0  0  0  0  0  0  0
    8.9400   -1.2900  -51.4090 H   0  0  0  0  0  0  0  0  0  0  0  0
    8.5813   -1.9788  -49.4787 H   0  0  0  0  0  0  0  0  0  0  0  0
    6.9817   -2.5337  -50.0787 H   0  0  0  0  0  0  0  0  0  0  0  0
    8.3810   -3.6600  -50.0787 H   0  0  0  0  0  0  0  0  0  0  0  0
   10.2908   -3.1671  -51.5873 H   0  0  0  0  0  0  0  0  0  0  0  0
    8.9379   -3.8630  -52.6719 H   0  0  0  0  0  0  0  0  0  0  0  0
   11.2572   -4.2533  -53.6577 H   0  0  0  0  0  0  0  0  0  0  0  0
   10.0873   -4.0424  -55.0044 H   0  0  0  0  0  0  0  0  0  0  0  0
   11.6318   -3.1251  -55.0044 H   0  0  0  0  0  0  0  0  0  0  0  0
   11.1880   -1.4410  -52.2050 H   0  0  0  0  0  0  0  0  0  0  0  0
    9.8098   -1.4218  -55.4825 H   0  0  0  0  0  0  0  0  0  0  0  0
    8.3496   -2.2470  -54.6898 H   0  0  0  0  0  0  0  0  0  0  0  0
    9.4406    0.1635  -53.3760 H   0  0  0  0  0  0  0  0  0  0  0  0
    7.7214    0.4943  -55.8562 H   0  0  0  0  0  0  0  0  0  0  0  0
    8.4713    1.7657  -54.7888 H   0  0  0  0  0  0  0  0  0  0  0  0
   10.6080    0.6180  -55.4930 H   0  0  0  0  0  0  0  0  0  0  0  0
    8.0627    2.7251  -56.3148 H   0  0  0  0  0  0  0  0  0  0  0  0
    8.4341    4.9618  -57.4287 H   0  0  0  0  0  0  0  0  0  0  0  0
   10.5560    6.3320  -58.8200 H   0  0  0  0  0  0  0  0  0  0  0  0
   13.7580    5.8180  -60.3200 H   0  0  0  0  0  0  0  0  0  0  0  0
   13.3240    6.9610  -59.1590 H   0  0  0  0  0  0  0  0  0  0  0  0
   13.5793    3.3894  -58.6341 H   0  0  0  0  0  0  0  0  0  0  0  0
  1  2  1  0
  2  3  1  0
  3  4  1  0
  4  5  1  0
  4  6  1  0
  6  7  1  0
  7  8  1  0
  7  9  1  1
  7 10  1  0
 10 11  1  0
 11 12  1  0
 12 13  1  0
 13 14  1  0
 14 15  1  0
 15 16  2  0
 16 17  1  0
 17 18  1  0
 18 19  1  0
 19 20  1  0
 19 21  2  0
 21 22  1  0
 22 23  1  0
 11  2  1  0
 23 14  2  0
 22 17  2  0
  1 24  1  0
  1 25  1  0
  1 26  1  0
  2 27  1  1
  3 28  1  0
  3 29  1  0
  4 30  1  1
  5 31  1  0
  5 32  1  0
  5 33  1  0
  6 34  1  0
  6 35  1  0
  8 36  1  0
  8 37  1  0
  8 38  1  0
  9 39  1  0
 10 40  1  0
 10 41  1  0
 11 42  1  1
 12 43  1  0
 12 44  1  0
 13 45  1  0
 15 46  1  0
 16 47  1  0
 18 48  1  0
 20 49  1  0
 20 50  1  0
 21 51  1  0
M  CHG  1   4   1
M  END
>  <meeko>  (119) 
{"is_sidechain": false}

$$$$

     RDKit          3D

 51 53  0  0  0  0  0  0  0  0999 V2000
    9.0860    5.2700  -56.2040 C   0  0  0  0  0  0  0  0  0  0  0  0
    9.8450    4.1950  -57.0090 C   0  0  2  0  0  0  0  0  0  0  0  0
   10.9160    4.9070  -57.8480 C   0  0  0  0  0  0  0  0  0  0  0  0
   11.5010    3.9730  -58.8780 N   0  0  2  0  0  0  0  0  0  0  0  0
   12.9870    4.1440  -59.0230 C   0  0  0  0  0  0  0  0  0  0  0  0
   10.8030    4.0080  -60.2180 C   0  0  0  0  0  0  0  0  0  0  0  0
    9.7540    2.8640  -60.2760 C   0  0  1  0  0  0  0  0  0  0  0  0
    8.4810    3.3900  -60.9530 C   0  0  0  0  0  0  0  0  0  0  0  0
   10.3110    1.8160  -61.0810 O   0  0  0  0  0  0  0  0  0  0  0  0
    9.4280    2.3550  -58.8620 C   0  0  0  0  0  0  0  0  0  0  0  0
    8.8320    3.3390  -57.8250 C   0  0  1  0  0  0  0  0  0  0  0  0
    7.8390    2.6230  -56.8590 C   0  0  0  0  0  0  0  0  0  0  0  0
    7.1810    1.4620  -57.4580 N   0  0  0  0  0  0  0  0  0  0  0  0
    6.0130    1.7350  -58.1790 C   0  0  0  0  0  0  0  0  0  0  0  0
    4.9220    2.3660  -57.5820 C   0  0  0  0  0  0  0  0  0  0  0  0
    3.7770    2.6480  -58.3260 C   0  0  0  0  0  0  0  0  0  0  0  0
    3.8210    2.2570  -59.6600 C   0  0  0  0  0  0  0  0  0  0  0  0
    2.9000    2.3570  -60.6770 N   0  0  0  0  0  0  0  0  0  0  0  0
    3.4120    1.8170  -61.8280 C   0  0  0  0  0  0  0  0  0  0  0  0
    2.6910    1.8100  -62.9620 N   0  0  0  0  0  0  0  0  0  0  0  0
    4.6790    1.3580  -61.5570 C   0  0  0  0  0  0  0  0  0  0  0  0
    4.9420    1.6260  -60.1920 C   0  0  0  0  0  0  0  0  0  0  0  0
    6.0540    1.3560  -59.4680 N   0  0  0  0  0  0  0  0  0  0  0  0
    9.2177    5.0834  -55.1280 H   0  0  0  0  0  0  0  0  0  0  0  0
    9.4832    6.2646  -56.4550 H   0  0  0  0  0  0  0  0  0  0  0  0
    8.0158    5.2285  -56.4550 H   0  0  0  0  0  0  0  0  0  0  0  0
   10.3693    3.4755  -56.3628 H   0  0  0  0  0  0  0  0  0  0  0  0
   10.4598    5.7673  -58.3596 H   0  0  0  0  0  0  0  0  0  0  0  0
   11.7221    5.2417  -57.1786 H   0  0  0  0  0  0  0  0  0  0  0  0
   11.3420    3.0020  -58.5560 H   0  0  0  0  0  0  0  0  0  0  0  0
   13.4490    4.1972  -58.0261 H   0  0  0  0  0  0  0  0  0  0  0  0
   13.4025    3.2877  -59.5745 H   0  0  0  0  0  0  0  0  0  0  0  0
   13.1972    5.0723  -59.5745 H   0  0  0  0  0  0  0  0  0  0  0  0
   10.2983    4.9771  -60.3450 H   0  0  0  0  0  0  0  0  0  0  0  0
   11.5406    3.8749  -61.0231 H   0  0  0  0  0  0  0  0  0  0  0  0
    7.7541    3.6904  -60.1840 H   0  0  0  0  0  0  0  0  0  0  0  0
    8.7313    4.2584  -61.5801 H   0  0  0  0  0  0  0  0  0  0  0  0
    8.0453    2.5982  -61.5801 H   0  0  0  0  0  0  0  0  0  0  0  0
    9.7180    1.0390  -61.0200 H   0  0  0  0  0  0  0  0  0  0  0  0
    8.7077    1.5313  -58.9748 H   0  0  0  0  0  0  0  0  0  0  0  0
   10.4117    2.0965  -58.4430 H   0  0  0  0  0  0  0  0  0  0  0  0
    8.3004    4.0655  -58.4571 H   0  0  0  0  0  0  0  0  0  0  0  0
    8.3960    2.2886  -55.9714 H   0  0  0  0  0  0  0  0  0  0  0  0
    7.0514    3.3483  -56.6068 H   0  0  0  0  0  0  0  0  0  0  0  0
    7.7650    0.9710  -58.1320 H   0  0  0  0  0  0  0  0  0  0  0  0
    4.9650    2.6428  -56.5183 H   0  0  0  0  0  0  0  0  0  0  0  0
    2.8992    3.1455  -57.8880 H   0  0  0  0  0  0  0  0  0  0  0  0
    1.9850    2.7730  -60.5930 H   0  0  0  0  0  0  0  0  0  0  0  0
    2.5010    0.9530  -63.4760 H   0  0  0  0  0  0  0  0  0  0  0  0
    2.7190    2.6220  -63.5770 H   0  0  0  0  0  0  0  0  0  0  0  0
    5.3623    0.8722  -62.2691 H   0  0  0  0  0  0  0  0  0  0  0  0
  1  2  1  0
  2  3  1  0
  3  4  1  0
  4  5  1  0
  4  6  1  0
  6  7  1  0
  7  8  1  0
  7  9  1  6
  7 10  1  0
 10 11  1  0
 11 12  1  0
 12 13  1  0
 13 14  1  0
 14 15  1  0
 15 16  2  0
 16 17  1  0
 17 18  1  0
 18 19  1  0
 19 20  1  0
 19 21  2  0
 21 22  1  0
 22 23  1  0
 11  2  1  0
 23 14  2  0
 22 17  2  0
  1 24  1  0
  1 25  1  0
  1 26  1  0
  2 27  1  1
  3 28  1  0
  3 29  1  0
  4 30  1  1
  5 31  1  0
  5 32  1  0
  5 33  1  0
  6 34  1  0
  6 35  1  0
  8 36  1  0
  8 37  1  0
  8 38  1  0
  9 39  1  0
 10 40  1  0
 10 41  1  0
 11 42  1  6
 12 43  1  0
 12 44  1  0
 13 45  1  0
 15 46  1  0
 16 47  1  0
 18 48  1  0
 20 49  1  0
 20 50  1  0
 21 51  1  0
M  CHG  1   4   1
M  END
>  <meeko>  (120) 
{"is_sidechain": false}

$$$$

     RDKit          3D

 51 53  0  0  0  0  0  0  0  0999 V2000
   10.0080    4.4020  -56.0640 C   0  0  0  0  0  0  0  0  0  0  0  0
    9.1010    4.7320  -57.2520 C   0  0  1  0  0  0  0  0  0  0  0  0
    9.7770    5.6500  -58.2750 C   0  0  0  0  0  0  0  0  0  0  0  0
   10.8200    5.0140  -59.1450 N   0  0  2  0  0  0  0  0  0  0  0  0
   11.9690    5.9680  -59.3870 C   0  0  0  0  0  0  0  0  0  0  0  0
   10.4280    4.2850  -60.4070 C   0  0  0  0  0  0  0  0  0  0  0  0
    9.4510    3.0960  -60.2940 C   0  0  1  0  0  0  0  0  0  0  0  0
    8.1440    3.2860  -61.0620 C   0  0  0  0  0  0  0  0  0  0  0  0
   10.1270    2.0020  -60.9510 O   0  0  0  0  0  0  0  0  0  0  0  0
    9.2530    2.6510  -58.8360 C   0  0  0  0  0  0  0  0  0  0  0  0
    8.3800    3.5330  -57.9280 C   0  0  1  0  0  0  0  0  0  0  0  0
    7.5960    2.6640  -56.9050 C   0  0  0  0  0  0  0  0  0  0  0  0
    7.0480    1.4710  -57.5400 N   0  0  0  0  0  0  0  0  0  0  0  0
    5.8990    1.7450  -58.3060 C   0  0  0  0  0  0  0  0  0  0  0  0
    4.8140    2.4340  -57.7640 C   0  0  0  0  0  0  0  0  0  0  0  0
    3.6860    2.6890  -58.5410 C   0  0  0  0  0  0  0  0  0  0  0  0
    3.7370    2.2070  -59.8460 C   0  0  0  0  0  0  0  0  0  0  0  0
    2.8340    2.2650  -60.8820 N   0  0  0  0  0  0  0  0  0  0  0  0
    3.3440    1.6330  -61.9850 C   0  0  0  0  0  0  0  0  0  0  0  0
    2.6410    1.5650  -63.1270 N   0  0  0  0  0  0  0  0  0  0  0  0
    4.5960    1.1610  -61.6650 C   0  0  0  0  0  0  0  0  0  0  0  0
    4.8490    1.5170  -60.3190 C   0  0  0  0  0  0  0  0  0  0  0  0
    5.9440    1.2690  -59.5610 N   0  0  0  0  0  0  0  0  0  0  0  0
    9.4689    4.5982  -55.1255 H   0  0  0  0  0  0  0  0  0  0  0  0
   10.2964    3.3413  -56.1064 H   0  0  0  0  0  0  0  0  0  0  0  0
   10.9106    5.0294  -56.1064 H   0  0  0  0  0  0  0  0  0  0  0  0
    8.2793    5.2913  -56.7808 H   0  0  0  0  0  0  0  0  0  0  0  0
    8.9934    6.0557  -58.9318 H   0  0  0  0  0  0  0  0  0  0  0  0
   10.3090    6.4099  -57.6837 H   0  0  0  0  0  0  0  0  0  0  0  0
   11.2320    4.2740  -58.5610 H   0  0  0  0  0  0  0  0  0  0  0  0
   12.3751    6.3052  -58.4219 H   0  0  0  0  0  0  0  0  0  0  0  0
   12.7574    5.4552  -59.9575 H   0  0  0  0  0  0  0  0  0  0  0  0
   11.6099    6.8372  -59.9575 H   0  0  0  0  0  0  0  0  0  0  0  0
    9.9656    5.0232  -61.0788 H   0  0  0  0  0  0  0  0  0  0  0  0
   11.3660    3.8317  -60.7600 H   0  0  0  0  0  0  0  0  0  0  0  0
    7.3144    3.4066  -60.3498 H   0  0  0  0  0  0  0  0  0  0  0  0
    8.2175    4.1829  -61.6946 H   0  0  0  0  0  0  0  0  0  0  0  0
    7.9591    2.4053  -61.6946 H   0  0  0  0  0  0  0  0  0  0  0  0
   11.0340    1.9230  -60.6010 H   0  0  0  0  0  0  0  0  0  0  0  0
    8.7968    1.6503  -58.8578 H   0  0  0  0  0  0  0  0  0  0  0  0
   10.2577    2.7059  -58.3914 H   0  0  0  0  0  0  0  0  0  0  0  0
    7.6665    4.0214  -58.6080 H   0  0  0  0  0  0  0  0  0  0  0  0
    8.2765    2.3599  -56.0960 H   0  0  0  0  0  0  0  0  0  0  0  0
    6.7629    3.2610  -56.5057 H   0  0  0  0  0  0  0  0  0  0  0  0
    7.6750    1.1320  -58.2760 H   0  0  0  0  0  0  0  0  0  0  0  0
    4.8491    2.7772  -56.7195 H   0  0  0  0  0  0  0  0  0  0  0  0
    2.8143    3.2342  -58.1499 H   0  0  0  0  0  0  0  0  0  0  0  0
    1.9320    2.7150  -60.8430 H   0  0  0  0  0  0  0  0  0  0  0  0
    3.0690    1.6560  -64.0450 H   0  0  0  0  0  0  0  0  0  0  0  0
    1.6510    1.8010  -63.1320 H   0  0  0  0  0  0  0  0  0  0  0  0
    5.2747    0.6091  -62.3319 H   0  0  0  0  0  0  0  0  0  0  0  0
  1  2  1  0
  2  3  1  0
  3  4  1  0
  4  5  1  0
  4  6  1  0
  6  7  1  0
  7  8  1  0
  7  9  1  6
  7 10  1  0
 10 11  1  0
 11 12  1  0
 12 13  1  0
 13 14  1  0
 14 15  1  0
 15 16  2  0
 16 17  1  0
 17 18  1  0
 18 19  1  0
 19 20  1  0
 19 21  2  0
 21 22  1  0
 22 23  1  0
 11  2  1  0
 23 14  2  0
 22 17  2  0
  1 24  1  0
  1 25  1  0
  1 26  1  0
  2 27  1  1
  3 28  1  0
  3 29  1  0
  4 30  1  1
  5 31  1  0
  5 32  1  0
  5 33  1  0
  6 34  1  0
  6 35  1  0
  8 36  1  0
  8 37  1  0
  8 38  1  0
  9 39  1  0
 10 40  1  0
 10 41  1  0
 11 42  1  6
 12 43  1  0
 12 44  1  0
 13 45  1  0
 15 46  1  0
 16 47  1  0
 18 48  1  0
 20 49  1  0
 20 50  1  0
 21 51  1  0
M  CHG  1   4   1
M  END
>  <meeko>  (121) 
{"is_sidechain": false}

$$$$

     RDKit          3D

 51 53  0  0  0  0  0  0  0  0999 V2000
    9.2690    5.2550  -56.4570 C   0  0  0  0  0  0  0  0  0  0  0  0
    9.5640    3.7470  -56.5270 C   0  0  2  0  0  0  0  0  0  0  0  0
   10.9740    3.5860  -57.1170 C   0  0  0  0  0  0  0  0  0  0  0  0
   11.2300    4.3820  -58.3710 N   0  0  1  0  0  0  0  0  0  0  0  0
   12.6430    4.9240  -58.4030 C   0  0  0  0  0  0  0  0  0  0  0  0
   10.8930    3.7690  -59.7040 C   0  0  0  0  0  0  0  0  0  0  0  0
    9.5000    3.1390  -59.8330 C   0  0  1  0  0  0  0  0  0  0  0  0
    8.4020    4.1360  -60.2070 C   0  0  0  0  0  0  0  0  0  0  0  0
    9.6030    2.2330  -60.9500 O   0  0  0  0  0  0  0  0  0  0  0  0
    9.1470    2.2790  -58.6120 C   0  0  0  0  0  0  0  0  0  0  0  0
    8.5100    2.9650  -57.3800 C   0  0  1  0  0  0  0  0  0  0  0  0
    7.7380    1.8900  -56.5620 C   0  0  0  0  0  0  0  0  0  0  0  0
    8.6810    1.1460  -55.7280 N   0  0  0  0  0  0  0  0  0  0  0  0
    8.0440    0.1980  -54.9070 C   0  0  0  0  0  0  0  0  0  0  0  0
    6.6630    0.0090  -54.9590 C   0  0  0  0  0  0  0  0  0  0  0  0
    6.0530   -0.9360  -54.1350 C   0  0  0  0  0  0  0  0  0  0  0  0
    6.9100   -1.6350  -53.2900 C   0  0  0  0  0  0  0  0  0  0  0  0
    6.6780   -2.6180  -52.3570 N   0  0  0  0  0  0  0  0  0  0  0  0
    7.8570   -2.9940  -51.7680 C   0  0  0  0  0  0  0  0  0  0  0  0
    7.8810   -3.9480  -50.8230 N   0  0  0  0  0  0  0  0  0  0  0  0
    8.8690   -2.2490  -52.3270 C   0  0  0  0  0  0  0  0  0  0  0  0
    8.2800   -1.3880  -53.2830 C   0  0  0  0  0  0  0  0  0  0  0  0
    8.8700   -0.4700  -54.0850 N   0  0  0  0  0  0  0  0  0  0  0  0
    9.2077    5.5682  -55.4043 H   0  0  0  0  0  0  0  0  0  0  0  0
   10.0756    5.8101  -56.9583 H   0  0  0  0  0  0  0  0  0  0  0  0
    8.3127    5.4652  -56.9583 H   0  0  0  0  0  0  0  0  0  0  0  0
    9.5042    3.3168  -55.5164 H   0  0  0  0  0  0  0  0  0  0  0  0
   11.7017    3.9037  -56.3557 H   0  0  0  0  0  0  0  0  0  0  0  0
   11.0729    2.5269  -57.3973 H   0  0  0  0  0  0  0  0  0  0  0  0
   10.6330    5.2180  -58.2960 H   0  0  0  0  0  0  0  0  0  0  0  0
   13.0057    5.0631  -57.3739 H   0  0  0  0  0  0  0  0  0  0  0  0
   13.2967    4.2128  -58.9292 H   0  0  0  0  0  0  0  0  0  0  0  0
   12.6534    5.8899  -58.9292 H   0  0  0  0  0  0  0  0  0  0  0  0
   10.9750    4.5584  -60.4656 H   0  0  0  0  0  0  0  0  0  0  0  0
   11.6023    2.9378  -59.8309 H   0  0  0  0  0  0  0  0  0  0  0  0
    7.9510    4.5455  -59.2910 H   0  0  0  0  0  0  0  0  0  0  0  0
    8.8364    4.9547  -60.7995 H   0  0  0  0  0  0  0  0  0  0  0  0
    7.6289    3.6248  -60.7995 H   0  0  0  0  0  0  0  0  0  0  0  0
   10.4400    2.4040  -61.4240 H   0  0  0  0  0  0  0  0  0  0  0  0
    8.4423    1.5063  -58.9529 H   0  0  0  0  0  0  0  0  0  0  0  0
   10.1209    1.9222  -58.2456 H   0  0  0  0  0  0  0  0  0  0  0  0
    7.7968    3.7337  -57.7124 H   0  0  0  0  0  0  0  0  0  0  0  0
    6.9908    2.3821  -55.9220 H   0  0  0  0  0  0  0  0  0  0  0  0
    7.2305    1.1982  -57.2504 H   0  0  0  0  0  0  0  0  0  0  0  0
    9.2700    0.5380  -56.3030 H   0  0  0  0  0  0  0  0  0  0  0  0
    6.0534    0.6073  -55.6521 H   0  0  0  0  0  0  0  0  0  0  0  0
    4.9681   -1.1168  -54.1516 H   0  0  0  0  0  0  0  0  0  0  0  0
    5.7770   -3.0150  -52.1410 H   0  0  0  0  0  0  0  0  0  0  0  0
    7.0440   -4.4320  -50.5090 H   0  0  0  0  0  0  0  0  0  0  0  0
    8.6160   -3.9460  -50.1180 H   0  0  0  0  0  0  0  0  0  0  0  0
    9.9384   -2.3110  -52.0771 H   0  0  0  0  0  0  0  0  0  0  0  0
  1  2  1  0
  2  3  1  0
  3  4  1  0
  4  5  1  0
  4  6  1  0
  6  7  1  0
  7  8  1  0
  7  9  1  6
  7 10  1  0
 10 11  1  0
 11 12  1  0
 12 13  1  0
 13 14  1  0
 14 15  1  0
 15 16  2  0
 16 17  1  0
 17 18  1  0
 18 19  1  0
 19 20  1  0
 19 21  2  0
 21 22  1  0
 22 23  1  0
 11  2  1  0
 23 14  2  0
 22 17  2  0
  1 24  1  0
  1 25  1  0
  1 26  1  0
  2 27  1  1
  3 28  1  0
  3 29  1  0
  4 30  1  1
  5 31  1  0
  5 32  1  0
  5 33  1  0
  6 34  1  0
  6 35  1  0
  8 36  1  0
  8 37  1  0
  8 38  1  0
  9 39  1  0
 10 40  1  0
 10 41  1  0
 11 42  1  6
 12 43  1  0
 12 44  1  0
 13 45  1  0
 15 46  1  0
 16 47  1  0
 18 48  1  0
 20 49  1  0
 20 50  1  0
 21 51  1  0
M  CHG  1   4   1
M  END
>  <meeko>  (122) 
{"is_sidechain": false}

$$$$

     RDKit          3D

 51 53  0  0  0  0  0  0  0  0999 V2000
    5.8710   -0.4070  -54.1460 C   0  0  0  0  0  0  0  0  0  0  0  0
    7.0890   -0.5340  -53.2310 C   0  0  1  0  0  0  0  0  0  0  0  0
    7.0090   -1.6810  -52.2210 C   0  0  0  0  0  0  0  0  0  0  0  0
    8.2970   -2.2320  -51.6730 N   0  0  1  0  0  0  0  0  0  0  0  0
    8.1380   -2.7370  -50.2530 C   0  0  0  0  0  0  0  0  0  0  0  0
    9.1180   -3.2070  -52.4720 C   0  0  0  0  0  0  0  0  0  0  0  0
    9.8430   -2.6740  -53.7290 C   0  0  1  0  0  0  0  0  0  0  0  0
   11.2190   -2.0790  -53.4260 C   0  0  0  0  0  0  0  0  0  0  0  0
   10.0860   -3.8500  -54.5270 O   0  0  0  0  0  0  0  0  0  0  0  0
    8.9520   -1.7580  -54.5840 C   0  0  0  0  0  0  0  0  0  0  0  0
    8.4640   -0.4490  -53.9480 C   0  0  1  0  0  0  0  0  0  0  0  0
    8.4390    0.6850  -55.0100 C   0  0  0  0  0  0  0  0  0  0  0  0
    9.6610    0.6370  -55.8120 N   0  0  0  0  0  0  0  0  0  0  0  0
    9.9390    1.8590  -56.4820 C   0  0  0  0  0  0  0  0  0  0  0  0
    8.8900    2.7820  -56.5690 C   0  0  0  0  0  0  0  0  0  0  0  0
    9.0670    4.0080  -57.2110 C   0  0  0  0  0  0  0  0  0  0  0  0
   10.3310    4.2220  -57.7460 C   0  0  0  0  0  0  0  0  0  0  0  0
   10.8700    5.2840  -58.4330 N   0  0  0  0  0  0  0  0  0  0  0  0
   12.1730    5.0190  -58.7590 C   0  0  0  0  0  0  0  0  0  0  0  0
   12.9090    5.9180  -59.4330 N   0  0  0  0  0  0  0  0  0  0  0  0
   12.4890    3.7720  -58.2740 C   0  0  0  0  0  0  0  0  0  0  0  0
   11.3320    3.2630  -57.6370 C   0  0  0  0  0  0  0  0  0  0  0  0
   11.1560    2.0740  -57.0130 N   0  0  0  0  0  0  0  0  0  0  0  0
    4.9614   -0.3122  -53.5347 H   0  0  0  0  0  0  0  0  0  0  0  0
    5.9807    0.4846  -54.7809 H   0  0  0  0  0  0  0  0  0  0  0  0
    5.7944   -1.3020  -54.7809 H   0  0  0  0  0  0  0  0  0  0  0  0
    7.0344    0.3853  -52.6294 H   0  0  0  0  0  0  0  0  0  0  0  0
    6.4166   -1.3230  -51.3661 H   0  0  0  0  0  0  0  0  0  0  0  0
    6.5729   -2.5163  -52.7886 H   0  0  0  0  0  0  0  0  0  0  0  0
    8.9060   -1.4080  -51.5710 H   0  0  0  0  0  0  0  0  0  0  0  0
    8.3914   -1.9323  -49.5471 H   0  0  0  0  0  0  0  0  0  0  0  0
    7.0969   -3.0529  -50.0906 H   0  0  0  0  0  0  0  0  0  0  0  0
    8.8103   -3.5924  -50.0906 H   0  0  0  0  0  0  0  0  0  0  0  0
    9.8853   -3.6188  -51.7999 H   0  0  0  0  0  0  0  0  0  0  0  0
    8.3885   -3.9339  -52.8586 H   0  0  0  0  0  0  0  0  0  0  0  0
   11.3603   -2.0179  -52.3368 H   0  0  0  0  0  0  0  0  0  0  0  0
   11.9996   -2.7200  -53.8616 H   0  0  0  0  0  0  0  0  0  0  0  0
   11.2867   -1.0712  -53.8616 H   0  0  0  0  0  0  0  0  0  0  0  0
   10.1700   -4.6270  -53.9410 H   0  0  0  0  0  0  0  0  0  0  0  0
    9.5221   -1.4932  -55.4867 H   0  0  0  0  0  0  0  0  0  0  0  0
    8.0367   -2.3423  -54.7598 H   0  0  0  0  0  0  0  0  0  0  0  0
    9.1923   -0.2272  -53.1540 H   0  0  0  0  0  0  0  0  0  0  0  0
    7.5659    0.5524  -55.6658 H   0  0  0  0  0  0  0  0  0  0  0  0
    8.3751    1.6584  -54.5017 H   0  0  0  0  0  0  0  0  0  0  0  0
    9.6300   -0.0760  -56.5360 H   0  0  0  0  0  0  0  0  0  0  0  0
    7.9135    2.5375  -56.1254 H   0  0  0  0  0  0  0  0  0  0  0  0
    8.2617    4.7533  -57.2882 H   0  0  0  0  0  0  0  0  0  0  0  0
   10.3820    6.1380  -58.6550 H   0  0  0  0  0  0  0  0  0  0  0  0
   12.6070    6.3430  -60.3060 H   0  0  0  0  0  0  0  0  0  0  0  0
   13.9190    5.9560  -59.3050 H   0  0  0  0  0  0  0  0  0  0  0  0
   13.4606    3.2641  -58.3642 H   0  0  0  0  0  0  0  0  0  0  0  0
  1  2  1  0
  2  3  1  0
  3  4  1  0
  4  5  1  0
  4  6  1  0
  6  7  1  0
  7  8  1  0
  7  9  1  6
  7 10  1  0
 10 11  1  0
 11 12  1  0
 12 13  1  0
 13 14  1  0
 14 15  1  0
 15 16  2  0
 16 17  1  0
 17 18  1  0
 18 19  1  0
 19 20  1  0
 19 21  2  0
 21 22  1  0
 22 23  1  0
 11  2  1  0
 23 14  2  0
 22 17  2  0
  1 24  1  0
  1 25  1  0
  1 26  1  0
  2 27  1  1
  3 28  1  0
  3 29  1  0
  4 30  1  1
  5 31  1  0
  5 32  1  0
  5 33  1  0
  6 34  1  0
  6 35  1  0
  8 36  1  0
  8 37  1  0
  8 38  1  0
  9 39  1  0
 10 40  1  0
 10 41  1  0
 11 42  1  1
 12 43  1  0
 12 44  1  0
 13 45  1  0
 15 46  1  0
 16 47  1  0
 18 48  1  0
 20 49  1  0
 20 50  1  0
 21 51  1  0
M  CHG  1   4   1
M  END
>  <meeko>  (123) 
{"is_sidechain": false}

$$$$

     RDKit          3D

 51 53  0  0  0  0  0  0  0  0999 V2000
    9.2750    5.0270  -56.4530 C   0  0  0  0  0  0  0  0  0  0  0  0
    9.3920    3.5080  -56.6310 C   0  0  2  0  0  0  0  0  0  0  0  0
   10.7750    3.0460  -57.0930 C   0  0  0  0  0  0  0  0  0  0  0  0
   11.1710    3.3230  -58.5200 N   0  0  2  0  0  0  0  0  0  0  0  0
   12.6090    3.7700  -58.6480 C   0  0  0  0  0  0  0  0  0  0  0  0
   10.2830    4.1600  -59.3990 C   0  0  0  0  0  0  0  0  0  0  0  0
    8.9640    3.5220  -59.8930 C   0  0  2  0  0  0  0  0  0  0  0  0
    9.0450    3.0210  -61.3320 C   0  0  0  0  0  0  0  0  0  0  0  0
    8.0240    4.6250  -59.9410 O   0  0  0  0  0  0  0  0  0  0  0  0
    8.3700    2.5440  -58.8670 C   0  0  0  0  0  0  0  0  0  0  0  0
    8.1760    2.9180  -57.3880 C   0  0  1  0  0  0  0  0  0  0  0  0
    7.4130    1.8410  -56.5820 C   0  0  0  0  0  0  0  0  0  0  0  0
    8.3230    1.0490  -55.7740 N   0  0  0  0  0  0  0  0  0  0  0  0
    7.8370    0.2350  -54.8790 C   0  0  0  0  0  0  0  0  0  0  0  0
    6.3430    0.0600  -54.6000 C   0  0  0  0  0  0  0  0  0  0  0  0
    5.9480   -0.8070  -53.6490 C   0  0  0  0  0  0  0  0  0  0  0  0
    6.9840   -1.4890  -52.9900 C   0  0  0  0  0  0  0  0  0  0  0  0
    6.8130   -2.4100  -51.9970 N   0  0  0  0  0  0  0  0  0  0  0  0
    8.0520   -2.8640  -51.6040 C   0  0  0  0  0  0  0  0  0  0  0  0
    8.1660   -3.7820  -50.6310 N   0  0  0  0  0  0  0  0  0  0  0  0
    9.0170   -2.2170  -52.3540 C   0  0  0  0  0  0  0  0  0  0  0  0
    8.3280   -1.3550  -53.2220 C   0  0  0  0  0  0  0  0  0  0  0  0
    8.7730   -0.4970  -54.1580 N   0  0  0  0  0  0  0  0  0  0  0  0
    9.2563    5.2701  -55.3804 H   0  0  0  0  0  0  0  0  0  0  0  0
   10.1379    5.5191  -56.9255 H   0  0  0  0  0  0  0  0  0  0  0  0
    8.3469    5.3811  -56.9255 H   0  0  0  0  0  0  0  0  0  0  0  0
    9.3284    3.0527  -55.6317 H   0  0  0  0  0  0  0  0  0  0  0  0
   11.5172    3.5366  -56.4461 H   0  0  0  0  0  0  0  0  0  0  0  0
   10.7357    1.9488  -57.0259 H   0  0  0  0  0  0  0  0  0  0  0  0
   11.1600    2.3940  -58.9620 H   0  0  0  0  0  0  0  0  0  0  0  0
   13.0418    3.9045  -57.6457 H   0  0  0  0  0  0  0  0  0  0  0  0
   13.1825    3.0077  -59.1957 H   0  0  0  0  0  0  0  0  0  0  0  0
   12.6493    4.7231  -59.1957 H   0  0  0  0  0  0  0  0  0  0  0  0
   10.0196    5.0663  -58.8341 H   0  0  0  0  0  0  0  0  0  0  0  0
   10.8719    4.3303  -60.3123 H   0  0  0  0  0  0  0  0  0  0  0  0
    9.2206    1.9351  -61.3329 H   0  0  0  0  0  0  0  0  0  0  0  0
    8.0998    3.2400  -61.8503 H   0  0  0  0  0  0  0  0  0  0  0  0
    9.8730    3.5267  -61.8503 H   0  0  0  0  0  0  0  0  0  0  0  0
    7.8790    4.9500  -59.0310 H   0  0  0  0  0  0  0  0  0  0  0  0
    7.3745    2.2700  -59.2463 H   0  0  0  0  0  0  0  0  0  0  0  0
    9.1552    1.7761  -58.8052 H   0  0  0  0  0  0  0  0  0  0  0  0
    7.5189    3.7969  -57.4636 H   0  0  0  0  0  0  0  0  0  0  0  0
    6.6845    2.3351  -55.9224 H   0  0  0  0  0  0  0  0  0  0  0  0
    6.9025    1.1717  -57.2901 H   0  0  0  0  0  0  0  0  0  0  0  0
    5.5997    0.6364  -55.1703 H   0  0  0  0  0  0  0  0  0  0  0  0
    4.8878   -0.9700  -53.4050 H   0  0  0  0  0  0  0  0  0  0  0  0
    5.9350   -2.7100  -51.6000 H   0  0  0  0  0  0  0  0  0  0  0  0
    8.0480   -4.7710  -50.8370 H   0  0  0  0  0  0  0  0  0  0  0  0
    8.0220   -3.5660  -49.6480 H   0  0  0  0  0  0  0  0  0  0  0  0
   10.1066   -2.3509  -52.2844 H   0  0  0  0  0  0  0  0  0  0  0  0
    9.7460   -0.3780  -54.3870 H   0  0  0  0  0  0  0  0  0  0  0  0
  1  2  1  0
  2  3  1  0
  3  4  1  0
  4  5  1  0
  4  6  1  0
  6  7  1  0
  7  8  1  0
  7  9  1  6
  7 10  1  0
 10 11  1  0
 11 12  1  0
 12 13  1  0
 13 14  2  0
 14 15  1  0
 15 16  2  0
 16 17  1  0
 17 18  1  0
 18 19  1  0
 19 20  1  0
 19 21  2  0
 21 22  1  0
 22 23  1  0
 11  2  1  0
 23 14  1  0
 22 17  2  0
  1 24  1  0
  1 25  1  0
  1 26  1  0
  2 27  1  1
  3 28  1  0
  3 29  1  0
  4 30  1  6
  5 31  1  0
  5 32  1  0
  5 33  1  0
  6 34  1  0
  6 35  1  0
  8 36  1  0
  8 37  1  0
  8 38  1  0
  9 39  1  0
 10 40  1  0
 10 41  1  0
 11 42  1  6
 12 43  1  0
 12 44  1  0
 15 45  1  0
 16 46  1  0
 18 47  1  0
 20 48  1  0
 20 49  1  0
 21 50  1  0
 23 51  1  0
M  CHG  1   4   1
M  END
>  <meeko>  (124) 
{"is_sidechain": false}

$$$$

     RDKit          3D

 51 53  0  0  0  0  0  0  0  0999 V2000
   10.0360    4.5930  -56.1010 C   0  0  0  0  0  0  0  0  0  0  0  0
    9.9390    3.1370  -56.5950 C   0  0  2  0  0  0  0  0  0  0  0  0
   11.2420    2.8330  -57.3510 C   0  0  0  0  0  0  0  0  0  0  0  0
   11.5730    3.8280  -58.4350 N   0  0  1  0  0  0  0  0  0  0  0  0
   13.0180    4.2450  -58.4790 C   0  0  0  0  0  0  0  0  0  0  0  0
   10.9680    3.6270  -59.8080 C   0  0  0  0  0  0  0  0  0  0  0  0
    9.4330    3.4380  -59.8630 C   0  0  2  0  0  0  0  0  0  0  0  0
    9.0740    3.0090  -61.2970 C   0  0  0  0  0  0  0  0  0  0  0  0
    8.8100    4.7050  -59.6410 O   0  0  0  0  0  0  0  0  0  0  0  0
    8.9050    2.3960  -58.8620 C   0  0  0  0  0  0  0  0  0  0  0  0
    8.6440    2.8950  -57.4230 C   0  0  1  0  0  0  0  0  0  0  0  0
    7.7000    1.8750  -56.7320 C   0  0  0  0  0  0  0  0  0  0  0  0
    8.4500    1.0420  -55.8060 N   0  0  0  0  0  0  0  0  0  0  0  0
    7.8950    0.2210  -54.9710 C   0  0  0  0  0  0  0  0  0  0  0  0
    6.3870    0.0290  -54.8210 C   0  0  0  0  0  0  0  0  0  0  0  0
    5.9230   -0.8500  -53.9120 C   0  0  0  0  0  0  0  0  0  0  0  0
    6.9090   -1.5210  -53.1680 C   0  0  0  0  0  0  0  0  0  0  0  0
    6.6680   -2.4530  -52.2000 N   0  0  0  0  0  0  0  0  0  0  0  0
    7.8760   -2.8870  -51.7000 C   0  0  0  0  0  0  0  0  0  0  0  0
    7.9190   -3.8110  -50.7240 N   0  0  0  0  0  0  0  0  0  0  0  0
    8.8900   -2.2200  -52.3580 C   0  0  0  0  0  0  0  0  0  0  0  0
    8.2660   -1.3660  -53.2800 C   0  0  0  0  0  0  0  0  0  0  0  0
    8.7740   -0.4980  -54.1730 N   0  0  0  0  0  0  0  0  0  0  0  0
   10.0370    4.6077  -55.0011 H   0  0  0  0  0  0  0  0  0  0  0  0
   10.9663    5.0457  -56.4746 H   0  0  0  0  0  0  0  0  0  0  0  0
    9.1740    5.1651  -56.4746 H   0  0  0  0  0  0  0  0  0  0  0  0
    9.8453    2.4314  -55.7563 H   0  0  0  0  0  0  0  0  0  0  0  0
   12.0685    2.8256  -56.6252 H   0  0  0  0  0  0  0  0  0  0  0  0
   11.1015    1.8607  -57.8459 H   0  0  0  0  0  0  0  0  0  0  0  0
   11.0900    4.6720  -58.0990 H   0  0  0  0  0  0  0  0  0  0  0  0
   13.3993    4.3550  -57.4531 H   0  0  0  0  0  0  0  0  0  0  0  0
   13.6046    3.4795  -59.0080 H   0  0  0  0  0  0  0  0  0  0  0  0
   13.1065    5.2053  -59.0080 H   0  0  0  0  0  0  0  0  0  0  0  0
   11.2186    4.5085  -60.4164 H   0  0  0  0  0  0  0  0  0  0  0  0
   11.3920    2.6821  -60.1785 H   0  0  0  0  0  0  0  0  0  0  0  0
    8.3684    2.1658  -61.2617 H   0  0  0  0  0  0  0  0  0  0  0  0
    8.6097    3.8537  -61.8270 H   0  0  0  0  0  0  0  0  0  0  0  0
    9.9873    2.7009  -61.8270 H   0  0  0  0  0  0  0  0  0  0  0  0
    9.2150    5.1240  -58.8580 H   0  0  0  0  0  0  0  0  0  0  0  0
    7.9565    2.0033  -59.2571 H   0  0  0  0  0  0  0  0  0  0  0  0
    9.7057    1.6473  -58.7705 H   0  0  0  0  0  0  0  0  0  0  0  0
    8.1714    3.8867  -57.4784 H   0  0  0  0  0  0  0  0  0  0  0  0
    6.9191    2.4189  -56.1803 H   0  0  0  0  0  0  0  0  0  0  0  0
    7.2414    1.2342  -57.4995 H   0  0  0  0  0  0  0  0  0  0  0  0
    5.6881    0.6020  -55.4481 H   0  0  0  0  0  0  0  0  0  0  0  0
    4.8482   -1.0301  -53.7624 H   0  0  0  0  0  0  0  0  0  0  0  0
    5.7650   -2.7730  -51.8830 H   0  0  0  0  0  0  0  0  0  0  0  0
    7.7160   -3.5400  -49.7640 H   0  0  0  0  0  0  0  0  0  0  0  0
    8.5150   -4.6320  -50.7770 H   0  0  0  0  0  0  0  0  0  0  0  0
    9.9714   -2.3351  -52.1925 H   0  0  0  0  0  0  0  0  0  0  0  0
    9.7620   -0.3520  -54.3300 H   0  0  0  0  0  0  0  0  0  0  0  0
  1  2  1  0
  2  3  1  0
  3  4  1  0
  4  5  1  0
  4  6  1  0
  6  7  1  0
  7  8  1  0
  7  9  1  1
  7 10  1  0
 10 11  1  0
 11 12  1  0
 12 13  1  0
 13 14  2  0
 14 15  1  0
 15 16  2  0
 16 17  1  0
 17 18  1  0
 18 19  1  0
 19 20  1  0
 19 21  2  0
 21 22  1  0
 22 23  1  0
 11  2  1  0
 23 14  1  0
 22 17  2  0
  1 24  1  0
  1 25  1  0
  1 26  1  0
  2 27  1  1
  3 28  1  0
  3 29  1  0
  4 30  1  1
  5 31  1  0
  5 32  1  0
  5 33  1  0
  6 34  1  0
  6 35  1  0
  8 36  1  0
  8 37  1  0
  8 38  1  0
  9 39  1  0
 10 40  1  0
 10 41  1  0
 11 42  1  6
 12 43  1  0
 12 44  1  0
 15 45  1  0
 16 46  1  0
 18 47  1  0
 20 48  1  0
 20 49  1  0
 21 50  1  0
 23 51  1  0
M  CHG  1   4   1
M  END
>  <meeko>  (125) 
{"is_sidechain": false}

$$$$

     RDKit          3D

 51 53  0  0  0  0  0  0  0  0999 V2000
    9.5630    5.2560  -56.6080 C   0  0  0  0  0  0  0  0  0  0  0  0
   10.2530    3.9330  -56.9950 C   0  0  2  0  0  0  0  0  0  0  0  0
   11.3090    4.3000  -58.0540 C   0  0  0  0  0  0  0  0  0  0  0  0
   10.7990    5.0420  -59.2540 N   0  0  1  0  0  0  0  0  0  0  0  0
   11.8080    6.0730  -59.7060 C   0  0  0  0  0  0  0  0  0  0  0  0
   10.3730    4.1650  -60.4070 C   0  0  0  0  0  0  0  0  0  0  0  0
    9.2540    3.1670  -60.0300 C   0  0  1  0  0  0  0  0  0  0  0  0
    7.9000    3.8610  -59.8220 C   0  0  0  0  0  0  0  0  0  0  0  0
    9.0890    2.3140  -61.1740 O   0  0  0  0  0  0  0  0  0  0  0  0
    9.6090    2.2720  -58.8360 C   0  0  0  0  0  0  0  0  0  0  0  0
    9.2730    2.7930  -57.4110 C   0  0  1  0  0  0  0  0  0  0  0  0
    9.2860    1.5720  -56.4520 C   0  0  0  0  0  0  0  0  0  0  0  0
    7.9130    1.2450  -56.0890 N   0  0  0  0  0  0  0  0  0  0  0  0
    7.7030    0.3630  -55.1600 C   0  0  0  0  0  0  0  0  0  0  0  0
    6.2290    0.1120  -54.8740 C   0  0  0  0  0  0  0  0  0  0  0  0
    5.8790   -0.7780  -53.9290 C   0  0  0  0  0  0  0  0  0  0  0  0
    6.9530   -1.4090  -53.2780 C   0  0  0  0  0  0  0  0  0  0  0  0
    6.8340   -2.3350  -52.2840 N   0  0  0  0  0  0  0  0  0  0  0  0
    8.0960   -2.7240  -51.8940 C   0  0  0  0  0  0  0  0  0  0  0  0
    8.2610   -3.6330  -50.9200 N   0  0  0  0  0  0  0  0  0  0  0  0
    9.0230   -2.0270  -52.6450 C   0  0  0  0  0  0  0  0  0  0  0  0
    8.2880   -1.2030  -53.5140 C   0  0  0  0  0  0  0  0  0  0  0  0
    8.6890   -0.3230  -54.4530 N   0  0  0  0  0  0  0  0  0  0  0  0
    9.5193    5.3398  -55.5121 H   0  0  0  0  0  0  0  0  0  0  0  0
   10.1350    6.1015  -57.0179 H   0  0  0  0  0  0  0  0  0  0  0  0
    8.5423    5.2708  -57.0179 H   0  0  0  0  0  0  0  0  0  0  0  0
   10.7387    3.4777  -56.1194 H   0  0  0  0  0  0  0  0  0  0  0  0
   12.0708    4.9272  -57.5679 H   0  0  0  0  0  0  0  0  0  0  0  0
   11.6947    3.3432  -58.4358 H   0  0  0  0  0  0  0  0  0  0  0  0
    9.9910    5.5890  -58.9430 H   0  0  0  0  0  0  0  0  0  0  0  0
   12.2696    6.5447  -58.8260 H   0  0  0  0  0  0  0  0  0  0  0  0
   12.5862    5.5841  -60.3105 H   0  0  0  0  0  0  0  0  0  0  0  0
   11.3024    6.8405  -60.3105 H   0  0  0  0  0  0  0  0  0  0  0  0
   10.0078    4.8093  -61.2204 H   0  0  0  0  0  0  0  0  0  0  0  0
   11.2499    3.5745  -60.7108 H   0  0  0  0  0  0  0  0  0  0  0  0
    7.7017    3.9626  -58.7448 H   0  0  0  0  0  0  0  0  0  0  0  0
    7.9239    4.8580  -60.2861 H   0  0  0  0  0  0  0  0  0  0  0  0
    7.1045    3.2595  -60.2861 H   0  0  0  0  0  0  0  0  0  0  0  0
    8.1460    2.2930  -61.4250 H   0  0  0  0  0  0  0  0  0  0  0  0
    9.0756    1.3195  -58.9707 H   0  0  0  0  0  0  0  0  0  0  0  0
   10.7071    2.2098  -58.8550 H   0  0  0  0  0  0  0  0  0  0  0  0
    8.2736    3.2510  -57.3728 H   0  0  0  0  0  0  0  0  0  0  0  0
    9.7502    0.7113  -56.9557 H   0  0  0  0  0  0  0  0  0  0  0  0
    9.8642    1.8132  -55.5478 H   0  0  0  0  0  0  0  0  0  0  0  0
    5.4555    0.6551  -55.4367 H   0  0  0  0  0  0  0  0  0  0  0  0
    4.8292   -0.9963  -53.6834 H   0  0  0  0  0  0  0  0  0  0  0  0
    5.9730   -2.6790  -51.8830 H   0  0  0  0  0  0  0  0  0  0  0  0
    8.0940   -4.6210  -51.1020 H   0  0  0  0  0  0  0  0  0  0  0  0
    8.2150   -3.4010  -49.9320 H   0  0  0  0  0  0  0  0  0  0  0  0
   10.1183   -2.1022  -52.5763 H   0  0  0  0  0  0  0  0  0  0  0  0
    9.6630   -0.1470  -54.6390 H   0  0  0  0  0  0  0  0  0  0  0  0
  1  2  1  0
  2  3  1  0
  3  4  1  0
  4  5  1  0
  4  6  1  0
  6  7  1  0
  7  8  1  0
  7  9  1  6
  7 10  1  0
 10 11  1  0
 11 12  1  0
 12 13  1  0
 13 14  2  0
 14 15  1  0
 15 16  2  0
 16 17  1  0
 17 18  1  0
 18 19  1  0
 19 20  1  0
 19 21  2  0
 21 22  1  0
 22 23  1  0
 11  2  1  0
 23 14  1  0
 22 17  2  0
  1 24  1  0
  1 25  1  0
  1 26  1  0
  2 27  1  1
  3 28  1  0
  3 29  1  0
  4 30  1  1
  5 31  1  0
  5 32  1  0
  5 33  1  0
  6 34  1  0
  6 35  1  0
  8 36  1  0
  8 37  1  0
  8 38  1  0
  9 39  1  0
 10 40  1  0
 10 41  1  0
 11 42  1  6
 12 43  1  0
 12 44  1  0
 15 45  1  0
 16 46  1  0
 18 47  1  0
 20 48  1  0
 20 49  1  0
 21 50  1  0
 23 51  1  0
M  CHG  1   4   1
M  END
>  <meeko>  (126) 
{"is_sidechain": false}

$$$$

     RDKit          3D

 51 53  0  0  0  0  0  0  0  0999 V2000
    5.6120    2.7790  -58.8050 C   0  0  0  0  0  0  0  0  0  0  0  0
    7.1180    2.4530  -58.8290 C   0  0  1  0  0  0  0  0  0  0  0  0
    7.7870    3.4520  -59.7820 C   0  0  0  0  0  0  0  0  0  0  0  0
    9.2670    3.2240  -59.9320 N   0  0  1  0  0  0  0  0  0  0  0  0
    9.6790    3.4000  -61.3730 C   0  0  0  0  0  0  0  0  0  0  0  0
   10.1920    3.9710  -58.9930 C   0  0  0  0  0  0  0  0  0  0  0  0
   10.2270    3.4370  -57.5330 C   0  0  1  0  0  0  0  0  0  0  0  0
   11.6580    2.9630  -57.2250 C   0  0  0  0  0  0  0  0  0  0  0  0
    9.9120    4.4730  -56.5980 O   0  0  0  0  0  0  0  0  0  0  0  0
    9.2670    2.2520  -57.3530 C   0  0  0  0  0  0  0  0  0  0  0  0
    7.7460    2.5260  -57.4030 C   0  0  2  0  0  0  0  0  0  0  0  0
    7.0630    1.5740  -56.3880 C   0  0  0  0  0  0  0  0  0  0  0  0
    8.0940    0.7840  -55.7250 N   0  0  0  0  0  0  0  0  0  0  0  0
    7.7840    0.0320  -54.7100 C   0  0  0  0  0  0  0  0  0  0  0  0
    6.3730   -0.0940  -54.1370 C   0  0  0  0  0  0  0  0  0  0  0  0
    6.1630   -0.8990  -53.0790 C   0  0  0  0  0  0  0  0  0  0  0  0
    7.3020   -1.5650  -52.5950 C   0  0  0  0  0  0  0  0  0  0  0  0
    7.3200   -2.4200  -51.5310 N   0  0  0  0  0  0  0  0  0  0  0  0
    8.6090   -2.8720  -51.3560 C   0  0  0  0  0  0  0  0  0  0  0  0
    8.9050   -3.7310  -50.3670 N   0  0  0  0  0  0  0  0  0  0  0  0
    9.4140   -2.2900  -52.3170 C   0  0  0  0  0  0  0  0  0  0  0  0
    8.5760   -1.4710  -53.0910 C   0  0  0  0  0  0  0  0  0  0  0  0
    8.8340   -0.6820  -54.1470 N   0  0  0  0  0  0  0  0  0  0  0  0
    5.2695    2.8531  -57.7623 H   0  0  0  0  0  0  0  0  0  0  0  0
    5.4358    3.7361  -59.3178 H   0  0  0  0  0  0  0  0  0  0  0  0
    5.0558    1.9805  -59.3178 H   0  0  0  0  0  0  0  0  0  0  0  0
    7.2751    1.4220  -59.1788 H   0  0  0  0  0  0  0  0  0  0  0  0
    7.3165    3.3603  -60.7721 H   0  0  0  0  0  0  0  0  0  0  0  0
    7.6515    4.4558  -59.3531 H   0  0  0  0  0  0  0  0  0  0  0  0
    9.4170    2.2300  -59.7220 H   0  0  0  0  0  0  0  0  0  0  0  0
   10.6898    3.8318  -61.4152 H   0  0  0  0  0  0  0  0  0  0  0  0
    9.6766    2.4223  -61.8771 H   0  0  0  0  0  0  0  0  0  0  0  0
    8.9709    4.0742  -61.8771 H   0  0  0  0  0  0  0  0  0  0  0  0
   11.2116    3.9116  -59.4014 H   0  0  0  0  0  0  0  0  0  0  0  0
    9.8013    4.9975  -58.9329 H   0  0  0  0  0  0  0  0  0  0  0  0
   11.8019    2.9153  -56.1355 H   0  0  0  0  0  0  0  0  0  0  0  0
   11.8152    1.9648  -57.6596 H   0  0  0  0  0  0  0  0  0  0  0  0
   12.3800    3.6700  -57.6596 H   0  0  0  0  0  0  0  0  0  0  0  0
    9.3440    5.1270  -57.0510 H   0  0  0  0  0  0  0  0  0  0  0  0
    9.4933    1.5260  -58.1478 H   0  0  0  0  0  0  0  0  0  0  0  0
    9.4474    1.9108  -56.3229 H   0  0  0  0  0  0  0  0  0  0  0  0
    7.5704    3.5741  -57.1190 H   0  0  0  0  0  0  0  0  0  0  0  0
    6.5101    2.1631  -55.6415 H   0  0  0  0  0  0  0  0  0  0  0  0
    6.3587    0.9101  -56.9106 H   0  0  0  0  0  0  0  0  0  0  0  0
    5.5388    0.4666  -54.5840 H   0  0  0  0  0  0  0  0  0  0  0  0
    5.1693   -1.0267  -52.6249 H   0  0  0  0  0  0  0  0  0  0  0  0
    6.5350   -2.6770  -50.9520 H   0  0  0  0  0  0  0  0  0  0  0  0
    8.2020   -4.3810  -50.0230 H   0  0  0  0  0  0  0  0  0  0  0  0
    9.6500   -3.5650  -49.6950 H   0  0  0  0  0  0  0  0  0  0  0  0
   10.4958   -2.4387  -52.4493 H   0  0  0  0  0  0  0  0  0  0  0  0
    9.7490   -0.5610  -54.5570 H   0  0  0  0  0  0  0  0  0  0  0  0
  1  2  1  0
  2  3  1  0
  3  4  1  0
  4  5  1  0
  4  6  1  0
  6  7  1  0
  7  8  1  0
  7  9  1  1
  7 10  1  0
 10 11  1  0
 11 12  1  0
 12 13  1  0
 13 14  2  0
 14 15  1  0
 15 16  2  0
 16 17  1  0
 17 18  1  0
 18 19  1  0
 19 20  1  0
 19 21  2  0
 21 22  1  0
 22 23  1  0
 11  2  1  0
 23 14  1  0
 22 17  2  0
  1 24  1  0
  1 25  1  0
  1 26  1  0
  2 27  1  6
  3 28  1  0
  3 29  1  0
  4 30  1  1
  5 31  1  0
  5 32  1  0
  5 33  1  0
  6 34  1  0
  6 35  1  0
  8 36  1  0
  8 37  1  0
  8 38  1  0
  9 39  1  0
 10 40  1  0
 10 41  1  0
 11 42  1  1
 12 43  1  0
 12 44  1  0
 15 45  1  0
 16 46  1  0
 18 47  1  0
 20 48  1  0
 20 49  1  0
 21 50  1  0
 23 51  1  0
M  CHG  1   4   1
M  END
>  <meeko>  (127) 
{"is_sidechain": false}

$$$$

     RDKit          3D

 51 53  0  0  0  0  0  0  0  0999 V2000
   10.7760   -2.6450  -55.5260 C   0  0  0  0  0  0  0  0  0  0  0  0
   10.0550   -1.9110  -54.3840 C   0  0  2  0  0  0  0  0  0  0  0  0
    9.3380   -2.8680  -53.4230 C   0  0  0  0  0  0  0  0  0  0  0  0
    8.5170   -2.2320  -52.3390 N   0  0  2  0  0  0  0  0  0  0  0  0
    8.6470   -2.9900  -51.0470 C   0  0  0  0  0  0  0  0  0  0  0  0
    7.0830   -1.8930  -52.6670 C   0  0  0  0  0  0  0  0  0  0  0  0
    7.0510   -0.5210  -53.3880 C   0  0  1  0  0  0  0  0  0  0  0  0
    6.1680   -0.6270  -54.6390 C   0  0  0  0  0  0  0  0  0  0  0  0
    6.4250    0.3960  -52.4720 O   0  0  0  0  0  0  0  0  0  0  0  0
    8.4340    0.0370  -53.7770 C   0  0  0  0  0  0  0  0  0  0  0  0
    9.2530   -0.6790  -54.8760 C   0  0  1  0  0  0  0  0  0  0  0  0
   10.0710    0.2970  -55.7490 C   0  0  0  0  0  0  0  0  0  0  0  0
    9.3170    1.5210  -55.9890 N   0  0  0  0  0  0  0  0  0  0  0  0
    9.8270    2.4900  -56.6870 C   0  0  0  0  0  0  0  0  0  0  0  0
    8.8850    3.6760  -56.8560 C   0  0  0  0  0  0  0  0  0  0  0  0
    9.2930    4.7560  -57.5450 C   0  0  0  0  0  0  0  0  0  0  0  0
   10.5990    4.6750  -58.0590 C   0  0  0  0  0  0  0  0  0  0  0  0
   11.2150    5.6450  -58.7930 N   0  0  0  0  0  0  0  0  0  0  0  0
   12.4800    5.2090  -59.1200 C   0  0  0  0  0  0  0  0  0  0  0  0
   13.3010    5.9810  -59.8480 N   0  0  0  0  0  0  0  0  0  0  0  0
   12.6600    3.9440  -58.5920 C   0  0  0  0  0  0  0  0  0  0  0  0
   11.4660    3.6220  -57.9250 C   0  0  0  0  0  0  0  0  0  0  0  0
   11.1030    2.5170  -57.2440 N   0  0  0  0  0  0  0  0  0  0  0  0
   11.4879   -3.3698  -55.1042 H   0  0  0  0  0  0  0  0  0  0  0  0
   10.0373   -3.1746  -56.1455 H   0  0  0  0  0  0  0  0  0  0  0  0
   11.3188   -1.9159  -56.1455 H   0  0  0  0  0  0  0  0  0  0  0  0
   10.8211   -1.4555  -53.7394 H   0  0  0  0  0  0  0  0  0  0  0  0
    8.6685   -3.5038  -54.0209 H   0  0  0  0  0  0  0  0  0  0  0  0
   10.1383   -3.4140  -52.9021 H   0  0  0  0  0  0  0  0  0  0  0  0
    8.9340   -1.3080  -52.1300 H   0  0  0  0  0  0  0  0  0  0  0  0
    8.5281   -2.2965  -50.2015 H   0  0  0  0  0  0  0  0  0  0  0  0
    7.8688   -3.7658  -50.9972 H   0  0  0  0  0  0  0  0  0  0  0  0
    9.6392   -3.4622  -50.9972 H   0  0  0  0  0  0  0  0  0  0  0  0
    6.6604   -2.6670  -53.3245 H   0  0  0  0  0  0  0  0  0  0  0  0
    6.4875   -1.8458  -51.7433 H   0  0  0  0  0  0  0  0  0  0  0  0
    5.1178   -0.7531  -54.3369 H   0  0  0  0  0  0  0  0  0  0  0  0
    6.2696    0.2898  -55.2383 H   0  0  0  0  0  0  0  0  0  0  0  0
    6.4837   -1.4937  -55.2383 H   0  0  0  0  0  0  0  0  0  0  0  0
    7.1270    0.8410  -51.9570 H   0  0  0  0  0  0  0  0  0  0  0  0
    8.2798    1.0727  -54.1141 H   0  0  0  0  0  0  0  0  0  0  0  0
    9.0377   -0.1014  -52.8680 H   0  0  0  0  0  0  0  0  0  0  0  0
    8.5004   -1.1159  -55.5488 H   0  0  0  0  0  0  0  0  0  0  0  0
   11.0097    0.5454  -55.2321 H   0  0  0  0  0  0  0  0  0  0  0  0
   10.2859   -0.1838  -56.7147 H   0  0  0  0  0  0  0  0  0  0  0  0
    7.8769    3.6486  -56.4167 H   0  0  0  0  0  0  0  0  0  0  0  0
    8.6525    5.6376  -57.6954 H   0  0  0  0  0  0  0  0  0  0  0  0
   10.8200    6.5330  -59.0690 H   0  0  0  0  0  0  0  0  0  0  0  0
   13.3070    5.9970  -60.8630 H   0  0  0  0  0  0  0  0  0  0  0  0
   13.7780    6.7780  -59.4300 H   0  0  0  0  0  0  0  0  0  0  0  0
   13.5585    3.3152  -58.6771 H   0  0  0  0  0  0  0  0  0  0  0  0
   11.7230    1.7300  -57.1430 H   0  0  0  0  0  0  0  0  0  0  0  0
  1  2  1  0
  2  3  1  0
  3  4  1  0
  4  5  1  0
  4  6  1  0
  6  7  1  0
  7  8  1  0
  7  9  1  1
  7 10  1  0
 10 11  1  0
 11 12  1  0
 12 13  1  0
 13 14  2  0
 14 15  1  0
 15 16  2  0
 16 17  1  0
 17 18  1  0
 18 19  1  0
 19 20  1  0
 19 21  2  0
 21 22  1  0
 22 23  1  0
 11  2  1  0
 23 14  1  0
 22 17  2  0
  1 24  1  0
  1 25  1  0
  1 26  1  0
  2 27  1  1
  3 28  1  0
  3 29  1  0
  4 30  1  1
  5 31  1  0
  5 32  1  0
  5 33  1  0
  6 34  1  0
  6 35  1  0
  8 36  1  0
  8 37  1  0
  8 38  1  0
  9 39  1  0
 10 40  1  0
 10 41  1  0
 11 42  1  6
 12 43  1  0
 12 44  1  0
 15 45  1  0
 16 46  1  0
 18 47  1  0
 20 48  1  0
 20 49  1  0
 21 50  1  0
 23 51  1  0
M  CHG  1   4   1
M  END
>  <meeko>  (128) 
{"is_sidechain": false}

$$$$

     RDKit          3D

 51 53  0  0  0  0  0  0  0  0999 V2000
    5.5470   -0.3520  -53.8960 C   0  0  0  0  0  0  0  0  0  0  0  0
    6.9180   -0.7550  -53.3320 C   0  0  1  0  0  0  0  0  0  0  0  0
    6.8720   -1.9950  -52.4430 C   0  0  0  0  0  0  0  0  0  0  0  0
    8.0580   -2.2440  -51.5480 N   0  0  1  0  0  0  0  0  0  0  0  0
    7.7810   -2.5770  -50.1180 C   0  0  0  0  0  0  0  0  0  0  0  0
    9.2050   -2.9770  -52.1850 C   0  0  0  0  0  0  0  0  0  0  0  0
    9.9010   -2.3370  -53.4070 C   0  0  2  0  0  0  0  0  0  0  0  0
    9.8120   -3.2780  -54.6210 C   0  0  0  0  0  0  0  0  0  0  0  0
   11.2980   -2.2610  -53.0660 O   0  0  0  0  0  0  0  0  0  0  0  0
    9.4550   -0.9240  -53.8270 C   0  0  0  0  0  0  0  0  0  0  0  0
    8.0370   -0.7390  -54.4050 C   0  0  2  0  0  0  0  0  0  0  0  0
    7.9440    0.4580  -55.3800 C   0  0  0  0  0  0  0  0  0  0  0  0
    9.2880    0.8070  -55.8170 N   0  0  0  0  0  0  0  0  0  0  0  0
    9.5030    1.9110  -56.4690 C   0  0  0  0  0  0  0  0  0  0  0  0
    8.4070    2.9080  -56.8450 C   0  0  0  0  0  0  0  0  0  0  0  0
    8.7370    4.0180  -57.5320 C   0  0  0  0  0  0  0  0  0  0  0  0
   10.1020    4.1500  -57.8400 C   0  0  0  0  0  0  0  0  0  0  0  0
   10.6570    5.1930  -58.5230 N   0  0  0  0  0  0  0  0  0  0  0  0
   12.0130    4.9770  -58.6250 C   0  0  0  0  0  0  0  0  0  0  0  0
   12.8000    5.8620  -59.2600 N   0  0  0  0  0  0  0  0  0  0  0  0
   12.3160    3.7810  -58.0040 C   0  0  0  0  0  0  0  0  0  0  0  0
   11.1030    3.2730  -57.5130 C   0  0  0  0  0  0  0  0  0  0  0  0
   10.8210    2.1490  -56.8320 N   0  0  0  0  0  0  0  0  0  0  0  0
    4.8545   -0.1484  -53.0659 H   0  0  0  0  0  0  0  0  0  0  0  0
    5.6557    0.5522  -54.5129 H   0  0  0  0  0  0  0  0  0  0  0  0
    5.1491   -1.1712  -54.5129 H   0  0  0  0  0  0  0  0  0  0  0  0
    7.2134    0.0391  -52.6305 H   0  0  0  0  0  0  0  0  0  0  0  0
    5.9841   -1.9083  -51.7995 H   0  0  0  0  0  0  0  0  0  0  0  0
    6.8601   -2.8447  -53.1414 H   0  0  0  0  0  0  0  0  0  0  0  0
    8.4420   -1.2910  -51.4730 H   0  0  0  0  0  0  0  0  0  0  0  0
    8.3478   -1.8956  -49.4664 H   0  0  0  0  0  0  0  0  0  0  0  0
    6.7052   -2.4659  -49.9174 H   0  0  0  0  0  0  0  0  0  0  0  0
    8.0861   -3.6146  -49.9174 H   0  0  0  0  0  0  0  0  0  0  0  0
    9.9728   -3.1154  -51.4095 H   0  0  0  0  0  0  0  0  0  0  0  0
    8.7494   -3.8950  -52.5847 H   0  0  0  0  0  0  0  0  0  0  0  0
    9.7137   -4.3169  -54.2732 H   0  0  0  0  0  0  0  0  0  0  0  0
    8.9352   -3.0104  -55.2289 H   0  0  0  0  0  0  0  0  0  0  0  0
   10.7235   -3.1795  -55.2289 H   0  0  0  0  0  0  0  0  0  0  0  0
   11.6690   -1.4300  -53.4200 H   0  0  0  0  0  0  0  0  0  0  0  0
    9.5284   -0.2826  -52.9364 H   0  0  0  0  0  0  0  0  0  0  0  0
   10.1214   -0.6702  -54.6646 H   0  0  0  0  0  0  0  0  0  0  0  0
    7.8455   -1.6356  -55.0129 H   0  0  0  0  0  0  0  0  0  0  0  0
    7.3318    0.1800  -56.2506 H   0  0  0  0  0  0  0  0  0  0  0  0
    7.4778    1.3175  -54.8762 H   0  0  0  0  0  0  0  0  0  0  0  0
    7.3617    2.7210  -56.5579 H   0  0  0  0  0  0  0  0  0  0  0  0
    7.9908    4.7687  -57.8312 H   0  0  0  0  0  0  0  0  0  0  0  0
   10.1700    5.9910  -58.9040 H   0  0  0  0  0  0  0  0  0  0  0  0
   12.7800    5.9190  -60.2770 H   0  0  0  0  0  0  0  0  0  0  0  0
   13.6790    6.1920  -58.8700 H   0  0  0  0  0  0  0  0  0  0  0  0
   13.3099    3.3187  -57.9124 H   0  0  0  0  0  0  0  0  0  0  0  0
   11.5140    1.4800  -56.5250 H   0  0  0  0  0  0  0  0  0  0  0  0
  1  2  1  0
  2  3  1  0
  3  4  1  0
  4  5  1  0
  4  6  1  0
  6  7  1  0
  7  8  1  0
  7  9  1  1
  7 10  1  0
 10 11  1  0
 11 12  1  0
 12 13  1  0
 13 14  2  0
 14 15  1  0
 15 16  2  0
 16 17  1  0
 17 18  1  0
 18 19  1  0
 19 20  1  0
 19 21  2  0
 21 22  1  0
 22 23  1  0
 11  2  1  0
 23 14  1  0
 22 17  2  0
  1 24  1  0
  1 25  1  0
  1 26  1  0
  2 27  1  1
  3 28  1  0
  3 29  1  0
  4 30  1  1
  5 31  1  0
  5 32  1  0
  5 33  1  0
  6 34  1  0
  6 35  1  0
  8 36  1  0
  8 37  1  0
  8 38  1  0
  9 39  1  0
 10 40  1  0
 10 41  1  0
 11 42  1  6
 12 43  1  0
 12 44  1  0
 15 45  1  0
 16 46  1  0
 18 47  1  0
 20 48  1  0
 20 49  1  0
 21 50  1  0
 23 51  1  0
M  CHG  1   4   1
M  END
>  <meeko>  (129) 
{"is_sidechain": false}

$$$$

     RDKit          3D

 51 53  0  0  0  0  0  0  0  0999 V2000
    6.1070    0.3880  -53.5700 C   0  0  0  0  0  0  0  0  0  0  0  0
    7.3910   -0.2310  -52.9990 C   0  0  1  0  0  0  0  0  0  0  0  0
    7.0760   -1.5940  -52.3650 C   0  0  0  0  0  0  0  0  0  0  0  0
    8.2580   -2.2070  -51.6260 N   0  0  1  0  0  0  0  0  0  0  0  0
    7.8660   -2.7250  -50.2650 C   0  0  0  0  0  0  0  0  0  0  0  0
    9.1530   -3.1710  -52.3820 C   0  0  0  0  0  0  0  0  0  0  0  0
    9.8090   -2.5950  -53.6600 C   0  0  1  0  0  0  0  0  0  0  0  0
   11.1040   -1.8650  -53.2800 C   0  0  0  0  0  0  0  0  0  0  0  0
   10.1810   -3.7280  -54.4680 O   0  0  0  0  0  0  0  0  0  0  0  0
    8.9110   -1.7060  -54.5320 C   0  0  0  0  0  0  0  0  0  0  0  0
    8.5720   -0.2870  -54.0200 C   0  0  1  0  0  0  0  0  0  0  0  0
    8.3800    0.6330  -55.2520 C   0  0  0  0  0  0  0  0  0  0  0  0
    9.6850    0.9040  -55.8510 N   0  0  0  0  0  0  0  0  0  0  0  0
    9.8810    2.0260  -56.4800 C   0  0  0  0  0  0  0  0  0  0  0  0
    8.8160    3.1080  -56.6550 C   0  0  0  0  0  0  0  0  0  0  0  0
    9.1260    4.2360  -57.3220 C   0  0  0  0  0  0  0  0  0  0  0  0
   10.4440    4.3040  -57.8050 C   0  0  0  0  0  0  0  0  0  0  0  0
   10.9750    5.3560  -58.4950 N   0  0  0  0  0  0  0  0  0  0  0  0
   12.2870    5.0620  -58.7950 C   0  0  0  0  0  0  0  0  0  0  0  0
   13.0450    5.9400  -59.4730 N   0  0  0  0  0  0  0  0  0  0  0  0
   12.5880    3.8150  -58.2820 C   0  0  0  0  0  0  0  0  0  0  0  0
   11.4170    3.3500  -57.6650 C   0  0  0  0  0  0  0  0  0  0  0  0
   11.1530    2.2040  -57.0120 N   0  0  0  0  0  0  0  0  0  0  0  0
    5.4530    0.7033  -52.7436 H   0  0  0  0  0  0  0  0  0  0  0  0
    6.3641    1.2611  -54.1877 H   0  0  0  0  0  0  0  0  0  0  0  0
    5.5841   -0.3570  -54.1877 H   0  0  0  0  0  0  0  0  0  0  0  0
    7.7590    0.4399  -52.2088 H   0  0  0  0  0  0  0  0  0  0  0  0
    6.2489   -1.4635  -51.6516 H   0  0  0  0  0  0  0  0  0  0  0  0
    6.8153   -2.2799  -53.1845 H   0  0  0  0  0  0  0  0  0  0  0  0
    8.8800   -1.4150  -51.4240 H   0  0  0  0  0  0  0  0  0  0  0  0
    8.3355   -2.1046  -49.4874 H   0  0  0  0  0  0  0  0  0  0  0  0
    6.7721   -2.6821  -50.1575 H   0  0  0  0  0  0  0  0  0  0  0  0
    8.2045   -3.7661  -50.1575 H   0  0  0  0  0  0  0  0  0  0  0  0
    9.9559   -3.4939  -51.7030 H   0  0  0  0  0  0  0  0  0  0  0  0
    8.5034   -3.9935  -52.7159 H   0  0  0  0  0  0  0  0  0  0  0  0
   11.1897   -1.8167  -52.1844 H   0  0  0  0  0  0  0  0  0  0  0  0
   11.9664   -2.4099  -53.6916 H   0  0  0  0  0  0  0  0  0  0  0  0
   11.0843   -0.8451  -53.6916 H   0  0  0  0  0  0  0  0  0  0  0  0
   10.8620   -4.2390  -53.9860 H   0  0  0  0  0  0  0  0  0  0  0  0
    9.4113   -1.5911  -55.5049 H   0  0  0  0  0  0  0  0  0  0  0  0
    7.9433   -2.2287  -54.5493 H   0  0  0  0  0  0  0  0  0  0  0  0
    9.4151    0.0808  -53.4168 H   0  0  0  0  0  0  0  0  0  0  0  0
    7.7329    0.1335  -55.9880 H   0  0  0  0  0  0  0  0  0  0  0  0
    7.9103    1.5778  -54.9409 H   0  0  0  0  0  0  0  0  0  0  0  0
    7.8069    2.9669  -56.2405 H   0  0  0  0  0  0  0  0  0  0  0  0
    8.3991    5.0468  -57.4778 H   0  0  0  0  0  0  0  0  0  0  0  0
   10.5050    6.2140  -58.7390 H   0  0  0  0  0  0  0  0  0  0  0  0
   13.8190    5.6610  -60.0690 H   0  0  0  0  0  0  0  0  0  0  0  0
   13.1090    6.9090  -59.1700 H   0  0  0  0  0  0  0  0  0  0  0  0
   13.5533    3.2912  -58.3448 H   0  0  0  0  0  0  0  0  0  0  0  0
   11.8320    1.4780  -56.8530 H   0  0  0  0  0  0  0  0  0  0  0  0
  1  2  1  0
  2  3  1  0
  3  4  1  0
  4  5  1  0
  4  6  1  0
  6  7  1  0
  7  8  1  0
  7  9  1  6
  7 10  1  0
 10 11  1  0
 11 12  1  0
 12 13  1  0
 13 14  2  0
 14 15  1  0
 15 16  2  0
 16 17  1  0
 17 18  1  0
 18 19  1  0
 19 20  1  0
 19 21  2  0
 21 22  1  0
 22 23  1  0
 11  2  1  0
 23 14  1  0
 22 17  2  0
  1 24  1  0
  1 25  1  0
  1 26  1  0
  2 27  1  1
  3 28  1  0
  3 29  1  0
  4 30  1  1
  5 31  1  0
  5 32  1  0
  5 33  1  0
  6 34  1  0
  6 35  1  0
  8 36  1  0
  8 37  1  0
  8 38  1  0
  9 39  1  0
 10 40  1  0
 10 41  1  0
 11 42  1  1
 12 43  1  0
 12 44  1  0
 15 45  1  0
 16 46  1  0
 18 47  1  0
 20 48  1  0
 20 49  1  0
 21 50  1  0
 23 51  1  0
M  CHG  1   4   1
M  END
>  <meeko>  (130) 
{"is_sidechain": false}

$$$$

     RDKit          3D

 51 53  0  0  0  0  0  0  0  0999 V2000
    6.2780    0.3310  -53.6100 C   0  0  0  0  0  0  0  0  0  0  0  0
    7.5630   -0.3410  -53.1110 C   0  0  1  0  0  0  0  0  0  0  0  0
    7.3110   -1.7240  -52.5070 C   0  0  0  0  0  0  0  0  0  0  0  0
    8.3970   -2.3170  -51.6540 N   0  0  1  0  0  0  0  0  0  0  0  0
    7.9990   -2.8400  -50.3120 C   0  0  0  0  0  0  0  0  0  0  0  0
    9.4290   -3.1100  -52.4080 C   0  0  0  0  0  0  0  0  0  0  0  0
   10.1170   -2.4440  -53.6250 C   0  0  2  0  0  0  0  0  0  0  0  0
   10.9620   -3.4650  -54.3980 C   0  0  0  0  0  0  0  0  0  0  0  0
   11.0360   -1.4900  -53.0580 O   0  0  0  0  0  0  0  0  0  0  0  0
    9.2200   -1.6630  -54.6000 C   0  0  0  0  0  0  0  0  0  0  0  0
    8.7670   -0.2790  -54.0950 C   0  0  1  0  0  0  0  0  0  0  0  0
    8.4650    0.6280  -55.3120 C   0  0  0  0  0  0  0  0  0  0  0  0
    9.6980    0.9600  -56.0100 N   0  0  0  0  0  0  0  0  0  0  0  0
    9.8900    2.0950  -56.6060 C   0  0  0  0  0  0  0  0  0  0  0  0
    8.8530    3.2130  -56.6930 C   0  0  0  0  0  0  0  0  0  0  0  0
    9.1650    4.3480  -57.3480 C   0  0  0  0  0  0  0  0  0  0  0  0
   10.4550    4.3880  -57.9020 C   0  0  0  0  0  0  0  0  0  0  0  0
   10.9830    5.4390  -58.5960 N   0  0  0  0  0  0  0  0  0  0  0  0
   12.2670    5.1140  -58.9730 C   0  0  0  0  0  0  0  0  0  0  0  0
   13.0140    5.9810  -59.6770 N   0  0  0  0  0  0  0  0  0  0  0  0
   12.5520    3.8420  -58.5140 C   0  0  0  0  0  0  0  0  0  0  0  0
   11.4020    3.4000  -57.8410 C   0  0  0  0  0  0  0  0  0  0  0  0
   11.1340    2.2460  -57.2050 N   0  0  0  0  0  0  0  0  0  0  0  0
    5.6717    0.6481  -52.7487 H   0  0  0  0  0  0  0  0  0  0  0  0
    6.5365    1.2094  -54.2196 H   0  0  0  0  0  0  0  0  0  0  0  0
    5.7041   -0.3824  -54.2196 H   0  0  0  0  0  0  0  0  0  0  0  0
    7.9024    0.2903  -52.2765 H   0  0  0  0  0  0  0  0  0  0  0  0
    6.4062   -1.6523  -51.8856 H   0  0  0  0  0  0  0  0  0  0  0  0
    7.2350   -2.3983  -53.3728 H   0  0  0  0  0  0  0  0  0  0  0  0
    8.9310   -1.4720  -51.4030 H   0  0  0  0  0  0  0  0  0  0  0  0
    8.4654   -2.2271  -49.5266 H   0  0  0  0  0  0  0  0  0  0  0  0
    6.9046   -2.7950  -50.2108 H   0  0  0  0  0  0  0  0  0  0  0  0
    8.3340   -3.8828  -50.2108 H   0  0  0  0  0  0  0  0  0  0  0  0
   10.2202   -3.3792  -51.6928 H   0  0  0  0  0  0  0  0  0  0  0  0
    8.8657   -3.9507  -52.8393 H   0  0  0  0  0  0  0  0  0  0  0  0
   11.4971   -4.1115  -53.6869 H   0  0  0  0  0  0  0  0  0  0  0  0
   10.3055   -4.0804  -55.0307 H   0  0  0  0  0  0  0  0  0  0  0  0
   11.6893   -2.9351  -55.0307 H   0  0  0  0  0  0  0  0  0  0  0  0
   10.6520   -0.5960  -53.1250 H   0  0  0  0  0  0  0  0  0  0  0  0
    9.7774   -1.5195  -55.5374 H   0  0  0  0  0  0  0  0  0  0  0  0
    8.3054   -2.2611  -54.7257 H   0  0  0  0  0  0  0  0  0  0  0  0
    9.5913    0.1505  -53.5067 H   0  0  0  0  0  0  0  0  0  0  0  0
    7.7890    0.0994  -56.0002 H   0  0  0  0  0  0  0  0  0  0  0  0
    7.9914    1.5560  -54.9591 H   0  0  0  0  0  0  0  0  0  0  0  0
    7.8640    3.0929  -56.2267 H   0  0  0  0  0  0  0  0  0  0  0  0
    8.4583    5.1856  -57.4424 H   0  0  0  0  0  0  0  0  0  0  0  0
   10.5220    6.3100  -58.8120 H   0  0  0  0  0  0  0  0  0  0  0  0
   13.8970    6.3450  -59.3280 H   0  0  0  0  0  0  0  0  0  0  0  0
   12.9790    5.9660  -60.6940 H   0  0  0  0  0  0  0  0  0  0  0  0
   13.4920    3.2869  -58.6490 H   0  0  0  0  0  0  0  0  0  0  0  0
   11.7990    1.4960  -57.0750 H   0  0  0  0  0  0  0  0  0  0  0  0
  1  2  1  0
  2  3  1  0
  3  4  1  0
  4  5  1  0
  4  6  1  0
  6  7  1  0
  7  8  1  0
  7  9  1  1
  7 10  1  0
 10 11  1  0
 11 12  1  0
 12 13  1  0
 13 14  2  0
 14 15  1  0
 15 16  2  0
 16 17  1  0
 17 18  1  0
 18 19  1  0
 19 20  1  0
 19 21  2  0
 21 22  1  0
 22 23  1  0
 11  2  1  0
 23 14  1  0
 22 17  2  0
  1 24  1  0
  1 25  1  0
  1 26  1  0
  2 27  1  1
  3 28  1  0
  3 29  1  0
  4 30  1  1
  5 31  1  0
  5 32  1  0
  5 33  1  0
  6 34  1  0
  6 35  1  0
  8 36  1  0
  8 37  1  0
  8 38  1  0
  9 39  1  0
 10 40  1  0
 10 41  1  0
 11 42  1  1
 12 43  1  0
 12 44  1  0
 15 45  1  0
 16 46  1  0
 18 47  1  0
 20 48  1  0
 20 49  1  0
 21 50  1  0
 23 51  1  0
M  CHG  1   4   1
M  END
>  <meeko>  (131) 
{"is_sidechain": false}

$$$$

     RDKit          3D

 51 53  0  0  0  0  0  0  0  0999 V2000
   11.9210    2.7590  -57.2350 C   0  0  0  0  0  0  0  0  0  0  0  0
   10.6320    3.5670  -57.0200 C   0  0  1  0  0  0  0  0  0  0  0  0
   10.6570    4.8690  -57.8320 C   0  0  0  0  0  0  0  0  0  0  0  0
   10.5840    4.6500  -59.3300 N   0  0  2  0  0  0  0  0  0  0  0  0
   11.4340    5.6690  -60.0530 C   0  0  0  0  0  0  0  0  0  0  0  0
    9.1560    4.6900  -59.8470 C   0  0  0  0  0  0  0  0  0  0  0  0
    8.2960    3.4510  -59.4590 C   0  0  2  0  0  0  0  0  0  0  0  0
    7.6800    2.8160  -60.7120 C   0  0  0  0  0  0  0  0  0  0  0  0
    7.2140    3.9500  -58.6620 O   0  0  0  0  0  0  0  0  0  0  0  0
    9.0330    2.3640  -58.6580 C   0  0  0  0  0  0  0  0  0  0  0  0
    9.3250    2.7520  -57.1920 C   0  0  1  0  0  0  0  0  0  0  0  0
    9.3350    1.4860  -56.3030 C   0  0  0  0  0  0  0  0  0  0  0  0
    7.9560    1.2160  -55.9070 N   0  0  0  0  0  0  0  0  0  0  0  0
    7.7330    0.3470  -54.9680 C   0  0  0  0  0  0  0  0  0  0  0  0
    6.2580    0.1580  -54.6430 C   0  0  0  0  0  0  0  0  0  0  0  0
    5.8940   -0.7230  -53.6940 C   0  0  0  0  0  0  0  0  0  0  0  0
    6.9580   -1.4030  -53.0770 C   0  0  0  0  0  0  0  0  0  0  0  0
    6.8240   -2.3430  -52.0960 N   0  0  0  0  0  0  0  0  0  0  0  0
    8.0790   -2.7840  -51.7390 C   0  0  0  0  0  0  0  0  0  0  0  0
    8.2290   -3.7200  -50.7880 N   0  0  0  0  0  0  0  0  0  0  0  0
    9.0140   -2.1190  -52.5090 C   0  0  0  0  0  0  0  0  0  0  0  0
    8.2930   -1.2510  -53.3460 C   0  0  0  0  0  0  0  0  0  0  0  0
    8.7070   -0.3790  -54.2860 N   0  0  0  0  0  0  0  0  0  0  0  0
   12.3516    2.4891  -56.2594 H   0  0  0  0  0  0  0  0  0  0  0  0
   11.6901    1.8437  -57.7998 H   0  0  0  0  0  0  0  0  0  0  0  0
   12.6442    3.3657  -57.7998 H   0  0  0  0  0  0  0  0  0  0  0  0
   10.6157    3.8445  -55.9557 H   0  0  0  0  0  0  0  0  0  0  0  0
    9.7979    5.4852  -57.5281 H   0  0  0  0  0  0  0  0  0  0  0  0
   11.6185    5.3612  -57.6239 H   0  0  0  0  0  0  0  0  0  0  0  0
   10.9960    3.7390  -59.5610 H   0  0  0  0  0  0  0  0  0  0  0  0
   11.9581    6.2973  -59.3177 H   0  0  0  0  0  0  0  0  0  0  0  0
   12.1710    5.1504  -60.6838 H   0  0  0  0  0  0  0  0  0  0  0  0
   10.7916    6.3010  -60.6838 H   0  0  0  0  0  0  0  0  0  0  0  0
    8.6681    5.5882  -59.4406 H   0  0  0  0  0  0  0  0  0  0  0  0
    9.2199    4.6961  -60.9451 H   0  0  0  0  0  0  0  0  0  0  0  0
    6.9429    2.0561  -60.4134 H   0  0  0  0  0  0  0  0  0  0  0  0
    7.1830    3.5936  -61.3106 H   0  0  0  0  0  0  0  0  0  0  0  0
    8.4723    2.3429  -61.3106 H   0  0  0  0  0  0  0  0  0  0  0  0
    6.9070    3.2450  -58.0580 H   0  0  0  0  0  0  0  0  0  0  0  0
    8.4139    1.4548  -58.6582 H   0  0  0  0  0  0  0  0  0  0  0  0
   10.0068    2.2141  -59.1471 H   0  0  0  0  0  0  0  0  0  0  0  0
    8.5133    3.4200  -56.8681 H   0  0  0  0  0  0  0  0  0  0  0  0
    9.7369    0.6328  -56.8692 H   0  0  0  0  0  0  0  0  0  0  0  0
    9.9690    1.6399  -55.4174 H   0  0  0  0  0  0  0  0  0  0  0  0
    5.4942    0.7385  -55.1811 H   0  0  0  0  0  0  0  0  0  0  0  0
    4.8428   -0.8980  -53.4214 H   0  0  0  0  0  0  0  0  0  0  0  0
    5.9580   -2.6770  -51.6980 H   0  0  0  0  0  0  0  0  0  0  0  0
    7.4640   -4.3070  -50.4670 H   0  0  0  0  0  0  0  0  0  0  0  0
    8.9780   -3.6420  -50.1040 H   0  0  0  0  0  0  0  0  0  0  0  0
   10.1063   -2.2444  -52.4736 H   0  0  0  0  0  0  0  0  0  0  0  0
    9.6820   -0.2490  -54.5030 H   0  0  0  0  0  0  0  0  0  0  0  0
  1  2  1  0
  2  3  1  0
  3  4  1  0
  4  5  1  0
  4  6  1  0
  6  7  1  0
  7  8  1  0
  7  9  1  1
  7 10  1  0
 10 11  1  0
 11 12  1  0
 12 13  1  0
 13 14  2  0
 14 15  1  0
 15 16  2  0
 16 17  1  0
 17 18  1  0
 18 19  1  0
 19 20  1  0
 19 21  2  0
 21 22  1  0
 22 23  1  0
 11  2  1  0
 23 14  1  0
 22 17  2  0
  1 24  1  0
  1 25  1  0
  1 26  1  0
  2 27  1  1
  3 28  1  0
  3 29  1  0
  4 30  1  1
  5 31  1  0
  5 32  1  0
  5 33  1  0
  6 34  1  0
  6 35  1  0
  8 36  1  0
  8 37  1  0
  8 38  1  0
  9 39  1  0
 10 40  1  0
 10 41  1  0
 11 42  1  1
 12 43  1  0
 12 44  1  0
 15 45  1  0
 16 46  1  0
 18 47  1  0
 20 48  1  0
 20 49  1  0
 21 50  1  0
 23 51  1  0
M  CHG  1   4   1
M  END
>  <meeko>  (132) 
{"is_sidechain": false}

$$$$

     RDKit          3D

 51 53  0  0  0  0  0  0  0  0999 V2000
    6.5490    0.4420  -52.7270 C   0  0  0  0  0  0  0  0  0  0  0  0
    6.7820   -0.8210  -53.5720 C   0  0  2  0  0  0  0  0  0  0  0  0
    6.8150   -2.0460  -52.6360 C   0  0  0  0  0  0  0  0  0  0  0  0
    8.0750   -2.1760  -51.8070 N   0  0  1  0  0  0  0  0  0  0  0  0
    7.7680   -2.5950  -50.3940 C   0  0  0  0  0  0  0  0  0  0  0  0
    9.1620   -3.0330  -52.4250 C   0  0  0  0  0  0  0  0  0  0  0  0
    9.8910   -2.2600  -53.5600 C   0  0  2  0  0  0  0  0  0  0  0  0
    9.9750   -3.1250  -54.8170 C   0  0  0  0  0  0  0  0  0  0  0  0
   11.2300   -2.0600  -53.0640 O   0  0  0  0  0  0  0  0  0  0  0  0
    9.3680   -0.8420  -53.8670 C   0  0  0  0  0  0  0  0  0  0  0  0
    7.9880   -0.6770  -54.5380 C   0  0  2  0  0  0  0  0  0  0  0  0
    7.9540    0.6570  -55.3310 C   0  0  0  0  0  0  0  0  0  0  0  0
    9.2760    0.9900  -55.8370 N   0  0  0  0  0  0  0  0  0  0  0  0
    9.5260    2.0760  -56.5000 C   0  0  0  0  0  0  0  0  0  0  0  0
    8.4780    3.1260  -56.8650 C   0  0  0  0  0  0  0  0  0  0  0  0
    8.8530    4.2130  -57.5680 C   0  0  0  0  0  0  0  0  0  0  0  0
   10.2170    4.2720  -57.9020 C   0  0  0  0  0  0  0  0  0  0  0  0
   10.8130    5.2780  -58.6040 N   0  0  0  0  0  0  0  0  0  0  0  0
   12.1540    4.9890  -58.7310 C   0  0  0  0  0  0  0  0  0  0  0  0
   12.9750    5.8240  -59.3890 N   0  0  0  0  0  0  0  0  0  0  0  0
   12.4050    3.7810  -58.1060 C   0  0  0  0  0  0  0  0  0  0  0  0
   11.1750    3.3440  -57.5880 C   0  0  0  0  0  0  0  0  0  0  0  0
   10.8480    2.2420  -56.8930 N   0  0  0  0  0  0  0  0  0  0  0  0
    6.5968    0.1827  -51.6591 H   0  0  0  0  0  0  0  0  0  0  0  0
    7.3250    1.1865  -52.9587 H   0  0  0  0  0  0  0  0  0  0  0  0
    5.5585    0.8606  -52.9587 H   0  0  0  0  0  0  0  0  0  0  0  0
    5.9423   -0.9766  -54.2653 H   0  0  0  0  0  0  0  0  0  0  0  0
    5.9588   -1.9752  -51.9490 H   0  0  0  0  0  0  0  0  0  0  0  0
    6.7776   -2.9334  -53.2849 H   0  0  0  0  0  0  0  0  0  0  0  0
    8.4930   -1.2400  -51.7020 H   0  0  0  0  0  0  0  0  0  0  0  0
    8.2685   -1.9119  -49.6920 H   0  0  0  0  0  0  0  0  0  0  0  0
    6.6811   -2.5588  -50.2288 H   0  0  0  0  0  0  0  0  0  0  0  0
    8.1301   -3.6205  -50.2288 H   0  0  0  0  0  0  0  0  0  0  0  0
    9.8912   -3.3071  -51.6484 H   0  0  0  0  0  0  0  0  0  0  0  0
    8.7013   -3.9364  -52.8511 H   0  0  0  0  0  0  0  0  0  0  0  0
   10.0776   -4.1816  -54.5288 H   0  0  0  0  0  0  0  0  0  0  0  0
    9.0600   -2.9948  -55.4135 H   0  0  0  0  0  0  0  0  0  0  0  0
   10.8479   -2.8212  -55.4135 H   0  0  0  0  0  0  0  0  0  0  0  0
   11.6420   -2.9350  -52.9210 H   0  0  0  0  0  0  0  0  0  0  0  0
    9.3269   -0.3006  -52.9104 H   0  0  0  0  0  0  0  0  0  0  0  0
   10.0725   -0.4610  -54.6210 H   0  0  0  0  0  0  0  0  0  0  0  0
    7.8666   -1.5190  -55.2354 H   0  0  0  0  0  0  0  0  0  0  0  0
    7.2587    0.5559  -56.1774 H   0  0  0  0  0  0  0  0  0  0  0  0
    7.6217    1.4600  -54.6567 H   0  0  0  0  0  0  0  0  0  0  0  0
    7.4298    2.9964  -56.5577 H   0  0  0  0  0  0  0  0  0  0  0  0
    8.1412    4.9992  -57.8600 H   0  0  0  0  0  0  0  0  0  0  0  0
   10.3620    6.0990  -58.9810 H   0  0  0  0  0  0  0  0  0  0  0  0
   13.7150    5.4920  -60.0030 H   0  0  0  0  0  0  0  0  0  0  0  0
   12.6540    6.7570  -59.6390 H   0  0  0  0  0  0  0  0  0  0  0  0
   13.3739    3.2658  -58.0299 H   0  0  0  0  0  0  0  0  0  0  0  0
   11.5070    1.5340  -56.5990 H   0  0  0  0  0  0  0  0  0  0  0  0
  1  2  1  0
  2  3  1  0
  3  4  1  0
  4  5  1  0
  4  6  1  0
  6  7  1  0
  7  8  1  0
  7  9  1  1
  7 10  1  0
 10 11  1  0
 11 12  1  0
 12 13  1  0
 13 14  2  0
 14 15  1  0
 15 16  2  0
 16 17  1  0
 17 18  1  0
 18 19  1  0
 19 20  1  0
 19 21  2  0
 21 22  1  0
 22 23  1  0
 11  2  1  0
 23 14  1  0
 22 17  2  0
  1 24  1  0
  1 25  1  0
  1 26  1  0
  2 27  1  6
  3 28  1  0
  3 29  1  0
  4 30  1  1
  5 31  1  0
  5 32  1  0
  5 33  1  0
  6 34  1  0
  6 35  1  0
  8 36  1  0
  8 37  1  0
  8 38  1  0
  9 39  1  0
 10 40  1  0
 10 41  1  0
 11 42  1  6
 12 43  1  0
 12 44  1  0
 15 45  1  0
 16 46  1  0
 18 47  1  0
 20 48  1  0
 20 49  1  0
 21 50  1  0
 23 51  1  0
M  CHG  1   4   1
M  END
>  <meeko>  (133) 
{"is_sidechain": false}

$$$$

     RDKit          3D

 51 53  0  0  0  0  0  0  0  0999 V2000
   11.5170    2.6430  -57.2160 C   0  0  0  0  0  0  0  0  0  0  0  0
   10.1400    3.3060  -57.0310 C   0  0  1  0  0  0  0  0  0  0  0  0
   10.2040    4.6640  -57.7560 C   0  0  0  0  0  0  0  0  0  0  0  0
   10.7240    4.6100  -59.1580 N   0  0  2  0  0  0  0  0  0  0  0  0
   11.7990    5.6370  -59.4260 C   0  0  0  0  0  0  0  0  0  0  0  0
    9.7020    4.4600  -60.2670 C   0  0  0  0  0  0  0  0  0  0  0  0
    8.7070    3.2920  -60.0950 C   0  0  2  0  0  0  0  0  0  0  0  0
    9.4290    1.9790  -60.4510 C   0  0  0  0  0  0  0  0  0  0  0  0
    7.6260    3.4130  -61.0290 O   0  0  0  0  0  0  0  0  0  0  0  0
    8.1340    3.1660  -58.6740 C   0  0  0  0  0  0  0  0  0  0  0  0
    8.9630    2.4490  -57.5750 C   0  0  2  0  0  0  0  0  0  0  0  0
    7.9820    1.9440  -56.4830 C   0  0  0  0  0  0  0  0  0  0  0  0
    8.6650    1.0050  -55.6040 N   0  0  0  0  0  0  0  0  0  0  0  0
    8.0500    0.1740  -54.8230 C   0  0  0  0  0  0  0  0  0  0  0  0
    6.5330    0.0750  -54.6850 C   0  0  0  0  0  0  0  0  0  0  0  0
    6.0070   -0.8240  -53.8320 C   0  0  0  0  0  0  0  0  0  0  0  0
    6.9420   -1.6050  -53.1300 C   0  0  0  0  0  0  0  0  0  0  0  0
    6.6330   -2.5790  -52.2250 N   0  0  0  0  0  0  0  0  0  0  0  0
    7.8070   -3.1240  -51.7540 C   0  0  0  0  0  0  0  0  0  0  0  0
    7.7840   -4.1090  -50.8390 N   0  0  0  0  0  0  0  0  0  0  0  0
    8.8680   -2.4860  -52.3660 C   0  0  0  0  0  0  0  0  0  0  0  0
    8.3060   -1.5340  -53.2320 C   0  0  0  0  0  0  0  0  0  0  0  0
    8.8760   -0.6480  -54.0670 N   0  0  0  0  0  0  0  0  0  0  0  0
   11.9573    2.4310  -56.2305 H   0  0  0  0  0  0  0  0  0  0  0  0
   11.3992    1.7029  -57.7749 H   0  0  0  0  0  0  0  0  0  0  0  0
   12.1785    3.3213  -57.7749 H   0  0  0  0  0  0  0  0  0  0  0  0
    9.9358    3.4210  -55.9563 H   0  0  0  0  0  0  0  0  0  0  0  0
    9.1874    5.0831  -57.7853 H   0  0  0  0  0  0  0  0  0  0  0  0
   10.9157    5.2816  -57.1884 H   0  0  0  0  0  0  0  0  0  0  0  0
   11.2400    3.7240  -59.2000 H   0  0  0  0  0  0  0  0  0  0  0  0
   12.1929    6.0134  -58.4704 H   0  0  0  0  0  0  0  0  0  0  0  0
   12.6138    5.1733  -60.0014 H   0  0  0  0  0  0  0  0  0  0  0  0
   11.3730    6.4721  -60.0014 H   0  0  0  0  0  0  0  0  0  0  0  0
    9.1232    5.3937  -60.3241 H   0  0  0  0  0  0  0  0  0  0  0  0
   10.2746    4.2393  -61.1799 H   0  0  0  0  0  0  0  0  0  0  0  0
    9.7164    1.4564  -59.5267 H   0  0  0  0  0  0  0  0  0  0  0  0
    8.7561    1.3387  -61.0403 H   0  0  0  0  0  0  0  0  0  0  0  0
   10.3301    2.2042  -61.0403 H   0  0  0  0  0  0  0  0  0  0  0  0
    7.8830    2.9530  -61.8540 H   0  0  0  0  0  0  0  0  0  0  0  0
    7.9429    4.1879  -58.3146 H   0  0  0  0  0  0  0  0  0  0  0  0
    7.2599    2.5113  -58.8057 H   0  0  0  0  0  0  0  0  0  0  0  0
    9.4789    1.5807  -58.0109 H   0  0  0  0  0  0  0  0  0  0  0  0
    7.6198    2.7991  -55.8935 H   0  0  0  0  0  0  0  0  0  0  0  0
    7.1312    1.4391  -56.9638 H   0  0  0  0  0  0  0  0  0  0  0  0
    5.8769    0.7309  -55.2760 H   0  0  0  0  0  0  0  0  0  0  0  0
    4.9218   -0.9394  -53.6939 H   0  0  0  0  0  0  0  0  0  0  0  0
    5.7090   -2.8600  -51.9330 H   0  0  0  0  0  0  0  0  0  0  0  0
    8.0040   -5.0630  -51.1210 H   0  0  0  0  0  0  0  0  0  0  0  0
    7.1760   -4.0810  -50.0250 H   0  0  0  0  0  0  0  0  0  0  0  0
    9.9383   -2.6838  -52.2070 H   0  0  0  0  0  0  0  0  0  0  0  0
    9.8710   -0.5710  -54.2280 H   0  0  0  0  0  0  0  0  0  0  0  0
  1  2  1  0
  2  3  1  0
  3  4  1  0
  4  5  1  0
  4  6  1  0
  6  7  1  0
  7  8  1  0
  7  9  1  6
  7 10  1  0
 10 11  1  0
 11 12  1  0
 12 13  1  0
 13 14  2  0
 14 15  1  0
 15 16  2  0
 16 17  1  0
 17 18  1  0
 18 19  1  0
 19 20  1  0
 19 21  2  0
 21 22  1  0
 22 23  1  0
 11  2  1  0
 23 14  1  0
 22 17  2  0
  1 24  1  0
  1 25  1  0
  1 26  1  0
  2 27  1  1
  3 28  1  0
  3 29  1  0
  4 30  1  1
  5 31  1  0
  5 32  1  0
  5 33  1  0
  6 34  1  0
  6 35  1  0
  8 36  1  0
  8 37  1  0
  8 38  1  0
  9 39  1  0
 10 40  1  0
 10 41  1  0
 11 42  1  6
 12 43  1  0
 12 44  1  0
 15 45  1  0
 16 46  1  0
 18 47  1  0
 20 48  1  0
 20 49  1  0
 21 50  1  0
 23 51  1  0
M  CHG  1   4   1
M  END
>  <meeko>  (134) 
{"is_sidechain": false}

$$$$

     RDKit          3D

 51 53  0  0  0  0  0  0  0  0999 V2000
    8.9540    4.9900  -56.4040 C   0  0  0  0  0  0  0  0  0  0  0  0
   10.1310    4.1300  -56.8810 C   0  0  2  0  0  0  0  0  0  0  0  0
   11.1690    4.8960  -57.7120 C   0  0  0  0  0  0  0  0  0  0  0  0
   11.0090    4.9140  -59.2050 N   0  0  2  0  0  0  0  0  0  0  0  0
   11.9510    5.8020  -59.9740 C   0  0  0  0  0  0  0  0  0  0  0  0
    9.6020    4.9250  -59.7490 C   0  0  0  0  0  0  0  0  0  0  0  0
    8.8720    3.5660  -59.7490 C   0  0  2  0  0  0  0  0  0  0  0  0
    8.7820    3.0920  -61.2110 C   0  0  0  0  0  0  0  0  0  0  0  0
    7.5410    3.7190  -59.2750 O   0  0  0  0  0  0  0  0  0  0  0  0
    9.6410    2.5190  -58.9310 C   0  0  0  0  0  0  0  0  0  0  0  0
    9.7840    2.7050  -57.4080 C   0  0  2  0  0  0  0  0  0  0  0  0
    8.6280    2.0070  -56.6540 C   0  0  0  0  0  0  0  0  0  0  0  0
    9.1660    1.0490  -55.7020 N   0  0  0  0  0  0  0  0  0  0  0  0
    8.4310    0.2410  -55.0060 C   0  0  0  0  0  0  0  0  0  0  0  0
    6.9090    0.1510  -55.1070 C   0  0  0  0  0  0  0  0  0  0  0  0
    6.2490   -0.7320  -54.3340 C   0  0  0  0  0  0  0  0  0  0  0  0
    7.0560   -1.5070  -53.4820 C   0  0  0  0  0  0  0  0  0  0  0  0
    6.6010   -2.4550  -52.6120 N   0  0  0  0  0  0  0  0  0  0  0  0
    7.6810   -2.9960  -51.9510 C   0  0  0  0  0  0  0  0  0  0  0  0
    7.5070   -3.9610  -51.0320 N   0  0  0  0  0  0  0  0  0  0  0  0
    8.8320   -2.3860  -52.4130 C   0  0  0  0  0  0  0  0  0  0  0  0
    8.4210   -1.4500  -53.3760 C   0  0  0  0  0  0  0  0  0  0  0  0
    9.1230   -0.5880  -54.1330 N   0  0  0  0  0  0  0  0  0  0  0  0
    8.9331    5.0053  -55.3043 H   0  0  0  0  0  0  0  0  0  0  0  0
    9.0723    6.0159  -56.7828 H   0  0  0  0  0  0  0  0  0  0  0  0
    8.0125    4.5655  -56.7828 H   0  0  0  0  0  0  0  0  0  0  0  0
   10.6493    3.8895  -55.9411 H   0  0  0  0  0  0  0  0  0  0  0  0
   11.1539    5.9413  -57.3697 H   0  0  0  0  0  0  0  0  0  0  0  0
   12.1090    4.3496  -57.5450 H   0  0  0  0  0  0  0  0  0  0  0  0
   11.3450    3.9800  -59.4700 H   0  0  0  0  0  0  0  0  0  0  0  0
   12.5658    6.3815  -59.2696 H   0  0  0  0  0  0  0  0  0  0  0  0
   12.6038    5.1830  -60.6071 H   0  0  0  0  0  0  0  0  0  0  0  0
   11.3716    6.4901  -60.6071 H   0  0  0  0  0  0  0  0  0  0  0  0
    9.0106    5.6258  -59.1415 H   0  0  0  0  0  0  0  0  0  0  0  0
    9.6925    5.2157  -60.8060 H   0  0  0  0  0  0  0  0  0  0  0  0
    8.5769    2.0115  -61.2342 H   0  0  0  0  0  0  0  0  0  0  0  0
    7.9700    3.6304  -61.7217 H   0  0  0  0  0  0  0  0  0  0  0  0
    9.7348    3.2953  -61.7217 H   0  0  0  0  0  0  0  0  0  0  0  0
    7.2900    4.6610  -59.3310 H   0  0  0  0  0  0  0  0  0  0  0  0
    9.1367    1.5544  -59.0901 H   0  0  0  0  0  0  0  0  0  0  0  0
   10.6731    2.6073  -59.3012 H   0  0  0  0  0  0  0  0  0  0  0  0
   10.7215    2.1853  -57.1611 H   0  0  0  0  0  0  0  0  0  0  0  0
    8.0348    2.7615  -56.1166 H   0  0  0  0  0  0  0  0  0  0  0  0
    7.9898    1.4791  -57.3779 H   0  0  0  0  0  0  0  0  0  0  0  0
    6.3586    0.8005  -55.8036 H   0  0  0  0  0  0  0  0  0  0  0  0
    5.1548   -0.8397  -54.3666 H   0  0  0  0  0  0  0  0  0  0  0  0
    5.6400   -2.7300  -52.4710 H   0  0  0  0  0  0  0  0  0  0  0  0
    8.1650   -4.7370  -50.9850 H   0  0  0  0  0  0  0  0  0  0  0  0
    7.0440   -3.7910  -50.1430 H   0  0  0  0  0  0  0  0  0  0  0  0
    9.8634   -2.5923  -52.0909 H   0  0  0  0  0  0  0  0  0  0  0  0
   10.1240   -0.4650  -54.0810 H   0  0  0  0  0  0  0  0  0  0  0  0
  1  2  1  0
  2  3  1  0
  3  4  1  0
  4  5  1  0
  4  6  1  0
  6  7  1  0
  7  8  1  0
  7  9  1  1
  7 10  1  0
 10 11  1  0
 11 12  1  0
 12 13  1  0
 13 14  2  0
 14 15  1  0
 15 16  2  0
 16 17  1  0
 17 18  1  0
 18 19  1  0
 19 20  1  0
 19 21  2  0
 21 22  1  0
 22 23  1  0
 11  2  1  0
 23 14  1  0
 22 17  2  0
  1 24  1  0
  1 25  1  0
  1 26  1  0
  2 27  1  1
  3 28  1  0
  3 29  1  0
  4 30  1  6
  5 31  1  0
  5 32  1  0
  5 33  1  0
  6 34  1  0
  6 35  1  0
  8 36  1  0
  8 37  1  0
  8 38  1  0
  9 39  1  0
 10 40  1  0
 10 41  1  0
 11 42  1  1
 12 43  1  0
 12 44  1  0
 15 45  1  0
 16 46  1  0
 18 47  1  0
 20 48  1  0
 20 49  1  0
 21 50  1  0
 23 51  1  0
M  CHG  1   4   1
M  END
>  <meeko>  (135) 
{"is_sidechain": false}

$$$$

     RDKit          3D

 51 53  0  0  0  0  0  0  0  0999 V2000
    5.6200    2.3020  -57.9930 C   0  0  0  0  0  0  0  0  0  0  0  0
    7.1410    2.3040  -58.2180 C   0  0  1  0  0  0  0  0  0  0  0  0
    7.5140    3.0440  -59.5070 C   0  0  0  0  0  0  0  0  0  0  0  0
    8.9810    3.1050  -59.8350 N   0  0  1  0  0  0  0  0  0  0  0  0
    9.1780    3.0490  -61.3330 C   0  0  0  0  0  0  0  0  0  0  0  0
    9.7400    4.2790  -59.2390 C   0  0  0  0  0  0  0  0  0  0  0  0
    9.9890    4.1560  -57.7020 C   0  0  1  0  0  0  0  0  0  0  0  0
   11.4960    4.3150  -57.4330 C   0  0  0  0  0  0  0  0  0  0  0  0
    9.3410    5.2360  -57.0320 O   0  0  0  0  0  0  0  0  0  0  0  0
    9.5040    2.8380  -57.0890 C   0  0  0  0  0  0  0  0  0  0  0  0
    7.9760    2.6140  -56.9450 C   0  0  2  0  0  0  0  0  0  0  0  0
    7.7090    1.5080  -55.8900 C   0  0  0  0  0  0  0  0  0  0  0  0
    8.8690    0.6430  -55.7350 N   0  0  0  0  0  0  0  0  0  0  0  0
    8.9260   -0.2350  -54.7820 C   0  0  0  0  0  0  0  0  0  0  0  0
   10.2090   -1.0550  -54.7870 C   0  0  0  0  0  0  0  0  0  0  0  0
   10.4070   -1.9850  -53.8360 C   0  0  0  0  0  0  0  0  0  0  0  0
    9.3660   -2.1070  -52.9000 C   0  0  0  0  0  0  0  0  0  0  0  0
    9.3550   -2.9780  -51.8490 N   0  0  0  0  0  0  0  0  0  0  0  0
    8.1750   -2.8140  -51.1580 C   0  0  0  0  0  0  0  0  0  0  0  0
    7.9120   -3.5530  -50.0690 N   0  0  0  0  0  0  0  0  0  0  0  0
    7.4370   -1.8220  -51.7770 C   0  0  0  0  0  0  0  0  0  0  0  0
    8.1990   -1.3890  -52.8740 C   0  0  0  0  0  0  0  0  0  0  0  0
    7.9530   -0.4480  -53.8080 N   0  0  0  0  0  0  0  0  0  0  0  0
    5.4090    2.3017  -56.9134 H   0  0  0  0  0  0  0  0  0  0  0  0
    5.1802    3.1996  -58.4523 H   0  0  0  0  0  0  0  0  0  0  0  0
    5.1826    1.4033  -58.4523 H   0  0  0  0  0  0  0  0  0  0  0  0
    7.4580    1.2678  -58.4074 H   0  0  0  0  0  0  0  0  0  0  0  0
    7.0036    2.5421  -60.3422 H   0  0  0  0  0  0  0  0  0  0  0  0
    7.2032    4.0873  -59.3489 H   0  0  0  0  0  0  0  0  0  0  0  0
    9.4080    2.2370  -59.4900 H   0  0  0  0  0  0  0  0  0  0  0  0
   10.2142    2.7545  -61.5558 H   0  0  0  0  0  0  0  0  0  0  0  0
    8.4860    2.3120  -61.7665 H   0  0  0  0  0  0  0  0  0  0  0  0
    8.9772    4.0398  -61.7665 H   0  0  0  0  0  0  0  0  0  0  0  0
   10.7149    4.3532  -59.7431 H   0  0  0  0  0  0  0  0  0  0  0  0
    9.1171    5.1728  -59.3914 H   0  0  0  0  0  0  0  0  0  0  0  0
   11.6748    4.3339  -56.3478 H   0  0  0  0  0  0  0  0  0  0  0  0
   12.0394    3.4692  -57.8795 H   0  0  0  0  0  0  0  0  0  0  0  0
   11.8509    5.2556  -57.8795 H   0  0  0  0  0  0  0  0  0  0  0  0
    8.6160    4.8780  -56.4830 H   0  0  0  0  0  0  0  0  0  0  0  0
    9.8952    2.0234  -57.7162 H   0  0  0  0  0  0  0  0  0  0  0  0
    9.8735    2.8674  -56.0533 H   0  0  0  0  0  0  0  0  0  0  0  0
    7.6186    3.6098  -56.6438 H   0  0  0  0  0  0  0  0  0  0  0  0
    7.4813    1.9807  -54.9232 H   0  0  0  0  0  0  0  0  0  0  0  0
    6.8598    0.8972  -56.2303 H   0  0  0  0  0  0  0  0  0  0  0  0
   10.9695   -0.8877  -55.5640 H   0  0  0  0  0  0  0  0  0  0  0  0
   11.3155   -2.6037  -53.7940 H   0  0  0  0  0  0  0  0  0  0  0  0
   10.0830   -3.6330  -51.6020 H   0  0  0  0  0  0  0  0  0  0  0  0
    7.6320   -3.1430  -49.1810 H   0  0  0  0  0  0  0  0  0  0  0  0
    8.3460   -4.4670  -49.9540 H   0  0  0  0  0  0  0  0  0  0  0  0
    6.4494   -1.4467  -51.4709 H   0  0  0  0  0  0  0  0  0  0  0  0
    7.1010    0.0860  -53.8110 H   0  0  0  0  0  0  0  0  0  0  0  0
  1  2  1  0
  2  3  1  0
  3  4  1  0
  4  5  1  0
  4  6  1  0
  6  7  1  0
  7  8  1  0
  7  9  1  1
  7 10  1  0
 10 11  1  0
 11 12  1  0
 12 13  1  0
 13 14  2  0
 14 15  1  0
 15 16  2  0
 16 17  1  0
 17 18  1  0
 18 19  1  0
 19 20  1  0
 19 21  2  0
 21 22  1  0
 22 23  1  0
 11  2  1  0
 23 14  1  0
 22 17  2  0
  1 24  1  0
  1 25  1  0
  1 26  1  0
  2 27  1  6
  3 28  1  0
  3 29  1  0
  4 30  1  1
  5 31  1  0
  5 32  1  0
  5 33  1  0
  6 34  1  0
  6 35  1  0
  8 36  1  0
  8 37  1  0
  8 38  1  0
  9 39  1  0
 10 40  1  0
 10 41  1  0
 11 42  1  1
 12 43  1  0
 12 44  1  0
 15 45  1  0
 16 46  1  0
 18 47  1  0
 20 48  1  0
 20 49  1  0
 21 50  1  0
 23 51  1  0
M  CHG  1   4   1
M  END
>  <meeko>  (136) 
{"is_sidechain": false}

$$$$

     RDKit          3D

 51 53  0  0  0  0  0  0  0  0999 V2000
    5.8220    1.9670  -58.1200 C   0  0  0  0  0  0  0  0  0  0  0  0
    7.3350    2.1860  -58.2850 C   0  0  1  0  0  0  0  0  0  0  0  0
    7.6760    3.0990  -59.4680 C   0  0  0  0  0  0  0  0  0  0  0  0
    9.1290    3.4250  -59.6620 N   0  0  1  0  0  0  0  0  0  0  0  0
    9.4990    3.3980  -61.1190 C   0  0  0  0  0  0  0  0  0  0  0  0
    9.6610    4.6480  -58.9550 C   0  0  0  0  0  0  0  0  0  0  0  0
    9.9240    4.2920  -57.4770 C   0  0  2  0  0  0  0  0  0  0  0  0
    9.1890    5.2930  -56.5770 C   0  0  0  0  0  0  0  0  0  0  0  0
   11.3410    4.4630  -57.2760 O   0  0  0  0  0  0  0  0  0  0  0  0
    9.5420    2.8560  -57.0710 C   0  0  0  0  0  0  0  0  0  0  0  0
    8.0460    2.4850  -56.9410 C   0  0  2  0  0  0  0  0  0  0  0  0
    7.7780    1.4380  -55.8330 C   0  0  0  0  0  0  0  0  0  0  0  0
    8.9450    0.5760  -55.7070 N   0  0  0  0  0  0  0  0  0  0  0  0
    8.9820   -0.3050  -54.7530 C   0  0  0  0  0  0  0  0  0  0  0  0
   10.2560   -1.1370  -54.7340 C   0  0  0  0  0  0  0  0  0  0  0  0
   10.4270   -2.0690  -53.7810 C   0  0  0  0  0  0  0  0  0  0  0  0
    9.3650   -2.1840  -52.8670 C   0  0  0  0  0  0  0  0  0  0  0  0
    9.3200   -3.0630  -51.8230 N   0  0  0  0  0  0  0  0  0  0  0  0
    8.1250   -2.8920  -51.1600 C   0  0  0  0  0  0  0  0  0  0  0  0
    7.8300   -3.6380  -50.0820 N   0  0  0  0  0  0  0  0  0  0  0  0
    7.4100   -1.8920  -51.7900 C   0  0  0  0  0  0  0  0  0  0  0  0
    8.2030   -1.4560  -52.8640 C   0  0  0  0  0  0  0  0  0  0  0  0
    7.9880   -0.5080  -53.7980 N   0  0  0  0  0  0  0  0  0  0  0  0
    5.5714    1.9307  -57.0496 H   0  0  0  0  0  0  0  0  0  0  0  0
    5.2775    2.7957  -58.5962 H   0  0  0  0  0  0  0  0  0  0  0  0
    5.5348    1.0179  -58.5962 H   0  0  0  0  0  0  0  0  0  0  0  0
    7.7838    1.2278  -58.5857 H   0  0  0  0  0  0  0  0  0  0  0  0
    7.3180    2.6072  -60.3845 H   0  0  0  0  0  0  0  0  0  0  0  0
    7.1878    4.0595  -59.2463 H   0  0  0  0  0  0  0  0  0  0  0  0
    9.6820    2.6560  -59.2460 H   0  0  0  0  0  0  0  0  0  0  0  0
   10.5916    3.3183  -61.2184 H   0  0  0  0  0  0  0  0  0  0  0  0
    9.0227    2.5322  -61.6023 H   0  0  0  0  0  0  0  0  0  0  0  0
    9.1534    4.3238  -61.6023 H   0  0  0  0  0  0  0  0  0  0  0  0
   10.5990    4.9711  -59.4301 H   0  0  0  0  0  0  0  0  0  0  0  0
    8.9274    5.4652  -59.0181 H   0  0  0  0  0  0  0  0  0  0  0  0
    9.3735    5.0418  -55.5221 H   0  0  0  0  0  0  0  0  0  0  0  0
    9.5571    6.3092  -56.7817 H   0  0  0  0  0  0  0  0  0  0  0  0
    8.1092    5.2460  -56.7817 H   0  0  0  0  0  0  0  0  0  0  0  0
   11.4720    5.2500  -56.7090 H   0  0  0  0  0  0  0  0  0  0  0  0
    9.9768    2.1820  -57.8238 H   0  0  0  0  0  0  0  0  0  0  0  0
    9.9268    2.7614  -56.0448 H   0  0  0  0  0  0  0  0  0  0  0  0
    7.5551    3.4070  -56.5961 H   0  0  0  0  0  0  0  0  0  0  0  0
    7.5926    1.9506  -54.8776 H   0  0  0  0  0  0  0  0  0  0  0  0
    6.8958    0.8354  -56.0949 H   0  0  0  0  0  0  0  0  0  0  0  0
   11.0327   -0.9764  -55.4962 H   0  0  0  0  0  0  0  0  0  0  0  0
   11.3297   -2.6946  -53.7207 H   0  0  0  0  0  0  0  0  0  0  0  0
   10.0360   -3.7250  -51.5630 H   0  0  0  0  0  0  0  0  0  0  0  0
    7.3290   -4.5200  -50.1480 H   0  0  0  0  0  0  0  0  0  0  0  0
    7.7180   -3.1960  -49.1710 H   0  0  0  0  0  0  0  0  0  0  0  0
    6.4171   -1.5126  -51.5068 H   0  0  0  0  0  0  0  0  0  0  0  0
    7.1240    0.0070  -53.8450 H   0  0  0  0  0  0  0  0  0  0  0  0
  1  2  1  0
  2  3  1  0
  3  4  1  0
  4  5  1  0
  4  6  1  0
  6  7  1  0
  7  8  1  0
  7  9  1  6
  7 10  1  0
 10 11  1  0
 11 12  1  0
 12 13  1  0
 13 14  2  0
 14 15  1  0
 15 16  2  0
 16 17  1  0
 17 18  1  0
 18 19  1  0
 19 20  1  0
 19 21  2  0
 21 22  1  0
 22 23  1  0
 11  2  1  0
 23 14  1  0
 22 17  2  0
  1 24  1  0
  1 25  1  0
  1 26  1  0
  2 27  1  6
  3 28  1  0
  3 29  1  0
  4 30  1  1
  5 31  1  0
  5 32  1  0
  5 33  1  0
  6 34  1  0
  6 35  1  0
  8 36  1  0
  8 37  1  0
  8 38  1  0
  9 39  1  0
 10 40  1  0
 10 41  1  0
 11 42  1  1
 12 43  1  0
 12 44  1  0
 15 45  1  0
 16 46  1  0
 18 47  1  0
 20 48  1  0
 20 49  1  0
 21 50  1  0
 23 51  1  0
M  CHG  1   4   1
M  END
>  <meeko>  (137) 
{"is_sidechain": false}

$$$$

     RDKit          3D

 51 53  0  0  0  0  0  0  0  0999 V2000
    5.8890    0.1580  -53.3160 C   0  0  0  0  0  0  0  0  0  0  0  0
    6.9180   -0.9770  -53.3340 C   0  0  2  0  0  0  0  0  0  0  0  0
    7.4750   -1.1570  -51.9100 C   0  0  0  0  0  0  0  0  0  0  0  0
    7.8840   -2.5690  -51.6320 N   0  0  2  0  0  0  0  0  0  0  0  0
    7.6950   -2.9230  -50.1740 C   0  0  0  0  0  0  0  0  0  0  0  0
    9.2710   -2.9700  -52.0890 C   0  0  0  0  0  0  0  0  0  0  0  0
    9.7010   -2.6930  -53.5590 C   0  0  1  0  0  0  0  0  0  0  0  0
   11.1470   -3.1270  -53.8560 C   0  0  0  0  0  0  0  0  0  0  0  0
    8.8930   -3.6050  -54.3420 O   0  0  0  0  0  0  0  0  0  0  0  0
    9.4130   -1.2850  -54.1150 C   0  0  0  0  0  0  0  0  0  0  0  0
    7.9680   -0.8970  -54.4770 C   0  0  2  0  0  0  0  0  0  0  0  0
    7.9470    0.4700  -55.2180 C   0  0  0  0  0  0  0  0  0  0  0  0
    9.2740    0.7780  -55.7270 N   0  0  0  0  0  0  0  0  0  0  0  0
    9.4890    1.8780  -56.3830 C   0  0  0  0  0  0  0  0  0  0  0  0
    8.4140    2.9230  -56.6780 C   0  0  0  0  0  0  0  0  0  0  0  0
    8.7440    4.0280  -57.3720 C   0  0  0  0  0  0  0  0  0  0  0  0
   10.0900    4.1090  -57.7670 C   0  0  0  0  0  0  0  0  0  0  0  0
   10.6400    5.1330  -58.4830 N   0  0  0  0  0  0  0  0  0  0  0  0
   11.9770    4.8600  -58.6800 C   0  0  0  0  0  0  0  0  0  0  0  0
   12.7540    5.7150  -59.3650 N   0  0  0  0  0  0  0  0  0  0  0  0
   12.2710    3.6480  -58.0860 C   0  0  0  0  0  0  0  0  0  0  0  0
   11.0740    3.1890  -57.5150 C   0  0  0  0  0  0  0  0  0  0  0  0
   10.7930    2.0710  -56.8230 N   0  0  0  0  0  0  0  0  0  0  0  0
    5.6509    0.4206  -52.2747 H   0  0  0  0  0  0  0  0  0  0  0  0
    6.3040    1.0374  -53.8302 H   0  0  0  0  0  0  0  0  0  0  0  0
    4.9733   -0.1691  -53.8302 H   0  0  0  0  0  0  0  0  0  0  0  0
    6.4112   -1.9127  -53.6127 H   0  0  0  0  0  0  0  0  0  0  0  0
    8.3524   -0.5047  -51.7888 H   0  0  0  0  0  0  0  0  0  0  0  0
    6.6759   -0.8935  -51.2014 H   0  0  0  0  0  0  0  0  0  0  0  0
    7.2230   -3.1840  -52.1230 H   0  0  0  0  0  0  0  0  0  0  0  0
    8.1201   -2.1268  -49.5453 H   0  0  0  0  0  0  0  0  0  0  0  0
    6.6214   -3.0269  -49.9581 H   0  0  0  0  0  0  0  0  0  0  0  0
    8.2060   -3.8729  -49.9581 H   0  0  0  0  0  0  0  0  0  0  0  0
    9.9867   -2.4429  -51.4410 H   0  0  0  0  0  0  0  0  0  0  0  0
    9.2578   -4.0681  -52.0251 H   0  0  0  0  0  0  0  0  0  0  0  0
   11.6833   -3.2880  -52.9092 H   0  0  0  0  0  0  0  0  0  0  0  0
   11.1375   -4.0619  -54.4356 H   0  0  0  0  0  0  0  0  0  0  0  0
   11.6539   -2.3414  -54.4356 H   0  0  0  0  0  0  0  0  0  0  0  0
    8.1820   -3.0990  -54.7830 H   0  0  0  0  0  0  0  0  0  0  0  0
    9.7583   -0.5649  -53.3586 H   0  0  0  0  0  0  0  0  0  0  0  0
    9.9345   -1.2767  -55.0835 H   0  0  0  0  0  0  0  0  0  0  0  0
    7.6242   -1.6898  -55.1576 H   0  0  0  0  0  0  0  0  0  0  0  0
    7.2374    0.4192  -56.0570 H   0  0  0  0  0  0  0  0  0  0  0  0
    7.6369    1.2577  -54.5156 H   0  0  0  0  0  0  0  0  0  0  0  0
    7.3822    2.7739  -56.3272 H   0  0  0  0  0  0  0  0  0  0  0  0
    8.0115    4.8125  -57.6130 H   0  0  0  0  0  0  0  0  0  0  0  0
   10.1600    5.9500  -58.8300 H   0  0  0  0  0  0  0  0  0  0  0  0
   12.3370    6.4050  -59.9860 H   0  0  0  0  0  0  0  0  0  0  0  0
   13.7280    5.5220  -59.5860 H   0  0  0  0  0  0  0  0  0  0  0  0
   13.2482    3.1434  -58.0648 H   0  0  0  0  0  0  0  0  0  0  0  0
   11.4640    1.3470  -56.6100 H   0  0  0  0  0  0  0  0  0  0  0  0
  1  2  1  0
  2  3  1  0
  3  4  1  0
  4  5  1  0
  4  6  1  0
  6  7  1  0
  7  8  1  0
  7  9  1  6
  7 10  1  0
 10 11  1  0
 11 12  1  0
 12 13  1  0
 13 14  2  0
 14 15  1  0
 15 16  2  0
 16 17  1  0
 17 18  1  0
 18 19  1  0
 19 20  1  0
 19 21  2  0
 21 22  1  0
 22 23  1  0
 11  2  1  0
 23 14  1  0
 22 17  2  0
  1 24  1  0
  1 25  1  0
  1 26  1  0
  2 27  1  6
  3 28  1  0
  3 29  1  0
  4 30  1  6
  5 31  1  0
  5 32  1  0
  5 33  1  0
  6 34  1  0
  6 35  1  0
  8 36  1  0
  8 37  1  0
  8 38  1  0
  9 39  1  0
 10 40  1  0
 10 41  1  0
 11 42  1  6
 12 43  1  0
 12 44  1  0
 15 45  1  0
 16 46  1  0
 18 47  1  0
 20 48  1  0
 20 49  1  0
 21 50  1  0
 23 51  1  0
M  CHG  1   4   1
M  END
>  <meeko>  (138) 
{"is_sidechain": false}

$$$$

     RDKit          3D

 51 53  0  0  0  0  0  0  0  0999 V2000
    8.8630    5.0060  -56.4560 C   0  0  0  0  0  0  0  0  0  0  0  0
   10.1430    4.3190  -56.9520 C   0  0  2  0  0  0  0  0  0  0  0  0
   10.8750    5.2670  -57.9140 C   0  0  0  0  0  0  0  0  0  0  0  0
   10.8360    4.8060  -59.3620 N   0  0  2  0  0  0  0  0  0  0  0  0
   11.8580    5.5170  -60.2130 C   0  0  0  0  0  0  0  0  0  0  0  0
    9.4850    4.6890  -60.0420 C   0  0  0  0  0  0  0  0  0  0  0  0
    8.8120    3.3130  -59.9010 C   0  0  2  0  0  0  0  0  0  0  0  0
    9.5200    2.3180  -60.8310 C   0  0  0  0  0  0  0  0  0  0  0  0
    7.4620    3.4630  -60.3790 O   0  0  0  0  0  0  0  0  0  0  0  0
    8.7060    2.7560  -58.4740 C   0  0  0  0  0  0  0  0  0  0  0  0
    9.9360    2.8820  -57.5460 C   0  0  2  0  0  0  0  0  0  0  0  0
    9.8010    1.7650  -56.4770 C   0  0  0  0  0  0  0  0  0  0  0  0
    8.4010    1.4610  -56.2330 N   0  0  0  0  0  0  0  0  0  0  0  0
    8.0400    0.5770  -55.3560 C   0  0  0  0  0  0  0  0  0  0  0  0
    6.5310    0.4120  -55.2460 C   0  0  0  0  0  0  0  0  0  0  0  0
    6.0210   -0.4570  -54.3540 C   0  0  0  0  0  0  0  0  0  0  0  0
    6.9730   -1.1530  -53.5910 C   0  0  0  0  0  0  0  0  0  0  0  0
    6.6850   -2.0800  -52.6330 N   0  0  0  0  0  0  0  0  0  0  0  0
    7.8700   -2.5530  -52.1120 C   0  0  0  0  0  0  0  0  0  0  0  0
    7.8660   -3.4840  -51.1430 N   0  0  0  0  0  0  0  0  0  0  0  0
    8.9170   -1.9110  -52.7450 C   0  0  0  0  0  0  0  0  0  0  0  0
    8.3360   -1.0310  -53.6740 C   0  0  0  0  0  0  0  0  0  0  0  0
    8.8950   -0.1710  -54.5480 N   0  0  0  0  0  0  0  0  0  0  0  0
    8.8525    5.0116  -55.3561 H   0  0  0  0  0  0  0  0  0  0  0  0
    8.8344    6.0407  -56.8283 H   0  0  0  0  0  0  0  0  0  0  0  0
    7.9849    4.4580  -56.8283 H   0  0  0  0  0  0  0  0  0  0  0  0
   10.7746    4.1272  -56.0720 H   0  0  0  0  0  0  0  0  0  0  0  0
   10.4043    6.2592  -57.8512 H   0  0  0  0  0  0  0  0  0  0  0  0
   11.9314    5.2878  -57.6082 H   0  0  0  0  0  0  0  0  0  0  0  0
   11.1680    3.8340  -59.3330 H   0  0  0  0  0  0  0  0  0  0  0  0
   12.5869    6.0241  -59.5637 H   0  0  0  0  0  0  0  0  0  0  0  0
   12.3792    4.7855  -60.8480 H   0  0  0  0  0  0  0  0  0  0  0  0
   11.3534    6.2600  -60.8480 H   0  0  0  0  0  0  0  0  0  0  0  0
    8.8151    5.4445  -59.6056 H   0  0  0  0  0  0  0  0  0  0  0  0
    9.6640    4.8389  -61.1169 H   0  0  0  0  0  0  0  0  0  0  0  0
   10.0534    1.5684  -60.2281 H   0  0  0  0  0  0  0  0  0  0  0  0
    8.7752    1.8156  -61.4657 H   0  0  0  0  0  0  0  0  0  0  0  0
   10.2388    2.8570  -61.4657 H   0  0  0  0  0  0  0  0  0  0  0  0
    7.4710    4.0450  -61.1640 H   0  0  0  0  0  0  0  0  0  0  0  0
    7.8717    3.2772  -57.9818 H   0  0  0  0  0  0  0  0  0  0  0  0
    8.5806    1.6721  -58.6137 H   0  0  0  0  0  0  0  0  0  0  0  0
   10.8621    2.7403  -58.1224 H   0  0  0  0  0  0  0  0  0  0  0  0
   10.3114    0.8584  -56.8342 H   0  0  0  0  0  0  0  0  0  0  0  0
   10.2584    2.1129  -55.5390 H   0  0  0  0  0  0  0  0  0  0  0  0
    5.8615    0.9994  -55.8916 H   0  0  0  0  0  0  0  0  0  0  0  0
    4.9387   -0.6109  -54.2315 H   0  0  0  0  0  0  0  0  0  0  0  0
    5.7650   -2.3760  -52.3400 H   0  0  0  0  0  0  0  0  0  0  0  0
    7.2520   -4.2930  -51.2160 H   0  0  0  0  0  0  0  0  0  0  0  0
    8.1080   -3.2680  -50.1800 H   0  0  0  0  0  0  0  0  0  0  0  0
    9.9910   -2.0591  -52.5589 H   0  0  0  0  0  0  0  0  0  0  0  0
    9.8920   -0.0950  -54.6570 H   0  0  0  0  0  0  0  0  0  0  0  0
  1  2  1  0
  2  3  1  0
  3  4  1  0
  4  5  1  0
  4  6  1  0
  6  7  1  0
  7  8  1  0
  7  9  1  6
  7 10  1  0
 10 11  1  0
 11 12  1  0
 12 13  1  0
 13 14  2  0
 14 15  1  0
 15 16  2  0
 16 17  1  0
 17 18  1  0
 18 19  1  0
 19 20  1  0
 19 21  2  0
 21 22  1  0
 22 23  1  0
 11  2  1  0
 23 14  1  0
 22 17  2  0
  1 24  1  0
  1 25  1  0
  1 26  1  0
  2 27  1  1
  3 28  1  0
  3 29  1  0
  4 30  1  1
  5 31  1  0
  5 32  1  0
  5 33  1  0
  6 34  1  0
  6 35  1  0
  8 36  1  0
  8 37  1  0
  8 38  1  0
  9 39  1  0
 10 40  1  0
 10 41  1  0
 11 42  1  6
 12 43  1  0
 12 44  1  0
 15 45  1  0
 16 46  1  0
 18 47  1  0
 20 48  1  0
 20 49  1  0
 21 50  1  0
 23 51  1  0
M  CHG  1   4   1
M  END
>  <meeko>  (139) 
{"is_sidechain": false}

$$$$

     RDKit          3D

 40 42  0  0  0  0  0  0  0  0999 V2000
    5.9150    2.5840  -56.5990 C   0  0  0  0  0  0  0  0  0  0  0  0
    5.8940    2.5290  -58.1010 C   0  0  0  0  0  0  0  0  0  0  0  0
    4.5530    2.2800  -58.6620 C   0  0  0  0  0  0  0  0  0  0  0  0
    4.3990    2.1710  -59.9850 C   0  0  0  0  0  0  0  0  0  0  0  0
    3.2660    1.9290  -60.7100 N   0  0  0  0  0  0  0  0  0  0  0  0
    3.6960    1.9060  -61.9410 C   0  0  0  0  0  0  0  0  0  0  0  0
    2.6080    1.6270  -63.2230 Cl  0  0  0  0  0  0  0  0  0  0  0  0
    5.1360    2.1310  -62.1290 C   0  0  0  0  0  0  0  0  0  0  0  0
    5.5350    2.2990  -60.8710 C   0  0  0  0  0  0  0  0  0  0  0  0
    6.7540    2.5550  -60.3080 N   0  0  0  0  0  0  0  0  0  0  0  0
    6.9670    2.6720  -58.9390 C   0  0  0  0  0  0  0  0  0  0  0  0
    8.2410    2.9280  -58.4640 N   0  0  0  0  0  0  0  0  0  0  0  0
    9.4540    2.1790  -58.7460 C   0  0  0  0  0  0  0  0  0  0  0  0
   10.5880    3.0890  -59.2520 C   0  0  2  0  0  0  0  0  0  0  0  0
   11.6130    3.3160  -58.1280 C   0  0  0  0  0  0  0  0  0  0  0  0
   12.7410    4.2440  -58.5690 C   0  0  0  0  0  0  0  0  0  0  0  0
   12.2050    5.5750  -59.0900 C   0  0  1  0  0  0  0  0  0  0  0  0
   13.2990    6.3440  -59.5750 O   0  0  0  0  0  0  0  0  0  0  0  0
   11.1880    5.3620  -60.2080 C   0  0  0  0  0  0  0  0  0  0  0  0
   10.0550    4.4360  -59.7720 C   0  0  0  0  0  0  0  0  0  0  0  0
    5.5505    1.6293  -56.1920 H   0  0  0  0  0  0  0  0  0  0  0  0
    6.9440    2.7611  -56.2529 H   0  0  0  0  0  0  0  0  0  0  0  0
    5.2659    3.4018  -56.2529 H   0  0  0  0  0  0  0  0  0  0  0  0
    3.6838    2.1845  -57.9947 H   0  0  0  0  0  0  0  0  0  0  0  0
    5.7245    2.1542  -63.0581 H   0  0  0  0  0  0  0  0  0  0  0  0
    7.5680    2.5690  -60.9020 H   0  0  0  0  0  0  0  0  0  0  0  0
    8.4140    3.9070  -58.2610 H   0  0  0  0  0  0  0  0  0  0  0  0
    9.7848    1.6782  -57.8241 H   0  0  0  0  0  0  0  0  0  0  0  0
    9.2265    1.4478  -59.5357 H   0  0  0  0  0  0  0  0  0  0  0  0
   11.0762    2.5830  -60.0979 H   0  0  0  0  0  0  0  0  0  0  0  0
   11.1005    3.7640  -57.2639 H   0  0  0  0  0  0  0  0  0  0  0  0
   12.0536    2.3429  -57.8653 H   0  0  0  0  0  0  0  0  0  0  0  0
   13.4006    4.4368  -57.7101 H   0  0  0  0  0  0  0  0  0  0  0  0
   13.2907    3.7523  -59.3851 H   0  0  0  0  0  0  0  0  0  0  0  0
   11.6964    6.1026  -58.2696 H   0  0  0  0  0  0  0  0  0  0  0  0
   14.0130    5.7270  -59.8080 H   0  0  0  0  0  0  0  0  0  0  0  0
   10.7629    6.3356  -60.4934 H   0  0  0  0  0  0  0  0  0  0  0  0
   11.7059    4.8935  -61.0579 H   0  0  0  0  0  0  0  0  0  0  0  0
    9.4826    4.9261  -58.9706 H   0  0  0  0  0  0  0  0  0  0  0  0
    9.4185    4.2379  -60.6470 H   0  0  0  0  0  0  0  0  0  0  0  0
  1  2  1  0
  2  3  1  0
  3  4  2  0
  4  5  1  0
  5  6  2  0
  6  7  1  0
  6  8  1  0
  8  9  2  0
  9 10  1  0
 10 11  1  0
 11 12  1  0
 12 13  1  0
 13 14  1  0
 14 15  1  0
 15 16  1  0
 16 17  1  0
 17 18  1  0
 17 19  1  0
 19 20  1  0
 11  2  2  0
 20 14  1  0
  9  4  1  0
  1 21  1  0
  1 22  1  0
  1 23  1  0
  3 24  1  0
  8 25  1  0
 10 26  1  0
 12 27  1  0
 13 28  1  0
 13 29  1  0
 14 30  1  1
 15 31  1  0
 15 32  1  0
 16 33  1  0
 16 34  1  0
 17 35  1  6
 18 36  1  0
 19 37  1  0
 19 38  1  0
 20 39  1  0
 20 40  1  0
M  END
>  <meeko>  (140) 
{"is_sidechain": false}

$$$$

     RDKit          3D

 40 42  0  0  0  0  0  0  0  0999 V2000
    5.9620    2.5960  -56.5270 C   0  0  0  0  0  0  0  0  0  0  0  0
    5.7780    2.5030  -58.0150 C   0  0  0  0  0  0  0  0  0  0  0  0
    4.4860    2.2850  -58.5170 C   0  0  0  0  0  0  0  0  0  0  0  0
    4.3750    2.1700  -59.8990 C   0  0  0  0  0  0  0  0  0  0  0  0
    3.2920    1.9430  -60.7170 N   0  0  0  0  0  0  0  0  0  0  0  0
    3.7160    1.9090  -62.0110 C   0  0  0  0  0  0  0  0  0  0  0  0
    2.5580    1.6410  -63.2220 Cl  0  0  0  0  0  0  0  0  0  0  0  0
    5.0680    2.1070  -62.0650 C   0  0  0  0  0  0  0  0  0  0  0  0
    5.4920    2.2750  -60.7240 C   0  0  0  0  0  0  0  0  0  0  0  0
    6.7380    2.5030  -60.2530 N   0  0  0  0  0  0  0  0  0  0  0  0
    6.8470    2.6310  -58.9170 C   0  0  0  0  0  0  0  0  0  0  0  0
    8.1580    2.9030  -58.4760 N   0  0  0  0  0  0  0  0  0  0  0  0
    9.1470    2.1370  -59.2460 C   0  0  0  0  0  0  0  0  0  0  0  0
   10.3700    3.0210  -59.5600 C   0  0  2  0  0  0  0  0  0  0  0  0
   11.3110    3.0620  -58.3430 C   0  0  0  0  0  0  0  0  0  0  0  0
   12.5200    3.9580  -58.5870 C   0  0  0  0  0  0  0  0  0  0  0  0
   12.1030    5.3700  -58.9930 C   0  0  1  0  0  0  0  0  0  0  0  0
   13.2560    6.1340  -59.3200 O   0  0  0  0  0  0  0  0  0  0  0  0
   11.1760    5.3420  -60.2040 C   0  0  0  0  0  0  0  0  0  0  0  0
    9.9600    4.4480  -59.9680 C   0  0  0  0  0  0  0  0  0  0  0  0
    5.0901    2.1553  -56.0215 H   0  0  0  0  0  0  0  0  0  0  0  0
    6.8705    2.0488  -56.2350 H   0  0  0  0  0  0  0  0  0  0  0  0
    6.0602    3.6520  -56.2350 H   0  0  0  0  0  0  0  0  0  0  0  0
    3.6105    2.2093  -57.8553 H   0  0  0  0  0  0  0  0  0  0  0  0
    2.3380    1.8180  -60.4140 H   0  0  0  0  0  0  0  0  0  0  0  0
    5.6980    2.1309  -62.9664 H   0  0  0  0  0  0  0  0  0  0  0  0
    8.1330    2.5110  -57.5320 H   0  0  0  0  0  0  0  0  0  0  0  0
    9.4693    1.2644  -58.6589 H   0  0  0  0  0  0  0  0  0  0  0  0
    8.6905    1.8037  -60.1897 H   0  0  0  0  0  0  0  0  0  0  0  0
   10.8964    2.5749  -60.4167 H   0  0  0  0  0  0  0  0  0  0  0  0
   10.7537    3.4457  -57.4757 H   0  0  0  0  0  0  0  0  0  0  0  0
   11.6760    2.0405  -58.1606 H   0  0  0  0  0  0  0  0  0  0  0  0
   13.1149    4.0135  -57.6634 H   0  0  0  0  0  0  0  0  0  0  0  0
   13.1084    3.5242  -59.4090 H   0  0  0  0  0  0  0  0  0  0  0  0
   11.5697    5.8236  -58.1446 H   0  0  0  0  0  0  0  0  0  0  0  0
   13.4170    6.0330  -60.2740 H   0  0  0  0  0  0  0  0  0  0  0  0
   10.8304    6.3655  -60.4114 H   0  0  0  0  0  0  0  0  0  0  0  0
   11.7395    4.9343  -61.0562 H   0  0  0  0  0  0  0  0  0  0  0  0
    9.3468    4.8853  -59.1662 H   0  0  0  0  0  0  0  0  0  0  0  0
    9.3940    4.3852  -60.9091 H   0  0  0  0  0  0  0  0  0  0  0  0
  1  2  1  0
  2  3  2  0
  3  4  1  0
  4  5  1  0
  5  6  1  0
  6  7  1  0
  6  8  2  0
  8  9  1  0
  9 10  1  0
 10 11  2  0
 11 12  1  0
 12 13  1  0
 13 14  1  0
 14 15  1  0
 15 16  1  0
 16 17  1  0
 17 18  1  0
 17 19  1  0
 19 20  1  0
 11  2  1  0
 20 14  1  0
  9  4  2  0
  1 21  1  0
  1 22  1  0
  1 23  1  0
  3 24  1  0
  5 25  1  0
  8 26  1  0
 12 27  1  0
 13 28  1  0
 13 29  1  0
 14 30  1  1
 15 31  1  0
 15 32  1  0
 16 33  1  0
 16 34  1  0
 17 35  1  6
 18 36  1  0
 19 37  1  0
 19 38  1  0
 20 39  1  0
 20 40  1  0
M  END
>  <meeko>  (141) 
{"is_sidechain": false}

$$$$

     RDKit          3D

 40 42  0  0  0  0  0  0  0  0999 V2000
    7.3600    1.9920  -57.4950 C   0  0  0  0  0  0  0  0  0  0  0  0
    6.7420    2.0710  -58.8560 C   0  0  0  0  0  0  0  0  0  0  0  0
    5.5390    1.5410  -59.1570 C   0  0  0  0  0  0  0  0  0  0  0  0
    5.1170    1.7030  -60.4880 C   0  0  0  0  0  0  0  0  0  0  0  0
    3.9440    1.2310  -61.0000 N   0  0  0  0  0  0  0  0  0  0  0  0
    3.9030    1.5780  -62.3230 C   0  0  0  0  0  0  0  0  0  0  0  0
    2.5410    1.1140  -63.2230 Cl  0  0  0  0  0  0  0  0  0  0  0  0
    5.0380    2.2690  -62.6720 C   0  0  0  0  0  0  0  0  0  0  0  0
    5.7990    2.3420  -61.4920 C   0  0  0  0  0  0  0  0  0  0  0  0
    6.9990    2.9030  -61.2510 N   0  0  0  0  0  0  0  0  0  0  0  0
    7.5290    2.7970  -59.9650 C   0  0  0  0  0  0  0  0  0  0  0  0
    8.6790    3.2740  -59.5990 N   0  0  0  0  0  0  0  0  0  0  0  0
    9.5270    4.0090  -60.5300 C   0  0  0  0  0  0  0  0  0  0  0  0
   10.9560    4.1570  -59.9830 C   0  0  2  0  0  0  0  0  0  0  0  0
   11.0390    3.8640  -58.4810 C   0  0  0  0  0  0  0  0  0  0  0  0
   12.4850    3.9100  -57.9670 C   0  0  0  0  0  0  0  0  0  0  0  0
   13.3680    4.9270  -58.6960 C   0  0  1  0  0  0  0  0  0  0  0  0
   14.0820    4.2610  -59.7380 O   0  0  0  0  0  0  0  0  0  0  0  0
   12.5500    6.0640  -59.2970 C   0  0  0  0  0  0  0  0  0  0  0  0
   11.4950    5.5680  -60.2920 C   0  0  0  0  0  0  0  0  0  0  0  0
    6.5760    2.0922  -56.7299 H   0  0  0  0  0  0  0  0  0  0  0  0
    7.8652    1.0220  -57.3774 H   0  0  0  0  0  0  0  0  0  0  0  0
    8.0930    2.8038  -57.3774 H   0  0  0  0  0  0  0  0  0  0  0  0
    4.9272    1.0156  -58.4089 H   0  0  0  0  0  0  0  0  0  0  0  0
    3.2270    0.7150  -60.5080 H   0  0  0  0  0  0  0  0  0  0  0  0
    5.2956    2.6768  -63.6606 H   0  0  0  0  0  0  0  0  0  0  0  0
    7.5560    3.3270  -61.9750 H   0  0  0  0  0  0  0  0  0  0  0  0
    9.5634    3.4670  -61.4865 H   0  0  0  0  0  0  0  0  0  0  0  0
    9.1017    5.0139  -60.6692 H   0  0  0  0  0  0  0  0  0  0  0  0
   11.5833    3.4081  -60.4886 H   0  0  0  0  0  0  0  0  0  0  0  0
   10.4450    4.6146  -57.9390 H   0  0  0  0  0  0  0  0  0  0  0  0
   10.6488    2.8499  -58.3098 H   0  0  0  0  0  0  0  0  0  0  0  0
   12.4652    4.1708  -56.8986 H   0  0  0  0  0  0  0  0  0  0  0  0
   12.9218    2.9172  -58.1499 H   0  0  0  0  0  0  0  0  0  0  0  0
   14.0624    5.3623  -57.9623 H   0  0  0  0  0  0  0  0  0  0  0  0
   13.4590    4.1180  -60.4710 H   0  0  0  0  0  0  0  0  0  0  0  0
   12.0416    6.6011  -58.4827 H   0  0  0  0  0  0  0  0  0  0  0  0
   13.2427    6.7200  -59.8447 H   0  0  0  0  0  0  0  0  0  0  0  0
   10.6496    6.2717  -60.2792 H   0  0  0  0  0  0  0  0  0  0  0  0
   11.9856    5.5131  -61.2750 H   0  0  0  0  0  0  0  0  0  0  0  0
  1  2  1  0
  2  3  2  0
  3  4  1  0
  4  5  1  0
  5  6  1  0
  6  7  1  0
  6  8  2  0
  8  9  1  0
  9 10  1  0
 10 11  1  0
 11 12  2  0
 12 13  1  0
 13 14  1  0
 14 15  1  0
 15 16  1  0
 16 17  1  0
 17 18  1  0
 17 19  1  0
 19 20  1  0
 11  2  1  0
 20 14  1  0
  9  4  2  0
  1 21  1  0
  1 22  1  0
  1 23  1  0
  3 24  1  0
  5 25  1  0
  8 26  1  0
 10 27  1  0
 13 28  1  0
 13 29  1  0
 14 30  1  1
 15 31  1  0
 15 32  1  0
 16 33  1  0
 16 34  1  0
 17 35  1  6
 18 36  1  0
 19 37  1  0
 19 38  1  0
 20 39  1  0
 20 40  1  0
M  END
>  <meeko>  (142) 
{"is_sidechain": false}

$$$$

     RDKit          3D

 40 42  0  0  0  0  0  0  0  0999 V2000
    7.0940    1.7660  -56.8590 C   0  0  0  0  0  0  0  0  0  0  0  0
    6.8140    1.9470  -58.3150 C   0  0  0  0  0  0  0  0  0  0  0  0
    5.5550    1.7740  -58.7810 C   0  0  0  0  0  0  0  0  0  0  0  0
    5.3610    1.9660  -60.1580 C   0  0  0  0  0  0  0  0  0  0  0  0
    4.1680    1.8350  -60.8100 N   0  0  0  0  0  0  0  0  0  0  0  0
    4.3900    2.1020  -62.1330 C   0  0  0  0  0  0  0  0  0  0  0  0
    3.0680    2.0140  -63.1940 Cl  0  0  0  0  0  0  0  0  0  0  0  0
    5.7150    2.4040  -62.3430 C   0  0  0  0  0  0  0  0  0  0  0  0
    6.3150    2.3120  -61.0760 C   0  0  0  0  0  0  0  0  0  0  0  0
    7.5810    2.5020  -60.6810 N   0  0  0  0  0  0  0  0  0  0  0  0
    7.9100    2.3340  -59.3390 C   0  0  0  0  0  0  0  0  0  0  0  0
    9.1690    2.5400  -59.1270 N   0  0  0  0  0  0  0  0  0  0  0  0
    9.8470    2.4440  -57.8520 C   0  0  0  0  0  0  0  0  0  0  0  0
   10.6790    3.7270  -57.6400 C   0  0  2  0  0  0  0  0  0  0  0  0
   10.2700    4.8600  -58.6080 C   0  0  0  0  0  0  0  0  0  0  0  0
   11.1720    4.9330  -59.8380 C   0  0  0  0  0  0  0  0  0  0  0  0
   12.6360    5.1760  -59.4550 C   0  0  1  0  0  0  0  0  0  0  0  0
   12.9210    6.5730  -59.4860 O   0  0  0  0  0  0  0  0  0  0  0  0
   13.0050    4.6260  -58.0750 C   0  0  0  0  0  0  0  0  0  0  0  0
   12.1810    3.3920  -57.7350 C   0  0  0  0  0  0  0  0  0  0  0  0
    6.3137    2.2704  -56.2701 H   0  0  0  0  0  0  0  0  0  0  0  0
    7.0996    0.6929  -56.6173 H   0  0  0  0  0  0  0  0  0  0  0  0
    8.0748    2.2014  -56.6173 H   0  0  0  0  0  0  0  0  0  0  0  0
    4.7253    1.4968  -58.1140 H   0  0  0  0  0  0  0  0  0  0  0  0
    3.2760    1.5870  -60.4070 H   0  0  0  0  0  0  0  0  0  0  0  0
    6.1999    2.6617  -63.2961 H   0  0  0  0  0  0  0  0  0  0  0  0
    8.3500    2.7530  -61.2880 H   0  0  0  0  0  0  0  0  0  0  0  0
    9.1064    2.3448  -57.0448 H   0  0  0  0  0  0  0  0  0  0  0  0
   10.5052    1.5627  -57.8413 H   0  0  0  0  0  0  0  0  0  0  0  0
   10.4705    4.1123  -56.6310 H   0  0  0  0  0  0  0  0  0  0  0  0
    9.2357    4.6848  -58.9390 H   0  0  0  0  0  0  0  0  0  0  0  0
   10.3658    5.8127  -58.0666 H   0  0  0  0  0  0  0  0  0  0  0  0
   11.1007    3.9836  -60.3890 H   0  0  0  0  0  0  0  0  0  0  0  0
   10.8361    5.7762  -60.4595 H   0  0  0  0  0  0  0  0  0  0  0  0
   13.2410    4.6329  -60.1960 H   0  0  0  0  0  0  0  0  0  0  0  0
   13.8160    6.6850  -59.8530 H   0  0  0  0  0  0  0  0  0  0  0  0
   14.0718    4.3577  -58.0694 H   0  0  0  0  0  0  0  0  0  0  0  0
   12.7958    5.4019  -57.3239 H   0  0  0  0  0  0  0  0  0  0  0  0
   12.3299    2.6350  -58.5191 H   0  0  0  0  0  0  0  0  0  0  0  0
   12.5135    3.0123  -56.7576 H   0  0  0  0  0  0  0  0  0  0  0  0
  1  2  1  0
  2  3  2  0
  3  4  1  0
  4  5  1  0
  5  6  1  0
  6  7  1  0
  6  8  2  0
  8  9  1  0
  9 10  1  0
 10 11  1  0
 11 12  2  0
 12 13  1  0
 13 14  1  0
 14 15  1  0
 15 16  1  0
 16 17  1  0
 17 18  1  0
 17 19  1  0
 19 20  1  0
 11  2  1  0
 20 14  1  0
  9  4  2  0
  1 21  1  0
  1 22  1  0
  1 23  1  0
  3 24  1  0
  5 25  1  0
  8 26  1  0
 10 27  1  0
 13 28  1  0
 13 29  1  0
 14 30  1  6
 15 31  1  0
 15 32  1  0
 16 33  1  0
 16 34  1  0
 17 35  1  1
 18 36  1  0
 19 37  1  0
 19 38  1  0
 20 39  1  0
 20 40  1  0
M  END
>  <meeko>  (143) 
{"is_sidechain": false}

$$$$

     RDKit          3D

 24 25  0  0  0  0  0  0  0  0999 V2000
    9.2800    5.3420  -57.2920 C   0  0  0  0  0  0  0  0  0  0  0  0
    9.2870    4.6060  -58.5610 N   0  0  0  0  0  0  0  0  0  0  0  0
   10.3530    4.7660  -59.5000 C   0  0  0  0  0  0  0  0  0  0  0  0
   11.5820    5.5780  -59.1350 C   0  0  0  0  0  0  0  0  0  0  0  0
   11.9820    6.3980  -60.2290 O   0  0  0  0  0  0  0  0  0  0  0  0
   10.3060    4.1760  -60.7200 C   0  0  0  0  0  0  0  0  0  0  0  0
    9.1620    3.3760  -61.1190 C   0  0  0  0  0  0  0  0  0  0  0  0
    8.1440    3.2400  -60.2650 C   0  0  0  0  0  0  0  0  0  0  0  0
    6.9750    2.5560  -60.4490 N   0  0  0  0  0  0  0  0  0  0  0  0
    6.3110    2.7520  -59.3420 C   0  0  0  0  0  0  0  0  0  0  0  0
    5.0680    2.2280  -59.1530 N   0  0  0  0  0  0  0  0  0  0  0  0
    7.0100    3.5830  -58.3460 C   0  0  0  0  0  0  0  0  0  0  0  0
    8.1640    3.8670  -58.9540 C   0  0  0  0  0  0  0  0  0  0  0  0
    9.2868    4.6289  -56.4545 H   0  0  0  0  0  0  0  0  0  0  0  0
   10.1721    5.9830  -57.2350 H   0  0  0  0  0  0  0  0  0  0  0  0
    8.3759    5.9660  -57.2350 H   0  0  0  0  0  0  0  0  0  0  0  0
   11.3500    6.2166  -58.2700 H   0  0  0  0  0  0  0  0  0  0  0  0
   12.4031    4.8888  -58.8886 H   0  0  0  0  0  0  0  0  0  0  0  0
   12.5330    7.1050  -59.8570 H   0  0  0  0  0  0  0  0  0  0  0  0
   11.1467    4.3054  -61.4174 H   0  0  0  0  0  0  0  0  0  0  0  0
    9.1341    2.8911  -62.1059 H   0  0  0  0  0  0  0  0  0  0  0  0
    4.6640    1.9030  -60.0270 H   0  0  0  0  0  0  0  0  0  0  0  0
    4.4290    2.7870  -58.6040 H   0  0  0  0  0  0  0  0  0  0  0  0
    6.6660    3.8928  -57.3482 H   0  0  0  0  0  0  0  0  0  0  0  0
  1  2  1  0
  2  3  1  0
  3  4  1  0
  4  5  1  0
  3  6  2  0
  6  7  1  0
  7  8  2  0
  8  9  1  0
  9 10  2  0
 10 11  1  0
 10 12  1  0
 12 13  2  0
 13  2  1  0
 13  8  1  0
  1 14  1  0
  1 15  1  0
  1 16  1  0
  4 17  1  0
  4 18  1  0
  5 19  1  0
  6 20  1  0
  7 21  1  0
 11 22  1  0
 11 23  1  0
 12 24  1  0
M  END
>  <meeko>  (144) 
{"is_sidechain": false}

$$$$

     RDKit          3D

 24 25  0  0  0  0  0  0  0  0999 V2000
    9.2840    5.3150  -57.2970 C   0  0  0  0  0  0  0  0  0  0  0  0
    9.2880    4.6470  -58.6050 N   0  0  0  0  0  0  0  0  0  0  0  0
   10.3770    4.8040  -59.5150 C   0  0  0  0  0  0  0  0  0  0  0  0
   11.5530    5.6910  -59.1470 C   0  0  0  0  0  0  0  0  0  0  0  0
   11.9840    6.4410  -60.2790 O   0  0  0  0  0  0  0  0  0  0  0  0
   10.3800    4.1900  -60.7230 C   0  0  0  0  0  0  0  0  0  0  0  0
    9.2670    3.3620  -61.1440 C   0  0  0  0  0  0  0  0  0  0  0  0
    8.2140    3.2280  -60.3320 C   0  0  0  0  0  0  0  0  0  0  0  0
    7.0410    2.5570  -60.4580 N   0  0  0  0  0  0  0  0  0  0  0  0
    6.2720    2.7540  -59.3550 C   0  0  0  0  0  0  0  0  0  0  0  0
    5.0960    2.2690  -59.1720 N   0  0  0  0  0  0  0  0  0  0  0  0
    7.0070    3.6240  -58.3980 C   0  0  0  0  0  0  0  0  0  0  0  0
    8.1800    3.8910  -59.0120 C   0  0  0  0  0  0  0  0  0  0  0  0
    9.2885    4.5582  -56.4988 H   0  0  0  0  0  0  0  0  0  0  0  0
   10.1784    5.9489  -57.2063 H   0  0  0  0  0  0  0  0  0  0  0  0
    8.3821    5.9382  -57.2063 H   0  0  0  0  0  0  0  0  0  0  0  0
   11.2485    6.3834  -58.3483 H   0  0  0  0  0  0  0  0  0  0  0  0
   12.3833    5.0571  -58.8023 H   0  0  0  0  0  0  0  0  0  0  0  0
   12.7410    5.9560  -60.6560 H   0  0  0  0  0  0  0  0  0  0  0  0
   11.2408    4.3220  -61.3950 H   0  0  0  0  0  0  0  0  0  0  0  0
    9.2889    2.8513  -62.1180 H   0  0  0  0  0  0  0  0  0  0  0  0
    6.7600    2.0230  -61.2620 H   0  0  0  0  0  0  0  0  0  0  0  0
    4.7270    2.5640  -58.2640 H   0  0  0  0  0  0  0  0  0  0  0  0
    6.6702    3.9722  -57.4104 H   0  0  0  0  0  0  0  0  0  0  0  0
  1  2  1  0
  2  3  1  0
  3  4  1  0
  4  5  1  0
  3  6  2  0
  6  7  1  0
  7  8  2  0
  8  9  1  0
  9 10  1  0
 10 11  2  3
 10 12  1  0
 12 13  2  0
 13  2  1  0
 13  8  1  0
  1 14  1  0
  1 15  1  0
  1 16  1  0
  4 17  1  0
  4 18  1  0
  5 19  1  0
  6 20  1  0
  7 21  1  0
  9 22  1  0
 11 23  1  0
 12 24  1  0
M  END
>  <meeko>  (145) 
{"is_sidechain": false}

$$$$

     RDKit          3D

 56 59  0  0  0  0  0  0  0  0999 V2000
    8.9440    5.2650  -56.9800 C   0  0  0  0  0  0  0  0  0  0  0  0
    8.9050    4.0180  -57.6620 O   0  0  0  0  0  0  0  0  0  0  0  0
    7.9090    3.1380  -57.3240 C   0  0  0  0  0  0  0  0  0  0  0  0
    6.5870    3.2550  -57.7640 C   0  0  0  0  0  0  0  0  0  0  0  0
    5.6190    2.3460  -57.3390 C   0  0  0  0  0  0  0  0  0  0  0  0
    5.9590    1.3170  -56.4650 C   0  0  0  0  0  0  0  0  0  0  0  0
    7.2790    1.1610  -56.0100 C   0  0  0  0  0  0  0  0  0  0  0  0
    7.5730    0.0280  -55.0330 C   0  0  2  0  0  0  0  0  0  0  0  0
    6.4080   -0.9740  -54.9460 C   0  0  0  0  0  0  0  0  0  0  0  0
    6.7200   -2.0590  -53.9190 C   0  0  0  0  0  0  0  0  0  0  0  0
    6.9500   -1.4990  -52.4990 C   0  0  1  0  0  0  0  0  0  0  0  0
    8.1020   -2.2340  -51.7840 C   0  0  0  0  0  0  0  0  0  0  0  0
    8.6220   -3.3120  -52.6110 N   0  0  0  0  0  0  0  0  0  0  0  0
    9.4760   -3.1430  -53.6840 C   0  0  0  0  0  0  0  0  0  0  0  0
   10.2610   -2.0360  -53.7630 C   0  0  0  0  0  0  0  0  0  0  0  0
   11.1720   -1.8300  -54.8860 C   0  0  0  0  0  0  0  0  0  0  0  0
   11.2130   -2.7490  -55.8580 C   0  0  0  0  0  0  0  0  0  0  0  0
   11.9570   -2.7690  -57.0030 N   0  0  0  0  0  0  0  0  0  0  0  0
   11.5910   -3.8720  -57.6060 C   0  0  0  0  0  0  0  0  0  0  0  0
   12.1200   -4.2330  -58.8070 N   0  0  0  0  0  0  0  0  0  0  0  0
   10.5700   -4.6610  -56.8880 C   0  0  0  0  0  0  0  0  0  0  0  0
   10.3700   -3.9270  -55.7970 C   0  0  0  0  0  0  0  0  0  0  0  0
    9.5570   -4.0790  -54.7040 N   0  0  0  0  0  0  0  0  0  0  0  0
    7.1850    0.0230  -52.4970 C   0  0  0  0  0  0  0  0  0  0  0  0
    8.0680    0.5000  -53.6500 C   0  0  0  0  0  0  0  0  0  0  0  0
    8.2580    2.0660  -56.4720 C   0  0  0  0  0  0  0  0  0  0  0  0
    9.5360    1.8930  -55.9940 O   0  0  0  0  0  0  0  0  0  0  0  0
   10.4160    1.2670  -56.9270 C   0  0  0  0  0  0  0  0  0  0  0  0
    8.9385    5.0894  -55.8941 H   0  0  0  0  0  0  0  0  0  0  0  0
    9.8595    5.8071  -57.2591 H   0  0  0  0  0  0  0  0  0  0  0  0
    8.0641    5.8633  -57.2591 H   0  0  0  0  0  0  0  0  0  0  0  0
    6.3090    4.0691  -58.4496 H   0  0  0  0  0  0  0  0  0  0  0  0
    4.5828    2.4422  -57.6956 H   0  0  0  0  0  0  0  0  0  0  0  0
    5.1825    0.6157  -56.1256 H   0  0  0  0  0  0  0  0  0  0  0  0
    8.4302   -0.5144  -55.4584 H   0  0  0  0  0  0  0  0  0  0  0  0
    5.4932   -0.4421  -54.6457 H   0  0  0  0  0  0  0  0  0  0  0  0
    6.2644   -1.4431  -55.9306 H   0  0  0  0  0  0  0  0  0  0  0  0
    5.8753   -2.7628  -53.8854 H   0  0  0  0  0  0  0  0  0  0  0  0
    7.6526   -2.5504  -54.2333 H   0  0  0  0  0  0  0  0  0  0  0  0
    6.0226   -1.6830  -51.9368 H   0  0  0  0  0  0  0  0  0  0  0  0
    8.9108   -1.5184  -51.5745 H   0  0  0  0  0  0  0  0  0  0  0  0
    7.7172   -2.6637  -50.8473 H   0  0  0  0  0  0  0  0  0  0  0  0
    7.9830   -4.0900  -52.7410 H   0  0  0  0  0  0  0  0  0  0  0  0
   10.2091   -1.2803  -52.9653 H   0  0  0  0  0  0  0  0  0  0  0  0
   11.8121   -0.9366  -54.9319 H   0  0  0  0  0  0  0  0  0  0  0  0
   12.6090   -3.4610  -59.2490 H   0  0  0  0  0  0  0  0  0  0  0  0
   11.4990   -4.7240  -59.4390 H   0  0  0  0  0  0  0  0  0  0  0  0
   10.0971   -5.6103  -57.1799 H   0  0  0  0  0  0  0  0  0  0  0  0
    8.8910   -4.8340  -54.6950 H   0  0  0  0  0  0  0  0  0  0  0  0
    6.2101    0.5269  -52.5723 H   0  0  0  0  0  0  0  0  0  0  0  0
    7.7085    0.2706  -51.5618 H   0  0  0  0  0  0  0  0  0  0  0  0
    8.0878    1.5998  -53.6428 H   0  0  0  0  0  0  0  0  0  0  0  0
    9.0673    0.0667  -53.4961 H   0  0  0  0  0  0  0  0  0  0  0  0
   11.1946    0.7132  -56.3819 H   0  0  0  0  0  0  0  0  0  0  0  0
    9.8452    0.5708  -57.5591 H   0  0  0  0  0  0  0  0  0  0  0  0
   10.8865    2.0345  -57.5591 H   0  0  0  0  0  0  0  0  0  0  0  0
  1  2  1  0
  2  3  1  0
  3  4  1  0
  4  5  2  0
  5  6  1  0
  6  7  2  0
  7  8  1  0
  8  9  1  0
  9 10  1  0
 10 11  1  0
 11 12  1  0
 12 13  1  0
 13 14  1  0
 14 15  2  0
 15 16  1  0
 16 17  2  0
 17 18  1  0
 18 19  2  0
 19 20  1  0
 19 21  1  0
 21 22  2  0
 22 23  1  0
 11 24  1  0
 24 25  1  0
  7 26  1  0
 26 27  1  0
 27 28  1  0
 26  3  2  0
 25  8  1  0
 23 14  1  0
 22 17  1  0
  1 29  1  0
  1 30  1  0
  1 31  1  0
  4 32  1  0
  5 33  1  0
  6 34  1  0
  8 35  1  1
  9 36  1  0
  9 37  1  0
 10 38  1  0
 10 39  1  0
 11 40  1  6
 12 41  1  0
 12 42  1  0
 13 43  1  0
 15 44  1  0
 16 45  1  0
 20 46  1  0
 20 47  1  0
 21 48  1  0
 23 49  1  0
 24 50  1  0
 24 51  1  0
 25 52  1  0
 25 53  1  0
 28 54  1  0
 28 55  1  0
 28 56  1  0
M  END
>  <meeko>  (146) 
{"is_sidechain": false}

$$$$

     RDKit          3D

 56 59  0  0  0  0  0  0  0  0999 V2000
   12.5110    5.3030  -59.5620 C   0  0  0  0  0  0  0  0  0  0  0  0
   11.1180    5.5050  -59.7590 O   0  0  0  0  0  0  0  0  0  0  0  0
   10.3080    4.4000  -59.7220 C   0  0  0  0  0  0  0  0  0  0  0  0
    9.9600    3.6430  -60.8420 C   0  0  0  0  0  0  0  0  0  0  0  0
    9.0930    2.5570  -60.7180 C   0  0  0  0  0  0  0  0  0  0  0  0
    8.5640    2.2150  -59.4730 C   0  0  0  0  0  0  0  0  0  0  0  0
    8.9090    2.9370  -58.3200 C   0  0  0  0  0  0  0  0  0  0  0  0
    8.3120    2.5910  -56.9590 C   0  0  2  0  0  0  0  0  0  0  0  0
    9.3020    1.9700  -55.9460 C   0  0  0  0  0  0  0  0  0  0  0  0
    9.1080    0.4640  -55.7680 C   0  0  0  0  0  0  0  0  0  0  0  0
    7.6840    0.0990  -55.3020 C   0  0  1  0  0  0  0  0  0  0  0  0
    7.6180   -0.0190  -53.7670 C   0  0  0  0  0  0  0  0  0  0  0  0
    7.8180   -1.3980  -53.3500 N   0  0  0  0  0  0  0  0  0  0  0  0
    8.9270   -2.1650  -53.6500 C   0  0  0  0  0  0  0  0  0  0  0  0
   10.0470   -2.0710  -52.8880 C   0  0  0  0  0  0  0  0  0  0  0  0
   11.2380   -2.8620  -53.1810 C   0  0  0  0  0  0  0  0  0  0  0  0
   11.2290   -3.6840  -54.2370 C   0  0  0  0  0  0  0  0  0  0  0  0
   12.1470   -4.5200  -54.7850 N   0  0  0  0  0  0  0  0  0  0  0  0
   11.6340   -5.1020  -55.9060 C   0  0  0  0  0  0  0  0  0  0  0  0
   12.2620   -5.9260  -56.6670 N   0  0  0  0  0  0  0  0  0  0  0  0
   10.2370   -4.6290  -56.1110 C   0  0  0  0  0  0  0  0  0  0  0  0
   10.0310   -3.7840  -55.0840 C   0  0  0  0  0  0  0  0  0  0  0  0
    8.9380   -3.0360  -54.7280 N   0  0  0  0  0  0  0  0  0  0  0  0
    6.6250    1.0860  -55.8310 C   0  0  0  0  0  0  0  0  0  0  0  0
    7.0500    1.7260  -57.1480 C   0  0  0  0  0  0  0  0  0  0  0  0
    9.7960    4.0270  -58.4620 C   0  0  0  0  0  0  0  0  0  0  0  0
   10.0770    4.7580  -57.3290 O   0  0  0  0  0  0  0  0  0  0  0  0
    8.9790    5.5820  -56.9380 C   0  0  0  0  0  0  0  0  0  0  0  0
   12.7281    5.2715  -58.4841 H   0  0  0  0  0  0  0  0  0  0  0  0
   12.8126    4.3517  -60.0247 H   0  0  0  0  0  0  0  0  0  0  0  0
   13.0704    6.1294  -60.0247 H   0  0  0  0  0  0  0  0  0  0  0  0
   10.3717    3.9042  -61.8280 H   0  0  0  0  0  0  0  0  0  0  0  0
    8.8249    1.9670  -61.6068 H   0  0  0  0  0  0  0  0  0  0  0  0
    7.8669    1.3678  -59.3941 H   0  0  0  0  0  0  0  0  0  0  0  0
    8.0354    3.5476  -56.4916 H   0  0  0  0  0  0  0  0  0  0  0  0
   10.3271    2.1519  -56.3011 H   0  0  0  0  0  0  0  0  0  0  0  0
    9.1153    2.4434  -54.9708 H   0  0  0  0  0  0  0  0  0  0  0  0
    9.3014   -0.0320  -56.7306 H   0  0  0  0  0  0  0  0  0  0  0  0
    9.8089    0.1281  -54.9896 H   0  0  0  0  0  0  0  0  0  0  0  0
    7.4462   -0.8847  -55.7330 H   0  0  0  0  0  0  0  0  0  0  0  0
    8.4027    0.6105  -53.3221 H   0  0  0  0  0  0  0  0  0  0  0  0
    6.6256    0.3133  -53.4283 H   0  0  0  0  0  0  0  0  0  0  0  0
    6.9620   -1.9460  -53.3120 H   0  0  0  0  0  0  0  0  0  0  0  0
   10.0569   -1.3827  -52.0300 H   0  0  0  0  0  0  0  0  0  0  0  0
   12.1305   -2.7836  -52.5428 H   0  0  0  0  0  0  0  0  0  0  0  0
   13.0890   -4.6430  -54.4560 H   0  0  0  0  0  0  0  0  0  0  0  0
   11.6610   -6.2170  -57.4430 H   0  0  0  0  0  0  0  0  0  0  0  0
    9.5375   -4.9054  -56.9136 H   0  0  0  0  0  0  0  0  0  0  0  0
    8.1550   -2.9960  -55.3600 H   0  0  0  0  0  0  0  0  0  0  0  0
    5.6808    0.5439  -55.9877 H   0  0  0  0  0  0  0  0  0  0  0  0
    6.5044    1.8869  -55.0867 H   0  0  0  0  0  0  0  0  0  0  0  0
    7.2631    0.9338  -57.8808 H   0  0  0  0  0  0  0  0  0  0  0  0
    6.2331    2.3706  -57.5045 H   0  0  0  0  0  0  0  0  0  0  0  0
    8.9242    5.6231  -55.8401 H   0  0  0  0  0  0  0  0  0  0  0  0
    9.1224    6.5973  -57.3363 H   0  0  0  0  0  0  0  0  0  0  0  0
    8.0442    5.1606  -57.3363 H   0  0  0  0  0  0  0  0  0  0  0  0
  1  2  1  0
  2  3  1  0
  3  4  1  0
  4  5  2  0
  5  6  1  0
  6  7  2  0
  7  8  1  0
  8  9  1  0
  9 10  1  0
 10 11  1  0
 11 12  1  0
 12 13  1  0
 13 14  1  0
 14 15  2  0
 15 16  1  0
 16 17  2  0
 17 18  1  0
 18 19  1  0
 19 20  2  3
 19 21  1  0
 21 22  2  0
 22 23  1  0
 11 24  1  0
 24 25  1  0
  7 26  1  0
 26 27  1  0
 27 28  1  0
 26  3  2  0
 25  8  1  0
 23 14  1  0
 22 17  1  0
  1 29  1  0
  1 30  1  0
  1 31  1  0
  4 32  1  0
  5 33  1  0
  6 34  1  0
  8 35  1  6
  9 36  1  0
  9 37  1  0
 10 38  1  0
 10 39  1  0
 11 40  1  1
 12 41  1  0
 12 42  1  0
 13 43  1  0
 15 44  1  0
 16 45  1  0
 18 46  1  0
 20 47  1  0
 21 48  1  0
 23 49  1  0
 24 50  1  0
 24 51  1  0
 25 52  1  0
 25 53  1  0
 28 54  1  0
 28 55  1  0
 28 56  1  0
M  END
>  <meeko>  (147) 
{"is_sidechain": false}

$$$$

     RDKit          3D

 56 59  0  0  0  0  0  0  0  0999 V2000
   11.6610    5.6600  -60.0880 C   0  0  0  0  0  0  0  0  0  0  0  0
   10.7020    4.6150  -59.9970 O   0  0  0  0  0  0  0  0  0  0  0  0
    9.9830    4.5160  -58.8320 C   0  0  0  0  0  0  0  0  0  0  0  0
    9.7390    5.5840  -57.9670 C   0  0  0  0  0  0  0  0  0  0  0  0
    9.0170    5.3860  -56.7910 C   0  0  0  0  0  0  0  0  0  0  0  0
    8.5430    4.1170  -56.4590 C   0  0  0  0  0  0  0  0  0  0  0  0
    8.7770    3.0170  -57.2980 C   0  0  0  0  0  0  0  0  0  0  0  0
    8.2540    1.6290  -56.9430 C   0  0  2  0  0  0  0  0  0  0  0  0
    6.7720    1.7160  -56.5310 C   0  0  0  0  0  0  0  0  0  0  0  0
    6.3150    0.4210  -55.8710 C   0  0  0  0  0  0  0  0  0  0  0  0
    7.0590    0.1510  -54.5480 C   0  0  1  0  0  0  0  0  0  0  0  0
    7.1520   -1.3620  -54.2510 C   0  0  0  0  0  0  0  0  0  0  0  0
    8.2100   -1.6890  -53.2940 N   0  0  0  0  0  0  0  0  0  0  0  0
    9.2820   -2.4620  -53.7840 C   0  0  0  0  0  0  0  0  0  0  0  0
   10.4350   -2.5160  -52.9910 C   0  0  0  0  0  0  0  0  0  0  0  0
   11.5400   -3.2740  -53.3770 C   0  0  0  0  0  0  0  0  0  0  0  0
   11.3980   -3.9630  -54.5760 C   0  0  0  0  0  0  0  0  0  0  0  0
   12.2450   -4.7980  -55.2630 N   0  0  0  0  0  0  0  0  0  0  0  0
   11.6430   -5.2400  -56.4120 C   0  0  0  0  0  0  0  0  0  0  0  0
   12.2840   -6.0700  -57.2500 N   0  0  0  0  0  0  0  0  0  0  0  0
   10.3800   -4.6960  -56.4630 C   0  0  0  0  0  0  0  0  0  0  0  0
   10.2210   -3.8860  -55.3130 C   0  0  0  0  0  0  0  0  0  0  0  0
    9.1530   -3.1480  -54.9320 N   0  0  0  0  0  0  0  0  0  0  0  0
    8.4580    0.8010  -54.5230 C   0  0  0  0  0  0  0  0  0  0  0  0
    9.1070    0.8600  -55.9060 C   0  0  0  0  0  0  0  0  0  0  0  0
    9.4700    3.2430  -58.5060 C   0  0  0  0  0  0  0  0  0  0  0  0
    9.6800    2.1550  -59.3250 O   0  0  0  0  0  0  0  0  0  0  0  0
    8.7300    2.0950  -60.3890 C   0  0  0  0  0  0  0  0  0  0  0  0
   11.9533    5.9785  -59.0765 H   0  0  0  0  0  0  0  0  0  0  0  0
   12.5477    5.2979  -60.6290 H   0  0  0  0  0  0  0  0  0  0  0  0
   11.2242    6.5124  -60.6290 H   0  0  0  0  0  0  0  0  0  0  0  0
   10.1182    6.5865  -58.2144 H   0  0  0  0  0  0  0  0  0  0  0  0
    8.8199    6.2358  -56.1209 H   0  0  0  0  0  0  0  0  0  0  0  0
    7.9776    3.9765  -55.5260 H   0  0  0  0  0  0  0  0  0  0  0  0
    8.3417    1.0211  -57.8555 H   0  0  0  0  0  0  0  0  0  0  0  0
    6.6434    2.5468  -55.8216 H   0  0  0  0  0  0  0  0  0  0  0  0
    6.1654    1.8842  -57.4331 H   0  0  0  0  0  0  0  0  0  0  0  0
    5.2368    0.4895  -55.6641 H   0  0  0  0  0  0  0  0  0  0  0  0
    6.5371   -0.4073  -56.5599 H   0  0  0  0  0  0  0  0  0  0  0  0
    6.4646    0.6211  -53.7507 H   0  0  0  0  0  0  0  0  0  0  0  0
    6.1893   -1.6990  -53.8391 H   0  0  0  0  0  0  0  0  0  0  0  0
    7.3923   -1.8705  -55.1963 H   0  0  0  0  0  0  0  0  0  0  0  0
    8.5680   -0.8740  -52.8080 H   0  0  0  0  0  0  0  0  0  0  0  0
   10.4696   -1.9510  -52.0478 H   0  0  0  0  0  0  0  0  0  0  0  0
   12.4594   -3.3233  -52.7751 H   0  0  0  0  0  0  0  0  0  0  0  0
   13.1700   -5.0590  -54.9600 H   0  0  0  0  0  0  0  0  0  0  0  0
   12.7060   -6.9420  -56.9440 H   0  0  0  0  0  0  0  0  0  0  0  0
   12.7110   -5.7010  -58.0980 H   0  0  0  0  0  0  0  0  0  0  0  0
    9.6316   -4.8604  -57.2522 H   0  0  0  0  0  0  0  0  0  0  0  0
    8.3628    1.8259  -54.1351 H   0  0  0  0  0  0  0  0  0  0  0  0
    9.1007    0.1807  -53.8810 H   0  0  0  0  0  0  0  0  0  0  0  0
   10.0822    1.3605  -55.8143 H   0  0  0  0  0  0  0  0  0  0  0  0
    9.2080   -0.1745  -56.2660 H   0  0  0  0  0  0  0  0  0  0  0  0
    7.7146    2.0309  -59.9708 H   0  0  0  0  0  0  0  0  0  0  0  0
    8.8151    3.0003  -61.0080 H   0  0  0  0  0  0  0  0  0  0  0  0
    8.9283    1.2076  -61.0080 H   0  0  0  0  0  0  0  0  0  0  0  0
  1  2  1  0
  2  3  1  0
  3  4  1  0
  4  5  2  0
  5  6  1  0
  6  7  2  0
  7  8  1  0
  8  9  1  0
  9 10  1  0
 10 11  1  0
 11 12  1  0
 12 13  1  0
 13 14  1  0
 14 15  1  0
 15 16  2  0
 16 17  1  0
 17 18  1  0
 18 19  1  0
 19 20  1  0
 19 21  2  0
 21 22  1  0
 22 23  1  0
 11 24  1  0
 24 25  1  0
  7 26  1  0
 26 27  1  0
 27 28  1  0
 26  3  2  0
 25  8  1  0
 23 14  2  0
 22 17  2  0
  1 29  1  0
  1 30  1  0
  1 31  1  0
  4 32  1  0
  5 33  1  0
  6 34  1  0
  8 35  1  1
  9 36  1  0
  9 37  1  0
 10 38  1  0
 10 39  1  0
 11 40  1  6
 12 41  1  0
 12 42  1  0
 13 43  1  0
 15 44  1  0
 16 45  1  0
 18 46  1  0
 20 47  1  0
 20 48  1  0
 21 49  1  0
 24 50  1  0
 24 51  1  0
 25 52  1  0
 25 53  1  0
 28 54  1  0
 28 55  1  0
 28 56  1  0
M  END
>  <meeko>  (148) 
{"is_sidechain": false}

$$$$

     RDKit          3D

 56 59  0  0  0  0  0  0  0  0999 V2000
    2.5310    0.4580  -61.9800 C   0  0  0  0  0  0  0  0  0  0  0  0
    3.2410    1.3140  -61.0950 O   0  0  0  0  0  0  0  0  0  0  0  0
    4.4440    1.8130  -61.5230 C   0  0  0  0  0  0  0  0  0  0  0  0
    4.6900    2.2300  -62.8350 C   0  0  0  0  0  0  0  0  0  0  0  0
    5.9530    2.6920  -63.2020 C   0  0  0  0  0  0  0  0  0  0  0  0
    6.9840    2.7320  -62.2660 C   0  0  0  0  0  0  0  0  0  0  0  0
    6.7740    2.3240  -60.9370 C   0  0  0  0  0  0  0  0  0  0  0  0
    7.9520    2.3890  -59.9710 C   0  0  2  0  0  0  0  0  0  0  0  0
    7.8230    3.4750  -58.8810 C   0  0  0  0  0  0  0  0  0  0  0  0
    8.9270    4.5310  -58.9210 C   0  0  0  0  0  0  0  0  0  0  0  0
   10.3560    3.9580  -58.9860 C   0  0  1  0  0  0  0  0  0  0  0  0
   11.0420    3.9050  -57.6070 C   0  0  0  0  0  0  0  0  0  0  0  0
   11.4990    2.5480  -57.3280 N   0  0  0  0  0  0  0  0  0  0  0  0
   10.7530    1.7280  -56.6550 C   0  0  0  0  0  0  0  0  0  0  0  0
    9.3740    2.0810  -56.1010 C   0  0  0  0  0  0  0  0  0  0  0  0
    8.6840    1.1500  -55.4150 C   0  0  0  0  0  0  0  0  0  0  0  0
    9.3240   -0.0940  -55.2780 C   0  0  0  0  0  0  0  0  0  0  0  0
    8.8100   -1.1760  -54.6240 N   0  0  0  0  0  0  0  0  0  0  0  0
    9.7190   -2.2080  -54.7040 C   0  0  0  0  0  0  0  0  0  0  0  0
    9.4540   -3.3980  -54.1380 N   0  0  0  0  0  0  0  0  0  0  0  0
   10.8250   -1.7680  -55.4060 C   0  0  0  0  0  0  0  0  0  0  0  0
   10.5590   -0.4350  -55.7640 C   0  0  0  0  0  0  0  0  0  0  0  0
   11.2860    0.4610  -56.4530 N   0  0  0  0  0  0  0  0  0  0  0  0
   10.4390    2.6040  -59.7140 C   0  0  0  0  0  0  0  0  0  0  0  0
    9.3000    2.4240  -60.7100 C   0  0  0  0  0  0  0  0  0  0  0  0
    5.4820    1.8960  -60.5690 C   0  0  0  0  0  0  0  0  0  0  0  0
    5.3040    1.4950  -59.2660 O   0  0  0  0  0  0  0  0  0  0  0  0
    4.5230    2.4090  -58.4960 C   0  0  0  0  0  0  0  0  0  0  0  0
    1.9356   -0.2599  -61.3968 H   0  0  0  0  0  0  0  0  0  0  0  0
    1.8627    1.0591  -62.6141 H   0  0  0  0  0  0  0  0  0  0  0  0
    3.2453   -0.0877  -62.6141 H   0  0  0  0  0  0  0  0  0  0  0  0
    3.8827    2.1933  -63.5813 H   0  0  0  0  0  0  0  0  0  0  0  0
    6.1361    3.0260  -64.2339 H   0  0  0  0  0  0  0  0  0  0  0  0
    7.9787    3.0886  -62.5717 H   0  0  0  0  0  0  0  0  0  0  0  0
    7.9236    1.4449  -59.4072 H   0  0  0  0  0  0  0  0  0  0  0  0
    6.8552    3.9815  -59.0104 H   0  0  0  0  0  0  0  0  0  0  0  0
    7.9074    2.9634  -57.9109 H   0  0  0  0  0  0  0  0  0  0  0  0
    8.7684    5.1606  -59.8089 H   0  0  0  0  0  0  0  0  0  0  0  0
    8.8574    5.0929  -57.9779 H   0  0  0  0  0  0  0  0  0  0  0  0
   10.9221    4.6744  -59.5994 H   0  0  0  0  0  0  0  0  0  0  0  0
   11.9045    4.5877  -57.6029 H   0  0  0  0  0  0  0  0  0  0  0  0
   10.3213    4.2091  -56.8336 H   0  0  0  0  0  0  0  0  0  0  0  0
    8.9498    3.0833  -56.2604 H   0  0  0  0  0  0  0  0  0  0  0  0
    7.6886    1.3492  -54.9913 H   0  0  0  0  0  0  0  0  0  0  0  0
    7.9230   -1.2220  -54.1480 H   0  0  0  0  0  0  0  0  0  0  0  0
    8.5950   -3.5190  -53.6060 H   0  0  0  0  0  0  0  0  0  0  0  0
   10.1920   -4.0290  -53.8360 H   0  0  0  0  0  0  0  0  0  0  0  0
   11.7320   -2.3454  -55.6382 H   0  0  0  0  0  0  0  0  0  0  0  0
   12.1990    0.2920  -56.8480 H   0  0  0  0  0  0  0  0  0  0  0  0
   11.3957    2.5485  -60.2540 H   0  0  0  0  0  0  0  0  0  0  0  0
   10.3623    1.8064  -58.9604 H   0  0  0  0  0  0  0  0  0  0  0  0
    9.3031    3.2628  -61.4216 H   0  0  0  0  0  0  0  0  0  0  0  0
    9.4397    1.4753  -61.2489 H   0  0  0  0  0  0  0  0  0  0  0  0
    4.6858    2.2185  -57.4249 H   0  0  0  0  0  0  0  0  0  0  0  0
    4.8236    3.4398  -58.7349 H   0  0  0  0  0  0  0  0  0  0  0  0
    3.4579    2.2729  -58.7349 H   0  0  0  0  0  0  0  0  0  0  0  0
  1  2  1  0
  2  3  1  0
  3  4  1  0
  4  5  2  0
  5  6  1  0
  6  7  2  0
  7  8  1  0
  8  9  1  0
  9 10  1  0
 10 11  1  0
 11 12  1  0
 12 13  1  0
 13 14  2  0
 14 15  1  0
 15 16  2  0
 16 17  1  0
 17 18  1  0
 18 19  1  0
 19 20  1  0
 19 21  2  0
 21 22  1  0
 22 23  1  0
 11 24  1  0
 24 25  1  0
  7 26  1  0
 26 27  1  0
 27 28  1  0
 26  3  2  0
 25  8  1  0
 23 14  1  0
 22 17  2  0
  1 29  1  0
  1 30  1  0
  1 31  1  0
  4 32  1  0
  5 33  1  0
  6 34  1  0
  8 35  1  6
  9 36  1  0
  9 37  1  0
 10 38  1  0
 10 39  1  0
 11 40  1  1
 12 41  1  0
 12 42  1  0
 15 43  1  0
 16 44  1  0
 18 45  1  0
 20 46  1  0
 20 47  1  0
 21 48  1  0
 23 49  1  0
 24 50  1  0
 24 51  1  0
 25 52  1  0
 25 53  1  0
 28 54  1  0
 28 55  1  0
 28 56  1  0
M  END
>  <meeko>  (149) 
{"is_sidechain": false}

$$$$

     RDKit          3D

 56 59  0  0  0  0  0  0  0  0999 V2000
    8.3400   -1.9080  -52.4230 C   0  0  0  0  0  0  0  0  0  0  0  0
    8.0990   -1.7810  -53.8180 O   0  0  0  0  0  0  0  0  0  0  0  0
    9.1140   -1.2880  -54.5960 C   0  0  0  0  0  0  0  0  0  0  0  0
   10.2730   -2.0050  -54.9070 C   0  0  0  0  0  0  0  0  0  0  0  0
   11.2430   -1.4520  -55.7420 C   0  0  0  0  0  0  0  0  0  0  0  0
   11.0590   -0.1820  -56.2830 C   0  0  0  0  0  0  0  0  0  0  0  0
    9.9120    0.5750  -55.9840 C   0  0  0  0  0  0  0  0  0  0  0  0
    9.7700    1.9450  -56.6360 C   0  0  2  0  0  0  0  0  0  0  0  0
   10.5370    2.0970  -57.9670 C   0  0  0  0  0  0  0  0  0  0  0  0
   11.5700    3.2230  -57.9470 C   0  0  0  0  0  0  0  0  0  0  0  0
   10.9930    4.5760  -57.4950 C   0  0  1  0  0  0  0  0  0  0  0  0
   10.4000    5.3480  -58.6880 C   0  0  0  0  0  0  0  0  0  0  0  0
   10.2160    4.4650  -59.8370 N   0  0  0  0  0  0  0  0  0  0  0  0
    9.0790    3.8780  -60.0440 C   0  0  0  0  0  0  0  0  0  0  0  0
    9.0590    3.0150  -61.2980 C   0  0  0  0  0  0  0  0  0  0  0  0
    7.9410    2.3420  -61.6250 C   0  0  0  0  0  0  0  0  0  0  0  0
    6.8660    2.5090  -60.7360 C   0  0  0  0  0  0  0  0  0  0  0  0
    5.6410    1.9210  -60.8650 N   0  0  0  0  0  0  0  0  0  0  0  0
    4.8530    2.3100  -59.8050 C   0  0  0  0  0  0  0  0  0  0  0  0
    3.5900    1.8650  -59.6900 N   0  0  0  0  0  0  0  0  0  0  0  0
    5.5870    3.1640  -59.0030 C   0  0  0  0  0  0  0  0  0  0  0  0
    6.8530    3.2780  -59.6010 C   0  0  0  0  0  0  0  0  0  0  0  0
    7.9470    3.9760  -59.2370 N   0  0  0  0  0  0  0  0  0  0  0  0
    9.9640    4.4340  -56.3540 C   0  0  0  0  0  0  0  0  0  0  0  0
   10.0550    3.0870  -55.6440 C   0  0  0  0  0  0  0  0  0  0  0  0
    8.9540    0.0190  -55.1100 C   0  0  0  0  0  0  0  0  0  0  0  0
    7.8360    0.7770  -54.8520 O   0  0  0  0  0  0  0  0  0  0  0  0
    6.7170    0.4340  -55.6670 C   0  0  0  0  0  0  0  0  0  0  0  0
    7.5017   -1.4662  -51.8644 H   0  0  0  0  0  0  0  0  0  0  0  0
    8.4337   -2.9726  -52.1625 H   0  0  0  0  0  0  0  0  0  0  0  0
    9.2711   -1.3835  -52.1625 H   0  0  0  0  0  0  0  0  0  0  0  0
   10.4207   -3.0122  -54.4902 H   0  0  0  0  0  0  0  0  0  0  0  0
   12.1558   -2.0202  -55.9740 H   0  0  0  0  0  0  0  0  0  0  0  0
   11.8231    0.2358  -56.9550 H   0  0  0  0  0  0  0  0  0  0  0  0
    8.7111    2.0251  -56.9230 H   0  0  0  0  0  0  0  0  0  0  0  0
   11.0564    1.1511  -58.1801 H   0  0  0  0  0  0  0  0  0  0  0  0
    9.7972    2.3487  -58.7412 H   0  0  0  0  0  0  0  0  0  0  0  0
   12.3790    2.9413  -57.2570 H   0  0  0  0  0  0  0  0  0  0  0  0
   11.9285    3.3521  -58.9789 H   0  0  0  0  0  0  0  0  0  0  0  0
   11.8322    5.1585  -57.0871 H   0  0  0  0  0  0  0  0  0  0  0  0
    9.4263    5.7690  -58.3971 H   0  0  0  0  0  0  0  0  0  0  0  0
   11.0961    6.1521  -58.9690 H   0  0  0  0  0  0  0  0  0  0  0  0
    9.9540    2.9421  -61.9334 H   0  0  0  0  0  0  0  0  0  0  0  0
    7.8736    1.7082  -62.5215 H   0  0  0  0  0  0  0  0  0  0  0  0
    5.3470    1.3110  -61.6130 H   0  0  0  0  0  0  0  0  0  0  0  0
    2.8880    2.3640  -59.1530 H   0  0  0  0  0  0  0  0  0  0  0  0
    3.1860    1.3030  -60.4360 H   0  0  0  0  0  0  0  0  0  0  0  0
    5.2472    3.6564  -58.0799 H   0  0  0  0  0  0  0  0  0  0  0  0
    7.9870    4.5250  -58.3940 H   0  0  0  0  0  0  0  0  0  0  0  0
   10.1417    5.2323  -55.6184 H   0  0  0  0  0  0  0  0  0  0  0  0
    8.9611    4.5077  -56.7998 H   0  0  0  0  0  0  0  0  0  0  0  0
   11.0654    2.9631  -55.2273 H   0  0  0  0  0  0  0  0  0  0  0  0
    9.3098    3.0555  -54.8355 H   0  0  0  0  0  0  0  0  0  0  0  0
    5.8627    0.1721  -55.0255 H   0  0  0  0  0  0  0  0  0  0  0  0
    6.4494    1.2914  -56.3021 H   0  0  0  0  0  0  0  0  0  0  0  0
    6.9758   -0.4261  -56.3021 H   0  0  0  0  0  0  0  0  0  0  0  0
  1  2  1  0
  2  3  1  0
  3  4  1  0
  4  5  2  0
  5  6  1  0
  6  7  2  0
  7  8  1  0
  8  9  1  0
  9 10  1  0
 10 11  1  0
 11 12  1  0
 12 13  1  0
 13 14  2  0
 14 15  1  0
 15 16  2  0
 16 17  1  0
 17 18  1  0
 18 19  1  0
 19 20  1  0
 19 21  2  0
 21 22  1  0
 22 23  1  0
 11 24  1  0
 24 25  1  0
  7 26  1  0
 26 27  1  0
 27 28  1  0
 26  3  2  0
 25  8  1  0
 23 14  1  0
 22 17  2  0
  1 29  1  0
  1 30  1  0
  1 31  1  0
  4 32  1  0
  5 33  1  0
  6 34  1  0
  8 35  1  1
  9 36  1  0
  9 37  1  0
 10 38  1  0
 10 39  1  0
 11 40  1  6
 12 41  1  0
 12 42  1  0
 15 43  1  0
 16 44  1  0
 18 45  1  0
 20 46  1  0
 20 47  1  0
 21 48  1  0
 23 49  1  0
 24 50  1  0
 24 51  1  0
 25 52  1  0
 25 53  1  0
 28 54  1  0
 28 55  1  0
 28 56  1  0
M  END
>  <meeko>  (150) 
{"is_sidechain": false}

$$$$

     RDKit          3D

 35 37  0  0  0  0  0  0  0  0999 V2000
   10.4460    2.2290  -57.0170 C   0  0  0  0  0  0  0  0  0  0  0  0
   10.5120    2.4980  -58.4120 O   0  0  0  0  0  0  0  0  0  0  0  0
   11.2690    3.5660  -58.8170 C   0  0  0  0  0  0  0  0  0  0  0  0
   12.6510    3.6760  -58.6190 C   0  0  0  0  0  0  0  0  0  0  0  0
   13.3440    4.8110  -59.0470 C   0  0  0  0  0  0  0  0  0  0  0  0
   12.6630    5.8510  -59.6690 C   0  0  0  0  0  0  0  0  0  0  0  0
   11.2890    5.7530  -59.8720 C   0  0  0  0  0  0  0  0  0  0  0  0
   10.5770    4.6070  -59.4630 C   0  0  0  0  0  0  0  0  0  0  0  0
    9.0780    4.5530  -59.6780 C   0  0  0  0  0  0  0  0  0  0  0  0
    8.7420    3.5300  -60.6620 N   0  0  0  0  0  0  0  0  0  0  0  0
    7.5520    2.8310  -60.6930 C   0  0  0  0  0  0  0  0  0  0  0  0
    7.2100    2.0210  -59.6570 C   0  0  0  0  0  0  0  0  0  0  0  0
    5.9640    1.2610  -59.6630 C   0  0  0  0  0  0  0  0  0  0  0  0
    5.1590    1.3550  -60.7280 C   0  0  0  0  0  0  0  0  0  0  0  0
    3.9660    0.7300  -60.9790 N   0  0  0  0  0  0  0  0  0  0  0  0
    3.6830    1.1800  -62.1570 C   0  0  0  0  0  0  0  0  0  0  0  0
    2.5830    0.8290  -62.8140 O   0  0  0  0  0  0  0  0  0  0  0  0
    4.5860    2.1050  -62.8060 C   0  0  0  0  0  0  0  0  0  0  0  0
    5.5190    2.2040  -61.8590 C   0  0  0  0  0  0  0  0  0  0  0  0
    6.6860    2.9170  -61.7750 N   0  0  0  0  0  0  0  0  0  0  0  0
   10.6714    3.1476  -56.4554 H   0  0  0  0  0  0  0  0  0  0  0  0
    9.4355    1.8797  -56.7583 H   0  0  0  0  0  0  0  0  0  0  0  0
   11.1801    1.4517  -56.7583 H   0  0  0  0  0  0  0  0  0  0  0  0
   13.1963    2.8605  -58.1215 H   0  0  0  0  0  0  0  0  0  0  0  0
   14.4306    4.8818  -58.8915 H   0  0  0  0  0  0  0  0  0  0  0  0
   13.2074    6.7479  -59.9995 H   0  0  0  0  0  0  0  0  0  0  0  0
   10.7519    6.5808  -60.3580 H   0  0  0  0  0  0  0  0  0  0  0  0
    8.5834    4.3152  -58.7247 H   0  0  0  0  0  0  0  0  0  0  0  0
    8.7352    5.5305  -60.0482 H   0  0  0  0  0  0  0  0  0  0  0  0
    9.5440    2.9440  -60.8810 H   0  0  0  0  0  0  0  0  0  0  0  0
    7.8874    1.9362  -58.7945 H   0  0  0  0  0  0  0  0  0  0  0  0
    5.6919    0.6234  -58.8089 H   0  0  0  0  0  0  0  0  0  0  0  0
    2.8630    0.4150  -63.6470 H   0  0  0  0  0  0  0  0  0  0  0  0
    4.5216    2.5863  -63.7930 H   0  0  0  0  0  0  0  0  0  0  0  0
    7.0150    3.4040  -62.5930 H   0  0  0  0  0  0  0  0  0  0  0  0
  1  2  1  0
  2  3  1  0
  3  4  2  0
  4  5  1  0
  5  6  2  0
  6  7  1  0
  7  8  2  0
  8  9  1  0
  9 10  1  0
 10 11  1  0
 11 12  2  0
 12 13  1  0
 13 14  2  0
 14 15  1  0
 15 16  2  0
 16 17  1  0
 16 18  1  0
 18 19  2  0
 19 20  1  0
  8  3  1  0
 20 11  1  0
 19 14  1  0
  1 21  1  0
  1 22  1  0
  1 23  1  0
  4 24  1  0
  5 25  1  0
  6 26  1  0
  7 27  1  0
  9 28  1  0
  9 29  1  0
 10 30  1  0
 12 31  1  0
 13 32  1  0
 17 33  1  0
 18 34  1  0
 20 35  1  0
M  END
>  <meeko>  (151) 
{"is_sidechain": false}

$$$$

     RDKit          3D

 35 37  0  0  0  0  0  0  0  0999 V2000
   10.1720    1.9130  -57.1950 C   0  0  0  0  0  0  0  0  0  0  0  0
   10.4060    2.2580  -58.5540 O   0  0  0  0  0  0  0  0  0  0  0  0
   11.1830    3.3580  -58.8050 C   0  0  0  0  0  0  0  0  0  0  0  0
   12.2790    3.7460  -58.0250 C   0  0  0  0  0  0  0  0  0  0  0  0
   13.0090    4.8950  -58.3420 C   0  0  0  0  0  0  0  0  0  0  0  0
   12.6510    5.6690  -59.4400 C   0  0  0  0  0  0  0  0  0  0  0  0
   11.5630    5.2910  -60.2230 C   0  0  0  0  0  0  0  0  0  0  0  0
   10.8240    4.1290  -59.9280 C   0  0  0  0  0  0  0  0  0  0  0  0
    9.6340    3.7700  -60.7930 C   0  0  0  0  0  0  0  0  0  0  0  0
    8.4010    3.8640  -60.0210 N   0  0  0  0  0  0  0  0  0  0  0  0
    7.2740    3.0970  -60.2400 C   0  0  0  0  0  0  0  0  0  0  0  0
    6.7540    2.3510  -59.2290 C   0  0  0  0  0  0  0  0  0  0  0  0
    5.5680    1.5190  -59.4280 C   0  0  0  0  0  0  0  0  0  0  0  0
    5.0200    1.4980  -60.6450 C   0  0  0  0  0  0  0  0  0  0  0  0
    3.9520    0.8180  -61.1200 N   0  0  0  0  0  0  0  0  0  0  0  0
    3.7720    1.0900  -62.4590 C   0  0  0  0  0  0  0  0  0  0  0  0
    2.9160    0.6500  -63.2020 O   0  0  0  0  0  0  0  0  0  0  0  0
    4.8430    2.0440  -62.8500 C   0  0  0  0  0  0  0  0  0  0  0  0
    5.5610    2.2700  -61.7440 C   0  0  0  0  0  0  0  0  0  0  0  0
    6.6550    3.0500  -61.4820 N   0  0  0  0  0  0  0  0  0  0  0  0
   10.6682    2.6446  -56.5403 H   0  0  0  0  0  0  0  0  0  0  0  0
    9.0901    1.9179  -56.9965 H   0  0  0  0  0  0  0  0  0  0  0  0
   10.5767    0.9096  -56.9965 H   0  0  0  0  0  0  0  0  0  0  0  0
   12.5686    3.1403  -57.1537 H   0  0  0  0  0  0  0  0  0  0  0  0
   13.8687    5.1875  -57.7213 H   0  0  0  0  0  0  0  0  0  0  0  0
   13.2237    6.5746  -59.6889 H   0  0  0  0  0  0  0  0  0  0  0  0
   11.2762    5.9101  -61.0858 H   0  0  0  0  0  0  0  0  0  0  0  0
    9.5824    4.4636  -61.6452 H   0  0  0  0  0  0  0  0  0  0  0  0
    9.7524    2.7377  -61.1541 H   0  0  0  0  0  0  0  0  0  0  0  0
    8.1800    4.8280  -59.7830 H   0  0  0  0  0  0  0  0  0  0  0  0
    7.2358    2.3739  -58.2404 H   0  0  0  0  0  0  0  0  0  0  0  0
    5.1417    0.9302  -58.6024 H   0  0  0  0  0  0  0  0  0  0  0  0
    3.3640    0.1870  -60.6000 H   0  0  0  0  0  0  0  0  0  0  0  0
    5.0112    2.4767  -63.8473 H   0  0  0  0  0  0  0  0  0  0  0  0
    7.1230    3.5010  -62.2520 H   0  0  0  0  0  0  0  0  0  0  0  0
  1  2  1  0
  2  3  1  0
  3  4  2  0
  4  5  1  0
  5  6  2  0
  6  7  1  0
  7  8  2  0
  8  9  1  0
  9 10  1  0
 10 11  1  0
 11 12  2  0
 12 13  1  0
 13 14  2  0
 14 15  1  0
 15 16  1  0
 16 17  2  0
 16 18  1  0
 18 19  2  0
 19 20  1  0
  8  3  1  0
 20 11  1  0
 19 14  1  0
  1 21  1  0
  1 22  1  0
  1 23  1  0
  4 24  1  0
  5 25  1  0
  6 26  1  0
  7 27  1  0
  9 28  1  0
  9 29  1  0
 10 30  1  0
 12 31  1  0
 13 32  1  0
 15 33  1  0
 18 34  1  0
 20 35  1  0
M  END
>  <meeko>  (152) 
{"is_sidechain": false}

$$$$

     RDKit          3D

 35 37  0  0  0  0  0  0  0  0999 V2000
   10.7950    1.8440  -57.0040 C   0  0  0  0  0  0  0  0  0  0  0  0
   10.3710    2.6150  -58.1190 O   0  0  0  0  0  0  0  0  0  0  0  0
   11.1920    3.6280  -58.5390 C   0  0  0  0  0  0  0  0  0  0  0  0
   12.5390    3.7530  -58.1800 C   0  0  0  0  0  0  0  0  0  0  0  0
   13.3080    4.8160  -58.6610 C   0  0  0  0  0  0  0  0  0  0  0  0
   12.7400    5.7630  -59.5070 C   0  0  0  0  0  0  0  0  0  0  0  0
   11.4020    5.6460  -59.8740 C   0  0  0  0  0  0  0  0  0  0  0  0
   10.6140    4.5790  -59.4010 C   0  0  0  0  0  0  0  0  0  0  0  0
    9.1560    4.5090  -59.8120 C   0  0  0  0  0  0  0  0  0  0  0  0
    8.9750    3.4040  -60.7500 N   0  0  0  0  0  0  0  0  0  0  0  0
    7.6760    2.8590  -60.7640 C   0  0  0  0  0  0  0  0  0  0  0  0
    7.2030    2.3250  -59.5600 C   0  0  0  0  0  0  0  0  0  0  0  0
    5.9370    1.7430  -59.4790 C   0  0  0  0  0  0  0  0  0  0  0  0
    5.2110    1.7340  -60.6640 C   0  0  0  0  0  0  0  0  0  0  0  0
    3.9590    1.2550  -60.9700 N   0  0  0  0  0  0  0  0  0  0  0  0
    3.6780    1.4780  -62.2960 C   0  0  0  0  0  0  0  0  0  0  0  0
    2.5310    1.1160  -62.8570 O   0  0  0  0  0  0  0  0  0  0  0  0
    4.7700    2.1070  -62.8510 C   0  0  0  0  0  0  0  0  0  0  0  0
    5.7380    2.2700  -61.8340 C   0  0  0  0  0  0  0  0  0  0  0  0
    6.9650    2.8320  -61.9060 N   0  0  0  0  0  0  0  0  0  0  0  0
   10.5121    2.3583  -56.0737 H   0  0  0  0  0  0  0  0  0  0  0  0
   10.3136    0.8555  -57.0374 H   0  0  0  0  0  0  0  0  0  0  0  0
   11.8876    1.7211  -57.0374 H   0  0  0  0  0  0  0  0  0  0  0  0
   12.9966    3.0075  -57.5130 H   0  0  0  0  0  0  0  0  0  0  0  0
   14.3651    4.9042  -58.3699 H   0  0  0  0  0  0  0  0  0  0  0  0
   13.3452    6.6005  -59.8843 H   0  0  0  0  0  0  0  0  0  0  0  0
   10.9547    6.3967  -60.5421 H   0  0  0  0  0  0  0  0  0  0  0  0
    8.5304    4.3431  -58.9226 H   0  0  0  0  0  0  0  0  0  0  0  0
    8.8611    5.4538  -60.2919 H   0  0  0  0  0  0  0  0  0  0  0  0
    9.6530    2.6660  -60.5990 H   0  0  0  0  0  0  0  0  0  0  0  0
    7.8390    2.3646  -58.6634 H   0  0  0  0  0  0  0  0  0  0  0  0
    5.5417    1.3212  -58.5432 H   0  0  0  0  0  0  0  0  0  0  0  0
    3.3470    0.8060  -60.3050 H   0  0  0  0  0  0  0  0  0  0  0  0
    2.6950    0.5370  -63.6180 H   0  0  0  0  0  0  0  0  0  0  0  0
    4.8710    2.4258  -63.8989 H   0  0  0  0  0  0  0  0  0  0  0  0
  1  2  1  0
  2  3  1  0
  3  4  2  0
  4  5  1  0
  5  6  2  0
  6  7  1  0
  7  8  2  0
  8  9  1  0
  9 10  1  0
 10 11  1  0
 11 12  1  0
 12 13  2  0
 13 14  1  0
 14 15  1  0
 15 16  1  0
 16 17  1  0
 16 18  2  0
 18 19  1  0
 19 20  1  0
  8  3  1  0
 20 11  2  0
 19 14  2  0
  1 21  1  0
  1 22  1  0
  1 23  1  0
  4 24  1  0
  5 25  1  0
  6 26  1  0
  7 27  1  0
  9 28  1  0
  9 29  1  0
 10 30  1  0
 12 31  1  0
 13 32  1  0
 15 33  1  0
 17 34  1  0
 18 35  1  0
M  END
>  <meeko>  (153) 
{"is_sidechain": false}

$$$$

     RDKit          3D

 35 37  0  0  0  0  0  0  0  0999 V2000
   11.0590    2.0170  -56.8940 C   0  0  0  0  0  0  0  0  0  0  0  0
   10.7810    2.3460  -58.2490 O   0  0  0  0  0  0  0  0  0  0  0  0
   11.3290    3.5050  -58.7410 C   0  0  0  0  0  0  0  0  0  0  0  0
   12.7030    3.7640  -58.8170 C   0  0  0  0  0  0  0  0  0  0  0  0
   13.1680    4.9750  -59.3330 C   0  0  0  0  0  0  0  0  0  0  0  0
   12.2660    5.9360  -59.7780 C   0  0  0  0  0  0  0  0  0  0  0  0
   10.8960    5.6870  -59.7060 C   0  0  0  0  0  0  0  0  0  0  0  0
   10.4080    4.4740  -59.1900 C   0  0  0  0  0  0  0  0  0  0  0  0
    8.9190    4.1910  -59.1060 C   0  0  0  0  0  0  0  0  0  0  0  0
    8.2890    3.9250  -60.4030 N   0  0  0  0  0  0  0  0  0  0  0  0
    7.2140    3.2000  -60.4590 C   0  0  0  0  0  0  0  0  0  0  0  0
    6.5280    2.5780  -59.2430 C   0  0  0  0  0  0  0  0  0  0  0  0
    5.4150    1.8420  -59.4210 C   0  0  0  0  0  0  0  0  0  0  0  0
    4.9830    1.7160  -60.7530 C   0  0  0  0  0  0  0  0  0  0  0  0
    3.8830    1.0170  -61.1600 N   0  0  0  0  0  0  0  0  0  0  0  0
    3.7790    1.1200  -62.5340 C   0  0  0  0  0  0  0  0  0  0  0  0
    2.8020    0.5410  -63.2210 O   0  0  0  0  0  0  0  0  0  0  0  0
    4.8320    1.8950  -62.9890 C   0  0  0  0  0  0  0  0  0  0  0  0
    5.5780    2.2620  -61.8590 C   0  0  0  0  0  0  0  0  0  0  0  0
    6.6910    3.0040  -61.7320 N   0  0  0  0  0  0  0  0  0  0  0  0
   10.4928    2.6871  -56.2304 H   0  0  0  0  0  0  0  0  0  0  0  0
   10.7636    0.9750  -56.7017 H   0  0  0  0  0  0  0  0  0  0  0  0
   12.1357    2.1344  -56.7017 H   0  0  0  0  0  0  0  0  0  0  0  0
   13.4213    3.0077  -58.4676 H   0  0  0  0  0  0  0  0  0  0  0  0
   14.2493    5.1696  -59.3878 H   0  0  0  0  0  0  0  0  0  0  0  0
   12.6326    6.8897  -60.1855 H   0  0  0  0  0  0  0  0  0  0  0  0
   10.1869    6.4507  -60.0580 H   0  0  0  0  0  0  0  0  0  0  0  0
    8.7697    3.3118  -58.4620 H   0  0  0  0  0  0  0  0  0  0  0  0
    8.4448    5.0974  -58.7015 H   0  0  0  0  0  0  0  0  0  0  0  0
    6.9390    2.7300  -58.2341 H   0  0  0  0  0  0  0  0  0  0  0  0
    4.8805    1.3717  -58.5824 H   0  0  0  0  0  0  0  0  0  0  0  0
    3.2520    0.5120  -60.5560 H   0  0  0  0  0  0  0  0  0  0  0  0
    2.0800    1.1720  -63.3730 H   0  0  0  0  0  0  0  0  0  0  0  0
    5.0427    2.1696  -64.0331 H   0  0  0  0  0  0  0  0  0  0  0  0
    7.1900    3.4400  -62.4940 H   0  0  0  0  0  0  0  0  0  0  0  0
  1  2  1  0
  2  3  1  0
  3  4  2  0
  4  5  1  0
  5  6  2  0
  6  7  1  0
  7  8  2  0
  8  9  1  0
  9 10  1  0
 10 11  2  0
 11 12  1  0
 12 13  2  0
 13 14  1  0
 14 15  1  0
 15 16  1  0
 16 17  1  0
 16 18  2  0
 18 19  1  0
 19 20  1  0
  8  3  1  0
 20 11  1  0
 19 14  2  0
  1 21  1  0
  1 22  1  0
  1 23  1  0
  4 24  1  0
  5 25  1  0
  6 26  1  0
  7 27  1  0
  9 28  1  0
  9 29  1  0
 12 30  1  0
 13 31  1  0
 15 32  1  0
 17 33  1  0
 18 34  1  0
 20 35  1  0
M  END
>  <meeko>  (154) 
{"is_sidechain": false}

$$$$

     RDKit          3D

 35 37  0  0  0  0  0  0  0  0999 V2000
    9.6400    3.3810  -61.5850 C   0  0  0  0  0  0  0  0  0  0  0  0
    9.5420    4.0260  -60.3210 O   0  0  0  0  0  0  0  0  0  0  0  0
   10.7130    4.2530  -59.6420 C   0  0  0  0  0  0  0  0  0  0  0  0
   11.5520    5.3520  -59.8570 C   0  0  0  0  0  0  0  0  0  0  0  0
   12.7100    5.5230  -59.0930 C   0  0  0  0  0  0  0  0  0  0  0  0
   13.0360    4.6030  -58.1030 C   0  0  0  0  0  0  0  0  0  0  0  0
   12.2070    3.5060  -57.8800 C   0  0  0  0  0  0  0  0  0  0  0  0
   11.0440    3.3140  -58.6470 C   0  0  0  0  0  0  0  0  0  0  0  0
   10.1880    2.1000  -58.3640 C   0  0  0  0  0  0  0  0  0  0  0  0
    9.1050    2.3610  -57.4150 N   0  0  0  0  0  0  0  0  0  0  0  0
    7.8770    2.3220  -57.8330 C   0  0  0  0  0  0  0  0  0  0  0  0
    6.8520    2.5730  -56.7340 C   0  0  0  0  0  0  0  0  0  0  0  0
    5.5410    2.5690  -57.0330 C   0  0  0  0  0  0  0  0  0  0  0  0
    5.2400    2.3310  -58.3850 C   0  0  0  0  0  0  0  0  0  0  0  0
    3.9860    2.3020  -58.9170 N   0  0  0  0  0  0  0  0  0  0  0  0
    4.0860    2.0580  -60.2700 C   0  0  0  0  0  0  0  0  0  0  0  0
    2.9830    1.9870  -61.0010 O   0  0  0  0  0  0  0  0  0  0  0  0
    5.4260    1.9310  -60.5930 C   0  0  0  0  0  0  0  0  0  0  0  0
    6.1380    2.1010  -59.3950 C   0  0  0  0  0  0  0  0  0  0  0  0
    7.4600    2.0780  -59.1410 N   0  0  0  0  0  0  0  0  0  0  0  0
    9.8037    2.3036  -61.4352 H   0  0  0  0  0  0  0  0  0  0  0  0
    8.7081    3.5354  -62.1487 H   0  0  0  0  0  0  0  0  0  0  0  0
   10.4840    3.8052  -62.1487 H   0  0  0  0  0  0  0  0  0  0  0  0
   11.2980    6.0879  -60.6341 H   0  0  0  0  0  0  0  0  0  0  0  0
   13.3650    6.3877  -59.2756 H   0  0  0  0  0  0  0  0  0  0  0  0
   13.9446    4.7407  -57.4984 H   0  0  0  0  0  0  0  0  0  0  0  0
   12.4653    2.7809  -57.0942 H   0  0  0  0  0  0  0  0  0  0  0  0
    9.7465    1.7562  -59.3110 H   0  0  0  0  0  0  0  0  0  0  0  0
   10.8415    1.3405  -57.9101 H   0  0  0  0  0  0  0  0  0  0  0  0
    7.1828    2.7566  -55.7011 H   0  0  0  0  0  0  0  0  0  0  0  0
    4.7618    2.7394  -56.2755 H   0  0  0  0  0  0  0  0  0  0  0  0
    3.1140    2.4370  -58.4260 H   0  0  0  0  0  0  0  0  0  0  0  0
    2.5690    1.1250  -60.8140 H   0  0  0  0  0  0  0  0  0  0  0  0
    5.8487    1.7358  -61.5896 H   0  0  0  0  0  0  0  0  0  0  0  0
    8.1610    2.0060  -59.8700 H   0  0  0  0  0  0  0  0  0  0  0  0
  1  2  1  0
  2  3  1  0
  3  4  2  0
  4  5  1  0
  5  6  2  0
  6  7  1  0
  7  8  2  0
  8  9  1  0
  9 10  1  0
 10 11  2  0
 11 12  1  0
 12 13  2  0
 13 14  1  0
 14 15  1  0
 15 16  1  0
 16 17  1  0
 16 18  2  0
 18 19  1  0
 19 20  1  0
  8  3  1  0
 20 11  1  0
 19 14  2  0
  1 21  1  0
  1 22  1  0
  1 23  1  0
  4 24  1  0
  5 25  1  0
  6 26  1  0
  7 27  1  0
  9 28  1  0
  9 29  1  0
 12 30  1  0
 13 31  1  0
 15 32  1  0
 17 33  1  0
 18 34  1  0
 20 35  1  0
M  END
>  <meeko>  (155) 
{"is_sidechain": false}

$$$$

     RDKit          3D

 28 30  0  0  0  0  0  0  0  0999 V2000
    7.8330    0.2750  -55.0750 C   0  0  0  0  0  0  0  0  0  0  0  0
    8.8640    1.0670  -55.5770 C   0  0  0  0  0  0  0  0  0  0  0  0
    8.5870    2.0680  -56.5110 C   0  0  0  0  0  0  0  0  0  0  0  0
    7.2740    2.2850  -56.9600 C   0  0  0  0  0  0  0  0  0  0  0  0
    6.9890    3.4030  -57.9430 C   0  0  0  0  0  0  0  0  0  0  0  0
    7.9000    3.3980  -59.1000 N   0  0  0  0  0  0  0  0  0  0  0  0
    7.6870    2.5070  -60.1650 C   0  0  0  0  0  0  0  0  0  0  0  0
    8.4830    2.4250  -61.2470 C   0  0  0  0  0  0  0  0  0  0  0  0
    9.6400    3.2970  -61.3450 C   0  0  0  0  0  0  0  0  0  0  0  0
    9.8800    4.1620  -60.3500 C   0  0  0  0  0  0  0  0  0  0  0  0
   10.9020    5.0660  -60.2440 N   0  0  0  0  0  0  0  0  0  0  0  0
   10.6700    5.6480  -59.1080 C   0  0  0  0  0  0  0  0  0  0  0  0
    9.4910    5.1910  -58.3670 C   0  0  0  0  0  0  0  0  0  0  0  0
    9.0110    4.2450  -59.1780 C   0  0  0  0  0  0  0  0  0  0  0  0
    6.2460    1.4880  -56.4340 C   0  0  0  0  0  0  0  0  0  0  0  0
    6.5250    0.4870  -55.5020 C   0  0  0  0  0  0  0  0  0  0  0  0
    8.0523   -0.5161  -54.3428 H   0  0  0  0  0  0  0  0  0  0  0  0
    9.8974    0.9036  -55.2372 H   0  0  0  0  0  0  0  0  0  0  0  0
    9.4053    2.6925  -56.8987 H   0  0  0  0  0  0  0  0  0  0  0  0
    5.9573    3.2937  -58.3087 H   0  0  0  0  0  0  0  0  0  0  0  0
    7.1376    4.3544  -57.4113 H   0  0  0  0  0  0  0  0  0  0  0  0
    6.8171    1.8359  -60.1113 H   0  0  0  0  0  0  0  0  0  0  0  0
    8.2596    1.7053  -62.0484 H   0  0  0  0  0  0  0  0  0  0  0  0
   10.3064    3.2485  -62.2188 H   0  0  0  0  0  0  0  0  0  0  0  0
   11.3242    6.4432  -58.7210 H   0  0  0  0  0  0  0  0  0  0  0  0
    9.1033    5.5366  -57.3973 H   0  0  0  0  0  0  0  0  0  0  0  0
    5.2085    1.6539  -56.7597 H   0  0  0  0  0  0  0  0  0  0  0  0
    5.7099   -0.1354  -55.1042 H   0  0  0  0  0  0  0  0  0  0  0  0
  1  2  2  0
  2  3  1  0
  3  4  2  0
  4  5  1  0
  5  6  1  0
  6  7  1  0
  7  8  2  0
  8  9  1  0
  9 10  2  0
 10 11  1  0
 11 12  2  0
 12 13  1  0
 13 14  2  0
  4 15  1  0
 15 16  2  0
 16  1  1  0
 14  6  1  0
 14 10  1  0
  1 17  1  0
  2 18  1  0
  3 19  1  0
  5 20  1  0
  5 21  1  0
  7 22  1  0
  8 23  1  0
  9 24  1  0
 12 25  1  0
 13 26  1  0
 15 27  1  0
 16 28  1  0
M  END
>  <meeko>  (156) 
{"is_sidechain": false}

$$$$

     RDKit          3D

 43 46  0  0  0  0  0  0  0  0999 V2000
   13.7870    6.5520  -60.2960 O   0  0  0  0  0  0  0  0  0  0  0  0
   12.9360    5.9120  -59.3550 C   0  0  1  0  0  0  0  0  0  0  0  0
   11.5020    5.9760  -59.8600 C   0  0  0  0  0  0  0  0  0  0  0  0
   10.5150    5.3320  -58.8860 C   0  0  0  0  0  0  0  0  0  0  0  0
   11.1450    4.2590  -57.9730 C   0  0  1  0  0  0  0  0  0  0  0  0
   10.0520    3.3050  -57.4550 C   0  0  0  0  0  0  0  0  0  0  0  0
    9.7710    2.2560  -58.4300 N   0  0  0  0  0  0  0  0  0  0  0  0
    8.7950    2.2950  -59.4010 C   0  0  0  0  0  0  0  0  0  0  0  0
    9.0340    2.6430  -60.6940 C   0  0  0  0  0  0  0  0  0  0  0  0
    7.9770    2.6830  -61.7040 C   0  0  0  0  0  0  0  0  0  0  0  0
    6.7230    2.3850  -61.3610 C   0  0  0  0  0  0  0  0  0  0  0  0
    5.5420    2.3540  -62.0380 N   0  0  0  0  0  0  0  0  0  0  0  0
    4.7100    2.0100  -61.1030 C   0  0  0  0  0  0  0  0  0  0  0  0
    3.2680    1.8550  -61.3600 C   0  0  2  0  0  0  0  0  0  0  0  0
    2.8080    0.9040  -62.4350 C   0  0  0  0  0  0  0  0  0  0  0  0
    2.8430    2.3210  -62.7030 N   0  0  0  0  0  0  0  0  0  0  0  0
    5.1920    1.8020  -59.8150 N   0  0  0  0  0  0  0  0  0  0  0  0
    6.4720    2.0210  -59.9500 C   0  0  0  0  0  0  0  0  0  0  0  0
    7.4930    1.9700  -59.0500 N   0  0  0  0  0  0  0  0  0  0  0  0
   12.2640    3.5210  -58.7190 C   0  0  0  0  0  0  0  0  0  0  0  0
   13.3910    4.4650  -59.1500 C   0  0  0  0  0  0  0  0  0  0  0  0
   13.8140    7.4990  -60.0790 H   0  0  0  0  0  0  0  0  0  0  0  0
   12.9883    6.4239  -58.3828 H   0  0  0  0  0  0  0  0  0  0  0  0
   11.2231    7.0307  -60.0006 H   0  0  0  0  0  0  0  0  0  0  0  0
   11.4532    5.4181  -60.8068 H   0  0  0  0  0  0  0  0  0  0  0  0
   10.0913    6.1227  -58.2494 H   0  0  0  0  0  0  0  0  0  0  0  0
    9.7521    4.8245  -59.4946 H   0  0  0  0  0  0  0  0  0  0  0  0
   11.6043    4.7382  -57.0958 H   0  0  0  0  0  0  0  0  0  0  0  0
   10.3927    2.8427  -56.5168 H   0  0  0  0  0  0  0  0  0  0  0  0
    9.1318    3.8836  -57.2865 H   0  0  0  0  0  0  0  0  0  0  0  0
   10.5940    1.7410  -58.7280 H   0  0  0  0  0  0  0  0  0  0  0  0
   10.0605    2.9041  -60.9911 H   0  0  0  0  0  0  0  0  0  0  0  0
    8.2152    2.9577  -62.7422 H   0  0  0  0  0  0  0  0  0  0  0  0
    2.9858    2.0092  -60.3081 H   0  0  0  0  0  0  0  0  0  0  0  0
    3.5322    0.2349  -62.9228 H   0  0  0  0  0  0  0  0  0  0  0  0
    2.0383    0.1209  -62.5005 H   0  0  0  0  0  0  0  0  0  0  0  0
    3.6590    2.7220  -63.1970 H   0  0  0  0  0  0  0  0  0  0  0  0
    1.9820    2.8730  -62.6750 H   0  0  0  0  0  0  0  0  0  0  0  0
    7.3090    1.8170  -58.0700 H   0  0  0  0  0  0  0  0  0  0  0  0
   12.6823    2.7488  -58.0566 H   0  0  0  0  0  0  0  0  0  0  0  0
   11.8295    3.0765  -59.6266 H   0  0  0  0  0  0  0  0  0  0  0  0
   14.1705    4.4526  -58.3739 H   0  0  0  0  0  0  0  0  0  0  0  0
   13.7602    4.1032  -60.1210 H   0  0  0  0  0  0  0  0  0  0  0  0
  1  2  1  0
  2  3  1  0
  3  4  1  0
  4  5  1  0
  5  6  1  0
  6  7  1  0
  7  8  1  0
  8  9  2  0
  9 10  1  0
 10 11  2  0
 11 12  1  0
 12 13  2  0
 13 14  1  0
 14 15  1  0
 15 16  1  0
 13 17  1  0
 17 18  2  0
 18 19  1  0
  5 20  1  0
 20 21  1  0
 21  2  1  0
 19  8  1  0
 18 11  1  0
 16 14  1  0
  1 22  1  0
  2 23  1  1
  3 24  1  0
  3 25  1  0
  4 26  1  0
  4 27  1  0
  5 28  1  1
  6 29  1  0
  6 30  1  0
  7 31  1  0
  9 32  1  0
 10 33  1  0
 14 34  1  1
 15 35  1  0
 15 36  1  0
 16 37  1  0
 16 38  1  0
 19 39  1  0
 20 40  1  0
 20 41  1  0
 21 42  1  0
 21 43  1  0
M  CHG  1  16   1
M  END
>  <meeko>  (157) 
{"is_sidechain": false}

$$$$

     RDKit          3D

 43 46  0  0  0  0  0  0  0  0999 V2000
   10.0010    3.7990  -61.2770 O   0  0  0  0  0  0  0  0  0  0  0  0
   10.5300    4.6240  -60.2420 C   0  0  1  0  0  0  0  0  0  0  0  0
    9.3750    5.0730  -59.3410 C   0  0  0  0  0  0  0  0  0  0  0  0
    9.8220    5.2780  -57.8990 C   0  0  0  0  0  0  0  0  0  0  0  0
   10.3800    3.9800  -57.2730 C   0  0  1  0  0  0  0  0  0  0  0  0
    9.3160    3.2020  -56.4770 C   0  0  0  0  0  0  0  0  0  0  0  0
    8.6870    2.1650  -57.2840 N   0  0  0  0  0  0  0  0  0  0  0  0
    7.4470    2.1810  -57.8790 C   0  0  0  0  0  0  0  0  0  0  0  0
    6.2830    2.2770  -57.1840 C   0  0  0  0  0  0  0  0  0  0  0  0
    4.9740    2.2820  -57.8400 C   0  0  0  0  0  0  0  0  0  0  0  0
    4.9010    2.1800  -59.1690 C   0  0  0  0  0  0  0  0  0  0  0  0
    3.8690    2.1340  -60.0600 N   0  0  0  0  0  0  0  0  0  0  0  0
    4.5070    2.0110  -61.1900 C   0  0  0  0  0  0  0  0  0  0  0  0
    3.7560    1.9090  -62.4540 C   0  0  1  0  0  0  0  0  0  0  0  0
    3.6390    0.5690  -63.1380 C   0  0  0  0  0  0  0  0  0  0  0  0
    2.5310    1.0730  -62.3630 N   0  0  0  0  0  0  0  0  0  0  0  0
    5.8850    1.9550  -61.1780 N   0  0  0  0  0  0  0  0  0  0  0  0
    6.1740    2.0680  -59.9130 C   0  0  0  0  0  0  0  0  0  0  0  0
    7.3690    2.0870  -59.2600 N   0  0  0  0  0  0  0  0  0  0  0  0
   11.0080    3.0490  -58.3310 C   0  0  0  0  0  0  0  0  0  0  0  0
   11.6090    3.8350  -59.4930 C   0  0  0  0  0  0  0  0  0  0  0  0
   10.6500    3.7840  -62.0030 H   0  0  0  0  0  0  0  0  0  0  0  0
   11.0071    5.5318  -60.6397 H   0  0  0  0  0  0  0  0  0  0  0  0
    8.9722    6.0214  -59.7261 H   0  0  0  0  0  0  0  0  0  0  0  0
    8.6100    4.2826  -59.3503 H   0  0  0  0  0  0  0  0  0  0  0  0
   10.6070    6.0482  -57.8771 H   0  0  0  0  0  0  0  0  0  0  0  0
    8.9437    5.5863  -57.3128 H   0  0  0  0  0  0  0  0  0  0  0  0
   11.1647    4.3069  -56.5749 H   0  0  0  0  0  0  0  0  0  0  0  0
    9.7959    2.7328  -55.6055 H   0  0  0  0  0  0  0  0  0  0  0  0
    8.5361    3.9120  -56.1646 H   0  0  0  0  0  0  0  0  0  0  0  0
    9.3410    1.5060  -57.6940 H   0  0  0  0  0  0  0  0  0  0  0  0
    6.3259    2.3538  -56.0875 H   0  0  0  0  0  0  0  0  0  0  0  0
    4.0556    2.3693  -57.2409 H   0  0  0  0  0  0  0  0  0  0  0  0
    4.0419    2.9156  -62.7933 H   0  0  0  0  0  0  0  0  0  0  0  0
    3.5635    0.5170  -64.2342 H   0  0  0  0  0  0  0  0  0  0  0  0
    4.2305   -0.3584  -63.1332 H   0  0  0  0  0  0  0  0  0  0  0  0
    1.7260    1.5010  -62.8300 H   0  0  0  0  0  0  0  0  0  0  0  0
    2.4100    0.7500  -61.3880 H   0  0  0  0  0  0  0  0  0  0  0  0
    8.2290    1.9430  -59.7670 H   0  0  0  0  0  0  0  0  0  0  0  0
   11.8016    2.4540  -57.8555 H   0  0  0  0  0  0  0  0  0  0  0  0
   10.2138    2.4014  -58.7309 H   0  0  0  0  0  0  0  0  0  0  0  0
   12.3605    4.5365  -59.1016 H   0  0  0  0  0  0  0  0  0  0  0  0
   12.0715    3.1241  -60.1935 H   0  0  0  0  0  0  0  0  0  0  0  0
  1  2  1  0
  2  3  1  0
  3  4  1  0
  4  5  1  0
  5  6  1  0
  6  7  1  0
  7  8  1  0
  8  9  2  0
  9 10  1  0
 10 11  2  0
 11 12  1  0
 12 13  2  0
 13 14  1  0
 14 15  1  0
 15 16  1  0
 13 17  1  0
 17 18  2  0
 18 19  1  0
  5 20  1  0
 20 21  1  0
 21  2  1  0
 19  8  1  0
 18 11  1  0
 16 14  1  0
  1 22  1  0
  2 23  1  6
  3 24  1  0
  3 25  1  0
  4 26  1  0
  4 27  1  0
  5 28  1  1
  6 29  1  0
  6 30  1  0
  7 31  1  0
  9 32  1  0
 10 33  1  0
 14 34  1  6
 15 35  1  0
 15 36  1  0
 16 37  1  0
 16 38  1  0
 19 39  1  0
 20 40  1  0
 20 41  1  0
 21 42  1  0
 21 43  1  0
M  CHG  1  16   1
M  END
>  <meeko>  (158) 
{"is_sidechain": false}

$$$$

     RDKit          3D

 43 46  0  0  0  0  0  0  0  0999 V2000
   11.8980    6.0310  -60.2260 O   0  0  0  0  0  0  0  0  0  0  0  0
   11.8590    5.4770  -58.9180 C   0  0  1  0  0  0  0  0  0  0  0  0
   10.4050    5.2990  -58.4820 C   0  0  0  0  0  0  0  0  0  0  0  0
   10.2960    4.5540  -57.1530 C   0  0  0  0  0  0  0  0  0  0  0  0
   11.0370    3.2030  -57.1580 C   0  0  1  0  0  0  0  0  0  0  0  0
   10.2760    2.1660  -58.0160 C   0  0  0  0  0  0  0  0  0  0  0  0
    8.8260    2.2550  -57.8700 N   0  0  0  0  0  0  0  0  0  0  0  0
    8.0150    2.3180  -58.9920 C   0  0  0  0  0  0  0  0  0  0  0  0
    8.5230    2.6150  -60.2620 C   0  0  0  0  0  0  0  0  0  0  0  0
    7.6830    2.6420  -61.3830 C   0  0  0  0  0  0  0  0  0  0  0  0
    6.3380    2.3430  -61.1630 C   0  0  0  0  0  0  0  0  0  0  0  0
    5.2600    2.2620  -62.0140 N   0  0  0  0  0  0  0  0  0  0  0  0
    4.2480    1.9230  -61.2370 C   0  0  0  0  0  0  0  0  0  0  0  0
    2.8340    1.7090  -61.8350 C   0  0  2  0  0  0  0  0  0  0  0  0
    2.6620    0.7520  -62.9960 C   0  0  0  0  0  0  0  0  0  0  0  0
    2.6990    2.1750  -63.2230 N   0  0  0  0  0  0  0  0  0  0  0  0
    4.6200    1.7920  -59.9260 N   0  0  0  0  0  0  0  0  0  0  0  0
    5.9570    2.0540  -59.8630 C   0  0  0  0  0  0  0  0  0  0  0  0
    6.7170    2.0210  -58.7610 N   0  0  0  0  0  0  0  0  0  0  0  0
   12.4960    3.4150  -57.6020 C   0  0  0  0  0  0  0  0  0  0  0  0
   12.6120    4.1480  -58.9340 C   0  0  0  0  0  0  0  0  0  0  0  0
   11.4210    6.8780  -60.2050 H   0  0  0  0  0  0  0  0  0  0  0  0
   12.3432    6.1473  -58.1926 H   0  0  0  0  0  0  0  0  0  0  0  0
    9.9426    6.2911  -58.3725 H   0  0  0  0  0  0  0  0  0  0  0  0
    9.8893    4.7036  -59.2498 H   0  0  0  0  0  0  0  0  0  0  0  0
   10.7241    5.1858  -56.3608 H   0  0  0  0  0  0  0  0  0  0  0  0
    9.2302    4.3442  -56.9797 H   0  0  0  0  0  0  0  0  0  0  0  0
   11.0679    2.7865  -56.1404 H   0  0  0  0  0  0  0  0  0  0  0  0
   10.5321    2.3307  -59.0730 H   0  0  0  0  0  0  0  0  0  0  0  0
   10.5798    1.1673  -57.6692 H   0  0  0  0  0  0  0  0  0  0  0  0
    8.5260    2.9910  -57.2350 H   0  0  0  0  0  0  0  0  0  0  0  0
    9.5952    2.8299  -60.3814 H   0  0  0  0  0  0  0  0  0  0  0  0
    8.0644    2.8864  -62.3854 H   0  0  0  0  0  0  0  0  0  0  0  0
    2.3198    1.8377  -60.8711 H   0  0  0  0  0  0  0  0  0  0  0  0
    3.5028    0.1204  -63.3188 H   0  0  0  0  0  0  0  0  0  0  0  0
    1.9606   -0.0591  -63.2411 H   0  0  0  0  0  0  0  0  0  0  0  0
    1.8360    2.6930  -63.4000 H   0  0  0  0  0  0  0  0  0  0  0  0
    3.5930    2.5970  -63.5260 H   0  0  0  0  0  0  0  0  0  0  0  0
    4.0540    1.5430  -59.1270 H   0  0  0  0  0  0  0  0  0  0  0  0
   13.0151    4.0038  -56.8313 H   0  0  0  0  0  0  0  0  0  0  0  0
   12.9483    2.4208  -57.7326 H   0  0  0  0  0  0  0  0  0  0  0  0
   13.6744    4.3433  -59.1415 H   0  0  0  0  0  0  0  0  0  0  0  0
   12.1670    3.5124  -59.7137 H   0  0  0  0  0  0  0  0  0  0  0  0
  1  2  1  0
  2  3  1  0
  3  4  1  0
  4  5  1  0
  5  6  1  0
  6  7  1  0
  7  8  1  0
  8  9  2  0
  9 10  1  0
 10 11  2  0
 11 12  1  0
 12 13  2  0
 13 14  1  0
 14 15  1  0
 15 16  1  0
 13 17  1  0
 17 18  1  0
 18 19  2  0
  5 20  1  0
 20 21  1  0
 21  2  1  0
 19  8  1  0
 18 11  1  0
 16 14  1  0
  1 22  1  0
  2 23  1  1
  3 24  1  0
  3 25  1  0
  4 26  1  0
  4 27  1  0
  5 28  1  1
  6 29  1  0
  6 30  1  0
  7 31  1  0
  9 32  1  0
 10 33  1  0
 14 34  1  1
 15 35  1  0
 15 36  1  0
 16 37  1  0
 16 38  1  0
 17 39  1  0
 20 40  1  0
 20 41  1  0
 21 42  1  0
 21 43  1  0
M  CHG  1  16   1
M  END
>  <meeko>  (159) 
{"is_sidechain": false}

$$$$

     RDKit          3D

 43 46  0  0  0  0  0  0  0  0999 V2000
    9.6840    4.0540  -60.3320 O   0  0  0  0  0  0  0  0  0  0  0  0
   10.8740    4.7240  -59.9080 C   0  0  1  0  0  0  0  0  0  0  0  0
   10.5200    5.6360  -58.7390 C   0  0  0  0  0  0  0  0  0  0  0  0
   10.0230    4.8530  -57.5200 C   0  0  0  0  0  0  0  0  0  0  0  0
   10.8150    3.5600  -57.2330 C   0  0  1  0  0  0  0  0  0  0  0  0
    9.9350    2.3130  -57.4710 C   0  0  0  0  0  0  0  0  0  0  0  0
    8.7220    2.3920  -56.6520 N   0  0  0  0  0  0  0  0  0  0  0  0
    7.5220    2.2880  -57.3590 C   0  0  0  0  0  0  0  0  0  0  0  0
    6.2860    2.3060  -56.7020 C   0  0  0  0  0  0  0  0  0  0  0  0
    5.0890    2.2290  -57.4270 C   0  0  0  0  0  0  0  0  0  0  0  0
    5.2060    2.1500  -58.8150 C   0  0  0  0  0  0  0  0  0  0  0  0
    4.2640    2.0700  -59.8160 N   0  0  0  0  0  0  0  0  0  0  0  0
    4.9670    2.0330  -60.9310 C   0  0  0  0  0  0  0  0  0  0  0  0
    4.2560    1.9490  -62.3080 C   0  0  1  0  0  0  0  0  0  0  0  0
    3.5100    0.6830  -62.6760 C   0  0  0  0  0  0  0  0  0  0  0  0
    2.7910    1.8430  -62.2110 N   0  0  0  0  0  0  0  0  0  0  0  0
    6.3150    2.0820  -60.7000 N   0  0  0  0  0  0  0  0  0  0  0  0
    6.4850    2.1550  -59.3480 C   0  0  0  0  0  0  0  0  0  0  0  0
    7.6560    2.2220  -58.7030 N   0  0  0  0  0  0  0  0  0  0  0  0
   12.1290    3.5190  -58.0290 C   0  0  0  0  0  0  0  0  0  0  0  0
   11.9340    3.6810  -59.5390 C   0  0  0  0  0  0  0  0  0  0  0  0
    9.9220    3.5210  -61.1110 H   0  0  0  0  0  0  0  0  0  0  0  0
   11.2949    5.3464  -60.7114 H   0  0  0  0  0  0  0  0  0  0  0  0
   11.4155    6.2065  -58.4518 H   0  0  0  0  0  0  0  0  0  0  0  0
    9.7072    6.3013  -59.0656 H   0  0  0  0  0  0  0  0  0  0  0  0
   10.0963    5.5055  -56.6375 H   0  0  0  0  0  0  0  0  0  0  0  0
    8.9892    4.5483  -57.7400 H   0  0  0  0  0  0  0  0  0  0  0  0
   11.0974    3.5552  -56.1699 H   0  0  0  0  0  0  0  0  0  0  0  0
    9.6546    2.2624  -58.5335 H   0  0  0  0  0  0  0  0  0  0  0  0
   10.5015    1.4125  -57.1915 H   0  0  0  0  0  0  0  0  0  0  0  0
    8.6620    3.2810  -56.1570 H   0  0  0  0  0  0  0  0  0  0  0  0
    6.2539    2.3814  -55.6051 H   0  0  0  0  0  0  0  0  0  0  0  0
    4.1088    2.2308  -56.9279 H   0  0  0  0  0  0  0  0  0  0  0  0
    5.0039    2.5691  -62.8239 H   0  0  0  0  0  0  0  0  0  0  0  0
    3.4352    0.3740  -63.7290 H   0  0  0  0  0  0  0  0  0  0  0  0
    3.5676   -0.3725  -62.3717 H   0  0  0  0  0  0  0  0  0  0  0  0
    2.2920    2.4430  -62.8720 H   0  0  0  0  0  0  0  0  0  0  0  0
    2.5140    1.8780  -61.2160 H   0  0  0  0  0  0  0  0  0  0  0  0
    7.0750    2.0780  -61.3660 H   0  0  0  0  0  0  0  0  0  0  0  0
   12.7775    4.3328  -57.6725 H   0  0  0  0  0  0  0  0  0  0  0  0
   12.5756    2.5272  -57.8651 H   0  0  0  0  0  0  0  0  0  0  0  0
   12.8928    3.9862  -59.9835 H   0  0  0  0  0  0  0  0  0  0  0  0
   11.5850    2.7126  -59.9268 H   0  0  0  0  0  0  0  0  0  0  0  0
  1  2  1  0
  2  3  1  0
  3  4  1  0
  4  5  1  0
  5  6  1  0
  6  7  1  0
  7  8  1  0
  8  9  2  0
  9 10  1  0
 10 11  2  0
 11 12  1  0
 12 13  2  0
 13 14  1  0
 14 15  1  0
 15 16  1  0
 13 17  1  0
 17 18  1  0
 18 19  2  0
  5 20  1  0
 20 21  1  0
 21  2  1  0
 19  8  1  0
 18 11  1  0
 16 14  1  0
  1 22  1  0
  2 23  1  6
  3 24  1  0
  3 25  1  0
  4 26  1  0
  4 27  1  0
  5 28  1  1
  6 29  1  0
  6 30  1  0
  7 31  1  0
  9 32  1  0
 10 33  1  0
 14 34  1  6
 15 35  1  0
 15 36  1  0
 16 37  1  0
 16 38  1  0
 17 39  1  0
 20 40  1  0
 20 41  1  0
 21 42  1  0
 21 43  1  0
M  CHG  1  16   1
M  END
>  <meeko>  (160) 
{"is_sidechain": false}

$$$$

     RDKit          3D

 43 46  0  0  0  0  0  0  0  0999 V2000
   13.7800    6.0770  -59.9990 O   0  0  0  0  0  0  0  0  0  0  0  0
   12.7220    5.6460  -59.1510 C   0  0  1  0  0  0  0  0  0  0  0  0
   11.4060    5.7470  -59.9080 C   0  0  0  0  0  0  0  0  0  0  0  0
   10.2110    5.3390  -59.0450 C   0  0  0  0  0  0  0  0  0  0  0  0
   10.5660    4.3430  -57.9220 C   0  0  1  0  0  0  0  0  0  0  0  0
    9.3400    3.5140  -57.4940 C   0  0  0  0  0  0  0  0  0  0  0  0
    9.2900    2.2710  -58.2630 N   0  0  0  0  0  0  0  0  0  0  0  0
    8.4290    2.2870  -59.3640 C   0  0  0  0  0  0  0  0  0  0  0  0
    8.8970    2.6070  -60.6440 C   0  0  0  0  0  0  0  0  0  0  0  0
    8.0270    2.6590  -61.7360 C   0  0  0  0  0  0  0  0  0  0  0  0
    6.7020    2.3860  -61.4310 C   0  0  0  0  0  0  0  0  0  0  0  0
    5.5470    2.3430  -62.1690 N   0  0  0  0  0  0  0  0  0  0  0  0
    4.5290    2.0330  -61.3080 C   0  0  0  0  0  0  0  0  0  0  0  0
    3.0190    1.8810  -61.6320 C   0  0  2  0  0  0  0  0  0  0  0  0
    2.5930    0.9400  -62.7390 C   0  0  0  0  0  0  0  0  0  0  0  0
    2.6590    2.3590  -62.9760 N   0  0  0  0  0  0  0  0  0  0  0  0
    4.9520    1.8590  -60.0750 N   0  0  0  0  0  0  0  0  0  0  0  0
    6.3020    2.0830  -60.1360 C   0  0  0  0  0  0  0  0  0  0  0  0
    7.1390    2.0280  -59.0850 N   0  0  0  0  0  0  0  0  0  0  0  0
   11.7170    3.4280  -58.3550 C   0  0  0  0  0  0  0  0  0  0  0  0
   12.9890    4.2120  -58.6840 C   0  0  0  0  0  0  0  0  0  0  0  0
   13.6000    6.9980  -60.2540 H   0  0  0  0  0  0  0  0  0  0  0  0
   12.6620    6.2872  -58.2592 H   0  0  0  0  0  0  0  0  0  0  0  0
   11.2660    6.7869  -60.2382 H   0  0  0  0  0  0  0  0  0  0  0  0
   11.4551    5.0585  -60.7645 H   0  0  0  0  0  0  0  0  0  0  0  0
    9.7900    6.2451  -58.5848 H   0  0  0  0  0  0  0  0  0  0  0  0
    9.4946    4.8323  -59.7083 H   0  0  0  0  0  0  0  0  0  0  0  0
   10.8938    4.9261  -57.0488 H   0  0  0  0  0  0  0  0  0  0  0  0
    9.4149    3.2777  -56.4223 H   0  0  0  0  0  0  0  0  0  0  0  0
    8.4250    4.0948  -57.6822 H   0  0  0  0  0  0  0  0  0  0  0  0
   10.2030    2.0390  -58.6540 H   0  0  0  0  0  0  0  0  0  0  0  0
    9.9658    2.8207  -60.7923 H   0  0  0  0  0  0  0  0  0  0  0  0
    8.3656    2.8972  -62.7551 H   0  0  0  0  0  0  0  0  0  0  0  0
    5.4830    2.5220  -63.1630 H   0  0  0  0  0  0  0  0  0  0  0  0
    2.6949    2.0251  -60.5908 H   0  0  0  0  0  0  0  0  0  0  0  0
    3.3293    0.2688  -63.2052 H   0  0  0  0  0  0  0  0  0  0  0  0
    1.8192    0.1661  -62.8498 H   0  0  0  0  0  0  0  0  0  0  0  0
    1.8060    2.9220  -63.0020 H   0  0  0  0  0  0  0  0  0  0  0  0
    3.5050    2.7350  -63.4410 H   0  0  0  0  0  0  0  0  0  0  0  0
   11.9362    2.7245  -57.5383 H   0  0  0  0  0  0  0  0  0  0  0  0
   11.4021    2.8992  -59.2667 H   0  0  0  0  0  0  0  0  0  0  0  0
   13.6165    4.2514  -57.7814 H   0  0  0  0  0  0  0  0  0  0  0  0
   13.4843    3.6890  -59.5154 H   0  0  0  0  0  0  0  0  0  0  0  0
  1  2  1  0
  2  3  1  0
  3  4  1  0
  4  5  1  0
  5  6  1  0
  6  7  1  0
  7  8  1  0
  8  9  1  0
  9 10  2  0
 10 11  1  0
 11 12  1  0
 12 13  1  0
 13 14  1  0
 14 15  1  0
 15 16  1  0
 13 17  2  0
 17 18  1  0
 18 19  1  0
  5 20  1  0
 20 21  1  0
 21  2  1  0
 19  8  2  0
 18 11  2  0
 16 14  1  0
  1 22  1  0
  2 23  1  1
  3 24  1  0
  3 25  1  0
  4 26  1  0
  4 27  1  0
  5 28  1  1
  6 29  1  0
  6 30  1  0
  7 31  1  0
  9 32  1  0
 10 33  1  0
 12 34  1  0
 14 35  1  1
 15 36  1  0
 15 37  1  0
 16 38  1  0
 16 39  1  0
 20 40  1  0
 20 41  1  0
 21 42  1  0
 21 43  1  0
M  CHG  1  16   1
M  END
>  <meeko>  (161) 
{"is_sidechain": false}

$$$$

     RDKit          3D

 43 46  0  0  0  0  0  0  0  0999 V2000
    9.9930    3.6520  -61.2400 O   0  0  0  0  0  0  0  0  0  0  0  0
   10.5050    4.5450  -60.2520 C   0  0  1  0  0  0  0  0  0  0  0  0
    9.3380    5.0250  -59.3820 C   0  0  0  0  0  0  0  0  0  0  0  0
    9.7720    5.2890  -57.9460 C   0  0  0  0  0  0  0  0  0  0  0  0
   10.3180    4.0180  -57.2630 C   0  0  1  0  0  0  0  0  0  0  0  0
    9.2030    3.2890  -56.4810 C   0  0  0  0  0  0  0  0  0  0  0  0
    8.8540    2.0350  -57.1500 N   0  0  0  0  0  0  0  0  0  0  0  0
    7.6070    2.0380  -57.8080 C   0  0  0  0  0  0  0  0  0  0  0  0
    6.4720    2.2260  -57.0040 C   0  0  0  0  0  0  0  0  0  0  0  0
    5.1900    2.2800  -57.5560 C   0  0  0  0  0  0  0  0  0  0  0  0
    5.1540    2.1460  -58.9350 C   0  0  0  0  0  0  0  0  0  0  0  0
    4.1430    2.1470  -59.8620 N   0  0  0  0  0  0  0  0  0  0  0  0
    4.7230    1.9830  -61.0920 C   0  0  0  0  0  0  0  0  0  0  0  0
    4.0250    1.9230  -62.4760 C   0  0  1  0  0  0  0  0  0  0  0  0
    2.9850    0.8500  -62.7320 C   0  0  0  0  0  0  0  0  0  0  0  0
    2.5800    2.1970  -62.4110 N   0  0  0  0  0  0  0  0  0  0  0  0
    6.0310    1.8670  -61.0160 N   0  0  0  0  0  0  0  0  0  0  0  0
    6.3120    1.9710  -59.6800 C   0  0  0  0  0  0  0  0  0  0  0  0
    7.5460    1.9180  -59.1480 N   0  0  0  0  0  0  0  0  0  0  0  0
   11.0070    3.0690  -58.2690 C   0  0  0  0  0  0  0  0  0  0  0  0
   11.5960    3.8230  -59.4560 C   0  0  0  0  0  0  0  0  0  0  0  0
    9.9170    2.7740  -60.8270 H   0  0  0  0  0  0  0  0  0  0  0  0
   10.9684    5.4360  -60.7008 H   0  0  0  0  0  0  0  0  0  0  0  0
    8.9354    5.9555  -59.8087 H   0  0  0  0  0  0  0  0  0  0  0  0
    8.5748    4.2329  -59.3676 H   0  0  0  0  0  0  0  0  0  0  0  0
   10.5598    6.0567  -57.9488 H   0  0  0  0  0  0  0  0  0  0  0  0
    8.8899    5.6252  -57.3814 H   0  0  0  0  0  0  0  0  0  0  0  0
   11.0874    4.3384  -56.5452 H   0  0  0  0  0  0  0  0  0  0  0  0
    9.5563    3.0713  -55.4623 H   0  0  0  0  0  0  0  0  0  0  0  0
    8.3128    3.9339  -56.4398 H   0  0  0  0  0  0  0  0  0  0  0  0
    9.5730    1.7410  -57.8080 H   0  0  0  0  0  0  0  0  0  0  0  0
    6.5946    2.3331  -55.9161 H   0  0  0  0  0  0  0  0  0  0  0  0
    4.2844    2.4174  -56.9469 H   0  0  0  0  0  0  0  0  0  0  0  0
    3.1590    2.2550  -59.6530 H   0  0  0  0  0  0  0  0  0  0  0  0
    4.9072    2.2729  -63.0321 H   0  0  0  0  0  0  0  0  0  0  0  0
    2.8369    0.4576  -63.7489 H   0  0  0  0  0  0  0  0  0  0  0  0
    2.7749   -0.1473  -62.3181 H   0  0  0  0  0  0  0  0  0  0  0  0
    2.3190    2.4030  -61.4300 H   0  0  0  0  0  0  0  0  0  0  0  0
    2.2450    2.8260  -63.1420 H   0  0  0  0  0  0  0  0  0  0  0  0
   11.8163    2.5317  -57.7529 H   0  0  0  0  0  0  0  0  0  0  0  0
   10.2474    2.3721  -58.6529 H   0  0  0  0  0  0  0  0  0  0  0  0
   12.3201    4.5641  -59.0865 H   0  0  0  0  0  0  0  0  0  0  0  0
   12.0877    3.0967  -60.1199 H   0  0  0  0  0  0  0  0  0  0  0  0
  1  2  1  0
  2  3  1  0
  3  4  1  0
  4  5  1  0
  5  6  1  0
  6  7  1  0
  7  8  1  0
  8  9  1  0
  9 10  2  0
 10 11  1  0
 11 12  1  0
 12 13  1  0
 13 14  1  0
 14 15  1  0
 15 16  1  0
 13 17  2  0
 17 18  1  0
 18 19  1  0
  5 20  1  0
 20 21  1  0
 21  2  1  0
 19  8  2  0
 18 11  2  0
 16 14  1  0
  1 22  1  0
  2 23  1  6
  3 24  1  0
  3 25  1  0
  4 26  1  0
  4 27  1  0
  5 28  1  1
  6 29  1  0
  6 30  1  0
  7 31  1  0
  9 32  1  0
 10 33  1  0
 12 34  1  0
 14 35  1  6
 15 36  1  0
 15 37  1  0
 16 38  1  0
 16 39  1  0
 20 40  1  0
 20 41  1  0
 21 42  1  0
 21 43  1  0
M  CHG  1  16   1
M  END
>  <meeko>  (162) 
{"is_sidechain": false}

$$$$

     RDKit          3D

 43 46  0  0  0  0  0  0  0  0999 V2000
   13.7670    6.8460  -60.3400 O   0  0  0  0  0  0  0  0  0  0  0  0
   13.0200    5.9960  -59.4790 C   0  0  1  0  0  0  0  0  0  0  0  0
   11.5500    6.0030  -59.8760 C   0  0  0  0  0  0  0  0  0  0  0  0
   10.6960    5.1520  -58.9340 C   0  0  0  0  0  0  0  0  0  0  0  0
   11.4890    4.0430  -58.2100 C   0  0  1  0  0  0  0  0  0  0  0  0
   10.5670    2.9110  -57.7290 C   0  0  0  0  0  0  0  0  0  0  0  0
    9.7000    2.4600  -58.8130 N   0  0  0  0  0  0  0  0  0  0  0  0
    8.4120    2.5120  -58.7280 C   0  0  0  0  0  0  0  0  0  0  0  0
    7.6130    3.0500  -57.5410 C   0  0  0  0  0  0  0  0  0  0  0  0
    6.2620    3.0430  -57.6150 C   0  0  0  0  0  0  0  0  0  0  0  0
    5.6140    2.5460  -58.7740 C   0  0  0  0  0  0  0  0  0  0  0  0
    4.2830    2.4660  -59.0300 N   0  0  0  0  0  0  0  0  0  0  0  0
    4.2330    1.9380  -60.2440 C   0  0  0  0  0  0  0  0  0  0  0  0
    2.8620    1.6790  -60.9240 C   0  0  2  0  0  0  0  0  0  0  0  0
    2.8150    0.8740  -62.2060 C   0  0  0  0  0  0  0  0  0  0  0  0
    2.7330    2.3120  -62.2460 N   0  0  0  0  0  0  0  0  0  0  0  0
    5.4830    1.6760  -60.7670 N   0  0  0  0  0  0  0  0  0  0  0  0
    6.3660    2.0730  -59.8170 C   0  0  0  0  0  0  0  0  0  0  0  0
    7.7080    2.0390  -59.8330 N   0  0  0  0  0  0  0  0  0  0  0  0
   12.6000    3.4970  -59.1140 C   0  0  0  0  0  0  0  0  0  0  0  0
   13.6030    4.5810  -59.5160 C   0  0  0  0  0  0  0  0  0  0  0  0
   13.6670    6.5200  -61.2510 H   0  0  0  0  0  0  0  0  0  0  0  0
   13.0887    6.3693  -58.4466 H   0  0  0  0  0  0  0  0  0  0  0  0
   11.1807    7.0389  -59.8512 H   0  0  0  0  0  0  0  0  0  0  0  0
   11.4696    5.5750  -60.8861 H   0  0  0  0  0  0  0  0  0  0  0  0
   10.2517    5.8131  -58.1754 H   0  0  0  0  0  0  0  0  0  0  0  0
    9.9355    4.6525  -59.5522 H   0  0  0  0  0  0  0  0  0  0  0  0
   11.9535    4.4901  -57.3188 H   0  0  0  0  0  0  0  0  0  0  0  0
   11.1813    2.0670  -57.3822 H   0  0  0  0  0  0  0  0  0  0  0  0
    9.9407    3.2883  -56.9072 H   0  0  0  0  0  0  0  0  0  0  0  0
    8.1250    3.4343  -56.6465 H   0  0  0  0  0  0  0  0  0  0  0  0
    5.6647    3.4240  -56.7735 H   0  0  0  0  0  0  0  0  0  0  0  0
    2.3070    1.6314  -59.9755 H   0  0  0  0  0  0  0  0  0  0  0  0
    3.7190    0.3634  -62.5694 H   0  0  0  0  0  0  0  0  0  0  0  0
    2.1970    0.0468  -62.5852 H   0  0  0  0  0  0  0  0  0  0  0  0
    1.8340    2.7780  -62.3900 H   0  0  0  0  0  0  0  0  0  0  0  0
    3.5960    2.8450  -62.4460 H   0  0  0  0  0  0  0  0  0  0  0  0
    5.7090    1.2730  -61.6670 H   0  0  0  0  0  0  0  0  0  0  0  0
    8.2970    1.6980  -60.5860 H   0  0  0  0  0  0  0  0  0  0  0  0
   13.1354    2.7009  -58.5759 H   0  0  0  0  0  0  0  0  0  0  0  0
   12.1307    3.1138  -60.0321 H   0  0  0  0  0  0  0  0  0  0  0  0
   14.4576    4.5383  -58.8247 H   0  0  0  0  0  0  0  0  0  0  0  0
   13.8977    4.3795  -60.5564 H   0  0  0  0  0  0  0  0  0  0  0  0
  1  2  1  0
  2  3  1  0
  3  4  1  0
  4  5  1  0
  5  6  1  0
  6  7  1  0
  7  8  2  0
  8  9  1  0
  9 10  2  0
 10 11  1  0
 11 12  1  0
 12 13  2  0
 13 14  1  0
 14 15  1  0
 15 16  1  0
 13 17  1  0
 17 18  1  0
 18 19  1  0
  5 20  1  0
 20 21  1  0
 21  2  1  0
 19  8  1  0
 18 11  2  0
 16 14  1  0
  1 22  1  0
  2 23  1  1
  3 24  1  0
  3 25  1  0
  4 26  1  0
  4 27  1  0
  5 28  1  1
  6 29  1  0
  6 30  1  0
  9 31  1  0
 10 32  1  0
 14 33  1  1
 15 34  1  0
 15 35  1  0
 16 36  1  0
 16 37  1  0
 17 38  1  0
 19 39  1  0
 20 40  1  0
 20 41  1  0
 21 42  1  0
 21 43  1  0
M  CHG  1  16   1
M  END
>  <meeko>  (163) 
{"is_sidechain": false}

$$$$

     RDKit          3D

 43 46  0  0  0  0  0  0  0  0999 V2000
   10.8020    5.1050  -60.1860 O   0  0  0  0  0  0  0  0  0  0  0  0
   10.9330    5.4110  -58.8000 C   0  0  1  0  0  0  0  0  0  0  0  0
    9.5480    5.2720  -58.1600 C   0  0  0  0  0  0  0  0  0  0  0  0
    9.6440    4.8850  -56.6900 C   0  0  0  0  0  0  0  0  0  0  0  0
   10.3360    3.5200  -56.4980 C   0  0  1  0  0  0  0  0  0  0  0  0
    9.3010    2.3860  -56.3900 C   0  0  0  0  0  0  0  0  0  0  0  0
    8.7630    2.0500  -57.7050 N   0  0  0  0  0  0  0  0  0  0  0  0
    7.5030    2.1250  -57.9730 C   0  0  0  0  0  0  0  0  0  0  0  0
    6.3980    2.5280  -56.9940 C   0  0  0  0  0  0  0  0  0  0  0  0
    5.1220    2.5680  -57.4410 C   0  0  0  0  0  0  0  0  0  0  0  0
    4.8290    2.2390  -58.7900 C   0  0  0  0  0  0  0  0  0  0  0  0
    3.6230    2.2300  -59.4130 N   0  0  0  0  0  0  0  0  0  0  0  0
    3.9190    1.8560  -60.6500 C   0  0  0  0  0  0  0  0  0  0  0  0
    2.7940    1.7250  -61.7120 C   0  0  1  0  0  0  0  0  0  0  0  0
    3.0850    2.1160  -63.1450 C   0  0  0  0  0  0  0  0  0  0  0  0
    3.0830    0.7280  -62.7560 N   0  0  0  0  0  0  0  0  0  0  0  0
    5.2660    1.6280  -60.8340 N   0  0  0  0  0  0  0  0  0  0  0  0
    5.8440    1.8750  -59.6310 C   0  0  0  0  0  0  0  0  0  0  0  0
    7.1380    1.8010  -59.2790 N   0  0  0  0  0  0  0  0  0  0  0  0
   11.3640    3.2240  -57.6120 C   0  0  0  0  0  0  0  0  0  0  0  0
   11.9900    4.5020  -58.1620 C   0  0  0  0  0  0  0  0  0  0  0  0
   11.6910    5.1360  -60.5810 H   0  0  0  0  0  0  0  0  0  0  0  0
   11.2845    6.4412  -58.6412 H   0  0  0  0  0  0  0  0  0  0  0  0
    9.0191    6.2330  -58.2420 H   0  0  0  0  0  0  0  0  0  0  0  0
    9.0034    4.4764  -58.6896 H   0  0  0  0  0  0  0  0  0  0  0  0
   10.2215    5.6545  -56.1568 H   0  0  0  0  0  0  0  0  0  0  0  0
    8.6220    4.8080  -56.2906 H   0  0  0  0  0  0  0  0  0  0  0  0
   10.8924    3.5731  -55.5506 H   0  0  0  0  0  0  0  0  0  0  0  0
    9.7840    1.4963  -55.9596 H   0  0  0  0  0  0  0  0  0  0  0  0
    8.4751    2.7218  -55.7458 H   0  0  0  0  0  0  0  0  0  0  0  0
    6.6361    2.7796  -55.9500 H   0  0  0  0  0  0  0  0  0  0  0  0
    4.3098    2.8561  -56.7575 H   0  0  0  0  0  0  0  0  0  0  0  0
    1.9858    1.9679  -61.0064 H   0  0  0  0  0  0  0  0  0  0  0  0
    2.2801    2.5105  -63.7826 H   0  0  0  0  0  0  0  0  0  0  0  0
    3.8037    2.7859  -63.6397 H   0  0  0  0  0  0  0  0  0  0  0  0
    3.9920    0.2810  -62.5450 H   0  0  0  0  0  0  0  0  0  0  0  0
    2.2890    0.1260  -62.9760 H   0  0  0  0  0  0  0  0  0  0  0  0
    5.7400    1.3420  -61.6810 H   0  0  0  0  0  0  0  0  0  0  0  0
    7.9180    1.5510  -59.8760 H   0  0  0  0  0  0  0  0  0  0  0  0
   12.1604    2.5862  -57.2008 H   0  0  0  0  0  0  0  0  0  0  0  0
   10.8382    2.7197  -58.4361 H   0  0  0  0  0  0  0  0  0  0  0  0
   12.4791    5.0441  -57.3393 H   0  0  0  0  0  0  0  0  0  0  0  0
   12.7217    4.2250  -58.9353 H   0  0  0  0  0  0  0  0  0  0  0  0
  1  2  1  0
  2  3  1  0
  3  4  1  0
  4  5  1  0
  5  6  1  0
  6  7  1  0
  7  8  2  0
  8  9  1  0
  9 10  2  0
 10 11  1  0
 11 12  1  0
 12 13  2  0
 13 14  1  0
 14 15  1  0
 15 16  1  0
 13 17  1  0
 17 18  1  0
 18 19  1  0
  5 20  1  0
 20 21  1  0
 21  2  1  0
 19  8  1  0
 18 11  2  0
 16 14  1  0
  1 22  1  0
  2 23  1  6
  3 24  1  0
  3 25  1  0
  4 26  1  0
  4 27  1  0
  5 28  1  1
  6 29  1  0
  6 30  1  0
  9 31  1  0
 10 32  1  0
 14 33  1  1
 15 34  1  0
 15 35  1  0
 16 36  1  0
 16 37  1  0
 17 38  1  0
 19 39  1  0
 20 40  1  0
 20 41  1  0
 21 42  1  0
 21 43  1  0
M  CHG  1  16   1
M  END
>  <meeko>  (164) 
{"is_sidechain": false}

$$$$

     RDKit          3D

 43 46  0  0  0  0  0  0  0  0999 V2000
    5.3890   -3.7930  -50.1220 O   0  0  0  0  0  0  0  0  0  0  0  0
    6.7210   -4.1510  -50.4860 C   0  0  1  0  0  0  0  0  0  0  0  0
    6.7690   -4.5450  -51.9670 C   0  0  0  0  0  0  0  0  0  0  0  0
    7.2020   -3.3730  -52.8430 C   0  0  0  0  0  0  0  0  0  0  0  0
    8.6210   -2.8860  -52.4860 C   0  0  1  0  0  0  0  0  0  0  0  0
    8.8210   -1.4480  -52.9990 C   0  0  0  0  0  0  0  0  0  0  0  0
    7.6040   -1.0140  -53.6760 N   0  0  0  0  0  0  0  0  0  0  0  0
    7.6730   -0.1090  -54.5940 C   0  0  0  0  0  0  0  0  0  0  0  0
    6.3400    0.2610  -55.2360 C   0  0  0  0  0  0  0  0  0  0  0  0
    6.3200    1.1970  -56.2090 C   0  0  0  0  0  0  0  0  0  0  0  0
    7.5270    1.8190  -56.6130 C   0  0  0  0  0  0  0  0  0  0  0  0
    7.7040    2.7720  -57.5640 N   0  0  0  0  0  0  0  0  0  0  0  0
    9.0080    2.9960  -57.5390 C   0  0  0  0  0  0  0  0  0  0  0  0
    9.6320    4.0430  -58.5020 C   0  0  2  0  0  0  0  0  0  0  0  0
   10.2970    5.2740  -57.9220 C   0  0  0  0  0  0  0  0  0  0  0  0
    8.9610    5.3520  -58.4600 N   0  0  0  0  0  0  0  0  0  0  0  0
    9.6680    2.2200  -56.6080 N   0  0  0  0  0  0  0  0  0  0  0  0
    8.7080    1.4650  -56.0140 C   0  0  0  0  0  0  0  0  0  0  0  0
    8.8290    0.5440  -55.0380 N   0  0  0  0  0  0  0  0  0  0  0  0
    8.9220   -3.0150  -50.9760 C   0  0  0  0  0  0  0  0  0  0  0  0
    7.6540   -2.9900  -50.1340 C   0  0  0  0  0  0  0  0  0  0  0  0
    5.4020   -2.8830  -49.7840 H   0  0  0  0  0  0  0  0  0  0  0  0
    7.0637   -5.0319  -49.9233 H   0  0  0  0  0  0  0  0  0  0  0  0
    7.4850   -5.3703  -52.0944 H   0  0  0  0  0  0  0  0  0  0  0  0
    5.7589   -4.8522  -52.2756 H   0  0  0  0  0  0  0  0  0  0  0  0
    7.1890   -3.6913  -53.8958 H   0  0  0  0  0  0  0  0  0  0  0  0
    6.5019   -2.5417  -52.6731 H   0  0  0  0  0  0  0  0  0  0  0  0
    9.3485   -3.5391  -52.9901 H   0  0  0  0  0  0  0  0  0  0  0  0
    9.0303   -0.7793  -52.1511 H   0  0  0  0  0  0  0  0  0  0  0  0
    9.6684   -1.4169  -53.6997 H   0  0  0  0  0  0  0  0  0  0  0  0
    5.4092   -0.2271  -54.9114 H   0  0  0  0  0  0  0  0  0  0  0  0
    5.3691    1.4758  -56.6866 H   0  0  0  0  0  0  0  0  0  0  0  0
    9.9359    3.2966  -59.2507 H   0  0  0  0  0  0  0  0  0  0  0  0
   10.4596    5.3529  -56.8369 H   0  0  0  0  0  0  0  0  0  0  0  0
   11.2423    5.8073  -58.1009 H   0  0  0  0  0  0  0  0  0  0  0  0
    8.7960    5.7590  -59.3830 H   0  0  0  0  0  0  0  0  0  0  0  0
    8.1670    5.3010  -57.7980 H   0  0  0  0  0  0  0  0  0  0  0  0
   10.6590    2.2040  -56.4050 H   0  0  0  0  0  0  0  0  0  0  0  0
    9.7020    0.2860  -54.5990 H   0  0  0  0  0  0  0  0  0  0  0  0
    9.4464   -3.9656  -50.7990 H   0  0  0  0  0  0  0  0  0  0  0  0
    9.5416   -2.1556  -50.6800 H   0  0  0  0  0  0  0  0  0  0  0  0
    7.9295   -3.0629  -49.0716 H   0  0  0  0  0  0  0  0  0  0  0  0
    7.1237   -2.0482  -50.3386 H   0  0  0  0  0  0  0  0  0  0  0  0
  1  2  1  0
  2  3  1  0
  3  4  1  0
  4  5  1  0
  5  6  1  0
  6  7  1  0
  7  8  2  0
  8  9  1  0
  9 10  2  0
 10 11  1  0
 11 12  1  0
 12 13  2  0
 13 14  1  0
 14 15  1  0
 15 16  1  0
 13 17  1  0
 17 18  1  0
 18 19  1  0
  5 20  1  0
 20 21  1  0
 21  2  1  0
 19  8  1  0
 18 11  2  0
 16 14  1  0
  1 22  1  0
  2 23  1  1
  3 24  1  0
  3 25  1  0
  4 26  1  0
  4 27  1  0
  5 28  1  6
  6 29  1  0
  6 30  1  0
  9 31  1  0
 10 32  1  0
 14 33  1  6
 15 34  1  0
 15 35  1  0
 16 36  1  0
 16 37  1  0
 17 38  1  0
 19 39  1  0
 20 40  1  0
 20 41  1  0
 21 42  1  0
 21 43  1  0
M  CHG  1  16   1
M  END
>  <meeko>  (165) 
{"is_sidechain": false}

$$$$

     RDKit          3D

 43 46  0  0  0  0  0  0  0  0999 V2000
    5.3970   -3.7730  -50.1220 O   0  0  0  0  0  0  0  0  0  0  0  0
    6.7130   -4.1790  -50.4960 C   0  0  1  0  0  0  0  0  0  0  0  0
    6.7260   -4.5000  -51.9940 C   0  0  0  0  0  0  0  0  0  0  0  0
    7.0800   -3.2710  -52.8240 C   0  0  0  0  0  0  0  0  0  0  0  0
    8.4910   -2.7380  -52.4940 C   0  0  1  0  0  0  0  0  0  0  0  0
    8.5960   -1.2360  -52.8230 C   0  0  0  0  0  0  0  0  0  0  0  0
    7.4260   -0.8410  -53.6000 N   0  0  0  0  0  0  0  0  0  0  0  0
    7.5560    0.0070  -54.5640 C   0  0  0  0  0  0  0  0  0  0  0  0
    6.2620    0.3540  -55.2940 C   0  0  0  0  0  0  0  0  0  0  0  0
    6.3020    1.2420  -56.3110 C   0  0  0  0  0  0  0  0  0  0  0  0
    7.5370    1.8330  -56.6810 C   0  0  0  0  0  0  0  0  0  0  0  0
    7.7710    2.7430  -57.6610 N   0  0  0  0  0  0  0  0  0  0  0  0
    9.0750    2.9590  -57.5770 C   0  0  0  0  0  0  0  0  0  0  0  0
    9.7570    3.9660  -58.5420 C   0  0  1  0  0  0  0  0  0  0  0  0
   10.1230    5.3430  -58.0320 C   0  0  0  0  0  0  0  0  0  0  0  0
   11.1300    4.3180  -58.1460 N   0  0  0  0  0  0  0  0  0  0  0  0
    9.6770    2.2190  -56.5790 N   0  0  0  0  0  0  0  0  0  0  0  0
    8.6800    1.4960  -56.0070 C   0  0  0  0  0  0  0  0  0  0  0  0
    8.7410    0.6200  -54.9840 N   0  0  0  0  0  0  0  0  0  0  0  0
    8.8960   -3.0190  -51.0330 C   0  0  0  0  0  0  0  0  0  0  0  0
    7.6890   -3.0650  -50.1050 C   0  0  0  0  0  0  0  0  0  0  0  0
    4.7990   -4.0260  -50.8470 H   0  0  0  0  0  0  0  0  0  0  0  0
    7.0281   -5.0931  -49.9714 H   0  0  0  0  0  0  0  0  0  0  0  0
    7.4704   -5.2871  -52.1848 H   0  0  0  0  0  0  0  0  0  0  0  0
    5.7195   -4.8354  -52.2846 H   0  0  0  0  0  0  0  0  0  0  0  0
    7.0419   -3.5393  -53.8901 H   0  0  0  0  0  0  0  0  0  0  0  0
    6.3535   -2.4798  -52.5870 H   0  0  0  0  0  0  0  0  0  0  0  0
    9.2034   -3.2843  -53.1297 H   0  0  0  0  0  0  0  0  0  0  0  0
    8.6331   -0.6550  -51.8897 H   0  0  0  0  0  0  0  0  0  0  0  0
    9.5111   -1.0438  -53.4023 H   0  0  0  0  0  0  0  0  0  0  0  0
    5.3109   -0.1119  -54.9966 H   0  0  0  0  0  0  0  0  0  0  0  0
    5.3802    1.5058  -56.8502 H   0  0  0  0  0  0  0  0  0  0  0  0
    9.2233    3.6029  -59.4327 H   0  0  0  0  0  0  0  0  0  0  0  0
   10.1302    6.2013  -58.7200 H   0  0  0  0  0  0  0  0  0  0  0  0
    9.7632    5.9959  -57.2232 H   0  0  0  0  0  0  0  0  0  0  0  0
   11.3800    3.7840  -57.2950 H   0  0  0  0  0  0  0  0  0  0  0  0
   11.7930    4.3230  -58.9230 H   0  0  0  0  0  0  0  0  0  0  0  0
   10.6530    2.2150  -56.3140 H   0  0  0  0  0  0  0  0  0  0  0  0
    9.5870    0.3760  -54.4870 H   0  0  0  0  0  0  0  0  0  0  0  0
    9.4153   -3.9877  -50.9885 H   0  0  0  0  0  0  0  0  0  0  0  0
    9.5507   -2.2008  -50.6986 H   0  0  0  0  0  0  0  0  0  0  0  0
    8.0371   -3.2414  -49.0765 H   0  0  0  0  0  0  0  0  0  0  0  0
    7.1601   -2.1037  -50.1840 H   0  0  0  0  0  0  0  0  0  0  0  0
  1  2  1  0
  2  3  1  0
  3  4  1  0
  4  5  1  0
  5  6  1  0
  6  7  1  0
  7  8  2  0
  8  9  1  0
  9 10  2  0
 10 11  1  0
 11 12  1  0
 12 13  2  0
 13 14  1  0
 14 15  1  0
 15 16  1  0
 13 17  1  0
 17 18  1  0
 18 19  1  0
  5 20  1  0
 20 21  1  0
 21  2  1  0
 19  8  1  0
 18 11  2  0
 16 14  1  0
  1 22  1  0
  2 23  1  1
  3 24  1  0
  3 25  1  0
  4 26  1  0
  4 27  1  0
  5 28  1  6
  6 29  1  0
  6 30  1  0
  9 31  1  0
 10 32  1  0
 14 33  1  6
 15 34  1  0
 15 35  1  0
 16 36  1  0
 16 37  1  0
 17 38  1  0
 19 39  1  0
 20 40  1  0
 20 41  1  0
 21 42  1  0
 21 43  1  0
M  CHG  1  16   1
M  END
>  <meeko>  (166) 
{"is_sidechain": false}

$$$$

     RDKit          3D

 43 46  0  0  0  0  0  0  0  0999 V2000
   13.8260    6.7260  -60.2160 O   0  0  0  0  0  0  0  0  0  0  0  0
   12.9750    5.9000  -59.4290 C   0  0  1  0  0  0  0  0  0  0  0  0
   11.5500    5.9540  -59.9660 C   0  0  0  0  0  0  0  0  0  0  0  0
   10.5810    5.1320  -59.1140 C   0  0  0  0  0  0  0  0  0  0  0  0
   11.2600    3.9740  -58.3540 C   0  0  1  0  0  0  0  0  0  0  0  0
   10.2550    2.8850  -57.9420 C   0  0  0  0  0  0  0  0  0  0  0  0
    9.4180    2.5190  -59.0810 N   0  0  0  0  0  0  0  0  0  0  0  0
    8.1270    2.5090  -58.9750 C   0  0  0  0  0  0  0  0  0  0  0  0
    7.3650    2.8640  -57.6960 C   0  0  0  0  0  0  0  0  0  0  0  0
    6.0180    2.8230  -57.6980 C   0  0  0  0  0  0  0  0  0  0  0  0
    5.4440    2.4450  -58.9210 C   0  0  0  0  0  0  0  0  0  0  0  0
    4.1180    2.3240  -59.2060 N   0  0  0  0  0  0  0  0  0  0  0  0
    4.0530    1.9320  -60.5260 C   0  0  0  0  0  0  0  0  0  0  0  0
    2.7750    1.6510  -61.3610 C   0  0  2  0  0  0  0  0  0  0  0  0
    2.8810    0.7800  -62.5960 C   0  0  0  0  0  0  0  0  0  0  0  0
    2.8250    2.2150  -62.7190 N   0  0  0  0  0  0  0  0  0  0  0  0
    5.2480    1.8050  -61.0790 N   0  0  0  0  0  0  0  0  0  0  0  0
    6.1050    2.1240  -60.0760 C   0  0  0  0  0  0  0  0  0  0  0  0
    7.4380    2.1480  -60.1250 N   0  0  0  0  0  0  0  0  0  0  0  0
   12.4430    3.4100  -59.1520 C   0  0  0  0  0  0  0  0  0  0  0  0
   13.5190    4.4690  -59.4090 C   0  0  0  0  0  0  0  0  0  0  0  0
   14.7150    6.7060  -59.8190 H   0  0  0  0  0  0  0  0  0  0  0  0
   12.9541    6.2701  -58.3934 H   0  0  0  0  0  0  0  0  0  0  0  0
   11.2138    7.0013  -59.9744 H   0  0  0  0  0  0  0  0  0  0  0  0
   11.5543    5.5274  -60.9799 H   0  0  0  0  0  0  0  0  0  0  0  0
   10.1094    5.8013  -58.3795 H   0  0  0  0  0  0  0  0  0  0  0  0
    9.8479    4.6828  -59.8002 H   0  0  0  0  0  0  0  0  0  0  0  0
   11.6659    4.3828  -57.4169 H   0  0  0  0  0  0  0  0  0  0  0  0
   10.8029    1.9974  -57.5928 H   0  0  0  0  0  0  0  0  0  0  0  0
    9.6158    3.2714  -57.1345 H   0  0  0  0  0  0  0  0  0  0  0  0
    7.9110    3.1496  -56.7848 H   0  0  0  0  0  0  0  0  0  0  0  0
    5.4158    3.0668  -56.8103 H   0  0  0  0  0  0  0  0  0  0  0  0
    3.3470    2.4940  -58.5720 H   0  0  0  0  0  0  0  0  0  0  0  0
    2.1025    1.6587  -60.4905 H   0  0  0  0  0  0  0  0  0  0  0  0
    3.8168    0.2444  -62.8139 H   0  0  0  0  0  0  0  0  0  0  0  0
    2.3050   -0.0613  -63.0089 H   0  0  0  0  0  0  0  0  0  0  0  0
    1.9590    2.6780  -63.0030 H   0  0  0  0  0  0  0  0  0  0  0  0
    3.7150    2.7280  -62.8380 H   0  0  0  0  0  0  0  0  0  0  0  0
    7.9940    1.9300  -60.9390 H   0  0  0  0  0  0  0  0  0  0  0  0
   12.8900    2.5798  -58.5854 H   0  0  0  0  0  0  0  0  0  0  0  0
   12.0634    3.0681  -60.1262 H   0  0  0  0  0  0  0  0  0  0  0  0
   14.2765    4.3956  -58.6148 H   0  0  0  0  0  0  0  0  0  0  0  0
   13.9388    4.2685  -60.4058 H   0  0  0  0  0  0  0  0  0  0  0  0
  1  2  1  0
  2  3  1  0
  3  4  1  0
  4  5  1  0
  5  6  1  0
  6  7  1  0
  7  8  2  0
  8  9  1  0
  9 10  2  0
 10 11  1  0
 11 12  1  0
 12 13  1  0
 13 14  1  0
 14 15  1  0
 15 16  1  0
 13 17  2  0
 17 18  1  0
 18 19  1  0
  5 20  1  0
 20 21  1  0
 21  2  1  0
 19  8  1  0
 18 11  2  0
 16 14  1  0
  1 22  1  0
  2 23  1  1
  3 24  1  0
  3 25  1  0
  4 26  1  0
  4 27  1  0
  5 28  1  1
  6 29  1  0
  6 30  1  0
  9 31  1  0
 10 32  1  0
 12 33  1  0
 14 34  1  1
 15 35  1  0
 15 36  1  0
 16 37  1  0
 16 38  1  0
 19 39  1  0
 20 40  1  0
 20 41  1  0
 21 42  1  0
 21 43  1  0
M  CHG  1  16   1
M  END
>  <meeko>  (167) 
{"is_sidechain": false}

$$$$

     RDKit          3D

 43 46  0  0  0  0  0  0  0  0999 V2000
   13.3900    6.8370  -60.1940 O   0  0  0  0  0  0  0  0  0  0  0  0
   12.6030    5.9390  -59.4200 C   0  0  1  0  0  0  0  0  0  0  0  0
   11.2890    5.6810  -60.1440 C   0  0  0  0  0  0  0  0  0  0  0  0
   10.3700    4.7470  -59.3540 C   0  0  0  0  0  0  0  0  0  0  0  0
   11.1180    3.7980  -58.3950 C   0  0  1  0  0  0  0  0  0  0  0  0
   10.2450    2.5700  -58.0860 C   0  0  0  0  0  0  0  0  0  0  0  0
    9.3160    2.3290  -59.1810 N   0  0  0  0  0  0  0  0  0  0  0  0
    8.0290    2.3660  -59.0640 C   0  0  0  0  0  0  0  0  0  0  0  0
    7.2710    2.7090  -57.7800 C   0  0  0  0  0  0  0  0  0  0  0  0
    5.9230    2.6950  -57.7830 C   0  0  0  0  0  0  0  0  0  0  0  0
    5.3410    2.3570  -59.0140 C   0  0  0  0  0  0  0  0  0  0  0  0
    4.0140    2.2550  -59.2970 N   0  0  0  0  0  0  0  0  0  0  0  0
    3.9420    1.8990  -60.6270 C   0  0  0  0  0  0  0  0  0  0  0  0
    2.6620    1.6460  -61.4650 C   0  0  1  0  0  0  0  0  0  0  0  0
    2.5370    2.2870  -62.8320 C   0  0  0  0  0  0  0  0  0  0  0  0
    2.9100    0.9000  -62.7090 N   0  0  0  0  0  0  0  0  0  0  0  0
    5.1360    1.7730  -61.1850 N   0  0  0  0  0  0  0  0  0  0  0  0
    5.9970    2.0580  -60.1770 C   0  0  0  0  0  0  0  0  0  0  0  0
    7.3290    2.0700  -60.2280 N   0  0  0  0  0  0  0  0  0  0  0  0
   12.4870    3.4180  -58.9730 C   0  0  0  0  0  0  0  0  0  0  0  0
   13.3810    4.6410  -59.1960 C   0  0  0  0  0  0  0  0  0  0  0  0
   14.2450    6.4060  -60.3640 H   0  0  0  0  0  0  0  0  0  0  0  0
   12.3792    6.3753  -58.4353 H   0  0  0  0  0  0  0  0  0  0  0  0
   10.7734    6.6407  -60.2959 H   0  0  0  0  0  0  0  0  0  0  0  0
   11.5207    5.1959  -61.1037 H   0  0  0  0  0  0  0  0  0  0  0  0
    9.6771    5.3625  -58.7615 H   0  0  0  0  0  0  0  0  0  0  0  0
    9.8503    4.1141  -60.0885 H   0  0  0  0  0  0  0  0  0  0  0  0
   11.3091    4.3130  -57.4420 H   0  0  0  0  0  0  0  0  0  0  0  0
   10.8900    1.6886  -57.9552 H   0  0  0  0  0  0  0  0  0  0  0  0
    9.6747    2.7562  -57.1640 H   0  0  0  0  0  0  0  0  0  0  0  0
    7.8211    2.9648  -56.8624 H   0  0  0  0  0  0  0  0  0  0  0  0
    5.3258    2.9303  -56.8897 H   0  0  0  0  0  0  0  0  0  0  0  0
    3.2460    2.4060  -58.6560 H   0  0  0  0  0  0  0  0  0  0  0  0
    2.0001    1.5884  -60.5883 H   0  0  0  0  0  0  0  0  0  0  0  0
    1.5460    2.5583  -63.2248 H   0  0  0  0  0  0  0  0  0  0  0  0
    2.9715    3.1710  -63.3216 H   0  0  0  0  0  0  0  0  0  0  0  0
    3.9140    0.6600  -62.7620 H   0  0  0  0  0  0  0  0  0  0  0  0
    2.2270    0.1600  -62.8880 H   0  0  0  0  0  0  0  0  0  0  0  0
    7.8830    1.8400  -61.0400 H   0  0  0  0  0  0  0  0  0  0  0  0
   12.9898    2.7348  -58.2727 H   0  0  0  0  0  0  0  0  0  0  0  0
   12.3201    2.9395  -59.9493 H   0  0  0  0  0  0  0  0  0  0  0  0
   14.0219    4.7686  -58.3112 H   0  0  0  0  0  0  0  0  0  0  0  0
   13.9615    4.4522  -60.1111 H   0  0  0  0  0  0  0  0  0  0  0  0
  1  2  1  0
  2  3  1  0
  3  4  1  0
  4  5  1  0
  5  6  1  0
  6  7  1  0
  7  8  2  0
  8  9  1  0
  9 10  2  0
 10 11  1  0
 11 12  1  0
 12 13  1  0
 13 14  1  0
 14 15  1  0
 15 16  1  0
 13 17  2  0
 17 18  1  0
 18 19  1  0
  5 20  1  0
 20 21  1  0
 21  2  1  0
 19  8  1  0
 18 11  2  0
 16 14  1  0
  1 22  1  0
  2 23  1  1
  3 24  1  0
  3 25  1  0
  4 26  1  0
  4 27  1  0
  5 28  1  1
  6 29  1  0
  6 30  1  0
  9 31  1  0
 10 32  1  0
 12 33  1  0
 14 34  1  1
 15 35  1  0
 15 36  1  0
 16 37  1  0
 16 38  1  0
 19 39  1  0
 20 40  1  0
 20 41  1  0
 21 42  1  0
 21 43  1  0
M  CHG  1  16   1
M  END
>  <meeko>  (168) 
{"is_sidechain": false}

$$$$

     RDKit          3D

 43 46  0  0  0  0  0  0  0  0999 V2000
   13.0910    6.6270  -59.7890 O   0  0  0  0  0  0  0  0  0  0  0  0
   12.2160    5.6700  -59.2050 C   0  0  1  0  0  0  0  0  0  0  0  0
   11.1360    5.2740  -60.2150 C   0  0  0  0  0  0  0  0  0  0  0  0
   10.5570    3.8760  -59.9790 C   0  0  0  0  0  0  0  0  0  0  0  0
   10.6820    3.4370  -58.5130 C   0  0  1  0  0  0  0  0  0  0  0  0
   10.0200    2.0730  -58.2600 C   0  0  0  0  0  0  0  0  0  0  0  0
    8.8360    2.2680  -57.4280 N   0  0  0  0  0  0  0  0  0  0  0  0
    7.6650    2.2590  -57.9830 C   0  0  0  0  0  0  0  0  0  0  0  0
    6.5180    2.4790  -57.0010 C   0  0  0  0  0  0  0  0  0  0  0  0
    5.2490    2.4950  -57.4510 C   0  0  0  0  0  0  0  0  0  0  0  0
    5.1210    2.2980  -58.8340 C   0  0  0  0  0  0  0  0  0  0  0  0
    3.9670    2.2700  -59.5550 N   0  0  0  0  0  0  0  0  0  0  0  0
    4.3500    2.0490  -60.8610 C   0  0  0  0  0  0  0  0  0  0  0  0
    3.4210    1.9290  -62.0980 C   0  0  2  0  0  0  0  0  0  0  0  0
    2.9350    0.5580  -62.5240 C   0  0  0  0  0  0  0  0  0  0  0  0
    4.0230    1.1960  -63.2230 N   0  0  0  0  0  0  0  0  0  0  0  0
    5.6610    1.9430  -60.9970 N   0  0  0  0  0  0  0  0  0  0  0  0
    6.1330    2.0990  -59.7340 C   0  0  0  0  0  0  0  0  0  0  0  0
    7.4100    2.0730  -59.3390 N   0  0  0  0  0  0  0  0  0  0  0  0
   12.1620    3.3970  -58.0860 C   0  0  0  0  0  0  0  0  0  0  0  0
   13.0280    4.4620  -58.7590 C   0  0  0  0  0  0  0  0  0  0  0  0
   13.1980    6.3920  -60.7270 H   0  0  0  0  0  0  0  0  0  0  0  0
   11.7145    6.0993  -58.3251 H   0  0  0  0  0  0  0  0  0  0  0  0
   10.3163    6.0048  -60.1517 H   0  0  0  0  0  0  0  0  0  0  0  0
   11.6115    5.2624  -61.2069 H   0  0  0  0  0  0  0  0  0  0  0  0
    9.4929    3.8815  -60.2578 H   0  0  0  0  0  0  0  0  0  0  0  0
   11.1281    3.1654  -60.5945 H   0  0  0  0  0  0  0  0  0  0  0  0
   10.1495    4.1821  -57.9037 H   0  0  0  0  0  0  0  0  0  0  0  0
    9.7268    1.6215  -59.2192 H   0  0  0  0  0  0  0  0  0  0  0  0
   10.7283    1.4045  -57.7487 H   0  0  0  0  0  0  0  0  0  0  0  0
    6.7268    2.6238  -55.9307 H   0  0  0  0  0  0  0  0  0  0  0  0
    4.3843    2.6497  -56.7890 H   0  0  0  0  0  0  0  0  0  0  0  0
    3.0290    2.3900  -59.1960 H   0  0  0  0  0  0  0  0  0  0  0  0
    2.9215    2.8923  -61.9175 H   0  0  0  0  0  0  0  0  0  0  0  0
    3.1276   -0.3176  -61.8866 H   0  0  0  0  0  0  0  0  0  0  0  0
    1.9645    0.1303  -62.8157 H   0  0  0  0  0  0  0  0  0  0  0  0
    4.9890    0.9250  -62.9700 H   0  0  0  0  0  0  0  0  0  0  0  0
    3.8670    1.6360  -64.1320 H   0  0  0  0  0  0  0  0  0  0  0  0
    8.1760    1.9320  -59.9780 H   0  0  0  0  0  0  0  0  0  0  0  0
   12.2129    3.5459  -56.9973 H   0  0  0  0  0  0  0  0  0  0  0  0
   12.5584    2.4190  -58.3965 H   0  0  0  0  0  0  0  0  0  0  0  0
   13.7961    4.7958  -58.0458 H   0  0  0  0  0  0  0  0  0  0  0  0
   13.4802    4.0112  -59.6547 H   0  0  0  0  0  0  0  0  0  0  0  0
  1  2  1  0
  2  3  1  0
  3  4  1  0
  4  5  1  0
  5  6  1  0
  6  7  1  0
  7  8  2  0
  8  9  1  0
  9 10  2  0
 10 11  1  0
 11 12  1  0
 12 13  1  0
 13 14  1  0
 14 15  1  0
 15 16  1  0
 13 17  2  0
 17 18  1  0
 18 19  1  0
  5 20  1  0
 20 21  1  0
 21  2  1  0
 19  8  1  0
 18 11  2  0
 16 14  1  0
  1 22  1  0
  2 23  1  1
  3 24  1  0
  3 25  1  0
  4 26  1  0
  4 27  1  0
  5 28  1  1
  6 29  1  0
  6 30  1  0
  9 31  1  0
 10 32  1  0
 12 33  1  0
 14 34  1  6
 15 35  1  0
 15 36  1  0
 16 37  1  0
 16 38  1  0
 19 39  1  0
 20 40  1  0
 20 41  1  0
 21 42  1  0
 21 43  1  0
M  CHG  1  16   1
M  END
>  <meeko>  (169) 
{"is_sidechain": false}

$$$$

     RDKit          3D

 43 46  0  0  0  0  0  0  0  0999 V2000
   13.0200    6.8590  -59.5250 O   0  0  0  0  0  0  0  0  0  0  0  0
   12.1320    5.8480  -59.0640 C   0  0  1  0  0  0  0  0  0  0  0  0
   11.3200    5.2910  -60.2260 C   0  0  0  0  0  0  0  0  0  0  0  0
   10.3050    4.2410  -59.7690 C   0  0  0  0  0  0  0  0  0  0  0  0
   10.6950    3.5330  -58.4540 C   0  0  1  0  0  0  0  0  0  0  0  0
   10.0060    2.1640  -58.3240 C   0  0  0  0  0  0  0  0  0  0  0  0
    8.7850    2.3250  -57.5420 N   0  0  0  0  0  0  0  0  0  0  0  0
    7.6370    2.2900  -58.1410 C   0  0  0  0  0  0  0  0  0  0  0  0
    6.4480    2.4730  -57.2030 C   0  0  0  0  0  0  0  0  0  0  0  0
    5.1970    2.4520  -57.6980 C   0  0  0  0  0  0  0  0  0  0  0  0
    5.1260    2.2570  -59.0850 C   0  0  0  0  0  0  0  0  0  0  0  0
    4.0010    2.1890  -59.8470 N   0  0  0  0  0  0  0  0  0  0  0  0
    4.4360    1.9870  -61.1390 C   0  0  0  0  0  0  0  0  0  0  0  0
    3.5550    1.8350  -62.4090 C   0  0  1  0  0  0  0  0  0  0  0  0
    3.6270    0.5480  -63.2030 C   0  0  0  0  0  0  0  0  0  0  0  0
    2.5310    0.7850  -62.2980 N   0  0  0  0  0  0  0  0  0  0  0  0
    5.7550    1.9230  -61.2290 N   0  0  0  0  0  0  0  0  0  0  0  0
    6.1760    2.0920  -59.9480 C   0  0  0  0  0  0  0  0  0  0  0  0
    7.4380    2.1070  -59.5080 N   0  0  0  0  0  0  0  0  0  0  0  0
   12.2170    3.3920  -58.3480 C   0  0  0  0  0  0  0  0  0  0  0  0
   12.9260    4.7490  -58.3550 C   0  0  0  0  0  0  0  0  0  0  0  0
   12.8970    6.9560  -60.4850 H   0  0  0  0  0  0  0  0  0  0  0  0
   11.4247    6.2806  -58.3411 H   0  0  0  0  0  0  0  0  0  0  0  0
   10.7806    6.1183  -60.7103 H   0  0  0  0  0  0  0  0  0  0  0  0
   12.0176    4.8057  -60.9244 H   0  0  0  0  0  0  0  0  0  0  0  0
    9.3343    4.7371  -59.6218 H   0  0  0  0  0  0  0  0  0  0  0  0
   10.2668    3.4686  -60.5512 H   0  0  0  0  0  0  0  0  0  0  0  0
   10.3451    4.1585  -57.6195 H   0  0  0  0  0  0  0  0  0  0  0  0
    9.7567    1.7791  -59.3238 H   0  0  0  0  0  0  0  0  0  0  0  0
   10.6794    1.4525  -57.8237 H   0  0  0  0  0  0  0  0  0  0  0  0
    6.6128    2.6216  -56.1256 H   0  0  0  0  0  0  0  0  0  0  0  0
    4.3045    2.5773  -57.0674 H   0  0  0  0  0  0  0  0  0  0  0  0
    3.0450    2.2660  -59.5190 H   0  0  0  0  0  0  0  0  0  0  0  0
    3.6141    2.9002  -62.6769 H   0  0  0  0  0  0  0  0  0  0  0  0
    3.4569    0.5608  -64.2897 H   0  0  0  0  0  0  0  0  0  0  0  0
    4.3746   -0.2488  -63.3308 H   0  0  0  0  0  0  0  0  0  0  0  0
    1.6160    1.0660  -62.6540 H   0  0  0  0  0  0  0  0  0  0  0  0
    2.5800    0.3640  -61.3540 H   0  0  0  0  0  0  0  0  0  0  0  0
    8.2310    1.9800  -60.1160 H   0  0  0  0  0  0  0  0  0  0  0  0
   12.4599    2.8704  -57.4105 H   0  0  0  0  0  0  0  0  0  0  0  0
   12.5652    2.8248  -59.2239 H   0  0  0  0  0  0  0  0  0  0  0  0
   13.0956    5.0587  -57.3132 H   0  0  0  0  0  0  0  0  0  0  0  0
   13.8669    4.6199  -58.9100 H   0  0  0  0  0  0  0  0  0  0  0  0
  1  2  1  0
  2  3  1  0
  3  4  1  0
  4  5  1  0
  5  6  1  0
  6  7  1  0
  7  8  2  0
  8  9  1  0
  9 10  2  0
 10 11  1  0
 11 12  1  0
 12 13  1  0
 13 14  1  0
 14 15  1  0
 15 16  1  0
 13 17  2  0
 17 18  1  0
 18 19  1  0
  5 20  1  0
 20 21  1  0
 21  2  1  0
 19  8  1  0
 18 11  2  0
 16 14  1  0
  1 22  1  0
  2 23  1  1
  3 24  1  0
  3 25  1  0
  4 26  1  0
  4 27  1  0
  5 28  1  1
  6 29  1  0
  6 30  1  0
  9 31  1  0
 10 32  1  0
 12 33  1  0
 14 34  1  6
 15 35  1  0
 15 36  1  0
 16 37  1  0
 16 38  1  0
 19 39  1  0
 20 40  1  0
 20 41  1  0
 21 42  1  0
 21 43  1  0
M  CHG  1  16   1
M  END
>  <meeko>  (170) 
{"is_sidechain": false}

$$$$

     RDKit          3D

 41 42  0  0  0  0  0  0  0  0999 V2000
    4.5480    2.0290  -62.6390 C   0  0  0  0  0  0  0  0  0  0  0  0
    4.5510    1.2170  -61.4670 O   0  0  0  0  0  0  0  0  0  0  0  0
    4.6910    1.9170  -60.3160 C   0  0  0  0  0  0  0  0  0  0  0  0
    3.7800    2.2920  -59.5940 O   0  0  0  0  0  0  0  0  0  0  0  0
    6.0160    2.1540  -60.0970 N   0  0  0  0  0  0  0  0  0  0  0  0
    6.4590    3.1180  -59.1010 C   0  0  1  0  0  0  0  0  0  0  0  0
    6.9130    2.3890  -57.8300 C   0  0  0  0  0  0  0  0  0  0  0  0
    7.4080    3.3740  -56.7760 C   0  0  0  0  0  0  0  0  0  0  0  0
    8.4970    4.2970  -57.3200 C   0  0  2  0  0  0  0  0  0  0  0  0
    8.8120    5.2800  -56.3390 O   0  0  0  0  0  0  0  0  0  0  0  0
    8.0470    5.0140  -58.5920 C   0  0  0  0  0  0  0  0  0  0  0  0
    7.5780    4.0280  -59.6640 C   0  0  1  0  0  0  0  0  0  0  0  0
    8.6870    3.1940  -60.0540 O   0  0  0  0  0  0  0  0  0  0  0  0
    9.6180    3.8570  -60.9120 C   0  0  0  0  0  0  0  0  0  0  0  0
   10.8480    4.2530  -60.1360 C   0  0  0  0  0  0  0  0  0  0  0  0
   11.3010    5.5800  -60.1620 C   0  0  0  0  0  0  0  0  0  0  0  0
   12.4400    5.9550  -59.4500 C   0  0  0  0  0  0  0  0  0  0  0  0
   13.1390    5.0070  -58.7050 C   0  0  0  0  0  0  0  0  0  0  0  0
   12.6950    3.6870  -58.6660 C   0  0  0  0  0  0  0  0  0  0  0  0
   11.5540    3.3100  -59.3770 C   0  0  0  0  0  0  0  0  0  0  0  0
    4.5441    3.0903  -62.3498 H   0  0  0  0  0  0  0  0  0  0  0  0
    5.4469    1.8149  -63.2357 H   0  0  0  0  0  0  0  0  0  0  0  0
    3.6507    1.8083  -63.2357 H   0  0  0  0  0  0  0  0  0  0  0  0
    6.5830    2.0320  -60.9270 H   0  0  0  0  0  0  0  0  0  0  0  0
    5.6122    3.7700  -58.8408 H   0  0  0  0  0  0  0  0  0  0  0  0
    6.0650    1.8209  -57.4200 H   0  0  0  0  0  0  0  0  0  0  0  0
    7.7413    1.7144  -58.0925 H   0  0  0  0  0  0  0  0  0  0  0  0
    6.5599    3.9870  -56.4371 H   0  0  0  0  0  0  0  0  0  0  0  0
    7.8380    2.7946  -55.9457 H   0  0  0  0  0  0  0  0  0  0  0  0
    9.3743    3.6772  -57.5571 H   0  0  0  0  0  0  0  0  0  0  0  0
    9.7680    5.4560  -56.3960 H   0  0  0  0  0  0  0  0  0  0  0  0
    7.2169    5.6919  -58.3440 H   0  0  0  0  0  0  0  0  0  0  0  0
    8.9064    5.5716  -58.9926 H   0  0  0  0  0  0  0  0  0  0  0  0
    7.1946    4.5946  -60.5254 H   0  0  0  0  0  0  0  0  0  0  0  0
    9.9061    3.1791  -61.7289 H   0  0  0  0  0  0  0  0  0  0  0  0
    9.1462    4.7612  -61.3240 H   0  0  0  0  0  0  0  0  0  0  0  0
   10.7531    6.3317  -60.7492 H   0  0  0  0  0  0  0  0  0  0  0  0
   12.7866    6.9986  -59.4764 H   0  0  0  0  0  0  0  0  0  0  0  0
   14.0409    5.3008  -58.1480 H   0  0  0  0  0  0  0  0  0  0  0  0
   13.2444    2.9403  -58.0739 H   0  0  0  0  0  0  0  0  0  0  0  0
   11.2073    2.2667  -59.3411 H   0  0  0  0  0  0  0  0  0  0  0  0
  1  2  1  0
  2  3  1  0
  3  4  2  0
  3  5  1  0
  5  6  1  0
  6  7  1  0
  7  8  1  0
  8  9  1  0
  9 10  1  0
  9 11  1  0
 11 12  1  0
 12 13  1  0
 13 14  1  0
 14 15  1  0
 15 16  2  0
 16 17  1  0
 17 18  2  0
 18 19  1  0
 19 20  2  0
 12  6  1  0
 20 15  1  0
  1 21  1  0
  1 22  1  0
  1 23  1  0
  5 24  1  0
  6 25  1  1
  7 26  1  0
  7 27  1  0
  8 28  1  0
  8 29  1  0
  9 30  1  6
 10 31  1  0
 11 32  1  0
 11 33  1  0
 12 34  1  6
 14 35  1  0
 14 36  1  0
 16 37  1  0
 17 38  1  0
 18 39  1  0
 19 40  1  0
 20 41  1  0
M  END
>  <meeko>  (171) 
{"is_sidechain": false}

$$$$

     RDKit          3D

 40 42  0  0  0  0  0  0  0  0999 V2000
    2.9840    1.7170  -61.1820 C   0  0  0  0  0  0  0  0  0  0  0  0
    4.4160    1.9410  -60.8200 C   0  0  0  0  0  0  0  0  0  0  0  0
    4.8640    1.8940  -59.4180 C   0  0  0  0  0  0  0  0  0  0  0  0
    6.1640    2.1490  -59.5530 C   0  0  0  0  0  0  0  0  0  0  0  0
    7.1890    2.2600  -58.6500 N   0  0  0  0  0  0  0  0  0  0  0  0
    8.5060    2.4910  -59.0230 C   0  0  0  0  0  0  0  0  0  0  0  0
    9.4600    2.5520  -58.0290 N   0  0  0  0  0  0  0  0  0  0  0  0
   10.8930    2.7520  -58.1890 C   0  0  0  0  0  0  0  0  0  0  0  0
   11.3450    4.1320  -57.6690 C   0  0  2  0  0  0  0  0  0  0  0  0
   10.6430    5.2660  -58.4370 C   0  0  0  0  0  0  0  0  0  0  0  0
   11.1650    5.4320  -59.8670 C   0  0  0  0  0  0  0  0  0  0  0  0
   12.6840    5.6080  -59.9070 C   0  0  1  0  0  0  0  0  0  0  0  0
   13.0370    6.8600  -59.3230 O   0  0  0  0  0  0  0  0  0  0  0  0
   13.4060    4.4970  -59.1460 C   0  0  0  0  0  0  0  0  0  0  0  0
   12.8700    4.3290  -57.7220 C   0  0  0  0  0  0  0  0  0  0  0  0
    8.7830    2.6380  -60.3440 C   0  0  0  0  0  0  0  0  0  0  0  0
    7.7310    2.5610  -61.3550 C   0  0  0  0  0  0  0  0  0  0  0  0
    6.4750    2.3230  -60.9590 C   0  0  0  0  0  0  0  0  0  0  0  0
    5.3390    2.1880  -61.7090 N   0  0  0  0  0  0  0  0  0  0  0  0
    2.3843    1.6232  -60.2647 H   0  0  0  0  0  0  0  0  0  0  0  0
    2.6179    2.5688  -61.7739 H   0  0  0  0  0  0  0  0  0  0  0  0
    2.8955    0.7941  -61.7739 H   0  0  0  0  0  0  0  0  0  0  0  0
    4.2816    1.7004  -58.5051 H   0  0  0  0  0  0  0  0  0  0  0  0
    7.0100    2.0300  -57.6850 H   0  0  0  0  0  0  0  0  0  0  0  0
    9.0880    2.9280  -57.1640 H   0  0  0  0  0  0  0  0  0  0  0  0
   11.4256    1.9694  -57.6287 H   0  0  0  0  0  0  0  0  0  0  0  0
   11.1256    2.7005  -59.2629 H   0  0  0  0  0  0  0  0  0  0  0  0
   11.0506    4.1683  -56.6098 H   0  0  0  0  0  0  0  0  0  0  0  0
    9.5661    5.0460  -58.4802 H   0  0  0  0  0  0  0  0  0  0  0  0
   10.8490    6.2038  -57.9003 H   0  0  0  0  0  0  0  0  0  0  0  0
   10.8958    4.5383  -60.4491 H   0  0  0  0  0  0  0  0  0  0  0  0
   10.7073    6.3373  -60.2923 H   0  0  0  0  0  0  0  0  0  0  0  0
   12.9924    5.5674  -60.9621 H   0  0  0  0  0  0  0  0  0  0  0  0
   13.8000    7.2100  -59.8120 H   0  0  0  0  0  0  0  0  0  0  0  0
   13.2712    3.5501  -59.6893 H   0  0  0  0  0  0  0  0  0  0  0  0
   14.4691    4.7709  -59.0766 H   0  0  0  0  0  0  0  0  0  0  0  0
   13.3522    3.4507  -57.2681 H   0  0  0  0  0  0  0  0  0  0  0  0
   13.0998    5.2549  -57.1743 H   0  0  0  0  0  0  0  0  0  0  0  0
    9.8211    2.8188  -60.6597 H   0  0  0  0  0  0  0  0  0  0  0  0
    7.9668    2.6960  -62.4209 H   0  0  0  0  0  0  0  0  0  0  0  0
  1  2  1  0
  2  3  1  0
  3  4  2  0
  4  5  1  0
  5  6  1  0
  6  7  1  0
  7  8  1  0
  8  9  1  0
  9 10  1  0
 10 11  1  0
 11 12  1  0
 12 13  1  0
 12 14  1  0
 14 15  1  0
  6 16  2  0
 16 17  1  0
 17 18  2  0
 18 19  1  0
 19  2  2  0
 18  4  1  0
 15  9  1  0
  1 20  1  0
  1 21  1  0
  1 22  1  0
  3 23  1  0
  5 24  1  0
  7 25  1  0
  8 26  1  0
  8 27  1  0
  9 28  1  6
 10 29  1  0
 10 30  1  0
 11 31  1  0
 11 32  1  0
 12 33  1  1
 13 34  1  0
 14 35  1  0
 14 36  1  0
 15 37  1  0
 15 38  1  0
 16 39  1  0
 17 40  1  0
M  END
>  <meeko>  (172) 
{"is_sidechain": false}

$$$$

     RDKit          3D

 40 42  0  0  0  0  0  0  0  0999 V2000
    5.2050   -4.4550  -50.3210 C   0  0  0  0  0  0  0  0  0  0  0  0
    6.3040   -3.8720  -51.1280 C   0  0  0  0  0  0  0  0  0  0  0  0
    6.3010   -3.3190  -52.3940 C   0  0  0  0  0  0  0  0  0  0  0  0
    7.6230   -2.9100  -52.6910 C   0  0  0  0  0  0  0  0  0  0  0  0
    8.1030   -2.3190  -53.8090 N   0  0  0  0  0  0  0  0  0  0  0  0
    9.4200   -2.0510  -53.8060 C   0  0  0  0  0  0  0  0  0  0  0  0
    9.9040   -1.4320  -54.9690 N   0  0  0  0  0  0  0  0  0  0  0  0
   11.2460   -1.8730  -55.3440 C   0  0  0  0  0  0  0  0  0  0  0  0
   11.1560   -3.1470  -56.2080 C   0  0  2  0  0  0  0  0  0  0  0  0
   11.6790   -4.3580  -55.4190 C   0  0  0  0  0  0  0  0  0  0  0  0
   11.6470   -5.6350  -56.2530 C   0  0  0  0  0  0  0  0  0  0  0  0
   12.4100   -5.4690  -57.5650 C   0  0  1  0  0  0  0  0  0  0  0  0
   12.2810   -6.6520  -58.3440 O   0  0  0  0  0  0  0  0  0  0  0  0
   11.8990   -4.2690  -58.3600 C   0  0  0  0  0  0  0  0  0  0  0  0
   11.9290   -2.9900  -57.5300 C   0  0  0  0  0  0  0  0  0  0  0  0
   10.2690   -2.3280  -52.7350 C   0  0  0  0  0  0  0  0  0  0  0  0
    9.7770   -2.9370  -51.5810 C   0  0  0  0  0  0  0  0  0  0  0  0
    8.4150   -3.2250  -51.5920 C   0  0  0  0  0  0  0  0  0  0  0  0
    7.5940   -3.8050  -50.6550 N   0  0  0  0  0  0  0  0  0  0  0  0
    5.4318   -4.3347  -49.2514 H   0  0  0  0  0  0  0  0  0  0  0  0
    4.2631   -3.9380  -50.5565 H   0  0  0  0  0  0  0  0  0  0  0  0
    5.1049   -5.5248  -50.5565 H   0  0  0  0  0  0  0  0  0  0  0  0
    5.4269   -3.2151  -53.0537 H   0  0  0  0  0  0  0  0  0  0  0  0
    9.2210   -1.7180  -55.6740 H   0  0  0  0  0  0  0  0  0  0  0  0
   11.7446   -1.0776  -55.9174 H   0  0  0  0  0  0  0  0  0  0  0  0
   11.8234   -2.0921  -54.4337 H   0  0  0  0  0  0  0  0  0  0  0  0
   10.0981   -3.3118  -56.4604 H   0  0  0  0  0  0  0  0  0  0  0  0
   12.7161   -4.1606  -55.1100 H   0  0  0  0  0  0  0  0  0  0  0  0
   11.0268   -4.5041  -54.5453 H   0  0  0  0  0  0  0  0  0  0  0  0
   12.1051   -6.4507  -55.6744 H   0  0  0  0  0  0  0  0  0  0  0  0
   10.5979   -5.8636  -56.4918 H   0  0  0  0  0  0  0  0  0  0  0  0
   13.4690   -5.2917  -57.3259 H   0  0  0  0  0  0  0  0  0  0  0  0
   12.9980   -6.6580  -59.0010 H   0  0  0  0  0  0  0  0  0  0  0  0
   12.5338   -4.1329  -59.2480 H   0  0  0  0  0  0  0  0  0  0  0  0
   10.8561   -4.4669  -58.6483 H   0  0  0  0  0  0  0  0  0  0  0  0
   12.9753   -2.7377  -57.3027 H   0  0  0  0  0  0  0  0  0  0  0  0
   11.4475   -2.1922  -58.1145 H   0  0  0  0  0  0  0  0  0  0  0  0
   11.3348   -2.0641  -52.8009 H   0  0  0  0  0  0  0  0  0  0  0  0
   10.4209   -3.1736  -50.7211 H   0  0  0  0  0  0  0  0  0  0  0  0
    7.9000   -4.1310  -49.7490 H   0  0  0  0  0  0  0  0  0  0  0  0
  1  2  1  0
  2  3  2  0
  3  4  1  0
  4  5  1  0
  5  6  2  0
  6  7  1  0
  7  8  1  0
  8  9  1  0
  9 10  1  0
 10 11  1  0
 11 12  1  0
 12 13  1  0
 12 14  1  0
 14 15  1  0
  6 16  1  0
 16 17  2  0
 17 18  1  0
 18 19  1  0
 19  2  1  0
 18  4  2  0
 15  9  1  0
  1 20  1  0
  1 21  1  0
  1 22  1  0
  3 23  1  0
  7 24  1  0
  8 25  1  0
  8 26  1  0
  9 27  1  1
 10 28  1  0
 10 29  1  0
 11 30  1  0
 11 31  1  0
 12 32  1  6
 13 33  1  0
 14 34  1  0
 14 35  1  0
 15 36  1  0
 15 37  1  0
 16 38  1  0
 17 39  1  0
 19 40  1  0
M  END
>  <meeko>  (173) 
{"is_sidechain": false}

$$$$

     RDKit          3D

 40 42  0  0  0  0  0  0  0  0999 V2000
    2.6260    1.8480  -63.2230 C   0  0  0  0  0  0  0  0  0  0  0  0
    3.8430    1.9830  -62.3850 C   0  0  0  0  0  0  0  0  0  0  0  0
    5.1390    2.3450  -62.7250 C   0  0  0  0  0  0  0  0  0  0  0  0
    5.8900    2.3100  -61.5410 C   0  0  0  0  0  0  0  0  0  0  0  0
    7.1860    2.5690  -61.3030 N   0  0  0  0  0  0  0  0  0  0  0  0
    7.6570    2.4550  -60.0010 C   0  0  0  0  0  0  0  0  0  0  0  0
    8.9140    2.7290  -59.8430 N   0  0  0  0  0  0  0  0  0  0  0  0
    9.5730    2.6810  -58.5430 C   0  0  0  0  0  0  0  0  0  0  0  0
    9.9900    4.0930  -58.0850 C   0  0  2  0  0  0  0  0  0  0  0  0
   10.1540    5.0370  -59.2960 C   0  0  0  0  0  0  0  0  0  0  0  0
   11.6070    5.3710  -59.6430 C   0  0  0  0  0  0  0  0  0  0  0  0
   12.5330    4.1800  -59.4330 C   0  0  1  0  0  0  0  0  0  0  0  0
   13.8660    4.5360  -59.7880 O   0  0  0  0  0  0  0  0  0  0  0  0
   12.5220    3.6930  -57.9820 C   0  0  0  0  0  0  0  0  0  0  0  0
   11.2580    4.0860  -57.2160 C   0  0  0  0  0  0  0  0  0  0  0  0
    6.7130    2.0300  -58.8790 C   0  0  0  0  0  0  0  0  0  0  0  0
    5.4220    1.7760  -59.1660 C   0  0  0  0  0  0  0  0  0  0  0  0
    5.0630    1.9350  -60.5170 C   0  0  0  0  0  0  0  0  0  0  0  0
    3.8140    1.7340  -61.0230 N   0  0  0  0  0  0  0  0  0  0  0  0
    1.7431    1.7501  -62.5742 H   0  0  0  0  0  0  0  0  0  0  0  0
    2.5173    2.7396  -63.8580 H   0  0  0  0  0  0  0  0  0  0  0  0
    2.7154    0.9543  -63.8580 H   0  0  0  0  0  0  0  0  0  0  0  0
    5.5058    2.6082  -63.7281 H   0  0  0  0  0  0  0  0  0  0  0  0
    7.8600    2.8530  -62.0000 H   0  0  0  0  0  0  0  0  0  0  0  0
    8.8803    2.2525  -57.8037 H   0  0  0  0  0  0  0  0  0  0  0  0
   10.4759    2.0586  -58.6295 H   0  0  0  0  0  0  0  0  0  0  0  0
    9.1766    4.4735  -57.4497 H   0  0  0  0  0  0  0  0  0  0  0  0
    9.6924    4.5572  -60.1716 H   0  0  0  0  0  0  0  0  0  0  0  0
    9.6695    5.9861  -59.0231 H   0  0  0  0  0  0  0  0  0  0  0  0
   11.6583    5.6789  -60.6978 H   0  0  0  0  0  0  0  0  0  0  0  0
   11.9380    6.1801  -58.9753 H   0  0  0  0  0  0  0  0  0  0  0  0
   12.1667    3.3645  -60.0740 H   0  0  0  0  0  0  0  0  0  0  0  0
   13.8920    4.6520  -60.7540 H   0  0  0  0  0  0  0  0  0  0  0  0
   12.6019    2.5959  -57.9824 H   0  0  0  0  0  0  0  0  0  0  0  0
   13.3710    4.1730  -57.4732 H   0  0  0  0  0  0  0  0  0  0  0  0
   11.1125    3.3697  -56.3940 H   0  0  0  0  0  0  0  0  0  0  0  0
   11.4066    5.1138  -56.8533 H   0  0  0  0  0  0  0  0  0  0  0  0
    7.0832    1.9323  -57.8478 H   0  0  0  0  0  0  0  0  0  0  0  0
    4.6985    1.4658  -58.3976 H   0  0  0  0  0  0  0  0  0  0  0  0
    2.9970    1.4500  -60.4990 H   0  0  0  0  0  0  0  0  0  0  0  0
  1  2  1  0
  2  3  2  0
  3  4  1  0
  4  5  1  0
  5  6  1  0
  6  7  2  0
  7  8  1  0
  8  9  1  0
  9 10  1  0
 10 11  1  0
 11 12  1  0
 12 13  1  0
 12 14  1  0
 14 15  1  0
  6 16  1  0
 16 17  2  0
 17 18  1  0
 18 19  1  0
 19  2  1  0
 18  4  2  0
 15  9  1  0
  1 20  1  0
  1 21  1  0
  1 22  1  0
  3 23  1  0
  5 24  1  0
  8 25  1  0
  8 26  1  0
  9 27  1  6
 10 28  1  0
 10 29  1  0
 11 30  1  0
 11 31  1  0
 12 32  1  1
 13 33  1  0
 14 34  1  0
 14 35  1  0
 15 36  1  0
 15 37  1  0
 16 38  1  0
 17 39  1  0
 19 40  1  0
M  END
>  <meeko>  (174) 
{"is_sidechain": false}

$$$$

     RDKit          3D

 40 42  0  0  0  0  0  0  0  0999 V2000
    2.7210    1.1830  -63.0980 C   0  0  0  0  0  0  0  0  0  0  0  0
    3.9340    1.5570  -62.3280 C   0  0  0  0  0  0  0  0  0  0  0  0
    5.0270    2.3340  -62.6850 C   0  0  0  0  0  0  0  0  0  0  0  0
    5.8830    2.3590  -61.5730 C   0  0  0  0  0  0  0  0  0  0  0  0
    7.0710    2.9630  -61.3830 N   0  0  0  0  0  0  0  0  0  0  0  0
    7.6900    2.8010  -60.1450 C   0  0  0  0  0  0  0  0  0  0  0  0
    8.8310    3.3110  -59.7970 N   0  0  0  0  0  0  0  0  0  0  0  0
    9.5610    4.1310  -60.7600 C   0  0  0  0  0  0  0  0  0  0  0  0
   11.0010    4.3360  -60.2630 C   0  0  2  0  0  0  0  0  0  0  0  0
   11.3070    3.3630  -59.1070 C   0  0  0  0  0  0  0  0  0  0  0  0
   12.3550    3.8800  -58.1150 C   0  0  0  0  0  0  0  0  0  0  0  0
   13.3840    4.7940  -58.7710 C   0  0  1  0  0  0  0  0  0  0  0  0
   14.1090    4.0620  -59.7580 O   0  0  0  0  0  0  0  0  0  0  0  0
   12.7290    6.0100  -59.4340 C   0  0  0  0  0  0  0  0  0  0  0  0
   11.2660    5.7850  -59.8350 C   0  0  0  0  0  0  0  0  0  0  0  0
    7.0330    1.9670  -59.0560 C   0  0  0  0  0  0  0  0  0  0  0  0
    5.8440    1.3830  -59.2940 C   0  0  0  0  0  0  0  0  0  0  0  0
    5.3130    1.6140  -60.5760 C   0  0  0  0  0  0  0  0  0  0  0  0
    4.1260    1.1220  -61.0280 N   0  0  0  0  0  0  0  0  0  0  0  0
    1.9074    0.9322  -62.4015 H   0  0  0  0  0  0  0  0  0  0  0  0
    2.4138    2.0281  -63.7315 H   0  0  0  0  0  0  0  0  0  0  0  0
    2.9431    0.3116  -63.7315 H   0  0  0  0  0  0  0  0  0  0  0  0
    5.1907    2.8332  -63.6515 H   0  0  0  0  0  0  0  0  0  0  0  0
    7.5190    3.5240  -62.0910 H   0  0  0  0  0  0  0  0  0  0  0  0
    9.5777    3.6243  -61.7362 H   0  0  0  0  0  0  0  0  0  0  0  0
    9.0645    5.1070  -60.8646 H   0  0  0  0  0  0  0  0  0  0  0  0
   11.6758    4.1211  -61.1047 H   0  0  0  0  0  0  0  0  0  0  0  0
   10.3731    3.1757  -58.5567 H   0  0  0  0  0  0  0  0  0  0  0  0
   11.7225    2.4513  -59.5611 H   0  0  0  0  0  0  0  0  0  0  0  0
   11.8412    4.4412  -57.3206 H   0  0  0  0  0  0  0  0  0  0  0  0
   12.8923    3.0079  -57.7139 H   0  0  0  0  0  0  0  0  0  0  0  0
   14.0594    5.1564  -57.9820 H   0  0  0  0  0  0  0  0  0  0  0  0
   13.5220    3.9380  -60.5240 H   0  0  0  0  0  0  0  0  0  0  0  0
   12.7692    6.8529  -58.7284 H   0  0  0  0  0  0  0  0  0  0  0  0
   13.2876    6.2085  -60.3606 H   0  0  0  0  0  0  0  0  0  0  0  0
   10.6220    6.0245  -58.9760 H   0  0  0  0  0  0  0  0  0  0  0  0
   11.0460    6.4372  -60.6931 H   0  0  0  0  0  0  0  0  0  0  0  0
    7.5261    1.8420  -58.0807 H   0  0  0  0  0  0  0  0  0  0  0  0
    5.3257    0.7703  -58.5416 H   0  0  0  0  0  0  0  0  0  0  0  0
    3.4860    0.5370  -60.5070 H   0  0  0  0  0  0  0  0  0  0  0  0
  1  2  1  0
  2  3  2  0
  3  4  1  0
  4  5  1  0
  5  6  1  0
  6  7  2  0
  7  8  1  0
  8  9  1  0
  9 10  1  0
 10 11  1  0
 11 12  1  0
 12 13  1  0
 12 14  1  0
 14 15  1  0
  6 16  1  0
 16 17  2  0
 17 18  1  0
 18 19  1  0
 19  2  1  0
 18  4  2  0
 15  9  1  0
  1 20  1  0
  1 21  1  0
  1 22  1  0
  3 23  1  0
  5 24  1  0
  8 25  1  0
  8 26  1  0
  9 27  1  1
 10 28  1  0
 10 29  1  0
 11 30  1  0
 11 31  1  0
 12 32  1  6
 13 33  1  0
 14 34  1  0
 14 35  1  0
 15 36  1  0
 15 37  1  0
 16 38  1  0
 17 39  1  0
 19 40  1  0
M  END
>  <meeko>  (175) 
{"is_sidechain": false}

$$$$

     RDKit          3D

 30 31  0  0  0  0  0  0  0  0999 V2000
    3.2690    0.4020  -63.2190 C   0  0  0  0  0  0  0  0  0  0  0  0
    3.1840    1.1770  -61.9110 C   0  0  0  0  0  0  0  0  0  0  0  0
    4.3400    0.8590  -60.9640 C   0  0  0  0  0  0  0  0  0  0  0  0
    5.4450    1.9080  -60.9680 C   0  0  0  0  0  0  0  0  0  0  0  0
    5.7370    2.5480  -61.9720 O   0  0  0  0  0  0  0  0  0  0  0  0
    6.0240    2.0330  -59.7140 N   0  0  0  0  0  0  0  0  0  0  0  0
    7.0410    2.8630  -59.2990 C   0  0  0  0  0  0  0  0  0  0  0  0
    7.1070    3.3850  -58.0480 C   0  0  0  0  0  0  0  0  0  0  0  0
    8.2110    4.2610  -57.6560 C   0  0  0  0  0  0  0  0  0  0  0  0
    9.1620    4.5440  -58.5520 C   0  0  0  0  0  0  0  0  0  0  0  0
   10.2770    5.3240  -58.4180 N   0  0  0  0  0  0  0  0  0  0  0  0
   10.8610    5.2580  -59.5860 C   0  0  0  0  0  0  0  0  0  0  0  0
   12.0180    5.9270  -59.8410 N   0  0  0  0  0  0  0  0  0  0  0  0
   10.1590    4.4230  -60.5820 C   0  0  0  0  0  0  0  0  0  0  0  0
    9.1030    3.9970  -59.8910 C   0  0  0  0  0  0  0  0  0  0  0  0
    8.0460    3.1820  -60.2090 N   0  0  0  0  0  0  0  0  0  0  0  0
    3.3866   -0.6701  -63.0030 H   0  0  0  0  0  0  0  0  0  0  0  0
    2.3481    0.5602  -63.7995 H   0  0  0  0  0  0  0  0  0  0  0  0
    4.1337    0.7561  -63.7995 H   0  0  0  0  0  0  0  0  0  0  0  0
    3.1999    2.2533  -62.1375 H   0  0  0  0  0  0  0  0  0  0  0  0
    2.2509    0.8820  -61.4088 H   0  0  0  0  0  0  0  0  0  0  0  0
    3.9398    0.7808  -59.9424 H   0  0  0  0  0  0  0  0  0  0  0  0
    4.7904   -0.0819  -61.3131 H   0  0  0  0  0  0  0  0  0  0  0  0
    5.6520    1.4330  -58.9920 H   0  0  0  0  0  0  0  0  0  0  0  0
    6.3192    3.1460  -57.3185 H   0  0  0  0  0  0  0  0  0  0  0  0
    8.2580    4.6802  -56.6401 H   0  0  0  0  0  0  0  0  0  0  0  0
   12.2150    6.6220  -59.1280 H   0  0  0  0  0  0  0  0  0  0  0  0
   12.1370    6.2790  -60.7820 H   0  0  0  0  0  0  0  0  0  0  0  0
   10.4365    4.2085  -61.6246 H   0  0  0  0  0  0  0  0  0  0  0  0
    8.0140    2.7840  -61.1340 H   0  0  0  0  0  0  0  0  0  0  0  0
  1  2  1  0
  2  3  1  0
  3  4  1  0
  4  5  2  0
  4  6  1  0
  6  7  1  0
  7  8  2  0
  8  9  1  0
  9 10  2  0
 10 11  1  0
 11 12  2  0
 12 13  1  0
 12 14  1  0
 14 15  2  0
 15 16  1  0
 16  7  1  0
 15 10  1  0
  1 17  1  0
  1 18  1  0
  1 19  1  0
  2 20  1  0
  2 21  1  0
  3 22  1  0
  3 23  1  0
  6 24  1  0
  8 25  1  0
  9 26  1  0
 13 27  1  0
 13 28  1  0
 14 29  1  0
 16 30  1  0
M  END
>  <meeko>  (176) 
{"is_sidechain": false}

$$$$

     RDKit          3D

 30 31  0  0  0  0  0  0  0  0999 V2000
   13.2830    4.5530  -59.1030 C   0  0  0  0  0  0  0  0  0  0  0  0
   12.0370    3.7590  -59.4590 C   0  0  0  0  0  0  0  0  0  0  0  0
   10.9400    4.6620  -60.0140 C   0  0  0  0  0  0  0  0  0  0  0  0
    9.7990    3.8520  -60.5960 C   0  0  0  0  0  0  0  0  0  0  0  0
    9.8610    3.3640  -61.7230 O   0  0  0  0  0  0  0  0  0  0  0  0
    8.7210    3.7240  -59.7370 N   0  0  0  0  0  0  0  0  0  0  0  0
    7.5690    3.0290  -60.0220 C   0  0  0  0  0  0  0  0  0  0  0  0
    7.0000    2.2870  -59.0400 C   0  0  0  0  0  0  0  0  0  0  0  0
    5.7740    1.5310  -59.2940 C   0  0  0  0  0  0  0  0  0  0  0  0
    5.2140    1.5760  -60.5110 C   0  0  0  0  0  0  0  0  0  0  0  0
    4.1110    1.0100  -61.0600 N   0  0  0  0  0  0  0  0  0  0  0  0
    3.9900    1.3920  -62.3630 C   0  0  0  0  0  0  0  0  0  0  0  0
    3.0500    1.0250  -63.1570 N   0  0  0  0  0  0  0  0  0  0  0  0
    5.1190    2.2970  -62.7180 C   0  0  0  0  0  0  0  0  0  0  0  0
    5.8300    2.3820  -61.5800 C   0  0  0  0  0  0  0  0  0  0  0  0
    6.9750    3.0630  -61.2710 N   0  0  0  0  0  0  0  0  0  0  0  0
   13.3787    4.6140  -58.0089 H   0  0  0  0  0  0  0  0  0  0  0  0
   14.1687    4.0524  -59.5212 H   0  0  0  0  0  0  0  0  0  0  0  0
   13.2034    5.5673  -59.5212 H   0  0  0  0  0  0  0  0  0  0  0  0
   12.2974    3.0054  -60.2168 H   0  0  0  0  0  0  0  0  0  0  0  0
   11.6597    3.2790  -58.5440 H   0  0  0  0  0  0  0  0  0  0  0  0
   10.5521    5.2945  -59.2019 H   0  0  0  0  0  0  0  0  0  0  0  0
   11.3717    5.2782  -60.8164 H   0  0  0  0  0  0  0  0  0  0  0  0
    8.7780    4.1760  -58.8350 H   0  0  0  0  0  0  0  0  0  0  0  0
    7.4646    2.2534  -58.0435 H   0  0  0  0  0  0  0  0  0  0  0  0
    5.3158    0.9311  -58.4939 H   0  0  0  0  0  0  0  0  0  0  0  0
    3.4710    0.3990  -60.5830 H   0  0  0  0  0  0  0  0  0  0  0  0
    3.1850    1.4470  -64.0810 H   0  0  0  0  0  0  0  0  0  0  0  0
    5.3230    2.7818  -63.6841 H   0  0  0  0  0  0  0  0  0  0  0  0
    7.4390    3.6360  -61.9740 H   0  0  0  0  0  0  0  0  0  0  0  0
  1  2  1  0
  2  3  1  0
  3  4  1  0
  4  5  2  0
  4  6  1  0
  6  7  1  0
  7  8  2  0
  8  9  1  0
  9 10  2  0
 10 11  1  0
 11 12  1  0
 12 13  2  3
 12 14  1  0
 14 15  2  0
 15 16  1  0
 16  7  1  0
 15 10  1  0
  1 17  1  0
  1 18  1  0
  1 19  1  0
  2 20  1  0
  2 21  1  0
  3 22  1  0
  3 23  1  0
  6 24  1  0
  8 25  1  0
  9 26  1  0
 11 27  1  0
 13 28  1  0
 14 29  1  0
 16 30  1  0
M  END
>  <meeko>  (177) 
{"is_sidechain": false}

$$$$

     RDKit          3D

 30 31  0  0  0  0  0  0  0  0999 V2000
    5.7500   -4.1390  -50.4360 C   0  0  0  0  0  0  0  0  0  0  0  0
    7.2700   -4.0520  -50.4510 C   0  0  0  0  0  0  0  0  0  0  0  0
    7.7730   -2.6180  -50.6090 C   0  0  0  0  0  0  0  0  0  0  0  0
    8.1000   -2.2340  -52.0460 C   0  0  0  0  0  0  0  0  0  0  0  0
    7.3630   -1.5230  -52.7200 O   0  0  0  0  0  0  0  0  0  0  0  0
    9.3050   -2.7640  -52.4460 N   0  0  0  0  0  0  0  0  0  0  0  0
    9.9530   -2.6410  -53.6790 C   0  0  0  0  0  0  0  0  0  0  0  0
   10.5410   -1.4620  -54.1240 C   0  0  0  0  0  0  0  0  0  0  0  0
   11.1690   -1.4190  -55.3710 C   0  0  0  0  0  0  0  0  0  0  0  0
   11.1550   -2.6060  -56.0930 C   0  0  0  0  0  0  0  0  0  0  0  0
   11.6600   -2.9350  -57.3290 N   0  0  0  0  0  0  0  0  0  0  0  0
   11.3940   -4.2490  -57.6110 C   0  0  0  0  0  0  0  0  0  0  0  0
   11.7940   -4.7990  -58.7700 N   0  0  0  0  0  0  0  0  0  0  0  0
   10.6980   -4.7790  -56.5490 C   0  0  0  0  0  0  0  0  0  0  0  0
   10.5470   -3.7500  -55.5880 C   0  0  0  0  0  0  0  0  0  0  0  0
    9.9380   -3.7940  -54.3800 N   0  0  0  0  0  0  0  0  0  0  0  0
    5.3942   -4.1594  -49.3953 H   0  0  0  0  0  0  0  0  0  0  0  0
    5.3275   -3.2636  -50.9509 H   0  0  0  0  0  0  0  0  0  0  0  0
    5.4302   -5.0569  -50.9509 H   0  0  0  0  0  0  0  0  0  0  0  0
    7.6559   -4.4588  -49.5046 H   0  0  0  0  0  0  0  0  0  0  0  0
    7.6290   -4.6291  -51.3159 H   0  0  0  0  0  0  0  0  0  0  0  0
    6.9954   -1.9351  -50.2363 H   0  0  0  0  0  0  0  0  0  0  0  0
    8.7098   -2.5432  -50.0373 H   0  0  0  0  0  0  0  0  0  0  0  0
    9.8390   -3.3270  -51.7970 H   0  0  0  0  0  0  0  0  0  0  0  0
   10.5115   -0.5616  -53.4928 H   0  0  0  0  0  0  0  0  0  0  0  0
   11.6438   -0.5047  -55.7564 H   0  0  0  0  0  0  0  0  0  0  0  0
   12.1440   -2.2990  -57.9440 H   0  0  0  0  0  0  0  0  0  0  0  0
   12.7740   -4.9310  -59.0050 H   0  0  0  0  0  0  0  0  0  0  0  0
   11.1820   -5.4500  -59.2580 H   0  0  0  0  0  0  0  0  0  0  0  0
   10.3274   -5.8111  -56.4625 H   0  0  0  0  0  0  0  0  0  0  0  0
  1  2  1  0
  2  3  1  0
  3  4  1  0
  4  5  2  0
  4  6  1  0
  6  7  1  0
  7  8  1  0
  8  9  2  0
  9 10  1  0
 10 11  1  0
 11 12  1  0
 12 13  1  0
 12 14  2  0
 14 15  1  0
 15 16  1  0
 16  7  2  0
 15 10  2  0
  1 17  1  0
  1 18  1  0
  1 19  1  0
  2 20  1  0
  2 21  1  0
  3 22  1  0
  3 23  1  0
  6 24  1  0
  8 25  1  0
  9 26  1  0
 11 27  1  0
 13 28  1  0
 13 29  1  0
 14 30  1  0
M  END
>  <meeko>  (178) 
{"is_sidechain": false}

$$$$

     RDKit          3D

 42 44  0  0  0  0  0  0  0  0999 V2000
    8.0010    5.8280  -58.9850 C   0  0  0  0  0  0  0  0  0  0  0  0
    8.9290    4.6760  -58.5930 C   0  0  1  0  0  0  0  0  0  0  0  0
    8.8340    3.6140  -59.5940 N   0  0  0  0  0  0  0  0  0  0  0  0
    7.6940    2.9180  -59.9480 C   0  0  0  0  0  0  0  0  0  0  0  0
    7.0990    2.0900  -59.0490 C   0  0  0  0  0  0  0  0  0  0  0  0
    5.8910    1.3410  -59.3880 C   0  0  0  0  0  0  0  0  0  0  0  0
    5.3590    1.4960  -60.6060 C   0  0  0  0  0  0  0  0  0  0  0  0
    4.2380    0.9260  -61.1420 N   0  0  0  0  0  0  0  0  0  0  0  0
    4.1640    1.4360  -62.3450 C   0  0  0  0  0  0  0  0  0  0  0  0
    3.1510    1.1080  -63.1940 N   0  0  0  0  0  0  0  0  0  0  0  0
    5.2420    2.3870  -62.6840 C   0  0  0  0  0  0  0  0  0  0  0  0
    5.9700    2.3860  -61.5700 C   0  0  0  0  0  0  0  0  0  0  0  0
    7.1170    3.0420  -61.2050 N   0  0  0  0  0  0  0  0  0  0  0  0
   10.4200    5.0790  -58.4210 C   0  0  2  0  0  0  0  0  0  0  0  0
   11.0580    5.4480  -59.7740 C   0  0  0  0  0  0  0  0  0  0  0  0
   12.5060    5.9160  -59.6100 C   0  0  0  0  0  0  0  0  0  0  0  0
   13.3610    4.8890  -58.8690 C   0  0  2  0  0  0  0  0  0  0  0  0
   13.5070    3.7200  -59.6730 O   0  0  0  0  0  0  0  0  0  0  0  0
   12.7280    4.4910  -57.5380 C   0  0  0  0  0  0  0  0  0  0  0  0
   11.2800    4.0210  -57.7030 C   0  0  0  0  0  0  0  0  0  0  0  0
    7.6120    6.3109  -58.0764 H   0  0  0  0  0  0  0  0  0  0  0  0
    8.5614    6.5640  -59.5802 H   0  0  0  0  0  0  0  0  0  0  0  0
    7.1625    5.4371  -59.5802 H   0  0  0  0  0  0  0  0  0  0  0  0
    8.5860    4.3356  -57.6048 H   0  0  0  0  0  0  0  0  0  0  0  0
    9.4650    3.7430  -60.3810 H   0  0  0  0  0  0  0  0  0  0  0  0
    7.5360    1.9815  -58.0454 H   0  0  0  0  0  0  0  0  0  0  0  0
    5.4279    0.6629  -58.6561 H   0  0  0  0  0  0  0  0  0  0  0  0
    2.3910    0.6430  -62.7080 H   0  0  0  0  0  0  0  0  0  0  0  0
    2.8370    1.8390  -63.8190 H   0  0  0  0  0  0  0  0  0  0  0  0
    5.4017    2.9499  -63.6154 H   0  0  0  0  0  0  0  0  0  0  0  0
    7.4960    3.7370  -61.8250 H   0  0  0  0  0  0  0  0  0  0  0  0
   10.4040    5.9631  -57.7666 H   0  0  0  0  0  0  0  0  0  0  0  0
   11.0413    4.5641  -60.4285 H   0  0  0  0  0  0  0  0  0  0  0  0
   10.4787    6.2745  -60.2115 H   0  0  0  0  0  0  0  0  0  0  0  0
   12.9392    6.0853  -60.6068 H   0  0  0  0  0  0  0  0  0  0  0  0
   12.4978    6.8419  -59.0162 H   0  0  0  0  0  0  0  0  0  0  0  0
   14.3408    5.3478  -58.6703 H   0  0  0  0  0  0  0  0  0  0  0  0
   13.1920    2.9640  -59.1490 H   0  0  0  0  0  0  0  0  0  0  0  0
   13.3173    3.6741  -57.0958 H   0  0  0  0  0  0  0  0  0  0  0  0
   12.7227    5.3785  -56.8881 H   0  0  0  0  0  0  0  0  0  0  0  0
   11.2708    3.0927  -58.2931 H   0  0  0  0  0  0  0  0  0  0  0  0
   10.8558    3.8536  -56.7020 H   0  0  0  0  0  0  0  0  0  0  0  0
  1  2  1  0
  2  3  1  0
  3  4  1  0
  4  5  2  0
  5  6  1  0
  6  7  2  0
  7  8  1  0
  8  9  2  0
  9 10  1  0
  9 11  1  0
 11 12  2  0
 12 13  1  0
  2 14  1  0
 14 15  1  0
 15 16  1  0
 16 17  1  0
 17 18  1  0
 17 19  1  0
 19 20  1  0
 13  4  1  0
 20 14  1  0
 12  7  1  0
  1 21  1  0
  1 22  1  0
  1 23  1  0
  2 24  1  1
  3 25  1  0
  5 26  1  0
  6 27  1  0
 10 28  1  0
 10 29  1  0
 11 30  1  0
 13 31  1  0
 14 32  1  6
 15 33  1  0
 15 34  1  0
 16 35  1  0
 16 36  1  0
 17 37  1  6
 18 38  1  0
 19 39  1  0
 19 40  1  0
 20 41  1  0
 20 42  1  0
M  END
>  <meeko>  (179) 
{"is_sidechain": false}

$$$$

     RDKit          3D

 42 44  0  0  0  0  0  0  0  0999 V2000
   10.4190    1.8290  -56.8930 C   0  0  0  0  0  0  0  0  0  0  0  0
    9.8430    2.3910  -58.1940 C   0  0  1  0  0  0  0  0  0  0  0  0
    8.6050    3.1150  -57.9080 N   0  0  0  0  0  0  0  0  0  0  0  0
    7.3420    2.8280  -58.3830 C   0  0  0  0  0  0  0  0  0  0  0  0
    6.2530    2.6400  -57.5940 C   0  0  0  0  0  0  0  0  0  0  0  0
    4.9420    2.3380  -58.1660 C   0  0  0  0  0  0  0  0  0  0  0  0
    4.8280    2.2290  -59.4940 C   0  0  0  0  0  0  0  0  0  0  0  0
    3.7280    1.9360  -60.2510 N   0  0  0  0  0  0  0  0  0  0  0  0
    4.1770    1.9270  -61.4790 C   0  0  0  0  0  0  0  0  0  0  0  0
    3.3580    1.6560  -62.5330 N   0  0  0  0  0  0  0  0  0  0  0  0
    5.6190    2.2180  -61.6160 C   0  0  0  0  0  0  0  0  0  0  0  0
    5.9820    2.4110  -60.3500 C   0  0  0  0  0  0  0  0  0  0  0  0
    7.1790    2.7230  -59.7590 N   0  0  0  0  0  0  0  0  0  0  0  0
   10.8510    3.3070  -58.9400 C   0  0  2  0  0  0  0  0  0  0  0  0
   12.2450    3.3860  -58.2900 C   0  0  0  0  0  0  0  0  0  0  0  0
   13.1850    4.2940  -59.0800 C   0  0  0  0  0  0  0  0  0  0  0  0
   12.5980    5.6890  -59.2730 C   0  0  1  0  0  0  0  0  0  0  0  0
   13.4800    6.4420  -60.0980 O   0  0  0  0  0  0  0  0  0  0  0  0
   11.2180    5.6220  -59.9230 C   0  0  0  0  0  0  0  0  0  0  0  0
   10.2690    4.7230  -59.1370 C   0  0  0  0  0  0  0  0  0  0  0  0
    9.9258    2.3102  -56.0356 H   0  0  0  0  0  0  0  0  0  0  0  0
   10.2455    0.7435  -56.8540 H   0  0  0  0  0  0  0  0  0  0  0  0
   11.4999    2.0292  -56.8540 H   0  0  0  0  0  0  0  0  0  0  0  0
    9.6315    1.5433  -58.8623 H   0  0  0  0  0  0  0  0  0  0  0  0
    8.5590    3.4700  -56.9590 H   0  0  0  0  0  0  0  0  0  0  0  0
    6.3595    2.7165  -56.5018 H   0  0  0  0  0  0  0  0  0  0  0  0
    4.0651    2.2028  -57.5158 H   0  0  0  0  0  0  0  0  0  0  0  0
    3.7760    1.1640  -63.3110 H   0  0  0  0  0  0  0  0  0  0  0  0
    2.4780    1.2490  -62.2300 H   0  0  0  0  0  0  0  0  0  0  0  0
    6.2331    2.2634  -62.5275 H   0  0  0  0  0  0  0  0  0  0  0  0
    8.0100    2.7290  -60.3290 H   0  0  0  0  0  0  0  0  0  0  0  0
   11.0039    2.8285  -59.9186 H   0  0  0  0  0  0  0  0  0  0  0  0
   12.1406    3.7824  -57.2692 H   0  0  0  0  0  0  0  0  0  0  0  0
   12.6757    2.3739  -58.2773 H   0  0  0  0  0  0  0  0  0  0  0  0
   14.1369    4.3807  -58.5355 H   0  0  0  0  0  0  0  0  0  0  0  0
   13.3364    3.8469  -60.0736 H   0  0  0  0  0  0  0  0  0  0  0  0
   12.4854    6.1691  -58.2897 H   0  0  0  0  0  0  0  0  0  0  0  0
   13.0430    7.2880  -60.2960 H   0  0  0  0  0  0  0  0  0  0  0  0
   10.7945    6.6363  -59.9666 H   0  0  0  0  0  0  0  0  0  0  0  0
   11.3337    5.2003  -60.9324 H   0  0  0  0  0  0  0  0  0  0  0  0
   10.0874    5.1736  -58.1501 H   0  0  0  0  0  0  0  0  0  0  0  0
    9.3335    4.6314  -59.7084 H   0  0  0  0  0  0  0  0  0  0  0  0
  1  2  1  0
  2  3  1  0
  3  4  1  0
  4  5  2  0
  5  6  1  0
  6  7  2  0
  7  8  1  0
  8  9  2  0
  9 10  1  0
  9 11  1  0
 11 12  2  0
 12 13  1  0
  2 14  1  0
 14 15  1  0
 15 16  1  0
 16 17  1  0
 17 18  1  0
 17 19  1  0
 19 20  1  0
 13  4  1  0
 20 14  1  0
 12  7  1  0
  1 21  1  0
  1 22  1  0
  1 23  1  0
  2 24  1  6
  3 25  1  0
  5 26  1  0
  6 27  1  0
 10 28  1  0
 10 29  1  0
 11 30  1  0
 13 31  1  0
 14 32  1  1
 15 33  1  0
 15 34  1  0
 16 35  1  0
 16 36  1  0
 17 37  1  6
 18 38  1  0
 19 39  1  0
 19 40  1  0
 20 41  1  0
 20 42  1  0
M  END
>  <meeko>  (180) 
{"is_sidechain": false}

$$$$

     RDKit          3D

 42 44  0  0  0  0  0  0  0  0999 V2000
    7.0510    1.6660  -59.8380 C   0  0  0  0  0  0  0  0  0  0  0  0
    6.8100    3.0960  -59.3490 C   0  0  1  0  0  0  0  0  0  0  0  0
    6.7890    3.1260  -57.8880 N   0  0  0  0  0  0  0  0  0  0  0  0
    7.2180    2.2050  -56.9550 C   0  0  0  0  0  0  0  0  0  0  0  0
    8.5460    2.1100  -56.6800 C   0  0  0  0  0  0  0  0  0  0  0  0
    9.0610    1.1530  -55.7040 C   0  0  0  0  0  0  0  0  0  0  0  0
    8.2020    0.3530  -55.0610 C   0  0  0  0  0  0  0  0  0  0  0  0
    8.3460   -0.6170  -54.1200 N   0  0  0  0  0  0  0  0  0  0  0  0
    7.1180   -1.1220  -53.7970 C   0  0  0  0  0  0  0  0  0  0  0  0
    6.8510   -2.0450  -52.9460 N   0  0  0  0  0  0  0  0  0  0  0  0
    6.0710   -0.4320  -54.5950 C   0  0  0  0  0  0  0  0  0  0  0  0
    6.7620    0.4440  -55.3430 C   0  0  0  0  0  0  0  0  0  0  0  0
    6.3560    1.3630  -56.2750 N   0  0  0  0  0  0  0  0  0  0  0  0
    7.7790    4.1610  -59.9370 C   0  0  2  0  0  0  0  0  0  0  0  0
    9.1710    3.5380  -60.2200 C   0  0  0  0  0  0  0  0  0  0  0  0
   10.2880    4.5770  -60.2040 C   0  0  0  0  0  0  0  0  0  0  0  0
   10.4120    5.2360  -58.8270 C   0  0  2  0  0  0  0  0  0  0  0  0
   11.3050    4.4840  -58.0060 O   0  0  0  0  0  0  0  0  0  0  0  0
    9.0750    5.3360  -58.0880 C   0  0  0  0  0  0  0  0  0  0  0  0
    7.9020    5.4260  -59.0560 C   0  0  0  0  0  0  0  0  0  0  0  0
    7.1638    0.9966  -58.9724 H   0  0  0  0  0  0  0  0  0  0  0  0
    6.1956    1.3375  -60.4465 H   0  0  0  0  0  0  0  0  0  0  0  0
    7.9669    1.6360  -60.4465 H   0  0  0  0  0  0  0  0  0  0  0  0
    5.8241    3.3908  -59.7377 H   0  0  0  0  0  0  0  0  0  0  0  0
    6.5840    4.0420  -57.5010 H   0  0  0  0  0  0  0  0  0  0  0  0
    9.2508    2.7708  -57.2060 H   0  0  0  0  0  0  0  0  0  0  0  0
   10.1402    1.0907  -55.5002 H   0  0  0  0  0  0  0  0  0  0  0  0
    9.2320   -0.8830  -53.7320 H   0  0  0  0  0  0  0  0  0  0  0  0
    7.7220   -2.3710  -52.5200 H   0  0  0  0  0  0  0  0  0  0  0  0
    4.9840   -0.5996  -54.5772 H   0  0  0  0  0  0  0  0  0  0  0  0
    5.3710    1.4520  -56.4580 H   0  0  0  0  0  0  0  0  0  0  0  0
    7.3390    4.4947  -60.8884 H   0  0  0  0  0  0  0  0  0  0  0  0
    9.3820    2.7808  -59.4506 H   0  0  0  0  0  0  0  0  0  0  0  0
    9.1410    3.0936  -61.2258 H   0  0  0  0  0  0  0  0  0  0  0  0
   11.2396    4.0846  -60.4531 H   0  0  0  0  0  0  0  0  0  0  0  0
   10.0494    5.3563  -60.9428 H   0  0  0  0  0  0  0  0  0  0  0  0
   10.7871    6.2540  -59.0084 H   0  0  0  0  0  0  0  0  0  0  0  0
   12.1660    4.9370  -58.0200 H   0  0  0  0  0  0  0  0  0  0  0  0
    8.9488    4.4439  -57.4569 H   0  0  0  0  0  0  0  0  0  0  0  0
    9.0876    6.2514  -57.4782 H   0  0  0  0  0  0  0  0  0  0  0  0
    6.9737    5.5482  -58.4786 H   0  0  0  0  0  0  0  0  0  0  0  0
    8.0744    6.2864  -59.7194 H   0  0  0  0  0  0  0  0  0  0  0  0
  1  2  1  0
  2  3  1  0
  3  4  1  0
  4  5  2  0
  5  6  1  0
  6  7  2  0
  7  8  1  0
  8  9  1  0
  9 10  2  3
  9 11  1  0
 11 12  2  0
 12 13  1  0
  2 14  1  0
 14 15  1  0
 15 16  1  0
 16 17  1  0
 17 18  1  0
 17 19  1  0
 19 20  1  0
 13  4  1  0
 20 14  1  0
 12  7  1  0
  1 21  1  0
  1 22  1  0
  1 23  1  0
  2 24  1  6
  3 25  1  0
  5 26  1  0
  6 27  1  0
  8 28  1  0
 10 29  1  0
 11 30  1  0
 13 31  1  0
 14 32  1  1
 15 33  1  0
 15 34  1  0
 16 35  1  0
 16 36  1  0
 17 37  1  1
 18 38  1  0
 19 39  1  0
 19 40  1  0
 20 41  1  0
 20 42  1  0
M  END
>  <meeko>  (181) 
{"is_sidechain": false}

$$$$

     RDKit          3D

 42 44  0  0  0  0  0  0  0  0999 V2000
   11.6580   -1.0320  -56.1020 C   0  0  0  0  0  0  0  0  0  0  0  0
   11.1010   -2.2950  -55.4460 C   0  0  1  0  0  0  0  0  0  0  0  0
    9.7870   -2.0100  -54.8680 N   0  0  0  0  0  0  0  0  0  0  0  0
    9.2870   -2.4520  -53.6600 C   0  0  0  0  0  0  0  0  0  0  0  0
   10.0270   -2.5790  -52.5290 C   0  0  0  0  0  0  0  0  0  0  0  0
    9.4390   -3.0550  -51.2800 C   0  0  0  0  0  0  0  0  0  0  0  0
    8.1440   -3.3910  -51.2560 C   0  0  0  0  0  0  0  0  0  0  0  0
    7.3150   -3.8740  -50.2970 N   0  0  0  0  0  0  0  0  0  0  0  0
    6.0770   -4.0970  -50.8220 C   0  0  0  0  0  0  0  0  0  0  0  0
    5.0740   -4.5770  -50.1780 N   0  0  0  0  0  0  0  0  0  0  0  0
    6.0730   -3.7020  -52.2580 C   0  0  0  0  0  0  0  0  0  0  0  0
    7.3310   -3.2770  -52.4770 C   0  0  0  0  0  0  0  0  0  0  0  0
    7.9420   -2.7890  -53.6030 N   0  0  0  0  0  0  0  0  0  0  0  0
   10.9820   -3.5170  -56.4020 C   0  0  2  0  0  0  0  0  0  0  0  0
   11.2850   -4.8550  -55.6830 C   0  0  0  0  0  0  0  0  0  0  0  0
   12.6090   -5.4870  -56.1130 C   0  0  0  0  0  0  0  0  0  0  0  0
   12.6700   -5.7320  -57.6240 C   0  0  1  0  0  0  0  0  0  0  0  0
   12.1880   -7.0390  -57.9230 O   0  0  0  0  0  0  0  0  0  0  0  0
   11.8770   -4.7090  -58.4410 C   0  0  0  0  0  0  0  0  0  0  0  0
   11.7760   -3.3710  -57.7180 C   0  0  0  0  0  0  0  0  0  0  0  0
   11.9713   -0.3217  -55.3227 H   0  0  0  0  0  0  0  0  0  0  0  0
   12.5236   -1.2951  -56.7277 H   0  0  0  0  0  0  0  0  0  0  0  0
   10.8800   -0.5702  -56.7277 H   0  0  0  0  0  0  0  0  0  0  0  0
   11.8294   -2.5767  -54.6713 H   0  0  0  0  0  0  0  0  0  0  0  0
    9.4450   -1.0780  -55.0800 H   0  0  0  0  0  0  0  0  0  0  0  0
   11.0951   -2.3171  -52.5540 H   0  0  0  0  0  0  0  0  0  0  0  0
   10.0526   -3.1363  -50.3707 H   0  0  0  0  0  0  0  0  0  0  0  0
    7.5860   -4.1010  -49.3570 H   0  0  0  0  0  0  0  0  0  0  0  0
    4.2590   -4.6500  -50.7930 H   0  0  0  0  0  0  0  0  0  0  0  0
    5.2376   -3.7471  -52.9722 H   0  0  0  0  0  0  0  0  0  0  0  0
    7.4410   -2.8370  -54.4760 H   0  0  0  0  0  0  0  0  0  0  0  0
    9.9251   -3.5385  -56.7060 H   0  0  0  0  0  0  0  0  0  0  0  0
   11.3230   -4.6683  -54.5996 H   0  0  0  0  0  0  0  0  0  0  0  0
   10.4848   -5.5591  -55.9548 H   0  0  0  0  0  0  0  0  0  0  0  0
   13.4314   -4.8135  -55.8299 H   0  0  0  0  0  0  0  0  0  0  0  0
   12.6974   -6.4609  -55.6093 H   0  0  0  0  0  0  0  0  0  0  0  0
   13.7269   -5.6270  -57.9102 H   0  0  0  0  0  0  0  0  0  0  0  0
   11.6290   -6.9830  -58.7170 H   0  0  0  0  0  0  0  0  0  0  0  0
   12.3806   -4.5558  -59.4069 H   0  0  0  0  0  0  0  0  0  0  0  0
   10.8589   -5.0993  -58.5865 H   0  0  0  0  0  0  0  0  0  0  0  0
   12.7887   -3.0072  -57.4896 H   0  0  0  0  0  0  0  0  0  0  0  0
   11.2504   -2.6573  -58.3694 H   0  0  0  0  0  0  0  0  0  0  0  0
  1  2  1  0
  2  3  1  0
  3  4  1  0
  4  5  2  0
  5  6  1  0
  6  7  2  0
  7  8  1  0
  8  9  1  0
  9 10  2  3
  9 11  1  0
 11 12  2  0
 12 13  1  0
  2 14  1  0
 14 15  1  0
 15 16  1  0
 16 17  1  0
 17 18  1  0
 17 19  1  0
 19 20  1  0
 13  4  1  0
 20 14  1  0
 12  7  1  0
  1 21  1  0
  1 22  1  0
  1 23  1  0
  2 24  1  1
  3 25  1  0
  5 26  1  0
  6 27  1  0
  8 28  1  0
 10 29  1  0
 11 30  1  0
 13 31  1  0
 14 32  1  1
 15 33  1  0
 15 34  1  0
 16 35  1  0
 16 36  1  0
 17 37  1  1
 18 38  1  0
 19 39  1  0
 19 40  1  0
 20 41  1  0
 20 42  1  0
M  END
>  <meeko>  (182) 
{"is_sidechain": false}

$$$$

     RDKit          3D

 42 44  0  0  0  0  0  0  0  0999 V2000
   10.3070    3.6400  -56.7370 C   0  0  0  0  0  0  0  0  0  0  0  0
    9.8870    3.2030  -58.1490 C   0  0  1  0  0  0  0  0  0  0  0  0
    8.7400    4.0170  -58.5810 N   0  0  0  0  0  0  0  0  0  0  0  0
    7.6240    3.3300  -59.0680 C   0  0  0  0  0  0  0  0  0  0  0  0
    6.8000    2.5890  -58.2190 C   0  0  0  0  0  0  0  0  0  0  0  0
    5.6960    1.9020  -58.7220 C   0  0  0  0  0  0  0  0  0  0  0  0
    5.5030    2.0090  -60.0950 C   0  0  0  0  0  0  0  0  0  0  0  0
    4.5500    1.4810  -60.9320 N   0  0  0  0  0  0  0  0  0  0  0  0
    4.7870    1.8760  -62.2230 C   0  0  0  0  0  0  0  0  0  0  0  0
    3.9800    1.4810  -63.2230 N   0  0  0  0  0  0  0  0  0  0  0  0
    5.9170    2.6580  -62.2270 C   0  0  0  0  0  0  0  0  0  0  0  0
    6.3710    2.7510  -60.8890 C   0  0  0  0  0  0  0  0  0  0  0  0
    7.4420    3.4150  -60.3960 N   0  0  0  0  0  0  0  0  0  0  0  0
   11.0370    3.3880  -59.1880 C   0  0  2  0  0  0  0  0  0  0  0  0
   12.3880    3.6600  -58.4770 C   0  0  0  0  0  0  0  0  0  0  0  0
   13.4010    4.3350  -59.3990 C   0  0  0  0  0  0  0  0  0  0  0  0
   12.9030    5.7070  -59.8630 C   0  0  2  0  0  0  0  0  0  0  0  0
   13.4150    6.7290  -59.0090 O   0  0  0  0  0  0  0  0  0  0  0  0
   11.3780    5.8150  -59.8960 C   0  0  0  0  0  0  0  0  0  0  0  0
   10.7320    4.4790  -60.2420 C   0  0  0  0  0  0  0  0  0  0  0  0
    9.7468    3.0572  -55.9910 H   0  0  0  0  0  0  0  0  0  0  0  0
   11.3850    3.4655  -56.6046 H   0  0  0  0  0  0  0  0  0  0  0  0
   10.0899    4.7102  -56.6046 H   0  0  0  0  0  0  0  0  0  0  0  0
    9.6294    2.1345  -58.1039 H   0  0  0  0  0  0  0  0  0  0  0  0
    8.3670    4.5840  -57.8190 H   0  0  0  0  0  0  0  0  0  0  0  0
    7.0239    2.5468  -57.1429 H   0  0  0  0  0  0  0  0  0  0  0  0
    5.0242    1.3160  -58.0775 H   0  0  0  0  0  0  0  0  0  0  0  0
    3.7940    0.8790  -60.6430 H   0  0  0  0  0  0  0  0  0  0  0  0
    3.2910    2.1290  -63.6010 H   0  0  0  0  0  0  0  0  0  0  0  0
    3.7360    0.5090  -63.3820 H   0  0  0  0  0  0  0  0  0  0  0  0
    6.3828    3.1254  -63.1071 H   0  0  0  0  0  0  0  0  0  0  0  0
   11.1150    2.4394  -59.7395 H   0  0  0  0  0  0  0  0  0  0  0  0
   12.2070    4.3137  -57.6110 H   0  0  0  0  0  0  0  0  0  0  0  0
   12.8071    2.6912  -58.1675 H   0  0  0  0  0  0  0  0  0  0  0  0
   14.3496    4.4626  -58.8569 H   0  0  0  0  0  0  0  0  0  0  0  0
   13.5419    3.6988  -60.2852 H   0  0  0  0  0  0  0  0  0  0  0  0
   13.2695    5.8344  -60.8923 H   0  0  0  0  0  0  0  0  0  0  0  0
   13.8980    7.3660  -59.5620 H   0  0  0  0  0  0  0  0  0  0  0  0
   11.0210    6.1395  -58.9075 H   0  0  0  0  0  0  0  0  0  0  0  0
   11.0999    6.5444  -60.6710 H   0  0  0  0  0  0  0  0  0  0  0  0
    9.6425    4.6180  -60.3019 H   0  0  0  0  0  0  0  0  0  0  0  0
   11.1480    4.1434  -61.2034 H   0  0  0  0  0  0  0  0  0  0  0  0
  1  2  1  0
  2  3  1  0
  3  4  1  0
  4  5  1  0
  5  6  2  0
  6  7  1  0
  7  8  1  0
  8  9  1  0
  9 10  1  0
  9 11  2  0
 11 12  1  0
 12 13  1  0
  2 14  1  0
 14 15  1  0
 15 16  1  0
 16 17  1  0
 17 18  1  0
 17 19  1  0
 19 20  1  0
 13  4  2  0
 20 14  1  0
 12  7  2  0
  1 21  1  0
  1 22  1  0
  1 23  1  0
  2 24  1  1
  3 25  1  0
  5 26  1  0
  6 27  1  0
  8 28  1  0
 10 29  1  0
 10 30  1  0
 11 31  1  0
 14 32  1  1
 15 33  1  0
 15 34  1  0
 16 35  1  0
 16 36  1  0
 17 37  1  1
 18 38  1  0
 19 39  1  0
 19 40  1  0
 20 41  1  0
 20 42  1  0
M  END
>  <meeko>  (183) 
{"is_sidechain": false}

$$$$

     RDKit          3D

 42 44  0  0  0  0  0  0  0  0999 V2000
    8.1570    5.6680  -59.0930 C   0  0  0  0  0  0  0  0  0  0  0  0
    8.9690    4.3700  -59.1480 C   0  0  1  0  0  0  0  0  0  0  0  0
    8.7560    3.6910  -60.4350 N   0  0  0  0  0  0  0  0  0  0  0  0
    7.5860    2.9150  -60.5590 C   0  0  0  0  0  0  0  0  0  0  0  0
    7.2460    2.1110  -59.4640 C   0  0  0  0  0  0  0  0  0  0  0  0
    6.0940    1.3230  -59.4770 C   0  0  0  0  0  0  0  0  0  0  0  0
    5.3290    1.4130  -60.6340 C   0  0  0  0  0  0  0  0  0  0  0  0
    4.1530    0.8080  -61.0060 N   0  0  0  0  0  0  0  0  0  0  0  0
    3.7860    1.2230  -62.2590 C   0  0  0  0  0  0  0  0  0  0  0  0
    2.6640    0.7610  -62.8380 N   0  0  0  0  0  0  0  0  0  0  0  0
    4.7280    2.1220  -62.7000 C   0  0  0  0  0  0  0  0  0  0  0  0
    5.7060    2.2420  -61.6840 C   0  0  0  0  0  0  0  0  0  0  0  0
    6.8250    3.0040  -61.6630 N   0  0  0  0  0  0  0  0  0  0  0  0
   10.4890    4.6360  -58.9490 C   0  0  2  0  0  0  0  0  0  0  0  0
   11.0860    5.6950  -59.8860 C   0  0  0  0  0  0  0  0  0  0  0  0
   12.5400    6.0330  -59.5270 C   0  0  0  0  0  0  0  0  0  0  0  0
   13.3240    4.8530  -58.9470 C   0  0  1  0  0  0  0  0  0  0  0  0
   13.2650    4.9200  -57.5230 O   0  0  0  0  0  0  0  0  0  0  0  0
   12.7670    3.5150  -59.4190 C   0  0  0  0  0  0  0  0  0  0  0  0
   11.2960    3.3200  -59.0340 C   0  0  0  0  0  0  0  0  0  0  0  0
    7.9824    5.9471  -58.0434 H   0  0  0  0  0  0  0  0  0  0  0  0
    8.7142    6.4708  -59.5980 H   0  0  0  0  0  0  0  0  0  0  0  0
    7.1914    5.5181  -59.5980 H   0  0  0  0  0  0  0  0  0  0  0  0
    8.6201    3.7272  -58.3264 H   0  0  0  0  0  0  0  0  0  0  0  0
    8.8140    4.3320  -61.2210 H   0  0  0  0  0  0  0  0  0  0  0  0
    7.8981    2.1003  -58.5782 H   0  0  0  0  0  0  0  0  0  0  0  0
    5.8118    0.6772  -58.6324 H   0  0  0  0  0  0  0  0  0  0  0  0
    3.6280    0.1620  -60.4360 H   0  0  0  0  0  0  0  0  0  0  0  0
    2.3610    1.0590  -63.7600 H   0  0  0  0  0  0  0  0  0  0  0  0
    1.8930    0.4400  -62.2540 H   0  0  0  0  0  0  0  0  0  0  0  0
    4.7226    2.6506  -63.6647 H   0  0  0  0  0  0  0  0  0  0  0  0
   10.5732    5.0596  -57.9373 H   0  0  0  0  0  0  0  0  0  0  0  0
   11.0552    5.3135  -60.9173 H   0  0  0  0  0  0  0  0  0  0  0  0
   10.4899    6.6135  -59.7812 H   0  0  0  0  0  0  0  0  0  0  0  0
   13.0518    6.3747  -60.4388 H   0  0  0  0  0  0  0  0  0  0  0  0
   12.5054    6.8084  -58.7476 H   0  0  0  0  0  0  0  0  0  0  0  0
   14.3645    4.9210  -59.2974 H   0  0  0  0  0  0  0  0  0  0  0  0
   12.9380    5.8050  -57.2850 H   0  0  0  0  0  0  0  0  0  0  0  0
   12.8543    3.4637  -60.5143 H   0  0  0  0  0  0  0  0  0  0  0  0
   13.3480    2.7204  -58.9281 H   0  0  0  0  0  0  0  0  0  0  0  0
   10.8239    2.6727  -59.7878 H   0  0  0  0  0  0  0  0  0  0  0  0
   11.2864    2.8750  -58.0281 H   0  0  0  0  0  0  0  0  0  0  0  0
  1  2  1  0
  2  3  1  0
  3  4  1  0
  4  5  1  0
  5  6  2  0
  6  7  1  0
  7  8  1  0
  8  9  1  0
  9 10  1  0
  9 11  2  0
 11 12  1  0
 12 13  1  0
  2 14  1  0
 14 15  1  0
 15 16  1  0
 16 17  1  0
 17 18  1  0
 17 19  1  0
 19 20  1  0
 13  4  2  0
 20 14  1  0
 12  7  2  0
  1 21  1  0
  1 22  1  0
  1 23  1  0
  2 24  1  1
  3 25  1  0
  5 26  1  0
  6 27  1  0
  8 28  1  0
 10 29  1  0
 10 30  1  0
 11 31  1  0
 14 32  1  6
 15 33  1  0
 15 34  1  0
 16 35  1  0
 16 36  1  0
 17 37  1  6
 18 38  1  0
 19 39  1  0
 19 40  1  0
 20 41  1  0
 20 42  1  0
M  END
>  <meeko>  (184) 
{"is_sidechain": false}

$$$$

     RDKit          3D

 42 44  0  0  0  0  0  0  0  0999 V2000
    5.9030    1.5490  -56.4640 C   0  0  0  0  0  0  0  0  0  0  0  0
    6.3760    2.5360  -57.5320 C   0  0  1  0  0  0  0  0  0  0  0  0
    7.8010    2.3280  -57.7740 N   0  0  0  0  0  0  0  0  0  0  0  0
    8.6100    3.2820  -58.1100 C   0  0  0  0  0  0  0  0  0  0  0  0
    8.2080    4.7450  -58.2770 C   0  0  0  0  0  0  0  0  0  0  0  0
    9.1400    5.6460  -58.6430 C   0  0  0  0  0  0  0  0  0  0  0  0
   10.4330    5.1300  -58.8370 C   0  0  0  0  0  0  0  0  0  0  0  0
   11.5230    5.8580  -59.2160 N   0  0  0  0  0  0  0  0  0  0  0  0
   12.6070    5.0130  -59.2980 C   0  0  0  0  0  0  0  0  0  0  0  0
   13.8160    5.4820  -59.6530 N   0  0  0  0  0  0  0  0  0  0  0  0
   12.1930    3.7330  -58.9790 C   0  0  0  0  0  0  0  0  0  0  0  0
   10.8220    3.8250  -58.6870 C   0  0  0  0  0  0  0  0  0  0  0  0
    9.9280    2.8920  -58.3180 N   0  0  0  0  0  0  0  0  0  0  0  0
    5.6090    2.3530  -58.8700 C   0  0  2  0  0  0  0  0  0  0  0  0
    4.0780    2.3910  -58.7370 C   0  0  0  0  0  0  0  0  0  0  0  0
    3.3790    2.3520  -60.0990 C   0  0  0  0  0  0  0  0  0  0  0  0
    4.1960    1.6550  -61.1890 C   0  0  2  0  0  0  0  0  0  0  0  0
    3.3230    1.1380  -62.1870 O   0  0  0  0  0  0  0  0  0  0  0  0
    5.0560    0.5370  -60.6160 C   0  0  0  0  0  0  0  0  0  0  0  0
    6.0580    1.0550  -59.5840 C   0  0  0  0  0  0  0  0  0  0  0  0
    6.1026    1.9655  -55.4657 H   0  0  0  0  0  0  0  0  0  0  0  0
    4.8231    1.3739  -56.5791 H   0  0  0  0  0  0  0  0  0  0  0  0
    6.4430    0.5976  -56.5791 H   0  0  0  0  0  0  0  0  0  0  0  0
    6.1820    3.5537  -57.1625 H   0  0  0  0  0  0  0  0  0  0  0  0
    7.1689    5.0600  -58.1005 H   0  0  0  0  0  0  0  0  0  0  0  0
    8.9055    6.7119  -58.7806 H   0  0  0  0  0  0  0  0  0  0  0  0
   11.5430    6.8460  -59.4170 H   0  0  0  0  0  0  0  0  0  0  0  0
   14.0700    6.4600  -59.5490 H   0  0  0  0  0  0  0  0  0  0  0  0
   14.6230    4.8620  -59.6240 H   0  0  0  0  0  0  0  0  0  0  0  0
   12.8130    2.8246  -58.9580 H   0  0  0  0  0  0  0  0  0  0  0  0
   10.1290    1.9090  -58.1960 H   0  0  0  0  0  0  0  0  0  0  0  0
    5.8754    3.2276  -59.4817 H   0  0  0  0  0  0  0  0  0  0  0  0
    3.7519    1.5223  -58.1462 H   0  0  0  0  0  0  0  0  0  0  0  0
    3.8048    3.3354  -58.2436 H   0  0  0  0  0  0  0  0  0  0  0  0
    2.4247    1.8171  -59.9845 H   0  0  0  0  0  0  0  0  0  0  0  0
    3.2392    3.3951  -60.4190 H   0  0  0  0  0  0  0  0  0  0  0  0
    4.8707    2.3988  -61.6378 H   0  0  0  0  0  0  0  0  0  0  0  0
    3.8580    0.6110  -62.8050 H   0  0  0  0  0  0  0  0  0  0  0  0
    4.4006   -0.2033  -60.1339 H   0  0  0  0  0  0  0  0  0  0  0  0
    5.6237    0.0874  -61.4440 H   0  0  0  0  0  0  0  0  0  0  0  0
    6.2060    0.2746  -58.8230 H   0  0  0  0  0  0  0  0  0  0  0  0
    6.9829    1.2942  -60.1293 H   0  0  0  0  0  0  0  0  0  0  0  0
  1  2  1  0
  2  3  1  0
  3  4  2  0
  4  5  1  0
  5  6  2  0
  6  7  1  0
  7  8  1  0
  8  9  1  0
  9 10  1  0
  9 11  2  0
 11 12  1  0
 12 13  1  0
  2 14  1  0
 14 15  1  0
 15 16  1  0
 16 17  1  0
 17 18  1  0
 17 19  1  0
 19 20  1  0
 13  4  1  0
 20 14  1  0
 12  7  2  0
  1 21  1  0
  1 22  1  0
  1 23  1  0
  2 24  1  1
  5 25  1  0
  6 26  1  0
  8 27  1  0
 10 28  1  0
 10 29  1  0
 11 30  1  0
 13 31  1  0
 14 32  1  1
 15 33  1  0
 15 34  1  0
 16 35  1  0
 16 36  1  0
 17 37  1  1
 18 38  1  0
 19 39  1  0
 19 40  1  0
 20 41  1  0
 20 42  1  0
M  END
>  <meeko>  (185) 
{"is_sidechain": false}

$$$$

     RDKit          3D

 42 44  0  0  0  0  0  0  0  0999 V2000
    8.6590    4.4540  -57.4980 C   0  0  0  0  0  0  0  0  0  0  0  0
    9.3140    3.5340  -58.5290 C   0  0  1  0  0  0  0  0  0  0  0  0
    8.5510    3.5850  -59.7750 N   0  0  0  0  0  0  0  0  0  0  0  0
    7.4980    2.8610  -59.9900 C   0  0  0  0  0  0  0  0  0  0  0  0
    6.8960    1.8810  -58.9880 C   0  0  0  0  0  0  0  0  0  0  0  0
    5.8020    1.1750  -59.3320 C   0  0  0  0  0  0  0  0  0  0  0  0
    5.3090    1.4230  -60.6260 C   0  0  0  0  0  0  0  0  0  0  0  0
    4.2150    0.8240  -61.1800 N   0  0  0  0  0  0  0  0  0  0  0  0
    4.0420    1.3190  -62.4530 C   0  0  0  0  0  0  0  0  0  0  0  0
    3.0280    0.8900  -63.2230 N   0  0  0  0  0  0  0  0  0  0  0  0
    5.0330    2.2520  -62.7000 C   0  0  0  0  0  0  0  0  0  0  0  0
    5.8240    2.3020  -61.5420 C   0  0  0  0  0  0  0  0  0  0  0  0
    6.9140    3.0300  -61.2400 N   0  0  0  0  0  0  0  0  0  0  0  0
   10.7810    3.9500  -58.8200 C   0  0  2  0  0  0  0  0  0  0  0  0
   11.7560    3.6370  -57.6660 C   0  0  0  0  0  0  0  0  0  0  0  0
   12.9880    4.5490  -57.6320 C   0  0  0  0  0  0  0  0  0  0  0  0
   13.4060    5.0280  -59.0160 C   0  0  1  0  0  0  0  0  0  0  0  0
   13.7790    3.8920  -59.7960 O   0  0  0  0  0  0  0  0  0  0  0  0
   12.2840    5.7980  -59.7210 C   0  0  0  0  0  0  0  0  0  0  0  0
   10.8790    5.4260  -59.2300 C   0  0  0  0  0  0  0  0  0  0  0  0
    8.9075    4.1050  -56.4849 H   0  0  0  0  0  0  0  0  0  0  0  0
    9.0308    5.4803  -57.6337 H   0  0  0  0  0  0  0  0  0  0  0  0
    7.5675    4.4385  -57.6337 H   0  0  0  0  0  0  0  0  0  0  0  0
    9.3199    2.5141  -58.1169 H   0  0  0  0  0  0  0  0  0  0  0  0
    7.3508    1.7523  -57.9947 H   0  0  0  0  0  0  0  0  0  0  0  0
    5.3273    0.4550  -58.6492 H   0  0  0  0  0  0  0  0  0  0  0  0
    3.6170    0.1440  -60.7370 H   0  0  0  0  0  0  0  0  0  0  0  0
    3.1690    0.5690  -64.1770 H   0  0  0  0  0  0  0  0  0  0  0  0
    2.0900    1.2530  -63.0650 H   0  0  0  0  0  0  0  0  0  0  0  0
    5.1730    2.8378  -63.6205 H   0  0  0  0  0  0  0  0  0  0  0  0
    7.3560    3.6990  -61.8530 H   0  0  0  0  0  0  0  0  0  0  0  0
   11.0976    3.3265  -59.6691 H   0  0  0  0  0  0  0  0  0  0  0  0
   11.2150    3.7494  -56.7148 H   0  0  0  0  0  0  0  0  0  0  0  0
   12.1209    2.6114  -57.8243 H   0  0  0  0  0  0  0  0  0  0  0  0
   12.7582    5.4272  -57.0107 H   0  0  0  0  0  0  0  0  0  0  0  0
   13.8222    3.9635  -57.2182 H   0  0  0  0  0  0  0  0  0  0  0  0
   14.2541    5.7197  -58.9049 H   0  0  0  0  0  0  0  0  0  0  0  0
   13.3300    3.1180  -59.4160 H   0  0  0  0  0  0  0  0  0  0  0  0
   12.4390    6.8733  -59.5485 H   0  0  0  0  0  0  0  0  0  0  0  0
   12.3328    5.5332  -60.7875 H   0  0  0  0  0  0  0  0  0  0  0  0
   10.6298    6.0526  -58.3609 H   0  0  0  0  0  0  0  0  0  0  0  0
   10.1757    5.5941  -60.0589 H   0  0  0  0  0  0  0  0  0  0  0  0
  1  2  1  0
  2  3  1  0
  3  4  2  0
  4  5  1  0
  5  6  2  0
  6  7  1  0
  7  8  1  0
  8  9  1  0
  9 10  1  0
  9 11  2  0
 11 12  1  0
 12 13  1  0
  2 14  1  0
 14 15  1  0
 15 16  1  0
 16 17  1  0
 17 18  1  0
 17 19  1  0
 19 20  1  0
 13  4  1  0
 20 14  1  0
 12  7  2  0
  1 21  1  0
  1 22  1  0
  1 23  1  0
  2 24  1  1
  5 25  1  0
  6 26  1  0
  8 27  1  0
 10 28  1  0
 10 29  1  0
 11 30  1  0
 13 31  1  0
 14 32  1  1
 15 33  1  0
 15 34  1  0
 16 35  1  0
 16 36  1  0
 17 37  1  6
 18 38  1  0
 19 39  1  0
 19 40  1  0
 20 41  1  0
 20 42  1  0
M  END
>  <meeko>  (186) 
{"is_sidechain": false}

$$$$

     RDKit          3D

 42 44  0  0  0  0  0  0  0  0999 V2000
   10.7740    0.6840  -56.5240 C   0  0  0  0  0  0  0  0  0  0  0  0
   10.1250    1.9260  -57.1360 C   0  0  1  0  0  0  0  0  0  0  0  0
    8.7400    2.0720  -56.6810 N   0  0  0  0  0  0  0  0  0  0  0  0
    7.6900    2.0880  -57.4310 C   0  0  0  0  0  0  0  0  0  0  0  0
    6.3970    2.2550  -56.6410 C   0  0  0  0  0  0  0  0  0  0  0  0
    5.2160    2.2840  -57.2860 C   0  0  0  0  0  0  0  0  0  0  0  0
    5.3020    2.1530  -58.6830 C   0  0  0  0  0  0  0  0  0  0  0  0
    4.2400    2.1590  -59.5390 N   0  0  0  0  0  0  0  0  0  0  0  0
    4.7120    2.0050  -60.8230 C   0  0  0  0  0  0  0  0  0  0  0  0
    3.8640    1.9750  -61.8650 N   0  0  0  0  0  0  0  0  0  0  0  0
    6.0900    1.9130  -60.7760 C   0  0  0  0  0  0  0  0  0  0  0  0
    6.4480    2.0040  -59.4210 C   0  0  0  0  0  0  0  0  0  0  0  0
    7.6510    1.9700  -58.8170 N   0  0  0  0  0  0  0  0  0  0  0  0
   10.9370    3.2410  -56.9980 C   0  0  2  0  0  0  0  0  0  0  0  0
   10.0290    4.4960  -57.0570 C   0  0  0  0  0  0  0  0  0  0  0  0
   10.0300    5.1470  -58.4340 C   0  0  0  0  0  0  0  0  0  0  0  0
   11.4310    5.6280  -58.8250 C   0  0  2  0  0  0  0  0  0  0  0  0
   11.5190    5.6910  -60.2470 O   0  0  0  0  0  0  0  0  0  0  0  0
   12.5520    4.7420  -58.2730 C   0  0  0  0  0  0  0  0  0  0  0  0
   12.0730    3.3110  -58.0450 C   0  0  0  0  0  0  0  0  0  0  0  0
   10.7374    0.7541  -55.4268 H   0  0  0  0  0  0  0  0  0  0  0  0
   10.2297   -0.2137  -56.8525 H   0  0  0  0  0  0  0  0  0  0  0  0
   11.8218    0.6182  -56.8525 H   0  0  0  0  0  0  0  0  0  0  0  0
   10.1217    1.7430  -58.2207 H   0  0  0  0  0  0  0  0  0  0  0  0
    6.4291    2.3516  -55.5457 H   0  0  0  0  0  0  0  0  0  0  0  0
    4.2569    2.4012  -56.7602 H   0  0  0  0  0  0  0  0  0  0  0  0
    3.2690    2.2700  -59.2870 H   0  0  0  0  0  0  0  0  0  0  0  0
    2.9110    2.3150  -61.7500 H   0  0  0  0  0  0  0  0  0  0  0  0
    4.1840    2.0280  -62.8280 H   0  0  0  0  0  0  0  0  0  0  0  0
    6.7717    1.7924  -61.6308 H   0  0  0  0  0  0  0  0  0  0  0  0
    8.5090    1.8630  -59.3300 H   0  0  0  0  0  0  0  0  0  0  0  0
   11.4014    3.2319  -56.0009 H   0  0  0  0  0  0  0  0  0  0  0  0
    8.9996    4.1998  -56.8067 H   0  0  0  0  0  0  0  0  0  0  0  0
   10.4224    5.2297  -56.3380 H   0  0  0  0  0  0  0  0  0  0  0  0
    9.6834    4.4134  -59.1767 H   0  0  0  0  0  0  0  0  0  0  0  0
    9.3606    6.0194  -58.4045 H   0  0  0  0  0  0  0  0  0  0  0  0
   11.5729    6.6228  -58.3775 H   0  0  0  0  0  0  0  0  0  0  0  0
   11.5520    4.7800  -60.5850 H   0  0  0  0  0  0  0  0  0  0  0  0
   13.3847    4.7300  -58.9916 H   0  0  0  0  0  0  0  0  0  0  0  0
   12.8748    5.1560  -57.3064 H   0  0  0  0  0  0  0  0  0  0  0  0
   11.7036    2.9040  -58.9978 H   0  0  0  0  0  0  0  0  0  0  0  0
   12.9224    2.7245  -57.6649 H   0  0  0  0  0  0  0  0  0  0  0  0
  1  2  1  0
  2  3  1  0
  3  4  2  0
  4  5  1  0
  5  6  2  0
  6  7  1  0
  7  8  1  0
  8  9  1  0
  9 10  1  0
  9 11  2  0
 11 12  1  0
 12 13  1  0
  2 14  1  0
 14 15  1  0
 15 16  1  0
 16 17  1  0
 17 18  1  0
 17 19  1  0
 19 20  1  0
 13  4  1  0
 20 14  1  0
 12  7  2  0
  1 21  1  0
  1 22  1  0
  1 23  1  0
  2 24  1  6
  5 25  1  0
  6 26  1  0
  8 27  1  0
 10 28  1  0
 10 29  1  0
 11 30  1  0
 13 31  1  0
 14 32  1  6
 15 33  1  0
 15 34  1  0
 16 35  1  0
 16 36  1  0
 17 37  1  6
 18 38  1  0
 19 39  1  0
 19 40  1  0
 20 41  1  0
 20 42  1  0
M  END
>  <meeko>  (187) 
{"is_sidechain": false}

$$$$

     RDKit          3D

 42 44  0  0  0  0  0  0  0  0999 V2000
   10.7670    1.2020  -56.8310 C   0  0  0  0  0  0  0  0  0  0  0  0
    9.7820    1.8280  -57.8200 C   0  0  1  0  0  0  0  0  0  0  0  0
    8.5510    2.1750  -57.1090 N   0  0  0  0  0  0  0  0  0  0  0  0
    7.4050    2.1810  -57.7150 C   0  0  0  0  0  0  0  0  0  0  0  0
    6.2470    2.5870  -56.8130 C   0  0  0  0  0  0  0  0  0  0  0  0
    4.9980    2.6340  -57.3120 C   0  0  0  0  0  0  0  0  0  0  0  0
    4.8890    2.2860  -58.6700 C   0  0  0  0  0  0  0  0  0  0  0  0
    3.7260    2.2630  -59.3830 N   0  0  0  0  0  0  0  0  0  0  0  0
    4.0110    1.8680  -60.6730 C   0  0  0  0  0  0  0  0  0  0  0  0
    3.0320    1.7610  -61.5870 N   0  0  0  0  0  0  0  0  0  0  0  0
    5.3720    1.6530  -60.7750 C   0  0  0  0  0  0  0  0  0  0  0  0
    5.9120    1.9160  -59.5050 C   0  0  0  0  0  0  0  0  0  0  0  0
    7.1790    1.8590  -59.0510 N   0  0  0  0  0  0  0  0  0  0  0  0
   10.3580    3.1070  -58.4840 C   0  0  2  0  0  0  0  0  0  0  0  0
   10.1740    3.1710  -60.0060 C   0  0  0  0  0  0  0  0  0  0  0  0
   10.6180    4.5210  -60.5870 C   0  0  0  0  0  0  0  0  0  0  0  0
   11.7870    5.1640  -59.8320 C   0  0  1  0  0  0  0  0  0  0  0  0
   11.2910    6.0890  -58.8640 O   0  0  0  0  0  0  0  0  0  0  0  0
   12.6430    4.1280  -59.1190 C   0  0  0  0  0  0  0  0  0  0  0  0
   11.8460    3.2960  -58.1080 C   0  0  0  0  0  0  0  0  0  0  0  0
   10.4372    1.4116  -55.8027 H   0  0  0  0  0  0  0  0  0  0  0  0
   10.8043    0.1141  -56.9896 H   0  0  0  0  0  0  0  0  0  0  0  0
   11.7678    1.6302  -56.9896 H   0  0  0  0  0  0  0  0  0  0  0  0
    9.5860    1.0928  -58.6144 H   0  0  0  0  0  0  0  0  0  0  0  0
    6.4306    2.8407  -55.7585 H   0  0  0  0  0  0  0  0  0  0  0  0
    4.1283    2.9228  -56.7036 H   0  0  0  0  0  0  0  0  0  0  0  0
    2.8090    2.5030  -59.0400 H   0  0  0  0  0  0  0  0  0  0  0  0
    3.2530    1.8640  -62.5760 H   0  0  0  0  0  0  0  0  0  0  0  0
    2.1980    1.2040  -61.4270 H   0  0  0  0  0  0  0  0  0  0  0  0
    5.9237    1.3381  -61.6731 H   0  0  0  0  0  0  0  0  0  0  0  0
    7.9530    1.5760  -59.6310 H   0  0  0  0  0  0  0  0  0  0  0  0
    9.7638    3.9396  -58.0793 H   0  0  0  0  0  0  0  0  0  0  0  0
   10.7717    2.3721  -60.4691 H   0  0  0  0  0  0  0  0  0  0  0  0
    9.1028    3.0458  -60.2225 H   0  0  0  0  0  0  0  0  0  0  0  0
   10.9236    4.3653  -61.6322 H   0  0  0  0  0  0  0  0  0  0  0  0
    9.7622    5.2061  -60.4968 H   0  0  0  0  0  0  0  0  0  0  0  0
   12.4105    5.6796  -60.5772 H   0  0  0  0  0  0  0  0  0  0  0  0
   11.9240    6.1040  -58.1260 H   0  0  0  0  0  0  0  0  0  0  0  0
   13.0739    3.4502  -59.8706 H   0  0  0  0  0  0  0  0  0  0  0  0
   13.4234    4.6680  -58.5628 H   0  0  0  0  0  0  0  0  0  0  0  0
   12.3127    2.3028  -58.0328 H   0  0  0  0  0  0  0  0  0  0  0  0
   11.8665    3.8465  -57.1559 H   0  0  0  0  0  0  0  0  0  0  0  0
  1  2  1  0
  2  3  1  0
  3  4  2  0
  4  5  1  0
  5  6  2  0
  6  7  1  0
  7  8  1  0
  8  9  1  0
  9 10  1  0
  9 11  2  0
 11 12  1  0
 12 13  1  0
  2 14  1  0
 14 15  1  0
 15 16  1  0
 16 17  1  0
 17 18  1  0
 17 19  1  0
 19 20  1  0
 13  4  1  0
 20 14  1  0
 12  7  2  0
  1 21  1  0
  1 22  1  0
  1 23  1  0
  2 24  1  6
  5 25  1  0
  6 26  1  0
  8 27  1  0
 10 28  1  0
 10 29  1  0
 11 30  1  0
 13 31  1  0
 14 32  1  6
 15 33  1  0
 15 34  1  0
 16 35  1  0
 16 36  1  0
 17 37  1  1
 18 38  1  0
 19 39  1  0
 19 40  1  0
 20 41  1  0
 20 42  1  0
M  END
>  <meeko>  (188) 
{"is_sidechain": false}

$$$$

     RDKit          3D

 49 51  0  0  0  0  0  0  0  0999 V2000
    7.3650   -4.4830  -50.8110 C   0  0  0  0  0  0  0  0  0  0  0  0
    8.2210   -2.9230  -50.8140 S   0  0  0  0  0  0  0  0  0  0  0  0
    9.6190   -3.1440  -51.1020 O   0  0  0  0  0  0  0  0  0  0  0  0
    7.7900   -2.1680  -49.6590 O   0  0  0  0  0  0  0  0  0  0  0  0
    7.5230   -2.1600  -52.1420 N   0  0  0  0  0  0  0  0  0  0  0  0
    8.4070   -1.8020  -53.2640 C   0  0  0  0  0  0  0  0  0  0  0  0
    8.2220   -0.3140  -53.6190 C   0  0  2  0  0  0  0  0  0  0  0  0
    6.7320    0.0790  -53.5860 C   0  0  0  0  0  0  0  0  0  0  0  0
    6.0500   -0.0670  -54.9450 C   0  0  0  0  0  0  0  0  0  0  0  0
    6.7330    0.7620  -56.0520 C   0  0  1  0  0  0  0  0  0  0  0  0
    5.8960    1.9700  -56.5140 C   0  0  0  0  0  0  0  0  0  0  0  0
    5.9010    2.1130  -57.9640 N   0  0  0  0  0  0  0  0  0  0  0  0
    6.9800    2.5170  -58.7250 C   0  0  0  0  0  0  0  0  0  0  0  0
    7.4240    1.8520  -59.8240 C   0  0  0  0  0  0  0  0  0  0  0  0
    8.5720    2.3320  -60.5890 C   0  0  0  0  0  0  0  0  0  0  0  0
    9.2030    3.4380  -60.1780 C   0  0  0  0  0  0  0  0  0  0  0  0
   10.3020    4.0570  -60.7040 N   0  0  0  0  0  0  0  0  0  0  0  0
   10.5190    5.0640  -59.8990 C   0  0  0  0  0  0  0  0  0  0  0  0
   11.5590    5.9220  -60.0980 N   0  0  0  0  0  0  0  0  0  0  0  0
    9.5660    5.1780  -58.7760 C   0  0  0  0  0  0  0  0  0  0  0  0
    8.7530    4.1480  -58.9980 C   0  0  0  0  0  0  0  0  0  0  0  0
    7.6470    3.6730  -58.3430 N   0  0  0  0  0  0  0  0  0  0  0  0
    8.1710    1.1680  -55.6850 C   0  0  0  0  0  0  0  0  0  0  0  0
    8.8860    0.0270  -54.9700 C   0  0  0  0  0  0  0  0  0  0  0  0
    7.1895   -4.8029  -49.7733 H   0  0  0  0  0  0  0  0  0  0  0  0
    6.4008   -4.3732  -51.3289 H   0  0  0  0  0  0  0  0  0  0  0  0
    7.9756   -5.2373  -51.3289 H   0  0  0  0  0  0  0  0  0  0  0  0
    6.8710   -1.4380  -51.8290 H   0  0  0  0  0  0  0  0  0  0  0  0
    9.4534   -1.9816  -52.9763 H   0  0  0  0  0  0  0  0  0  0  0  0
    8.1524   -2.4187  -54.1385 H   0  0  0  0  0  0  0  0  0  0  0  0
    8.7335    0.2876  -52.8532 H   0  0  0  0  0  0  0  0  0  0  0  0
    6.2142   -0.5672  -52.8619 H   0  0  0  0  0  0  0  0  0  0  0  0
    6.6760    1.1397  -53.3001 H   0  0  0  0  0  0  0  0  0  0  0  0
    6.0721   -1.1274  -55.2366 H   0  0  0  0  0  0  0  0  0  0  0  0
    5.0211    0.3075  -54.8397 H   0  0  0  0  0  0  0  0  0  0  0  0
    6.8010    0.0879  -56.9186 H   0  0  0  0  0  0  0  0  0  0  0  0
    4.8587    1.8347  -56.1738 H   0  0  0  0  0  0  0  0  0  0  0  0
    6.3407    2.8780  -56.0808 H   0  0  0  0  0  0  0  0  0  0  0  0
    5.3950    1.3770  -58.4430 H   0  0  0  0  0  0  0  0  0  0  0  0
    6.9087    0.9343  -60.1437 H   0  0  0  0  0  0  0  0  0  0  0  0
    8.9115    1.7941  -61.4865 H   0  0  0  0  0  0  0  0  0  0  0  0
   12.2310    5.5480  -60.7600 H   0  0  0  0  0  0  0  0  0  0  0  0
   11.9900    6.3020  -59.2650 H   0  0  0  0  0  0  0  0  0  0  0  0
    9.5361    5.9217  -57.9660 H   0  0  0  0  0  0  0  0  0  0  0  0
    7.4170    4.0630  -57.4430 H   0  0  0  0  0  0  0  0  0  0  0  0
    8.7210    1.4197  -56.6038 H   0  0  0  0  0  0  0  0  0  0  0  0
    8.1328    2.0382  -55.0132 H   0  0  0  0  0  0  0  0  0  0  0  0
    8.8623   -0.8653  -55.6128 H   0  0  0  0  0  0  0  0  0  0  0  0
    9.9197    0.3456  -54.7701 H   0  0  0  0  0  0  0  0  0  0  0  0
  1  2  1  0
  2  3  2  0
  2  4  2  0
  2  5  1  0
  5  6  1  0
  6  7  1  0
  7  8  1  0
  8  9  1  0
  9 10  1  0
 10 11  1  0
 11 12  1  0
 12 13  1  0
 13 14  2  0
 14 15  1  0
 15 16  2  0
 16 17  1  0
 17 18  2  0
 18 19  1  0
 18 20  1  0
 20 21  2  0
 21 22  1  0
 10 23  1  0
 23 24  1  0
 24  7  1  0
 22 13  1  0
 21 16  1  0
  1 25  1  0
  1 26  1  0
  1 27  1  0
  5 28  1  0
  6 29  1  0
  6 30  1  0
  7 31  1  6
  8 32  1  0
  8 33  1  0
  9 34  1  0
  9 35  1  0
 10 36  1  1
 11 37  1  0
 11 38  1  0
 12 39  1  0
 14 40  1  0
 15 41  1  0
 19 42  1  0
 19 43  1  0
 20 44  1  0
 22 45  1  0
 23 46  1  0
 23 47  1  0
 24 48  1  0
 24 49  1  0
M  END
>  <meeko>  (189) 
{"is_sidechain": false}

$$$$

     RDKit          3D

 49 51  0  0  0  0  0  0  0  0999 V2000
    7.2680   -4.3230  -51.1060 C   0  0  0  0  0  0  0  0  0  0  0  0
    8.1760   -2.8060  -50.8900 S   0  0  0  0  0  0  0  0  0  0  0  0
    7.7730   -2.2000  -49.6420 O   0  0  0  0  0  0  0  0  0  0  0  0
    9.5630   -3.0680  -51.2030 O   0  0  0  0  0  0  0  0  0  0  0  0
    7.5950   -1.8590  -52.1410 N   0  0  0  0  0  0  0  0  0  0  0  0
    8.4870   -1.4620  -53.2330 C   0  0  0  0  0  0  0  0  0  0  0  0
    8.1640   -0.0230  -53.6670 C   0  0  2  0  0  0  0  0  0  0  0  0
    6.6450    0.2240  -53.7890 C   0  0  0  0  0  0  0  0  0  0  0  0
    6.1420    0.0480  -55.2190 C   0  0  0  0  0  0  0  0  0  0  0  0
    6.8120    1.0330  -56.2000 C   0  0  1  0  0  0  0  0  0  0  0  0
    5.9250    2.2720  -56.4240 C   0  0  0  0  0  0  0  0  0  0  0  0
    5.8790    2.6560  -57.8250 N   0  0  0  0  0  0  0  0  0  0  0  0
    6.9430    3.0380  -58.6160 C   0  0  0  0  0  0  0  0  0  0  0  0
    7.1260    2.4590  -59.8300 C   0  0  0  0  0  0  0  0  0  0  0  0
    8.2410    2.8370  -60.6940 C   0  0  0  0  0  0  0  0  0  0  0  0
    9.1080    3.7670  -60.2710 C   0  0  0  0  0  0  0  0  0  0  0  0
   10.2270    4.3210  -60.8090 N   0  0  0  0  0  0  0  0  0  0  0  0
   10.7580    5.2180  -59.9260 C   0  0  0  0  0  0  0  0  0  0  0  0
   11.8200    5.9250  -60.0730 N   0  0  0  0  0  0  0  0  0  0  0  0
    9.9110    5.2770  -58.7060 C   0  0  0  0  0  0  0  0  0  0  0  0
    8.9280    4.3940  -58.9530 C   0  0  0  0  0  0  0  0  0  0  0  0
    7.8470    4.0040  -58.2080 N   0  0  0  0  0  0  0  0  0  0  0  0
    8.2290    1.4330  -55.7400 C   0  0  0  0  0  0  0  0  0  0  0  0
    8.9070    0.3000  -54.9780 C   0  0  0  0  0  0  0  0  0  0  0  0
    7.0165   -4.7432  -50.1210 H   0  0  0  0  0  0  0  0  0  0  0  0
    6.3427   -4.1201  -51.6652 H   0  0  0  0  0  0  0  0  0  0  0  0
    7.8840   -5.0426  -51.6652 H   0  0  0  0  0  0  0  0  0  0  0  0
    6.8480   -1.2190  -51.8690 H   0  0  0  0  0  0  0  0  0  0  0  0
    9.5309   -1.5152  -52.8904 H   0  0  0  0  0  0  0  0  0  0  0  0
    8.3438   -2.1413  -54.0863 H   0  0  0  0  0  0  0  0  0  0  0  0
    8.5173    0.6630  -52.8830 H   0  0  0  0  0  0  0  0  0  0  0  0
    6.1174   -0.4889  -53.1383 H   0  0  0  0  0  0  0  0  0  0  0  0
    6.4483    1.2638  -53.4889 H   0  0  0  0  0  0  0  0  0  0  0  0
    6.3584   -0.9796  -55.5463 H   0  0  0  0  0  0  0  0  0  0  0  0
    5.0610    0.2513  -55.2233 H   0  0  0  0  0  0  0  0  0  0  0  0
    6.9237    0.5133  -57.1630 H   0  0  0  0  0  0  0  0  0  0  0  0
    4.9040    2.0454  -56.0831 H   0  0  0  0  0  0  0  0  0  0  0  0
    6.3554    3.1085  -55.8539 H   0  0  0  0  0  0  0  0  0  0  0  0
    4.9860    3.0350  -58.1270 H   0  0  0  0  0  0  0  0  0  0  0  0
    6.4189    1.6882  -60.1704 H   0  0  0  0  0  0  0  0  0  0  0  0
    8.3675    2.3644  -61.6792 H   0  0  0  0  0  0  0  0  0  0  0  0
   10.6050    4.0490  -61.6980 H   0  0  0  0  0  0  0  0  0  0  0  0
   12.2360    5.7200  -60.9850 H   0  0  0  0  0  0  0  0  0  0  0  0
   10.0550    5.8984  -57.8098 H   0  0  0  0  0  0  0  0  0  0  0  0
    7.7580    4.3610  -57.2700 H   0  0  0  0  0  0  0  0  0  0  0  0
    8.8348    1.6829  -56.6235 H   0  0  0  0  0  0  0  0  0  0  0  0
    8.1431    2.2995  -55.0678 H   0  0  0  0  0  0  0  0  0  0  0  0
    8.9208   -0.5989  -55.6118 H   0  0  0  0  0  0  0  0  0  0  0  0
    9.9297    0.6172  -54.7259 H   0  0  0  0  0  0  0  0  0  0  0  0
  1  2  1  0
  2  3  2  0
  2  4  2  0
  2  5  1  0
  5  6  1  0
  6  7  1  0
  7  8  1  0
  8  9  1  0
  9 10  1  0
 10 11  1  0
 11 12  1  0
 12 13  1  0
 13 14  2  0
 14 15  1  0
 15 16  2  0
 16 17  1  0
 17 18  1  0
 18 19  2  3
 18 20  1  0
 20 21  2  0
 21 22  1  0
 10 23  1  0
 23 24  1  0
 24  7  1  0
 22 13  1  0
 21 16  1  0
  1 25  1  0
  1 26  1  0
  1 27  1  0
  5 28  1  0
  6 29  1  0
  6 30  1  0
  7 31  1  6
  8 32  1  0
  8 33  1  0
  9 34  1  0
  9 35  1  0
 10 36  1  1
 11 37  1  0
 11 38  1  0
 12 39  1  0
 14 40  1  0
 15 41  1  0
 17 42  1  0
 19 43  1  0
 20 44  1  0
 22 45  1  0
 23 46  1  0
 23 47  1  0
 24 48  1  0
 24 49  1  0
M  END
>  <meeko>  (190) 
{"is_sidechain": false}

$$$$

     RDKit          3D

 49 51  0  0  0  0  0  0  0  0999 V2000
   11.8480    2.9980  -57.5610 C   0  0  0  0  0  0  0  0  0  0  0  0
   12.7030    4.3400  -58.3590 S   0  0  0  0  0  0  0  0  0  0  0  0
   13.2820    3.8690  -59.5960 O   0  0  0  0  0  0  0  0  0  0  0  0
   13.4880    5.0320  -57.3630 O   0  0  0  0  0  0  0  0  0  0  0  0
   11.4290    5.3710  -58.7330 N   0  0  0  0  0  0  0  0  0  0  0  0
   10.3790    4.8660  -59.6330 C   0  0  0  0  0  0  0  0  0  0  0  0
    8.9960    5.2670  -59.0850 C   0  0  2  0  0  0  0  0  0  0  0  0
    8.9900    5.3600  -57.5430 C   0  0  0  0  0  0  0  0  0  0  0  0
    8.1790    4.2610  -56.8510 C   0  0  0  0  0  0  0  0  0  0  0  0
    8.4040    2.8950  -57.5090 C   0  0  1  0  0  0  0  0  0  0  0  0
    7.7410    1.7440  -56.7280 C   0  0  0  0  0  0  0  0  0  0  0  0
    8.6540    1.1810  -55.7310 N   0  0  0  0  0  0  0  0  0  0  0  0
    8.0300    0.2810  -54.8530 C   0  0  0  0  0  0  0  0  0  0  0  0
    6.6390    0.1750  -54.7990 C   0  0  0  0  0  0  0  0  0  0  0  0
    6.0320   -0.7290  -53.9280 C   0  0  0  0  0  0  0  0  0  0  0  0
    6.9040   -1.4900  -53.1560 C   0  0  0  0  0  0  0  0  0  0  0  0
    6.6830   -2.4620  -52.2080 N   0  0  0  0  0  0  0  0  0  0  0  0
    7.8770   -2.9300  -51.7270 C   0  0  0  0  0  0  0  0  0  0  0  0
    7.9120   -3.8890  -50.7860 N   0  0  0  0  0  0  0  0  0  0  0  0
    8.8890   -2.2480  -52.3610 C   0  0  0  0  0  0  0  0  0  0  0  0
    8.2830   -1.3420  -53.2670 C   0  0  0  0  0  0  0  0  0  0  0  0
    8.8690   -0.4640  -54.1150 N   0  0  0  0  0  0  0  0  0  0  0  0
    8.0050    2.9070  -58.9980 C   0  0  0  0  0  0  0  0  0  0  0  0
    7.9080    4.3130  -59.5930 C   0  0  0  0  0  0  0  0  0  0  0  0
   11.9217    3.1137  -56.4696 H   0  0  0  0  0  0  0  0  0  0  0  0
   10.7895    3.0081  -57.8602 H   0  0  0  0  0  0  0  0  0  0  0  0
   12.3045    2.0429  -57.8602 H   0  0  0  0  0  0  0  0  0  0  0  0
   11.7690    6.3150  -58.9200 H   0  0  0  0  0  0  0  0  0  0  0  0
   10.5158    5.2986  -60.6351 H   0  0  0  0  0  0  0  0  0  0  0  0
   10.4451    3.7697  -59.6946 H   0  0  0  0  0  0  0  0  0  0  0  0
    8.7703    6.2739  -59.4662 H   0  0  0  0  0  0  0  0  0  0  0  0
   10.0297    5.2959  -57.1895 H   0  0  0  0  0  0  0  0  0  0  0  0
    8.5105    6.3160  -57.2859 H   0  0  0  0  0  0  0  0  0  0  0  0
    8.4835    4.2034  -55.7956 H   0  0  0  0  0  0  0  0  0  0  0  0
    7.1120    4.5137  -56.9386 H   0  0  0  0  0  0  0  0  0  0  0  0
    9.4856    2.6983  -57.4705 H   0  0  0  0  0  0  0  0  0  0  0  0
    6.8452    2.1271  -56.2174 H   0  0  0  0  0  0  0  0  0  0  0  0
    7.4737    0.9501  -57.4409 H   0  0  0  0  0  0  0  0  0  0  0  0
    8.9960    1.9020  -55.0950 H   0  0  0  0  0  0  0  0  0  0  0  0
    6.0174    0.8092  -55.4482 H   0  0  0  0  0  0  0  0  0  0  0  0
    4.9393   -0.8332  -53.8563 H   0  0  0  0  0  0  0  0  0  0  0  0
    5.7750   -2.7770  -51.9040 H   0  0  0  0  0  0  0  0  0  0  0  0
    7.6470   -4.8420  -51.0320 H   0  0  0  0  0  0  0  0  0  0  0  0
    7.7750   -3.6890  -49.7990 H   0  0  0  0  0  0  0  0  0  0  0  0
    9.9684   -2.3809  -52.1957 H   0  0  0  0  0  0  0  0  0  0  0  0
    8.7584    2.3404  -59.5648 H   0  0  0  0  0  0  0  0  0  0  0  0
    7.0039    2.4565  -59.0681 H   0  0  0  0  0  0  0  0  0  0  0  0
    7.9956    4.2353  -60.6867 H   0  0  0  0  0  0  0  0  0  0  0  0
    6.9393    4.7307  -59.2815 H   0  0  0  0  0  0  0  0  0  0  0  0
  1  2  1  0
  2  3  2  0
  2  4  2  0
  2  5  1  0
  5  6  1  0
  6  7  1  0
  7  8  1  0
  8  9  1  0
  9 10  1  0
 10 11  1  0
 11 12  1  0
 12 13  1  0
 13 14  1  0
 14 15  2  0
 15 16  1  0
 16 17  1  0
 17 18  1  0
 18 19  1  0
 18 20  2  0
 20 21  1  0
 21 22  1  0
 10 23  1  0
 23 24  1  0
 24  7  1  0
 22 13  2  0
 21 16  2  0
  1 25  1  0
  1 26  1  0
  1 27  1  0
  5 28  1  0
  6 29  1  0
  6 30  1  0
  7 31  1  1
  8 32  1  0
  8 33  1  0
  9 34  1  0
  9 35  1  0
 10 36  1  1
 11 37  1  0
 11 38  1  0
 12 39  1  0
 14 40  1  0
 15 41  1  0
 17 42  1  0
 19 43  1  0
 19 44  1  0
 20 45  1  0
 23 46  1  0
 23 47  1  0
 24 48  1  0
 24 49  1  0
M  END
>  <meeko>  (191) 
{"is_sidechain": false}

$$$$

     RDKit          3D

 49 51  0  0  0  0  0  0  0  0999 V2000
   11.8510    2.9770  -57.6280 C   0  0  0  0  0  0  0  0  0  0  0  0
   12.7320    4.3400  -58.3630 S   0  0  0  0  0  0  0  0  0  0  0  0
   13.3730    3.8760  -59.5710 O   0  0  0  0  0  0  0  0  0  0  0  0
   13.4700    5.0090  -57.3140 O   0  0  0  0  0  0  0  0  0  0  0  0
   11.4960    5.3790  -58.7890 N   0  0  0  0  0  0  0  0  0  0  0  0
   10.3470    4.8800  -59.5510 C   0  0  0  0  0  0  0  0  0  0  0  0
    9.0450    5.4530  -58.9610 C   0  0  2  0  0  0  0  0  0  0  0  0
    9.0750    5.4320  -57.4190 C   0  0  0  0  0  0  0  0  0  0  0  0
    8.1950    4.3530  -56.7810 C   0  0  0  0  0  0  0  0  0  0  0  0
    8.2100    3.0510  -57.5910 C   0  0  1  0  0  0  0  0  0  0  0  0
    7.4190    1.9270  -56.9010 C   0  0  0  0  0  0  0  0  0  0  0  0
    8.3260    1.1640  -56.0490 N   0  0  0  0  0  0  0  0  0  0  0  0
    7.8520    0.3530  -55.1540 C   0  0  0  0  0  0  0  0  0  0  0  0
    6.3620    0.1190  -54.9110 C   0  0  0  0  0  0  0  0  0  0  0  0
    5.9800   -0.7470  -53.9540 C   0  0  0  0  0  0  0  0  0  0  0  0
    7.0280   -1.3670  -53.2510 C   0  0  0  0  0  0  0  0  0  0  0  0
    6.8730   -2.2710  -52.2410 N   0  0  0  0  0  0  0  0  0  0  0  0
    8.1190   -2.6570  -51.8010 C   0  0  0  0  0  0  0  0  0  0  0  0
    8.2480   -3.5510  -50.8050 N   0  0  0  0  0  0  0  0  0  0  0  0
    9.0740   -1.9800  -52.5370 C   0  0  0  0  0  0  0  0  0  0  0  0
    8.3710   -1.1750  -53.4480 C   0  0  0  0  0  0  0  0  0  0  0  0
    8.8000   -0.3210  -54.3930 N   0  0  0  0  0  0  0  0  0  0  0  0
    7.6730    3.2890  -59.0160 C   0  0  0  0  0  0  0  0  0  0  0  0
    7.7950    4.7380  -59.4910 C   0  0  0  0  0  0  0  0  0  0  0  0
   11.9019    3.0558  -56.5320 H   0  0  0  0  0  0  0  0  0  0  0  0
   10.7993    3.0044  -57.9491 H   0  0  0  0  0  0  0  0  0  0  0  0
   12.3078    2.0293  -57.9491 H   0  0  0  0  0  0  0  0  0  0  0  0
   11.3420    6.1440  -58.1330 H   0  0  0  0  0  0  0  0  0  0  0  0
   10.4412    5.1926  -60.6014 H   0  0  0  0  0  0  0  0  0  0  0  0
   10.3208    3.7818  -59.4936 H   0  0  0  0  0  0  0  0  0  0  0  0
    8.9832    6.4995  -59.2943 H   0  0  0  0  0  0  0  0  0  0  0  0
   10.1134    5.2626  -57.0979 H   0  0  0  0  0  0  0  0  0  0  0  0
    8.6739    6.4004  -57.0852 H   0  0  0  0  0  0  0  0  0  0  0  0
    8.5662    4.1452  -55.7666 H   0  0  0  0  0  0  0  0  0  0  0  0
    7.1609    4.7271  -56.7557 H   0  0  0  0  0  0  0  0  0  0  0  0
    9.2582    2.7235  -57.6539 H   0  0  0  0  0  0  0  0  0  0  0  0
    6.6162    2.3630  -56.2883 H   0  0  0  0  0  0  0  0  0  0  0  0
    6.9746    1.2650  -57.6588 H   0  0  0  0  0  0  0  0  0  0  0  0
    5.6100    0.6521  -55.5112 H   0  0  0  0  0  0  0  0  0  0  0  0
    4.9219   -0.9551  -53.7371 H   0  0  0  0  0  0  0  0  0  0  0  0
    5.9970   -2.5990  -51.8610 H   0  0  0  0  0  0  0  0  0  0  0  0
    9.0780   -3.5960  -50.2220 H   0  0  0  0  0  0  0  0  0  0  0  0
    7.4150   -3.8900  -50.3270 H   0  0  0  0  0  0  0  0  0  0  0  0
   10.1661   -2.0567  -52.4302 H   0  0  0  0  0  0  0  0  0  0  0  0
    9.7670   -0.1190  -54.6020 H   0  0  0  0  0  0  0  0  0  0  0  0
    8.2370    2.6485  -59.7100 H   0  0  0  0  0  0  0  0  0  0  0  0
    6.5997    3.0489  -58.9967 H   0  0  0  0  0  0  0  0  0  0  0  0
    7.8315    4.7421  -60.5904 H   0  0  0  0  0  0  0  0  0  0  0  0
    6.9218    5.2810  -59.1004 H   0  0  0  0  0  0  0  0  0  0  0  0
  1  2  1  0
  2  3  2  0
  2  4  2  0
  2  5  1  0
  5  6  1  0
  6  7  1  0
  7  8  1  0
  8  9  1  0
  9 10  1  0
 10 11  1  0
 11 12  1  0
 12 13  2  0
 13 14  1  0
 14 15  2  0
 15 16  1  0
 16 17  1  0
 17 18  1  0
 18 19  1  0
 18 20  2  0
 20 21  1  0
 21 22  1  0
 10 23  1  0
 23 24  1  0
 24  7  1  0
 22 13  1  0
 21 16  2  0
  1 25  1  0
  1 26  1  0
  1 27  1  0
  5 28  1  0
  6 29  1  0
  6 30  1  0
  7 31  1  6
  8 32  1  0
  8 33  1  0
  9 34  1  0
  9 35  1  0
 10 36  1  1
 11 37  1  0
 11 38  1  0
 14 39  1  0
 15 40  1  0
 17 41  1  0
 19 42  1  0
 19 43  1  0
 20 44  1  0
 22 45  1  0
 23 46  1  0
 23 47  1  0
 24 48  1  0
 24 49  1  0
M  END
>  <meeko>  (192) 
{"is_sidechain": false}

$$$$

     RDKit          3D

 49 51  0  0  0  0  0  0  0  0999 V2000
    5.6530   -4.1130  -50.4490 C   0  0  0  0  0  0  0  0  0  0  0  0
    7.2670   -3.8630  -51.1580 S   0  0  0  0  0  0  0  0  0  0  0  0
    8.2420   -3.7420  -50.0980 O   0  0  0  0  0  0  0  0  0  0  0  0
    7.4340   -4.8020  -52.2450 O   0  0  0  0  0  0  0  0  0  0  0  0
    7.0850   -2.3560  -51.8810 N   0  0  0  0  0  0  0  0  0  0  0  0
    8.2120   -1.8320  -52.6670 C   0  0  0  0  0  0  0  0  0  0  0  0
    7.7850   -0.6290  -53.5220 C   0  0  2  0  0  0  0  0  0  0  0  0
    6.4130   -0.8440  -54.1790 C   0  0  0  0  0  0  0  0  0  0  0  0
    5.9820    0.3770  -54.9910 C   0  0  0  0  0  0  0  0  0  0  0  0
    7.0320    0.7660  -56.0420 C   0  0  1  0  0  0  0  0  0  0  0  0
    6.5740    2.0210  -56.8040 C   0  0  0  0  0  0  0  0  0  0  0  0
    6.8780    1.9030  -58.2270 N   0  0  0  0  0  0  0  0  0  0  0  0
    7.8260    2.6070  -58.7600 C   0  0  0  0  0  0  0  0  0  0  0  0
    8.0160    2.3440  -60.2480 C   0  0  0  0  0  0  0  0  0  0  0  0
    8.9610    3.0180  -60.9290 C   0  0  0  0  0  0  0  0  0  0  0  0
    9.7040    3.9340  -60.1630 C   0  0  0  0  0  0  0  0  0  0  0  0
   10.7000    4.7330  -60.6440 N   0  0  0  0  0  0  0  0  0  0  0  0
   11.1910    5.4930  -59.6070 C   0  0  0  0  0  0  0  0  0  0  0  0
   12.1880    6.3710  -59.8130 N   0  0  0  0  0  0  0  0  0  0  0  0
   10.4870    5.1790  -58.4590 C   0  0  0  0  0  0  0  0  0  0  0  0
    9.5570    4.1920  -58.8250 C   0  0  0  0  0  0  0  0  0  0  0  0
    8.6290    3.5370  -58.1010 N   0  0  0  0  0  0  0  0  0  0  0  0
    8.4040    0.9760  -55.3810 C   0  0  0  0  0  0  0  0  0  0  0  0
    8.8360   -0.2480  -54.5730 C   0  0  0  0  0  0  0  0  0  0  0  0
    5.7287   -4.1013  -49.3517 H   0  0  0  0  0  0  0  0  0  0  0  0
    4.9791   -3.3085  -50.7787 H   0  0  0  0  0  0  0  0  0  0  0  0
    5.2540   -5.0837  -50.7787 H   0  0  0  0  0  0  0  0  0  0  0  0
    6.1590   -2.2720  -52.3020 H   0  0  0  0  0  0  0  0  0  0  0  0
    9.0121   -1.5178  -51.9806 H   0  0  0  0  0  0  0  0  0  0  0  0
    8.5659   -2.6275  -53.3393 H   0  0  0  0  0  0  0  0  0  0  0  0
    7.6974    0.2171  -52.8245 H   0  0  0  0  0  0  0  0  0  0  0  0
    6.4697   -1.7157  -54.8475 H   0  0  0  0  0  0  0  0  0  0  0  0
    5.6716   -1.0078  -53.3831 H   0  0  0  0  0  0  0  0  0  0  0  0
    5.0352    0.1480  -55.5021 H   0  0  0  0  0  0  0  0  0  0  0  0
    5.8641    1.2229  -54.2978 H   0  0  0  0  0  0  0  0  0  0  0  0
    7.1364   -0.0540  -56.7677 H   0  0  0  0  0  0  0  0  0  0  0  0
    5.4885    2.1445  -56.6761 H   0  0  0  0  0  0  0  0  0  0  0  0
    7.1087    2.8934  -56.4003 H   0  0  0  0  0  0  0  0  0  0  0  0
    7.3836    1.6064  -60.7638 H   0  0  0  0  0  0  0  0  0  0  0  0
    9.1388    2.8641  -62.0036 H   0  0  0  0  0  0  0  0  0  0  0  0
   11.0220    4.7780  -61.5990 H   0  0  0  0  0  0  0  0  0  0  0  0
   13.0250    6.3880  -59.2370 H   0  0  0  0  0  0  0  0  0  0  0  0
   11.9870    7.2710  -60.2430 H   0  0  0  0  0  0  0  0  0  0  0  0
   10.6273    5.6151  -57.4589 H   0  0  0  0  0  0  0  0  0  0  0  0
    8.4710    3.7230  -57.1230 H   0  0  0  0  0  0  0  0  0  0  0  0
    9.1516    1.1677  -56.1648 H   0  0  0  0  0  0  0  0  0  0  0  0
    8.3258    1.8307  -54.6930 H   0  0  0  0  0  0  0  0  0  0  0  0
    8.9794   -1.0962  -55.2586 H   0  0  0  0  0  0  0  0  0  0  0  0
    9.7726   -0.0032  -54.0507 H   0  0  0  0  0  0  0  0  0  0  0  0
  1  2  1  0
  2  3  2  0
  2  4  2  0
  2  5  1  0
  5  6  1  0
  6  7  1  0
  7  8  1  0
  8  9  1  0
  9 10  1  0
 10 11  1  0
 11 12  1  0
 12 13  2  0
 13 14  1  0
 14 15  2  0
 15 16  1  0
 16 17  1  0
 17 18  1  0
 18 19  1  0
 18 20  2  0
 20 21  1  0
 21 22  1  0
 10 23  1  0
 23 24  1  0
 24  7  1  0
 22 13  1  0
 21 16  2  0
  1 25  1  0
  1 26  1  0
  1 27  1  0
  5 28  1  0
  6 29  1  0
  6 30  1  0
  7 31  1  6
  8 32  1  0
  8 33  1  0
  9 34  1  0
  9 35  1  0
 10 36  1  1
 11 37  1  0
 11 38  1  0
 14 39  1  0
 15 40  1  0
 17 41  1  0
 19 42  1  0
 19 43  1  0
 20 44  1  0
 22 45  1  0
 23 46  1  0
 23 47  1  0
 24 48  1  0
 24 49  1  0
M  END
>  <meeko>  (193) 
{"is_sidechain": false}

$$$$

     RDKit          3D

 52 55  0  0  0  0  0  0  0  0999 V2000
    7.2120    1.7170  -55.7760 C   0  0  0  0  0  0  0  0  0  0  0  0
    8.5870    1.2260  -55.9020 N   0  0  0  0  0  0  0  0  0  0  0  0
    9.5590    1.9720  -56.6310 C   0  0  0  0  0  0  0  0  0  0  0  0
    9.2480    3.2460  -57.1010 N   0  0  0  0  0  0  0  0  0  0  0  0
   10.2020    4.2810  -57.4740 C   0  0  0  0  0  0  0  0  0  0  0  0
    9.5890    5.2520  -58.5070 C   0  0  2  0  0  0  0  0  0  0  0  0
    8.0900    4.9410  -58.7350 C   0  0  0  0  0  0  0  0  0  0  0  0
    7.7810    4.2500  -60.0640 C   0  0  0  0  0  0  0  0  0  0  0  0
    8.8730    3.2680  -60.4690 C   0  0  1  0  0  0  0  0  0  0  0  0
    8.5330    2.6430  -61.7020 O   0  0  0  0  0  0  0  0  0  0  0  0
   10.2310    3.9580  -60.6270 C   0  0  0  0  0  0  0  0  0  0  0  0
   10.3430    5.2700  -59.8470 C   0  0  0  0  0  0  0  0  0  0  0  0
   10.7870    1.4300  -56.8440 C   0  0  0  0  0  0  0  0  0  0  0  0
   11.1560    0.1260  -56.3280 C   0  0  0  0  0  0  0  0  0  0  0  0
   10.2640   -0.5490  -55.6000 C   0  0  0  0  0  0  0  0  0  0  0  0
   10.4050   -1.7720  -55.0090 N   0  0  0  0  0  0  0  0  0  0  0  0
    9.2640   -1.9800  -54.3950 C   0  0  0  0  0  0  0  0  0  0  0  0
    9.0490   -3.1400  -53.7040 N   0  0  0  0  0  0  0  0  0  0  0  0
    8.2990   -3.3320  -52.5300 C   0  0  0  0  0  0  0  0  0  0  0  0
    8.8760   -2.9620  -51.3050 C   0  0  0  0  0  0  0  0  0  0  0  0
    8.1990   -3.1530  -50.0980 C   0  0  0  0  0  0  0  0  0  0  0  0
    6.9290   -3.7230  -50.0980 C   0  0  0  0  0  0  0  0  0  0  0  0
    6.3400   -4.0970  -51.3030 C   0  0  0  0  0  0  0  0  0  0  0  0
    7.0230   -3.9050  -52.5080 C   0  0  0  0  0  0  0  0  0  0  0  0
    8.2810   -0.8900  -54.5930 C   0  0  0  0  0  0  0  0  0  0  0  0
    8.9420   -0.0110  -55.3480 C   0  0  0  0  0  0  0  0  0  0  0  0
    6.9519    1.8099  -54.7112 H   0  0  0  0  0  0  0  0  0  0  0  0
    7.1280    2.7007  -56.2611 H   0  0  0  0  0  0  0  0  0  0  0  0
    6.5239    1.0090  -56.2611 H   0  0  0  0  0  0  0  0  0  0  0  0
    8.4330    3.6010  -56.6180 H   0  0  0  0  0  0  0  0  0  0  0  0
   10.4893    4.8463  -56.5752 H   0  0  0  0  0  0  0  0  0  0  0  0
   11.0828    3.8001  -57.9245 H   0  0  0  0  0  0  0  0  0  0  0  0
    9.6890    6.2591  -58.0761 H   0  0  0  0  0  0  0  0  0  0  0  0
    7.7468    4.2871  -57.9197 H   0  0  0  0  0  0  0  0  0  0  0  0
    7.5692    5.9097  -58.7573 H   0  0  0  0  0  0  0  0  0  0  0  0
    6.8313    3.7035  -59.9668 H   0  0  0  0  0  0  0  0  0  0  0  0
    7.7186    5.0255  -60.8416 H   0  0  0  0  0  0  0  0  0  0  0  0
    8.9516    2.5196  -59.6666 H   0  0  0  0  0  0  0  0  0  0  0  0
    8.6830    1.6880  -61.6010 H   0  0  0  0  0  0  0  0  0  0  0  0
   11.0136    3.2725  -60.2697 H   0  0  0  0  0  0  0  0  0  0  0  0
   10.3471    4.2041  -61.6928 H   0  0  0  0  0  0  0  0  0  0  0  0
   11.4065    5.4659  -59.6457 H   0  0  0  0  0  0  0  0  0  0  0  0
    9.8846    6.0552  -60.4662 H   0  0  0  0  0  0  0  0  0  0  0  0
   11.5256    1.9995  -57.4273 H   0  0  0  0  0  0  0  0  0  0  0  0
   12.1502   -0.2979  -56.5323 H   0  0  0  0  0  0  0  0  0  0  0  0
    9.8240   -3.7900  -53.7850 H   0  0  0  0  0  0  0  0  0  0  0  0
    9.8802   -2.5132  -51.2953 H   0  0  0  0  0  0  0  0  0  0  0  0
    8.6686   -2.8535  -49.1494 H   0  0  0  0  0  0  0  0  0  0  0  0
    6.3929   -3.8773  -49.1499 H   0  0  0  0  0  0  0  0  0  0  0  0
    5.3351   -4.5445  -51.3070 H   0  0  0  0  0  0  0  0  0  0  0  0
    6.5496   -4.2092  -53.4532 H   0  0  0  0  0  0  0  0  0  0  0  0
    7.2523   -0.8216  -54.2094 H   0  0  0  0  0  0  0  0  0  0  0  0
  1  2  1  0
  2  3  1  0
  3  4  1  0
  4  5  1  0
  5  6  1  0
  6  7  1  0
  7  8  1  0
  8  9  1  0
  9 10  1  0
  9 11  1  0
 11 12  1  0
  3 13  2  0
 13 14  1  0
 14 15  2  0
 15 16  1  0
 16 17  2  0
 17 18  1  0
 18 19  1  0
 19 20  2  0
 20 21  1  0
 21 22  2  0
 22 23  1  0
 23 24  2  0
 17 25  1  0
 25 26  2  0
 26  2  1  0
 12  6  1  0
 26 15  1  0
 24 19  1  0
  1 27  1  0
  1 28  1  0
  1 29  1  0
  4 30  1  0
  5 31  1  0
  5 32  1  0
  6 33  1  6
  7 34  1  0
  7 35  1  0
  8 36  1  0
  8 37  1  0
  9 38  1  6
 10 39  1  0
 11 40  1  0
 11 41  1  0
 12 42  1  0
 12 43  1  0
 13 44  1  0
 14 45  1  0
 18 46  1  0
 20 47  1  0
 21 48  1  0
 22 49  1  0
 23 50  1  0
 24 51  1  0
 25 52  1  0
M  END
>  <meeko>  (194) 
{"is_sidechain": false}

$$$$

     RDKit          3D

 52 55  0  0  0  0  0  0  0  0999 V2000
   11.6020   -0.3920  -56.1020 C   0  0  0  0  0  0  0  0  0  0  0  0
   10.1960   -0.3160  -55.6960 N   0  0  0  0  0  0  0  0  0  0  0  0
    9.6390   -1.3090  -54.8400 C   0  0  0  0  0  0  0  0  0  0  0  0
   10.3860   -2.4340  -54.5020 N   0  0  0  0  0  0  0  0  0  0  0  0
   10.1440   -3.7990  -54.9480 C   0  0  0  0  0  0  0  0  0  0  0  0
   11.2760   -4.2670  -55.8800 C   0  0  2  0  0  0  0  0  0  0  0  0
   11.2450   -3.4650  -57.1960 C   0  0  0  0  0  0  0  0  0  0  0  0
   11.8560   -4.2050  -58.3910 C   0  0  0  0  0  0  0  0  0  0  0  0
   12.9360   -5.2000  -57.9800 C   0  0  1  0  0  0  0  0  0  0  0  0
   14.0020   -4.4770  -57.3650 O   0  0  0  0  0  0  0  0  0  0  0  0
   12.3970   -6.2550  -57.0090 C   0  0  0  0  0  0  0  0  0  0  0  0
   11.2100   -5.7730  -56.1650 C   0  0  0  0  0  0  0  0  0  0  0  0
    8.3740   -1.1470  -54.3720 C   0  0  0  0  0  0  0  0  0  0  0  0
    7.5480   -0.0150  -54.7430 C   0  0  0  0  0  0  0  0  0  0  0  0
    8.0380    0.8910  -55.5920 C   0  0  0  0  0  0  0  0  0  0  0  0
    7.5120    2.0150  -56.1370 N   0  0  0  0  0  0  0  0  0  0  0  0
    8.4120    2.6030  -56.9820 C   0  0  0  0  0  0  0  0  0  0  0  0
    8.1590    3.6830  -57.6480 N   0  0  0  0  0  0  0  0  0  0  0  0
    9.1490    4.2050  -58.4880 C   0  0  0  0  0  0  0  0  0  0  0  0
   10.0890    5.1150  -57.9940 C   0  0  0  0  0  0  0  0  0  0  0  0
   11.0830    5.6290  -58.8290 C   0  0  0  0  0  0  0  0  0  0  0  0
   11.1500    5.2240  -60.1610 C   0  0  0  0  0  0  0  0  0  0  0  0
   10.2290    4.3020  -60.6570 C   0  0  0  0  0  0  0  0  0  0  0  0
    9.2350    3.7910  -59.8200 C   0  0  0  0  0  0  0  0  0  0  0  0
    9.6620    1.7790  -56.9680 C   0  0  0  0  0  0  0  0  0  0  0  0
    9.4050    0.7600  -56.1200 C   0  0  0  0  0  0  0  0  0  0  0  0
   12.2407   -0.4265  -55.2071 H   0  0  0  0  0  0  0  0  0  0  0  0
   11.7619   -1.3001  -56.7018 H   0  0  0  0  0  0  0  0  0  0  0  0
   11.8588    0.4936  -56.7018 H   0  0  0  0  0  0  0  0  0  0  0  0
   11.3730   -2.2020  -54.4770 H   0  0  0  0  0  0  0  0  0  0  0  0
   10.0970   -4.4635  -54.0726 H   0  0  0  0  0  0  0  0  0  0  0  0
    9.1921   -3.8314  -55.4983 H   0  0  0  0  0  0  0  0  0  0  0  0
   12.2283   -4.0794  -55.3624 H   0  0  0  0  0  0  0  0  0  0  0  0
   10.1969   -3.2303  -57.4335 H   0  0  0  0  0  0  0  0  0  0  0  0
   11.8545   -2.5637  -57.0341 H   0  0  0  0  0  0  0  0  0  0  0  0
   11.0560   -4.7503  -58.9132 H   0  0  0  0  0  0  0  0  0  0  0  0
   12.3281   -3.4530  -59.0403 H   0  0  0  0  0  0  0  0  0  0  0  0
   13.2892   -5.7303  -58.8767 H   0  0  0  0  0  0  0  0  0  0  0  0
   14.3760   -5.0450  -56.6690 H   0  0  0  0  0  0  0  0  0  0  0  0
   12.0748   -7.1303  -57.5922 H   0  0  0  0  0  0  0  0  0  0  0  0
   13.2120   -6.4913  -56.3090 H   0  0  0  0  0  0  0  0  0  0  0  0
   10.2780   -5.9905  -56.7074 H   0  0  0  0  0  0  0  0  0  0  0  0
   11.2443   -6.3013  -55.2008 H   0  0  0  0  0  0  0  0  0  0  0  0
    7.9616   -1.9022  -53.6867 H   0  0  0  0  0  0  0  0  0  0  0  0
    6.5339    0.0956  -54.3316 H   0  0  0  0  0  0  0  0  0  0  0  0
    6.5790    2.3540  -55.9760 H   0  0  0  0  0  0  0  0  0  0  0  0
   10.0450    5.4280  -56.9404 H   0  0  0  0  0  0  0  0  0  0  0  0
   11.8123    6.3527  -58.4361 H   0  0  0  0  0  0  0  0  0  0  0  0
   11.9297    5.6318  -60.8211 H   0  0  0  0  0  0  0  0  0  0  0  0
   10.2854    3.9776  -61.7065 H   0  0  0  0  0  0  0  0  0  0  0  0
    8.5148    3.0576  -60.2117 H   0  0  0  0  0  0  0  0  0  0  0  0
   10.5904    1.9640  -57.5282 H   0  0  0  0  0  0  0  0  0  0  0  0
  1  2  1  0
  2  3  1  0
  3  4  1  0
  4  5  1  0
  5  6  1  0
  6  7  1  0
  7  8  1  0
  8  9  1  0
  9 10  1  0
  9 11  1  0
 11 12  1  0
  3 13  2  0
 13 14  1  0
 14 15  2  0
 15 16  1  0
 16 17  1  0
 17 18  2  0
 18 19  1  0
 19 20  2  0
 20 21  1  0
 21 22  2  0
 22 23  1  0
 23 24  2  0
 17 25  1  0
 25 26  2  0
 26  2  1  0
 12  6  1  0
 26 15  1  0
 24 19  1  0
  1 27  1  0
  1 28  1  0
  1 29  1  0
  4 30  1  0
  5 31  1  0
  5 32  1  0
  6 33  1  6
  7 34  1  0
  7 35  1  0
  8 36  1  0
  8 37  1  0
  9 38  1  1
 10 39  1  0
 11 40  1  0
 11 41  1  0
 12 42  1  0
 12 43  1  0
 13 44  1  0
 14 45  1  0
 16 46  1  0
 20 47  1  0
 21 48  1  0
 22 49  1  0
 23 50  1  0
 24 51  1  0
 25 52  1  0
M  END
>  <meeko>  (195) 
{"is_sidechain": false}

$$$$

     RDKit          3D

 52 55  0  0  0  0  0  0  0  0999 V2000
    6.4780    2.3920  -56.8840 C   0  0  0  0  0  0  0  0  0  0  0  0
    7.6660    1.6370  -56.4740 N   0  0  0  0  0  0  0  0  0  0  0  0
    8.9310    1.8900  -57.0850 C   0  0  0  0  0  0  0  0  0  0  0  0
    9.0270    2.7740  -58.1520 N   0  0  0  0  0  0  0  0  0  0  0  0
    9.5070    2.5400  -59.5040 C   0  0  0  0  0  0  0  0  0  0  0  0
   10.7300    3.4190  -59.8290 C   0  0  2  0  0  0  0  0  0  0  0  0
   11.8670    3.2480  -58.8070 C   0  0  0  0  0  0  0  0  0  0  0  0
   13.0390    4.1820  -59.0960 C   0  0  0  0  0  0  0  0  0  0  0  0
   12.5960    5.6400  -59.1770 C   0  0  1  0  0  0  0  0  0  0  0  0
   13.6970    6.4550  -59.5650 O   0  0  0  0  0  0  0  0  0  0  0  0
   11.4760    5.8200  -60.1970 C   0  0  0  0  0  0  0  0  0  0  0  0
   10.2980    4.8950  -59.9080 C   0  0  0  0  0  0  0  0  0  0  0  0
   10.0310    1.2510  -56.6070 C   0  0  0  0  0  0  0  0  0  0  0  0
    9.9690    0.2920  -55.5240 C   0  0  0  0  0  0  0  0  0  0  0  0
    8.7840    0.0080  -54.9810 C   0  0  0  0  0  0  0  0  0  0  0  0
    8.4100   -0.8440  -53.9930 N   0  0  0  0  0  0  0  0  0  0  0  0
    7.0540   -0.7850  -53.8100 C   0  0  0  0  0  0  0  0  0  0  0  0
    6.2840   -1.4250  -52.9930 N   0  0  0  0  0  0  0  0  0  0  0  0
    6.8840   -2.3480  -52.1250 C   0  0  0  0  0  0  0  0  0  0  0  0
    6.8010   -3.7180  -52.3850 C   0  0  0  0  0  0  0  0  0  0  0  0
    7.3980   -4.6380  -51.5220 C   0  0  0  0  0  0  0  0  0  0  0  0
    8.0760   -4.1910  -50.3890 C   0  0  0  0  0  0  0  0  0  0  0  0
    8.1500   -2.8250  -50.1140 C   0  0  0  0  0  0  0  0  0  0  0  0
    7.5510   -1.9080  -50.9790 C   0  0  0  0  0  0  0  0  0  0  0  0
    6.4990    0.2140  -54.7660 C   0  0  0  0  0  0  0  0  0  0  0  0
    7.5630    0.6780  -55.4560 C   0  0  0  0  0  0  0  0  0  0  0  0
    5.9361    2.7364  -55.9908 H   0  0  0  0  0  0  0  0  0  0  0  0
    6.7850    3.2611  -57.4844 H   0  0  0  0  0  0  0  0  0  0  0  0
    5.8215    1.7450  -57.4844 H   0  0  0  0  0  0  0  0  0  0  0  0
    8.3550    3.5270  -58.0940 H   0  0  0  0  0  0  0  0  0  0  0  0
    9.7904    1.4819  -59.6046 H   0  0  0  0  0  0  0  0  0  0  0  0
    8.7004    2.7977  -60.2061 H   0  0  0  0  0  0  0  0  0  0  0  0
   11.1258    3.0921  -60.8019 H   0  0  0  0  0  0  0  0  0  0  0  0
   11.4774    3.4672  -57.8019 H   0  0  0  0  0  0  0  0  0  0  0  0
   12.2323    2.2126  -58.8743 H   0  0  0  0  0  0  0  0  0  0  0  0
   13.7822    4.0800  -58.2915 H   0  0  0  0  0  0  0  0  0  0  0  0
   13.4680    3.9008  -60.0691 H   0  0  0  0  0  0  0  0  0  0  0  0
   12.2276    5.9364  -58.1838 H   0  0  0  0  0  0  0  0  0  0  0  0
   14.5010    5.9110  -59.5040 H   0  0  0  0  0  0  0  0  0  0  0  0
   11.1274    6.8628  -60.1638 H   0  0  0  0  0  0  0  0  0  0  0  0
   11.8735    5.5697  -61.1916 H   0  0  0  0  0  0  0  0  0  0  0  0
    9.8461    5.1847  -58.9479 H   0  0  0  0  0  0  0  0  0  0  0  0
    9.5772    4.9946  -60.7329 H   0  0  0  0  0  0  0  0  0  0  0  0
   11.0083    1.4713  -57.0614 H   0  0  0  0  0  0  0  0  0  0  0  0
   10.8840   -0.1944  -55.1550 H   0  0  0  0  0  0  0  0  0  0  0  0
    9.0420   -1.4440  -53.4900 H   0  0  0  0  0  0  0  0  0  0  0  0
    6.2618   -4.0738  -53.2753 H   0  0  0  0  0  0  0  0  0  0  0  0
    7.3336   -5.7151  -51.7357 H   0  0  0  0  0  0  0  0  0  0  0  0
    8.5526   -4.9150  -49.7118 H   0  0  0  0  0  0  0  0  0  0  0  0
    8.6795   -2.4715  -49.2170 H   0  0  0  0  0  0  0  0  0  0  0  0
    7.6044   -0.8320  -50.7570 H   0  0  0  0  0  0  0  0  0  0  0  0
    5.4464    0.5105  -54.8845 H   0  0  0  0  0  0  0  0  0  0  0  0
  1  2  1  0
  2  3  1  0
  3  4  1  0
  4  5  1  0
  5  6  1  0
  6  7  1  0
  7  8  1  0
  8  9  1  0
  9 10  1  0
  9 11  1  0
 11 12  1  0
  3 13  2  0
 13 14  1  0
 14 15  2  0
 15 16  1  0
 16 17  1  0
 17 18  2  0
 18 19  1  0
 19 20  2  0
 20 21  1  0
 21 22  2  0
 22 23  1  0
 23 24  2  0
 17 25  1  0
 25 26  2  0
 26  2  1  0
 12  6  1  0
 26 15  1  0
 24 19  1  0
  1 27  1  0
  1 28  1  0
  1 29  1  0
  4 30  1  0
  5 31  1  0
  5 32  1  0
  6 33  1  1
  7 34  1  0
  7 35  1  0
  8 36  1  0
  8 37  1  0
  9 38  1  6
 10 39  1  0
 11 40  1  0
 11 41  1  0
 12 42  1  0
 12 43  1  0
 13 44  1  0
 14 45  1  0
 16 46  1  0
 20 47  1  0
 21 48  1  0
 22 49  1  0
 23 50  1  0
 24 51  1  0
 25 52  1  0
M  END
>  <meeko>  (196) 
{"is_sidechain": false}

$$$$

     RDKit          3D

 56 59  0  0  0  0  0  0  0  0999 V2000
    7.8920   -2.6590  -49.8120 C   0  0  0  0  0  0  0  0  0  0  0  0
    7.2500   -3.4950  -50.9190 C   0  0  0  0  0  0  0  0  0  0  0  0
    5.8890   -4.0420  -50.4840 C   0  0  0  0  0  0  0  0  0  0  0  0
    7.1670   -2.7430  -52.2210 C   0  0  0  0  0  0  0  0  0  0  0  0
    6.6150   -3.2320  -53.3110 N   0  0  0  0  0  0  0  0  0  0  0  0
    6.6640   -2.3450  -54.3650 N   0  0  0  0  0  0  0  0  0  0  0  0
    7.2550   -1.2060  -54.0560 C   0  0  0  0  0  0  0  0  0  0  0  0
    7.4330   -0.0810  -54.9940 C   0  0  0  0  0  0  0  0  0  0  0  0
    6.3760    0.4990  -55.7180 C   0  0  0  0  0  0  0  0  0  0  0  0
    6.6030    1.5700  -56.5910 C   0  0  0  0  0  0  0  0  0  0  0  0
    7.8900    2.0900  -56.7370 C   0  0  0  0  0  0  0  0  0  0  0  0
    8.1040    3.2010  -57.6850 C   0  0  0  0  0  0  0  0  0  0  0  0
    8.2620    4.3270  -57.2180 O   0  0  0  0  0  0  0  0  0  0  0  0
    8.1280    2.9320  -59.0410 N   0  0  0  0  0  0  0  0  0  0  0  0
    6.9500    3.2030  -59.8490 C   0  0  0  0  0  0  0  0  0  0  0  0
    7.4080    3.0640  -61.3060 C   0  0  2  0  0  0  0  0  0  0  0  0
    6.2620    2.6310  -62.2190 C   0  0  0  0  0  0  0  0  0  0  0  0
    5.1680    1.8040  -61.6030 C   0  0  2  0  0  0  0  0  0  0  0  0
    4.1750    1.0730  -62.4760 C   0  0  0  0  0  0  0  0  0  0  0  0
    3.7030    2.1840  -61.5750 C   0  0  1  0  0  0  0  0  0  0  0  0
    2.8790    1.8700  -60.3720 C   0  0  0  0  0  0  0  0  0  0  0  0
    8.5530    2.0500  -61.1790 C   0  0  0  0  0  0  0  0  0  0  0  0
    9.2350    2.4380  -59.8620 C   0  0  1  0  0  0  0  0  0  0  0  0
   10.3100    3.5030  -60.0720 C   0  0  0  0  0  0  0  0  0  0  0  0
    8.9590    1.5150  -56.0510 C   0  0  0  0  0  0  0  0  0  0  0  0
    8.7260    0.4470  -55.1800 C   0  0  0  0  0  0  0  0  0  0  0  0
    7.7890   -1.1530  -52.4180 S   0  0  0  0  0  0  0  0  0  0  0  0
    7.5885   -3.0542  -48.8313 H   0  0  0  0  0  0  0  0  0  0  0  0
    8.9871   -2.7077  -49.9040 H   0  0  0  0  0  0  0  0  0  0  0  0
    7.5624   -1.6136  -49.9040 H   0  0  0  0  0  0  0  0  0  0  0  0
    7.9076   -4.3582  -51.0993 H   0  0  0  0  0  0  0  0  0  0  0  0
    5.8364   -4.0631  -49.3855 H   0  0  0  0  0  0  0  0  0  0  0  0
    5.0911   -3.3947  -50.8769 H   0  0  0  0  0  0  0  0  0  0  0  0
    5.7610   -5.0614  -50.8769 H   0  0  0  0  0  0  0  0  0  0  0  0
    5.3560    0.1055  -55.5967 H   0  0  0  0  0  0  0  0  0  0  0  0
    5.7673    2.0014  -57.1615 H   0  0  0  0  0  0  0  0  0  0  0  0
    6.1554    2.4759  -59.6253 H   0  0  0  0  0  0  0  0  0  0  0  0
    6.5381    4.2025  -59.6455 H   0  0  0  0  0  0  0  0  0  0  0  0
    7.7393    3.9984  -61.7825 H   0  0  0  0  0  0  0  0  0  0  0  0
    5.7992    3.5429  -62.6244 H   0  0  0  0  0  0  0  0  0  0  0  0
    6.7283    1.9727  -62.9668 H   0  0  0  0  0  0  0  0  0  0  0  0
    5.8947    1.5471  -60.8182 H   0  0  0  0  0  0  0  0  0  0  0  0
    4.1903    1.2188  -63.5662 H   0  0  0  0  0  0  0  0  0  0  0  0
    3.8964    0.0187  -62.6200 H   0  0  0  0  0  0  0  0  0  0  0  0
    3.1369    3.1155  -61.7225 H   0  0  0  0  0  0  0  0  0  0  0  0
    3.4581    2.0907  -59.4632 H   0  0  0  0  0  0  0  0  0  0  0  0
    1.9658    2.4832  -60.3828 H   0  0  0  0  0  0  0  0  0  0  0  0
    2.6054    0.8046  -60.3828 H   0  0  0  0  0  0  0  0  0  0  0  0
    8.1638    1.0223  -61.1316 H   0  0  0  0  0  0  0  0  0  0  0  0
    9.2397    2.0715  -62.0380 H   0  0  0  0  0  0  0  0  0  0  0  0
    9.7694    1.5983  -59.3937 H   0  0  0  0  0  0  0  0  0  0  0  0
   10.6693    3.8589  -59.0952 H   0  0  0  0  0  0  0  0  0  0  0  0
   11.1495    3.0704  -60.6360 H   0  0  0  0  0  0  0  0  0  0  0  0
    9.8853    4.3465  -60.6360 H   0  0  0  0  0  0  0  0  0  0  0  0
    9.9796    1.8996  -56.1944 H   0  0  0  0  0  0  0  0  0  0  0  0
    9.5705    0.0091  -54.6277 H   0  0  0  0  0  0  0  0  0  0  0  0
  1  2  1  0
  2  3  1  0
  2  4  1  0
  4  5  2  0
  5  6  1  0
  6  7  2  0
  7  8  1  0
  8  9  1  0
  9 10  2  0
 10 11  1  0
 11 12  1  0
 12 13  2  0
 12 14  1  0
 14 15  1  0
 15 16  1  0
 16 17  1  0
 17 18  1  0
 18 19  1  0
 19 20  1  0
 20 21  1  0
 16 22  1  0
 22 23  1  0
 23 24  1  0
 11 25  2  0
 25 26  1  0
  7 27  1  0
 27  4  1  0
 26  8  2  0
 23 14  1  0
 20 18  1  0
  1 28  1  0
  1 29  1  0
  1 30  1  0
  2 31  1  0
  3 32  1  0
  3 33  1  0
  3 34  1  0
  9 35  1  0
 10 36  1  0
 15 37  1  0
 15 38  1  0
 16 39  1  6
 17 40  1  0
 17 41  1  0
 18 42  1  1
 19 43  1  0
 19 44  1  0
 20 45  1  6
 21 46  1  0
 21 47  1  0
 21 48  1  0
 22 49  1  0
 22 50  1  0
 23 51  1  1
 24 52  1  0
 24 53  1  0
 24 54  1  0
 25 55  1  0
 26 56  1  0
M  END
>  <meeko>  (197) 
{"is_sidechain": false}

$$$$

     RDKit          3D

 53 56  0  0  0  0  0  0  0  0999 V2000
   13.2790    4.5710  -58.9150 C   0  0  0  0  0  0  0  0  0  0  0  0
   12.7450    4.1430  -57.5580 C   0  0  0  0  0  0  0  0  0  0  0  0
   11.4480    3.4380  -57.6840 C   0  0  0  0  0  0  0  0  0  0  0  0
   10.5990    3.1280  -56.7270 N   0  0  0  0  0  0  0  0  0  0  0  0
    9.5990    2.4360  -57.3860 C   0  0  0  0  0  0  0  0  0  0  0  0
    8.4810    1.8160  -56.6840 C   0  0  0  0  0  0  0  0  0  0  0  0
    7.1820    1.9050  -57.2140 C   0  0  0  0  0  0  0  0  0  0  0  0
    6.0970    1.3130  -56.5600 C   0  0  0  0  0  0  0  0  0  0  0  0
    6.3020    0.6340  -55.3620 C   0  0  0  0  0  0  0  0  0  0  0  0
    7.5870    0.5650  -54.8140 C   0  0  0  0  0  0  0  0  0  0  0  0
    7.7720   -0.1830  -53.5560 C   0  0  0  0  0  0  0  0  0  0  0  0
    7.4410    0.3700  -52.5080 O   0  0  0  0  0  0  0  0  0  0  0  0
    8.3840   -1.4150  -53.6100 N   0  0  0  0  0  0  0  0  0  0  0  0
    9.8260   -1.5280  -53.5580 C   0  0  0  0  0  0  0  0  0  0  0  0
   10.1270   -3.0280  -53.5830 C   0  0  2  0  0  0  0  0  0  0  0  0
   11.4530   -3.3430  -54.2740 C   0  0  0  0  0  0  0  0  0  0  0  0
   11.2790   -4.2570  -55.4530 C   0  0  2  0  0  0  0  0  0  0  0  0
   12.3420   -5.2720  -55.7910 C   0  0  0  0  0  0  0  0  0  0  0  0
   12.1340   -4.0770  -56.6840 C   0  0  1  0  0  0  0  0  0  0  0  0
   11.5390   -4.2470  -58.0390 C   0  0  0  0  0  0  0  0  0  0  0  0
    8.8950   -3.6100  -54.2930 C   0  0  0  0  0  0  0  0  0  0  0  0
    7.7460   -2.7420  -53.7740 C   0  0  1  0  0  0  0  0  0  0  0  0
    7.1850   -3.4490  -52.5020 C   0  0  0  0  0  0  0  0  0  0  0  0
    6.6320   -2.7090  -51.6380 O   0  0  0  0  0  0  0  0  0  0  0  0
    7.3710   -4.7030  -52.4760 O   0  0  0  0  0  0  0  0  0  0  0  0
    8.6770    1.1370  -55.4730 C   0  0  0  0  0  0  0  0  0  0  0  0
    9.7550    2.4170  -58.7170 N   0  0  0  0  0  0  0  0  0  0  0  0
   10.9550    2.9800  -58.8690 N   0  0  0  0  0  0  0  0  0  0  0  0
   14.1304    5.2534  -58.7754 H   0  0  0  0  0  0  0  0  0  0  0  0
   13.6083    3.6839  -59.4759 H   0  0  0  0  0  0  0  0  0  0  0  0
   12.4848    5.0855  -59.4759 H   0  0  0  0  0  0  0  0  0  0  0  0
   13.4736    3.4694  -57.0832 H   0  0  0  0  0  0  0  0  0  0  0  0
   12.5904    5.0447  -56.9473 H   0  0  0  0  0  0  0  0  0  0  0  0
    7.0168    2.4479  -58.1563 H   0  0  0  0  0  0  0  0  0  0  0  0
    5.0869    1.3834  -56.9898 H   0  0  0  0  0  0  0  0  0  0  0  0
    5.4563    0.1535  -54.8482 H   0  0  0  0  0  0  0  0  0  0  0  0
   10.2809   -1.0314  -54.4277 H   0  0  0  0  0  0  0  0  0  0  0  0
   10.2379   -1.0470  -52.6586 H   0  0  0  0  0  0  0  0  0  0  0  0
   10.2724   -3.4674  -52.5851 H   0  0  0  0  0  0  0  0  0  0  0  0
   11.9039   -2.4012  -54.6201 H   0  0  0  0  0  0  0  0  0  0  0  0
   12.0991   -3.8539  -53.5449 H   0  0  0  0  0  0  0  0  0  0  0  0
   10.1979   -4.2997  -55.2546 H   0  0  0  0  0  0  0  0  0  0  0  0
   13.2488   -5.3450  -55.1727 H   0  0  0  0  0  0  0  0  0  0  0  0
   12.3564   -6.3616  -55.9415 H   0  0  0  0  0  0  0  0  0  0  0  0
   12.7798   -3.2760  -57.0731 H   0  0  0  0  0  0  0  0  0  0  0  0
   10.4855   -4.5480  -57.9417 H   0  0  0  0  0  0  0  0  0  0  0  0
   11.5993   -3.2957  -58.5879 H   0  0  0  0  0  0  0  0  0  0  0  0
   12.0928   -5.0229  -58.5879 H   0  0  0  0  0  0  0  0  0  0  0  0
    8.9921   -3.5231  -55.3853 H   0  0  0  0  0  0  0  0  0  0  0  0
    8.7491   -4.6817  -54.0925 H   0  0  0  0  0  0  0  0  0  0  0  0
    6.8578   -2.6072  -54.4088 H   0  0  0  0  0  0  0  0  0  0  0  0
    9.6864    1.0552  -55.0434 H   0  0  0  0  0  0  0  0  0  0  0  0
   11.3630    3.0200  -59.7960 H   0  0  0  0  0  0  0  0  0  0  0  0
  1  2  1  0
  2  3  1  0
  3  4  2  0
  4  5  1  0
  5  6  1  0
  6  7  2  0
  7  8  1  0
  8  9  2  0
  9 10  1  0
 10 11  1  0
 11 12  2  0
 11 13  1  0
 13 14  1  0
 14 15  1  0
 15 16  1  0
 16 17  1  0
 17 18  1  0
 18 19  1  0
 19 20  1  0
 15 21  1  0
 21 22  1  0
 22 23  1  0
 23 24  2  0
 23 25  1  0
 10 26  2  0
  5 27  2  0
 27 28  1  0
 28  3  1  0
 26  6  1  0
 22 13  1  0
 19 17  1  0
  1 29  1  0
  1 30  1  0
  1 31  1  0
  2 32  1  0
  2 33  1  0
  7 34  1  0
  8 35  1  0
  9 36  1  0
 14 37  1  0
 14 38  1  0
 15 39  1  1
 16 40  1  0
 16 41  1  0
 17 42  1  6
 18 43  1  0
 18 44  1  0
 19 45  1  6
 20 46  1  0
 20 47  1  0
 20 48  1  0
 21 49  1  0
 21 50  1  0
 22 51  1  6
 26 52  1  0
 28 53  1  0
M  CHG  1  25  -1
M  END
>  <meeko>  (198) 
{"is_sidechain": false}

$$$$

     RDKit          3D

 53 56  0  0  0  0  0  0  0  0999 V2000
   13.3570    4.5280  -59.1220 C   0  0  0  0  0  0  0  0  0  0  0  0
   12.2670    3.4980  -59.3660 C   0  0  0  0  0  0  0  0  0  0  0  0
   11.3210    3.4230  -58.2250 C   0  0  0  0  0  0  0  0  0  0  0  0
   11.2700    4.1940  -57.1580 N   0  0  0  0  0  0  0  0  0  0  0  0
   10.2440    3.7350  -56.3580 N   0  0  0  0  0  0  0  0  0  0  0  0
    9.6700    2.7120  -56.9650 C   0  0  0  0  0  0  0  0  0  0  0  0
    8.5740    1.8770  -56.4910 C   0  0  0  0  0  0  0  0  0  0  0  0
    7.3320    1.8980  -57.1380 C   0  0  0  0  0  0  0  0  0  0  0  0
    6.2480    1.1870  -56.6150 C   0  0  0  0  0  0  0  0  0  0  0  0
    6.3940    0.4730  -55.4240 C   0  0  0  0  0  0  0  0  0  0  0  0
    7.6310    0.4490  -54.7720 C   0  0  0  0  0  0  0  0  0  0  0  0
    7.7570   -0.2890  -53.4950 C   0  0  0  0  0  0  0  0  0  0  0  0
    7.3560    0.2720  -52.4750 O   0  0  0  0  0  0  0  0  0  0  0  0
    8.3700   -1.5340  -53.4790 N   0  0  0  0  0  0  0  0  0  0  0  0
    9.8150   -1.6120  -53.6050 C   0  0  0  0  0  0  0  0  0  0  0  0
   10.1480   -3.1000  -53.6220 C   0  0  2  0  0  0  0  0  0  0  0  0
   11.4610   -3.4810  -54.3090 C   0  0  0  0  0  0  0  0  0  0  0  0
   11.3390   -4.4350  -55.4650 C   0  0  2  0  0  0  0  0  0  0  0  0
   12.5210   -5.3020  -55.8280 C   0  0  0  0  0  0  0  0  0  0  0  0
   12.0910   -4.1950  -56.7530 C   0  0  1  0  0  0  0  0  0  0  0  0
   11.4470   -4.5100  -58.0590 C   0  0  0  0  0  0  0  0  0  0  0  0
    8.8800   -3.7310  -54.2130 C   0  0  0  0  0  0  0  0  0  0  0  0
    7.7460   -2.8810  -53.6300 C   0  0  1  0  0  0  0  0  0  0  0  0
    7.2320   -3.5820  -52.3310 C   0  0  0  0  0  0  0  0  0  0  0  0
    6.7080   -2.8510  -51.4470 O   0  0  0  0  0  0  0  0  0  0  0  0
    7.3570   -4.8470  -52.3140 O   0  0  0  0  0  0  0  0  0  0  0  0
    8.7280    1.0890  -55.3440 C   0  0  0  0  0  0  0  0  0  0  0  0
   10.3390    2.4760  -58.1410 N   0  0  0  0  0  0  0  0  0  0  0  0
   13.4990    4.6622  -58.0395 H   0  0  0  0  0  0  0  0  0  0  0  0
   14.2974    4.1810  -59.5749 H   0  0  0  0  0  0  0  0  0  0  0  0
   13.0637    5.4866  -59.5749 H   0  0  0  0  0  0  0  0  0  0  0  0
   11.7105    3.7753  -60.2735 H   0  0  0  0  0  0  0  0  0  0  0  0
   12.7438    2.5136  -59.4829 H   0  0  0  0  0  0  0  0  0  0  0  0
    7.2087    2.4782  -58.0644 H   0  0  0  0  0  0  0  0  0  0  0  0
    5.2818    1.1900  -57.1408 H   0  0  0  0  0  0  0  0  0  0  0  0
    5.5370   -0.0700  -54.9990 H   0  0  0  0  0  0  0  0  0  0  0  0
   10.1448   -1.1345  -54.5394 H   0  0  0  0  0  0  0  0  0  0  0  0
   10.3232   -1.0916  -52.7798 H   0  0  0  0  0  0  0  0  0  0  0  0
   10.3757   -3.4854  -52.6172 H   0  0  0  0  0  0  0  0  0  0  0  0
   11.9283   -2.5573  -54.6810 H   0  0  0  0  0  0  0  0  0  0  0  0
   12.0562   -4.0067  -53.5478 H   0  0  0  0  0  0  0  0  0  0  0  0
   10.2818   -4.6052  -55.2132 H   0  0  0  0  0  0  0  0  0  0  0  0
   13.4615   -5.2132  -55.2644 H   0  0  0  0  0  0  0  0  0  0  0  0
   12.6871   -6.3841  -55.9356 H   0  0  0  0  0  0  0  0  0  0  0  0
   12.5939   -3.3321  -57.2139 H   0  0  0  0  0  0  0  0  0  0  0  0
   10.4718   -4.9870  -57.8814 H   0  0  0  0  0  0  0  0  0  0  0  0
   11.3022   -3.5810  -58.6299 H   0  0  0  0  0  0  0  0  0  0  0  0
   12.0915   -5.1946  -58.6299 H   0  0  0  0  0  0  0  0  0  0  0  0
    8.8885   -3.6735  -55.3115 H   0  0  0  0  0  0  0  0  0  0  0  0
    8.7814   -4.7989  -53.9685 H   0  0  0  0  0  0  0  0  0  0  0  0
    6.8348   -2.7706  -54.2363 H   0  0  0  0  0  0  0  0  0  0  0  0
    9.7237    0.9744  -54.8907 H   0  0  0  0  0  0  0  0  0  0  0  0
   10.1730    1.6970  -58.7840 H   0  0  0  0  0  0  0  0  0  0  0  0
  1  2  1  0
  2  3  1  0
  3  4  2  0
  4  5  1  0
  5  6  2  0
  6  7  1  0
  7  8  2  0
  8  9  1  0
  9 10  2  0
 10 11  1  0
 11 12  1  0
 12 13  2  0
 12 14  1  0
 14 15  1  0
 15 16  1  0
 16 17  1  0
 17 18  1  0
 18 19  1  0
 19 20  1  0
 20 21  1  0
 16 22  1  0
 22 23  1  0
 23 24  1  0
 24 25  2  0
 24 26  1  0
 11 27  2  0
  6 28  1  0
 28  3  1  0
 27  7  1  0
 23 14  1  0
 20 18  1  0
  1 29  1  0
  1 30  1  0
  1 31  1  0
  2 32  1  0
  2 33  1  0
  8 34  1  0
  9 35  1  0
 10 36  1  0
 15 37  1  0
 15 38  1  0
 16 39  1  1
 17 40  1  0
 17 41  1  0
 18 42  1  6
 19 43  1  0
 19 44  1  0
 20 45  1  6
 21 46  1  0
 21 47  1  0
 21 48  1  0
 22 49  1  0
 22 50  1  0
 23 51  1  6
 27 52  1  0
 28 53  1  0
M  CHG  1  26  -1
M  END
>  <meeko>  (199) 
{"is_sidechain": false}

$$$$

     RDKit          3D

 53 56  0  0  0  0  0  0  0  0999 V2000
   13.0090    5.5400  -59.4980 C   0  0  0  0  0  0  0  0  0  0  0  0
   12.9750    4.0630  -59.1370 C   0  0  0  0  0  0  0  0  0  0  0  0
   11.5910    3.5460  -59.0240 C   0  0  0  0  0  0  0  0  0  0  0  0
   10.7540    3.5000  -60.0650 N   0  0  0  0  0  0  0  0  0  0  0  0
    9.6370    2.9960  -59.4880 N   0  0  0  0  0  0  0  0  0  0  0  0
    9.8570    2.7130  -58.1580 C   0  0  0  0  0  0  0  0  0  0  0  0
    8.8310    2.1610  -57.2830 C   0  0  0  0  0  0  0  0  0  0  0  0
    7.4840    2.2200  -57.6510 C   0  0  0  0  0  0  0  0  0  0  0  0
    6.5200    1.5690  -56.8840 C   0  0  0  0  0  0  0  0  0  0  0  0
    6.9080    0.8330  -55.7620 C   0  0  0  0  0  0  0  0  0  0  0  0
    8.2570    0.7730  -55.3740 C   0  0  0  0  0  0  0  0  0  0  0  0
    8.5950   -0.0790  -54.2020 C   0  0  0  0  0  0  0  0  0  0  0  0
    8.5320    0.4580  -53.0910 O   0  0  0  0  0  0  0  0  0  0  0  0
    8.8930   -1.4280  -54.3360 N   0  0  0  0  0  0  0  0  0  0  0  0
   10.2630   -1.8150  -54.6110 C   0  0  0  0  0  0  0  0  0  0  0  0
   10.3580   -3.2800  -54.1970 C   0  0  2  0  0  0  0  0  0  0  0  0
   11.4970   -4.0110  -54.9060 C   0  0  0  0  0  0  0  0  0  0  0  0
   11.0790   -4.5650  -56.2370 C   0  0  2  0  0  0  0  0  0  0  0  0
   11.4130   -5.9880  -56.6070 C   0  0  0  0  0  0  0  0  0  0  0  0
   12.1150   -4.8480  -57.2980 C   0  0  1  0  0  0  0  0  0  0  0  0
   11.8240   -4.5450  -58.7270 C   0  0  0  0  0  0  0  0  0  0  0  0
    8.9630   -3.8070  -54.5400 C   0  0  0  0  0  0  0  0  0  0  0  0
    8.0280   -2.6330  -54.2130 C   0  0  1  0  0  0  0  0  0  0  0  0
    7.3230   -2.9080  -52.8550 C   0  0  0  0  0  0  0  0  0  0  0  0
    7.6410   -4.0220  -52.3220 O   0  0  0  0  0  0  0  0  0  0  0  0
    6.5270   -2.0260  -52.4340 O   0  0  0  0  0  0  0  0  0  0  0  0
    9.1940    1.5040  -56.0990 C   0  0  0  0  0  0  0  0  0  0  0  0
   11.0810    3.0860  -57.8380 N   0  0  0  0  0  0  0  0  0  0  0  0
   13.0229    6.1422  -58.5776 H   0  0  0  0  0  0  0  0  0  0  0  0
   13.9123    5.7524  -60.0888 H   0  0  0  0  0  0  0  0  0  0  0  0
   12.1165    5.7937  -60.0888 H   0  0  0  0  0  0  0  0  0  0  0  0
   13.5026    3.4953  -59.9177 H   0  0  0  0  0  0  0  0  0  0  0  0
   13.4611    3.9436  -58.1575 H   0  0  0  0  0  0  0  0  0  0  0  0
    8.7620    2.8800  -60.0170 H   0  0  0  0  0  0  0  0  0  0  0  0
    7.1842    2.7816  -58.5481 H   0  0  0  0  0  0  0  0  0  0  0  0
    5.4575    1.6344  -57.1610 H   0  0  0  0  0  0  0  0  0  0  0  0
    6.1489    0.2944  -55.1757 H   0  0  0  0  0  0  0  0  0  0  0  0
   10.4878   -1.7018  -55.6818 H   0  0  0  0  0  0  0  0  0  0  0  0
   10.9837   -1.1873  -54.0665 H   0  0  0  0  0  0  0  0  0  0  0  0
   10.6103   -3.4320  -53.1372 H   0  0  0  0  0  0  0  0  0  0  0  0
   12.3269   -3.3059  -55.0615 H   0  0  0  0  0  0  0  0  0  0  0  0
   11.8006   -4.8562  -54.2707 H   0  0  0  0  0  0  0  0  0  0  0  0
   10.1544   -3.9710  -56.1891 H   0  0  0  0  0  0  0  0  0  0  0  0
   11.9641   -6.6250  -55.8996 H   0  0  0  0  0  0  0  0  0  0  0  0
   10.8329   -6.8607  -56.9415 H   0  0  0  0  0  0  0  0  0  0  0  0
   13.1656   -4.5628  -57.4555 H   0  0  0  0  0  0  0  0  0  0  0  0
   11.0632   -3.7528  -58.7863 H   0  0  0  0  0  0  0  0  0  0  0  0
   12.7447   -4.2071  -59.2250 H   0  0  0  0  0  0  0  0  0  0  0  0
   11.4492   -5.4514  -59.2250 H   0  0  0  0  0  0  0  0  0  0  0  0
    8.8973   -4.0735  -55.6052 H   0  0  0  0  0  0  0  0  0  0  0  0
    8.7070   -4.7190  -53.9807 H   0  0  0  0  0  0  0  0  0  0  0  0
    7.1712   -2.4799  -54.8856 H   0  0  0  0  0  0  0  0  0  0  0  0
   10.2314    1.5668  -55.7386 H   0  0  0  0  0  0  0  0  0  0  0  0
  1  2  1  0
  2  3  1  0
  3  4  2  0
  4  5  1  0
  5  6  1  0
  6  7  1  0
  7  8  2  0
  8  9  1  0
  9 10  2  0
 10 11  1  0
 11 12  1  0
 12 13  2  0
 12 14  1  0
 14 15  1  0
 15 16  1  0
 16 17  1  0
 17 18  1  0
 18 19  1  0
 19 20  1  0
 20 21  1  0
 16 22  1  0
 22 23  1  0
 23 24  1  0
 24 25  2  0
 24 26  1  0
 11 27  2  0
  6 28  2  0
 28  3  1  0
 27  7  1  0
 23 14  1  0
 20 18  1  0
  1 29  1  0
  1 30  1  0
  1 31  1  0
  2 32  1  0
  2 33  1  0
  5 34  1  0
  8 35  1  0
  9 36  1  0
 10 37  1  0
 15 38  1  0
 15 39  1  0
 16 40  1  1
 17 41  1  0
 17 42  1  0
 18 43  1  6
 19 44  1  0
 19 45  1  0
 20 46  1  1
 21 47  1  0
 21 48  1  0
 21 49  1  0
 22 50  1  0
 22 51  1  0
 23 52  1  6
 27 53  1  0
M  CHG  1  26  -1
M  END
>  <meeko>  (200) 
{"is_sidechain": false}

$$$$

     RDKit          3D

 57 60  0  0  0  0  0  0  0  0999 V2000
    8.0020   -2.6740  -49.9170 C   0  0  0  0  0  0  0  0  0  0  0  0
    8.8300   -2.9120  -51.1690 C   0  0  0  0  0  0  0  0  0  0  0  0
    8.2140   -2.2680  -52.3600 C   0  0  0  0  0  0  0  0  0  0  0  0
    8.6330   -1.1780  -52.9670 N   0  0  0  0  0  0  0  0  0  0  0  0
    7.7320   -0.9910  -53.9920 C   0  0  0  0  0  0  0  0  0  0  0  0
    7.8330    0.1290  -54.9220 C   0  0  0  0  0  0  0  0  0  0  0  0
    9.0620    0.7680  -55.1490 C   0  0  0  0  0  0  0  0  0  0  0  0
    9.1510    1.8410  -56.0380 C   0  0  0  0  0  0  0  0  0  0  0  0
    8.0030    2.2930  -56.6990 C   0  0  0  0  0  0  0  0  0  0  0  0
    8.1430    3.4020  -57.6570 C   0  0  0  0  0  0  0  0  0  0  0  0
    7.7550    4.5130  -57.3030 O   0  0  0  0  0  0  0  0  0  0  0  0
    8.6380    3.1310  -58.9210 N   0  0  0  0  0  0  0  0  0  0  0  0
   10.0300    2.7400  -59.0700 C   0  0  0  0  0  0  0  0  0  0  0  0
   10.4050    3.1750  -60.4880 C   0  0  2  0  0  0  0  0  0  0  0  0
   10.8540    4.6460  -60.5200 C   0  0  0  0  0  0  0  0  0  0  0  0
   11.7190    5.0010  -59.3430 C   0  0  1  0  0  0  0  0  0  0  0  0
   13.2020    4.7220  -59.3960 C   0  0  0  0  0  0  0  0  0  0  0  0
   12.7110    6.1460  -59.3580 C   0  0  1  0  0  0  0  0  0  0  0  0
   12.9130    7.0350  -60.5390 C   0  0  0  0  0  0  0  0  0  0  0  0
    9.0920    2.9220  -61.2370 C   0  0  0  0  0  0  0  0  0  0  0  0
    7.9920    3.2970  -60.2280 C   0  0  1  0  0  0  0  0  0  0  0  0
    6.7630    2.4200  -60.4390 C   0  0  0  0  0  0  0  0  0  0  0  0
    6.7750    1.6560  -56.4980 C   0  0  0  0  0  0  0  0  0  0  0  0
    5.3240    2.1780  -57.2740 Cl  0  0  0  0  0  0  0  0  0  0  0  0
    6.6930    0.5820  -55.6060 C   0  0  0  0  0  0  0  0  0  0  0  0
    6.7780   -1.9320  -54.0460 N   0  0  0  0  0  0  0  0  0  0  0  0
    7.1000   -2.7240  -53.0090 N   0  0  0  0  0  0  0  0  0  0  0  0
    6.2960   -3.8780  -52.7020 C   0  0  0  0  0  0  0  0  0  0  0  0
    8.6233   -2.8526  -49.0270 H   0  0  0  0  0  0  0  0  0  0  0  0
    7.6398   -1.6354  -49.9089 H   0  0  0  0  0  0  0  0  0  0  0  0
    7.1436   -3.3618  -49.9089 H   0  0  0  0  0  0  0  0  0  0  0  0
    9.8362   -2.4942  -51.0170 H   0  0  0  0  0  0  0  0  0  0  0  0
    8.8795   -3.9960  -51.3494 H   0  0  0  0  0  0  0  0  0  0  0  0
    9.9628    0.4204  -54.6220 H   0  0  0  0  0  0  0  0  0  0  0  0
   10.1200    2.3294  -56.2183 H   0  0  0  0  0  0  0  0  0  0  0  0
   10.6588    3.2532  -58.3276 H   0  0  0  0  0  0  0  0  0  0  0  0
   10.1790    1.6616  -58.9120 H   0  0  0  0  0  0  0  0  0  0  0  0
   11.2595    2.6403  -60.9283 H   0  0  0  0  0  0  0  0  0  0  0  0
   11.4236    4.8226  -61.4443 H   0  0  0  0  0  0  0  0  0  0  0  0
    9.9527    5.2753  -60.4789 H   0  0  0  0  0  0  0  0  0  0  0  0
   10.8773    4.7355  -58.6864 H   0  0  0  0  0  0  0  0  0  0  0  0
   13.7118    4.2933  -58.5206 H   0  0  0  0  0  0  0  0  0  0  0  0
   13.8599    4.1454  -60.0629 H   0  0  0  0  0  0  0  0  0  0  0  0
   12.8650    7.0256  -58.7157 H   0  0  0  0  0  0  0  0  0  0  0  0
   13.1445    8.0540  -60.1955 H   0  0  0  0  0  0  0  0  0  0  0  0
   13.7475    6.6542  -61.1461 H   0  0  0  0  0  0  0  0  0  0  0  0
   11.9959    7.0522  -61.1461 H   0  0  0  0  0  0  0  0  0  0  0  0
    9.0284    3.5552  -62.1342 H   0  0  0  0  0  0  0  0  0  0  0  0
    9.0031    1.8820  -61.5842 H   0  0  0  0  0  0  0  0  0  0  0  0
    7.6083    4.3224  -60.3344 H   0  0  0  0  0  0  0  0  0  0  0  0
    6.3506    2.1257  -59.4626 H   0  0  0  0  0  0  0  0  0  0  0  0
    6.0041    2.9818  -61.0033 H   0  0  0  0  0  0  0  0  0  0  0  0
    7.0475    1.5197  -61.0033 H   0  0  0  0  0  0  0  0  0  0  0  0
    5.7252    0.0867  -55.4383 H   0  0  0  0  0  0  0  0  0  0  0  0
    6.2176   -3.9905  -51.6106 H   0  0  0  0  0  0  0  0  0  0  0  0
    5.2911   -3.7492  -53.1304 H   0  0  0  0  0  0  0  0  0  0  0  0
    6.7649   -4.7761  -53.1304 H   0  0  0  0  0  0  0  0  0  0  0  0
  1  2  1  0
  2  3  1  0
  3  4  2  0
  4  5  1  0
  5  6  1  0
  6  7  1  0
  7  8  2  0
  8  9  1  0
  9 10  1  0
 10 11  2  0
 10 12  1  0
 12 13  1  0
 13 14  1  0
 14 15  1  0
 15 16  1  0
 16 17  1  0
 17 18  1  0
 18 19  1  0
 14 20  1  0
 20 21  1  0
 21 22  1  0
  9 23  2  0
 23 24  1  0
 23 25  1  0
  5 26  2  0
 26 27  1  0
 27 28  1  0
 27  3  1  0
 25  6  2  0
 21 12  1  0
 18 16  1  0
  1 29  1  0
  1 30  1  0
  1 31  1  0
  2 32  1  0
  2 33  1  0
  7 34  1  0
  8 35  1  0
 13 36  1  0
 13 37  1  0
 14 38  1  6
 15 39  1  0
 15 40  1  0
 16 41  1  1
 17 42  1  0
 17 43  1  0
 18 44  1  1
 19 45  1  0
 19 46  1  0
 19 47  1  0
 20 48  1  0
 20 49  1  0
 21 50  1  6
 22 51  1  0
 22 52  1  0
 22 53  1  0
 25 54  1  0
 28 55  1  0
 28 56  1  0
 28 57  1  0
M  END
>  <meeko>  (201) 
{"is_sidechain": false}

$$$$

     RDKit          3D

 41 43  0  0  0  0  0  0  0  0999 V2000
    7.8860   -2.7850  -49.9510 C   0  0  0  0  0  0  0  0  0  0  0  0
    8.7830   -2.8560  -51.1760 C   0  0  0  0  0  0  0  0  0  0  0  0
    8.1300   -2.2480  -52.3630 C   0  0  0  0  0  0  0  0  0  0  0  0
    8.4750   -1.1530  -53.0030 N   0  0  0  0  0  0  0  0  0  0  0  0
    7.5430   -1.0460  -54.0120 C   0  0  0  0  0  0  0  0  0  0  0  0
    7.5610    0.0510  -54.9740 C   0  0  0  0  0  0  0  0  0  0  0  0
    6.3800    0.4560  -55.6080 C   0  0  0  0  0  0  0  0  0  0  0  0
    6.3930    1.5060  -56.5270 C   0  0  0  0  0  0  0  0  0  0  0  0
    7.5870    2.1640  -56.8260 C   0  0  0  0  0  0  0  0  0  0  0  0
    8.7740    1.7730  -56.2050 C   0  0  0  0  0  0  0  0  0  0  0  0
   10.0070    2.3280  -56.4040 O   0  0  0  0  0  0  0  0  0  0  0  0
   10.1220    3.7390  -56.2640 C   0  0  0  0  0  0  0  0  0  0  0  0
   11.0050    4.2470  -57.4060 C   0  0  1  0  0  0  0  0  0  0  0  0
   12.2320    3.3830  -57.6780 C   0  0  0  0  0  0  0  0  0  0  0  0
   12.5620    3.7130  -59.1210 C   0  0  0  0  0  0  0  0  0  0  0  0
   11.2030    3.7360  -59.7900 C   0  0  0  0  0  0  0  0  0  0  0  0
   10.2730    4.2590  -58.7310 N   0  0  0  0  0  0  0  0  0  0  0  0
    8.7540    0.7210  -55.2830 C   0  0  0  0  0  0  0  0  0  0  0  0
    6.6370   -2.0370  -54.0150 N   0  0  0  0  0  0  0  0  0  0  0  0
    7.0310   -2.7800  -52.9690 N   0  0  0  0  0  0  0  0  0  0  0  0
    8.5028   -2.8338  -49.0415 H   0  0  0  0  0  0  0  0  0  0  0  0
    7.3239   -1.8396  -49.9625 H   0  0  0  0  0  0  0  0  0  0  0  0
    7.1821   -3.6302  -49.9625 H   0  0  0  0  0  0  0  0  0  0  0  0
    9.7181   -2.3160  -50.9664 H   0  0  0  0  0  0  0  0  0  0  0  0
    8.9840   -3.9148  -51.3964 H   0  0  0  0  0  0  0  0  0  0  0  0
    5.4344   -0.0577  -55.3798 H   0  0  0  0  0  0  0  0  0  0  0  0
    5.4587    1.8163  -57.0177 H   0  0  0  0  0  0  0  0  0  0  0  0
    7.5924    2.9910  -57.5513 H   0  0  0  0  0  0  0  0  0  0  0  0
    9.1270    4.2042  -56.3238 H   0  0  0  0  0  0  0  0  0  0  0  0
   10.5644    3.9957  -55.2901 H   0  0  0  0  0  0  0  0  0  0  0  0
   11.2935    5.2504  -57.0597 H   0  0  0  0  0  0  0  0  0  0  0  0
   13.0629    3.6532  -57.0097 H   0  0  0  0  0  0  0  0  0  0  0  0
   12.0566    2.3109  -57.5056 H   0  0  0  0  0  0  0  0  0  0  0  0
   13.0565    4.6925  -59.1985 H   0  0  0  0  0  0  0  0  0  0  0  0
   13.2568    2.9943  -59.5800 H   0  0  0  0  0  0  0  0  0  0  0  0
   11.2111    4.4030  -60.6647 H   0  0  0  0  0  0  0  0  0  0  0  0
   10.9014    2.7451  -60.1603 H   0  0  0  0  0  0  0  0  0  0  0  0
    9.4160    3.6900  -58.7080 H   0  0  0  0  0  0  0  0  0  0  0  0
    9.9810    5.2200  -58.9560 H   0  0  0  0  0  0  0  0  0  0  0  0
    9.6894    0.4141  -54.7922 H   0  0  0  0  0  0  0  0  0  0  0  0
    6.5130   -3.6180  -52.7280 H   0  0  0  0  0  0  0  0  0  0  0  0
  1  2  1  0
  2  3  1  0
  3  4  2  0
  4  5  1  0
  5  6  1  0
  6  7  2  0
  7  8  1  0
  8  9  2  0
  9 10  1  0
 10 11  1  0
 11 12  1  0
 12 13  1  0
 13 14  1  0
 14 15  1  0
 15 16  1  0
 16 17  1  0
 10 18  2  0
  5 19  2  0
 19 20  1  0
 20  3  1  0
 18  6  1  0
 17 13  1  0
  1 21  1  0
  1 22  1  0
  1 23  1  0
  2 24  1  0
  2 25  1  0
  7 26  1  0
  8 27  1  0
  9 28  1  0
 12 29  1  0
 12 30  1  0
 13 31  1  1
 14 32  1  0
 14 33  1  0
 15 34  1  0
 15 35  1  0
 16 36  1  0
 16 37  1  0
 17 38  1  0
 17 39  1  0
 18 40  1  0
 20 41  1  0
M  CHG  1  17   1
M  END
>  <meeko>  (202) 
{"is_sidechain": false}

$$$$

     RDKit          3D

 41 43  0  0  0  0  0  0  0  0999 V2000
    8.2000   -2.9510  -50.0900 C   0  0  0  0  0  0  0  0  0  0  0  0
    8.8980   -2.7870  -51.4300 C   0  0  0  0  0  0  0  0  0  0  0  0
    8.0810   -1.9780  -52.3720 C   0  0  0  0  0  0  0  0  0  0  0  0
    6.7680   -1.8770  -52.4130 N   0  0  0  0  0  0  0  0  0  0  0  0
    6.4410   -1.0120  -53.4240 N   0  0  0  0  0  0  0  0  0  0  0  0
    7.5620   -0.6070  -53.9960 C   0  0  0  0  0  0  0  0  0  0  0  0
    7.6060    0.2870  -55.1370 C   0  0  0  0  0  0  0  0  0  0  0  0
    6.4640    0.7250  -55.8140 C   0  0  0  0  0  0  0  0  0  0  0  0
    6.5550    1.8040  -56.7020 C   0  0  0  0  0  0  0  0  0  0  0  0
    7.7650    2.4850  -56.8630 C   0  0  0  0  0  0  0  0  0  0  0  0
    8.8880    2.0410  -56.1760 C   0  0  0  0  0  0  0  0  0  0  0  0
   10.0560    2.7440  -56.1810 O   0  0  0  0  0  0  0  0  0  0  0  0
   10.9270    2.3130  -57.2460 C   0  0  0  0  0  0  0  0  0  0  0  0
   11.1190    3.3830  -58.3440 C   0  0  1  0  0  0  0  0  0  0  0  0
   10.3510    3.0580  -59.6240 C   0  0  0  0  0  0  0  0  0  0  0  0
   10.1360    4.4170  -60.2650 C   0  0  0  0  0  0  0  0  0  0  0  0
    9.7450    5.2890  -59.0920 C   0  0  0  0  0  0  0  0  0  0  0  0
   10.5560    4.7450  -57.9570 N   0  0  0  0  0  0  0  0  0  0  0  0
    8.8360    0.8870  -55.4140 C   0  0  0  0  0  0  0  0  0  0  0  0
    8.6210   -1.1980  -53.3630 N   0  0  0  0  0  0  0  0  0  0  0  0
    8.9218   -2.7814  -49.2774 H   0  0  0  0  0  0  0  0  0  0  0  0
    7.3811   -2.2208  -50.0113 H   0  0  0  0  0  0  0  0  0  0  0  0
    7.7919   -3.9695  -50.0113 H   0  0  0  0  0  0  0  0  0  0  0  0
    9.8636   -2.2846  -51.2714 H   0  0  0  0  0  0  0  0  0  0  0  0
    9.0445   -3.7852  -51.8683 H   0  0  0  0  0  0  0  0  0  0  0  0
    5.4984    0.2244  -55.6499 H   0  0  0  0  0  0  0  0  0  0  0  0
    5.6701    2.1171  -57.2755 H   0  0  0  0  0  0  0  0  0  0  0  0
    7.8273    3.3612  -57.5251 H   0  0  0  0  0  0  0  0  0  0  0  0
   11.9107    2.0712  -56.8173 H   0  0  0  0  0  0  0  0  0  0  0  0
   10.4572    1.4383  -57.7196 H   0  0  0  0  0  0  0  0  0  0  0  0
   12.2101    3.3955  -58.4828 H   0  0  0  0  0  0  0  0  0  0  0  0
   10.9418    2.4027  -60.2810 H   0  0  0  0  0  0  0  0  0  0  0  0
    9.4100    2.5211  -59.4336 H   0  0  0  0  0  0  0  0  0  0  0  0
   11.0598    4.7816  -60.7379 H   0  0  0  0  0  0  0  0  0  0  0  0
    9.3818    4.4040  -61.0657 H   0  0  0  0  0  0  0  0  0  0  0  0
    9.9978    6.3420  -59.2850 H   0  0  0  0  0  0  0  0  0  0  0  0
    8.6639    5.2705  -58.8897 H   0  0  0  0  0  0  0  0  0  0  0  0
   11.3150    5.4210  -57.7500 H   0  0  0  0  0  0  0  0  0  0  0  0
    9.9990    4.7160  -57.0930 H   0  0  0  0  0  0  0  0  0  0  0  0
    9.7643    0.4421  -55.0263 H   0  0  0  0  0  0  0  0  0  0  0  0
    9.6010   -1.0680  -53.5650 H   0  0  0  0  0  0  0  0  0  0  0  0
  1  2  1  0
  2  3  1  0
  3  4  2  0
  4  5  1  0
  5  6  2  0
  6  7  1  0
  7  8  2  0
  8  9  1  0
  9 10  2  0
 10 11  1  0
 11 12  1  0
 12 13  1  0
 13 14  1  0
 14 15  1  0
 15 16  1  0
 16 17  1  0
 17 18  1  0
 11 19  2  0
  6 20  1  0
 20  3  1  0
 19  7  1  0
 18 14  1  0
  1 21  1  0
  1 22  1  0
  1 23  1  0
  2 24  1  0
  2 25  1  0
  8 26  1  0
  9 27  1  0
 10 28  1  0
 13 29  1  0
 13 30  1  0
 14 31  1  6
 15 32  1  0
 15 33  1  0
 16 34  1  0
 16 35  1  0
 17 36  1  0
 17 37  1  0
 18 38  1  0
 18 39  1  0
 19 40  1  0
 20 41  1  0
M  CHG  1  18   1
M  END
>  <meeko>  (203) 
{"is_sidechain": false}

$$$$

     RDKit          3D

 41 43  0  0  0  0  0  0  0  0999 V2000
    3.4190    0.7680  -63.2230 C   0  0  0  0  0  0  0  0  0  0  0  0
    2.9790    1.3180  -61.8770 C   0  0  0  0  0  0  0  0  0  0  0  0
    4.1250    1.8060  -61.0690 C   0  0  0  0  0  0  0  0  0  0  0  0
    4.0950    1.8830  -59.7340 N   0  0  0  0  0  0  0  0  0  0  0  0
    5.3050    2.3960  -59.4680 N   0  0  0  0  0  0  0  0  0  0  0  0
    6.0460    2.5690  -60.6070 C   0  0  0  0  0  0  0  0  0  0  0  0
    7.4100    3.0840  -60.6500 C   0  0  0  0  0  0  0  0  0  0  0  0
    8.2940    2.6040  -61.6220 C   0  0  0  0  0  0  0  0  0  0  0  0
    9.6030    3.0810  -61.6890 C   0  0  0  0  0  0  0  0  0  0  0  0
   10.0560    4.0230  -60.7640 C   0  0  0  0  0  0  0  0  0  0  0  0
    9.2010    4.4820  -59.7630 C   0  0  0  0  0  0  0  0  0  0  0  0
    9.5240    5.3570  -58.7630 O   0  0  0  0  0  0  0  0  0  0  0  0
    9.0590    5.0880  -57.4350 C   0  0  0  0  0  0  0  0  0  0  0  0
   10.2090    4.5500  -56.5630 C   0  0  1  0  0  0  0  0  0  0  0  0
   10.0060    3.1150  -56.0980 C   0  0  0  0  0  0  0  0  0  0  0  0
   10.6340    2.2780  -57.2010 C   0  0  0  0  0  0  0  0  0  0  0  0
   11.8810    3.0580  -57.5650 C   0  0  0  0  0  0  0  0  0  0  0  0
   11.4800    4.4880  -57.3920 N   0  0  0  0  0  0  0  0  0  0  0  0
    7.8770    4.0270  -59.7230 C   0  0  0  0  0  0  0  0  0  0  0  0
    5.3030    2.2170  -61.6380 N   0  0  0  0  0  0  0  0  0  0  0  0
    4.0992   -0.0823  -63.0670 H   0  0  0  0  0  0  0  0  0  0  0  0
    2.5369    0.4329  -63.7883 H   0  0  0  0  0  0  0  0  0  0  0  0
    3.9395    1.5551  -63.7883 H   0  0  0  0  0  0  0  0  0  0  0  0
    2.2834    2.1532  -62.0458 H   0  0  0  0  0  0  0  0  0  0  0  0
    2.4963    0.5015  -61.3199 H   0  0  0  0  0  0  0  0  0  0  0  0
    5.5490    2.6130  -58.5110 H   0  0  0  0  0  0  0  0  0  0  0  0
    7.9537    1.8434  -62.3401 H   0  0  0  0  0  0  0  0  0  0  0  0
   10.2807    2.7135  -62.4736 H   0  0  0  0  0  0  0  0  0  0  0  0
   11.0865    4.4028  -60.8247 H   0  0  0  0  0  0  0  0  0  0  0  0
    8.6716    6.0170  -56.9913 H   0  0  0  0  0  0  0  0  0  0  0  0
    8.2622    4.3311  -57.4820 H   0  0  0  0  0  0  0  0  0  0  0  0
   10.2552    5.2294  -55.6992 H   0  0  0  0  0  0  0  0  0  0  0  0
   10.5130    2.9399  -55.1376 H   0  0  0  0  0  0  0  0  0  0  0  0
    8.9466    2.8699  -55.9319 H   0  0  0  0  0  0  0  0  0  0  0  0
   10.8909    1.2730  -56.8350 H   0  0  0  0  0  0  0  0  0  0  0  0
    9.9610    2.1194  -58.0565 H   0  0  0  0  0  0  0  0  0  0  0  0
   12.7124    2.8014  -56.8920 H   0  0  0  0  0  0  0  0  0  0  0  0
   12.2339    2.8387  -58.5835 H   0  0  0  0  0  0  0  0  0  0  0  0
   12.2310    5.0320  -56.9440 H   0  0  0  0  0  0  0  0  0  0  0  0
   11.3140    4.9510  -58.3000 H   0  0  0  0  0  0  0  0  0  0  0  0
    7.1936    4.4149  -58.9533 H   0  0  0  0  0  0  0  0  0  0  0  0
  1  2  1  0
  2  3  1  0
  3  4  2  0
  4  5  1  0
  5  6  1  0
  6  7  1  0
  7  8  2  0
  8  9  1  0
  9 10  2  0
 10 11  1  0
 11 12  1  0
 12 13  1  0
 13 14  1  0
 14 15  1  0
 15 16  1  0
 16 17  1  0
 17 18  1  0
 11 19  2  0
  6 20  2  0
 20  3  1  0
 19  7  1  0
 18 14  1  0
  1 21  1  0
  1 22  1  0
  1 23  1  0
  2 24  1  0
  2 25  1  0
  5 26  1  0
  8 27  1  0
  9 28  1  0
 10 29  1  0
 13 30  1  0
 13 31  1  0
 14 32  1  1
 15 33  1  0
 15 34  1  0
 16 35  1  0
 16 36  1  0
 17 37  1  0
 17 38  1  0
 18 39  1  0
 18 40  1  0
 19 41  1  0
M  CHG  1  18   1
M  END
>  <meeko>  (204) 
{"is_sidechain": false}

$$$$

     RDKit          3D

 45 47  0  0  0  0  0  0  0  0999 V2000
    5.7440   -4.0710  -50.3620 C   0  0  0  0  0  0  0  0  0  0  0  0
    7.2660   -4.0480  -50.3700 C   0  0  0  0  0  0  0  0  0  0  0  0
    7.8310   -2.6580  -50.6560 C   0  0  0  0  0  0  0  0  0  0  0  0
    7.8890   -2.3090  -52.1380 C   0  0  0  0  0  0  0  0  0  0  0  0
    8.2230   -3.1230  -52.9890 O   0  0  0  0  0  0  0  0  0  0  0  0
    7.5470   -0.9830  -52.3540 N   0  0  0  0  0  0  0  0  0  0  0  0
    7.4820   -0.2970  -53.5860 C   0  0  0  0  0  0  0  0  0  0  0  0
    6.2080   -0.1140  -54.1390 C   0  0  0  0  0  0  0  0  0  0  0  0
    6.0480    0.5530  -55.3550 C   0  0  0  0  0  0  0  0  0  0  0  0
    7.1640    1.0430  -56.0290 C   0  0  0  0  0  0  0  0  0  0  0  0
    8.4500    0.8710  -55.4980 C   0  0  0  0  0  0  0  0  0  0  0  0
    9.6090    1.3890  -56.2210 C   0  0  0  0  0  0  0  0  0  0  0  0
   10.8100    0.7900  -56.2510 N   0  0  0  0  0  0  0  0  0  0  0  0
   11.5740    1.6310  -57.0540 O   0  0  0  0  0  0  0  0  0  0  0  0
   10.7680    2.6730  -57.4270 C   0  0  0  0  0  0  0  0  0  0  0  0
   11.2850    3.6470  -58.2250 N   0  0  0  0  0  0  0  0  0  0  0  0
   12.6520    4.0970  -57.9500 C   0  0  0  0  0  0  0  0  0  0  0  0
   13.2140    4.8650  -59.1450 C   0  0  0  0  0  0  0  0  0  0  0  0
   12.2860    5.9970  -59.5690 C   0  0  0  0  0  0  0  0  0  0  0  0
   10.8880    5.4570  -59.8440 C   0  0  0  0  0  0  0  0  0  0  0  0
   10.3410    4.6890  -58.6420 C   0  0  0  0  0  0  0  0  0  0  0  0
    9.5560    2.5630  -56.9410 N   0  0  0  0  0  0  0  0  0  0  0  0
    8.5960    0.1970  -54.2710 C   0  0  0  0  0  0  0  0  0  0  0  0
    5.3828   -4.0765  -49.3230 H   0  0  0  0  0  0  0  0  0  0  0  0
    5.3611   -3.1785  -50.8786 H   0  0  0  0  0  0  0  0  0  0  0  0
    5.3882   -4.9746  -50.8786 H   0  0  0  0  0  0  0  0  0  0  0  0
    7.6285   -4.3800  -49.3860 H   0  0  0  0  0  0  0  0  0  0  0  0
    7.6051   -4.7174  -51.1743 H   0  0  0  0  0  0  0  0  0  0  0  0
    7.1969   -1.9153  -50.1497 H   0  0  0  0  0  0  0  0  0  0  0  0
    8.8666   -2.6514  -50.2853 H   0  0  0  0  0  0  0  0  0  0  0  0
    7.3260   -0.4360  -51.5330 H   0  0  0  0  0  0  0  0  0  0  0  0
    5.3244   -0.4999  -53.6096 H   0  0  0  0  0  0  0  0  0  0  0  0
    5.0428    0.6912  -55.7798 H   0  0  0  0  0  0  0  0  0  0  0  0
    7.0352    1.5695  -56.9862 H   0  0  0  0  0  0  0  0  0  0  0  0
   12.6460    4.7542  -57.0679 H   0  0  0  0  0  0  0  0  0  0  0  0
   13.2851    3.2170  -57.7635 H   0  0  0  0  0  0  0  0  0  0  0  0
   14.1914    5.2882  -58.8701 H   0  0  0  0  0  0  0  0  0  0  0  0
   13.3128    4.1659  -59.9885 H   0  0  0  0  0  0  0  0  0  0  0  0
   12.2346    6.7453  -58.7644 H   0  0  0  0  0  0  0  0  0  0  0  0
   12.6792    6.4585  -60.4868 H   0  0  0  0  0  0  0  0  0  0  0  0
   10.2163    6.2992  -60.0665 H   0  0  0  0  0  0  0  0  0  0  0  0
   10.9452    4.7672  -60.6989 H   0  0  0  0  0  0  0  0  0  0  0  0
   10.1818    5.3881  -57.8078 H   0  0  0  0  0  0  0  0  0  0  0  0
    9.3901    4.2144  -58.9259 H   0  0  0  0  0  0  0  0  0  0  0  0
    9.6005    0.0570  -53.8452 H   0  0  0  0  0  0  0  0  0  0  0  0
  1  2  1  0
  2  3  1  0
  3  4  1  0
  4  5  2  0
  4  6  1  0
  6  7  1  0
  7  8  2  0
  8  9  1  0
  9 10  2  0
 10 11  1  0
 11 12  1  0
 12 13  2  0
 13 14  1  0
 14 15  1  0
 15 16  1  0
 16 17  1  0
 17 18  1  0
 18 19  1  0
 19 20  1  0
 20 21  1  0
 15 22  2  0
 11 23  2  0
 23  7  1  0
 22 12  1  0
 21 16  1  0
  1 24  1  0
  1 25  1  0
  1 26  1  0
  2 27  1  0
  2 28  1  0
  3 29  1  0
  3 30  1  0
  6 31  1  0
  8 32  1  0
  9 33  1  0
 10 34  1  0
 17 35  1  0
 17 36  1  0
 18 37  1  0
 18 38  1  0
 19 39  1  0
 19 40  1  0
 20 41  1  0
 20 42  1  0
 21 43  1  0
 21 44  1  0
 23 45  1  0
M  END
>  <meeko>  (205) 
{"is_sidechain": false}

$$$$

     RDKit          3D

 59 62  0  0  0  0  0  0  0  0999 V2000
   11.9020   -4.0030  -58.3330 C   0  0  0  0  0  0  0  0  0  0  0  0
   12.0030   -4.2740  -56.8700 C   0  0  2  0  0  0  0  0  0  0  0  0
   11.1600   -5.3510  -56.2390 C   0  0  0  0  0  0  0  0  0  0  0  0
   10.8680   -3.8990  -55.9480 C   0  0  1  0  0  0  0  0  0  0  0  0
   11.1760   -3.3050  -54.6050 C   0  0  0  0  0  0  0  0  0  0  0  0
   10.5830   -1.9060  -54.4510 C   0  0  2  0  0  0  0  0  0  0  0  0
    9.0530   -1.8960  -54.5190 C   0  0  0  0  0  0  0  0  0  0  0  0
    8.7200   -0.4370  -54.8460 C   0  0  1  0  0  0  0  0  0  0  0  0
    8.5280    0.4060  -53.5870 C   0  0  0  0  0  0  0  0  0  0  0  0
    9.8710    0.0200  -55.6250 N   0  0  0  0  0  0  0  0  0  0  0  0
    9.7840    1.1390  -56.4380 C   0  0  0  0  0  0  0  0  0  0  0  0
   10.5290    1.2770  -57.4050 O   0  0  0  0  0  0  0  0  0  0  0  0
    8.6670    2.1300  -56.1060 C   0  0  2  0  0  0  0  0  0  0  0  0
    7.4410    1.7860  -56.9400 C   0  0  0  0  0  0  0  0  0  0  0  0
    7.6050    2.7710  -58.0700 C   0  0  0  0  0  0  0  0  0  0  0  0
    6.8960    2.5750  -59.3610 C   0  0  0  0  0  0  0  0  0  0  0  0
    5.7080    1.8280  -59.3920 C   0  0  0  0  0  0  0  0  0  0  0  0
    5.0320    1.6310  -60.5990 C   0  0  0  0  0  0  0  0  0  0  0  0
    5.5440    2.1740  -61.7720 C   0  0  0  0  0  0  0  0  0  0  0  0
    4.8980    1.9700  -62.9260 F   0  0  0  0  0  0  0  0  0  0  0  0
    6.7160    2.9180  -61.7640 C   0  0  0  0  0  0  0  0  0  0  0  0
    7.3830    3.1360  -60.5560 C   0  0  0  0  0  0  0  0  0  0  0  0
    8.5720    3.8140  -60.5820 O   0  0  0  0  0  0  0  0  0  0  0  0
    9.6420    2.9720  -60.9980 C   0  0  0  0  0  0  0  0  0  0  0  0
    9.3190    1.6600  -60.9750 F   0  0  0  0  0  0  0  0  0  0  0  0
   10.0250    3.3080  -62.2490 F   0  0  0  0  0  0  0  0  0  0  0  0
   10.7040    3.1610  -60.1780 F   0  0  0  0  0  0  0  0  0  0  0  0
    8.3740    3.7900  -57.8340 N   0  0  0  0  0  0  0  0  0  0  0  0
    8.8770    3.6040  -56.4550 C   0  0  2  0  0  0  0  0  0  0  0  0
   10.2850    4.1570  -56.3280 C   0  0  0  0  0  0  0  0  0  0  0  0
   10.9610   -0.9460  -55.5780 C   0  0  0  0  0  0  0  0  0  0  0  0
   11.5219   -2.9830  -58.4916 H   0  0  0  0  0  0  0  0  0  0  0  0
   12.8964   -4.0994  -58.7933 H   0  0  0  0  0  0  0  0  0  0  0  0
   11.2132   -4.7267  -58.7933 H   0  0  0  0  0  0  0  0  0  0  0  0
   13.0796   -4.0516  -56.9080 H   0  0  0  0  0  0  0  0  0  0  0  0
   10.4652   -5.9383  -56.8573 H   0  0  0  0  0  0  0  0  0  0  0  0
   11.3665   -6.2405  -55.6256 H   0  0  0  0  0  0  0  0  0  0  0  0
    9.9721   -3.2648  -56.0193 H   0  0  0  0  0  0  0  0  0  0  0  0
   10.7576   -3.9565  -53.8237 H   0  0  0  0  0  0  0  0  0  0  0  0
   12.2690   -3.2240  -54.5108 H   0  0  0  0  0  0  0  0  0  0  0  0
   10.9846   -1.5952  -53.4752 H   0  0  0  0  0  0  0  0  0  0  0  0
    8.6900   -2.5690  -55.3097 H   0  0  0  0  0  0  0  0  0  0  0  0
    8.5802   -2.2458  -53.5894 H   0  0  0  0  0  0  0  0  0  0  0  0
    7.7701   -0.3417  -55.3925 H   0  0  0  0  0  0  0  0  0  0  0  0
    8.6718   -0.2252  -52.6977 H   0  0  0  0  0  0  0  0  0  0  0  0
    9.2627    1.2246  -53.5783 H   0  0  0  0  0  0  0  0  0  0  0  0
    7.5113    0.8257  -53.5783 H   0  0  0  0  0  0  0  0  0  0  0  0
    8.5986    2.0309  -55.0126 H   0  0  0  0  0  0  0  0  0  0  0  0
    7.4699    0.7463  -57.2979 H   0  0  0  0  0  0  0  0  0  0  0  0
    6.4831    1.8533  -56.4034 H   0  0  0  0  0  0  0  0  0  0  0  0
    5.3077    1.3962  -58.4629 H   0  0  0  0  0  0  0  0  0  0  0  0
    4.0989    1.0489  -60.6210 H   0  0  0  0  0  0  0  0  0  0  0  0
    7.1162    3.3324  -62.7011 H   0  0  0  0  0  0  0  0  0  0  0  0
    8.3273    4.1825  -55.6979 H   0  0  0  0  0  0  0  0  0  0  0  0
   10.5443    4.2589  -55.2639 H   0  0  0  0  0  0  0  0  0  0  0  0
   10.9938    3.4705  -56.8141 H   0  0  0  0  0  0  0  0  0  0  0  0
   10.3371    5.1424  -56.8141 H   0  0  0  0  0  0  0  0  0  0  0  0
   11.0436   -1.4839  -56.5339 H   0  0  0  0  0  0  0  0  0  0  0  0
   11.9350   -0.4651  -55.4048 H   0  0  0  0  0  0  0  0  0  0  0  0
  1  2  1  0
  2  3  1  0
  3  4  1  0
  4  5  1  0
  5  6  1  0
  6  7  1  0
  7  8  1  0
  8  9  1  0
  8 10  1  0
 10 11  1  0
 11 12  2  0
 11 13  1  0
 13 14  1  0
 14 15  1  0
 15 16  1  0
 16 17  1  0
 17 18  2  0
 18 19  1  0
 19 20  1  0
 19 21  2  0
 21 22  1  0
 22 23  1  0
 23 24  1  0
 24 25  1  0
 24 26  1  0
 24 27  1  0
 15 28  2  0
 28 29  1  0
 29 30  1  0
 10 31  1  0
  4  2  1  0
 31  6  1  0
 29 13  1  0
 22 16  2  0
  1 32  1  0
  1 33  1  0
  1 34  1  0
  2 35  1  1
  3 36  1  0
  3 37  1  0
  4 38  1  6
  5 39  1  0
  5 40  1  0
  6 41  1  1
  7 42  1  0
  7 43  1  0
  8 44  1  6
  9 45  1  0
  9 46  1  0
  9 47  1  0
 13 48  1  1
 14 49  1  0
 14 50  1  0
 17 51  1  0
 18 52  1  0
 21 53  1  0
 29 54  1  1
 30 55  1  0
 30 56  1  0
 30 57  1  0
 31 58  1  0
 31 59  1  0
M  END
>  <meeko>  (206) 
{"is_sidechain": false}

$$$$

     RDKit          3D

 59 62  0  0  0  0  0  0  0  0999 V2000
   11.9120   -4.0250  -58.4730 C   0  0  0  0  0  0  0  0  0  0  0  0
   12.0690   -4.5660  -57.0940 C   0  0  2  0  0  0  0  0  0  0  0  0
   11.2710   -5.7680  -56.6560 C   0  0  0  0  0  0  0  0  0  0  0  0
   10.9570   -4.4070  -56.0850 C   0  0  1  0  0  0  0  0  0  0  0  0
   11.2880   -4.0880  -54.6560 C   0  0  0  0  0  0  0  0  0  0  0  0
   10.3520   -3.0290  -54.0720 C   0  0  2  0  0  0  0  0  0  0  0  0
    8.8630   -3.3040  -54.3140 C   0  0  0  0  0  0  0  0  0  0  0  0
    8.2160   -1.9260  -54.1460 C   0  0  1  0  0  0  0  0  0  0  0  0
    7.8330   -1.6420  -52.6950 C   0  0  0  0  0  0  0  0  0  0  0  0
    9.2450   -1.0050  -54.6260 N   0  0  0  0  0  0  0  0  0  0  0  0
    8.9290    0.2950  -54.9880 C   0  0  0  0  0  0  0  0  0  0  0  0
    8.5440    1.1140  -54.1520 O   0  0  0  0  0  0  0  0  0  0  0  0
    9.0790    0.6530  -56.4690 C   0  0  2  0  0  0  0  0  0  0  0  0
   10.3100    1.4810  -56.7700 C   0  0  0  0  0  0  0  0  0  0  0  0
    9.9960    2.5450  -57.5230 C   0  0  0  0  0  0  0  0  0  0  0  0
   10.9170    3.5470  -58.0880 C   0  0  0  0  0  0  0  0  0  0  0  0
   12.1700    3.7650  -57.4840 C   0  0  0  0  0  0  0  0  0  0  0  0
   13.0770    4.6900  -58.0100 C   0  0  0  0  0  0  0  0  0  0  0  0
   12.7450    5.4030  -59.1530 C   0  0  0  0  0  0  0  0  0  0  0  0
   13.6210    6.2780  -59.6630 F   0  0  0  0  0  0  0  0  0  0  0  0
   11.5230    5.2140  -59.7800 C   0  0  0  0  0  0  0  0  0  0  0  0
   10.6090    4.3050  -59.2390 C   0  0  0  0  0  0  0  0  0  0  0  0
    9.4310    4.1180  -59.9170 O   0  0  0  0  0  0  0  0  0  0  0  0
    9.5970    3.1920  -60.9860 C   0  0  0  0  0  0  0  0  0  0  0  0
   10.4240    2.1700  -60.6830 F   0  0  0  0  0  0  0  0  0  0  0  0
   10.0990    3.8490  -62.0560 F   0  0  0  0  0  0  0  0  0  0  0  0
    8.3930    2.6860  -61.3420 F   0  0  0  0  0  0  0  0  0  0  0  0
    8.6310    2.6170  -57.7180 N   0  0  0  0  0  0  0  0  0  0  0  0
    7.9260    1.5130  -57.0570 C   0  0  2  0  0  0  0  0  0  0  0  0
    6.9430    2.1150  -56.0590 C   0  0  0  0  0  0  0  0  0  0  0  0
   10.5440   -1.6570  -54.7220 C   0  0  0  0  0  0  0  0  0  0  0  0
   11.6058   -2.9698  -58.4202 H   0  0  0  0  0  0  0  0  0  0  0  0
   12.8697   -4.1025  -59.0085 H   0  0  0  0  0  0  0  0  0  0  0  0
   11.1446   -4.6032  -59.0085 H   0  0  0  0  0  0  0  0  0  0  0  0
   13.1384   -4.3096  -57.1197 H   0  0  0  0  0  0  0  0  0  0  0  0
   10.5690   -6.2463  -57.3549 H   0  0  0  0  0  0  0  0  0  0  0  0
   11.5177   -6.7517  -56.2300 H   0  0  0  0  0  0  0  0  0  0  0  0
   10.0503   -3.7885  -56.0113 H   0  0  0  0  0  0  0  0  0  0  0  0
   11.2010   -5.0071  -54.0579 H   0  0  0  0  0  0  0  0  0  0  0  0
   12.3124   -3.6885  -54.6264 H   0  0  0  0  0  0  0  0  0  0  0  0
   10.6108   -3.0564  -53.0032 H   0  0  0  0  0  0  0  0  0  0  0  0
    8.6949   -3.6969  -55.3276 H   0  0  0  0  0  0  0  0  0  0  0  0
    8.4489   -4.0593  -53.6298 H   0  0  0  0  0  0  0  0  0  0  0  0
    7.2697   -1.8354  -54.6994 H   0  0  0  0  0  0  0  0  0  0  0  0
    8.5325   -2.1607  -52.0229 H   0  0  0  0  0  0  0  0  0  0  0  0
    7.8803   -0.5590  -52.5085 H   0  0  0  0  0  0  0  0  0  0  0  0
    6.8104   -2.0018  -52.5085 H   0  0  0  0  0  0  0  0  0  0  0  0
    9.1100   -0.3497  -56.9204 H   0  0  0  0  0  0  0  0  0  0  0  0
   11.3246    1.2421  -56.4186 H   0  0  0  0  0  0  0  0  0  0  0  0
   12.4404    3.1971  -56.5816 H   0  0  0  0  0  0  0  0  0  0  0  0
   14.0486    4.8516  -57.5202 H   0  0  0  0  0  0  0  0  0  0  0  0
   11.2751    5.7737  -60.6940 H   0  0  0  0  0  0  0  0  0  0  0  0
    8.3340    2.9150  -58.6430 H   0  0  0  0  0  0  0  0  0  0  0  0
    7.2985    0.8680  -57.6896 H   0  0  0  0  0  0  0  0  0  0  0  0
    7.2855    1.9052  -55.0349 H   0  0  0  0  0  0  0  0  0  0  0  0
    6.8862    3.2030  -56.2110 H   0  0  0  0  0  0  0  0  0  0  0  0
    5.9481    1.6711  -56.2110 H   0  0  0  0  0  0  0  0  0  0  0  0
   10.8437   -1.7672  -55.7746 H   0  0  0  0  0  0  0  0  0  0  0  0
   11.3347   -1.0741  -54.2270 H   0  0  0  0  0  0  0  0  0  0  0  0
  1  2  1  0
  2  3  1  0
  3  4  1  0
  4  5  1  0
  5  6  1  0
  6  7  1  0
  7  8  1  0
  8  9  1  0
  8 10  1  0
 10 11  1  0
 11 12  2  0
 11 13  1  0
 13 14  1  0
 14 15  2  0
 15 16  1  0
 16 17  1  0
 17 18  2  0
 18 19  1  0
 19 20  1  0
 19 21  2  0
 21 22  1  0
 22 23  1  0
 23 24  1  0
 24 25  1  0
 24 26  1  0
 24 27  1  0
 15 28  1  0
 28 29  1  0
 29 30  1  0
 10 31  1  0
  4  2  1  0
 31  6  1  0
 29 13  1  0
 22 16  2  0
  1 32  1  0
  1 33  1  0
  1 34  1  0
  2 35  1  1
  3 36  1  0
  3 37  1  0
  4 38  1  6
  5 39  1  0
  5 40  1  0
  6 41  1  1
  7 42  1  0
  7 43  1  0
  8 44  1  6
  9 45  1  0
  9 46  1  0
  9 47  1  0
 13 48  1  6
 14 49  1  0
 17 50  1  0
 18 51  1  0
 21 52  1  0
 28 53  1  0
 29 54  1  6
 30 55  1  0
 30 56  1  0
 30 57  1  0
 31 58  1  0
 31 59  1  0
M  END
>  <meeko>  (207) 
{"is_sidechain": false}

$$$$

     RDKit          3D

 78 82  0  0  0  0  0  0  0  0999 V2000
   13.3900    4.4460  -59.1560 C   0  0  0  0  0  0  0  0  0  0  0  0
   12.3830    5.5850  -59.0710 C   0  0  0  0  0  0  0  0  0  0  0  0
   11.3830    5.5950  -60.2280 C   0  0  0  0  0  0  0  0  0  0  0  0
   10.3650    4.5080  -60.1430 C   0  0  0  0  0  0  0  0  0  0  0  0
   10.0280    3.8110  -61.2290 N   0  0  0  0  0  0  0  0  0  0  0  0
    8.8640    2.7160  -60.7540 S   0  0  0  0  0  0  0  0  0  0  0  0
    8.9000    3.2290  -59.1160 C   0  0  0  0  0  0  0  0  0  0  0  0
    8.0410    2.6600  -58.0770 C   0  0  0  0  0  0  0  0  0  0  0  0
    6.6420    2.7530  -58.1030 C   0  0  0  0  0  0  0  0  0  0  0  0
    5.8690    2.1250  -57.1200 C   0  0  0  0  0  0  0  0  0  0  0  0
    6.4820    1.3720  -56.1190 C   0  0  0  0  0  0  0  0  0  0  0  0
    7.8740    1.2490  -56.0950 C   0  0  0  0  0  0  0  0  0  0  0  0
    8.5110    0.4240  -55.0360 C   0  0  0  0  0  0  0  0  0  0  0  0
    9.6750    0.6710  -54.7380 O   0  0  0  0  0  0  0  0  0  0  0  0
    7.7770   -0.6000  -54.4180 N   0  0  0  0  0  0  0  0  0  0  0  0
    6.9130   -0.2220  -53.2950 C   0  0  0  0  0  0  0  0  0  0  0  0
    6.7150   -1.3930  -52.3280 C   0  0  0  0  0  0  0  0  0  0  0  0
    7.9870   -2.1940  -51.9770 C   0  0  1  0  0  0  0  0  0  0  0  0
    7.9160   -2.6730  -50.5060 C   0  0  0  0  0  0  0  0  0  0  0  0
    7.0910   -3.9410  -50.3380 C   0  0  0  0  0  0  0  0  0  0  0  0
    7.5960   -5.0390  -50.1390 O   0  0  0  0  0  0  0  0  0  0  0  0
    5.7370   -3.7330  -50.4650 N   0  0  0  0  0  0  0  0  0  0  0  0
    4.8120   -4.8410  -50.4150 C   0  0  0  0  0  0  0  0  0  0  0  0
    8.3260   -3.3660  -52.9260 C   0  0  0  0  0  0  0  0  0  0  0  0
    8.6370   -2.9800  -54.3770 C   0  0  2  0  0  0  0  0  0  0  0  0
   10.0630   -2.4340  -54.4490 N   0  0  0  0  0  0  0  0  0  0  0  0
   11.1170   -3.2450  -55.1850 C   0  0  2  0  0  0  0  0  0  0  0  0
   11.7700   -2.3810  -56.2840 C   0  0  0  0  0  0  0  0  0  0  0  0
   11.7200   -2.9810  -57.6910 C   0  0  0  0  0  0  0  0  0  0  0  0
   12.0910   -4.4620  -57.7200 C   0  0  1  0  0  0  0  0  0  0  0  0
   11.9300   -4.9660  -59.0570 O   0  0  0  0  0  0  0  0  0  0  0  0
   13.3900   -4.8750  -57.0600 C   0  0  0  0  0  0  0  0  0  0  0  0
   12.7890   -5.6040  -56.1010 C   0  0  0  0  0  0  0  0  0  0  0  0
   11.3910   -5.3100  -56.6160 C   0  0  1  0  0  0  0  0  0  0  0  0
   10.4500   -4.5230  -55.7050 C   0  0  0  0  0  0  0  0  0  0  0  0
    7.6390   -1.9500  -54.9560 C   0  0  0  0  0  0  0  0  0  0  0  0
    8.6460    1.9320  -57.0410 C   0  0  0  0  0  0  0  0  0  0  0  0
    9.7690    4.2060  -58.9200 N   0  0  0  0  0  0  0  0  0  0  0  0
   13.6708    4.1284  -58.1410 H   0  0  0  0  0  0  0  0  0  0  0  0
   12.9404    3.5985  -59.6942 H   0  0  0  0  0  0  0  0  0  0  0  0
   14.2862    4.7883  -59.6942 H   0  0  0  0  0  0  0  0  0  0  0  0
   11.8251    5.4883  -58.1279 H   0  0  0  0  0  0  0  0  0  0  0  0
   12.9501    6.5262  -59.1220 H   0  0  0  0  0  0  0  0  0  0  0  0
   10.8601    6.5627  -60.2281 H   0  0  0  0  0  0  0  0  0  0  0  0
   11.9558    5.4307  -61.1526 H   0  0  0  0  0  0  0  0  0  0  0  0
    6.1481    3.3244  -58.9028 H   0  0  0  0  0  0  0  0  0  0  0  0
    4.7737    2.2257  -57.1369 H   0  0  0  0  0  0  0  0  0  0  0  0
    5.8714    0.8760  -55.3501 H   0  0  0  0  0  0  0  0  0  0  0  0
    7.3755    0.6162  -52.7531 H   0  0  0  0  0  0  0  0  0  0  0  0
    5.9303    0.0687  -53.6949 H   0  0  0  0  0  0  0  0  0  0  0  0
    6.2993   -0.9917  -51.3920 H   0  0  0  0  0  0  0  0  0  0  0  0
    6.0491   -2.0995  -52.8452 H   0  0  0  0  0  0  0  0  0  0  0  0
    8.8211   -1.4905  -52.1161 H   0  0  0  0  0  0  0  0  0  0  0  0
    8.9383   -2.8691  -50.1505 H   0  0  0  0  0  0  0  0  0  0  0  0
    7.4264   -1.8794  -49.9225 H   0  0  0  0  0  0  0  0  0  0  0  0
    5.3940   -2.8510  -50.8220 H   0  0  0  0  0  0  0  0  0  0  0  0
    4.6002   -5.0947  -49.3658 H   0  0  0  0  0  0  0  0  0  0  0  0
    3.8762   -4.5605  -50.9205 H   0  0  0  0  0  0  0  0  0  0  0  0
    5.2551   -5.7117  -50.9205 H   0  0  0  0  0  0  0  0  0  0  0  0
    9.2055   -3.8864  -52.5191 H   0  0  0  0  0  0  0  0  0  0  0  0
    7.4195   -3.9875  -52.9695 H   0  0  0  0  0  0  0  0  0  0  0  0
    8.5375   -3.8857  -54.9932 H   0  0  0  0  0  0  0  0  0  0  0  0
   10.0020   -1.4990  -54.8780 H   0  0  0  0  0  0  0  0  0  0  0  0
   10.3900   -2.2410  -53.4900 H   0  0  0  0  0  0  0  0  0  0  0  0
   11.9410   -3.5482  -54.5223 H   0  0  0  0  0  0  0  0  0  0  0  0
   11.2527   -1.4105  -56.3079 H   0  0  0  0  0  0  0  0  0  0  0  0
   12.8350   -2.3008  -56.0208 H   0  0  0  0  0  0  0  0  0  0  0  0
   10.6992   -2.8673  -58.0848 H   0  0  0  0  0  0  0  0  0  0  0  0
   12.4583   -2.4441  -58.3048 H   0  0  0  0  0  0  0  0  0  0  0  0
   11.6750   -5.9000  -58.9590 H   0  0  0  0  0  0  0  0  0  0  0  0
   14.4448   -4.6576  -57.2837 H   0  0  0  0  0  0  0  0  0  0  0  0
   13.1703   -6.1952  -55.2554 H   0  0  0  0  0  0  0  0  0  0  0  0
   10.6822   -6.1237  -56.8292 H   0  0  0  0  0  0  0  0  0  0  0  0
    9.5473   -4.2508  -56.2717 H   0  0  0  0  0  0  0  0  0  0  0  0
   10.1926   -5.1555  -54.8426 H   0  0  0  0  0  0  0  0  0  0  0  0
    7.7885   -1.9022  -56.0447 H   0  0  0  0  0  0  0  0  0  0  0  0
    6.6343   -2.2968  -54.6728 H   0  0  0  0  0  0  0  0  0  0  0  0
    9.7433    1.8979  -56.9717 H   0  0  0  0  0  0  0  0  0  0  0  0
  1  2  1  0
  2  3  1  0
  3  4  1  0
  4  5  2  0
  5  6  1  0
  6  7  1  0
  7  8  1  0
  8  9  2  0
  9 10  1  0
 10 11  2  0
 11 12  1  0
 12 13  1  0
 13 14  2  0
 13 15  1  0
 15 16  1  0
 16 17  1  0
 17 18  1  0
 18 19  1  0
 19 20  1  0
 20 21  2  0
 20 22  1  0
 22 23  1  0
 18 24  1  0
 24 25  1  0
 25 26  1  0
 26 27  1  0
 27 28  1  0
 28 29  1  0
 29 30  1  0
 30 31  1  6
 30 32  1  0
 32 33  2  0
 33 34  1  0
 34 35  1  0
 25 36  1  0
 12 37  2  0
  7 38  2  0
 38  4  1  0
 37  8  1  0
 36 15  1  0
 35 27  1  0
 34 30  1  0
  1 39  1  0
  1 40  1  0
  1 41  1  0
  2 42  1  0
  2 43  1  0
  3 44  1  0
  3 45  1  0
  9 46  1  0
 10 47  1  0
 11 48  1  0
 16 49  1  0
 16 50  1  0
 17 51  1  0
 17 52  1  0
 18 53  1  1
 19 54  1  0
 19 55  1  0
 22 56  1  0
 23 57  1  0
 23 58  1  0
 23 59  1  0
 24 60  1  0
 24 61  1  0
 25 62  1  6
 26 63  1  0
 26 64  1  0
 27 65  1  1
 28 66  1  0
 28 67  1  0
 29 68  1  0
 29 69  1  0
 31 70  1  0
 32 71  1  0
 33 72  1  0
 34 73  1  6
 35 74  1  0
 35 75  1  0
 36 76  1  0
 36 77  1  0
 37 78  1  0
M  CHG  1  26   1
M  END
>  <meeko>  (208) 
{"is_sidechain": false}

$$$$

     RDKit          3D

 43 45  0  0  0  0  0  0  0  0999 V2000
   13.0590    4.4890  -58.0980 C   0  0  0  0  0  0  0  0  0  0  0  0
   12.4160    4.6520  -59.4330 C   0  0  2  0  0  0  0  0  0  0  0  0
   11.8600    5.9880  -59.8520 C   0  0  0  0  0  0  0  0  0  0  0  0
   10.9230    4.8470  -59.5360 C   0  0  1  0  0  0  0  0  0  0  0  0
   10.1460    4.1890  -60.6420 C   0  0  0  0  0  0  0  0  0  0  0  0
   10.0320    2.6680  -60.4390 C   0  0  2  0  0  0  0  0  0  0  0  0
    8.7030    2.1220  -60.9750 C   0  0  0  0  0  0  0  0  0  0  0  0
    7.7130    2.3790  -59.8340 C   0  0  1  0  0  0  0  0  0  0  0  0
    6.5830    1.3550  -59.8360 C   0  0  0  0  0  0  0  0  0  0  0  0
    8.5360    2.3300  -58.6270 N   0  0  0  0  0  0  0  0  0  0  0  0
    8.0190    2.7270  -57.4020 C   0  0  0  0  0  0  0  0  0  0  0  0
    7.8460    3.9010  -57.0870 O   0  0  0  0  0  0  0  0  0  0  0  0
    7.6550    1.6830  -56.4150 C   0  0  0  0  0  0  0  0  0  0  0  0
    6.3010    1.4000  -56.2060 C   0  0  0  0  0  0  0  0  0  0  0  0
    5.9290    0.4070  -55.2990 C   0  0  0  0  0  0  0  0  0  0  0  0
    6.9110   -0.3100  -54.6120 C   0  0  0  0  0  0  0  0  0  0  0  0
    8.2670   -0.0460  -54.8390 C   0  0  0  0  0  0  0  0  0  0  0  0
    9.2710   -0.7940  -54.1420 C   0  0  0  0  0  0  0  0  0  0  0  0
   10.0880   -1.3920  -53.5730 N   0  0  0  0  0  0  0  0  0  0  0  0
    8.6410    0.9490  -55.7480 C   0  0  0  0  0  0  0  0  0  0  0  0
    9.9560    2.2670  -58.9630 C   0  0  0  0  0  0  0  0  0  0  0  0
   12.3169    4.6771  -57.3082 H   0  0  0  0  0  0  0  0  0  0  0  0
   13.4466    3.4642  -58.0004 H   0  0  0  0  0  0  0  0  0  0  0  0
   13.8880    5.2054  -58.0004 H   0  0  0  0  0  0  0  0  0  0  0  0
   13.1401    3.9437  -59.8620 H   0  0  0  0  0  0  0  0  0  0  0  0
   11.9268    6.8494  -59.1711 H   0  0  0  0  0  0  0  0  0  0  0  0
   12.0085    6.6566  -60.7128 H   0  0  0  0  0  0  0  0  0  0  0  0
   10.0726    4.7001  -58.8539 H   0  0  0  0  0  0  0  0  0  0  0  0
    9.1345    4.6204  -60.6711 H   0  0  0  0  0  0  0  0  0  0  0  0
   10.6812    4.3670  -61.5864 H   0  0  0  0  0  0  0  0  0  0  0  0
   10.9237    2.2756  -60.9498 H   0  0  0  0  0  0  0  0  0  0  0  0
    8.3983    2.6582  -61.8859 H   0  0  0  0  0  0  0  0  0  0  0  0
    8.7622    1.0598  -61.2545 H   0  0  0  0  0  0  0  0  0  0  0  0
    7.1947    3.3452  -59.9224 H   0  0  0  0  0  0  0  0  0  0  0  0
    6.3103    1.1079  -58.7994 H   0  0  0  0  0  0  0  0  0  0  0  0
    5.7087    1.7748  -60.3550 H   0  0  0  0  0  0  0  0  0  0  0  0
    6.9149    0.4437  -60.3550 H   0  0  0  0  0  0  0  0  0  0  0  0
    5.5303    1.9598  -56.7562 H   0  0  0  0  0  0  0  0  0  0  0  0
    4.8648    0.1895  -55.1255 H   0  0  0  0  0  0  0  0  0  0  0  0
    6.6177   -1.0857  -53.8893 H   0  0  0  0  0  0  0  0  0  0  0  0
    9.7052    1.1532  -55.9373 H   0  0  0  0  0  0  0  0  0  0  0  0
   10.5319    2.9686  -58.3416 H   0  0  0  0  0  0  0  0  0  0  0  0
   10.3791    1.2675  -58.7840 H   0  0  0  0  0  0  0  0  0  0  0  0
  1  2  1  0
  2  3  1  0
  3  4  1  0
  4  5  1  0
  5  6  1  0
  6  7  1  0
  7  8  1  0
  8  9  1  0
  8 10  1  0
 10 11  1  0
 11 12  2  0
 11 13  1  0
 13 14  2  0
 14 15  1  0
 15 16  2  0
 16 17  1  0
 17 18  1  0
 18 19  3  0
 17 20  2  0
 10 21  1  0
  4  2  1  0
 21  6  1  0
 20 13  1  0
  1 22  1  0
  1 23  1  0
  1 24  1  0
  2 25  1  6
  3 26  1  0
  3 27  1  0
  4 28  1  1
  5 29  1  0
  5 30  1  0
  6 31  1  6
  7 32  1  0
  7 33  1  0
  8 34  1  6
  9 35  1  0
  9 36  1  0
  9 37  1  0
 14 38  1  0
 15 39  1  0
 16 40  1  0
 20 41  1  0
 21 42  1  0
 21 43  1  0
M  END
>  <meeko>  (209) 
{"is_sidechain": false}

$$$$

     RDKit          3D

 45 47  0  0  0  0  0  0  0  0999 V2000
    8.8530   -0.3050  -54.6090 C   0  0  0  0  0  0  0  0  0  0  0  0
    7.5550    0.4230  -54.6960 C   0  0  2  0  0  0  0  0  0  0  0  0
    6.2880   -0.3250  -55.0090 C   0  0  0  0  0  0  0  0  0  0  0  0
    6.8790    0.6130  -56.0330 C   0  0  1  0  0  0  0  0  0  0  0  0
    6.2270    1.9330  -56.3370 C   0  0  0  0  0  0  0  0  0  0  0  0
    7.0370    2.8720  -57.2300 C   0  0  2  0  0  0  0  0  0  0  0  0
    6.3180    3.3990  -58.4760 C   0  0  0  0  0  0  0  0  0  0  0  0
    7.4640    3.9440  -59.3370 C   0  0  1  0  0  0  0  0  0  0  0  0
    7.7790    5.4040  -59.0110 C   0  0  0  0  0  0  0  0  0  0  0  0
    8.5860    3.0560  -59.0140 N   0  0  0  0  0  0  0  0  0  0  0  0
    9.8020    2.9210  -59.6580 C   0  0  0  0  0  0  0  0  0  0  0  0
    9.9790    2.1780  -60.6200 O   0  0  0  0  0  0  0  0  0  0  0  0
   10.9580    3.7020  -59.1730 C   0  0  0  0  0  0  0  0  0  0  0  0
   11.6390    3.2610  -58.0370 C   0  0  0  0  0  0  0  0  0  0  0  0
   12.7520    3.9650  -57.5790 C   0  0  0  0  0  0  0  0  0  0  0  0
   13.1900    5.1000  -58.2660 C   0  0  0  0  0  0  0  0  0  0  0  0
   12.5250    5.5410  -59.4230 C   0  0  0  0  0  0  0  0  0  0  0  0
   13.0220    6.7430  -60.1870 C   0  0  0  0  0  0  0  0  0  0  0  0
   13.0270    7.8860  -59.4470 F   0  0  0  0  0  0  0  0  0  0  0  0
   14.2940    6.5820  -60.6410 F   0  0  0  0  0  0  0  0  0  0  0  0
   12.2630    7.0180  -61.2860 F   0  0  0  0  0  0  0  0  0  0  0  0
   11.4110    4.8210  -59.8810 C   0  0  0  0  0  0  0  0  0  0  0  0
    8.3220    2.2810  -57.8080 C   0  0  0  0  0  0  0  0  0  0  0  0
    9.1195   -0.4545  -53.5523 H   0  0  0  0  0  0  0  0  0  0  0  0
    8.7593   -1.2822  -55.1053 H   0  0  0  0  0  0  0  0  0  0  0  0
    9.6380    0.2845  -55.1053 H   0  0  0  0  0  0  0  0  0  0  0  0
    7.8822    1.0941  -53.8882 H   0  0  0  0  0  0  0  0  0  0  0  0
    6.3185   -1.4117  -55.1768 H   0  0  0  0  0  0  0  0  0  0  0  0
    5.3059   -0.4269  -54.5241 H   0  0  0  0  0  0  0  0  0  0  0  0
    7.1718    0.5117  -57.0885 H   0  0  0  0  0  0  0  0  0  0  0  0
    5.2684    1.7311  -56.8374 H   0  0  0  0  0  0  0  0  0  0  0  0
    6.1205    2.4488  -55.3713 H   0  0  0  0  0  0  0  0  0  0  0  0
    7.2287    3.6676  -56.4950 H   0  0  0  0  0  0  0  0  0  0  0  0
    5.7846    2.5894  -58.9957 H   0  0  0  0  0  0  0  0  0  0  0  0
    5.5537    4.1558  -58.2455 H   0  0  0  0  0  0  0  0  0  0  0  0
    7.2228    3.9502  -60.4102 H   0  0  0  0  0  0  0  0  0  0  0  0
    7.8079    5.5380  -57.9196 H   0  0  0  0  0  0  0  0  0  0  0  0
    8.7558    5.6728  -59.4394 H   0  0  0  0  0  0  0  0  0  0  0  0
    6.9999    6.0517  -59.4394 H   0  0  0  0  0  0  0  0  0  0  0  0
   11.2985    2.3606  -57.5047 H   0  0  0  0  0  0  0  0  0  0  0  0
   13.2846    3.6272  -56.6778 H   0  0  0  0  0  0  0  0  0  0  0  0
   14.0653    5.6548  -57.8971 H   0  0  0  0  0  0  0  0  0  0  0  0
   10.8927    5.1368  -60.7984 H   0  0  0  0  0  0  0  0  0  0  0  0
    8.1817    1.2182  -58.0546 H   0  0  0  0  0  0  0  0  0  0  0  0
    9.1572    2.3316  -57.0939 H   0  0  0  0  0  0  0  0  0  0  0  0
  1  2  1  0
  2  3  1  0
  3  4  1  0
  4  5  1  0
  5  6  1  0
  6  7  1  0
  7  8  1  0
  8  9  1  0
  8 10  1  0
 10 11  1  0
 11 12  2  0
 11 13  1  0
 13 14  1  0
 14 15  2  0
 15 16  1  0
 16 17  2  0
 17 18  1  0
 18 19  1  0
 18 20  1  0
 18 21  1  0
 17 22  1  0
 10 23  1  0
  4  2  1  0
 23  6  1  0
 22 13  2  0
  1 24  1  0
  1 25  1  0
  1 26  1  0
  2 27  1  1
  3 28  1  0
  3 29  1  0
  4 30  1  6
  5 31  1  0
  5 32  1  0
  6 33  1  1
  7 34  1  0
  7 35  1  0
  8 36  1  6
  9 37  1  0
  9 38  1  0
  9 39  1  0
 14 40  1  0
 15 41  1  0
 16 42  1  0
 22 43  1  0
 23 44  1  0
 23 45  1  0
M  END
>  <meeko>  (210) 
{"is_sidechain": false}

$$$$

     RDKit          3D

 48 51  0  0  0  0  0  0  0  0999 V2000
   11.6240   -4.5160  -58.2720 C   0  0  0  0  0  0  0  0  0  0  0  0
   12.2230   -4.3290  -56.9200 C   0  0  2  0  0  0  0  0  0  0  0  0
   12.4610   -5.5180  -56.0250 C   0  0  0  0  0  0  0  0  0  0  0  0
   11.3800   -4.5230  -55.6820 C   0  0  1  0  0  0  0  0  0  0  0  0
   11.5460   -3.5930  -54.5150 C   0  0  0  0  0  0  0  0  0  0  0  0
   10.2030   -3.1750  -53.9190 C   0  0  2  0  0  0  0  0  0  0  0  0
    8.9830   -3.7600  -54.6400 C   0  0  0  0  0  0  0  0  0  0  0  0
    7.8440   -2.8170  -54.2370 C   0  0  1  0  0  0  0  0  0  0  0  0
    7.1790   -3.2530  -52.9330 C   0  0  0  0  0  0  0  0  0  0  0  0
    8.5120   -1.5190  -54.1050 N   0  0  0  0  0  0  0  0  0  0  0  0
    7.9490   -0.2600  -53.9960 C   0  0  0  0  0  0  0  0  0  0  0  0
    7.4910    0.1850  -52.9470 O   0  0  0  0  0  0  0  0  0  0  0  0
    7.8880    0.6000  -55.1940 C   0  0  0  0  0  0  0  0  0  0  0  0
    6.6700    0.7340  -55.8600 C   0  0  0  0  0  0  0  0  0  0  0  0
    6.5920    1.5550  -56.9800 C   0  0  0  0  0  0  0  0  0  0  0  0
    7.7260    2.2490  -57.4140 C   0  0  0  0  0  0  0  0  0  0  0  0
    8.9580    2.1510  -56.7370 C   0  0  0  0  0  0  0  0  0  0  0  0
   10.1110    2.9230  -57.2450 C   0  0  0  0  0  0  0  0  0  0  0  0
   11.3470    2.4560  -57.2800 N   0  0  0  0  0  0  0  0  0  0  0  0
   12.2080    3.3970  -57.8080 C   0  0  0  0  0  0  0  0  0  0  0  0
   11.6290    4.5900  -58.1730 C   0  0  0  0  0  0  0  0  0  0  0  0
    9.9510    4.5340  -57.8480 S   0  0  0  0  0  0  0  0  0  0  0  0
    9.0170    1.3180  -55.6090 C   0  0  0  0  0  0  0  0  0  0  0  0
    9.9570   -1.6690  -54.0270 C   0  0  0  0  0  0  0  0  0  0  0  0
   10.5787   -4.8423  -58.1680 H   0  0  0  0  0  0  0  0  0  0  0  0
   11.6580   -3.5645  -58.8229 H   0  0  0  0  0  0  0  0  0  0  0  0
   12.1933   -5.2792  -58.8229 H   0  0  0  0  0  0  0  0  0  0  0  0
   12.8489   -3.5153  -57.3152 H   0  0  0  0  0  0  0  0  0  0  0  0
   12.1902   -6.5274  -56.3683 H   0  0  0  0  0  0  0  0  0  0  0  0
   13.3331   -5.9311  -55.4969 H   0  0  0  0  0  0  0  0  0  0  0  0
   10.3024   -4.5917  -55.4721 H   0  0  0  0  0  0  0  0  0  0  0  0
   12.1365   -4.1005  -53.7380 H   0  0  0  0  0  0  0  0  0  0  0  0
   12.0548   -2.6861  -54.8737 H   0  0  0  0  0  0  0  0  0  0  0  0
   10.2890   -3.5406  -52.8851 H   0  0  0  0  0  0  0  0  0  0  0  0
    9.1306   -3.7551  -55.7300 H   0  0  0  0  0  0  0  0  0  0  0  0
    8.7874   -4.8083  -54.3702 H   0  0  0  0  0  0  0  0  0  0  0  0
    7.0231   -2.8007  -54.9691 H   0  0  0  0  0  0  0  0  0  0  0  0
    7.7598   -2.8722  -52.0800 H   0  0  0  0  0  0  0  0  0  0  0  0
    6.1567   -2.8493  -52.8899 H   0  0  0  0  0  0  0  0  0  0  0  0
    7.1416   -4.3515  -52.8899 H   0  0  0  0  0  0  0  0  0  0  0  0
    5.7797    0.1956  -55.5030 H   0  0  0  0  0  0  0  0  0  0  0  0
    5.6409    1.6582  -57.5230 H   0  0  0  0  0  0  0  0  0  0  0  0
    7.6544    2.8877  -58.3067 H   0  0  0  0  0  0  0  0  0  0  0  0
   13.2845    3.2056  -57.9287 H   0  0  0  0  0  0  0  0  0  0  0  0
   12.1631    5.4481  -58.6071 H   0  0  0  0  0  0  0  0  0  0  0  0
    9.9577    1.2282  -55.0460 H   0  0  0  0  0  0  0  0  0  0  0  0
   10.4354   -1.2646  -54.9312 H   0  0  0  0  0  0  0  0  0  0  0  0
   10.3797   -1.1227  -53.1709 H   0  0  0  0  0  0  0  0  0  0  0  0
  1  2  1  0
  2  3  1  0
  3  4  1  0
  4  5  1  0
  5  6  1  0
  6  7  1  0
  7  8  1  0
  8  9  1  0
  8 10  1  0
 10 11  1  0
 11 12  2  0
 11 13  1  0
 13 14  1  0
 14 15  2  0
 15 16  1  0
 16 17  2  0
 17 18  1  0
 18 19  2  0
 19 20  1  0
 20 21  2  0
 21 22  1  0
 17 23  1  0
 10 24  1  0
  4  2  1  0
 24  6  1  0
 23 13  2  0
 22 18  1  0
  1 25  1  0
  1 26  1  0
  1 27  1  0
  2 28  1  6
  3 29  1  0
  3 30  1  0
  4 31  1  6
  5 32  1  0
  5 33  1  0
  6 34  1  1
  7 35  1  0
  7 36  1  0
  8 37  1  6
  9 38  1  0
  9 39  1  0
  9 40  1  0
 14 41  1  0
 15 42  1  0
 16 43  1  0
 20 44  1  0
 21 45  1  0
 23 46  1  0
 24 47  1  0
 24 48  1  0
M  END
>  <meeko>  (211) 
{"is_sidechain": false}

$$$$

     RDKit          3D

 50 53  0  0  0  0  0  0  0  0999 V2000
    6.1710   -4.4640  -50.5350 C   0  0  0  0  0  0  0  0  0  0  0  0
    7.5360   -3.8660  -50.5110 C   0  0  2  0  0  0  0  0  0  0  0  0
    7.7970   -2.6100  -49.7230 C   0  0  0  0  0  0  0  0  0  0  0  0
    7.8080   -2.5680  -51.2330 C   0  0  1  0  0  0  0  0  0  0  0  0
    9.1110   -2.3410  -51.9480 C   0  0  0  0  0  0  0  0  0  0  0  0
    9.2150   -3.1420  -53.2620 C   0  0  2  0  0  0  0  0  0  0  0  0
   10.6650   -3.3450  -53.7420 C   0  0  0  0  0  0  0  0  0  0  0  0
   11.2880   -2.0570  -54.2890 C   0  0  0  0  0  0  0  0  0  0  0  0
   10.4010   -1.4260  -55.3600 C   0  0  0  0  0  0  0  0  0  0  0  0
    9.0380   -1.2440  -54.8550 N   0  0  0  0  0  0  0  0  0  0  0  0
    8.4920   -0.0200  -54.4740 C   0  0  0  0  0  0  0  0  0  0  0  0
    8.5310    0.4190  -53.3260 O   0  0  0  0  0  0  0  0  0  0  0  0
    7.8200    0.8160  -55.4890 C   0  0  0  0  0  0  0  0  0  0  0  0
    6.4300    0.7930  -55.6240 C   0  0  0  0  0  0  0  0  0  0  0  0
    5.8250    1.6060  -56.5780 C   0  0  0  0  0  0  0  0  0  0  0  0
    6.6090    2.4490  -57.3740 C   0  0  0  0  0  0  0  0  0  0  0  0
    8.0100    2.5160  -57.2320 C   0  0  0  0  0  0  0  0  0  0  0  0
    8.8100    3.4310  -58.0670 C   0  0  0  0  0  0  0  0  0  0  0  0
    8.9170    3.3190  -59.4500 C   0  0  0  0  0  0  0  0  0  0  0  0
    9.7000    4.2340  -60.1490 C   0  0  0  0  0  0  0  0  0  0  0  0
   10.3440    5.2210  -59.4350 C   0  0  0  0  0  0  0  0  0  0  0  0
   10.2410    5.3210  -58.0980 N   0  0  0  0  0  0  0  0  0  0  0  0
    9.4700    4.4180  -57.4130 N   0  0  0  0  0  0  0  0  0  0  0  0
    8.6020    1.6800  -56.2690 C   0  0  0  0  0  0  0  0  0  0  0  0
    8.3970   -2.4690  -54.3800 C   0  0  0  0  0  0  0  0  0  0  0  0
    5.8199   -4.6178  -49.5039 H   0  0  0  0  0  0  0  0  0  0  0  0
    5.4824   -3.7851  -51.0594 H   0  0  0  0  0  0  0  0  0  0  0  0
    6.2032   -5.4304  -51.0594 H   0  0  0  0  0  0  0  0  0  0  0  0
    7.9747   -4.8745  -50.5337 H   0  0  0  0  0  0  0  0  0  0  0  0
    6.9787   -2.1307  -49.1656 H   0  0  0  0  0  0  0  0  0  0  0  0
    8.5051   -2.3215  -48.9322 H   0  0  0  0  0  0  0  0  0  0  0  0
    7.2808   -1.9963  -52.0110 H   0  0  0  0  0  0  0  0  0  0  0  0
    9.2032   -1.2698  -52.1804 H   0  0  0  0  0  0  0  0  0  0  0  0
    9.9187   -2.6837  -51.2846 H   0  0  0  0  0  0  0  0  0  0  0  0
    8.8019   -4.1366  -53.0382 H   0  0  0  0  0  0  0  0  0  0  0  0
   11.2710   -3.6976  -52.8944 H   0  0  0  0  0  0  0  0  0  0  0  0
   10.6463   -4.0805  -54.5597 H   0  0  0  0  0  0  0  0  0  0  0  0
   11.4171   -1.3420  -53.4631 H   0  0  0  0  0  0  0  0  0  0  0  0
   12.2589   -2.3051  -54.7426 H   0  0  0  0  0  0  0  0  0  0  0  0
   10.8158   -0.4474  -55.6432 H   0  0  0  0  0  0  0  0  0  0  0  0
   10.3705   -2.0923  -56.2347 H   0  0  0  0  0  0  0  0  0  0  0  0
    5.8200    0.1393  -54.9832 H   0  0  0  0  0  0  0  0  0  0  0  0
    4.7327    1.5860  -56.7061 H   0  0  0  0  0  0  0  0  0  0  0  0
    6.1181    3.0771  -58.1319 H   0  0  0  0  0  0  0  0  0  0  0  0
    8.3887    2.5162  -59.9852 H   0  0  0  0  0  0  0  0  0  0  0  0
    9.8018    4.1706  -61.2424 H   0  0  0  0  0  0  0  0  0  0  0  0
   10.9629    5.9514  -59.9767 H   0  0  0  0  0  0  0  0  0  0  0  0
    9.6924    1.7040  -56.1256 H   0  0  0  0  0  0  0  0  0  0  0  0
    7.3982   -2.2213  -53.9915 H   0  0  0  0  0  0  0  0  0  0  0  0
    8.3281   -3.1702  -55.2247 H   0  0  0  0  0  0  0  0  0  0  0  0
  1  2  1  0
  2  3  1  0
  3  4  1  0
  4  5  1  0
  5  6  1  0
  6  7  1  0
  7  8  1  0
  8  9  1  0
  9 10  1  0
 10 11  1  0
 11 12  2  0
 11 13  1  0
 13 14  1  0
 14 15  2  0
 15 16  1  0
 16 17  2  0
 17 18  1  0
 18 19  2  0
 19 20  1  0
 20 21  2  0
 21 22  1  0
 22 23  2  0
 17 24  1  0
 10 25  1  0
  4  2  1  0
 25  6  1  0
 24 13  2  0
 23 18  1  0
  1 26  1  0
  1 27  1  0
  1 28  1  0
  2 29  1  1
  3 30  1  0
  3 31  1  0
  4 32  1  6
  5 33  1  0
  5 34  1  0
  6 35  1  1
  7 36  1  0
  7 37  1  0
  8 38  1  0
  8 39  1  0
  9 40  1  0
  9 41  1  0
 14 42  1  0
 15 43  1  0
 16 44  1  0
 19 45  1  0
 20 46  1  0
 21 47  1  0
 24 48  1  0
 25 49  1  0
 25 50  1  0
M  END
>  <meeko>  (212) 
{"is_sidechain": false}

$$$$

     RDKit          3D

 58 61  0  0  0  0  0  0  0  0999 V2000
    3.1640    0.7640  -63.2090 C   0  0  0  0  0  0  0  0  0  0  0  0
    2.8090    2.0230  -62.4340 C   0  0  0  0  0  0  0  0  0  0  0  0
    3.2100    1.9620  -60.9560 C   0  0  0  0  0  0  0  0  0  0  0  0
    4.4640    1.1370  -60.6660 C   0  0  0  0  0  0  0  0  0  0  0  0
    5.6060    2.0060  -60.2800 C   0  0  0  0  0  0  0  0  0  0  0  0
    6.5040    2.5730  -61.0440 N   0  0  0  0  0  0  0  0  0  0  0  0
    7.3130    3.3070  -60.1550 N   0  0  0  0  0  0  0  0  0  0  0  0
    8.6800    3.5980  -60.5350 C   0  0  0  0  0  0  0  0  0  0  0  0
    6.9410    3.0840  -58.8720 C   0  0  0  0  0  0  0  0  0  0  0  0
    7.2430    3.3290  -57.5570 C   0  0  0  0  0  0  0  0  0  0  0  0
    8.3810    4.0870  -57.0650 C   0  0  0  0  0  0  0  0  0  0  0  0
    8.2400    5.2390  -56.6570 O   0  0  0  0  0  0  0  0  0  0  0  0
    9.6280    3.4800  -57.0970 N   0  0  0  0  0  0  0  0  0  0  0  0
   10.8230    4.2950  -56.9850 C   0  0  0  0  0  0  0  0  0  0  0  0
   11.9340    3.4340  -57.5860 C   0  0  2  0  0  0  0  0  0  0  0  0
   11.9970    3.5910  -59.1150 C   0  0  0  0  0  0  0  0  0  0  0  0
   12.9910    4.6370  -59.5360 C   0  0  2  0  0  0  0  0  0  0  0  0
   13.6010    5.5650  -58.5140 C   0  0  0  0  0  0  0  0  0  0  0  0
   12.5980    6.0950  -59.5060 C   0  0  1  0  0  0  0  0  0  0  0  0
   13.0360    7.0120  -60.5980 C   0  0  0  0  0  0  0  0  0  0  0  0
   11.5050    2.0330  -57.1370 C   0  0  0  0  0  0  0  0  0  0  0  0
    9.9660    2.0570  -57.2040 C   0  0  1  0  0  0  0  0  0  0  0  0
    9.3790    1.1930  -56.0910 C   0  0  0  0  0  0  0  0  0  0  0  0
    6.2200    2.6240  -56.8180 C   0  0  0  0  0  0  0  0  0  0  0  0
    5.3600    2.0040  -57.7150 C   0  0  0  0  0  0  0  0  0  0  0  0
    5.8440    2.2930  -58.9520 N   0  0  0  0  0  0  0  0  0  0  0  0
    3.3931   -0.0484  -62.5036 H   0  0  0  0  0  0  0  0  0  0  0  0
    2.3134    0.4710  -63.8420 H   0  0  0  0  0  0  0  0  0  0  0  0
    4.0423    0.9585  -63.8420 H   0  0  0  0  0  0  0  0  0  0  0  0
    3.3240    2.8760  -62.9000 H   0  0  0  0  0  0  0  0  0  0  0  0
    1.7146    2.1280  -62.4692 H   0  0  0  0  0  0  0  0  0  0  0  0
    3.3882    2.9898  -60.6070 H   0  0  0  0  0  0  0  0  0  0  0  0
    2.3824    1.4629  -60.4307 H   0  0  0  0  0  0  0  0  0  0  0  0
    4.2510    0.4389  -59.8430 H   0  0  0  0  0  0  0  0  0  0  0  0
    4.7381    0.5899  -61.5800 H   0  0  0  0  0  0  0  0  0  0  0  0
    9.2922    3.7283  -59.6304 H   0  0  0  0  0  0  0  0  0  0  0  0
    9.0800    2.7649  -61.1316 H   0  0  0  0  0  0  0  0  0  0  0  0
    8.7060    4.5218  -61.1316 H   0  0  0  0  0  0  0  0  0  0  0  0
   10.7087    5.2317  -57.5503 H   0  0  0  0  0  0  0  0  0  0  0  0
   11.0352    4.5839  -55.9451 H   0  0  0  0  0  0  0  0  0  0  0  0
   12.9518    3.6963  -57.2616 H   0  0  0  0  0  0  0  0  0  0  0  0
   12.2870    2.6272  -59.5588 H   0  0  0  0  0  0  0  0  0  0  0  0
   11.0033    3.9084  -59.4639 H   0  0  0  0  0  0  0  0  0  0  0  0
   13.3929    3.9499  -60.2952 H   0  0  0  0  0  0  0  0  0  0  0  0
   13.3273    5.4702  -57.4528 H   0  0  0  0  0  0  0  0  0  0  0  0
   14.6271    5.8368  -58.2255 H   0  0  0  0  0  0  0  0  0  0  0  0
   11.6469    6.6428  -59.4330 H   0  0  0  0  0  0  0  0  0  0  0  0
   13.4709    7.9225  -60.1599 H   0  0  0  0  0  0  0  0  0  0  0  0
   13.7905    6.5078  -61.2197 H   0  0  0  0  0  0  0  0  0  0  0  0
   12.1696    7.2820  -61.2197 H   0  0  0  0  0  0  0  0  0  0  0  0
   11.9112    1.2670  -57.8140 H   0  0  0  0  0  0  0  0  0  0  0  0
   11.8747    1.7862  -56.1308 H   0  0  0  0  0  0  0  0  0  0  0  0
    9.5466    1.6323  -58.1279 H   0  0  0  0  0  0  0  0  0  0  0  0
    9.6630    1.6110  -55.1139 H   0  0  0  0  0  0  0  0  0  0  0  0
    8.2826    1.1774  -56.1785 H   0  0  0  0  0  0  0  0  0  0  0  0
    9.7684    0.1680  -56.1785 H   0  0  0  0  0  0  0  0  0  0  0  0
    6.1362    2.5849  -55.7219 H   0  0  0  0  0  0  0  0  0  0  0  0
    4.4707    1.4031  -57.4742 H   0  0  0  0  0  0  0  0  0  0  0  0
  1  2  1  0
  2  3  1  0
  3  4  1  0
  4  5  1  0
  5  6  2  0
  6  7  1  0
  7  8  1  0
  7  9  1  0
  9 10  2  0
 10 11  1  0
 11 12  2  0
 11 13  1  0
 13 14  1  0
 14 15  1  0
 15 16  1  0
 16 17  1  0
 17 18  1  0
 18 19  1  0
 19 20  1  0
 15 21  1  0
 21 22  1  0
 22 23  1  0
 10 24  1  0
 24 25  2  0
 25 26  1  0
 26  5  1  0
 26  9  1  0
 22 13  1  0
 19 17  1  0
  1 27  1  0
  1 28  1  0
  1 29  1  0
  2 30  1  0
  2 31  1  0
  3 32  1  0
  3 33  1  0
  4 34  1  0
  4 35  1  0
  8 36  1  0
  8 37  1  0
  8 38  1  0
 14 39  1  0
 14 40  1  0
 15 41  1  1
 16 42  1  0
 16 43  1  0
 17 44  1  6
 18 45  1  0
 18 46  1  0
 19 47  1  1
 20 48  1  0
 20 49  1  0
 20 50  1  0
 21 51  1  0
 21 52  1  0
 22 53  1  6
 23 54  1  0
 23 55  1  0
 23 56  1  0
 24 57  1  0
 25 58  1  0
M  END
>  <meeko>  (213) 
{"is_sidechain": false}

$$$$

     RDKit          3D

 55 58  0  0  0  0  0  0  0  0999 V2000
   11.5690    5.8530  -60.0120 C   0  0  0  0  0  0  0  0  0  0  0  0
   10.7280    4.8770  -59.2950 C   0  0  0  0  0  0  0  0  0  0  0  0
   10.6360    3.6400  -59.7350 N   0  0  0  0  0  0  0  0  0  0  0  0
    9.7950    2.6780  -59.0100 C   0  0  0  0  0  0  0  0  0  0  0  0
    9.0960    3.2460  -57.7900 C   0  0  0  0  0  0  0  0  0  0  0  0
    8.2490    2.3400  -57.0470 C   0  0  0  0  0  0  0  0  0  0  0  0
    8.8340    1.6600  -56.0220 O   0  0  0  0  0  0  0  0  0  0  0  0
    7.8990    0.8430  -55.4430 C   0  0  0  0  0  0  0  0  0  0  0  0
    8.3550    0.0050  -54.3440 C   0  0  0  0  0  0  0  0  0  0  0  0
    8.4540    0.4670  -53.2060 O   0  0  0  0  0  0  0  0  0  0  0  0
    8.6830   -1.3240  -54.6000 N   0  0  0  0  0  0  0  0  0  0  0  0
    7.7750   -2.4600  -54.4930 C   0  0  0  0  0  0  0  0  0  0  0  0
    8.6390   -3.6150  -53.9780 C   0  0  2  0  0  0  0  0  0  0  0  0
    8.7400   -3.6620  -52.4430 C   0  0  0  0  0  0  0  0  0  0  0  0
    7.4280   -4.0010  -51.7940 C   0  0  1  0  0  0  0  0  0  0  0  0
    7.4320   -4.8100  -50.5180 C   0  0  0  0  0  0  0  0  0  0  0  0
    6.9410   -3.3880  -50.4940 C   0  0  1  0  0  0  0  0  0  0  0  0
    7.7000   -2.3690  -49.7130 C   0  0  0  0  0  0  0  0  0  0  0  0
    9.9910   -3.2980  -54.6230 C   0  0  0  0  0  0  0  0  0  0  0  0
   10.0780   -1.7680  -54.5590 C   0  0  1  0  0  0  0  0  0  0  0  0
   10.9200   -1.2130  -55.7020 C   0  0  0  0  0  0  0  0  0  0  0  0
    6.7060    1.0010  -56.1220 C   0  0  0  0  0  0  0  0  0  0  0  0
    6.9170    1.9730  -57.1460 C   0  0  0  0  0  0  0  0  0  0  0  0
    5.9020    2.4530  -58.1200 C   0  0  0  0  0  0  0  0  0  0  0  0
    9.2200    4.4810  -57.3930 N   0  0  0  0  0  0  0  0  0  0  0  0
   10.0740    5.2630  -58.2120 N   0  0  0  0  0  0  0  0  0  0  0  0
   12.1074    6.4778  -59.2841 H   0  0  0  0  0  0  0  0  0  0  0  0
   12.2939    5.3184  -60.6434 H   0  0  0  0  0  0  0  0  0  0  0  0
   10.9331    6.4910  -60.6434 H   0  0  0  0  0  0  0  0  0  0  0  0
   11.1460    3.3660  -60.5690 H   0  0  0  0  0  0  0  0  0  0  0  0
    9.0268    2.3034  -59.7025 H   0  0  0  0  0  0  0  0  0  0  0  0
   10.4679    1.8882  -58.6448 H   0  0  0  0  0  0  0  0  0  0  0  0
    6.9628   -2.2397  -53.7846 H   0  0  0  0  0  0  0  0  0  0  0  0
    7.2990   -2.6990  -55.4555 H   0  0  0  0  0  0  0  0  0  0  0  0
    8.2304   -4.6040  -54.2329 H   0  0  0  0  0  0  0  0  0  0  0  0
    9.4814   -4.4240  -52.1607 H   0  0  0  0  0  0  0  0  0  0  0  0
    9.0384   -2.6620  -52.0952 H   0  0  0  0  0  0  0  0  0  0  0  0
    6.9883   -4.0756  -52.7996 H   0  0  0  0  0  0  0  0  0  0  0  0
    6.7198   -5.6387  -50.3914 H   0  0  0  0  0  0  0  0  0  0  0  0
    8.1931   -5.3769  -49.9618 H   0  0  0  0  0  0  0  0  0  0  0  0
    6.0188   -2.8569  -50.2157 H   0  0  0  0  0  0  0  0  0  0  0  0
    7.5622   -2.5540  -48.6375 H   0  0  0  0  0  0  0  0  0  0  0  0
    8.7691   -2.4372  -49.9628 H   0  0  0  0  0  0  0  0  0  0  0  0
    7.3285   -1.3642  -49.9628 H   0  0  0  0  0  0  0  0  0  0  0  0
   10.8130   -3.7611  -54.0575 H   0  0  0  0  0  0  0  0  0  0  0  0
   10.0739   -3.6860  -55.6490 H   0  0  0  0  0  0  0  0  0  0  0  0
   10.5832   -1.4028  -53.6527 H   0  0  0  0  0  0  0  0  0  0  0  0
   11.7719   -0.6515  -55.2908 H   0  0  0  0  0  0  0  0  0  0  0  0
   11.2922   -2.0434  -56.3200 H   0  0  0  0  0  0  0  0  0  0  0  0
   10.3036   -0.5436  -56.3200 H   0  0  0  0  0  0  0  0  0  0  0  0
    5.7641    0.4733  -55.9116 H   0  0  0  0  0  0  0  0  0  0  0  0
    5.0373    2.8619  -57.5769 H   0  0  0  0  0  0  0  0  0  0  0  0
    6.3428    3.2381  -58.7520 H   0  0  0  0  0  0  0  0  0  0  0  0
    5.5748    1.6142  -58.7520 H   0  0  0  0  0  0  0  0  0  0  0  0
   10.1970    6.2400  -57.9350 H   0  0  0  0  0  0  0  0  0  0  0  0
  1  2  1  0
  2  3  2  0
  3  4  1  0
  4  5  1  0
  5  6  1  0
  6  7  1  0
  7  8  1  0
  8  9  1  0
  9 10  2  0
  9 11  1  0
 11 12  1  0
 12 13  1  0
 13 14  1  0
 14 15  1  0
 15 16  1  0
 16 17  1  0
 17 18  1  0
 13 19  1  0
 19 20  1  0
 20 21  1  0
  8 22  2  0
 22 23  1  0
 23 24  1  0
  5 25  2  0
 25 26  1  0
 26  2  1  0
 23  6  2  0
 20 11  1  0
 17 15  1  0
  1 27  1  0
  1 28  1  0
  1 29  1  0
  3 30  1  0
  4 31  1  0
  4 32  1  0
 12 33  1  0
 12 34  1  0
 13 35  1  6
 14 36  1  0
 14 37  1  0
 15 38  1  6
 16 39  1  0
 16 40  1  0
 17 41  1  6
 18 42  1  0
 18 43  1  0
 18 44  1  0
 19 45  1  0
 19 46  1  0
 20 47  1  1
 21 48  1  0
 21 49  1  0
 21 50  1  0
 22 51  1  0
 24 52  1  0
 24 53  1  0
 24 54  1  0
 26 55  1  0
M  CHG  1   3   1
M  END
>  <meeko>  (214) 
{"is_sidechain": false}

$$$$

     RDKit          3D

 55 58  0  0  0  0  0  0  0  0999 V2000
   13.0920    4.6270  -58.1010 C   0  0  0  0  0  0  0  0  0  0  0  0
   11.8610    3.9350  -57.6060 C   0  0  0  0  0  0  0  0  0  0  0  0
   10.7950    4.6390  -57.5060 N   0  0  0  0  0  0  0  0  0  0  0  0
    9.5540    4.0380  -57.0000 C   0  0  0  0  0  0  0  0  0  0  0  0
    9.5830    2.5450  -57.3430 C   0  0  2  0  0  0  0  0  0  0  0  0
    8.4910    1.8110  -56.6370 C   0  0  0  0  0  0  0  0  0  0  0  0
    8.8680    1.1770  -55.4950 O   0  0  0  0  0  0  0  0  0  0  0  0
    7.7770    0.5390  -54.9660 C   0  0  0  0  0  0  0  0  0  0  0  0
    8.0060   -0.2540  -53.7700 C   0  0  0  0  0  0  0  0  0  0  0  0
    7.6640    0.1780  -52.6650 O   0  0  0  0  0  0  0  0  0  0  0  0
    8.6150   -1.4980  -53.8710 N   0  0  0  0  0  0  0  0  0  0  0  0
   10.0320   -1.6210  -53.5780 C   0  0  0  0  0  0  0  0  0  0  0  0
   10.4650   -2.9270  -54.2320 C   0  0  2  0  0  0  0  0  0  0  0  0
   11.0340   -2.7650  -55.6530 C   0  0  0  0  0  0  0  0  0  0  0  0
   10.6790   -3.8450  -56.6340 C   0  0  1  0  0  0  0  0  0  0  0  0
   11.5240   -4.1050  -57.8570 C   0  0  0  0  0  0  0  0  0  0  0  0
   11.4920   -5.1200  -56.7440 C   0  0  1  0  0  0  0  0  0  0  0  0
   12.7110   -5.3770  -55.9240 C   0  0  0  0  0  0  0  0  0  0  0  0
    9.2070   -3.7920  -54.1290 C   0  0  0  0  0  0  0  0  0  0  0  0
    8.0230   -2.8050  -54.1650 C   0  0  1  0  0  0  0  0  0  0  0  0
    6.9540   -3.2240  -53.1600 C   0  0  0  0  0  0  0  0  0  0  0  0
    6.6960    0.7760  -55.7920 C   0  0  0  0  0  0  0  0  0  0  0  0
    7.1390    1.6170  -56.8580 C   0  0  0  0  0  0  0  0  0  0  0  0
    6.3090    2.1330  -57.9770 C   0  0  0  0  0  0  0  0  0  0  0  0
   10.9050    1.9800  -56.9780 N   0  0  0  0  0  0  0  0  0  0  0  0
   11.9570    2.6210  -57.2280 N   0  0  0  0  0  0  0  0  0  0  0  0
   13.6927    4.9647  -57.2436 H   0  0  0  0  0  0  0  0  0  0  0  0
   13.6842    3.9296  -58.7116 H   0  0  0  0  0  0  0  0  0  0  0  0
   12.8040    5.4954  -58.7116 H   0  0  0  0  0  0  0  0  0  0  0  0
   10.8160    5.6320  -57.7470 H   0  0  0  0  0  0  0  0  0  0  0  0
    9.4915    4.1704  -55.9098 H   0  0  0  0  0  0  0  0  0  0  0  0
    8.6784    4.5207  -57.4586 H   0  0  0  0  0  0  0  0  0  0  0  0
    9.4212    2.4280  -58.4247 H   0  0  0  0  0  0  0  0  0  0  0  0
   10.5887   -0.7734  -54.0042 H   0  0  0  0  0  0  0  0  0  0  0  0
   10.2290   -1.6188  -52.4958 H   0  0  0  0  0  0  0  0  0  0  0  0
   11.3276   -3.3921  -53.7325 H   0  0  0  0  0  0  0  0  0  0  0  0
   10.6648   -1.8104  -56.0560 H   0  0  0  0  0  0  0  0  0  0  0  0
   12.1271   -2.8153  -55.5410 H   0  0  0  0  0  0  0  0  0  0  0  0
    9.6197   -3.6113  -56.4514 H   0  0  0  0  0  0  0  0  0  0  0  0
   11.0418   -4.3305  -58.8196 H   0  0  0  0  0  0  0  0  0  0  0  0
   12.3185   -3.5546  -58.3822 H   0  0  0  0  0  0  0  0  0  0  0  0
   11.2512   -6.1893  -56.6513 H   0  0  0  0  0  0  0  0  0  0  0  0
   12.4528   -5.3226  -54.8561 H   0  0  0  0  0  0  0  0  0  0  0  0
   13.1044   -6.3778  -56.1555 H   0  0  0  0  0  0  0  0  0  0  0  0
   13.4749   -4.6202  -56.1555 H   0  0  0  0  0  0  0  0  0  0  0  0
    9.1507   -4.4907  -54.9767 H   0  0  0  0  0  0  0  0  0  0  0  0
    9.2038   -4.3992  -53.2118 H   0  0  0  0  0  0  0  0  0  0  0  0
    7.5048   -2.7804  -55.1350 H   0  0  0  0  0  0  0  0  0  0  0  0
    7.3331   -3.0754  -52.1381 H   0  0  0  0  0  0  0  0  0  0  0  0
    6.0514   -2.6131  -53.3087 H   0  0  0  0  0  0  0  0  0  0  0  0
    6.7069   -4.2855  -53.3087 H   0  0  0  0  0  0  0  0  0  0  0  0
    5.6765    0.3868  -55.6537 H   0  0  0  0  0  0  0  0  0  0  0  0
    5.4408    2.6728  -57.5709 H   0  0  0  0  0  0  0  0  0  0  0  0
    6.9100    2.8169  -58.5943 H   0  0  0  0  0  0  0  0  0  0  0  0
    5.9616    1.2914  -58.5943 H   0  0  0  0  0  0  0  0  0  0  0  0
  1  2  1  0
  2  3  2  0
  3  4  1  0
  4  5  1  0
  5  6  1  0
  6  7  1  0
  7  8  1  0
  8  9  1  0
  9 10  2  0
  9 11  1  0
 11 12  1  0
 12 13  1  0
 13 14  1  0
 14 15  1  0
 15 16  1  0
 16 17  1  0
 17 18  1  0
 13 19  1  0
 19 20  1  0
 20 21  1  0
  8 22  2  0
 22 23  1  0
 23 24  1  0
  5 25  1  0
 25 26  2  0
 26  2  1  0
 23  6  2  0
 20 11  1  0
 17 15  1  0
  1 27  1  0
  1 28  1  0
  1 29  1  0
  3 30  1  0
  4 31  1  0
  4 32  1  0
  5 33  1  6
 12 34  1  0
 12 35  1  0
 13 36  1  1
 14 37  1  0
 14 38  1  0
 15 39  1  6
 16 40  1  0
 16 41  1  0
 17 42  1  6
 18 43  1  0
 18 44  1  0
 18 45  1  0
 19 46  1  0
 19 47  1  0
 20 48  1  6
 21 49  1  0
 21 50  1  0
 21 51  1  0
 22 52  1  0
 24 53  1  0
 24 54  1  0
 24 55  1  0
M  CHG  1   3   1
M  END
>  <meeko>  (215) 
{"is_sidechain": false}

$$$$

     RDKit          3D

 55 58  0  0  0  0  0  0  0  0999 V2000
   10.1980    5.3350  -57.9900 C   0  0  0  0  0  0  0  0  0  0  0  0
    9.3790    4.4140  -58.8390 C   0  0  0  0  0  0  0  0  0  0  0  0
    9.8590    3.2470  -59.0660 N   0  0  0  0  0  0  0  0  0  0  0  0
    9.0630    2.2630  -59.8260 C   0  0  0  0  0  0  0  0  0  0  0  0
    7.5790    2.5780  -59.5980 C   0  0  1  0  0  0  0  0  0  0  0  0
    7.1050    2.1320  -58.2470 C   0  0  0  0  0  0  0  0  0  0  0  0
    8.0740    1.6750  -57.4140 O   0  0  0  0  0  0  0  0  0  0  0  0
    7.5020    1.2910  -56.2320 C   0  0  0  0  0  0  0  0  0  0  0  0
    8.4170    0.7410  -55.2450 C   0  0  0  0  0  0  0  0  0  0  0  0
    9.2470    1.4780  -54.7050 O   0  0  0  0  0  0  0  0  0  0  0  0
    8.3490   -0.6100  -54.9240 N   0  0  0  0  0  0  0  0  0  0  0  0
    7.1280   -1.3570  -54.6340 C   0  0  0  0  0  0  0  0  0  0  0  0
    7.5360   -2.4010  -53.5900 C   0  0  2  0  0  0  0  0  0  0  0  0
    7.3940   -1.8430  -52.1620 C   0  0  0  0  0  0  0  0  0  0  0  0
    8.1360   -2.6690  -51.1500 C   0  0  1  0  0  0  0  0  0  0  0  0
    7.8810   -2.4920  -49.6730 C   0  0  0  0  0  0  0  0  0  0  0  0
    7.4480   -3.7610  -50.3580 C   0  0  1  0  0  0  0  0  0  0  0  0
    5.9990   -4.0760  -50.5110 C   0  0  0  0  0  0  0  0  0  0  0  0
    8.9830   -2.6910  -53.9930 C   0  0  0  0  0  0  0  0  0  0  0  0
    9.5260   -1.3230  -54.4210 C   0  0  1  0  0  0  0  0  0  0  0  0
   10.6320   -1.4710  -55.4610 C   0  0  0  0  0  0  0  0  0  0  0  0
    6.1380    1.4980  -56.3310 C   0  0  0  0  0  0  0  0  0  0  0  0
    5.8760    2.0580  -57.6210 C   0  0  0  0  0  0  0  0  0  0  0  0
    4.5540    2.4560  -58.1670 C   0  0  0  0  0  0  0  0  0  0  0  0
    7.3440    4.0330  -59.7650 N   0  0  0  0  0  0  0  0  0  0  0  0
    8.1920    4.8700  -59.3550 N   0  0  0  0  0  0  0  0  0  0  0  0
   10.0077    5.1210  -56.9279 H   0  0  0  0  0  0  0  0  0  0  0  0
   11.2653    5.1836  -58.2090 H   0  0  0  0  0  0  0  0  0  0  0  0
    9.9230    6.3773  -58.2090 H   0  0  0  0  0  0  0  0  0  0  0  0
   10.7370    2.9720  -58.6210 H   0  0  0  0  0  0  0  0  0  0  0  0
    9.3004    2.3381  -60.8974 H   0  0  0  0  0  0  0  0  0  0  0  0
    9.2936    1.2417  -59.4886 H   0  0  0  0  0  0  0  0  0  0  0  0
    7.0014    2.0175  -60.3478 H   0  0  0  0  0  0  0  0  0  0  0  0
    6.3536   -0.6887  -54.2294 H   0  0  0  0  0  0  0  0  0  0  0  0
    6.7051   -1.8213  -55.5371 H   0  0  0  0  0  0  0  0  0  0  0  0
    6.9130   -3.3074  -53.5714 H   0  0  0  0  0  0  0  0  0  0  0  0
    7.7919   -0.8177  -52.1418 H   0  0  0  0  0  0  0  0  0  0  0  0
    6.3267   -1.8654  -51.8968 H   0  0  0  0  0  0  0  0  0  0  0  0
    9.0191   -2.6263  -51.8045 H   0  0  0  0  0  0  0  0  0  0  0  0
    8.7222   -2.5099  -48.9645 H   0  0  0  0  0  0  0  0  0  0  0  0
    7.3777   -1.7314  -49.0580 H   0  0  0  0  0  0  0  0  0  0  0  0
    7.6311   -4.8371  -50.2222 H   0  0  0  0  0  0  0  0  0  0  0  0
    5.5386   -4.1761  -49.5170 H   0  0  0  0  0  0  0  0  0  0  0  0
    5.5038   -3.2645  -51.0644 H   0  0  0  0  0  0  0  0  0  0  0  0
    5.8854   -5.0198  -51.0644 H   0  0  0  0  0  0  0  0  0  0  0  0
    9.5541   -3.0902  -53.1418 H   0  0  0  0  0  0  0  0  0  0  0  0
    9.0591   -3.4463  -54.7891 H   0  0  0  0  0  0  0  0  0  0  0  0
   10.0026   -0.7688  -53.5990 H   0  0  0  0  0  0  0  0  0  0  0  0
   11.5987   -1.6004  -54.9523 H   0  0  0  0  0  0  0  0  0  0  0  0
   10.4283   -2.3499  -56.0903 H   0  0  0  0  0  0  0  0  0  0  0  0
   10.6666   -0.5695  -56.0903 H   0  0  0  0  0  0  0  0  0  0  0  0
    5.3895    1.2726  -55.5571 H   0  0  0  0  0  0  0  0  0  0  0  0
    3.8623    2.6642  -57.3374 H   0  0  0  0  0  0  0  0  0  0  0  0
    4.6690    3.3593  -58.7841 H   0  0  0  0  0  0  0  0  0  0  0  0
    4.1512    1.6393  -58.7841 H   0  0  0  0  0  0  0  0  0  0  0  0
  1  2  1  0
  2  3  2  0
  3  4  1  0
  4  5  1  0
  5  6  1  0
  6  7  1  0
  7  8  1  0
  8  9  1  0
  9 10  2  0
  9 11  1  0
 11 12  1  0
 12 13  1  0
 13 14  1  0
 14 15  1  0
 15 16  1  0
 16 17  1  0
 17 18  1  0
 13 19  1  0
 19 20  1  0
 20 21  1  0
  8 22  2  0
 22 23  1  0
 23 24  1  0
  5 25  1  0
 25 26  2  0
 26  2  1  0
 23  6  2  0
 20 11  1  0
 17 15  1  0
  1 27  1  0
  1 28  1  0
  1 29  1  0
  3 30  1  0
  4 31  1  0
  4 32  1  0
  5 33  1  6
 12 34  1  0
 12 35  1  0
 13 36  1  1
 14 37  1  0
 14 38  1  0
 15 39  1  1
 16 40  1  0
 16 41  1  0
 17 42  1  1
 18 43  1  0
 18 44  1  0
 18 45  1  0
 19 46  1  0
 19 47  1  0
 20 48  1  1
 21 49  1  0
 21 50  1  0
 21 51  1  0
 22 52  1  0
 24 53  1  0
 24 54  1  0
 24 55  1  0
M  CHG  1   3   1
M  END
>  <meeko>  (216) 
{"is_sidechain": false}

$$$$

     RDKit          3D

 55 58  0  0  0  0  0  0  0  0999 V2000
   11.5880    5.8350  -59.9660 C   0  0  0  0  0  0  0  0  0  0  0  0
   10.7370    4.8540  -59.2650 C   0  0  0  0  0  0  0  0  0  0  0  0
   10.1140    5.2180  -58.1490 N   0  0  0  0  0  0  0  0  0  0  0  0
    9.3350    4.3040  -57.4410 C   0  0  0  0  0  0  0  0  0  0  0  0
    9.1460    3.0390  -57.8840 C   0  0  0  0  0  0  0  0  0  0  0  0
    8.3860    2.1540  -57.0500 C   0  0  0  0  0  0  0  0  0  0  0  0
    8.9560    1.5110  -55.9760 O   0  0  0  0  0  0  0  0  0  0  0  0
    8.0370    0.7100  -55.3600 C   0  0  0  0  0  0  0  0  0  0  0  0
    8.5090   -0.0720  -54.2300 C   0  0  0  0  0  0  0  0  0  0  0  0
    8.5510    0.4260  -53.1030 O   0  0  0  0  0  0  0  0  0  0  0  0
    8.8960   -1.3950  -54.4170 N   0  0  0  0  0  0  0  0  0  0  0  0
   10.2790   -1.6850  -54.7810 C   0  0  0  0  0  0  0  0  0  0  0  0
   10.4510   -3.1880  -54.5710 C   0  0  2  0  0  0  0  0  0  0  0  0
   11.5070   -3.7910  -55.4980 C   0  0  0  0  0  0  0  0  0  0  0  0
   11.1120   -3.6930  -56.9440 C   0  0  1  0  0  0  0  0  0  0  0  0
   12.1640   -3.4110  -57.9870 C   0  0  0  0  0  0  0  0  0  0  0  0
   11.4640   -4.7440  -57.9740 C   0  0  1  0  0  0  0  0  0  0  0  0
   12.2280   -5.9830  -57.6510 C   0  0  0  0  0  0  0  0  0  0  0  0
    9.0340   -3.7150  -54.8050 C   0  0  0  0  0  0  0  0  0  0  0  0
    8.1440   -2.6300  -54.1880 C   0  0  1  0  0  0  0  0  0  0  0  0
    7.8950   -2.8790  -52.6990 C   0  0  0  0  0  0  0  0  0  0  0  0
    6.8480    0.8170  -56.0470 C   0  0  0  0  0  0  0  0  0  0  0  0
    7.0480    1.7530  -57.1090 C   0  0  0  0  0  0  0  0  0  0  0  0
    5.9970    2.1820  -58.0710 C   0  0  0  0  0  0  0  0  0  0  0  0
    9.7140    2.6520  -59.0910 N   0  0  0  0  0  0  0  0  0  0  0  0
   10.6220    3.6270  -59.7730 N   0  0  0  0  0  0  0  0  0  0  0  0
   12.1222    6.4508  -59.2275 H   0  0  0  0  0  0  0  0  0  0  0  0
   12.3165    5.3041  -60.5965 H   0  0  0  0  0  0  0  0  0  0  0  0
   10.9596    6.4812  -60.5965 H   0  0  0  0  0  0  0  0  0  0  0  0
   10.2270    6.1610  -57.7860 H   0  0  0  0  0  0  0  0  0  0  0  0
    8.8622    4.6186  -56.4990 H   0  0  0  0  0  0  0  0  0  0  0  0
   10.4630   -1.4205  -55.8327 H   0  0  0  0  0  0  0  0  0  0  0  0
   10.9902   -1.1047  -54.1748 H   0  0  0  0  0  0  0  0  0  0  0  0
   10.8369   -3.4597  -53.5774 H   0  0  0  0  0  0  0  0  0  0  0  0
   12.4555   -3.2534  -55.3522 H   0  0  0  0  0  0  0  0  0  0  0  0
   11.6096   -4.8569  -55.2464 H   0  0  0  0  0  0  0  0  0  0  0  0
   10.1647   -3.2382  -56.6187 H   0  0  0  0  0  0  0  0  0  0  0  0
   11.9592   -2.6909  -58.7930 H   0  0  0  0  0  0  0  0  0  0  0  0
   13.2145   -3.0856  -57.9617 H   0  0  0  0  0  0  0  0  0  0  0  0
   10.8706   -5.3409  -58.6822 H   0  0  0  0  0  0  0  0  0  0  0  0
   12.2980   -6.0965  -56.5591 H   0  0  0  0  0  0  0  0  0  0  0  0
   11.7104   -6.8547  -58.0778 H   0  0  0  0  0  0  0  0  0  0  0  0
   13.2393   -5.9119  -58.0778 H   0  0  0  0  0  0  0  0  0  0  0  0
    8.8288   -3.8281  -55.8798 H   0  0  0  0  0  0  0  0  0  0  0  0
    8.8675   -4.7088  -54.3637 H   0  0  0  0  0  0  0  0  0  0  0  0
    7.1393   -2.6010  -54.6348 H   0  0  0  0  0  0  0  0  0  0  0  0
    8.5490   -2.2250  -52.1035 H   0  0  0  0  0  0  0  0  0  0  0  0
    6.8434   -2.6604  -52.4615 H   0  0  0  0  0  0  0  0  0  0  0  0
    8.1136   -3.9306  -52.4615 H   0  0  0  0  0  0  0  0  0  0  0  0
    5.9150    0.2803  -55.8200 H   0  0  0  0  0  0  0  0  0  0  0  0
    5.1172    2.5411  -57.5169 H   0  0  0  0  0  0  0  0  0  0  0  0
    6.3878    2.9926  -58.7037 H   0  0  0  0  0  0  0  0  0  0  0  0
    5.7090    1.3295  -58.7037 H   0  0  0  0  0  0  0  0  0  0  0  0
    9.9390    1.6590  -59.1750 H   0  0  0  0  0  0  0  0  0  0  0  0
   11.1310    3.3860  -60.6220 H   0  0  0  0  0  0  0  0  0  0  0  0
  1  2  1  0
  2  3  2  0
  3  4  1  0
  4  5  2  0
  5  6  1  0
  6  7  1  0
  7  8  1  0
  8  9  1  0
  9 10  2  0
  9 11  1  0
 11 12  1  0
 12 13  1  0
 13 14  1  0
 14 15  1  0
 15 16  1  0
 16 17  1  0
 17 18  1  0
 13 19  1  0
 19 20  1  0
 20 21  1  0
  8 22  2  0
 22 23  1  0
 23 24  1  0
  5 25  1  0
 25 26  1  0
 26  2  1  0
 23  6  2  0
 20 11  1  0
 17 15  1  0
  1 27  1  0
  1 28  1  0
  1 29  1  0
  3 30  1  0
  4 31  1  0
 12 32  1  0
 12 33  1  0
 13 34  1  1
 14 35  1  0
 14 36  1  0
 15 37  1  1
 16 38  1  0
 16 39  1  0
 17 40  1  6
 18 41  1  0
 18 42  1  0
 18 43  1  0
 19 44  1  0
 19 45  1  0
 20 46  1  6
 21 47  1  0
 21 48  1  0
 21 49  1  0
 22 50  1  0
 24 51  1  0
 24 52  1  0
 24 53  1  0
 25 54  1  0
 26 55  1  0
M  CHG  1   3   1
M  END
>  <meeko>  (217) 
{"is_sidechain": false}

$$$$

     RDKit          3D

 57 60  0  0  0  0  0  0  0  0999 V2000
    8.8150   -2.9750  -51.2430 C   0  0  0  0  0  0  0  0  0  0  0  0
    8.0150   -3.1470  -52.3040 C   0  0  0  0  0  0  0  0  0  0  0  0
    8.2900   -2.8000  -53.7470 C   0  0  0  0  0  0  0  0  0  0  0  0
    9.5900   -2.0460  -54.1070 C   0  0  1  0  0  0  0  0  0  0  0  0
   10.5930   -2.9820  -54.8220 C   0  0  2  0  0  0  0  0  0  0  0  0
   11.4620   -3.7590  -53.8380 C   0  0  0  0  0  0  0  0  0  0  0  0
   11.4360   -2.0540  -55.7320 C   0  0  1  0  0  0  0  0  0  0  0  0
   11.4450   -2.5100  -57.2010 C   0  0  0  0  0  0  0  0  0  0  0  0
   12.1470   -3.8250  -57.3860 C   0  0  2  0  0  0  0  0  0  0  0  0
   12.0480   -4.5650  -58.6980 C   0  0  0  0  0  0  0  0  0  0  0  0
   11.3430   -5.1000  -57.4780 C   0  0  1  0  0  0  0  0  0  0  0  0
   11.8290   -6.3430  -56.8150 C   0  0  0  0  0  0  0  0  0  0  0  0
   10.7710   -0.6830  -55.5930 C   0  0  0  0  0  0  0  0  0  0  0  0
    9.4450   -0.9410  -55.0630 N   0  0  0  0  0  0  0  0  0  0  0  0
    8.7480    0.1950  -54.6490 C   0  0  0  0  0  0  0  0  0  0  0  0
    8.5900    0.5010  -53.4720 O   0  0  0  0  0  0  0  0  0  0  0  0
    8.2500    1.0960  -55.7280 C   0  0  0  0  0  0  0  0  0  0  0  0
    6.8990    1.1340  -56.0880 C   0  0  0  0  0  0  0  0  0  0  0  0
    6.4770    1.9850  -57.1060 C   0  0  0  0  0  0  0  0  0  0  0  0
    7.4050    2.7910  -57.7710 C   0  0  0  0  0  0  0  0  0  0  0  0
    8.7720    2.7620  -57.4400 C   0  0  0  0  0  0  0  0  0  0  0  0
    9.6980    3.6350  -58.1800 C   0  0  0  0  0  0  0  0  0  0  0  0
   11.0110    3.6440  -58.0390 N   0  0  0  0  0  0  0  0  0  0  0  0
   11.5730    4.6010  -58.9040 C   0  0  0  0  0  0  0  0  0  0  0  0
   13.0670    4.8250  -58.9530 C   0  0  0  0  0  0  0  0  0  0  0  0
   13.7270    3.8260  -59.6040 F   0  0  0  0  0  0  0  0  0  0  0  0
   13.3970    5.9790  -59.5970 F   0  0  0  0  0  0  0  0  0  0  0  0
   13.6220    4.9000  -57.7120 F   0  0  0  0  0  0  0  0  0  0  0  0
   10.7430    5.3070  -59.6860 N   0  0  0  0  0  0  0  0  0  0  0  0
    9.1970    4.7890  -59.3550 S   0  0  0  0  0  0  0  0  0  0  0  0
    9.1800    1.8970  -56.4130 C   0  0  0  0  0  0  0  0  0  0  0  0
    8.4745   -3.2795  -50.2423 H   0  0  0  0  0  0  0  0  0  0  0  0
    9.8123   -2.5293  -51.3726 H   0  0  0  0  0  0  0  0  0  0  0  0
    7.0334   -3.5983  -52.0972 H   0  0  0  0  0  0  0  0  0  0  0  0
    8.3012   -3.7459  -54.3084 H   0  0  0  0  0  0  0  0  0  0  0  0
    7.4940   -2.0842  -54.0000 H   0  0  0  0  0  0  0  0  0  0  0  0
    9.9148   -1.6670  -53.1268 H   0  0  0  0  0  0  0  0  0  0  0  0
   10.0730   -3.7581  -55.4027 H   0  0  0  0  0  0  0  0  0  0  0  0
   11.1722   -3.4999  -52.8090 H   0  0  0  0  0  0  0  0  0  0  0  0
   11.3216   -4.8382  -53.9977 H   0  0  0  0  0  0  0  0  0  0  0  0
   12.5189   -3.4992  -53.9977 H   0  0  0  0  0  0  0  0  0  0  0  0
   12.4940   -2.0546  -55.4310 H   0  0  0  0  0  0  0  0  0  0  0  0
   10.4055   -2.6125  -57.5458 H   0  0  0  0  0  0  0  0  0  0  0  0
   11.9895   -1.7531  -57.7847 H   0  0  0  0  0  0  0  0  0  0  0  0
   12.9763   -3.4676  -56.7579 H   0  0  0  0  0  0  0  0  0  0  0  0
   11.4646   -4.1383  -59.5272 H   0  0  0  0  0  0  0  0  0  0  0  0
   12.7736   -4.9721  -59.4176 H   0  0  0  0  0  0  0  0  0  0  0  0
   10.3074   -5.3851  -57.2409 H   0  0  0  0  0  0  0  0  0  0  0  0
   11.7806   -6.2191  -55.7231 H   0  0  0  0  0  0  0  0  0  0  0  0
   11.1961   -7.1908  -57.1163 H   0  0  0  0  0  0  0  0  0  0  0  0
   12.8691   -6.5366  -57.1163 H   0  0  0  0  0  0  0  0  0  0  0  0
   11.3434   -0.0476  -54.9013 H   0  0  0  0  0  0  0  0  0  0  0  0
   10.7270   -0.1538  -56.5564 H   0  0  0  0  0  0  0  0  0  0  0  0
    6.1717    0.4931  -55.5681 H   0  0  0  0  0  0  0  0  0  0  0  0
    5.4141    2.0229  -57.3866 H   0  0  0  0  0  0  0  0  0  0  0  0
    7.0591    3.4626  -58.5705 H   0  0  0  0  0  0  0  0  0  0  0  0
   10.2443    1.8450  -56.1398 H   0  0  0  0  0  0  0  0  0  0  0  0
  1  2  2  0
  2  3  1  0
  3  4  1  0
  4  5  1  0
  5  6  1  0
  5  7  1  0
  7  8  1  0
  8  9  1  0
  9 10  1  0
 10 11  1  0
 11 12  1  0
  7 13  1  0
 13 14  1  0
 14 15  1  0
 15 16  2  0
 15 17  1  0
 17 18  1  0
 18 19  2  0
 19 20  1  0
 20 21  2  0
 21 22  1  0
 22 23  2  0
 23 24  1  0
 24 25  1  0
 25 26  1  0
 25 27  1  0
 25 28  1  0
 24 29  2  0
 29 30  1  0
 21 31  1  0
 14  4  1  0
 31 17  2  0
 11  9  1  0
 30 22  1  0
  1 32  1  0
  1 33  1  0
  2 34  1  0
  3 35  1  0
  3 36  1  0
  4 37  1  1
  5 38  1  6
  6 39  1  0
  6 40  1  0
  6 41  1  0
  7 42  1  1
  8 43  1  0
  8 44  1  0
  9 45  1  1
 10 46  1  0
 10 47  1  0
 11 48  1  6
 12 49  1  0
 12 50  1  0
 12 51  1  0
 13 52  1  0
 13 53  1  0
 18 54  1  0
 19 55  1  0
 20 56  1  0
 31 57  1  0
M  END
>  <meeko>  (218) 
{"is_sidechain": false}

$$$$

     RDKit          3D

 60 64  0  0  0  0  0  0  0  0999 V2000
   12.9000    7.8270  -60.6100 C   0  0  0  0  0  0  0  0  0  0  0  0
   12.4850    6.8040  -59.7110 O   0  0  0  0  0  0  0  0  0  0  0  0
   11.8030    5.7400  -60.3820 C   0  0  0  0  0  0  0  0  0  0  0  0
   11.0460    4.8640  -59.4180 C   0  0  0  0  0  0  0  0  0  0  0  0
   10.6430    3.5860  -59.7970 C   0  0  0  0  0  0  0  0  0  0  0  0
    9.9670    2.7450  -58.9730 N   0  0  0  0  0  0  0  0  0  0  0  0
    9.6950    3.2350  -57.7360 C   0  0  0  0  0  0  0  0  0  0  0  0
    8.9700    2.3700  -56.8230 C   0  0  0  0  0  0  0  0  0  0  0  0
    7.6900    1.8920  -57.0240 C   0  0  0  0  0  0  0  0  0  0  0  0
    7.4320    1.1330  -55.9250 N   0  0  0  0  0  0  0  0  0  0  0  0
    6.3240    0.3890  -55.5850 C   0  0  0  0  0  0  0  0  0  0  0  0
    6.3110   -0.2800  -54.4700 N   0  0  0  0  0  0  0  0  0  0  0  0
    7.4250   -0.1730  -53.6520 C   0  0  0  0  0  0  0  0  0  0  0  0
    7.3430   -0.9780  -52.3560 C   0  0  0  0  0  0  0  0  0  0  0  0
    8.2290   -2.2150  -52.4120 N   0  0  2  0  0  0  0  0  0  0  0  0
    9.6160   -1.9320  -52.9410 C   0  0  0  0  0  0  0  0  0  0  0  0
   10.0380   -3.2590  -53.5480 C   0  0  2  0  0  0  0  0  0  0  0  0
   11.2070   -3.1360  -54.5220 C   0  0  0  0  0  0  0  0  0  0  0  0
   11.1620   -4.1990  -55.5800 C   0  0  2  0  0  0  0  0  0  0  0  0
   12.2990   -5.1770  -55.7500 C   0  0  0  0  0  0  0  0  0  0  0  0
   12.0810   -4.0910  -56.7710 C   0  0  1  0  0  0  0  0  0  0  0  0
   11.5870   -4.4340  -58.1360 C   0  0  0  0  0  0  0  0  0  0  0  0
    8.7520   -3.7210  -54.2230 C   0  0  0  0  0  0  0  0  0  0  0  0
    7.6460   -3.3680  -53.2270 C   0  0  1  0  0  0  0  0  0  0  0  0
    7.3040   -4.5180  -52.2880 C   0  0  0  0  0  0  0  0  0  0  0  0
    8.5070    0.4840  -53.9250 N   0  0  0  0  0  0  0  0  0  0  0  0
    8.5230    1.1650  -55.0950 C   0  0  0  0  0  0  0  0  0  0  0  0
    9.4740    1.9040  -55.6230 N   0  0  0  0  0  0  0  0  0  0  0  0
   10.0930    4.5110  -57.3550 C   0  0  0  0  0  0  0  0  0  0  0  0
   10.7740    5.3480  -58.1780 N   0  0  0  0  0  0  0  0  0  0  0  0
   13.2531    8.6973  -60.0374 H   0  0  0  0  0  0  0  0  0  0  0  0
   13.7161    7.4494  -61.2436 H   0  0  0  0  0  0  0  0  0  0  0  0
   12.0515    8.1247  -61.2436 H   0  0  0  0  0  0  0  0  0  0  0  0
   11.0935    6.1712  -61.1036 H   0  0  0  0  0  0  0  0  0  0  0  0
   12.5553    5.1186  -60.8898 H   0  0  0  0  0  0  0  0  0  0  0  0
   10.8841    3.2412  -60.8134 H   0  0  0  0  0  0  0  0  0  0  0  0
    7.0273    2.0824  -57.8811 H   0  0  0  0  0  0  0  0  0  0  0  0
    5.4521    0.3608  -56.2551 H   0  0  0  0  0  0  0  0  0  0  0  0
    7.6683   -0.3426  -51.5191 H   0  0  0  0  0  0  0  0  0  0  0  0
    6.3018   -1.3045  -52.2172 H   0  0  0  0  0  0  0  0  0  0  0  0
    8.3270   -2.5230  -51.4310 H   0  0  0  0  0  0  0  0  0  0  0  0
    9.5924   -1.1398  -53.7038 H   0  0  0  0  0  0  0  0  0  0  0  0
   10.3079   -1.5756  -52.1637 H   0  0  0  0  0  0  0  0  0  0  0  0
   10.4266   -3.9699  -52.8040 H   0  0  0  0  0  0  0  0  0  0  0  0
   11.1653   -2.1492  -55.0062 H   0  0  0  0  0  0  0  0  0  0  0  0
   12.1410   -3.2571  -53.9537 H   0  0  0  0  0  0  0  0  0  0  0  0
   10.0776   -4.3019  -55.4265 H   0  0  0  0  0  0  0  0  0  0  0  0
   13.1679   -5.1326  -55.0769 H   0  0  0  0  0  0  0  0  0  0  0  0
   12.3831   -6.2732  -55.7864 H   0  0  0  0  0  0  0  0  0  0  0  0
   12.7025   -3.2925  -57.2024 H   0  0  0  0  0  0  0  0  0  0  0  0
   10.6860   -5.0596  -58.0534 H   0  0  0  0  0  0  0  0  0  0  0  0
   11.3431   -3.5099  -58.6806 H   0  0  0  0  0  0  0  0  0  0  0  0
   12.3676   -4.9854  -58.6806 H   0  0  0  0  0  0  0  0  0  0  0  0
    8.6010   -3.1911  -55.1751 H   0  0  0  0  0  0  0  0  0  0  0  0
    8.7695   -4.7940  -54.4644 H   0  0  0  0  0  0  0  0  0  0  0  0
    6.7129   -3.1233  -53.7557 H   0  0  0  0  0  0  0  0  0  0  0  0
    7.4039   -4.1821  -51.2453 H   0  0  0  0  0  0  0  0  0  0  0  0
    6.2697   -4.8451  -52.4704 H   0  0  0  0  0  0  0  0  0  0  0  0
    7.9915   -5.3571  -52.4704 H   0  0  0  0  0  0  0  0  0  0  0  0
    9.8449    4.8579  -56.3411 H   0  0  0  0  0  0  0  0  0  0  0  0
  1  2  1  0
  2  3  1  0
  3  4  1  0
  4  5  1  0
  5  6  2  0
  6  7  1  0
  7  8  1  0
  8  9  2  0
  9 10  1  0
 10 11  1  0
 11 12  2  0
 12 13  1  0
 13 14  1  0
 14 15  1  0
 15 16  1  0
 16 17  1  0
 17 18  1  0
 18 19  1  0
 19 20  1  0
 20 21  1  0
 21 22  1  0
 17 23  1  0
 23 24  1  0
 24 25  1  0
 13 26  2  0
 26 27  1  0
 27 28  2  0
  7 29  2  0
 29 30  1  0
 30  4  2  0
 28  8  1  0
 27 10  1  0
 24 15  1  0
 21 19  1  0
  1 31  1  0
  1 32  1  0
  1 33  1  0
  3 34  1  0
  3 35  1  0
  5 36  1  0
  9 37  1  0
 11 38  1  0
 14 39  1  0
 14 40  1  0
 15 41  1  1
 16 42  1  0
 16 43  1  0
 17 44  1  1
 18 45  1  0
 18 46  1  0
 19 47  1  6
 20 48  1  0
 20 49  1  0
 21 50  1  6
 22 51  1  0
 22 52  1  0
 22 53  1  0
 23 54  1  0
 23 55  1  0
 24 56  1  6
 25 57  1  0
 25 58  1  0
 25 59  1  0
 29 60  1  0
M  CHG  1  15   1
M  END
>  <meeko>  (219) 
{"is_sidechain": false}

$$$$

     RDKit          3D

 60 64  0  0  0  0  0  0  0  0999 V2000
   13.0210    7.8740  -61.3420 C   0  0  0  0  0  0  0  0  0  0  0  0
   12.9660    7.4950  -59.9700 O   0  0  0  0  0  0  0  0  0  0  0  0
   13.4070    6.1500  -59.7630 C   0  0  0  0  0  0  0  0  0  0  0  0
   12.3520    5.3140  -59.0850 C   0  0  0  0  0  0  0  0  0  0  0  0
   12.7160    4.2310  -58.2920 C   0  0  0  0  0  0  0  0  0  0  0  0
   11.8140    3.4480  -57.6500 N   0  0  0  0  0  0  0  0  0  0  0  0
   10.5110    3.7810  -57.8210 C   0  0  0  0  0  0  0  0  0  0  0  0
    9.5320    2.9440  -57.1400 C   0  0  0  0  0  0  0  0  0  0  0  0
    8.1960    2.8090  -57.4720 C   0  0  0  0  0  0  0  0  0  0  0  0
    7.7160    1.8890  -56.5840 N   0  0  0  0  0  0  0  0  0  0  0  0
    6.4690    1.3110  -56.4660 C   0  0  0  0  0  0  0  0  0  0  0  0
    6.2520    0.4240  -55.5410 N   0  0  0  0  0  0  0  0  0  0  0  0
    7.2920    0.1370  -54.6750 C   0  0  0  0  0  0  0  0  0  0  0  0
    6.9940   -0.9240  -53.6110 C   0  0  0  0  0  0  0  0  0  0  0  0
    7.9380   -2.1200  -53.7220 N   0  0  1  0  0  0  0  0  0  0  0  0
    9.2060   -1.7990  -54.5070 C   0  0  0  0  0  0  0  0  0  0  0  0
   10.2260   -2.8100  -53.9990 C   0  0  2  0  0  0  0  0  0  0  0  0
   10.0810   -4.1670  -54.7080 C   0  0  0  0  0  0  0  0  0  0  0  0
   11.2400   -4.4650  -55.6090 C   0  0  2  0  0  0  0  0  0  0  0  0
   11.1540   -4.0870  -57.0680 C   0  0  0  0  0  0  0  0  0  0  0  0
   11.1480   -5.5380  -56.6680 C   0  0  1  0  0  0  0  0  0  0  0  0
   12.3290   -6.3970  -56.9720 C   0  0  0  0  0  0  0  0  0  0  0  0
    9.8960   -2.8390  -52.5110 C   0  0  0  0  0  0  0  0  0  0  0  0
    8.3700   -2.8330  -52.4450 C   0  0  1  0  0  0  0  0  0  0  0  0
    7.8500   -2.2030  -51.1630 C   0  0  0  0  0  0  0  0  0  0  0  0
    8.4910    0.6200  -54.7510 N   0  0  0  0  0  0  0  0  0  0  0  0
    8.7240    1.5200  -55.7340 C   0  0  0  0  0  0  0  0  0  0  0  0
    9.8360    2.1330  -56.0600 N   0  0  0  0  0  0  0  0  0  0  0  0
   10.1470    4.8630  -58.6160 C   0  0  0  0  0  0  0  0  0  0  0  0
   11.0470    5.6460  -59.2640 N   0  0  0  0  0  0  0  0  0  0  0  0
   13.1786    8.9601  -61.4163 H   0  0  0  0  0  0  0  0  0  0  0  0
   13.8523    7.3483  -61.8346 H   0  0  0  0  0  0  0  0  0  0  0  0
   12.0746    7.6063  -61.8346 H   0  0  0  0  0  0  0  0  0  0  0  0
   13.6464    5.6996  -60.7376 H   0  0  0  0  0  0  0  0  0  0  0  0
   14.2932    6.1767  -59.1119 H   0  0  0  0  0  0  0  0  0  0  0  0
   13.7854    3.9988  -58.1804 H   0  0  0  0  0  0  0  0  0  0  0  0
    7.6445    3.3260  -58.2711 H   0  0  0  0  0  0  0  0  0  0  0  0
    5.6601    1.6001  -57.1531 H   0  0  0  0  0  0  0  0  0  0  0  0
    7.1085   -0.4713  -52.6150 H   0  0  0  0  0  0  0  0  0  0  0  0
    5.9663   -1.2842  -53.7660 H   0  0  0  0  0  0  0  0  0  0  0  0
    7.4180   -2.8140  -54.2790 H   0  0  0  0  0  0  0  0  0  0  0  0
    9.0382   -1.9232  -55.5870 H   0  0  0  0  0  0  0  0  0  0  0  0
    9.5369   -0.7595  -54.3661 H   0  0  0  0  0  0  0  0  0  0  0  0
   11.2781   -2.5549  -54.1939 H   0  0  0  0  0  0  0  0  0  0  0  0
   10.0123   -4.9581  -53.9468 H   0  0  0  0  0  0  0  0  0  0  0  0
    9.1740   -4.1267  -55.3290 H   0  0  0  0  0  0  0  0  0  0  0  0
   11.9335   -4.2619  -54.7797 H   0  0  0  0  0  0  0  0  0  0  0  0
   10.2385   -3.6217  -57.4622 H   0  0  0  0  0  0  0  0  0  0  0  0
   11.7606   -3.4710  -57.7482 H   0  0  0  0  0  0  0  0  0  0  0  0
   10.4807   -6.3937  -56.8484 H   0  0  0  0  0  0  0  0  0  0  0  0
   12.7902   -6.7325  -56.0314 H   0  0  0  0  0  0  0  0  0  0  0  0
   12.0055   -7.2723  -57.5544 H   0  0  0  0  0  0  0  0  0  0  0  0
   13.0621   -5.8197  -57.5544 H   0  0  0  0  0  0  0  0  0  0  0  0
   10.2998   -3.7489  -52.0430 H   0  0  0  0  0  0  0  0  0  0  0  0
   10.3364   -1.9865  -51.9731 H   0  0  0  0  0  0  0  0  0  0  0  0
    7.9395   -3.8444  -52.4021 H   0  0  0  0  0  0  0  0  0  0  0  0
    8.2813   -2.7256  -50.2965 H   0  0  0  0  0  0  0  0  0  0  0  0
    8.1389   -1.1420  -51.1324 H   0  0  0  0  0  0  0  0  0  0  0  0
    6.7535   -2.2855  -51.1324 H   0  0  0  0  0  0  0  0  0  0  0  0
    9.0774    5.0955  -58.7249 H   0  0  0  0  0  0  0  0  0  0  0  0
  1  2  1  0
  2  3  1  0
  3  4  1  0
  4  5  1  0
  5  6  2  0
  6  7  1  0
  7  8  1  0
  8  9  2  0
  9 10  1  0
 10 11  1  0
 11 12  2  0
 12 13  1  0
 13 14  1  0
 14 15  1  0
 15 16  1  0
 16 17  1  0
 17 18  1  0
 18 19  1  0
 19 20  1  0
 20 21  1  0
 21 22  1  0
 17 23  1  0
 23 24  1  0
 24 25  1  0
 13 26  2  0
 26 27  1  0
 27 28  2  0
  7 29  2  0
 29 30  1  0
 30  4  2  0
 28  8  1  0
 27 10  1  0
 24 15  1  0
 21 19  1  0
  1 31  1  0
  1 32  1  0
  1 33  1  0
  3 34  1  0
  3 35  1  0
  5 36  1  0
  9 37  1  0
 11 38  1  0
 14 39  1  0
 14 40  1  0
 15 41  1  6
 16 42  1  0
 16 43  1  0
 17 44  1  1
 18 45  1  0
 18 46  1  0
 19 47  1  1
 20 48  1  0
 20 49  1  0
 21 50  1  1
 22 51  1  0
 22 52  1  0
 22 53  1  0
 23 54  1  0
 23 55  1  0
 24 56  1  6
 25 57  1  0
 25 58  1  0
 25 59  1  0
 29 60  1  0
M  CHG  1  15   1
M  END
>  <meeko>  (220) 
{"is_sidechain": false}

$$$$

     RDKit          3D

 61 65  0  0  0  0  0  0  0  0999 V2000
   12.9780    7.8750  -61.0290 C   0  0  0  0  0  0  0  0  0  0  0  0
   13.0080    7.3120  -59.7220 O   0  0  0  0  0  0  0  0  0  0  0  0
   13.3590    5.9270  -59.7380 C   0  0  0  0  0  0  0  0  0  0  0  0
   12.3160    5.1080  -59.0200 C   0  0  0  0  0  0  0  0  0  0  0  0
   12.6170    3.8250  -58.5700 C   0  0  0  0  0  0  0  0  0  0  0  0
   11.7210    3.0430  -57.9110 N   0  0  0  0  0  0  0  0  0  0  0  0
   10.5020    3.6020  -57.7270 C   0  0  0  0  0  0  0  0  0  0  0  0
    9.4830    2.6970  -56.9780 C   0  0  0  0  0  0  0  0  0  0  0  0
    8.1960    2.3240  -57.3000 C   0  0  0  0  0  0  0  0  0  0  0  0
    7.7730    1.5150  -56.2770 N   0  0  0  0  0  0  0  0  0  0  0  0
    6.5270    0.8430  -56.0870 C   0  0  0  0  0  0  0  0  0  0  0  0
    6.3650    0.1300  -55.0250 N   0  0  0  0  0  0  0  0  0  0  0  0
    7.3620    0.0510  -54.0810 C   0  0  0  0  0  0  0  0  0  0  0  0
    6.9990   -0.7660  -52.8280 C   0  0  0  0  0  0  0  0  0  0  0  0
    7.9340   -1.9420  -52.5860 N   0  0  2  0  0  0  0  0  0  0  0  0
    9.3390   -1.6920  -53.1260 C   0  0  0  0  0  0  0  0  0  0  0  0
    9.8600   -3.0920  -53.3870 C   0  0  2  0  0  0  0  0  0  0  0  0
   11.1500   -3.1590  -54.2040 C   0  0  0  0  0  0  0  0  0  0  0  0
   11.0930   -4.0580  -55.4050 C   0  0  2  0  0  0  0  0  0  0  0  0
   12.2450   -5.0010  -55.6530 C   0  0  0  0  0  0  0  0  0  0  0  0
   12.0080   -3.8470  -56.5890 C   0  0  1  0  0  0  0  0  0  0  0  0
   11.5290   -4.1150  -57.9760 C   0  0  0  0  0  0  0  0  0  0  0  0
    8.6470   -3.7710  -54.0110 C   0  0  0  0  0  0  0  0  0  0  0  0
    7.4640   -3.2750  -53.1760 C   0  0  1  0  0  0  0  0  0  0  0  0
    7.1020   -4.2190  -52.0370 C   0  0  0  0  0  0  0  0  0  0  0  0
    8.5300    0.5930  -54.1640 N   0  0  0  0  0  0  0  0  0  0  0  0
    8.6960    1.3690  -55.3560 C   0  0  0  0  0  0  0  0  0  0  0  0
    9.7400    2.0670  -55.7570 N   0  0  0  0  0  0  0  0  0  0  0  0
   10.1840    4.8750  -58.1680 C   0  0  0  0  0  0  0  0  0  0  0  0
   11.0810    5.6480  -58.8190 N   0  0  0  0  0  0  0  0  0  0  0  0
   12.9196    8.9709  -60.9549 H   0  0  0  0  0  0  0  0  0  0  0  0
   13.8925    7.5924  -61.5711 H   0  0  0  0  0  0  0  0  0  0  0  0
   12.0987    7.4968  -61.5711 H   0  0  0  0  0  0  0  0  0  0  0  0
   13.4330    5.5846  -60.7807 H   0  0  0  0  0  0  0  0  0  0  0  0
   14.3246    5.7994  -59.2268 H   0  0  0  0  0  0  0  0  0  0  0  0
   13.6251    3.4262  -58.7561 H   0  0  0  0  0  0  0  0  0  0  0  0
    7.6253    2.6154  -58.1941 H   0  0  0  0  0  0  0  0  0  0  0  0
    5.7221    0.9319  -56.8315 H   0  0  0  0  0  0  0  0  0  0  0  0
    7.0406   -0.1007  -51.9530 H   0  0  0  0  0  0  0  0  0  0  0  0
    5.9914   -1.1776  -52.9874 H   0  0  0  0  0  0  0  0  0  0  0  0
    8.0310   -2.0440  -51.5660 H   0  0  0  0  0  0  0  0  0  0  0  0
    9.3064   -1.1031  -54.0545 H   0  0  0  0  0  0  0  0  0  0  0  0
    9.9723   -1.1163  -52.4349 H   0  0  0  0  0  0  0  0  0  0  0  0
   10.2084   -3.6031  -52.4774 H   0  0  0  0  0  0  0  0  0  0  0  0
   11.3885   -2.1423  -54.5495 H   0  0  0  0  0  0  0  0  0  0  0  0
   11.9150   -3.5838  -53.5374 H   0  0  0  0  0  0  0  0  0  0  0  0
   10.0025   -4.1461  -55.2904 H   0  0  0  0  0  0  0  0  0  0  0  0
   13.1157   -4.9935  -54.9809 H   0  0  0  0  0  0  0  0  0  0  0  0
   12.3456   -6.0899  -55.7723 H   0  0  0  0  0  0  0  0  0  0  0  0
   12.6066   -3.0016  -56.9592 H   0  0  0  0  0  0  0  0  0  0  0  0
   10.5697   -4.6517  -57.9353 H   0  0  0  0  0  0  0  0  0  0  0  0
   11.3935   -3.1616  -58.5078 H   0  0  0  0  0  0  0  0  0  0  0  0
   12.2706   -4.7293  -58.5078 H   0  0  0  0  0  0  0  0  0  0  0  0
    8.5327   -3.4735  -55.0638 H   0  0  0  0  0  0  0  0  0  0  0  0
    8.7322   -4.8677  -54.0089 H   0  0  0  0  0  0  0  0  0  0  0  0
    6.5642   -3.1964  -53.8038 H   0  0  0  0  0  0  0  0  0  0  0  0
    7.2926   -3.7221  -51.0743 H   0  0  0  0  0  0  0  0  0  0  0  0
    6.0374   -4.4868  -52.1070 H   0  0  0  0  0  0  0  0  0  0  0  0
    7.7146   -5.1299  -52.1070 H   0  0  0  0  0  0  0  0  0  0  0  0
   10.6250    2.1660  -55.2640 H   0  0  0  0  0  0  0  0  0  0  0  0
    9.1734    5.2681  -57.9834 H   0  0  0  0  0  0  0  0  0  0  0  0
  1  2  1  0
  2  3  1  0
  3  4  1  0
  4  5  1  0
  5  6  2  0
  6  7  1  0
  7  8  1  0
  8  9  2  0
  9 10  1  0
 10 11  1  0
 11 12  2  0
 12 13  1  0
 13 14  1  0
 14 15  1  0
 15 16  1  0
 16 17  1  0
 17 18  1  0
 18 19  1  0
 19 20  1  0
 20 21  1  0
 21 22  1  0
 17 23  1  0
 23 24  1  0
 24 25  1  0
 13 26  2  0
 26 27  1  0
 27 28  2  0
  7 29  2  0
 29 30  1  0
 30  4  2  0
 28  8  1  0
 27 10  1  0
 24 15  1  0
 21 19  1  0
  1 31  1  0
  1 32  1  0
  1 33  1  0
  3 34  1  0
  3 35  1  0
  5 36  1  0
  9 37  1  0
 11 38  1  0
 14 39  1  0
 14 40  1  0
 15 41  1  1
 16 42  1  0
 16 43  1  0
 17 44  1  1
 18 45  1  0
 18 46  1  0
 19 47  1  6
 20 48  1  0
 20 49  1  0
 21 50  1  6
 22 51  1  0
 22 52  1  0
 22 53  1  0
 23 54  1  0
 23 55  1  0
 24 56  1  6
 25 57  1  0
 25 58  1  0
 25 59  1  0
 28 60  1  0
 29 61  1  0
M  CHG  2  15   1  28   1
M  END
>  <meeko>  (221) 
{"is_sidechain": false}

$$$$

     RDKit          3D

 61 65  0  0  0  0  0  0  0  0999 V2000
   13.0250    7.8940  -60.5170 C   0  0  0  0  0  0  0  0  0  0  0  0
   12.7630    6.6740  -59.8320 O   0  0  0  0  0  0  0  0  0  0  0  0
   11.8620    5.8450  -60.5690 C   0  0  0  0  0  0  0  0  0  0  0  0
   11.1320    4.9170  -59.6300 C   0  0  0  0  0  0  0  0  0  0  0  0
   10.8430    5.2990  -58.3220 C   0  0  0  0  0  0  0  0  0  0  0  0
   10.1720    4.5030  -57.4470 N   0  0  0  0  0  0  0  0  0  0  0  0
    9.8040    3.2980  -57.9340 C   0  0  0  0  0  0  0  0  0  0  0  0
    9.0590    2.3530  -56.9450 C   0  0  0  0  0  0  0  0  0  0  0  0
    7.7580    1.9160  -57.1030 C   0  0  0  0  0  0  0  0  0  0  0  0
    7.4930    1.1230  -56.0220 N   0  0  0  0  0  0  0  0  0  0  0  0
    6.2990    0.4270  -55.6740 C   0  0  0  0  0  0  0  0  0  0  0  0
    6.2940   -0.2550  -54.5820 N   0  0  0  0  0  0  0  0  0  0  0  0
    7.3980   -0.3050  -53.7740 C   0  0  0  0  0  0  0  0  0  0  0  0
    7.2150   -1.1200  -52.4780 C   0  0  0  0  0  0  0  0  0  0  0  0
    7.5890   -2.5970  -52.6240 N   0  0  1  0  0  0  0  0  0  0  0  0
    8.5840   -2.8330  -53.7490 C   0  0  0  0  0  0  0  0  0  0  0  0
    9.9290   -2.5390  -53.1020 C   0  0  2  0  0  0  0  0  0  0  0  0
   11.0830   -3.2260  -53.8330 C   0  0  0  0  0  0  0  0  0  0  0  0
   10.7750   -3.4430  -55.2830 C   0  0  2  0  0  0  0  0  0  0  0  0
   10.7640   -4.8480  -55.8330 C   0  0  0  0  0  0  0  0  0  0  0  0
   11.8490   -3.8890  -56.2480 C   0  0  1  0  0  0  0  0  0  0  0  0
   11.8780   -3.3560  -57.6400 C   0  0  0  0  0  0  0  0  0  0  0  0
    9.7620   -2.9680  -51.6360 C   0  0  0  0  0  0  0  0  0  0  0  0
    8.2730   -3.2670  -51.4460 C   0  0  1  0  0  0  0  0  0  0  0  0
    7.7130   -2.8670  -50.0950 C   0  0  0  0  0  0  0  0  0  0  0  0
    8.5350    0.2770  -53.9960 N   0  0  0  0  0  0  0  0  0  0  0  0
    8.5210    1.0360  -55.2160 C   0  0  0  0  0  0  0  0  0  0  0  0
    9.4920    1.7700  -55.7490 N   0  0  0  0  0  0  0  0  0  0  0  0
   10.0700    2.9060  -59.2340 C   0  0  0  0  0  0  0  0  0  0  0  0
   10.7260    3.7050  -60.1030 N   0  0  0  0  0  0  0  0  0  0  0  0
   13.1973    8.6962  -59.7843 H   0  0  0  0  0  0  0  0  0  0  0  0
   13.9182    7.7757  -61.1480 H   0  0  0  0  0  0  0  0  0  0  0  0
   12.1620    8.1529  -61.1480 H   0  0  0  0  0  0  0  0  0  0  0  0
   11.1329    6.4777  -61.0962 H   0  0  0  0  0  0  0  0  0  0  0  0
   12.4321    5.2485  -61.2965 H   0  0  0  0  0  0  0  0  0  0  0  0
   11.1731    6.2913  -57.9807 H   0  0  0  0  0  0  0  0  0  0  0  0
    7.0745    2.1572  -57.9305 H   0  0  0  0  0  0  0  0  0  0  0  0
    5.4088    0.4711  -56.3187 H   0  0  0  0  0  0  0  0  0  0  0  0
    7.8490   -0.6765  -51.6961 H   0  0  0  0  0  0  0  0  0  0  0  0
    6.1459   -1.0821  -52.2218 H   0  0  0  0  0  0  0  0  0  0  0  0
    6.7240   -3.1080  -52.8500 H   0  0  0  0  0  0  0  0  0  0  0  0
    8.5373   -3.8733  -54.1033 H   0  0  0  0  0  0  0  0  0  0  0  0
    8.3879   -2.2074  -54.6323 H   0  0  0  0  0  0  0  0  0  0  0  0
   10.2038   -1.4755  -53.1605 H   0  0  0  0  0  0  0  0  0  0  0  0
   11.9813   -2.5965  -53.7505 H   0  0  0  0  0  0  0  0  0  0  0  0
   11.2442   -4.2096  -53.3676 H   0  0  0  0  0  0  0  0  0  0  0  0
   10.0674   -2.6012  -55.2556 H   0  0  0  0  0  0  0  0  0  0  0  0
   11.0029   -5.6973  -55.1760 H   0  0  0  0  0  0  0  0  0  0  0  0
   10.0285   -5.4674  -56.3672 H   0  0  0  0  0  0  0  0  0  0  0  0
   12.9488   -3.9015  -56.2327 H   0  0  0  0  0  0  0  0  0  0  0  0
   11.9377   -2.2580  -57.6110 H   0  0  0  0  0  0  0  0  0  0  0  0
   12.7556   -3.7572  -58.1680 H   0  0  0  0  0  0  0  0  0  0  0  0
   10.9620   -3.6596  -58.1680 H   0  0  0  0  0  0  0  0  0  0  0  0
   10.3608   -3.8677  -51.4313 H   0  0  0  0  0  0  0  0  0  0  0  0
   10.1043   -2.1821  -50.9467 H   0  0  0  0  0  0  0  0  0  0  0  0
    8.0889   -4.3514  -51.4351 H   0  0  0  0  0  0  0  0  0  0  0  0
    8.3295   -3.3074  -49.2976 H   0  0  0  0  0  0  0  0  0  0  0  0
    7.7236   -1.7709  -50.0036 H   0  0  0  0  0  0  0  0  0  0  0  0
    6.6795   -3.2326  -50.0036 H   0  0  0  0  0  0  0  0  0  0  0  0
   10.4040    1.8890  -55.3210 H   0  0  0  0  0  0  0  0  0  0  0  0
    9.7369    1.9130  -59.5701 H   0  0  0  0  0  0  0  0  0  0  0  0
  1  2  1  0
  2  3  1  0
  3  4  1  0
  4  5  1  0
  5  6  2  0
  6  7  1  0
  7  8  1  0
  8  9  2  0
  9 10  1  0
 10 11  1  0
 11 12  2  0
 12 13  1  0
 13 14  1  0
 14 15  1  0
 15 16  1  0
 16 17  1  0
 17 18  1  0
 18 19  1  0
 19 20  1  0
 20 21  1  0
 21 22  1  0
 17 23  1  0
 23 24  1  0
 24 25  1  0
 13 26  2  0
 26 27  1  0
 27 28  2  0
  7 29  2  0
 29 30  1  0
 30  4  2  0
 28  8  1  0
 27 10  1  0
 24 15  1  0
 21 19  1  0
  1 31  1  0
  1 32  1  0
  1 33  1  0
  3 34  1  0
  3 35  1  0
  5 36  1  0
  9 37  1  0
 11 38  1  0
 14 39  1  0
 14 40  1  0
 15 41  1  6
 16 42  1  0
 16 43  1  0
 17 44  1  1
 18 45  1  0
 18 46  1  0
 19 47  1  6
 20 48  1  0
 20 49  1  0
 21 50  1  1
 22 51  1  0
 22 52  1  0
 22 53  1  0
 23 54  1  0
 23 55  1  0
 24 56  1  6
 25 57  1  0
 25 58  1  0
 25 59  1  0
 28 60  1  0
 29 61  1  0
M  CHG  2  15   1  28   1
M  END
>  <meeko>  (222) 
{"is_sidechain": false}

$$$$

     RDKit          3D

 50 53  0  0  0  0  0  0  0  0999 V2000
   13.4260    4.1850  -59.4130 C   0  0  0  0  0  0  0  0  0  0  0  0
   12.9560    4.5310  -58.0090 C   0  0  0  0  0  0  0  0  0  0  0  0
   11.4730    4.4790  -57.8840 C   0  0  0  0  0  0  0  0  0  0  0  0
   10.7200    5.5010  -58.2940 N   0  0  0  0  0  0  0  0  0  0  0  0
    9.1380    5.0730  -57.9900 S   0  0  0  0  0  0  0  0  0  0  0  0
    9.5560    3.5330  -57.3390 C   0  0  0  0  0  0  0  0  0  0  0  0
    8.5700    2.5640  -56.8350 C   0  0  0  0  0  0  0  0  0  0  0  0
    7.2500    2.4810  -57.3140 C   0  0  0  0  0  0  0  0  0  0  0  0
    6.3500    1.5430  -56.7940 C   0  0  0  0  0  0  0  0  0  0  0  0
    6.7580    0.6620  -55.7970 C   0  0  0  0  0  0  0  0  0  0  0  0
    8.0740    0.7100  -55.3330 C   0  0  0  0  0  0  0  0  0  0  0  0
    8.4810   -0.2160  -54.2570 C   0  0  0  0  0  0  0  0  0  0  0  0
    8.2260    0.1080  -53.0990 O   0  0  0  0  0  0  0  0  0  0  0  0
    9.1150   -1.3990  -54.5910 N   0  0  0  0  0  0  0  0  0  0  0  0
   10.3330   -1.3610  -55.3860 C   0  0  0  0  0  0  0  0  0  0  0  0
   10.8980   -2.7800  -55.3290 C   0  0  2  0  0  0  0  0  0  0  0  0
   11.7070   -3.1380  -56.5750 C   0  0  0  0  0  0  0  0  0  0  0  0
   11.1410   -4.3290  -57.2930 C   0  0  0  0  0  0  0  0  0  0  0  0
   11.8010   -4.8320  -58.5510 C   0  0  0  0  0  0  0  0  0  0  0  0
   11.8750   -5.6440  -57.2870 C   0  0  0  0  0  0  0  0  0  0  0  0
    9.6370   -3.6290  -55.1320 C   0  0  0  0  0  0  0  0  0  0  0  0
    8.7710   -2.7710  -54.2030 C   0  0  1  0  0  0  0  0  0  0  0  0
    9.0770   -3.0400  -52.7300 C   0  0  0  0  0  0  0  0  0  0  0  0
    8.9650    1.6670  -55.8290 C   0  0  0  0  0  0  0  0  0  0  0  0
   10.8650    3.3530  -57.3440 N   0  0  0  0  0  0  0  0  0  0  0  0
   14.3105    3.5338  -59.3535 H   0  0  0  0  0  0  0  0  0  0  0  0
   12.6213    3.6621  -59.9506 H   0  0  0  0  0  0  0  0  0  0  0  0
   13.6862    5.1087  -59.9506 H   0  0  0  0  0  0  0  0  0  0  0  0
   13.3966    3.8137  -57.3010 H   0  0  0  0  0  0  0  0  0  0  0  0
   13.2778    5.5596  -57.7888 H   0  0  0  0  0  0  0  0  0  0  0  0
    6.9195    3.1643  -58.1102 H   0  0  0  0  0  0  0  0  0  0  0  0
    5.3186    1.5024  -57.1742 H   0  0  0  0  0  0  0  0  0  0  0  0
    6.0489   -0.0669  -55.3776 H   0  0  0  0  0  0  0  0  0  0  0  0
   10.1063   -1.0783  -56.4246 H   0  0  0  0  0  0  0  0  0  0  0  0
   11.0492   -0.6193  -55.0027 H   0  0  0  0  0  0  0  0  0  0  0  0
   11.6333   -2.9356  -54.5258 H   0  0  0  0  0  0  0  0  0  0  0  0
   11.7040   -2.2768  -57.2594 H   0  0  0  0  0  0  0  0  0  0  0  0
   12.7288   -3.3897  -56.2547 H   0  0  0  0  0  0  0  0  0  0  0  0
   10.1259   -4.0065  -57.0182 H   0  0  0  0  0  0  0  0  0  0  0  0
   11.1855   -5.1806  -59.3934 H   0  0  0  0  0  0  0  0  0  0  0  0
   12.5387   -4.4252  -59.2583 H   0  0  0  0  0  0  0  0  0  0  0  0
   11.3137   -6.5865  -57.2054 H   0  0  0  0  0  0  0  0  0  0  0  0
   12.6896   -6.0768  -56.6877 H   0  0  0  0  0  0  0  0  0  0  0  0
    9.1285   -3.8065  -56.0911 H   0  0  0  0  0  0  0  0  0  0  0  0
    9.8513   -4.6259  -54.7192 H   0  0  0  0  0  0  0  0  0  0  0  0
    7.6968   -2.9855  -54.3031 H   0  0  0  0  0  0  0  0  0  0  0  0
    8.3997   -2.4446  -52.1001 H   0  0  0  0  0  0  0  0  0  0  0  0
    8.9328   -4.1091  -52.5148 H   0  0  0  0  0  0  0  0  0  0  0  0
   10.1188   -2.7600  -52.5148 H   0  0  0  0  0  0  0  0  0  0  0  0
    9.9874    1.7178  -55.4264 H   0  0  0  0  0  0  0  0  0  0  0  0
  1  2  1  0
  2  3  1  0
  3  4  2  0
  4  5  1  0
  5  6  1  0
  6  7  1  0
  7  8  2  0
  8  9  1  0
  9 10  2  0
 10 11  1  0
 11 12  1  0
 12 13  2  0
 12 14  1  0
 14 15  1  0
 15 16  1  0
 16 17  1  0
 17 18  1  0
 18 19  1  0
 19 20  1  0
 16 21  1  0
 21 22  1  0
 22 23  1  0
 11 24  2  0
  6 25  2  0
 25  3  1  0
 24  7  1  0
 22 14  1  0
 20 18  1  0
  1 26  1  0
  1 27  1  0
  1 28  1  0
  2 29  1  0
  2 30  1  0
  8 31  1  0
  9 32  1  0
 10 33  1  0
 15 34  1  0
 15 35  1  0
 16 36  1  1
 17 37  1  0
 17 38  1  0
 18 39  1  0
 19 40  1  0
 19 41  1  0
 20 42  1  0
 20 43  1  0
 21 44  1  0
 21 45  1  0
 22 46  1  1
 23 47  1  0
 23 48  1  0
 23 49  1  0
 24 50  1  0
M  END
>  <meeko>  (223) 
{"is_sidechain": false}

$$$$

     RDKit          3D

 58 61  0  0  0  0  0  0  0  0999 V2000
   11.2510    5.4140  -60.0520 C   0  0  0  0  0  0  0  0  0  0  0  0
   11.5010    5.3870  -58.5530 C   0  0  0  0  0  0  0  0  0  0  0  0
   11.0670    4.0950  -57.9400 C   0  0  0  0  0  0  0  0  0  0  0  0
   11.8690    3.0770  -57.6980 N   0  0  0  0  0  0  0  0  0  0  0  0
   11.0860    2.1110  -57.1290 C   0  0  0  0  0  0  0  0  0  0  0  0
    9.7800    2.5360  -56.9970 C   0  0  0  0  0  0  0  0  0  0  0  0
    8.6240    1.8540  -56.4360 C   0  0  0  0  0  0  0  0  0  0  0  0
    7.3720    1.9520  -57.0580 C   0  0  0  0  0  0  0  0  0  0  0  0
    6.2610    1.2900  -56.5300 C   0  0  0  0  0  0  0  0  0  0  0  0
    6.3930    0.5300  -55.3690 C   0  0  0  0  0  0  0  0  0  0  0  0
    7.6370    0.4530  -54.7350 C   0  0  0  0  0  0  0  0  0  0  0  0
    7.8000   -0.3660  -53.5180 C   0  0  0  0  0  0  0  0  0  0  0  0
    7.3060    0.0480  -52.4740 O   0  0  0  0  0  0  0  0  0  0  0  0
    8.4870   -1.5610  -53.6300 N   0  0  0  0  0  0  0  0  0  0  0  0
    9.9360   -1.7290  -53.6140 C   0  0  0  0  0  0  0  0  0  0  0  0
   10.1530   -3.2340  -53.7740 C   0  0  2  0  0  0  0  0  0  0  0  0
   11.5080   -3.5660  -54.3960 C   0  0  0  0  0  0  0  0  0  0  0  0
   11.3690   -4.3980  -55.6370 C   0  0  2  0  0  0  0  0  0  0  0  0
   12.4200   -5.4320  -55.9630 C   0  0  0  0  0  0  0  0  0  0  0  0
   12.2970   -4.1930  -56.8090 C   0  0  1  0  0  0  0  0  0  0  0  0
   11.7740   -4.2830  -58.2020 C   0  0  0  0  0  0  0  0  0  0  0  0
    8.9500   -3.6480  -54.6270 C   0  0  0  0  0  0  0  0  0  0  0  0
    7.8130   -2.7690  -54.0950 C   0  0  1  0  0  0  0  0  0  0  0  0
    7.0400   -3.4420  -52.9640 C   0  0  0  0  0  0  0  0  0  0  0  0
    8.7550    1.0990  -55.2680 C   0  0  0  0  0  0  0  0  0  0  0  0
    9.7780    3.8010  -57.5490 N   0  0  0  0  0  0  0  0  0  0  0  0
    8.6200    4.6540  -57.6890 C   0  0  0  0  0  0  0  0  0  0  0  0
   10.1738    5.5303  -60.2420 H   0  0  0  0  0  0  0  0  0  0  0  0
   11.7956    6.2586  -60.4994 H   0  0  0  0  0  0  0  0  0  0  0  0
   11.6027    4.4726  -60.4994 H   0  0  0  0  0  0  0  0  0  0  0  0
   12.5768    5.5245  -58.3691 H   0  0  0  0  0  0  0  0  0  0  0  0
   10.9143    6.1966  -58.0944 H   0  0  0  0  0  0  0  0  0  0  0  0
   11.4508    1.1214  -56.8164 H   0  0  0  0  0  0  0  0  0  0  0  0
    7.2631    2.5561  -57.9708 H   0  0  0  0  0  0  0  0  0  0  0  0
    5.2840    1.3683  -57.0294 H   0  0  0  0  0  0  0  0  0  0  0  0
    5.5256   -0.0049  -54.9549 H   0  0  0  0  0  0  0  0  0  0  0  0
   10.3996   -1.1794  -54.4465 H   0  0  0  0  0  0  0  0  0  0  0  0
   10.3905   -1.3383  -52.6916 H   0  0  0  0  0  0  0  0  0  0  0  0
   10.1975   -3.7840  -52.8224 H   0  0  0  0  0  0  0  0  0  0  0  0
   12.0200   -2.6271  -54.6536 H   0  0  0  0  0  0  0  0  0  0  0  0
   12.0857   -4.1461  -53.6614 H   0  0  0  0  0  0  0  0  0  0  0  0
   10.2766   -4.4023  -55.5081 H   0  0  0  0  0  0  0  0  0  0  0  0
   13.2883   -5.5613  -55.3002 H   0  0  0  0  0  0  0  0  0  0  0  0
   12.4109   -6.5137  -56.1625 H   0  0  0  0  0  0  0  0  0  0  0  0
   12.9875   -3.3970  -57.1247 H   0  0  0  0  0  0  0  0  0  0  0  0
   10.6903   -4.4695  -58.1754 H   0  0  0  0  0  0  0  0  0  0  0  0
   11.9706   -3.3378  -58.7293 H   0  0  0  0  0  0  0  0  0  0  0  0
   12.2752   -5.1081  -58.7293 H   0  0  0  0  0  0  0  0  0  0  0  0
    9.1361   -3.4475  -55.6924 H   0  0  0  0  0  0  0  0  0  0  0  0
    8.7272   -4.7231  -54.5594 H   0  0  0  0  0  0  0  0  0  0  0  0
    7.0567   -2.5665  -54.8677 H   0  0  0  0  0  0  0  0  0  0  0  0
    7.4339   -3.0991  -51.9959 H   0  0  0  0  0  0  0  0  0  0  0  0
    5.9747   -3.1786  -53.0405 H   0  0  0  0  0  0  0  0  0  0  0  0
    7.1543   -4.5334  -53.0405 H   0  0  0  0  0  0  0  0  0  0  0  0
    9.7326    1.0137  -54.7710 H   0  0  0  0  0  0  0  0  0  0  0  0
    8.2453    4.9300  -56.6923 H   0  0  0  0  0  0  0  0  0  0  0  0
    8.8993    5.5638  -58.2406 H   0  0  0  0  0  0  0  0  0  0  0  0
    7.8339    4.1175  -58.2406 H   0  0  0  0  0  0  0  0  0  0  0  0
  1  2  1  0
  2  3  1  0
  3  4  2  0
  4  5  1  0
  5  6  2  0
  6  7  1  0
  7  8  2  0
  8  9  1  0
  9 10  2  0
 10 11  1  0
 11 12  1  0
 12 13  2  0
 12 14  1  0
 14 15  1  0
 15 16  1  0
 16 17  1  0
 17 18  1  0
 18 19  1  0
 19 20  1  0
 20 21  1  0
 16 22  1  0
 22 23  1  0
 23 24  1  0
 11 25  2  0
  6 26  1  0
 26 27  1  0
 26  3  1  0
 25  7  1  0
 23 14  1  0
 20 18  1  0
  1 28  1  0
  1 29  1  0
  1 30  1  0
  2 31  1  0
  2 32  1  0
  5 33  1  0
  8 34  1  0
  9 35  1  0
 10 36  1  0
 15 37  1  0
 15 38  1  0
 16 39  1  1
 17 40  1  0
 17 41  1  0
 18 42  1  6
 19 43  1  0
 19 44  1  0
 20 45  1  1
 21 46  1  0
 21 47  1  0
 21 48  1  0
 22 49  1  0
 22 50  1  0
 23 51  1  6
 24 52  1  0
 24 53  1  0
 24 54  1  0
 25 55  1  0
 27 56  1  0
 27 57  1  0
 27 58  1  0
M  END
>  <meeko>  (224) 
{"is_sidechain": false}

$$$$

     RDKit          3D

 59 62  0  0  0  0  0  0  0  0999 V2000
   11.8170    5.9220  -59.8380 C   0  0  0  0  0  0  0  0  0  0  0  0
   11.5470    4.4320  -59.8420 C   0  0  0  0  0  0  0  0  0  0  0  0
   10.9200    3.8670  -58.5990 C   0  0  0  0  0  0  0  0  0  0  0  0
   11.2720    4.1590  -57.3420 N   0  0  0  0  0  0  0  0  0  0  0  0
   10.4800    3.4930  -56.4480 C   0  0  0  0  0  0  0  0  0  0  0  0
    9.5610    2.7550  -57.1620 C   0  0  0  0  0  0  0  0  0  0  0  0
    8.4040    1.8880  -56.5220 C   0  0  0  0  0  0  0  0  0  0  0  0
    7.1370    1.8650  -57.1240 C   0  0  0  0  0  0  0  0  0  0  0  0
    6.0840    1.1530  -56.5350 C   0  0  0  0  0  0  0  0  0  0  0  0
    6.2920    0.4420  -55.3560 C   0  0  0  0  0  0  0  0  0  0  0  0
    7.5660    0.4120  -54.7950 C   0  0  0  0  0  0  0  0  0  0  0  0
    7.8240   -0.2870  -53.5240 C   0  0  0  0  0  0  0  0  0  0  0  0
    7.5760    0.3380  -52.4950 O   0  0  0  0  0  0  0  0  0  0  0  0
    8.3930   -1.5480  -53.5410 N   0  0  0  0  0  0  0  0  0  0  0  0
    9.8450   -1.6530  -53.6240 C   0  0  0  0  0  0  0  0  0  0  0  0
   10.1410   -3.1400  -53.8430 C   0  0  2  0  0  0  0  0  0  0  0  0
   11.4460   -3.3480  -54.6110 C   0  0  0  0  0  0  0  0  0  0  0  0
   11.4140   -4.2930  -55.7800 C   0  0  2  0  0  0  0  0  0  0  0  0
   12.5360   -5.2790  -56.0020 C   0  0  0  0  0  0  0  0  0  0  0  0
   12.2920   -4.1850  -57.0080 C   0  0  1  0  0  0  0  0  0  0  0  0
   11.7330   -4.5170  -58.3510 C   0  0  0  0  0  0  0  0  0  0  0  0
    8.8770   -3.5970  -54.5840 C   0  0  0  0  0  0  0  0  0  0  0  0
    7.7530   -2.8230  -53.8810 C   0  0  1  0  0  0  0  0  0  0  0  0
    7.2640   -3.5800  -52.6470 C   0  0  0  0  0  0  0  0  0  0  0  0
    8.6170    1.1430  -55.3630 C   0  0  0  0  0  0  0  0  0  0  0  0
    9.9230    2.9580  -58.5140 N   0  0  0  0  0  0  0  0  0  0  0  0
    9.3850    2.2440  -59.6740 C   0  0  0  0  0  0  0  0  0  0  0  0
   11.8819    6.2801  -58.7999 H   0  0  0  0  0  0  0  0  0  0  0  0
   12.7664    6.1240  -60.3556 H   0  0  0  0  0  0  0  0  0  0  0  0
   10.9989    6.4443  -60.3556 H   0  0  0  0  0  0  0  0  0  0  0  0
   10.8745    4.2153  -60.6851 H   0  0  0  0  0  0  0  0  0  0  0  0
   12.5352    3.9545  -59.9158 H   0  0  0  0  0  0  0  0  0  0  0  0
   12.0230    4.7990  -57.0960 H   0  0  0  0  0  0  0  0  0  0  0  0
   10.5620    3.5384  -55.3520 H   0  0  0  0  0  0  0  0  0  0  0  0
    6.9692    2.4097  -58.0648 H   0  0  0  0  0  0  0  0  0  0  0  0
    5.0897    1.1556  -57.0054 H   0  0  0  0  0  0  0  0  0  0  0  0
    5.4591   -0.0901  -54.8732 H   0  0  0  0  0  0  0  0  0  0  0  0
   10.2250   -1.0580  -54.4675 H   0  0  0  0  0  0  0  0  0  0  0  0
   10.3324   -1.2716  -52.7146 H   0  0  0  0  0  0  0  0  0  0  0  0
   10.3181   -3.7235  -52.9275 H   0  0  0  0  0  0  0  0  0  0  0  0
   11.7676   -2.3661  -54.9884 H   0  0  0  0  0  0  0  0  0  0  0  0
   12.1286   -3.8168  -53.8870 H   0  0  0  0  0  0  0  0  0  0  0  0
   10.3245   -4.3310  -55.6334 H   0  0  0  0  0  0  0  0  0  0  0  0
   13.4300   -5.2472  -55.3618 H   0  0  0  0  0  0  0  0  0  0  0  0
   12.6079   -6.3756  -56.0495 H   0  0  0  0  0  0  0  0  0  0  0  0
   12.9079   -3.3924  -57.4580 H   0  0  0  0  0  0  0  0  0  0  0  0
   10.7931   -5.0753  -58.2291 H   0  0  0  0  0  0  0  0  0  0  0  0
   11.5383   -3.5880  -58.9070 H   0  0  0  0  0  0  0  0  0  0  0  0
   12.4556   -5.1325  -58.9070 H   0  0  0  0  0  0  0  0  0  0  0  0
    8.9290   -3.3333  -55.6507 H   0  0  0  0  0  0  0  0  0  0  0  0
    8.7319   -4.6870  -54.5537 H   0  0  0  0  0  0  0  0  0  0  0  0
    6.8528   -2.6849  -54.4979 H   0  0  0  0  0  0  0  0  0  0  0  0
    7.6011   -3.0581  -51.7392 H   0  0  0  0  0  0  0  0  0  0  0  0
    6.1650   -3.6261  -52.6567 H   0  0  0  0  0  0  0  0  0  0  0  0
    7.6739   -4.6007  -52.6567 H   0  0  0  0  0  0  0  0  0  0  0  0
    9.6119    1.1293  -54.8940 H   0  0  0  0  0  0  0  0  0  0  0  0
    8.7560    1.4092  -59.3313 H   0  0  0  0  0  0  0  0  0  0  0  0
    8.7802    2.9338  -60.2810 H   0  0  0  0  0  0  0  0  0  0  0  0
   10.2148    1.8528  -60.2810 H   0  0  0  0  0  0  0  0  0  0  0  0
  1  2  1  0
  2  3  1  0
  3  4  2  0
  4  5  1  0
  5  6  2  0
  6  7  1  0
  7  8  2  0
  8  9  1  0
  9 10  2  0
 10 11  1  0
 11 12  1  0
 12 13  2  0
 12 14  1  0
 14 15  1  0
 15 16  1  0
 16 17  1  0
 17 18  1  0
 18 19  1  0
 19 20  1  0
 20 21  1  0
 16 22  1  0
 22 23  1  0
 23 24  1  0
 11 25  2  0
  6 26  1  0
 26 27  1  0
 26  3  1  0
 25  7  1  0
 23 14  1  0
 20 18  1  0
  1 28  1  0
  1 29  1  0
  1 30  1  0
  2 31  1  0
  2 32  1  0
  4 33  1  0
  5 34  1  0
  8 35  1  0
  9 36  1  0
 10 37  1  0
 15 38  1  0
 15 39  1  0
 16 40  1  1
 17 41  1  0
 17 42  1  0
 18 43  1  6
 19 44  1  0
 19 45  1  0
 20 46  1  6
 21 47  1  0
 21 48  1  0
 21 49  1  0
 22 50  1  0
 22 51  1  0
 23 52  1  6
 24 53  1  0
 24 54  1  0
 24 55  1  0
 25 56  1  0
 27 57  1  0
 27 58  1  0
 27 59  1  0
M  CHG  1   4   1
M  END
>  <meeko>  (225) 
{"is_sidechain": false}

$$$$

     RDKit          3D

 57 60  0  0  0  0  0  0  0  0999 V2000
   11.8480   -4.1540  -58.3470 C   0  0  0  0  0  0  0  0  0  0  0  0
   12.3130   -4.2910  -56.9370 C   0  0  2  0  0  0  0  0  0  0  0  0
   12.2870   -5.6340  -56.2570 C   0  0  0  0  0  0  0  0  0  0  0  0
   11.3190   -4.5570  -55.8300 C   0  0  1  0  0  0  0  0  0  0  0  0
   11.4860   -3.8470  -54.5170 C   0  0  0  0  0  0  0  0  0  0  0  0
   10.2410   -3.1270  -53.9990 C   0  0  2  0  0  0  0  0  0  0  0  0
    8.9100   -3.5560  -54.6250 C   0  0  0  0  0  0  0  0  0  0  0  0
    7.9540   -2.4250  -54.2270 C   0  0  1  0  0  0  0  0  0  0  0  0
    7.2960   -2.6840  -52.8710 C   0  0  0  0  0  0  0  0  0  0  0  0
    8.8200   -1.2410  -54.1980 N   0  0  0  0  0  0  0  0  0  0  0  0
    8.4650    0.0930  -54.1300 C   0  0  0  0  0  0  0  0  0  0  0  0
    8.5000    0.7490  -53.0920 O   0  0  0  0  0  0  0  0  0  0  0  0
    8.0010    0.7770  -55.3530 C   0  0  0  0  0  0  0  0  0  0  0  0
    6.6490    0.7800  -55.6970 C   0  0  0  0  0  0  0  0  0  0  0  0
    6.2450    1.4110  -56.8700 C   0  0  0  0  0  0  0  0  0  0  0  0
    7.1950    2.0160  -57.6980 C   0  0  0  0  0  0  0  0  0  0  0  0
    8.5690    1.9920  -57.3850 C   0  0  0  0  0  0  0  0  0  0  0  0
    9.5170    2.6340  -58.3080 C   0  0  0  0  0  0  0  0  0  0  0  0
   10.6110    3.2830  -57.9490 N   0  0  0  0  0  0  0  0  0  0  0  0
   11.2530    3.7580  -59.0970 C   0  0  0  0  0  0  0  0  0  0  0  0
   12.5440    4.5370  -58.9360 C   0  0  0  0  0  0  0  0  0  0  0  0
   13.0010    4.5550  -57.4750 C   0  0  0  0  0  0  0  0  0  0  0  0
   12.4060    5.9640  -59.4710 C   0  0  0  0  0  0  0  0  0  0  0  0
   13.6130    3.9210  -59.6900 O   0  0  0  0  0  0  0  0  0  0  0  0
   10.7140    3.5170  -60.2950 N   0  0  0  0  0  0  0  0  0  0  0  0
    9.3180    2.6510  -60.0210 S   0  0  0  0  0  0  0  0  0  0  0  0
    8.9580    1.3560  -56.1970 C   0  0  0  0  0  0  0  0  0  0  0  0
   10.2290   -1.6120  -54.1940 C   0  0  0  0  0  0  0  0  0  0  0  0
   10.7929   -3.8431  -58.3566 H   0  0  0  0  0  0  0  0  0  0  0  0
   12.4579   -3.3974  -58.8623 H   0  0  0  0  0  0  0  0  0  0  0  0
   11.9502   -5.1204  -58.8623 H   0  0  0  0  0  0  0  0  0  0  0  0
   13.0837   -3.5286  -57.1232 H   0  0  0  0  0  0  0  0  0  0  0  0
   11.9211   -6.5179  -56.8000 H   0  0  0  0  0  0  0  0  0  0  0  0
   13.0316   -6.2582  -55.7413 H   0  0  0  0  0  0  0  0  0  0  0  0
   10.2256   -4.5069  -55.7206 H   0  0  0  0  0  0  0  0  0  0  0  0
   11.7857   -4.5911  -53.7643 H   0  0  0  0  0  0  0  0  0  0  0  0
   12.2397   -3.0644  -54.6888 H   0  0  0  0  0  0  0  0  0  0  0  0
   10.3161   -3.4181  -52.9409 H   0  0  0  0  0  0  0  0  0  0  0  0
    8.9955   -3.6334  -55.7189 H   0  0  0  0  0  0  0  0  0  0  0  0
    8.5724   -4.5458  -54.2840 H   0  0  0  0  0  0  0  0  0  0  0  0
    7.1099   -2.3173  -54.9240 H   0  0  0  0  0  0  0  0  0  0  0  0
    7.9939   -2.4093  -52.0663 H   0  0  0  0  0  0  0  0  0  0  0  0
    6.3814   -2.0788  -52.7857 H   0  0  0  0  0  0  0  0  0  0  0  0
    7.0394   -3.7502  -52.7857 H   0  0  0  0  0  0  0  0  0  0  0  0
    5.9096    0.2885  -55.0476 H   0  0  0  0  0  0  0  0  0  0  0  0
    5.1802    1.4336  -57.1450 H   0  0  0  0  0  0  0  0  0  0  0  0
    6.8622    2.5229  -58.6158 H   0  0  0  0  0  0  0  0  0  0  0  0
   12.1215    4.5204  -56.8153 H   0  0  0  0  0  0  0  0  0  0  0  0
   13.6403    3.6813  -57.2800 H   0  0  0  0  0  0  0  0  0  0  0  0
   13.5696    5.4762  -57.2800 H   0  0  0  0  0  0  0  0  0  0  0  0
   12.3380    6.6668  -58.6276 H   0  0  0  0  0  0  0  0  0  0  0  0
   13.2844    6.2119  -60.0850 H   0  0  0  0  0  0  0  0  0  0  0  0
   11.4964    6.0390  -60.0850 H   0  0  0  0  0  0  0  0  0  0  0  0
   13.5430    2.9640  -59.5000 H   0  0  0  0  0  0  0  0  0  0  0  0
   10.0231    1.3114  -55.9256 H   0  0  0  0  0  0  0  0  0  0  0  0
   10.7022   -1.3419  -55.1496 H   0  0  0  0  0  0  0  0  0  0  0  0
   10.7903   -1.0904  -53.4048 H   0  0  0  0  0  0  0  0  0  0  0  0
  1  2  1  0
  2  3  1  0
  3  4  1  0
  4  5  1  0
  5  6  1  0
  6  7  1  0
  7  8  1  0
  8  9  1  0
  8 10  1  0
 10 11  1  0
 11 12  2  0
 11 13  1  0
 13 14  1  0
 14 15  2  0
 15 16  1  0
 16 17  2  0
 17 18  1  0
 18 19  2  0
 19 20  1  0
 20 21  1  0
 21 22  1  0
 21 23  1  0
 21 24  1  0
 20 25  2  0
 25 26  1  0
 17 27  1  0
 10 28  1  0
  4  2  1  0
 28  6  1  0
 27 13  2  0
 26 18  1  0
  1 29  1  0
  1 30  1  0
  1 31  1  0
  2 32  1  1
  3 33  1  0
  3 34  1  0
  4 35  1  6
  5 36  1  0
  5 37  1  0
  6 38  1  1
  7 39  1  0
  7 40  1  0
  8 41  1  6
  9 42  1  0
  9 43  1  0
  9 44  1  0
 14 45  1  0
 15 46  1  0
 16 47  1  0
 22 48  1  0
 22 49  1  0
 22 50  1  0
 23 51  1  0
 23 52  1  0
 23 53  1  0
 24 54  1  0
 27 55  1  0
 28 56  1  0
 28 57  1  0
M  END
>  <meeko>  (226) 
{"is_sidechain": false}

$$$$

     RDKit          3D

 60 63  0  0  0  0  0  0  0  0999 V2000
   12.1800    6.4220  -60.1860 C   0  0  0  0  0  0  0  0  0  0  0  0
   13.4240    5.8820  -59.4950 C   0  0  0  0  0  0  0  0  0  0  0  0
   13.3830    4.3700  -59.2610 C   0  0  0  0  0  0  0  0  0  0  0  0
   12.7860    3.9810  -57.9090 C   0  0  0  0  0  0  0  0  0  0  0  0
   11.4400    3.3680  -58.0530 C   0  0  0  0  0  0  0  0  0  0  0  0
   10.8540    3.1700  -59.2380 N   0  0  0  0  0  0  0  0  0  0  0  0
    9.6980    2.5960  -58.8690 N   0  0  0  0  0  0  0  0  0  0  0  0
    9.5970    2.4720  -57.5080 C   0  0  0  0  0  0  0  0  0  0  0  0
    8.4630    1.8890  -56.7930 C   0  0  0  0  0  0  0  0  0  0  0  0
    7.1320    2.0930  -57.1940 C   0  0  0  0  0  0  0  0  0  0  0  0
    6.0740    1.5140  -56.4840 C   0  0  0  0  0  0  0  0  0  0  0  0
    6.3320    0.7360  -55.3580 C   0  0  0  0  0  0  0  0  0  0  0  0
    7.6480    0.5500  -54.9340 C   0  0  0  0  0  0  0  0  0  0  0  0
    7.8970   -0.2930  -53.7460 C   0  0  0  0  0  0  0  0  0  0  0  0
    7.5330    0.1360  -52.6540 O   0  0  0  0  0  0  0  0  0  0  0  0
    8.5510   -1.5000  -53.9160 N   0  0  0  0  0  0  0  0  0  0  0  0
    9.9900   -1.7350  -53.8880 C   0  0  0  0  0  0  0  0  0  0  0  0
   10.1450   -3.2600  -53.8390 C   0  0  2  0  0  0  0  0  0  0  0  0
   11.4730   -3.7130  -54.4420 C   0  0  0  0  0  0  0  0  0  0  0  0
   11.4150   -4.4870  -55.7310 C   0  0  2  0  0  0  0  0  0  0  0  0
   12.4950   -5.4870  -56.0730 C   0  0  0  0  0  0  0  0  0  0  0  0
   12.3190   -4.2570  -56.9230 C   0  0  1  0  0  0  0  0  0  0  0  0
   11.7710   -4.3760  -58.3040 C   0  0  0  0  0  0  0  0  0  0  0  0
    8.8970   -3.7220  -54.6030 C   0  0  0  0  0  0  0  0  0  0  0  0
    7.8140   -2.7380  -54.1470 C   0  0  1  0  0  0  0  0  0  0  0  0
    7.1010   -3.2240  -52.8850 C   0  0  0  0  0  0  0  0  0  0  0  0
    8.7090    1.1040  -55.6570 C   0  0  0  0  0  0  0  0  0  0  0  0
   10.7040    2.9530  -56.9740 N   0  0  0  0  0  0  0  0  0  0  0  0
   11.4484    6.7396  -59.4284 H   0  0  0  0  0  0  0  0  0  0  0  0
   12.4539    7.2822  -60.8145 H   0  0  0  0  0  0  0  0  0  0  0  0
   11.7386    5.6345  -60.8145 H   0  0  0  0  0  0  0  0  0  0  0  0
   14.2985    6.1142  -60.1205 H   0  0  0  0  0  0  0  0  0  0  0  0
   13.4798    6.3616  -58.5066 H   0  0  0  0  0  0  0  0  0  0  0  0
   12.7763    3.9106  -60.0552 H   0  0  0  0  0  0  0  0  0  0  0  0
   14.4228    4.0114  -59.2721 H   0  0  0  0  0  0  0  0  0  0  0  0
   13.4553    3.2583  -57.4195 H   0  0  0  0  0  0  0  0  0  0  0  0
   12.6813    4.8956  -57.3069 H   0  0  0  0  0  0  0  0  0  0  0  0
    9.0420    2.3070  -59.5830 H   0  0  0  0  0  0  0  0  0  0  0  0
    6.9191    2.7149  -58.0760 H   0  0  0  0  0  0  0  0  0  0  0  0
    5.0374    1.6736  -56.8157 H   0  0  0  0  0  0  0  0  0  0  0  0
    5.5023    0.2705  -54.8058 H   0  0  0  0  0  0  0  0  0  0  0  0
   10.4655   -1.3274  -54.7923 H   0  0  0  0  0  0  0  0  0  0  0  0
   10.4711   -1.2441  -53.0292 H   0  0  0  0  0  0  0  0  0  0  0  0
   10.1939   -3.6932  -52.8291 H   0  0  0  0  0  0  0  0  0  0  0  0
   12.0781   -2.8125  -54.6238 H   0  0  0  0  0  0  0  0  0  0  0  0
   11.8923   -4.4166  -53.7077 H   0  0  0  0  0  0  0  0  0  0  0  0
   10.3224   -4.4907  -55.6038 H   0  0  0  0  0  0  0  0  0  0  0  0
   13.3782   -5.5850  -55.4247 H   0  0  0  0  0  0  0  0  0  0  0  0
   12.5174   -6.5692  -56.2685 H   0  0  0  0  0  0  0  0  0  0  0  0
   12.9785   -3.4413  -57.2540 H   0  0  0  0  0  0  0  0  0  0  0  0
   10.6972   -4.6092  -58.2535 H   0  0  0  0  0  0  0  0  0  0  0  0
   11.9151   -3.4256  -58.8388 H   0  0  0  0  0  0  0  0  0  0  0  0
   12.2963   -5.1810  -58.8388 H   0  0  0  0  0  0  0  0  0  0  0  0
    9.0548   -3.6572  -55.6897 H   0  0  0  0  0  0  0  0  0  0  0  0
    8.6351   -4.7712  -54.4014 H   0  0  0  0  0  0  0  0  0  0  0  0
    7.0097   -2.6177  -54.8876 H   0  0  0  0  0  0  0  0  0  0  0  0
    7.6374   -2.8584  -51.9970 H   0  0  0  0  0  0  0  0  0  0  0  0
    6.0704   -2.8395  -52.8750 H   0  0  0  0  0  0  0  0  0  0  0  0
    7.0822   -4.3238  -52.8750 H   0  0  0  0  0  0  0  0  0  0  0  0
    9.7443    0.9228  -55.3324 H   0  0  0  0  0  0  0  0  0  0  0  0
  1  2  1  0
  2  3  1  0
  3  4  1  0
  4  5  1  0
  5  6  2  0
  6  7  1  0
  7  8  1  0
  8  9  1  0
  9 10  2  0
 10 11  1  0
 11 12  2  0
 12 13  1  0
 13 14  1  0
 14 15  2  0
 14 16  1  0
 16 17  1  0
 17 18  1  0
 18 19  1  0
 19 20  1  0
 20 21  1  0
 21 22  1  0
 22 23  1  0
 18 24  1  0
 24 25  1  0
 25 26  1  0
 13 27  2  0
  8 28  2  0
 28  5  1  0
 27  9  1  0
 25 16  1  0
 22 20  1  0
  1 29  1  0
  1 30  1  0
  1 31  1  0
  2 32  1  0
  2 33  1  0
  3 34  1  0
  3 35  1  0
  4 36  1  0
  4 37  1  0
  7 38  1  0
 10 39  1  0
 11 40  1  0
 12 41  1  0
 17 42  1  0
 17 43  1  0
 18 44  1  1
 19 45  1  0
 19 46  1  0
 20 47  1  6
 21 48  1  0
 21 49  1  0
 22 50  1  1
 23 51  1  0
 23 52  1  0
 23 53  1  0
 24 54  1  0
 24 55  1  0
 25 56  1  6
 26 57  1  0
 26 58  1  0
 26 59  1  0
 27 60  1  0
M  END
>  <meeko>  (227) 
{"is_sidechain": false}

$$$$

     RDKit          3D

 60 63  0  0  0  0  0  0  0  0999 V2000
    6.0480   -4.0070  -50.4330 C   0  0  0  0  0  0  0  0  0  0  0  0
    7.4310   -3.4960  -50.0580 C   0  0  0  0  0  0  0  0  0  0  0  0
    7.9380   -2.3790  -50.9720 C   0  0  0  0  0  0  0  0  0  0  0  0
    9.1590   -2.7800  -51.8010 C   0  0  0  0  0  0  0  0  0  0  0  0
    9.2620   -1.9620  -53.0370 C   0  0  0  0  0  0  0  0  0  0  0  0
   10.2380   -1.9590  -53.9170 N   0  0  0  0  0  0  0  0  0  0  0  0
    9.9280   -1.0350  -54.8870 N   0  0  0  0  0  0  0  0  0  0  0  0
    8.7590   -0.4960  -54.5990 C   0  0  0  0  0  0  0  0  0  0  0  0
    8.0570    0.5350  -55.3610 C   0  0  0  0  0  0  0  0  0  0  0  0
    6.6580    0.5450  -55.4870 C   0  0  0  0  0  0  0  0  0  0  0  0
    6.0100    1.5460  -56.2210 C   0  0  0  0  0  0  0  0  0  0  0  0
    6.7550    2.5440  -56.8460 C   0  0  0  0  0  0  0  0  0  0  0  0
    8.1480    2.5260  -56.7470 C   0  0  0  0  0  0  0  0  0  0  0  0
    8.9520    3.5920  -57.3720 C   0  0  0  0  0  0  0  0  0  0  0  0
    9.3720    4.4890  -56.6440 O   0  0  0  0  0  0  0  0  0  0  0  0
    9.1730    3.5520  -58.7360 N   0  0  0  0  0  0  0  0  0  0  0  0
    8.1420    4.0290  -59.6430 C   0  0  0  0  0  0  0  0  0  0  0  0
    8.4340    3.3200  -60.9650 C   0  0  2  0  0  0  0  0  0  0  0  0
    7.7840    1.9250  -61.0050 C   0  0  0  0  0  0  0  0  0  0  0  0
    6.6380    1.8060  -60.0400 C   0  0  2  0  0  0  0  0  0  0  0  0
    5.9470    0.4810  -59.8350 C   0  0  0  0  0  0  0  0  0  0  0  0
    5.2390    1.5930  -60.5640 C   0  0  1  0  0  0  0  0  0  0  0  0
    4.0850    2.2900  -59.9270 C   0  0  0  0  0  0  0  0  0  0  0  0
    9.9660    3.2760  -60.9530 C   0  0  0  0  0  0  0  0  0  0  0  0
   10.3360    3.0490  -59.4770 C   0  0  1  0  0  0  0  0  0  0  0  0
   11.6450    3.7590  -59.1450 C   0  0  0  0  0  0  0  0  0  0  0  0
    8.7970    1.5410  -55.9960 C   0  0  0  0  0  0  0  0  0  0  0  0
    8.3120   -1.0590  -53.4300 N   0  0  0  0  0  0  0  0  0  0  0  0
    5.4749   -4.2188  -49.5183 H   0  0  0  0  0  0  0  0  0  0  0  0
    5.5233   -3.2434  -51.0259 H   0  0  0  0  0  0  0  0  0  0  0  0
    6.1459   -4.9283  -51.0259 H   0  0  0  0  0  0  0  0  0  0  0  0
    7.3928   -3.1123  -49.0278 H   0  0  0  0  0  0  0  0  0  0  0  0
    8.1274   -4.3410  -50.1633 H   0  0  0  0  0  0  0  0  0  0  0  0
    7.1273   -2.0961  -51.6596 H   0  0  0  0  0  0  0  0  0  0  0  0
    8.2447   -1.5440  -50.3250 H   0  0  0  0  0  0  0  0  0  0  0  0
   10.0666   -2.6332  -51.1970 H   0  0  0  0  0  0  0  0  0  0  0  0
    9.0519   -3.8359  -52.0903 H   0  0  0  0  0  0  0  0  0  0  0  0
    6.0637   -0.2439  -55.0027 H   0  0  0  0  0  0  0  0  0  0  0  0
    4.9132    1.5445  -56.3042 H   0  0  0  0  0  0  0  0  0  0  0  0
    6.2499    3.3399  -57.4130 H   0  0  0  0  0  0  0  0  0  0  0  0
    7.1424    3.7602  -59.2706 H   0  0  0  0  0  0  0  0  0  0  0  0
    8.1509    5.1241  -59.7460 H   0  0  0  0  0  0  0  0  0  0  0  0
    8.0267    3.8166  -61.8580 H   0  0  0  0  0  0  0  0  0  0  0  0
    7.4114    1.7366  -62.0227 H   0  0  0  0  0  0  0  0  0  0  0  0
    8.5475    1.1878  -60.7159 H   0  0  0  0  0  0  0  0  0  0  0  0
    7.1223    2.5374  -59.3763 H   0  0  0  0  0  0  0  0  0  0  0  0
    6.2879   -0.4079  -60.3860 H   0  0  0  0  0  0  0  0  0  0  0  0
    5.7151   -0.1481  -58.9630 H   0  0  0  0  0  0  0  0  0  0  0  0
    4.7529    1.6941  -61.5456 H   0  0  0  0  0  0  0  0  0  0  0  0
    4.1805    2.2323  -58.8327 H   0  0  0  0  0  0  0  0  0  0  0  0
    4.0759    3.3447  -60.2392 H   0  0  0  0  0  0  0  0  0  0  0  0
    3.1473    1.8071  -60.2392 H   0  0  0  0  0  0  0  0  0  0  0  0
   10.3357    2.4494  -61.5776 H   0  0  0  0  0  0  0  0  0  0  0  0
   10.4130    4.1957  -61.3585 H   0  0  0  0  0  0  0  0  0  0  0  0
   10.5283    1.9978  -59.2163 H   0  0  0  0  0  0  0  0  0  0  0  0
   11.7612    3.8220  -58.0530 H   0  0  0  0  0  0  0  0  0  0  0  0
   12.4870    3.1939  -59.5713 H   0  0  0  0  0  0  0  0  0  0  0  0
   11.6306    4.7729  -59.5713 H   0  0  0  0  0  0  0  0  0  0  0  0
    9.8930    1.5561  -55.9034 H   0  0  0  0  0  0  0  0  0  0  0  0
    7.4660   -0.8240  -52.9370 H   0  0  0  0  0  0  0  0  0  0  0  0
  1  2  1  0
  2  3  1  0
  3  4  1  0
  4  5  1  0
  5  6  2  0
  6  7  1  0
  7  8  2  0
  8  9  1  0
  9 10  2  0
 10 11  1  0
 11 12  2  0
 12 13  1  0
 13 14  1  0
 14 15  2  0
 14 16  1  0
 16 17  1  0
 17 18  1  0
 18 19  1  0
 19 20  1  0
 20 21  1  0
 21 22  1  0
 22 23  1  0
 18 24  1  0
 24 25  1  0
 25 26  1  0
 13 27  2  0
  8 28  1  0
 28  5  1  0
 27  9  1  0
 25 16  1  0
 22 20  1  0
  1 29  1  0
  1 30  1  0
  1 31  1  0
  2 32  1  0
  2 33  1  0
  3 34  1  0
  3 35  1  0
  4 36  1  0
  4 37  1  0
 10 38  1  0
 11 39  1  0
 12 40  1  0
 17 41  1  0
 17 42  1  0
 18 43  1  6
 19 44  1  0
 19 45  1  0
 20 46  1  1
 21 47  1  0
 21 48  1  0
 22 49  1  6
 23 50  1  0
 23 51  1  0
 23 52  1  0
 24 53  1  0
 24 54  1  0
 25 55  1  6
 26 56  1  0
 26 57  1  0
 26 58  1  0
 27 59  1  0
 28 60  1  0
M  END
>  <meeko>  (228) 
{"is_sidechain": false}

$$$$

     RDKit          3D

 60 63  0  0  0  0  0  0  0  0999 V2000
   12.1220    6.4170  -60.1850 C   0  0  0  0  0  0  0  0  0  0  0  0
   13.3720    5.9330  -59.4670 C   0  0  0  0  0  0  0  0  0  0  0  0
   13.3420    4.4410  -59.1220 C   0  0  0  0  0  0  0  0  0  0  0  0
   12.7440    4.0960  -57.7560 C   0  0  0  0  0  0  0  0  0  0  0  0
   11.4240    3.4230  -57.8650 C   0  0  0  0  0  0  0  0  0  0  0  0
   10.6410    3.0180  -56.8900 N   0  0  0  0  0  0  0  0  0  0  0  0
    9.5480    2.4800  -57.5370 C   0  0  0  0  0  0  0  0  0  0  0  0
    8.4160    1.9130  -56.8120 C   0  0  0  0  0  0  0  0  0  0  0  0
    7.0970    2.1390  -57.2390 C   0  0  0  0  0  0  0  0  0  0  0  0
    6.0150    1.6030  -56.5340 C   0  0  0  0  0  0  0  0  0  0  0  0
    6.2420    0.8220  -55.4030 C   0  0  0  0  0  0  0  0  0  0  0  0
    7.5520    0.5700  -54.9870 C   0  0  0  0  0  0  0  0  0  0  0  0
    7.7650   -0.2420  -53.7720 C   0  0  0  0  0  0  0  0  0  0  0  0
    7.3810    0.2200  -52.7000 O   0  0  0  0  0  0  0  0  0  0  0  0
    8.3680   -1.4830  -53.8890 N   0  0  0  0  0  0  0  0  0  0  0  0
    9.8100   -1.5970  -53.7380 C   0  0  0  0  0  0  0  0  0  0  0  0
   10.0900   -3.0980  -53.6540 C   0  0  2  0  0  0  0  0  0  0  0  0
   11.4570   -3.5070  -54.1990 C   0  0  0  0  0  0  0  0  0  0  0  0
   11.3380   -4.4290  -55.3780 C   0  0  2  0  0  0  0  0  0  0  0  0
   12.5100   -5.2850  -55.7900 C   0  0  0  0  0  0  0  0  0  0  0  0
   12.0820   -4.1280  -56.6560 C   0  0  1  0  0  0  0  0  0  0  0  0
   11.4290   -4.3740  -57.9730 C   0  0  0  0  0  0  0  0  0  0  0  0
    8.9300   -3.6940  -54.4570 C   0  0  0  0  0  0  0  0  0  0  0  0
    7.7440   -2.7930  -54.0960 C   0  0  1  0  0  0  0  0  0  0  0  0
    7.0180   -3.2820  -52.8430 C   0  0  0  0  0  0  0  0  0  0  0  0
    8.6340    1.1320  -55.6700 C   0  0  0  0  0  0  0  0  0  0  0  0
    9.6430    2.5260  -58.8770 N   0  0  0  0  0  0  0  0  0  0  0  0
   10.8270    3.1280  -59.0550 N   0  0  0  0  0  0  0  0  0  0  0  0
   11.3639    6.7105  -59.4439 H   0  0  0  0  0  0  0  0  0  0  0  0
   12.3732    7.2829  -60.8152 H   0  0  0  0  0  0  0  0  0  0  0  0
   11.7246    5.6077  -60.8152 H   0  0  0  0  0  0  0  0  0  0  0  0
   14.2406    6.1228  -60.1147 H   0  0  0  0  0  0  0  0  0  0  0  0
   13.4312    6.4829  -58.5161 H   0  0  0  0  0  0  0  0  0  0  0  0
   12.7488    3.9263  -59.8922 H   0  0  0  0  0  0  0  0  0  0  0  0
   14.3925    4.1170  -59.0840 H   0  0  0  0  0  0  0  0  0  0  0  0
   13.4381    3.4271  -57.2261 H   0  0  0  0  0  0  0  0  0  0  0  0
   12.5937    5.0389  -57.2098 H   0  0  0  0  0  0  0  0  0  0  0  0
    6.9132    2.7448  -58.1386 H   0  0  0  0  0  0  0  0  0  0  0  0
    4.9864    1.7977  -56.8718 H   0  0  0  0  0  0  0  0  0  0  0  0
    5.3938    0.4055  -54.8399 H   0  0  0  0  0  0  0  0  0  0  0  0
   10.3241   -1.1572  -54.6053 H   0  0  0  0  0  0  0  0  0  0  0  0
   10.1725   -1.0620  -52.8479 H   0  0  0  0  0  0  0  0  0  0  0  0
   10.1405   -3.4581  -52.6158 H   0  0  0  0  0  0  0  0  0  0  0  0
   12.0013   -2.6026  -54.5086 H   0  0  0  0  0  0  0  0  0  0  0  0
   11.9952   -4.0412  -53.4021 H   0  0  0  0  0  0  0  0  0  0  0  0
   10.2867   -4.6208  -55.1172 H   0  0  0  0  0  0  0  0  0  0  0  0
   13.4543   -5.2316  -55.2283 H   0  0  0  0  0  0  0  0  0  0  0  0
   12.6675   -6.3614  -55.9527 H   0  0  0  0  0  0  0  0  0  0  0  0
   12.5867   -3.2451  -57.0754 H   0  0  0  0  0  0  0  0  0  0  0  0
   10.4108   -4.7576  -57.8114 H   0  0  0  0  0  0  0  0  0  0  0  0
   11.3805   -3.4325  -58.5398 H   0  0  0  0  0  0  0  0  0  0  0  0
   12.0138   -5.1135  -58.5398 H   0  0  0  0  0  0  0  0  0  0  0  0
    9.1385   -3.6557  -55.5364 H   0  0  0  0  0  0  0  0  0  0  0  0
    8.7487   -4.7539  -54.2251 H   0  0  0  0  0  0  0  0  0  0  0  0
    6.9667   -2.7779  -54.8742 H   0  0  0  0  0  0  0  0  0  0  0  0
    7.5490   -2.9244  -51.9485 H   0  0  0  0  0  0  0  0  0  0  0  0
    5.9895   -2.8919  -52.8394 H   0  0  0  0  0  0  0  0  0  0  0  0
    6.9930   -4.3817  -52.8394 H   0  0  0  0  0  0  0  0  0  0  0  0
    9.6592    0.9606  -55.3099 H   0  0  0  0  0  0  0  0  0  0  0  0
   11.1580    3.3050  -59.9960 H   0  0  0  0  0  0  0  0  0  0  0  0
  1  2  1  0
  2  3  1  0
  3  4  1  0
  4  5  1  0
  5  6  2  0
  6  7  1  0
  7  8  1  0
  8  9  2  0
  9 10  1  0
 10 11  2  0
 11 12  1  0
 12 13  1  0
 13 14  2  0
 13 15  1  0
 15 16  1  0
 16 17  1  0
 17 18  1  0
 18 19  1  0
 19 20  1  0
 20 21  1  0
 21 22  1  0
 17 23  1  0
 23 24  1  0
 24 25  1  0
 12 26  2  0
  7 27  2  0
 27 28  1  0
 28  5  1  0
 26  8  1  0
 24 15  1  0
 21 19  1  0
  1 29  1  0
  1 30  1  0
  1 31  1  0
  2 32  1  0
  2 33  1  0
  3 34  1  0
  3 35  1  0
  4 36  1  0
  4 37  1  0
  9 38  1  0
 10 39  1  0
 11 40  1  0
 16 41  1  0
 16 42  1  0
 17 43  1  1
 18 44  1  0
 18 45  1  0
 19 46  1  6
 20 47  1  0
 20 48  1  0
 21 49  1  1
 22 50  1  0
 22 51  1  0
 22 52  1  0
 23 53  1  0
 23 54  1  0
 24 55  1  6
 25 56  1  0
 25 57  1  0
 25 58  1  0
 26 59  1  0
 28 60  1  0
M  END
>  <meeko>  (229) 
{"is_sidechain": false}

$$$$

     RDKit          3D

 49 52  0  0  0  0  0  0  0  0999 V2000
   13.1000    4.0710  -59.1470 C   0  0  0  0  0  0  0  0  0  0  0  0
   11.7210    4.1730  -58.6150 C   0  0  0  0  0  0  0  0  0  0  0  0
   11.0680    5.3350  -58.6550 N   0  0  0  0  0  0  0  0  0  0  0  0
    9.5700    5.0580  -57.9800 S   0  0  0  0  0  0  0  0  0  0  0  0
    9.8860    3.3920  -57.6700 C   0  0  0  0  0  0  0  0  0  0  0  0
    8.9210    2.4780  -57.0420 C   0  0  0  0  0  0  0  0  0  0  0  0
    7.6320    2.3870  -57.5820 C   0  0  0  0  0  0  0  0  0  0  0  0
    6.7090    1.5370  -56.9980 C   0  0  0  0  0  0  0  0  0  0  0  0
    6.9780    0.7690  -55.9240 N   0  0  0  0  0  0  0  0  0  0  0  0
    8.2300    0.8490  -55.4090 C   0  0  0  0  0  0  0  0  0  0  0  0
    8.5510    0.0460  -54.1840 C   0  0  0  0  0  0  0  0  0  0  0  0
    8.5290    0.6290  -53.0970 O   0  0  0  0  0  0  0  0  0  0  0  0
    8.8610   -1.3060  -54.2710 N   0  0  0  0  0  0  0  0  0  0  0  0
   10.1620   -1.7060  -54.7830 C   0  0  0  0  0  0  0  0  0  0  0  0
   10.3970   -3.0850  -54.1720 C   0  0  2  0  0  0  0  0  0  0  0  0
   11.3980   -3.9460  -54.9400 C   0  0  0  0  0  0  0  0  0  0  0  0
   10.7470   -4.7260  -56.0450 C   0  0  2  0  0  0  0  0  0  0  0  0
   11.5460   -5.7560  -56.8050 C   0  0  0  0  0  0  0  0  0  0  0  0
   11.0660   -4.5140  -57.5100 C   0  0  2  0  0  0  0  0  0  0  0  0
   12.0490   -3.5030  -57.9920 C   0  0  0  0  0  0  0  0  0  0  0  0
    8.9850   -3.6720  -54.1770 C   0  0  0  0  0  0  0  0  0  0  0  0
    8.0870   -2.4710  -53.8280 C   0  0  2  0  0  0  0  0  0  0  0  0
    6.7380   -2.6120  -54.5270 C   0  0  0  0  0  0  0  0  0  0  0  0
    9.2150    1.6880  -55.9260 C   0  0  0  0  0  0  0  0  0  0  0  0
   11.0980    3.0550  -58.0720 N   0  0  0  0  0  0  0  0  0  0  0  0
   13.8127    4.0183  -58.3107 H   0  0  0  0  0  0  0  0  0  0  0  0
   13.1893    3.1638  -59.7626 H   0  0  0  0  0  0  0  0  0  0  0  0
   13.3218    4.9552  -59.7626 H   0  0  0  0  0  0  0  0  0  0  0  0
    7.3556    2.9857  -58.4624 H   0  0  0  0  0  0  0  0  0  0  0  0
    5.7006    1.4856  -57.4345 H   0  0  0  0  0  0  0  0  0  0  0  0
   10.1482   -1.7632  -55.8814 H   0  0  0  0  0  0  0  0  0  0  0  0
   10.9553   -0.9895  -54.5237 H   0  0  0  0  0  0  0  0  0  0  0  0
   10.8609   -3.0364  -53.1758 H   0  0  0  0  0  0  0  0  0  0  0  0
   12.1677   -3.2913  -55.3748 H   0  0  0  0  0  0  0  0  0  0  0  0
   11.8362   -4.6654  -54.2326 H   0  0  0  0  0  0  0  0  0  0  0  0
    9.8148   -4.7078  -55.4613 H   0  0  0  0  0  0  0  0  0  0  0  0
   12.6171   -5.8872  -56.5916 H   0  0  0  0  0  0  0  0  0  0  0  0
   11.4481   -6.8369  -56.9839 H   0  0  0  0  0  0  0  0  0  0  0  0
   10.4547   -4.2863  -58.3957 H   0  0  0  0  0  0  0  0  0  0  0  0
   12.5247   -3.0137  -57.1293 H   0  0  0  0  0  0  0  0  0  0  0  0
   12.8179   -4.0006  -58.6013 H   0  0  0  0  0  0  0  0  0  0  0  0
   11.5300   -2.7484  -58.6013 H   0  0  0  0  0  0  0  0  0  0  0  0
    8.7319   -4.0756  -55.1685 H   0  0  0  0  0  0  0  0  0  0  0  0
    8.8695   -4.5086  -53.4722 H   0  0  0  0  0  0  0  0  0  0  0  0
    7.8414   -2.3861  -52.7591 H   0  0  0  0  0  0  0  0  0  0  0  0
    5.9413   -2.6953  -53.7731 H   0  0  0  0  0  0  0  0  0  0  0  0
    6.5567   -1.7279  -55.1559 H   0  0  0  0  0  0  0  0  0  0  0  0
    6.7435   -3.5145  -55.1559 H   0  0  0  0  0  0  0  0  0  0  0  0
   10.2116    1.7285  -55.4621 H   0  0  0  0  0  0  0  0  0  0  0  0
  1  2  1  0
  2  3  2  0
  3  4  1  0
  4  5  1  0
  5  6  1  0
  6  7  2  0
  7  8  1  0
  8  9  2  0
  9 10  1  0
 10 11  1  0
 11 12  2  0
 11 13  1  0
 13 14  1  0
 14 15  1  0
 15 16  1  0
 16 17  1  0
 17 18  1  0
 18 19  1  0
 19 20  1  0
 15 21  1  0
 21 22  1  0
 22 23  1  0
 10 24  2  0
  5 25  2  0
 25  2  1  0
 24  6  1  0
 22 13  1  0
 19 17  1  0
  1 26  1  0
  1 27  1  0
  1 28  1  0
  7 29  1  0
  8 30  1  0
 14 31  1  0
 14 32  1  0
 15 33  1  1
 16 34  1  0
 16 35  1  0
 17 36  1  6
 18 37  1  0
 18 38  1  0
 19 39  1  6
 20 40  1  0
 20 41  1  0
 20 42  1  0
 21 43  1  0
 21 44  1  0
 22 45  1  1
 23 46  1  0
 23 47  1  0
 23 48  1  0
 24 49  1  0
M  END
>  <meeko>  (230) 
{"is_sidechain": false}

$$$$

     RDKit          3D

 49 52  0  0  0  0  0  0  0  0999 V2000
   12.8820    3.8950  -59.2150 C   0  0  0  0  0  0  0  0  0  0  0  0
   11.5500    4.0560  -58.5850 C   0  0  0  0  0  0  0  0  0  0  0  0
   11.0250    5.2710  -58.4160 N   0  0  0  0  0  0  0  0  0  0  0  0
    9.5470    5.0470  -57.6820 S   0  0  0  0  0  0  0  0  0  0  0  0
    9.6910    3.3300  -57.6430 C   0  0  0  0  0  0  0  0  0  0  0  0
    8.6670    2.4350  -57.0840 C   0  0  0  0  0  0  0  0  0  0  0  0
    7.3930    2.2780  -57.6370 C   0  0  0  0  0  0  0  0  0  0  0  0
    6.5010    1.4080  -57.0320 C   0  0  0  0  0  0  0  0  0  0  0  0
    6.7840    0.6860  -55.9310 N   0  0  0  0  0  0  0  0  0  0  0  0
    8.0240    0.8320  -55.4020 C   0  0  0  0  0  0  0  0  0  0  0  0
    8.3570    0.0840  -54.1480 C   0  0  0  0  0  0  0  0  0  0  0  0
    8.3040    0.7000  -53.0800 O   0  0  0  0  0  0  0  0  0  0  0  0
    8.7090   -1.2610  -54.1890 N   0  0  0  0  0  0  0  0  0  0  0  0
   10.0500   -1.6340  -54.6090 C   0  0  0  0  0  0  0  0  0  0  0  0
   10.2760   -2.9980  -53.9630 C   0  0  2  0  0  0  0  0  0  0  0  0
   11.3470   -3.8420  -54.6510 C   0  0  0  0  0  0  0  0  0  0  0  0
   10.9500   -4.2260  -56.0470 C   0  0  2  0  0  0  0  0  0  0  0  0
   11.1240   -5.6430  -56.5360 C   0  0  0  0  0  0  0  0  0  0  0  0
   12.0180   -4.5510  -57.0620 C   0  0  1  0  0  0  0  0  0  0  0  0
   11.8800   -4.0840  -58.4710 C   0  0  0  0  0  0  0  0  0  0  0  0
    8.8820   -3.6210  -54.0530 C   0  0  0  0  0  0  0  0  0  0  0  0
    7.9350   -2.4370  -53.7800 C   0  0  2  0  0  0  0  0  0  0  0  0
    6.6370   -2.6220  -54.5600 C   0  0  0  0  0  0  0  0  0  0  0  0
    8.9770    1.6920  -55.9370 C   0  0  0  0  0  0  0  0  0  0  0  0
   10.8370    2.9380  -58.1700 N   0  0  0  0  0  0  0  0  0  0  0  0
   13.6491    3.8023  -58.4321 H   0  0  0  0  0  0  0  0  0  0  0  0
   12.8849    2.9900  -59.8402 H   0  0  0  0  0  0  0  0  0  0  0  0
   13.1005    4.7733  -59.8402 H   0  0  0  0  0  0  0  0  0  0  0  0
    7.1031    2.8369  -58.5390 H   0  0  0  0  0  0  0  0  0  0  0  0
    5.5011    1.3003  -57.4777 H   0  0  0  0  0  0  0  0  0  0  0  0
   10.1101   -1.7061  -55.7050 H   0  0  0  0  0  0  0  0  0  0  0  0
   10.8073   -0.8944  -54.3100 H   0  0  0  0  0  0  0  0  0  0  0  0
   10.6696   -2.9254  -52.9384 H   0  0  0  0  0  0  0  0  0  0  0  0
   12.2816   -3.2635  -54.6940 H   0  0  0  0  0  0  0  0  0  0  0  0
   11.4773   -4.7660  -54.0686 H   0  0  0  0  0  0  0  0  0  0  0  0
   10.1030   -3.5261  -55.9949 H   0  0  0  0  0  0  0  0  0  0  0  0
   11.5320   -6.4109  -55.8624 H   0  0  0  0  0  0  0  0  0  0  0  0
   10.4633   -6.3945  -56.9928 H   0  0  0  0  0  0  0  0  0  0  0  0
   13.1056   -4.3978  -57.1219 H   0  0  0  0  0  0  0  0  0  0  0  0
   11.5683   -3.0291  -58.4788 H   0  0  0  0  0  0  0  0  0  0  0  0
   12.8463   -4.1846  -58.9869 H   0  0  0  0  0  0  0  0  0  0  0  0
   11.1236   -4.6937  -58.9869 H   0  0  0  0  0  0  0  0  0  0  0  0
    8.7046   -4.0427  -55.0533 H   0  0  0  0  0  0  0  0  0  0  0  0
    8.7400   -4.4523  -53.3467 H   0  0  0  0  0  0  0  0  0  0  0  0
    7.6185   -2.3419  -52.7308 H   0  0  0  0  0  0  0  0  0  0  0  0
    5.8001   -2.7413  -53.8562 H   0  0  0  0  0  0  0  0  0  0  0  0
    6.4608   -1.7399  -55.1931 H   0  0  0  0  0  0  0  0  0  0  0  0
    6.7142   -3.5182  -55.1931 H   0  0  0  0  0  0  0  0  0  0  0  0
    9.9654    1.7882  -55.4640 H   0  0  0  0  0  0  0  0  0  0  0  0
  1  2  1  0
  2  3  2  0
  3  4  1  0
  4  5  1  0
  5  6  1  0
  6  7  2  0
  7  8  1  0
  8  9  2  0
  9 10  1  0
 10 11  1  0
 11 12  2  0
 11 13  1  0
 13 14  1  0
 14 15  1  0
 15 16  1  0
 16 17  1  0
 17 18  1  0
 18 19  1  0
 19 20  1  0
 15 21  1  0
 21 22  1  0
 22 23  1  0
 10 24  2  0
  5 25  2  0
 25  2  1  0
 24  6  1  0
 22 13  1  0
 19 17  1  0
  1 26  1  0
  1 27  1  0
  1 28  1  0
  7 29  1  0
  8 30  1  0
 14 31  1  0
 14 32  1  0
 15 33  1  1
 16 34  1  0
 16 35  1  0
 17 36  1  6
 18 37  1  0
 18 38  1  0
 19 39  1  1
 20 40  1  0
 20 41  1  0
 20 42  1  0
 21 43  1  0
 21 44  1  0
 22 45  1  1
 23 46  1  0
 23 47  1  0
 23 48  1  0
 24 49  1  0
M  END
>  <meeko>  (231) 
{"is_sidechain": false}

$$$$

     RDKit          3D

 51 55  0  0  0  0  0  0  0  0999 V2000
    6.9560    1.1450  -56.8260 O   0  0  0  0  0  0  0  0  0  0  0  0
    7.9180    1.8200  -56.4750 C   0  0  0  0  0  0  0  0  0  0  0  0
    8.8690    1.4180  -55.5620 N   0  0  0  0  0  0  0  0  0  0  0  0
    8.9770    0.1880  -54.9100 C   0  0  0  0  0  0  0  0  0  0  0  0
    8.3030   -0.1360  -53.7570 C   0  0  0  0  0  0  0  0  0  0  0  0
    8.5220   -1.4020  -53.2440 C   0  0  0  0  0  0  0  0  0  0  0  0
    7.8030   -1.8070  -51.9680 C   0  0  0  0  0  0  0  0  0  0  0  0
    6.6770   -2.5470  -52.1760 F   0  0  0  0  0  0  0  0  0  0  0  0
    7.4060   -0.7310  -51.2290 F   0  0  0  0  0  0  0  0  0  0  0  0
    8.5900   -2.5530  -51.1400 F   0  0  0  0  0  0  0  0  0  0  0  0
    9.3600   -2.2820  -53.8480 N   0  0  0  0  0  0  0  0  0  0  0  0
    9.9740   -1.8800  -54.9730 C   0  0  0  0  0  0  0  0  0  0  0  0
   10.8860   -2.8320  -55.6400 C   0  0  0  0  0  0  0  0  0  0  0  0
   11.1510   -4.1060  -55.0920 C   0  0  0  0  0  0  0  0  0  0  0  0
   12.0150   -5.0070  -55.7230 C   0  0  0  0  0  0  0  0  0  0  0  0
   12.6280   -4.6480  -56.9140 C   0  0  0  0  0  0  0  0  0  0  0  0
   13.4560   -5.5100  -57.5190 F   0  0  0  0  0  0  0  0  0  0  0  0
   12.3950   -3.4060  -57.4860 C   0  0  0  0  0  0  0  0  0  0  0  0
   11.5310   -2.5070  -56.8520 C   0  0  0  0  0  0  0  0  0  0  0  0
    9.8080   -0.6660  -55.5280 N   0  0  0  0  0  0  0  0  0  0  0  0
    8.1490    3.2510  -56.9840 C   0  0  2  0  0  0  0  0  0  0  0  0
    7.6830    3.4650  -58.4470 C   0  0  1  0  0  0  0  0  0  0  0  0
    7.7410    4.9760  -58.7550 C   0  0  0  0  0  0  0  0  0  0  0  0
    9.1820    5.4960  -58.6000 C   0  0  2  0  0  0  0  0  0  0  0  0
   10.0990    4.7440  -59.5780 C   0  0  0  0  0  0  0  0  0  0  0  0
   10.0550    3.2350  -59.2850 C   0  0  2  0  0  0  0  0  0  0  0  0
    8.6100    2.7360  -59.4420 C   0  0  0  0  0  0  0  0  0  0  0  0
   10.5210    2.9800  -57.8430 C   0  0  0  0  0  0  0  0  0  0  0  0
    9.6160    3.7280  -56.8460 C   0  0  1  0  0  0  0  0  0  0  0  0
    9.6690    5.2370  -57.1630 C   0  0  0  0  0  0  0  0  0  0  0  0
    9.5810    2.0730  -55.2680 H   0  0  0  0  0  0  0  0  0  0  0  0
    7.6231    0.5760  -53.2663 H   0  0  0  0  0  0  0  0  0  0  0  0
   10.6672   -4.3964  -54.1478 H   0  0  0  0  0  0  0  0  0  0  0  0
   12.2070   -5.9942  -55.2773 H   0  0  0  0  0  0  0  0  0  0  0  0
   12.8859   -3.1301  -58.4309 H   0  0  0  0  0  0  0  0  0  0  0  0
   11.3501   -1.5231  -57.3093 H   0  0  0  0  0  0  0  0  0  0  0  0
    7.5211    3.8652  -56.3219 H   0  0  0  0  0  0  0  0  0  0  0  0
    6.6640    3.0649  -58.5547 H   0  0  0  0  0  0  0  0  0  0  0  0
    7.4011    5.1497  -59.7867 H   0  0  0  0  0  0  0  0  0  0  0  0
    7.0887    5.5112  -58.0492 H   0  0  0  0  0  0  0  0  0  0  0  0
    9.2068    6.5749  -58.8132 H   0  0  0  0  0  0  0  0  0  0  0  0
    9.7593    4.9251  -60.6084 H   0  0  0  0  0  0  0  0  0  0  0  0
   11.1307    5.1057  -59.4565 H   0  0  0  0  0  0  0  0  0  0  0  0
   10.7152    2.7027  -59.9856 H   0  0  0  0  0  0  0  0  0  0  0  0
    8.2673    2.9326  -60.4686 H   0  0  0  0  0  0  0  0  0  0  0  0
    8.5790    1.6559  -59.2358 H   0  0  0  0  0  0  0  0  0  0  0  0
   10.4771    1.9011  -57.6333 H   0  0  0  0  0  0  0  0  0  0  0  0
   11.5527    3.3450  -57.7316 H   0  0  0  0  0  0  0  0  0  0  0  0
    9.9691    3.5278  -55.8236 H   0  0  0  0  0  0  0  0  0  0  0  0
    9.0229    5.7794  -56.4571 H   0  0  0  0  0  0  0  0  0  0  0  0
   10.7073    5.5875  -57.0674 H   0  0  0  0  0  0  0  0  0  0  0  0
  1  2  2  0
  2  3  1  0
  3  4  1  0
  4  5  2  0
  5  6  1  0
  6  7  1  0
  7  8  1  0
  7  9  1  0
  7 10  1  0
  6 11  2  0
 11 12  1  0
 12 13  1  0
 13 14  1  0
 14 15  2  0
 15 16  1  0
 16 17  1  0
 16 18  2  0
 18 19  1  0
 12 20  2  0
  2 21  1  0
 21 22  1  0
 22 23  1  0
 23 24  1  0
 24 25  1  0
 25 26  1  0
 26 27  1  0
 26 28  1  0
 28 29  1  0
 29 30  1  0
 20  4  1  0
 29 21  1  0
 19 13  2  0
 27 22  1  0
 30 24  1  0
  3 31  1  0
  5 32  1  0
 14 33  1  0
 15 34  1  0
 18 35  1  0
 19 36  1  0
 21 37  1  6
 22 38  1  6
 23 39  1  0
 23 40  1  0
 24 41  1  1
 25 42  1  0
 25 43  1  0
 26 44  1  1
 27 45  1  0
 27 46  1  0
 28 47  1  0
 28 48  1  0
 29 49  1  6
 30 50  1  0
 30 51  1  0
M  END
>  <meeko>  (232) 
{"is_sidechain": false}

$$$$

     RDKit          3D

 49 51  0  0  0  0  0  0  0  0999 V2000
   11.8650    3.1130  -57.6410 C   0  0  0  0  0  0  0  0  0  0  0  0
   10.9430    4.0310  -58.4100 N   0  0  2  0  0  0  0  0  0  0  0  0
   10.3560    5.1150  -57.5520 C   0  0  0  0  0  0  0  0  0  0  0  0
    9.1710    4.6150  -56.7390 C   0  0  0  0  0  0  0  0  0  0  0  0
    8.1430    3.8200  -57.5610 C   0  0  2  0  0  0  0  0  0  0  0  0
    8.0210    2.3810  -57.0550 C   0  0  0  0  0  0  0  0  0  0  0  0
    7.1370    1.6580  -57.5040 O   0  0  0  0  0  0  0  0  0  0  0  0
    8.9010    2.0870  -56.0330 N   0  0  0  0  0  0  0  0  0  0  0  0
    8.9130    0.8760  -55.3170 C   0  0  0  0  0  0  0  0  0  0  0  0
    8.0690    0.7620  -54.2340 C   0  0  0  0  0  0  0  0  0  0  0  0
    8.0860   -0.4450  -53.5530 C   0  0  0  0  0  0  0  0  0  0  0  0
    7.1710   -0.6180  -52.3510 C   0  0  0  0  0  0  0  0  0  0  0  0
    6.0190   -1.2700  -52.6810 F   0  0  0  0  0  0  0  0  0  0  0  0
    7.7190   -1.3140  -51.3200 F   0  0  0  0  0  0  0  0  0  0  0  0
    6.7750    0.5810  -51.8350 F   0  0  0  0  0  0  0  0  0  0  0  0
    8.8950   -1.4630  -53.9330 N   0  0  0  0  0  0  0  0  0  0  0  0
    9.6880   -1.2620  -54.9980 C   0  0  0  0  0  0  0  0  0  0  0  0
   10.5830   -2.3580  -55.4210 C   0  0  0  0  0  0  0  0  0  0  0  0
   10.7480   -3.5180  -54.6400 C   0  0  0  0  0  0  0  0  0  0  0  0
   11.5960   -4.5570  -55.0420 C   0  0  0  0  0  0  0  0  0  0  0  0
   12.3160   -4.4670  -56.2400 C   0  0  0  0  0  0  0  0  0  0  0  0
   13.2130   -5.5940  -56.6900 C   0  0  0  0  0  0  0  0  0  0  0  0
   12.5390   -6.7440  -56.9620 F   0  0  0  0  0  0  0  0  0  0  0  0
   14.1550   -5.9230  -55.7610 F   0  0  0  0  0  0  0  0  0  0  0  0
   13.9020   -5.2820  -57.8220 F   0  0  0  0  0  0  0  0  0  0  0  0
   12.1570   -3.3240  -57.0320 C   0  0  0  0  0  0  0  0  0  0  0  0
   11.3080   -2.2880  -56.6260 C   0  0  0  0  0  0  0  0  0  0  0  0
    9.7120   -0.1210  -55.7060 N   0  0  0  0  0  0  0  0  0  0  0  0
    8.5180    3.7670  -59.0470 C   0  0  0  0  0  0  0  0  0  0  0  0
    9.9470    3.2720  -59.2600 C   0  0  0  0  0  0  0  0  0  0  0  0
   11.7147    3.2626  -56.5616 H   0  0  0  0  0  0  0  0  0  0  0  0
   11.6420    2.0677  -57.9008 H   0  0  0  0  0  0  0  0  0  0  0  0
   12.9094    3.3406  -57.9008 H   0  0  0  0  0  0  0  0  0  0  0  0
   11.5640    4.5130  -59.0720 H   0  0  0  0  0  0  0  0  0  0  0  0
   11.1308    5.4820  -56.8628 H   0  0  0  0  0  0  0  0  0  0  0  0
   10.0010    5.9191  -58.2134 H   0  0  0  0  0  0  0  0  0  0  0  0
    9.5507    3.9649  -55.9370 H   0  0  0  0  0  0  0  0  0  0  0  0
    8.6516    5.5039  -56.3515 H   0  0  0  0  0  0  0  0  0  0  0  0
    7.1847    4.3466  -57.4416 H   0  0  0  0  0  0  0  0  0  0  0  0
    9.6250    2.7540  -55.8040 H   0  0  0  0  0  0  0  0  0  0  0  0
    7.4132    1.5892  -53.9247 H   0  0  0  0  0  0  0  0  0  0  0  0
   10.1978   -3.6100  -53.6919 H   0  0  0  0  0  0  0  0  0  0  0  0
   11.6977   -5.4523  -54.4111 H   0  0  0  0  0  0  0  0  0  0  0  0
   12.7044   -3.2391  -57.9824 H   0  0  0  0  0  0  0  0  0  0  0  0
   11.2047   -1.3977  -57.2637 H   0  0  0  0  0  0  0  0  0  0  0  0
    7.8257    3.0860  -59.5637 H   0  0  0  0  0  0  0  0  0  0  0  0
    8.4486    4.7877  -59.4512 H   0  0  0  0  0  0  0  0  0  0  0  0
    9.9961    2.2050  -58.9970 H   0  0  0  0  0  0  0  0  0  0  0  0
   10.2087    3.4341  -60.3160 H   0  0  0  0  0  0  0  0  0  0  0  0
  1  2  1  0
  2  3  1  0
  3  4  1  0
  4  5  1  0
  5  6  1  0
  6  7  2  0
  6  8  1  0
  8  9  1  0
  9 10  2  0
 10 11  1  0
 11 12  1  0
 12 13  1  0
 12 14  1  0
 12 15  1  0
 11 16  2  0
 16 17  1  0
 17 18  1  0
 18 19  1  0
 19 20  2  0
 20 21  1  0
 21 22  1  0
 22 23  1  0
 22 24  1  0
 22 25  1  0
 21 26  2  0
 26 27  1  0
 17 28  2  0
  5 29  1  0
 29 30  1  0
 30  2  1  0
 28  9  1  0
 27 18  2  0
  1 31  1  0
  1 32  1  0
  1 33  1  0
  2 34  1  1
  3 35  1  0
  3 36  1  0
  4 37  1  0
  4 38  1  0
  5 39  1  1
  8 40  1  0
 10 41  1  0
 19 42  1  0
 20 43  1  0
 26 44  1  0
 27 45  1  0
 29 46  1  0
 29 47  1  0
 30 48  1  0
 30 49  1  0
M  CHG  1   2   1
M  END
>  <meeko>  (233) 
{"is_sidechain": false}

$$$$

     RDKit          3D

 49 51  0  0  0  0  0  0  0  0999 V2000
    8.8400   -3.3590  -54.2110 C   0  0  0  0  0  0  0  0  0  0  0  0
    8.0530   -2.0910  -54.0650 N   0  0  2  0  0  0  0  0  0  0  0  0
    8.1810   -1.4780  -52.7040 C   0  0  0  0  0  0  0  0  0  0  0  0
    7.6410   -0.0470  -52.7230 C   0  0  0  0  0  0  0  0  0  0  0  0
    6.5580    0.2040  -53.7840 C   0  0  1  0  0  0  0  0  0  0  0  0
    7.1860    0.6680  -55.0990 C   0  0  0  0  0  0  0  0  0  0  0  0
    8.3980    0.5360  -55.2680 O   0  0  0  0  0  0  0  0  0  0  0  0
    6.2760    1.0980  -56.0260 N   0  0  0  0  0  0  0  0  0  0  0  0
    6.5120    1.5600  -57.3250 C   0  0  0  0  0  0  0  0  0  0  0  0
    5.6100    1.4620  -58.3570 C   0  0  0  0  0  0  0  0  0  0  0  0
    6.0070    1.9800  -59.5770 C   0  0  0  0  0  0  0  0  0  0  0  0
    5.0460    1.8950  -60.7520 C   0  0  0  0  0  0  0  0  0  0  0  0
    3.8450    2.4800  -60.4690 F   0  0  0  0  0  0  0  0  0  0  0  0
    4.7530    0.6060  -61.0840 F   0  0  0  0  0  0  0  0  0  0  0  0
    5.4930    2.4890  -61.8910 F   0  0  0  0  0  0  0  0  0  0  0  0
    7.2240    2.5520  -59.7440 N   0  0  0  0  0  0  0  0  0  0  0  0
    8.0450    2.5990  -58.6830 C   0  0  0  0  0  0  0  0  0  0  0  0
    9.3740    3.2190  -58.8600 C   0  0  0  0  0  0  0  0  0  0  0  0
    9.5800    4.2770  -59.7650 C   0  0  0  0  0  0  0  0  0  0  0  0
   10.8420    4.8650  -59.9320 C   0  0  0  0  0  0  0  0  0  0  0  0
   11.9440    4.4080  -59.2000 C   0  0  0  0  0  0  0  0  0  0  0  0
   13.2980    5.0560  -59.3640 C   0  0  0  0  0  0  0  0  0  0  0  0
   13.2850    6.1130  -60.2220 F   0  0  0  0  0  0  0  0  0  0  0  0
   13.8010    5.5340  -58.1920 F   0  0  0  0  0  0  0  0  0  0  0  0
   14.2290    4.1890  -59.8450 F   0  0  0  0  0  0  0  0  0  0  0  0
   11.7540    3.3640  -58.2890 C   0  0  0  0  0  0  0  0  0  0  0  0
   10.4920    2.7800  -58.1260 C   0  0  0  0  0  0  0  0  0  0  0  0
    7.7220    2.1190  -57.4670 N   0  0  0  0  0  0  0  0  0  0  0  0
    5.7550   -1.0720  -54.0460 C   0  0  0  0  0  0  0  0  0  0  0  0
    6.6190   -2.2540  -54.5020 C   0  0  0  0  0  0  0  0  0  0  0  0
    9.0857   -3.7549  -53.2145 H   0  0  0  0  0  0  0  0  0  0  0  0
    8.2427   -4.0998  -54.7628 H   0  0  0  0  0  0  0  0  0  0  0  0
    9.7689   -3.1525  -54.7628 H   0  0  0  0  0  0  0  0  0  0  0  0
    8.4910   -1.4180  -54.7300 H   0  0  0  0  0  0  0  0  0  0  0  0
    7.6067   -2.0747  -51.9800 H   0  0  0  0  0  0  0  0  0  0  0  0
    9.2419   -1.4602  -52.4138 H   0  0  0  0  0  0  0  0  0  0  0  0
    7.2126    0.1731  -51.7341 H   0  0  0  0  0  0  0  0  0  0  0  0
    8.4885    0.6071  -52.9757 H   0  0  0  0  0  0  0  0  0  0  0  0
    5.8901    0.9886  -53.3988 H   0  0  0  0  0  0  0  0  0  0  0  0
    5.2890    1.1300  -55.7960 H   0  0  0  0  0  0  0  0  0  0  0  0
    4.6231    0.9957  -58.2202 H   0  0  0  0  0  0  0  0  0  0  0  0
    8.7308    4.6516  -60.3554 H   0  0  0  0  0  0  0  0  0  0  0  0
   10.9671    5.6932  -60.6450 H   0  0  0  0  0  0  0  0  0  0  0  0
   12.6043    2.9981  -57.6948 H   0  0  0  0  0  0  0  0  0  0  0  0
   10.3711    1.9572  -57.4060 H   0  0  0  0  0  0  0  0  0  0  0  0
    5.2387   -1.3557  -53.1170 H   0  0  0  0  0  0  0  0  0  0  0  0
    5.0518   -0.8506  -54.8623 H   0  0  0  0  0  0  0  0  0  0  0  0
    6.2158   -3.1804  -54.0669 H   0  0  0  0  0  0  0  0  0  0  0  0
    6.5955   -2.2951  -55.6010 H   0  0  0  0  0  0  0  0  0  0  0  0
  1  2  1  0
  2  3  1  0
  3  4  1  0
  4  5  1  0
  5  6  1  0
  6  7  2  0
  6  8  1  0
  8  9  1  0
  9 10  2  0
 10 11  1  0
 11 12  1  0
 12 13  1  0
 12 14  1  0
 12 15  1  0
 11 16  2  0
 16 17  1  0
 17 18  1  0
 18 19  1  0
 19 20  2  0
 20 21  1  0
 21 22  1  0
 22 23  1  0
 22 24  1  0
 22 25  1  0
 21 26  2  0
 26 27  1  0
 17 28  2  0
  5 29  1  0
 29 30  1  0
 30  2  1  0
 28  9  1  0
 27 18  2  0
  1 31  1  0
  1 32  1  0
  1 33  1  0
  2 34  1  1
  3 35  1  0
  3 36  1  0
  4 37  1  0
  4 38  1  0
  5 39  1  6
  8 40  1  0
 10 41  1  0
 19 42  1  0
 20 43  1  0
 26 44  1  0
 27 45  1  0
 29 46  1  0
 29 47  1  0
 30 48  1  0
 30 49  1  0
M  CHG  1   2   1
M  END
>  <meeko>  (234) 
{"is_sidechain": false}

$$$$

     RDKit          3D

 58 62  0  0  0  0  0  0  0  0999 V2000
    8.5770    1.2070  -55.9070 O   0  0  0  0  0  0  0  0  0  0  0  0
    9.6850    1.5210  -56.3260 C   0  0  0  0  0  0  0  0  0  0  0  0
   10.7500    0.6570  -56.4620 N   0  0  0  0  0  0  0  0  0  0  0  0
   10.7900   -0.7140  -56.1980 C   0  0  0  0  0  0  0  0  0  0  0  0
   11.6160   -1.6030  -56.8450 C   0  0  0  0  0  0  0  0  0  0  0  0
   11.5310   -2.9270  -56.4550 C   0  0  0  0  0  0  0  0  0  0  0  0
   12.4210   -3.9500  -57.1430 C   0  0  0  0  0  0  0  0  0  0  0  0
   11.8170   -4.5210  -58.2240 F   0  0  0  0  0  0  0  0  0  0  0  0
   13.5770   -3.3990  -57.6130 F   0  0  0  0  0  0  0  0  0  0  0  0
   12.8020   -4.9830  -56.3400 F   0  0  0  0  0  0  0  0  0  0  0  0
   10.6760   -3.3310  -55.4810 N   0  0  0  0  0  0  0  0  0  0  0  0
    9.9090   -2.3930  -54.9030 C   0  0  0  0  0  0  0  0  0  0  0  0
    8.9760   -2.8250  -53.8400 C   0  0  0  0  0  0  0  0  0  0  0  0
    7.6060   -3.0040  -54.0920 C   0  0  0  0  0  0  0  0  0  0  0  0
    6.7230   -3.4180  -53.0890 C   0  0  0  0  0  0  0  0  0  0  0  0
    7.1780   -3.6740  -51.7850 C   0  0  0  0  0  0  0  0  0  0  0  0
    6.1860   -4.1130  -50.7260 C   0  0  0  0  0  0  0  0  0  0  0  0
    5.9750   -3.1700  -49.7730 F   0  0  0  0  0  0  0  0  0  0  0  0
    4.9700   -4.4130  -51.2540 F   0  0  0  0  0  0  0  0  0  0  0  0
    6.5850   -5.2310  -50.0560 F   0  0  0  0  0  0  0  0  0  0  0  0
    8.5460   -3.4850  -51.4940 C   0  0  0  0  0  0  0  0  0  0  0  0
    9.1100   -3.7440  -50.1090 C   0  0  0  0  0  0  0  0  0  0  0  0
   10.4620   -3.6020  -50.0460 F   0  0  0  0  0  0  0  0  0  0  0  0
    8.6100   -2.8970  -49.1700 F   0  0  0  0  0  0  0  0  0  0  0  0
    8.8460   -5.0040  -49.6750 F   0  0  0  0  0  0  0  0  0  0  0  0
    9.4200   -3.0760  -52.5260 C   0  0  0  0  0  0  0  0  0  0  0  0
    9.9390   -1.0900  -55.2290 N   0  0  0  0  0  0  0  0  0  0  0  0
   10.0330    2.9570  -56.7370 C   0  0  2  0  0  0  0  0  0  0  0  0
    8.8180    3.9200  -56.7290 C   0  0  1  0  0  0  0  0  0  0  0  0
    9.3470    5.3570  -56.9250 C   0  0  0  0  0  0  0  0  0  0  0  0
   10.0800    5.4730  -58.2750 C   0  0  2  0  0  0  0  0  0  0  0  0
    9.1020    5.1330  -59.4120 C   0  0  0  0  0  0  0  0  0  0  0  0
    8.5630    3.7010  -59.2320 C   0  0  2  0  0  0  0  0  0  0  0  0
    7.8380    3.6110  -57.8810 C   0  0  0  0  0  0  0  0  0  0  0  0
    9.7220    2.6870  -59.2350 C   0  0  1  0  0  0  0  0  0  0  0  0
   10.3700    2.7110  -60.5030 O   0  0  0  0  0  0  0  0  0  0  0  0
   10.7290    3.0340  -58.1180 C   0  0  1  0  0  0  0  0  0  0  0  0
   11.2500    4.4750  -58.3130 C   0  0  0  0  0  0  0  0  0  0  0  0
   11.6530    1.0230  -56.7380 H   0  0  0  0  0  0  0  0  0  0  0  0
   12.3100   -1.2770  -57.6337 H   0  0  0  0  0  0  0  0  0  0  0  0
    7.2175   -2.8139  -55.1034 H   0  0  0  0  0  0  0  0  0  0  0  0
    5.6562   -3.5450  -53.3251 H   0  0  0  0  0  0  0  0  0  0  0  0
   10.4879   -2.9486  -52.2952 H   0  0  0  0  0  0  0  0  0  0  0  0
   10.7372    3.2902  -55.9604 H   0  0  0  0  0  0  0  0  0  0  0  0
    8.2840    3.8010  -55.7747 H   0  0  0  0  0  0  0  0  0  0  0  0
    8.5019    6.0610  -56.9084 H   0  0  0  0  0  0  0  0  0  0  0  0
   10.0495    5.5954  -56.1128 H   0  0  0  0  0  0  0  0  0  0  0  0
   10.4608    6.4978  -58.3967 H   0  0  0  0  0  0  0  0  0  0  0  0
    8.2622    5.8433  -59.3949 H   0  0  0  0  0  0  0  0  0  0  0  0
    9.6292    5.2023  -60.3749 H   0  0  0  0  0  0  0  0  0  0  0  0
    7.8768    3.4698  -60.0601 H   0  0  0  0  0  0  0  0  0  0  0  0
    7.0135    4.3389  -57.8618 H   0  0  0  0  0  0  0  0  0  0  0  0
    7.4426    2.5925  -57.7527 H   0  0  0  0  0  0  0  0  0  0  0  0
    9.3243    1.6781  -59.0504 H   0  0  0  0  0  0  0  0  0  0  0  0
   11.3260    2.6200  -60.3510 H   0  0  0  0  0  0  0  0  0  0  0  0
   11.5619    2.3169  -58.1637 H   0  0  0  0  0  0  0  0  0  0  0  0
   11.9599    4.7167  -57.5082 H   0  0  0  0  0  0  0  0  0  0  0  0
   11.7508    4.5463  -59.2898 H   0  0  0  0  0  0  0  0  0  0  0  0
  1  2  2  0
  2  3  1  0
  3  4  1  0
  4  5  2  0
  5  6  1  0
  6  7  1  0
  7  8  1  0
  7  9  1  0
  7 10  1  0
  6 11  2  0
 11 12  1  0
 12 13  1  0
 13 14  1  0
 14 15  2  0
 15 16  1  0
 16 17  1  0
 17 18  1  0
 17 19  1  0
 17 20  1  0
 16 21  2  0
 21 22  1  0
 22 23  1  0
 22 24  1  0
 22 25  1  0
 21 26  1  0
 12 27  2  0
  2 28  1  0
 28 29  1  0
 29 30  1  0
 30 31  1  0
 31 32  1  0
 32 33  1  0
 33 34  1  0
 33 35  1  0
 35 36  1  0
 35 37  1  0
 37 38  1  0
 27  4  1  0
 37 28  1  0
 26 13  2  0
 34 29  1  0
 38 31  1  0
  3 39  1  0
  5 40  1  0
 14 41  1  0
 15 42  1  0
 26 43  1  0
 28 44  1  1
 29 45  1  1
 30 46  1  0
 30 47  1  0
 31 48  1  6
 32 49  1  0
 32 50  1  0
 33 51  1  6
 34 52  1  0
 34 53  1  0
 35 54  1  1
 36 55  1  0
 37 56  1  1
 38 57  1  0
 38 58  1  0
M  END
>  <meeko>  (235) 
{"is_sidechain": false}

$$$$

     RDKit          3D

 60 63  0  0  0  0  0  0  0  0999 V2000
    5.7680    2.9870  -56.0840 O   0  0  0  0  0  0  0  0  0  0  0  0
    6.2880    1.8810  -56.1910 C   0  0  0  0  0  0  0  0  0  0  0  0
    6.8770    1.3930  -57.3380 N   0  0  0  0  0  0  0  0  0  0  0  0
    6.9920    2.0140  -58.5840 C   0  0  0  0  0  0  0  0  0  0  0  0
    6.1060    1.8370  -59.6190 C   0  0  0  0  0  0  0  0  0  0  0  0
    6.3700    2.5270  -60.7890 C   0  0  0  0  0  0  0  0  0  0  0  0
    5.4180    2.3670  -61.9620 C   0  0  0  0  0  0  0  0  0  0  0  0
    5.6580    3.2710  -62.9550 F   0  0  0  0  0  0  0  0  0  0  0  0
    5.4700    1.1410  -62.5560 F   0  0  0  0  0  0  0  0  0  0  0  0
    4.1140    2.5500  -61.6040 F   0  0  0  0  0  0  0  0  0  0  0  0
    7.4510    3.3390  -60.9090 N   0  0  0  0  0  0  0  0  0  0  0  0
    8.2640    3.4510  -59.8470 C   0  0  0  0  0  0  0  0  0  0  0  0
    9.4440    4.3320  -59.9680 C   0  0  0  0  0  0  0  0  0  0  0  0
   10.4090    4.1370  -60.9740 C   0  0  0  0  0  0  0  0  0  0  0  0
   11.5280    4.9710  -61.0910 C   0  0  0  0  0  0  0  0  0  0  0  0
   11.7240    6.0300  -60.1960 C   0  0  0  0  0  0  0  0  0  0  0  0
   12.9170    6.9440  -60.3330 C   0  0  0  0  0  0  0  0  0  0  0  0
   12.8110    7.8100  -61.3790 F   0  0  0  0  0  0  0  0  0  0  0  0
   14.0750    6.2560  -60.5310 F   0  0  0  0  0  0  0  0  0  0  0  0
   13.1260    7.7170  -59.2310 F   0  0  0  0  0  0  0  0  0  0  0  0
   10.7700    6.2440  -59.1940 C   0  0  0  0  0  0  0  0  0  0  0  0
    9.6530    5.4060  -59.0840 C   0  0  0  0  0  0  0  0  0  0  0  0
    8.0700    2.8100  -58.6800 N   0  0  0  0  0  0  0  0  0  0  0  0
    6.3540    0.8870  -55.0250 C   0  0  2  0  0  0  0  0  0  0  0  0
    7.8060    0.5400  -54.6800 C   0  0  0  0  0  0  0  0  0  0  0  0
    7.9050   -0.3310  -53.4240 C   0  0  0  0  0  0  0  0  0  0  0  0
    6.6760   -1.2320  -53.1890 C   0  0  2  0  0  0  0  0  0  0  0  0
    7.0550   -2.3770  -52.2740 C   0  0  0  0  0  0  0  0  0  0  0  0
    8.2870   -2.6950  -51.8470 C   0  0  0  0  0  0  0  0  0  0  0  0
    8.5740   -3.8230  -50.9490 C   0  0  0  0  0  0  0  0  0  0  0  0
    9.7230   -3.7760  -50.1480 C   0  0  0  0  0  0  0  0  0  0  0  0
   10.0440   -4.8410  -49.3020 C   0  0  0  0  0  0  0  0  0  0  0  0
    9.2240   -5.9660  -49.2630 C   0  0  0  0  0  0  0  0  0  0  0  0
    9.6200   -7.2790  -48.2230 Cl  0  0  0  0  0  0  0  0  0  0  0  0
    8.0890   -6.0360  -50.0660 C   0  0  0  0  0  0  0  0  0  0  0  0
    7.7680   -4.9700  -50.9110 C   0  0  0  0  0  0  0  0  0  0  0  0
    6.0360   -1.6210  -54.5280 C   0  0  0  0  0  0  0  0  0  0  0  0
    5.5490   -0.3940  -55.3080 C   0  0  0  0  0  0  0  0  0  0  0  0
    7.3130    0.4810  -57.3200 H   0  0  0  0  0  0  0  0  0  0  0  0
    5.2298    1.1791  -59.5223 H   0  0  0  0  0  0  0  0  0  0  0  0
   10.2810    3.3086  -61.6863 H   0  0  0  0  0  0  0  0  0  0  0  0
   12.2594    4.7926  -61.8930 H   0  0  0  0  0  0  0  0  0  0  0  0
   10.8987    7.0771  -58.4873 H   0  0  0  0  0  0  0  0  0  0  0  0
    8.9200    5.5927  -58.2853 H   0  0  0  0  0  0  0  0  0  0  0  0
    5.8936    1.3824  -54.1575 H   0  0  0  0  0  0  0  0  0  0  0  0
    8.2516   -0.0043  -55.5257 H   0  0  0  0  0  0  0  0  0  0  0  0
    8.3427    1.4801  -54.4847 H   0  0  0  0  0  0  0  0  0  0  0  0
    8.7927   -0.9738  -53.5176 H   0  0  0  0  0  0  0  0  0  0  0  0
    7.9674    0.3536  -52.5653 H   0  0  0  0  0  0  0  0  0  0  0  0
    5.8783   -0.6934  -52.6565 H   0  0  0  0  0  0  0  0  0  0  0  0
    6.2326   -3.0168  -51.9214 H   0  0  0  0  0  0  0  0  0  0  0  0
    9.1300   -2.0764  -52.1884 H   0  0  0  0  0  0  0  0  0  0  0  0
   10.3780   -2.8930  -50.1855 H   0  0  0  0  0  0  0  0  0  0  0  0
   10.9419   -4.7908  -48.6686 H   0  0  0  0  0  0  0  0  0  0  0  0
    7.4463   -6.9282  -50.0355 H   0  0  0  0  0  0  0  0  0  0  0  0
    6.8758   -5.0312  -51.5515 H   0  0  0  0  0  0  0  0  0  0  0  0
    6.7806   -2.1560  -55.1357 H   0  0  0  0  0  0  0  0  0  0  0  0
    5.1645   -2.2579  -54.3165 H   0  0  0  0  0  0  0  0  0  0  0  0
    5.6198   -0.6168  -56.3829 H   0  0  0  0  0  0  0  0  0  0  0  0
    4.5162   -0.1994  -54.9832 H   0  0  0  0  0  0  0  0  0  0  0  0
  1  2  2  0
  2  3  1  0
  3  4  1  0
  4  5  2  0
  5  6  1  0
  6  7  1  0
  7  8  1  0
  7  9  1  0
  7 10  1  0
  6 11  2  0
 11 12  1  0
 12 13  1  0
 13 14  1  0
 14 15  2  0
 15 16  1  0
 16 17  1  0
 17 18  1  0
 17 19  1  0
 17 20  1  0
 16 21  2  0
 21 22  1  0
 12 23  2  0
  2 24  1  0
 24 25  1  0
 25 26  1  0
 26 27  1  0
 27 28  1  0
 28 29  2  0
 29 30  1  0
 30 31  1  0
 31 32  2  0
 32 33  1  0
 33 34  1  0
 33 35  2  0
 35 36  1  0
 27 37  1  0
 37 38  1  0
 23  4  1  0
 38 24  1  0
 22 13  2  0
 36 30  2  0
  3 39  1  0
  5 40  1  0
 14 41  1  0
 15 42  1  0
 21 43  1  0
 22 44  1  0
 24 45  1  6
 25 46  1  0
 25 47  1  0
 26 48  1  0
 26 49  1  0
 27 50  1  6
 28 51  1  0
 29 52  1  0
 31 53  1  0
 32 54  1  0
 35 55  1  0
 36 56  1  0
 37 57  1  0
 37 58  1  0
 38 59  1  0
 38 60  1  0
M  END
>  <meeko>  (236) 
{"is_sidechain": false}

$$$$

     RDKit          3D

 52 54  0  0  0  0  0  0  0  0999 V2000
   12.2160   -7.3390  -57.1940 C   0  0  0  0  0  0  0  0  0  0  0  0
   12.7030   -5.9030  -56.8970 C   0  0  0  0  0  0  0  0  0  0  0  0
   12.9390   -5.2100  -58.2560 C   0  0  0  0  0  0  0  0  0  0  0  0
   14.0490   -6.0230  -56.1480 C   0  0  0  0  0  0  0  0  0  0  0  0
   11.7170   -5.0730  -56.0580 C   0  0  0  0  0  0  0  0  0  0  0  0
   10.3870   -4.8530  -56.4460 C   0  0  0  0  0  0  0  0  0  0  0  0
    9.5130   -4.0910  -55.6570 C   0  0  0  0  0  0  0  0  0  0  0  0
    9.9210   -3.5120  -54.4440 C   0  0  0  0  0  0  0  0  0  0  0  0
    8.9960   -2.7100  -53.6180 C   0  0  0  0  0  0  0  0  0  0  0  0
    8.3440   -1.6910  -54.2040 N   0  0  0  0  0  0  0  0  0  0  0  0
    7.5060   -0.9700  -53.4410 C   0  0  0  0  0  0  0  0  0  0  0  0
    6.8780    0.0630  -54.1430 N   0  0  0  0  0  0  0  0  0  0  0  0
    7.2790    0.6740  -55.3090 C   0  0  0  0  0  0  0  0  0  0  0  0
    8.2950    0.3830  -55.9270 O   0  0  0  0  0  0  0  0  0  0  0  0
    6.3910    1.6530  -55.6900 N   0  0  0  0  0  0  0  0  0  0  0  0
    6.4460    2.4910  -56.8070 C   0  0  0  0  0  0  0  0  0  0  0  0
    7.4230    3.4370  -57.0220 C   0  0  0  0  0  0  0  0  0  0  0  0
    7.3270    4.1840  -58.1860 C   0  0  0  0  0  0  0  0  0  0  0  0
    8.3860    5.2400  -58.4620 C   0  0  0  0  0  0  0  0  0  0  0  0
    9.0030    5.6680  -57.3220 F   0  0  0  0  0  0  0  0  0  0  0  0
    7.9110    6.3620  -59.0710 F   0  0  0  0  0  0  0  0  0  0  0  0
    9.3850    4.7750  -59.2670 F   0  0  0  0  0  0  0  0  0  0  0  0
    6.3160    3.9960  -59.0730 N   0  0  0  0  0  0  0  0  0  0  0  0
    5.4210    3.0520  -58.7660 C   0  0  0  0  0  0  0  0  0  0  0  0
    5.4360    2.2850  -57.6700 N   0  0  0  0  0  0  0  0  0  0  0  0
    7.3020   -1.2370  -52.1080 C   0  0  0  0  0  0  0  0  0  0  0  0
    8.0080   -2.2990  -51.5720 C   0  0  0  0  0  0  0  0  0  0  0  0
    7.8170   -2.6350  -50.1030 C   0  0  0  0  0  0  0  0  0  0  0  0
    8.9430   -3.1580  -49.5370 F   0  0  0  0  0  0  0  0  0  0  0  0
    6.8390   -3.5660  -49.9050 F   0  0  0  0  0  0  0  0  0  0  0  0
    7.4740   -1.5680  -49.3270 F   0  0  0  0  0  0  0  0  0  0  0  0
    8.8590   -3.0410  -52.3230 N   0  0  0  0  0  0  0  0  0  0  0  0
   11.2520   -3.7340  -54.0590 C   0  0  0  0  0  0  0  0  0  0  0  0
   12.1280   -4.4950  -54.8460 C   0  0  0  0  0  0  0  0  0  0  0  0
   12.0364   -7.8685  -56.2467 H   0  0  0  0  0  0  0  0  0  0  0  0
   11.2819   -7.2969  -57.7734 H   0  0  0  0  0  0  0  0  0  0  0  0
   12.9830   -7.8738  -57.7734 H   0  0  0  0  0  0  0  0  0  0  0  0
   13.2894   -4.1811  -58.0870 H   0  0  0  0  0  0  0  0  0  0  0  0
   13.6981   -5.7671  -58.8247 H   0  0  0  0  0  0  0  0  0  0  0  0
   11.9977   -5.1880  -58.8247 H   0  0  0  0  0  0  0  0  0  0  0  0
   13.8677   -6.0068  -55.0632 H   0  0  0  0  0  0  0  0  0  0  0  0
   14.5391   -6.9684  -56.4238 H   0  0  0  0  0  0  0  0  0  0  0  0
   14.6986   -5.1792  -56.4238 H   0  0  0  0  0  0  0  0  0  0  0  0
   10.0220   -5.2871  -57.3885 H   0  0  0  0  0  0  0  0  0  0  0  0
    8.4778   -3.9424  -55.9980 H   0  0  0  0  0  0  0  0  0  0  0  0
    6.0250    0.3650  -53.6980 H   0  0  0  0  0  0  0  0  0  0  0  0
    5.5760    1.8290  -55.1210 H   0  0  0  0  0  0  0  0  0  0  0  0
    8.2415    3.5928  -56.3038 H   0  0  0  0  0  0  0  0  0  0  0  0
    4.5984    2.8913  -59.4783 H   0  0  0  0  0  0  0  0  0  0  0  0
    6.6117   -0.6360  -51.4979 H   0  0  0  0  0  0  0  0  0  0  0  0
   11.6172   -3.3002  -53.1164 H   0  0  0  0  0  0  0  0  0  0  0  0
   13.1634   -4.6430  -54.5054 H   0  0  0  0  0  0  0  0  0  0  0  0
  1  2  1  0
  2  3  1  0
  2  4  1  0
  2  5  1  0
  5  6  1  0
  6  7  2  0
  7  8  1  0
  8  9  1  0
  9 10  2  0
 10 11  1  0
 11 12  1  0
 12 13  1  0
 13 14  2  0
 13 15  1  0
 15 16  1  0
 16 17  2  0
 17 18  1  0
 18 19  1  0
 19 20  1  0
 19 21  1  0
 19 22  1  0
 18 23  2  0
 23 24  1  0
 24 25  2  0
 11 26  2  0
 26 27  1  0
 27 28  1  0
 28 29  1  0
 28 30  1  0
 28 31  1  0
 27 32  2  0
  8 33  2  0
 33 34  1  0
 34  5  2  0
 32  9  1  0
 25 16  1  0
  1 35  1  0
  1 36  1  0
  1 37  1  0
  3 38  1  0
  3 39  1  0
  3 40  1  0
  4 41  1  0
  4 42  1  0
  4 43  1  0
  6 44  1  0
  7 45  1  0
 12 46  1  0
 15 47  1  0
 17 48  1  0
 24 49  1  0
 26 50  1  0
 33 51  1  0
 34 52  1  0
M  END
>  <meeko>  (237) 
{"is_sidechain": false}

$$$$

     RDKit          3D

 90 96  0  0  0  0  0  0  0  0999 V2000
    5.9690   -4.0920  -50.5930 C   0  0  0  0  0  0  0  0  0  0  0  0
    7.4430   -3.9300  -50.2550 C   0  0  0  0  0  0  0  0  0  0  0  0
    8.2660   -3.6010  -51.4760 C   0  0  0  0  0  0  0  0  0  0  0  0
    9.5120   -2.9740  -51.3440 C   0  0  0  0  0  0  0  0  0  0  0  0
   10.2760   -2.6730  -52.4740 C   0  0  0  0  0  0  0  0  0  0  0  0
    9.8020   -2.9920  -53.7500 C   0  0  0  0  0  0  0  0  0  0  0  0
   10.5870   -2.6570  -54.9260 C   0  0  0  0  0  0  0  0  0  0  0  0
   10.6880   -1.4930  -55.6750 C   0  0  0  0  0  0  0  0  0  0  0  0
   10.0540   -0.1380  -55.5550 C   0  0  2  0  0  0  0  0  0  0  0  0
    8.5810   -0.2950  -55.1070 C   0  0  0  0  0  0  0  0  0  0  0  0
    7.8340    1.0030  -55.0080 C   0  0  2  0  0  0  0  0  0  0  0  0
    6.3170    1.0940  -54.8460 C   0  0  2  0  0  0  0  0  0  0  0  0
    5.4340   -0.1020  -54.7600 C   0  0  0  0  0  0  0  0  0  0  0  0
    6.9770    1.5300  -56.0790 N   0  0  2  0  0  0  0  0  0  0  0  0
    6.8030    0.8540  -57.3740 C   0  0  0  0  0  0  0  0  0  0  0  0
    5.7060    1.4970  -58.1830 C   0  0  0  0  0  0  0  0  0  0  0  0
    4.7090    2.2550  -57.5500 C   0  0  0  0  0  0  0  0  0  0  0  0
    3.6710    2.8200  -58.2920 C   0  0  0  0  0  0  0  0  0  0  0  0
    3.6130    2.6320  -59.6730 C   0  0  0  0  0  0  0  0  0  0  0  0
    4.5970    1.8820  -60.3300 C   0  0  0  0  0  0  0  0  0  0  0  0
    4.5320    1.6550  -61.8240 C   0  0  0  0  0  0  0  0  0  0  0  0
    5.6700    2.0050  -62.4800 F   0  0  0  0  0  0  0  0  0  0  0  0
    3.5230    2.3630  -62.3980 F   0  0  0  0  0  0  0  0  0  0  0  0
    4.2980    0.3510  -62.1360 F   0  0  0  0  0  0  0  0  0  0  0  0
    5.6370    1.3120  -59.5730 C   0  0  0  0  0  0  0  0  0  0  0  0
   10.2110    0.6280  -56.7830 N   0  0  0  0  0  0  0  0  0  0  0  0
   10.4430    1.9850  -56.7670 C   0  0  0  0  0  0  0  0  0  0  0  0
   10.3870    2.6290  -55.7220 O   0  0  0  0  0  0  0  0  0  0  0  0
   10.7890    2.5890  -58.1300 C   0  0  2  0  0  0  0  0  0  0  0  0
   11.5050    3.9590  -58.0170 C   0  0  1  0  0  0  0  0  0  0  0  0
   12.0080    4.3580  -59.4180 C   0  0  0  0  0  0  0  0  0  0  0  0
   10.8210    4.4830  -60.3930 C   0  0  2  0  0  0  0  0  0  0  0  0
    9.8510    5.5580  -59.8750 C   0  0  0  0  0  0  0  0  0  0  0  0
    9.3380    5.1730  -58.4770 C   0  0  2  0  0  0  0  0  0  0  0  0
   10.5340    5.0510  -57.5210 C   0  0  0  0  0  0  0  0  0  0  0  0
    8.6120    3.8200  -58.5540 C   0  0  0  0  0  0  0  0  0  0  0  0
    9.5680    2.7300  -59.0720 C   0  0  1  0  0  0  0  0  0  0  0  0
   10.0770    3.1380  -60.4690 C   0  0  0  0  0  0  0  0  0  0  0  0
   11.6090   -1.6790  -56.6760 N   0  0  0  0  0  0  0  0  0  0  0  0
   12.0810   -2.9100  -56.5850 N   0  0  0  0  0  0  0  0  0  0  0  0
   11.4630   -3.5130  -55.5540 N   0  0  0  0  0  0  0  0  0  0  0  0
   11.8120   -4.8790  -55.2190 C   0  0  0  0  0  0  0  0  0  0  0  0
   12.7790   -5.4890  -56.2170 C   0  0  0  0  0  0  0  0  0  0  0  0
    8.5550   -3.6080  -53.8860 C   0  0  0  0  0  0  0  0  0  0  0  0
    7.7910   -3.9100  -52.7560 C   0  0  0  0  0  0  0  0  0  0  0  0
    5.3845   -4.1562  -49.6633 H   0  0  0  0  0  0  0  0  0  0  0  0
    5.6301   -3.2257  -51.1801 H   0  0  0  0  0  0  0  0  0  0  0  0
    5.8263   -5.0112  -51.1801 H   0  0  0  0  0  0  0  0  0  0  0  0
    7.5528   -3.1170  -49.5222 H   0  0  0  0  0  0  0  0  0  0  0  0
    7.8062   -4.8840  -49.8453 H   0  0  0  0  0  0  0  0  0  0  0  0
    9.8911   -2.7171  -50.3439 H   0  0  0  0  0  0  0  0  0  0  0  0
   11.2542   -2.1832  -52.3595 H   0  0  0  0  0  0  0  0  0  0  0  0
   10.5697    0.4470  -54.7793 H   0  0  0  0  0  0  0  0  0  0  0  0
    8.0641   -0.9374  -55.8351 H   0  0  0  0  0  0  0  0  0  0  0  0
    8.5990   -0.7309  -54.0972 H   0  0  0  0  0  0  0  0  0  0  0  0
    8.7092    1.3656  -54.4488 H   0  0  0  0  0  0  0  0  0  0  0  0
    5.6265    1.5530  -54.1232 H   0  0  0  0  0  0  0  0  0  0  0  0
    5.2522   -0.3483  -53.7035 H   0  0  0  0  0  0  0  0  0  0  0  0
    4.4762    0.1129  -55.2565 H   0  0  0  0  0  0  0  0  0  0  0  0
    5.9213   -0.9540  -55.2565 H   0  0  0  0  0  0  0  0  0  0  0  0
    7.0140    2.5570  -56.1470 H   0  0  0  0  0  0  0  0  0  0  0  0
    7.7455    0.9119  -57.9382 H   0  0  0  0  0  0  0  0  0  0  0  0
    6.5270   -0.1939  -57.1849 H   0  0  0  0  0  0  0  0  0  0  0  0
    4.7460    2.4049  -56.4609 H   0  0  0  0  0  0  0  0  0  0  0  0
    2.8963    3.4153  -57.7865 H   0  0  0  0  0  0  0  0  0  0  0  0
    2.7886    3.0759  -60.2503 H   0  0  0  0  0  0  0  0  0  0  0  0
    6.4082    0.7120  -60.0782 H   0  0  0  0  0  0  0  0  0  0  0  0
   10.4960    0.1310  -57.6210 H   0  0  0  0  0  0  0  0  0  0  0  0
   11.4825    1.8607  -58.5758 H   0  0  0  0  0  0  0  0  0  0  0  0
   12.3347    3.8693  -57.3004 H   0  0  0  0  0  0  0  0  0  0  0  0
   12.5302    5.3241  -59.3552 H   0  0  0  0  0  0  0  0  0  0  0  0
   12.6960    3.5830  -59.7870 H   0  0  0  0  0  0  0  0  0  0  0  0
   11.1938    4.7604  -61.3900 H   0  0  0  0  0  0  0  0  0  0  0  0
   10.3742    6.5239  -59.8179 H   0  0  0  0  0  0  0  0  0  0  0  0
    8.9973    5.6367  -60.5642 H   0  0  0  0  0  0  0  0  0  0  0  0
    8.6429    5.9432  -58.1114 H   0  0  0  0  0  0  0  0  0  0  0  0
   11.0631    6.0144  -57.4765 H   0  0  0  0  0  0  0  0  0  0  0  0
   10.1670    4.7769  -56.5209 H   0  0  0  0  0  0  0  0  0  0  0  0
    8.2542    3.5425  -57.5515 H   0  0  0  0  0  0  0  0  0  0  0  0
    7.7616    3.9088  -59.2461 H   0  0  0  0  0  0  0  0  0  0  0  0
    9.0276    1.7728  -59.1140 H   0  0  0  0  0  0  0  0  0  0  0  0
   10.7625    2.3646  -60.8459 H   0  0  0  0  0  0  0  0  0  0  0  0
    9.2174    3.2417  -61.1475 H   0  0  0  0  0  0  0  0  0  0  0  0
   12.2781   -4.8906  -54.2227 H   0  0  0  0  0  0  0  0  0  0  0  0
   10.8884   -5.4761  -55.2381 H   0  0  0  0  0  0  0  0  0  0  0  0
   13.5894   -6.0002  -55.6768 H   0  0  0  0  0  0  0  0  0  0  0  0
   12.2450   -6.2141  -56.8488 H   0  0  0  0  0  0  0  0  0  0  0  0
   13.2034   -4.6948  -56.8488 H   0  0  0  0  0  0  0  0  0  0  0  0
    8.1733   -3.8562  -54.8873 H   0  0  0  0  0  0  0  0  0  0  0  0
    6.8100   -4.3937  -52.8729 H   0  0  0  0  0  0  0  0  0  0  0  0
  1  2  1  0
  2  3  1  0
  3  4  1  0
  4  5  2  0
  5  6  1  0
  6  7  1  0
  7  8  2  0
  8  9  1  0
  9 10  1  0
 10 11  1  0
 11 12  1  0
 12 13  1  0
 12 14  1  0
 14 15  1  0
 15 16  1  0
 16 17  2  0
 17 18  1  0
 18 19  2  0
 19 20  1  0
 20 21  1  0
 21 22  1  0
 21 23  1  0
 21 24  1  0
 20 25  2  0
  9 26  1  0
 26 27  1  0
 27 28  2  0
 27 29  1  0
 29 30  1  0
 30 31  1  0
 31 32  1  0
 32 33  1  0
 33 34  1  0
 34 35  1  0
 34 36  1  0
 36 37  1  0
 37 38  1  0
  8 39  1  0
 39 40  2  0
 40 41  1  0
 41 42  1  0
 42 43  1  0
  6 44  2  0
 44 45  1  0
 45  3  2  0
 41  7  1  0
 14 11  1  0
 25 16  1  0
 37 29  1  0
 35 30  1  0
 38 32  1  0
  1 46  1  0
  1 47  1  0
  1 48  1  0
  2 49  1  0
  2 50  1  0
  4 51  1  0
  5 52  1  0
  9 53  1  1
 10 54  1  0
 10 55  1  0
 11 56  1  1
 12 57  1  1
 13 58  1  0
 13 59  1  0
 13 60  1  0
 14 61  1  6
 15 62  1  0
 15 63  1  0
 17 64  1  0
 18 65  1  0
 19 66  1  0
 25 67  1  0
 26 68  1  0
 29 69  1  1
 30 70  1  6
 31 71  1  0
 31 72  1  0
 32 73  1  1
 33 74  1  0
 33 75  1  0
 34 76  1  6
 35 77  1  0
 35 78  1  0
 36 79  1  0
 36 80  1  0
 37 81  1  1
 38 82  1  0
 38 83  1  0
 42 84  1  0
 42 85  1  0
 43 86  1  0
 43 87  1  0
 43 88  1  0
 44 89  1  0
 45 90  1  0
M  CHG  1  14   1
M  END
>  <meeko>  (238) 
{"is_sidechain": false}

$$$$

     RDKit          3D

 90 96  0  0  0  0  0  0  0  0999 V2000
    3.6930    2.3470  -59.6960 C   0  0  0  0  0  0  0  0  0  0  0  0
    4.0920    2.3750  -58.2300 C   0  0  0  0  0  0  0  0  0  0  0  0
    5.5900    2.3720  -58.0570 C   0  0  0  0  0  0  0  0  0  0  0  0
    6.4050    1.6630  -58.9470 C   0  0  0  0  0  0  0  0  0  0  0  0
    7.7930    1.6760  -58.7980 C   0  0  0  0  0  0  0  0  0  0  0  0
    8.3860    2.3990  -57.7580 C   0  0  0  0  0  0  0  0  0  0  0  0
    9.8340    2.4630  -57.6390 C   0  0  0  0  0  0  0  0  0  0  0  0
   10.7120    1.7200  -56.8630 C   0  0  0  0  0  0  0  0  0  0  0  0
   10.4350    0.5940  -55.9060 C   0  0  1  0  0  0  0  0  0  0  0  0
    8.9910    0.6570  -55.3470 C   0  0  0  0  0  0  0  0  0  0  0  0
    8.2700   -0.6660  -55.4140 C   0  0  2  0  0  0  0  0  0  0  0  0
    6.8090   -0.8090  -54.9810 C   0  0  2  0  0  0  0  0  0  0  0  0
    5.9930    0.3340  -54.4870 C   0  0  0  0  0  0  0  0  0  0  0  0
    7.8780   -1.4320  -54.2180 N   0  0  2  0  0  0  0  0  0  0  0  0
    8.3000   -1.0240  -52.8680 C   0  0  0  0  0  0  0  0  0  0  0  0
    8.1510   -2.1560  -51.8840 C   0  0  0  0  0  0  0  0  0  0  0  0
    9.2740   -2.6650  -51.2150 C   0  0  0  0  0  0  0  0  0  0  0  0
    9.1460   -3.7320  -50.3260 C   0  0  0  0  0  0  0  0  0  0  0  0
    7.8990   -4.3120  -50.1010 C   0  0  0  0  0  0  0  0  0  0  0  0
    6.7620   -3.8320  -50.7660 C   0  0  0  0  0  0  0  0  0  0  0  0
    5.4020   -4.4430  -50.5130 C   0  0  0  0  0  0  0  0  0  0  0  0
    4.8170   -4.8810  -51.6640 F   0  0  0  0  0  0  0  0  0  0  0  0
    5.4360   -5.5160  -49.6780 F   0  0  0  0  0  0  0  0  0  0  0  0
    4.5320   -3.5530  -49.9660 F   0  0  0  0  0  0  0  0  0  0  0  0
    6.8990   -2.7480  -51.6510 C   0  0  0  0  0  0  0  0  0  0  0  0
   10.8110   -0.6570  -56.5670 N   0  0  0  0  0  0  0  0  0  0  0  0
   11.4870   -1.6820  -55.9420 C   0  0  0  0  0  0  0  0  0  0  0  0
   11.4910   -1.8060  -54.7200 O   0  0  0  0  0  0  0  0  0  0  0  0
   12.1250   -2.6950  -56.8990 C   0  0  2  0  0  0  0  0  0  0  0  0
   11.0790   -3.5150  -57.6960 C   0  0  1  0  0  0  0  0  0  0  0  0
   11.8210   -4.3230  -58.7800 C   0  0  0  0  0  0  0  0  0  0  0  0
   12.8310   -5.2860  -58.1280 C   0  0  2  0  0  0  0  0  0  0  0  0
   12.0800   -6.2540  -57.1990 C   0  0  0  0  0  0  0  0  0  0  0  0
   11.3340   -5.4650  -56.1100 C   0  0  2  0  0  0  0  0  0  0  0  0
   10.3350   -4.5090  -56.7790 C   0  0  0  0  0  0  0  0  0  0  0  0
   12.3440   -4.6460  -55.2900 C   0  0  0  0  0  0  0  0  0  0  0  0
   13.1090   -3.6710  -56.2050 C   0  0  1  0  0  0  0  0  0  0  0  0
   13.8420   -4.4800  -57.2940 C   0  0  0  0  0  0  0  0  0  0  0  0
   11.9890    2.1820  -57.0530 N   0  0  0  0  0  0  0  0  0  0  0  0
   11.9470    3.1660  -57.9350 N   0  0  0  0  0  0  0  0  0  0  0  0
   10.6620    3.3350  -58.3070 N   0  0  0  0  0  0  0  0  0  0  0  0
   10.3390    4.3090  -59.3290 C   0  0  0  0  0  0  0  0  0  0  0  0
   10.1440    3.6750  -60.6950 C   0  0  0  0  0  0  0  0  0  0  0  0
    7.5750    3.1120  -56.8700 C   0  0  0  0  0  0  0  0  0  0  0  0
    6.1860    3.0990  -57.0190 C   0  0  0  0  0  0  0  0  0  0  0  0
    2.5987    2.2702  -59.7768 H   0  0  0  0  0  0  0  0  0  0  0  0
    4.0329    3.2712  -60.1862 H   0  0  0  0  0  0  0  0  0  0  0  0
    4.1586    1.4793  -60.1862 H   0  0  0  0  0  0  0  0  0  0  0  0
    3.6819    3.2845  -57.7667 H   0  0  0  0  0  0  0  0  0  0  0  0
    3.6905    1.4708  -57.7491 H   0  0  0  0  0  0  0  0  0  0  0  0
    5.9489    1.0919  -59.7691 H   0  0  0  0  0  0  0  0  0  0  0  0
    8.4239    1.1144  -59.5026 H   0  0  0  0  0  0  0  0  0  0  0  0
   11.0486    0.6752  -54.9966 H   0  0  0  0  0  0  0  0  0  0  0  0
    9.0367    0.9775  -54.2957 H   0  0  0  0  0  0  0  0  0  0  0  0
    8.4294    1.3675  -55.9713 H   0  0  0  0  0  0  0  0  0  0  0  0
    8.8597   -0.8756  -56.3186 H   0  0  0  0  0  0  0  0  0  0  0  0
    5.8780   -1.1617  -55.4488 H   0  0  0  0  0  0  0  0  0  0  0  0
    5.9920    0.3354  -53.3870 H   0  0  0  0  0  0  0  0  0  0  0  0
    6.4230    1.2774  -54.8545 H   0  0  0  0  0  0  0  0  0  0  0  0
    4.9611    0.2337  -54.8545 H   0  0  0  0  0  0  0  0  0  0  0  0
    7.9580   -2.4450  -54.3750 H   0  0  0  0  0  0  0  0  0  0  0  0
    9.3548   -0.7135  -52.9005 H   0  0  0  0  0  0  0  0  0  0  0  0
    7.6601   -0.1915  -52.5402 H   0  0  0  0  0  0  0  0  0  0  0  0
   10.2636   -2.2190  -51.3930 H   0  0  0  0  0  0  0  0  0  0  0  0
   10.0324   -4.1171  -49.8006 H   0  0  0  0  0  0  0  0  0  0  0  0
    7.8062   -5.1520  -49.3969 H   0  0  0  0  0  0  0  0  0  0  0  0
    6.0110   -2.3573  -52.1694 H   0  0  0  0  0  0  0  0  0  0  0  0
   10.9560   -0.5810  -57.5690 H   0  0  0  0  0  0  0  0  0  0  0  0
   12.6981   -2.0698  -57.5995 H   0  0  0  0  0  0  0  0  0  0  0  0
   10.3473   -2.8216  -58.1362 H   0  0  0  0  0  0  0  0  0  0  0  0
   11.0913   -4.9028  -59.3642 H   0  0  0  0  0  0  0  0  0  0  0  0
   12.3620   -3.6276  -59.4386 H   0  0  0  0  0  0  0  0  0  0  0  0
   13.3590   -5.8491  -58.9117 H   0  0  0  0  0  0  0  0  0  0  0  0
   11.3558   -6.8360  -57.7879 H   0  0  0  0  0  0  0  0  0  0  0  0
   12.8036   -6.9317  -56.7224 H   0  0  0  0  0  0  0  0  0  0  0  0
   10.8001   -6.1621  -55.4474 H   0  0  0  0  0  0  0  0  0  0  0  0
    9.6207   -5.0918  -57.3791 H   0  0  0  0  0  0  0  0  0  0  0  0
    9.8003   -3.9464  -55.9996 H   0  0  0  0  0  0  0  0  0  0  0  0
   11.8069   -4.0744  -54.5188 H   0  0  0  0  0  0  0  0  0  0  0  0
   13.0623   -5.3324  -54.8179 H   0  0  0  0  0  0  0  0  0  0  0  0
   13.8226   -3.0968  -55.5959 H   0  0  0  0  0  0  0  0  0  0  0  0
   14.3886   -3.7897  -57.9534 H   0  0  0  0  0  0  0  0  0  0  0  0
   14.5453   -5.1753  -56.8124 H   0  0  0  0  0  0  0  0  0  0  0  0
    9.4104    4.8251  -59.0437 H   0  0  0  0  0  0  0  0  0  0  0  0
   11.1842    5.0091  -59.4028 H   0  0  0  0  0  0  0  0  0  0  0  0
    9.8227    2.6302  -60.5718 H   0  0  0  0  0  0  0  0  0  0  0  0
    9.3756    4.2318  -61.2513 H   0  0  0  0  0  0  0  0  0  0  0  0
   11.0925    3.7037  -61.2513 H   0  0  0  0  0  0  0  0  0  0  0  0
    8.0325    3.6857  -56.0505 H   0  0  0  0  0  0  0  0  0  0  0  0
    5.5560    3.6638  -56.3160 H   0  0  0  0  0  0  0  0  0  0  0  0
  1  2  1  0
  2  3  1  0
  3  4  1  0
  4  5  2  0
  5  6  1  0
  6  7  1  0
  7  8  2  0
  8  9  1  0
  9 10  1  0
 10 11  1  0
 11 12  1  0
 12 13  1  0
 12 14  1  0
 14 15  1  0
 15 16  1  0
 16 17  2  0
 17 18  1  0
 18 19  2  0
 19 20  1  0
 20 21  1  0
 21 22  1  0
 21 23  1  0
 21 24  1  0
 20 25  2  0
  9 26  1  0
 26 27  1  0
 27 28  2  0
 27 29  1  0
 29 30  1  0
 30 31  1  0
 31 32  1  0
 32 33  1  0
 33 34  1  0
 34 35  1  0
 34 36  1  0
 36 37  1  0
 37 38  1  0
  8 39  1  0
 39 40  2  0
 40 41  1  0
 41 42  1  0
 42 43  1  0
  6 44  2  0
 44 45  1  0
 45  3  2  0
 41  7  1  0
 14 11  1  0
 25 16  1  0
 37 29  1  0
 35 30  1  0
 38 32  1  0
  1 46  1  0
  1 47  1  0
  1 48  1  0
  2 49  1  0
  2 50  1  0
  4 51  1  0
  5 52  1  0
  9 53  1  1
 10 54  1  0
 10 55  1  0
 11 56  1  6
 12 57  1  6
 13 58  1  0
 13 59  1  0
 13 60  1  0
 14 61  1  6
 15 62  1  0
 15 63  1  0
 17 64  1  0
 18 65  1  0
 19 66  1  0
 25 67  1  0
 26 68  1  0
 29 69  1  1
 30 70  1  1
 31 71  1  0
 31 72  1  0
 32 73  1  1
 33 74  1  0
 33 75  1  0
 34 76  1  6
 35 77  1  0
 35 78  1  0
 36 79  1  0
 36 80  1  0
 37 81  1  6
 38 82  1  0
 38 83  1  0
 42 84  1  0
 42 85  1  0
 43 86  1  0
 43 87  1  0
 43 88  1  0
 44 89  1  0
 45 90  1  0
M  CHG  1  14   1
M  END
>  <meeko>  (239) 
{"is_sidechain": false}

$$$$

     RDKit          3D

 90 96  0  0  0  0  0  0  0  0999 V2000
    3.9780    1.7640  -60.8510 C   0  0  0  0  0  0  0  0  0  0  0  0
    4.2340    2.4260  -59.5050 C   0  0  0  0  0  0  0  0  0  0  0  0
    5.7000    2.4320  -59.1510 C   0  0  0  0  0  0  0  0  0  0  0  0
    6.5590    1.4520  -59.6670 C   0  0  0  0  0  0  0  0  0  0  0  0
    7.9080    1.4330  -59.3090 C   0  0  0  0  0  0  0  0  0  0  0  0
    8.4160    2.3910  -58.4270 C   0  0  0  0  0  0  0  0  0  0  0  0
    9.8330    2.4200  -58.1140 C   0  0  0  0  0  0  0  0  0  0  0  0
   10.5590    1.6610  -57.2100 C   0  0  0  0  0  0  0  0  0  0  0  0
   10.0700    0.5810  -56.3040 C   0  0  2  0  0  0  0  0  0  0  0  0
    9.7120    1.1490  -54.9160 C   0  0  0  0  0  0  0  0  0  0  0  0
    8.2460    1.0320  -54.6210 C   0  0  1  0  0  0  0  0  0  0  0  0
    7.2940    0.3710  -55.6100 C   0  0  2  0  0  0  0  0  0  0  0  0
    5.9550    0.9670  -55.8690 C   0  0  0  0  0  0  0  0  0  0  0  0
    7.6560   -0.2880  -54.3610 N   0  0  2  0  0  0  0  0  0  0  0  0
    6.7680   -0.4140  -53.1860 C   0  0  0  0  0  0  0  0  0  0  0  0
    7.1640   -1.5860  -52.3260 C   0  0  0  0  0  0  0  0  0  0  0  0
    8.5170   -1.8440  -52.0580 C   0  0  0  0  0  0  0  0  0  0  0  0
    8.8900   -2.9430  -51.2830 C   0  0  0  0  0  0  0  0  0  0  0  0
    7.9170   -3.8020  -50.7720 C   0  0  0  0  0  0  0  0  0  0  0  0
    6.5590   -3.5730  -51.0310 C   0  0  0  0  0  0  0  0  0  0  0  0
    5.4980   -4.4890  -50.4650 C   0  0  0  0  0  0  0  0  0  0  0  0
    4.5770   -3.8160  -49.7260 F   0  0  0  0  0  0  0  0  0  0  0  0
    4.8000   -5.1270  -51.4460 F   0  0  0  0  0  0  0  0  0  0  0  0
    5.9980   -5.4670  -49.6640 F   0  0  0  0  0  0  0  0  0  0  0  0
    6.1940   -2.4550  -51.8030 C   0  0  0  0  0  0  0  0  0  0  0  0
   11.0680   -0.4730  -56.2410 N   0  0  0  0  0  0  0  0  0  0  0  0
   10.7750   -1.7340  -55.7790 C   0  0  0  0  0  0  0  0  0  0  0  0
    9.6960   -1.9770  -55.2430 O   0  0  0  0  0  0  0  0  0  0  0  0
   11.9130   -2.7470  -55.9220 C   0  0  2  0  0  0  0  0  0  0  0  0
   12.5250   -2.7900  -57.3430 C   0  0  1  0  0  0  0  0  0  0  0  0
   13.7880   -3.6730  -57.3020 C   0  0  0  0  0  0  0  0  0  0  0  0
   13.4240   -5.1010  -56.8610 C   0  0  2  0  0  0  0  0  0  0  0  0
   12.4280   -5.6940  -57.8700 C   0  0  0  0  0  0  0  0  0  0  0  0
   11.1550   -4.8330  -57.9200 C   0  0  2  0  0  0  0  0  0  0  0  0
   11.5230   -3.4020  -58.3420 C   0  0  0  0  0  0  0  0  0  0  0  0
   10.5190   -4.7980  -56.5230 C   0  0  0  0  0  0  0  0  0  0  0  0
   11.5000   -4.1820  -55.5040 C   0  0  1  0  0  0  0  0  0  0  0  0
   12.7700   -5.0570  -55.4670 C   0  0  0  0  0  0  0  0  0  0  0  0
   11.8660    2.0650  -57.2160 N   0  0  0  0  0  0  0  0  0  0  0  0
   11.9900    3.0340  -58.1100 N   0  0  0  0  0  0  0  0  0  0  0  0
   10.7800    3.2470  -58.6630 N   0  0  0  0  0  0  0  0  0  0  0  0
   10.6350    4.2380  -59.7100 C   0  0  0  0  0  0  0  0  0  0  0  0
   10.0500    3.6510  -60.9830 C   0  0  0  0  0  0  0  0  0  0  0  0
    7.5620    3.3690  -57.9070 C   0  0  0  0  0  0  0  0  0  0  0  0
    6.2120    3.3840  -58.2620 C   0  0  0  0  0  0  0  0  0  0  0  0
    3.5854    0.7489  -60.6916 H   0  0  0  0  0  0  0  0  0  0  0  0
    3.2441    2.3562  -61.4172 H   0  0  0  0  0  0  0  0  0  0  0  0
    4.9194    1.7083  -61.4172 H   0  0  0  0  0  0  0  0  0  0  0  0
    3.8736    3.4645  -59.5452 H   0  0  0  0  0  0  0  0  0  0  0  0
    3.6997    1.8503  -58.7349 H   0  0  0  0  0  0  0  0  0  0  0  0
    6.1671    0.6922  -60.3592 H   0  0  0  0  0  0  0  0  0  0  0  0
    8.5738    0.6612  -59.7225 H   0  0  0  0  0  0  0  0  0  0  0  0
    9.1418    0.1459  -56.7030 H   0  0  0  0  0  0  0  0  0  0  0  0
   10.2736    0.5943  -54.1499 H   0  0  0  0  0  0  0  0  0  0  0  0
    9.9756    2.2169  -54.9081 H   0  0  0  0  0  0  0  0  0  0  0  0
    8.2840    2.0021  -54.1038 H   0  0  0  0  0  0  0  0  0  0  0  0
    7.3150    0.0676  -56.6671 H   0  0  0  0  0  0  0  0  0  0  0  0
    5.4603    1.1872  -54.9115 H   0  0  0  0  0  0  0  0  0  0  0  0
    6.0728    1.8977  -56.4434 H   0  0  0  0  0  0  0  0  0  0  0  0
    5.3423    0.2566  -56.4434 H   0  0  0  0  0  0  0  0  0  0  0  0
    8.2980   -1.0800  -54.4930 H   0  0  0  0  0  0  0  0  0  0  0  0
    6.8313    0.5072  -52.5881 H   0  0  0  0  0  0  0  0  0  0  0  0
    5.7400   -0.5756  -53.5425 H   0  0  0  0  0  0  0  0  0  0  0  0
    9.2903   -1.1742  -52.4623 H   0  0  0  0  0  0  0  0  0  0  0  0
    9.9534   -3.1322  -51.0747 H   0  0  0  0  0  0  0  0  0  0  0  0
    8.2180   -4.6658  -50.1610 H   0  0  0  0  0  0  0  0  0  0  0  0
    5.1298   -2.2585  -52.0001 H   0  0  0  0  0  0  0  0  0  0  0  0
   11.9600   -0.2920  -56.6970 H   0  0  0  0  0  0  0  0  0  0  0  0
   12.6831   -2.3821  -55.2265 H   0  0  0  0  0  0  0  0  0  0  0  0
   12.7705   -1.7673  -57.6651 H   0  0  0  0  0  0  0  0  0  0  0  0
   14.2406   -3.7065  -58.3040 H   0  0  0  0  0  0  0  0  0  0  0  0
   14.5012   -3.2458  -56.5817 H   0  0  0  0  0  0  0  0  0  0  0  0
   14.3317   -5.7210  -56.8194 H   0  0  0  0  0  0  0  0  0  0  0  0
   12.8909   -5.7182  -58.8676 H   0  0  0  0  0  0  0  0  0  0  0  0
   12.1618   -6.7145  -57.5575 H   0  0  0  0  0  0  0  0  0  0  0  0
   10.4463   -5.2606  -58.6445 H   0  0  0  0  0  0  0  0  0  0  0  0
   11.9772   -3.4246  -59.3436 H   0  0  0  0  0  0  0  0  0  0  0  0
   10.6108   -2.7874  -58.3554 H   0  0  0  0  0  0  0  0  0  0  0  0
    9.6021   -4.1912  -56.5567 H   0  0  0  0  0  0  0  0  0  0  0  0
   10.2792   -5.8258  -56.2129 H   0  0  0  0  0  0  0  0  0  0  0  0
   11.0079   -4.1375  -54.5212 H   0  0  0  0  0  0  0  0  0  0  0  0
   13.4827   -4.6333  -54.7441 H   0  0  0  0  0  0  0  0  0  0  0  0
   12.4944   -6.0786  -55.1665 H   0  0  0  0  0  0  0  0  0  0  0  0
    9.9699    5.0372  -59.3509 H   0  0  0  0  0  0  0  0  0  0  0  0
   11.6368    4.6252  -59.9476 H   0  0  0  0  0  0  0  0  0  0  0  0
    9.2953    2.8937  -60.7245 H   0  0  0  0  0  0  0  0  0  0  0  0
    9.5794    4.4511  -61.5732 H   0  0  0  0  0  0  0  0  0  0  0  0
   10.8517    3.1831  -61.5732 H   0  0  0  0  0  0  0  0  0  0  0  0
    7.9555    4.1290  -57.2159 H   0  0  0  0  0  0  0  0  0  0  0  0
    5.5453    4.1502  -57.8396 H   0  0  0  0  0  0  0  0  0  0  0  0
  1  2  1  0
  2  3  1  0
  3  4  1  0
  4  5  2  0
  5  6  1  0
  6  7  1  0
  7  8  2  0
  8  9  1  0
  9 10  1  0
 10 11  1  0
 11 12  1  0
 12 13  1  0
 12 14  1  0
 14 15  1  0
 15 16  1  0
 16 17  2  0
 17 18  1  0
 18 19  2  0
 19 20  1  0
 20 21  1  0
 21 22  1  0
 21 23  1  0
 21 24  1  0
 20 25  2  0
  9 26  1  0
 26 27  1  0
 27 28  2  0
 27 29  1  0
 29 30  1  0
 30 31  1  0
 31 32  1  0
 32 33  1  0
 33 34  1  0
 34 35  1  0
 34 36  1  0
 36 37  1  0
 37 38  1  0
  8 39  1  0
 39 40  2  0
 40 41  1  0
 41 42  1  0
 42 43  1  0
  6 44  2  0
 44 45  1  0
 45  3  2  0
 41  7  1  0
 14 11  1  0
 25 16  1  0
 37 29  1  0
 35 30  1  0
 38 32  1  0
  1 46  1  0
  1 47  1  0
  1 48  1  0
  2 49  1  0
  2 50  1  0
  4 51  1  0
  5 52  1  0
  9 53  1  6
 10 54  1  0
 10 55  1  0
 11 56  1  1
 12 57  1  6
 13 58  1  0
 13 59  1  0
 13 60  1  0
 14 61  1  6
 15 62  1  0
 15 63  1  0
 17 64  1  0
 18 65  1  0
 19 66  1  0
 25 67  1  0
 26 68  1  0
 29 69  1  6
 30 70  1  1
 31 71  1  0
 31 72  1  0
 32 73  1  6
 33 74  1  0
 33 75  1  0
 34 76  1  1
 35 77  1  0
 35 78  1  0
 36 79  1  0
 36 80  1  0
 37 81  1  6
 38 82  1  0
 38 83  1  0
 42 84  1  0
 42 85  1  0
 43 86  1  0
 43 87  1  0
 43 88  1  0
 44 89  1  0
 45 90  1  0
M  CHG  1  14   1
M  END
>  <meeko>  (240) 
{"is_sidechain": false}

$$$$

     RDKit          3D

 90 96  0  0  0  0  0  0  0  0999 V2000
    6.1160   -4.1320  -50.8000 C   0  0  0  0  0  0  0  0  0  0  0  0
    7.4860   -3.5850  -50.4340 C   0  0  0  0  0  0  0  0  0  0  0  0
    8.3440   -3.3470  -51.6530 C   0  0  0  0  0  0  0  0  0  0  0  0
    9.6150   -2.7750  -51.5250 C   0  0  0  0  0  0  0  0  0  0  0  0
   10.4050   -2.5430  -52.6540 C   0  0  0  0  0  0  0  0  0  0  0  0
    9.9330   -2.8840  -53.9260 C   0  0  0  0  0  0  0  0  0  0  0  0
   10.7380   -2.6060  -55.1040 C   0  0  0  0  0  0  0  0  0  0  0  0
   10.8300   -1.4970  -55.9350 C   0  0  0  0  0  0  0  0  0  0  0  0
   10.1500   -0.1690  -55.9510 C   0  0  1  0  0  0  0  0  0  0  0  0
    9.4360    0.1160  -54.6120 C   0  0  0  0  0  0  0  0  0  0  0  0
    7.9600   -0.1710  -54.7200 C   0  0  1  0  0  0  0  0  0  0  0  0
    7.0300    0.1800  -53.5620 C   0  0  2  0  0  0  0  0  0  0  0  0
    5.9550   -0.7680  -53.1590 C   0  0  0  0  0  0  0  0  0  0  0  0
    7.0070    0.9410  -54.7990 N   0  0  2  0  0  0  0  0  0  0  0  0
    5.9160    0.8970  -55.7840 C   0  0  0  0  0  0  0  0  0  0  0  0
    6.1870    1.7850  -56.9690 C   0  0  0  0  0  0  0  0  0  0  0  0
    6.9200    2.9710  -56.8150 C   0  0  0  0  0  0  0  0  0  0  0  0
    7.1570    3.8070  -57.9060 C   0  0  0  0  0  0  0  0  0  0  0  0
    6.6640    3.4710  -59.1660 C   0  0  0  0  0  0  0  0  0  0  0  0
    5.9350    2.2890  -59.3510 C   0  0  0  0  0  0  0  0  0  0  0  0
    5.3790    1.9220  -60.7080 C   0  0  0  0  0  0  0  0  0  0  0  0
    4.1280    2.4250  -60.8920 F   0  0  0  0  0  0  0  0  0  0  0  0
    6.1290    2.3710  -61.7480 F   0  0  0  0  0  0  0  0  0  0  0  0
    5.2660    0.5750  -60.8710 F   0  0  0  0  0  0  0  0  0  0  0  0
    5.6990    1.4550  -58.2440 C   0  0  0  0  0  0  0  0  0  0  0  0
   11.0280    0.9180  -56.3550 N   0  0  0  0  0  0  0  0  0  0  0  0
   10.6810    1.7390  -57.3960 C   0  0  0  0  0  0  0  0  0  0  0  0
    9.5630    1.6340  -57.9190 O   0  0  0  0  0  0  0  0  0  0  0  0
   11.6690    2.8000  -57.8800 C   0  0  2  0  0  0  0  0  0  0  0  0
   11.6240    4.1690  -57.1680 C   0  0  1  0  0  0  0  0  0  0  0  0
   12.9650    4.8810  -57.4770 C   0  0  0  0  0  0  0  0  0  0  0  0
   13.1220    5.0780  -59.0010 C   0  0  2  0  0  0  0  0  0  0  0  0
   11.9670    5.9530  -59.5120 C   0  0  0  0  0  0  0  0  0  0  0  0
   10.6230    5.2680  -59.2090 C   0  0  2  0  0  0  0  0  0  0  0  0
   10.4950    5.0760  -57.6910 C   0  0  0  0  0  0  0  0  0  0  0  0
   10.5880    3.9010  -59.9140 C   0  0  0  0  0  0  0  0  0  0  0  0
   11.7280    3.0030  -59.4070 C   0  0  1  0  0  0  0  0  0  0  0  0
   13.0650    3.7140  -59.7210 C   0  0  0  0  0  0  0  0  0  0  0  0
   11.6910   -1.7740  -56.9660 N   0  0  0  0  0  0  0  0  0  0  0  0
   12.1460   -3.0030  -56.8130 N   0  0  0  0  0  0  0  0  0  0  0  0
   11.5910   -3.5110  -55.6970 N   0  0  0  0  0  0  0  0  0  0  0  0
   11.8920   -4.8770  -55.3170 C   0  0  0  0  0  0  0  0  0  0  0  0
   12.6080   -5.6370  -56.4190 C   0  0  0  0  0  0  0  0  0  0  0  0
    8.6730   -3.4750  -54.0540 C   0  0  0  0  0  0  0  0  0  0  0  0
    7.8830   -3.7030  -52.9250 C   0  0  0  0  0  0  0  0  0  0  0  0
    5.5536   -4.3566  -49.8817 H   0  0  0  0  0  0  0  0  0  0  0  0
    5.5684   -3.3835  -51.3916 H   0  0  0  0  0  0  0  0  0  0  0  0
    6.2345   -5.0518  -51.3916 H   0  0  0  0  0  0  0  0  0  0  0  0
    7.3568   -2.6325  -49.8992 H   0  0  0  0  0  0  0  0  0  0  0  0
    7.9919   -4.3303  -49.8027 H   0  0  0  0  0  0  0  0  0  0  0  0
    9.9948   -2.5061  -50.5283 H   0  0  0  0  0  0  0  0  0  0  0  0
   11.4014   -2.0907  -52.5422 H   0  0  0  0  0  0  0  0  0  0  0  0
    9.3752   -0.2233  -56.7300 H   0  0  0  0  0  0  0  0  0  0  0  0
    9.8709   -0.5220  -53.8286 H   0  0  0  0  0  0  0  0  0  0  0  0
    9.5709    1.1782  -54.3599 H   0  0  0  0  0  0  0  0  0  0  0  0
    8.1741   -1.0720  -55.3136 H   0  0  0  0  0  0  0  0  0  0  0  0
    7.1318    0.4515  -52.5009 H   0  0  0  0  0  0  0  0  0  0  0  0
    5.9008   -0.8158  -52.0614 H   0  0  0  0  0  0  0  0  0  0  0  0
    4.9909   -0.4207  -53.5589 H   0  0  0  0  0  0  0  0  0  0  0  0
    6.1790   -1.7679  -53.5589 H   0  0  0  0  0  0  0  0  0  0  0  0
    7.4870    1.8680  -54.7500 H   0  0  0  0  0  0  0  0  0  0  0  0
    5.7977   -0.1383  -56.1363 H   0  0  0  0  0  0  0  0  0  0  0  0
    5.0008    1.2582  -55.2922 H   0  0  0  0  0  0  0  0  0  0  0  0
    7.3117    3.2444  -55.8241 H   0  0  0  0  0  0  0  0  0  0  0  0
    7.7343    4.7337  -57.7719 H   0  0  0  0  0  0  0  0  0  0  0  0
    6.8486    4.1384  -60.0207 H   0  0  0  0  0  0  0  0  0  0  0  0
    5.1222    0.5281  -58.3788 H   0  0  0  0  0  0  0  0  0  0  0  0
   11.9240    1.0150  -55.8980 H   0  0  0  0  0  0  0  0  0  0  0  0
   12.6087    2.3218  -57.5664 H   0  0  0  0  0  0  0  0  0  0  0  0
   11.4510    3.9956  -56.0956 H   0  0  0  0  0  0  0  0  0  0  0  0
   12.9791    5.8622  -56.9799 H   0  0  0  0  0  0  0  0  0  0  0  0
   13.7953    4.2619  -57.1064 H   0  0  0  0  0  0  0  0  0  0  0  0
   14.0903    5.5585  -59.2050 H   0  0  0  0  0  0  0  0  0  0  0  0
   11.9999    6.9313  -59.0102 H   0  0  0  0  0  0  0  0  0  0  0  0
   12.0683    6.0911  -60.5986 H   0  0  0  0  0  0  0  0  0  0  0  0
    9.7885    5.8861  -59.5716 H   0  0  0  0  0  0  0  0  0  0  0  0
   10.5580    6.0558  -57.1951 H   0  0  0  0  0  0  0  0  0  0  0  0
    9.5265    4.6030  -57.4714 H   0  0  0  0  0  0  0  0  0  0  0  0
    9.6240    3.4126  -59.7085 H   0  0  0  0  0  0  0  0  0  0  0  0
   10.7123    4.0560  -60.9959 H   0  0  0  0  0  0  0  0  0  0  0  0
   11.6371    2.0232  -59.8986 H   0  0  0  0  0  0  0  0  0  0  0  0
   13.9004    3.0861  -59.3777 H   0  0  0  0  0  0  0  0  0  0  0  0
   13.1403    3.8763  -60.8064 H   0  0  0  0  0  0  0  0  0  0  0  0
   12.5330   -4.8625  -54.4232 H   0  0  0  0  0  0  0  0  0  0  0  0
   10.9388   -5.3892  -55.1194 H   0  0  0  0  0  0  0  0  0  0  0  0
   13.2972   -6.3685  -55.9718 H   0  0  0  0  0  0  0  0  0  0  0  0
   11.8691   -6.1625  -57.0418 H   0  0  0  0  0  0  0  0  0  0  0  0
   13.1765   -4.9307  -57.0418 H   0  0  0  0  0  0  0  0  0  0  0  0
    8.3016   -3.7620  -55.0488 H   0  0  0  0  0  0  0  0  0  0  0  0
    6.8913   -4.1657  -53.0367 H   0  0  0  0  0  0  0  0  0  0  0  0
  1  2  1  0
  2  3  1  0
  3  4  1  0
  4  5  2  0
  5  6  1  0
  6  7  1  0
  7  8  2  0
  8  9  1  0
  9 10  1  0
 10 11  1  0
 11 12  1  0
 12 13  1  0
 12 14  1  0
 14 15  1  0
 15 16  1  0
 16 17  2  0
 17 18  1  0
 18 19  2  0
 19 20  1  0
 20 21  1  0
 21 22  1  0
 21 23  1  0
 21 24  1  0
 20 25  2  0
  9 26  1  0
 26 27  1  0
 27 28  2  0
 27 29  1  0
 29 30  1  0
 30 31  1  0
 31 32  1  0
 32 33  1  0
 33 34  1  0
 34 35  1  0
 34 36  1  0
 36 37  1  0
 37 38  1  0
  8 39  1  0
 39 40  2  0
 40 41  1  0
 41 42  1  0
 42 43  1  0
  6 44  2  0
 44 45  1  0
 45  3  2  0
 41  7  1  0
 14 11  1  0
 25 16  1  0
 37 29  1  0
 35 30  1  0
 38 32  1  0
  1 46  1  0
  1 47  1  0
  1 48  1  0
  2 49  1  0
  2 50  1  0
  4 51  1  0
  5 52  1  0
  9 53  1  6
 10 54  1  0
 10 55  1  0
 11 56  1  6
 12 57  1  1
 13 58  1  0
 13 59  1  0
 13 60  1  0
 14 61  1  1
 15 62  1  0
 15 63  1  0
 17 64  1  0
 18 65  1  0
 19 66  1  0
 25 67  1  0
 26 68  1  0
 29 69  1  6
 30 70  1  6
 31 71  1  0
 31 72  1  0
 32 73  1  6
 33 74  1  0
 33 75  1  0
 34 76  1  1
 35 77  1  0
 35 78  1  0
 36 79  1  0
 36 80  1  0
 37 81  1  1
 38 82  1  0
 38 83  1  0
 42 84  1  0
 42 85  1  0
 43 86  1  0
 43 87  1  0
 43 88  1  0
 44 89  1  0
 45 90  1  0
M  CHG  1  14   1
M  END
>  <meeko>  (241) 
{"is_sidechain": false}

$$$$

     RDKit          3D

 90 96  0  0  0  0  0  0  0  0999 V2000
    6.3020   -4.1230  -50.7800 C   0  0  0  0  0  0  0  0  0  0  0  0
    7.6640   -3.5290  -50.4580 C   0  0  0  0  0  0  0  0  0  0  0  0
    8.4860   -3.3020  -51.7020 C   0  0  0  0  0  0  0  0  0  0  0  0
    7.9900   -3.6710  -52.9580 C   0  0  0  0  0  0  0  0  0  0  0  0
    8.7470   -3.4500  -54.1100 C   0  0  0  0  0  0  0  0  0  0  0  0
   10.0080   -2.8500  -54.0250 C   0  0  0  0  0  0  0  0  0  0  0  0
   10.8010   -2.6310  -55.2240 C   0  0  0  0  0  0  0  0  0  0  0  0
   11.0350   -1.4830  -55.9710 C   0  0  0  0  0  0  0  0  0  0  0  0
   10.5220   -0.0840  -55.7910 C   0  0  2  0  0  0  0  0  0  0  0  0
    8.9990    0.0310  -56.0600 C   0  0  0  0  0  0  0  0  0  0  0  0
    8.2470    0.5810  -54.8790 C   0  0  2  0  0  0  0  0  0  0  0  0
    7.1710   -0.2410  -54.1780 C   0  0  1  0  0  0  0  0  0  0  0  0
    7.0480   -0.2040  -52.6930 C   0  0  0  0  0  0  0  0  0  0  0  0
    6.8240    0.9390  -54.9670 N   0  0  2  0  0  0  0  0  0  0  0  0
    6.0410    0.7710  -56.2060 C   0  0  0  0  0  0  0  0  0  0  0  0
    6.3660    1.8500  -57.2030 C   0  0  0  0  0  0  0  0  0  0  0  0
    6.7480    3.1290  -56.7710 C   0  0  0  0  0  0  0  0  0  0  0  0
    7.0790    4.1190  -57.6950 C   0  0  0  0  0  0  0  0  0  0  0  0
    7.0430    3.8430  -59.0620 C   0  0  0  0  0  0  0  0  0  0  0  0
    6.6810    2.5710  -59.5210 C   0  0  0  0  0  0  0  0  0  0  0  0
    6.6240    2.2670  -61.0020 C   0  0  0  0  0  0  0  0  0  0  0  0
    7.6860    1.5260  -61.4150 F   0  0  0  0  0  0  0  0  0  0  0  0
    5.5090    1.5850  -61.3750 F   0  0  0  0  0  0  0  0  0  0  0  0
    6.6420    3.4030  -61.7550 F   0  0  0  0  0  0  0  0  0  0  0  0
    6.3390    1.5800  -58.5820 C   0  0  0  0  0  0  0  0  0  0  0  0
   11.2700    0.8170  -56.6540 N   0  0  0  0  0  0  0  0  0  0  0  0
   10.9900    2.1680  -56.6600 C   0  0  0  0  0  0  0  0  0  0  0  0
   10.0240    2.6160  -56.0470 O   0  0  0  0  0  0  0  0  0  0  0  0
   11.9220    3.0130  -57.5310 C   0  0  2  0  0  0  0  0  0  0  0  0
   11.8770    4.5230  -57.2010 C   0  0  1  0  0  0  0  0  0  0  0  0
   13.0140    5.2230  -57.9700 C   0  0  0  0  0  0  0  0  0  0  0  0
   12.8300    5.0260  -59.4860 C   0  0  2  0  0  0  0  0  0  0  0  0
   11.4850    5.6410  -59.9070 C   0  0  0  0  0  0  0  0  0  0  0  0
   10.3350    4.9500  -59.1550 C   0  0  2  0  0  0  0  0  0  0  0  0
   10.5320    5.1290  -57.6430 C   0  0  0  0  0  0  0  0  0  0  0  0
   10.3460    3.4510  -59.4890 C   0  0  0  0  0  0  0  0  0  0  0  0
   11.6810    2.8170  -59.0490 C   0  0  1  0  0  0  0  0  0  0  0  0
   12.8230    3.5210  -59.8120 C   0  0  0  0  0  0  0  0  0  0  0  0
   11.8510   -1.7940  -57.0260 N   0  0  0  0  0  0  0  0  0  0  0  0
   12.1050   -3.0890  -56.9960 N   0  0  0  0  0  0  0  0  0  0  0  0
   11.4880   -3.6030  -55.9140 N   0  0  0  0  0  0  0  0  0  0  0  0
   11.5650   -5.0290  -55.6610 C   0  0  0  0  0  0  0  0  0  0  0  0
   12.8810   -5.6240  -56.1270 C   0  0  0  0  0  0  0  0  0  0  0  0
   10.5050   -2.4800  -52.7730 C   0  0  0  0  0  0  0  0  0  0  0  0
    9.7470   -2.6990  -51.6200 C   0  0  0  0  0  0  0  0  0  0  0  0
    5.7722   -4.3541  -49.8441 H   0  0  0  0  0  0  0  0  0  0  0  0
    5.7152   -3.3991  -51.3644 H   0  0  0  0  0  0  0  0  0  0  0  0
    6.4332   -5.0456  -51.3644 H   0  0  0  0  0  0  0  0  0  0  0  0
    7.5202   -2.5661  -49.9460 H   0  0  0  0  0  0  0  0  0  0  0  0
    8.2042   -4.2415  -49.8173 H   0  0  0  0  0  0  0  0  0  0  0  0
    6.9973   -4.1381  -53.0378 H   0  0  0  0  0  0  0  0  0  0  0  0
    8.3494   -3.7496  -55.0909 H   0  0  0  0  0  0  0  0  0  0  0  0
   10.6716    0.1991  -54.7386 H   0  0  0  0  0  0  0  0  0  0  0  0
    8.8418    0.6980  -56.9204 H   0  0  0  0  0  0  0  0  0  0  0  0
    8.6166   -0.9811  -56.2588 H   0  0  0  0  0  0  0  0  0  0  0  0
    9.1685    1.1001  -54.5766 H   0  0  0  0  0  0  0  0  0  0  0  0
    6.8732   -1.2999  -54.1754 H   0  0  0  0  0  0  0  0  0  0  0  0
    8.0072   -0.4925  -52.2383 H   0  0  0  0  0  0  0  0  0  0  0  0
    6.7817    0.8140  -52.3724 H   0  0  0  0  0  0  0  0  0  0  0  0
    6.2643   -0.9062  -52.3724 H   0  0  0  0  0  0  0  0  0  0  0  0
    6.5660    1.7540  -54.3940 H   0  0  0  0  0  0  0  0  0  0  0  0
    6.2743   -0.2088  -56.6483 H   0  0  0  0  0  0  0  0  0  0  0  0
    4.9720    0.8376  -55.9553 H   0  0  0  0  0  0  0  0  0  0  0  0
    6.7866    3.3524  -55.6946 H   0  0  0  0  0  0  0  0  0  0  0  0
    7.3694    5.1207  -57.3452 H   0  0  0  0  0  0  0  0  0  0  0  0
    7.3011    4.6310  -59.7848 H   0  0  0  0  0  0  0  0  0  0  0  0
    6.0462    0.5793  -58.9326 H   0  0  0  0  0  0  0  0  0  0  0  0
   12.1320    0.4930  -57.0770 H   0  0  0  0  0  0  0  0  0  0  0  0
   12.9252    2.6366  -57.2820 H   0  0  0  0  0  0  0  0  0  0  0  0
   11.9924    4.6627  -56.1160 H   0  0  0  0  0  0  0  0  0  0  0  0
   13.0007    6.2984  -57.7390 H   0  0  0  0  0  0  0  0  0  0  0  0
   13.9761    4.7855  -57.6652 H   0  0  0  0  0  0  0  0  0  0  0  0
   13.6541    5.5135  -60.0274 H   0  0  0  0  0  0  0  0  0  0  0  0
   11.4841    6.7147  -59.6677 H   0  0  0  0  0  0  0  0  0  0  0  0
   11.3457    5.5010  -60.9891 H   0  0  0  0  0  0  0  0  0  0  0  0
    9.3758    5.3955  -59.4574 H   0  0  0  0  0  0  0  0  0  0  0  0
   10.5208    6.2019  -57.4006 H   0  0  0  0  0  0  0  0  0  0  0  0
    9.7173    4.6132  -57.1137 H   0  0  0  0  0  0  0  0  0  0  0  0
    9.5173    2.9553  -58.9622 H   0  0  0  0  0  0  0  0  0  0  0  0
   10.2295    3.3246  -60.5755 H   0  0  0  0  0  0  0  0  0  0  0  0
   11.6488    1.7391  -59.2659 H   0  0  0  0  0  0  0  0  0  0  0  0
   13.7855    3.0799  -59.5138 H   0  0  0  0  0  0  0  0  0  0  0  0
   12.6685    3.3881  -60.8930 H   0  0  0  0  0  0  0  0  0  0  0  0
   11.4607   -5.2030  -54.5799 H   0  0  0  0  0  0  0  0  0  0  0  0
   10.7558   -5.5160  -56.2250 H   0  0  0  0  0  0  0  0  0  0  0  0
   13.4891   -5.8990  -55.2526 H   0  0  0  0  0  0  0  0  0  0  0  0
   12.6839   -6.5205  -56.7331 H   0  0  0  0  0  0  0  0  0  0  0  0
   13.4239   -4.8838  -56.7331 H   0  0  0  0  0  0  0  0  0  0  0  0
   11.4982   -2.0138  -52.6945 H   0  0  0  0  0  0  0  0  0  0  0  0
   10.1440   -2.3953  -50.6401 H   0  0  0  0  0  0  0  0  0  0  0  0
  1  2  1  0
  2  3  1  0
  3  4  1  0
  4  5  2  0
  5  6  1  0
  6  7  1  0
  7  8  2  0
  8  9  1  0
  9 10  1  0
 10 11  1  0
 11 12  1  0
 12 13  1  0
 12 14  1  0
 14 15  1  0
 15 16  1  0
 16 17  2  0
 17 18  1  0
 18 19  2  0
 19 20  1  0
 20 21  1  0
 21 22  1  0
 21 23  1  0
 21 24  1  0
 20 25  2  0
  9 26  1  0
 26 27  1  0
 27 28  2  0
 27 29  1  0
 29 30  1  0
 30 31  1  0
 31 32  1  0
 32 33  1  0
 33 34  1  0
 34 35  1  0
 34 36  1  0
 36 37  1  0
 37 38  1  0
  8 39  1  0
 39 40  2  0
 40 41  1  0
 41 42  1  0
 42 43  1  0
  6 44  2  0
 44 45  1  0
 45  3  2  0
 41  7  1  0
 14 11  1  0
 25 16  1  0
 37 29  1  0
 35 30  1  0
 38 32  1  0
  1 46  1  0
  1 47  1  0
  1 48  1  0
  2 49  1  0
  2 50  1  0
  4 51  1  0
  5 52  1  0
  9 53  1  1
 10 54  1  0
 10 55  1  0
 11 56  1  1
 12 57  1  6
 13 58  1  0
 13 59  1  0
 13 60  1  0
 14 61  1  1
 15 62  1  0
 15 63  1  0
 17 64  1  0
 18 65  1  0
 19 66  1  0
 25 67  1  0
 26 68  1  0
 29 69  1  1
 30 70  1  6
 31 71  1  0
 31 72  1  0
 32 73  1  1
 33 74  1  0
 33 75  1  0
 34 76  1  1
 35 77  1  0
 35 78  1  0
 36 79  1  0
 36 80  1  0
 37 81  1  6
 38 82  1  0
 38 83  1  0
 42 84  1  0
 42 85  1  0
 43 86  1  0
 43 87  1  0
 43 88  1  0
 44 89  1  0
 45 90  1  0
M  CHG  1  14   1
M  END
>  <meeko>  (242) 
{"is_sidechain": false}

$$$$

     RDKit          3D

 90 96  0  0  0  0  0  0  0  0999 V2000
    5.9490    2.7140  -62.7410 C   0  0  0  0  0  0  0  0  0  0  0  0
    5.7740    2.3480  -61.2750 C   0  0  0  0  0  0  0  0  0  0  0  0
    7.0680    2.4640  -60.5090 C   0  0  0  0  0  0  0  0  0  0  0  0
    7.2230    3.4500  -59.5270 C   0  0  0  0  0  0  0  0  0  0  0  0
    8.4150    3.5500  -58.8070 C   0  0  0  0  0  0  0  0  0  0  0  0
    9.4650    2.6610  -59.0560 C   0  0  0  0  0  0  0  0  0  0  0  0
   10.7260    2.8050  -58.3530 C   0  0  0  0  0  0  0  0  0  0  0  0
   11.2310    2.1970  -57.2110 C   0  0  0  0  0  0  0  0  0  0  0  0
   10.6930    1.1860  -56.2470 C   0  0  1  0  0  0  0  0  0  0  0  0
    9.3620    1.6740  -55.6210 C   0  0  0  0  0  0  0  0  0  0  0  0
    8.1800    0.9610  -56.2190 C   0  0  2  0  0  0  0  0  0  0  0  0
    6.7680    1.5080  -56.0420 C   0  0  1  0  0  0  0  0  0  0  0  0
    5.8100    1.4900  -57.1820 C   0  0  0  0  0  0  0  0  0  0  0  0
    7.1820    0.2500  -55.4160 N   0  0  2  0  0  0  0  0  0  0  0  0
    7.2010    0.1950  -53.9400 C   0  0  0  0  0  0  0  0  0  0  0  0
    7.5930   -1.1760  -53.4560 C   0  0  0  0  0  0  0  0  0  0  0  0
    7.8730   -2.2030  -54.3700 C   0  0  0  0  0  0  0  0  0  0  0  0
    8.2020   -3.4810  -53.9170 C   0  0  0  0  0  0  0  0  0  0  0  0
    8.2450   -3.7530  -52.5500 C   0  0  0  0  0  0  0  0  0  0  0  0
    7.9560   -2.7480  -51.6160 C   0  0  0  0  0  0  0  0  0  0  0  0
    8.0150   -3.0290  -50.1310 C   0  0  0  0  0  0  0  0  0  0  0  0
    7.1490   -4.0100  -49.7600 F   0  0  0  0  0  0  0  0  0  0  0  0
    7.7250   -1.9460  -49.3620 F   0  0  0  0  0  0  0  0  0  0  0  0
    9.2500   -3.4500  -49.7410 F   0  0  0  0  0  0  0  0  0  0  0  0
    7.6360   -1.4600  -52.0810 C   0  0  0  0  0  0  0  0  0  0  0  0
   10.5600   -0.1440  -56.8100 N   0  0  0  0  0  0  0  0  0  0  0  0
   11.2480   -1.2070  -56.2660 C   0  0  0  0  0  0  0  0  0  0  0  0
   11.9020   -1.0750  -55.2330 O   0  0  0  0  0  0  0  0  0  0  0  0
   11.0550   -2.5320  -57.0070 C   0  0  2  0  0  0  0  0  0  0  0  0
   10.6700   -3.7040  -56.0720 C   0  0  1  0  0  0  0  0  0  0  0  0
   10.2740   -4.9090  -56.9510 C   0  0  0  0  0  0  0  0  0  0  0  0
   11.4610   -5.3320  -57.8380 C   0  0  2  0  0  0  0  0  0  0  0  0
   12.6460   -5.7250  -56.9400 C   0  0  0  0  0  0  0  0  0  0  0  0
   13.0550   -4.5340  -56.0560 C   0  0  2  0  0  0  0  0  0  0  0  0
   11.8590   -4.1230  -55.1840 C   0  0  0  0  0  0  0  0  0  0  0  0
   13.4560   -3.3500  -56.9500 C   0  0  0  0  0  0  0  0  0  0  0  0
   12.2800   -2.9430  -57.8590 C   0  0  1  0  0  0  0  0  0  0  0  0
   11.8820   -4.1510  -58.7310 C   0  0  0  0  0  0  0  0  0  0  0  0
   12.4880    2.6970  -56.9590 N   0  0  0  0  0  0  0  0  0  0  0  0
   12.7780    3.5910  -57.8850 N   0  0  0  0  0  0  0  0  0  0  0  0
   11.7410    3.6500  -58.7400 N   0  0  0  0  0  0  0  0  0  0  0  0
   11.7980    4.5590  -59.8670 C   0  0  0  0  0  0  0  0  0  0  0  0
   12.0690    5.9900  -59.4390 C   0  0  0  0  0  0  0  0  0  0  0  0
    9.3090    1.6660  -60.0260 C   0  0  0  0  0  0  0  0  0  0  0  0
    8.1170    1.5680  -60.7470 C   0  0  0  0  0  0  0  0  0  0  0  0
    6.4223    3.7040  -62.8178 H   0  0  0  0  0  0  0  0  0  0  0  0
    6.5859    1.9639  -63.2327 H   0  0  0  0  0  0  0  0  0  0  0  0
    4.9653    2.7388  -63.2327 H   0  0  0  0  0  0  0  0  0  0  0  0
    5.0325    3.0248  -60.8254 H   0  0  0  0  0  0  0  0  0  0  0  0
    5.4387    1.3017  -61.2221 H   0  0  0  0  0  0  0  0  0  0  0  0
    6.4002    4.1505  -59.3214 H   0  0  0  0  0  0  0  0  0  0  0  0
    8.5285    4.3312  -58.0409 H   0  0  0  0  0  0  0  0  0  0  0  0
   11.4441    1.0929  -55.4488 H   0  0  0  0  0  0  0  0  0  0  0  0
    9.3847    1.4830  -54.5379 H   0  0  0  0  0  0  0  0  0  0  0  0
    9.2572    2.7497  -55.8257 H   0  0  0  0  0  0  0  0  0  0  0  0
    8.8318    0.6854  -57.0612 H   0  0  0  0  0  0  0  0  0  0  0  0
    6.3323    2.4554  -55.6920 H   0  0  0  0  0  0  0  0  0  0  0  0
    4.7804    1.4707  -56.7954 H   0  0  0  0  0  0  0  0  0  0  0  0
    5.9541    2.3910  -57.7963 H   0  0  0  0  0  0  0  0  0  0  0  0
    5.9879    0.5950  -57.7963 H   0  0  0  0  0  0  0  0  0  0  0  0
    6.7880   -0.5800  -55.8780 H   0  0  0  0  0  0  0  0  0  0  0  0
    7.9260    0.9308  -53.5619 H   0  0  0  0  0  0  0  0  0  0  0  0
    6.1912    0.4225  -53.5678 H   0  0  0  0  0  0  0  0  0  0  0  0
    7.8329   -1.9994  -55.4502 H   0  0  0  0  0  0  0  0  0  0  0  0
    8.4284   -4.2774  -54.6413 H   0  0  0  0  0  0  0  0  0  0  0  0
    8.5075   -4.7630  -52.2020 H   0  0  0  0  0  0  0  0  0  0  0  0
    7.4159   -0.6622  -51.3564 H   0  0  0  0  0  0  0  0  0  0  0  0
    9.9990   -0.2980  -57.6390 H   0  0  0  0  0  0  0  0  0  0  0  0
   10.2117   -2.3342  -57.6850 H   0  0  0  0  0  0  0  0  0  0  0  0
    9.8416   -3.3833  -55.4232 H   0  0  0  0  0  0  0  0  0  0  0  0
    9.9848   -5.7509  -56.3048 H   0  0  0  0  0  0  0  0  0  0  0  0
    9.4289   -4.6224  -57.5942 H   0  0  0  0  0  0  0  0  0  0  0  0
   11.1641   -6.1846  -58.4664 H   0  0  0  0  0  0  0  0  0  0  0  0
   12.3531   -6.5701  -56.2997 H   0  0  0  0  0  0  0  0  0  0  0  0
   13.4980   -6.0138  -57.5729 H   0  0  0  0  0  0  0  0  0  0  0  0
   13.9042   -4.8200  -55.4180 H   0  0  0  0  0  0  0  0  0  0  0  0
   11.5597   -4.9736  -54.5540 H   0  0  0  0  0  0  0  0  0  0  0  0
   12.1519   -3.2716  -54.5521 H   0  0  0  0  0  0  0  0  0  0  0  0
   13.7372   -2.4959  -56.3164 H   0  0  0  0  0  0  0  0  0  0  0  0
   14.3073   -3.6492  -57.5791 H   0  0  0  0  0  0  0  0  0  0  0  0
   12.5914   -2.0930  -58.4839 H   0  0  0  0  0  0  0  0  0  0  0  0
   11.0410   -3.8688  -59.3815 H   0  0  0  0  0  0  0  0  0  0  0  0
   12.7443   -4.4524  -59.3438 H   0  0  0  0  0  0  0  0  0  0  0  0
   12.6020    4.2337  -60.5436 H   0  0  0  0  0  0  0  0  0  0  0  0
   10.8187    4.5369  -60.3674 H   0  0  0  0  0  0  0  0  0  0  0  0
   12.0800    6.0483  -58.3406 H   0  0  0  0  0  0  0  0  0  0  0  0
   13.0441    6.3122  -59.8331 H   0  0  0  0  0  0  0  0  0  0  0  0
   11.2792    6.6464  -59.8331 H   0  0  0  0  0  0  0  0  0  0  0  0
   10.1279    0.9581  -60.2218 H   0  0  0  0  0  0  0  0  0  0  0  0
    8.0015    0.7813  -61.5072 H   0  0  0  0  0  0  0  0  0  0  0  0
  1  2  1  0
  2  3  1  0
  3  4  1  0
  4  5  2  0
  5  6  1  0
  6  7  1  0
  7  8  2  0
  8  9  1  0
  9 10  1  0
 10 11  1  0
 11 12  1  0
 12 13  1  0
 12 14  1  0
 14 15  1  0
 15 16  1  0
 16 17  2  0
 17 18  1  0
 18 19  2  0
 19 20  1  0
 20 21  1  0
 21 22  1  0
 21 23  1  0
 21 24  1  0
 20 25  2  0
  9 26  1  0
 26 27  1  0
 27 28  2  0
 27 29  1  0
 29 30  1  0
 30 31  1  0
 31 32  1  0
 32 33  1  0
 33 34  1  0
 34 35  1  0
 34 36  1  0
 36 37  1  0
 37 38  1  0
  8 39  1  0
 39 40  2  0
 40 41  1  0
 41 42  1  0
 42 43  1  0
  6 44  2  0
 44 45  1  0
 45  3  2  0
 41  7  1  0
 14 11  1  0
 25 16  1  0
 37 29  1  0
 35 30  1  0
 38 32  1  0
  1 46  1  0
  1 47  1  0
  1 48  1  0
  2 49  1  0
  2 50  1  0
  4 51  1  0
  5 52  1  0
  9 53  1  1
 10 54  1  0
 10 55  1  0
 11 56  1  6
 12 57  1  1
 13 58  1  0
 13 59  1  0
 13 60  1  0
 14 61  1  6
 15 62  1  0
 15 63  1  0
 17 64  1  0
 18 65  1  0
 19 66  1  0
 25 67  1  0
 26 68  1  0
 29 69  1  1
 30 70  1  6
 31 71  1  0
 31 72  1  0
 32 73  1  1
 33 74  1  0
 33 75  1  0
 34 76  1  6
 35 77  1  0
 35 78  1  0
 36 79  1  0
 36 80  1  0
 37 81  1  1
 38 82  1  0
 38 83  1  0
 42 84  1  0
 42 85  1  0
 43 86  1  0
 43 87  1  0
 43 88  1  0
 44 89  1  0
 45 90  1  0
M  CHG  1  14   1
M  END
>  <meeko>  (243) 
{"is_sidechain": false}

$$$$

     RDKit          3D

 90 96  0  0  0  0  0  0  0  0999 V2000
    6.0820   -4.0960  -50.6030 C   0  0  0  0  0  0  0  0  0  0  0  0
    7.5270   -3.7350  -50.2910 C   0  0  0  0  0  0  0  0  0  0  0  0
    8.3000   -3.3850  -51.5380 C   0  0  0  0  0  0  0  0  0  0  0  0
    7.7440   -3.6050  -52.8040 C   0  0  0  0  0  0  0  0  0  0  0  0
    8.4670   -3.3020  -53.9590 C   0  0  0  0  0  0  0  0  0  0  0  0
    9.7610   -2.7810  -53.8630 C   0  0  0  0  0  0  0  0  0  0  0  0
   10.5050   -2.4390  -55.0640 C   0  0  0  0  0  0  0  0  0  0  0  0
   10.6930   -1.2190  -55.7030 C   0  0  0  0  0  0  0  0  0  0  0  0
   10.1770    0.1360  -55.3210 C   0  0  2  0  0  0  0  0  0  0  0  0
    8.8300    0.2230  -54.5630 C   0  0  0  0  0  0  0  0  0  0  0  0
    7.5780   -0.2060  -55.2810 C   0  0  1  0  0  0  0  0  0  0  0  0
    6.2060   -0.2100  -54.5860 C   0  0  1  0  0  0  0  0  0  0  0  0
    5.9790    0.3000  -53.2050 C   0  0  0  0  0  0  0  0  0  0  0  0
    6.5150    0.7260  -55.6430 N   0  0  2  0  0  0  0  0  0  0  0  0
    5.8750    0.6320  -56.9650 C   0  0  0  0  0  0  0  0  0  0  0  0
    6.3080    1.7560  -57.8720 C   0  0  0  0  0  0  0  0  0  0  0  0
    6.1620    3.0910  -57.4640 C   0  0  0  0  0  0  0  0  0  0  0  0
    6.5430    4.1360  -58.3060 C   0  0  0  0  0  0  0  0  0  0  0  0
    7.0680    3.8620  -59.5680 C   0  0  0  0  0  0  0  0  0  0  0  0
    7.2130    2.5380  -60.0060 C   0  0  0  0  0  0  0  0  0  0  0  0
    7.7970    2.2320  -61.3660 C   0  0  0  0  0  0  0  0  0  0  0  0
    8.5340    1.0850  -61.3610 F   0  0  0  0  0  0  0  0  0  0  0  0
    8.6320    3.2130  -61.8010 F   0  0  0  0  0  0  0  0  0  0  0  0
    6.8570    2.0690  -62.3350 F   0  0  0  0  0  0  0  0  0  0  0  0
    6.8360    1.4910  -59.1450 C   0  0  0  0  0  0  0  0  0  0  0  0
   10.3060    1.0360  -56.4690 N   0  0  0  0  0  0  0  0  0  0  0  0
   10.1010    2.3920  -56.4550 C   0  0  0  0  0  0  0  0  0  0  0  0
    9.9980    3.0230  -55.4050 O   0  0  0  0  0  0  0  0  0  0  0  0
   10.1040    3.0580  -57.8360 C   0  0  2  0  0  0  0  0  0  0  0  0
   11.3390    2.6590  -58.6860 C   0  0  1  0  0  0  0  0  0  0  0  0
   11.1350    3.1880  -60.1210 C   0  0  0  0  0  0  0  0  0  0  0  0
   11.0040    4.7220  -60.1070 C   0  0  2  0  0  0  0  0  0  0  0  0
   12.2850    5.3360  -59.5180 C   0  0  0  0  0  0  0  0  0  0  0  0
   12.5030    4.8200  -58.0850 C   0  0  2  0  0  0  0  0  0  0  0  0
   12.6280    3.2900  -58.1180 C   0  0  0  0  0  0  0  0  0  0  0  0
   11.2990    5.2070  -57.2130 C   0  0  0  0  0  0  0  0  0  0  0  0
   10.0050    4.6030  -57.7900 C   0  0  1  0  0  0  0  0  0  0  0  0
    9.8080    5.1250  -59.2270 C   0  0  0  0  0  0  0  0  0  0  0  0
   11.5020   -1.4120  -56.7900 N   0  0  0  0  0  0  0  0  0  0  0  0
   11.8020   -2.6940  -56.8780 N   0  0  0  0  0  0  0  0  0  0  0  0
   11.2070   -3.3240  -55.8470 N   0  0  0  0  0  0  0  0  0  0  0  0
   11.3380   -4.7600  -55.7150 C   0  0  0  0  0  0  0  0  0  0  0  0
   12.6990   -5.2570  -56.1710 C   0  0  0  0  0  0  0  0  0  0  0  0
   10.3240   -2.5680  -52.6010 C   0  0  0  0  0  0  0  0  0  0  0  0
    9.5990   -2.8700  -51.4460 C   0  0  0  0  0  0  0  0  0  0  0  0
    5.5275   -4.2345  -49.6631 H   0  0  0  0  0  0  0  0  0  0  0  0
    5.6193   -3.2859  -51.1857 H   0  0  0  0  0  0  0  0  0  0  0  0
    6.0547   -5.0286  -51.1857 H   0  0  0  0  0  0  0  0  0  0  0  0
    7.5389   -2.8707  -49.6107 H   0  0  0  0  0  0  0  0  0  0  0  0
    8.0051   -4.6105  -49.8274 H   0  0  0  0  0  0  0  0  0  0  0  0
    6.7289   -4.0201  -52.8892 H   0  0  0  0  0  0  0  0  0  0  0  0
    8.0172   -3.4737  -54.9480 H   0  0  0  0  0  0  0  0  0  0  0  0
   10.8280    0.4823  -54.5047 H   0  0  0  0  0  0  0  0  0  0  0  0
    8.9211   -0.4043  -53.6640 H   0  0  0  0  0  0  0  0  0  0  0  0
    8.6867    1.2993  -54.3868 H   0  0  0  0  0  0  0  0  0  0  0  0
    8.2021   -0.9345  -55.8194 H   0  0  0  0  0  0  0  0  0  0  0  0
    5.4568   -0.9899  -54.3848 H   0  0  0  0  0  0  0  0  0  0  0  0
    6.3141   -0.4529  -52.4764 H   0  0  0  0  0  0  0  0  0  0  0  0
    6.5482    1.2300  -53.0594 H   0  0  0  0  0  0  0  0  0  0  0  0
    4.9071    0.4995  -53.0594 H   0  0  0  0  0  0  0  0  0  0  0  0
    6.7520    1.6990  -55.3560 H   0  0  0  0  0  0  0  0  0  0  0  0
    6.1510   -0.3269  -57.4280 H   0  0  0  0  0  0  0  0  0  0  0  0
    4.7861    0.7018  -56.8260 H   0  0  0  0  0  0  0  0  0  0  0  0
    5.7435    3.3152  -56.4717 H   0  0  0  0  0  0  0  0  0  0  0  0
    6.4289    5.1783  -57.9734 H   0  0  0  0  0  0  0  0  0  0  0  0
    7.3707    4.6906  -60.2250 H   0  0  0  0  0  0  0  0  0  0  0  0
    6.9570    0.4486  -59.4748 H   0  0  0  0  0  0  0  0  0  0  0  0
   10.3230    0.5750  -57.3730 H   0  0  0  0  0  0  0  0  0  0  0  0
    9.1905    2.6752  -58.3146 H   0  0  0  0  0  0  0  0  0  0  0  0
   11.4401    1.5638  -58.6706 H   0  0  0  0  0  0  0  0  0  0  0  0
   11.9983    2.9024  -60.7400 H   0  0  0  0  0  0  0  0  0  0  0  0
   10.2148    2.7523  -60.5374 H   0  0  0  0  0  0  0  0  0  0  0  0
   10.8512    5.0858  -61.1338 H   0  0  0  0  0  0  0  0  0  0  0  0
   13.1454    5.0530  -60.1423 H   0  0  0  0  0  0  0  0  0  0  0  0
   12.1847    6.4312  -59.4969 H   0  0  0  0  0  0  0  0  0  0  0  0
   13.4186    5.2638  -57.6671 H   0  0  0  0  0  0  0  0  0  0  0  0
   13.4802    3.0092  -58.7543 H   0  0  0  0  0  0  0  0  0  0  0  0
   12.7850    2.9218  -57.0934 H   0  0  0  0  0  0  0  0  0  0  0  0
   11.4531    4.8270  -56.1923 H   0  0  0  0  0  0  0  0  0  0  0  0
   11.2062    6.3030  -57.1971 H   0  0  0  0  0  0  0  0  0  0  0  0
    9.1589    4.8937  -57.1499 H   0  0  0  0  0  0  0  0  0  0  0  0
    8.8867    4.6949  -59.6468 H   0  0  0  0  0  0  0  0  0  0  0  0
    9.7332    6.2222  -59.2034 H   0  0  0  0  0  0  0  0  0  0  0  0
   11.1970   -5.0328  -54.6587 H   0  0  0  0  0  0  0  0  0  0  0  0
   10.5759   -5.2286  -56.3550 H   0  0  0  0  0  0  0  0  0  0  0  0
   13.3200   -5.4838  -55.2918 H   0  0  0  0  0  0  0  0  0  0  0  0
   12.5732   -6.1672  -56.7757 H   0  0  0  0  0  0  0  0  0  0  0  0
   13.1894   -4.4799  -56.7757 H   0  0  0  0  0  0  0  0  0  0  0  0
   11.3424   -2.1608  -52.5174 H   0  0  0  0  0  0  0  0  0  0  0  0
   10.0514   -2.7022  -50.4575 H   0  0  0  0  0  0  0  0  0  0  0  0
  1  2  1  0
  2  3  1  0
  3  4  1  0
  4  5  2  0
  5  6  1  0
  6  7  1  0
  7  8  2  0
  8  9  1  0
  9 10  1  0
 10 11  1  0
 11 12  1  0
 12 13  1  0
 12 14  1  0
 14 15  1  0
 15 16  1  0
 16 17  2  0
 17 18  1  0
 18 19  2  0
 19 20  1  0
 20 21  1  0
 21 22  1  0
 21 23  1  0
 21 24  1  0
 20 25  2  0
  9 26  1  0
 26 27  1  0
 27 28  2  0
 27 29  1  0
 29 30  1  0
 30 31  1  0
 31 32  1  0
 32 33  1  0
 33 34  1  0
 34 35  1  0
 34 36  1  0
 36 37  1  0
 37 38  1  0
  8 39  1  0
 39 40  2  0
 40 41  1  0
 41 42  1  0
 42 43  1  0
  6 44  2  0
 44 45  1  0
 45  3  2  0
 41  7  1  0
 14 11  1  0
 25 16  1  0
 37 29  1  0
 35 30  1  0
 38 32  1  0
  1 46  1  0
  1 47  1  0
  1 48  1  0
  2 49  1  0
  2 50  1  0
  4 51  1  0
  5 52  1  0
  9 53  1  1
 10 54  1  0
 10 55  1  0
 11 56  1  6
 12 57  1  6
 13 58  1  0
 13 59  1  0
 13 60  1  0
 14 61  1  1
 15 62  1  0
 15 63  1  0
 17 64  1  0
 18 65  1  0
 19 66  1  0
 25 67  1  0
 26 68  1  0
 29 69  1  1
 30 70  1  1
 31 71  1  0
 31 72  1  0
 32 73  1  1
 33 74  1  0
 33 75  1  0
 34 76  1  6
 35 77  1  0
 35 78  1  0
 36 79  1  0
 36 80  1  0
 37 81  1  6
 38 82  1  0
 38 83  1  0
 42 84  1  0
 42 85  1  0
 43 86  1  0
 43 87  1  0
 43 88  1  0
 44 89  1  0
 45 90  1  0
M  CHG  1  14   1
M  END
>  <meeko>  (244) 
{"is_sidechain": false}

$$$$

     RDKit          3D

 90 96  0  0  0  0  0  0  0  0999 V2000
    6.2880   -4.2510  -50.7620 C   0  0  0  0  0  0  0  0  0  0  0  0
    7.6010   -3.5420  -50.4670 C   0  0  0  0  0  0  0  0  0  0  0  0
    8.4080   -3.3130  -51.7200 C   0  0  0  0  0  0  0  0  0  0  0  0
    9.6580   -2.6860  -51.6540 C   0  0  0  0  0  0  0  0  0  0  0  0
   10.4040   -2.4670  -52.8150 C   0  0  0  0  0  0  0  0  0  0  0  0
    9.9030   -2.8620  -54.0610 C   0  0  0  0  0  0  0  0  0  0  0  0
   10.7050   -2.6930  -55.2630 C   0  0  0  0  0  0  0  0  0  0  0  0
   10.8000   -1.6260  -56.1470 C   0  0  0  0  0  0  0  0  0  0  0  0
   10.1000   -0.2910  -56.1290 C   0  0  1  0  0  0  0  0  0  0  0  0
    9.3050   -0.0680  -54.8180 C   0  0  0  0  0  0  0  0  0  0  0  0
    7.8270   -0.3020  -54.9580 C   0  0  1  0  0  0  0  0  0  0  0  0
    6.8730   -0.1630  -53.7670 C   0  0  1  0  0  0  0  0  0  0  0  0
    7.3180    0.2600  -52.4090 C   0  0  0  0  0  0  0  0  0  0  0  0
    6.8710    0.8010  -54.8530 N   0  0  2  0  0  0  0  0  0  0  0  0
    5.7500    0.8730  -55.8010 C   0  0  0  0  0  0  0  0  0  0  0  0
    6.0850    1.7470  -56.9800 C   0  0  0  0  0  0  0  0  0  0  0  0
    6.8610    2.9020  -56.8080 C   0  0  0  0  0  0  0  0  0  0  0  0
    7.1500    3.7310  -57.8920 C   0  0  0  0  0  0  0  0  0  0  0  0
    6.6620    3.4210  -59.1600 C   0  0  0  0  0  0  0  0  0  0  0  0
    5.8710    2.2800  -59.3580 C   0  0  0  0  0  0  0  0  0  0  0  0
    5.3480    1.9300  -60.7330 C   0  0  0  0  0  0  0  0  0  0  0  0
    6.1480    2.3600  -61.7450 F   0  0  0  0  0  0  0  0  0  0  0  0
    4.1190    2.4720  -60.9660 F   0  0  0  0  0  0  0  0  0  0  0  0
    5.2020    0.5890  -60.9000 F   0  0  0  0  0  0  0  0  0  0  0  0
    5.5920    1.4460  -58.2600 C   0  0  0  0  0  0  0  0  0  0  0  0
   11.0910    0.7380  -56.4530 N   0  0  0  0  0  0  0  0  0  0  0  0
   10.7140    2.0260  -56.7700 C   0  0  0  0  0  0  0  0  0  0  0  0
    9.6310    2.4790  -56.4150 O   0  0  0  0  0  0  0  0  0  0  0  0
   11.7890    2.8540  -57.4860 C   0  0  2  0  0  0  0  0  0  0  0  0
   11.8350    4.3250  -56.9990 C   0  0  1  0  0  0  0  0  0  0  0  0
   13.0840    4.9980  -57.6060 C   0  0  0  0  0  0  0  0  0  0  0  0
   13.0050    4.9760  -59.1440 C   0  0  2  0  0  0  0  0  0  0  0  0
   11.7470    5.7360  -59.5990 C   0  0  0  0  0  0  0  0  0  0  0  0
   10.4910    5.0770  -59.0030 C   0  0  2  0  0  0  0  0  0  0  0  0
   10.5900    5.1060  -57.4710 C   0  0  0  0  0  0  0  0  0  0  0  0
   10.4090    3.6160  -59.4760 C   0  0  0  0  0  0  0  0  0  0  0  0
   11.6620    2.8410  -59.0310 C   0  0  1  0  0  0  0  0  0  0  0  0
   12.9090    3.5200  -59.6310 C   0  0  0  0  0  0  0  0  0  0  0  0
   11.6750   -1.9540  -57.1530 N   0  0  0  0  0  0  0  0  0  0  0  0
   12.1290   -3.1730  -56.9350 N   0  0  0  0  0  0  0  0  0  0  0  0
   11.5920   -3.6110  -55.7770 N   0  0  0  0  0  0  0  0  0  0  0  0
   12.0120   -4.8870  -55.2320 C   0  0  0  0  0  0  0  0  0  0  0  0
   12.8750   -5.6680  -56.2060 C   0  0  0  0  0  0  0  0  0  0  0  0
    8.6490   -3.4770  -54.1310 C   0  0  0  0  0  0  0  0  0  0  0  0
    7.9070   -3.6970  -52.9680 C   0  0  0  0  0  0  0  0  0  0  0  0
    5.7945   -4.5175  -49.8157 H   0  0  0  0  0  0  0  0  0  0  0  0
    5.6332   -3.5838  -51.3418 H   0  0  0  0  0  0  0  0  0  0  0  0
    6.4867   -5.1644  -51.3418 H   0  0  0  0  0  0  0  0  0  0  0  0
    7.3836   -2.5696  -50.0009 H   0  0  0  0  0  0  0  0  0  0  0  0
    8.1904   -4.1809  -49.7929 H   0  0  0  0  0  0  0  0  0  0  0  0
   10.0559   -2.3633  -50.6806 H   0  0  0  0  0  0  0  0  0  0  0  0
   11.3892   -1.9821  -52.7496 H   0  0  0  0  0  0  0  0  0  0  0  0
    9.3138   -0.2419  -56.8968 H   0  0  0  0  0  0  0  0  0  0  0  0
    9.6946   -0.7575  -54.0545 H   0  0  0  0  0  0  0  0  0  0  0  0
    9.4373    0.9876  -54.5385 H   0  0  0  0  0  0  0  0  0  0  0  0
    8.0560   -1.0851  -55.6957 H   0  0  0  0  0  0  0  0  0  0  0  0
    6.1498   -0.8368  -53.2843 H   0  0  0  0  0  0  0  0  0  0  0  0
    6.7426   -0.2870  -51.6477 H   0  0  0  0  0  0  0  0  0  0  0  0
    8.3887    0.0386  -52.2885 H   0  0  0  0  0  0  0  0  0  0  0  0
    7.1512    1.3406  -52.2885 H   0  0  0  0  0  0  0  0  0  0  0  0
    7.3370    1.7080  -54.6690 H   0  0  0  0  0  0  0  0  0  0  0  0
    5.5194   -0.1406  -56.1606 H   0  0  0  0  0  0  0  0  0  0  0  0
    4.8838    1.3085  -55.2814 H   0  0  0  0  0  0  0  0  0  0  0  0
    7.2454    3.1567  -55.8093 H   0  0  0  0  0  0  0  0  0  0  0  0
    7.7645    4.6315  -57.7456 H   0  0  0  0  0  0  0  0  0  0  0  0
    6.8989    4.0758  -60.0115 H   0  0  0  0  0  0  0  0  0  0  0  0
    4.9786    0.5447  -58.4062 H   0  0  0  0  0  0  0  0  0  0  0  0
   11.9210    0.4020  -56.9290 H   0  0  0  0  0  0  0  0  0  0  0  0
   12.7303    2.3529  -57.2162 H   0  0  0  0  0  0  0  0  0  0  0  0
   11.8641    4.3324  -55.8994 H   0  0  0  0  0  0  0  0  0  0  0  0
   13.1395    6.0406  -57.2598 H   0  0  0  0  0  0  0  0  0  0  0  0
   13.9805    4.4476  -57.2845 H   0  0  0  0  0  0  0  0  0  0  0  0
   13.9041    5.4514  -59.5630 H   0  0  0  0  0  0  0  0  0  0  0  0
   11.8081    6.7797  -59.2570 H   0  0  0  0  0  0  0  0  0  0  0  0
   11.6842    5.7067  -60.6968 H   0  0  0  0  0  0  0  0  0  0  0  0
    9.5938    5.6222  -59.3313 H   0  0  0  0  0  0  0  0  0  0  0  0
   10.6665    6.1497  -57.1321 H   0  0  0  0  0  0  0  0  0  0  0  0
    9.6908    4.6363  -57.0457 H   0  0  0  0  0  0  0  0  0  0  0  0
    9.5160    3.1431  -59.0412 H   0  0  0  0  0  0  0  0  0  0  0  0
   10.3474    3.5977  -60.5741 H   0  0  0  0  0  0  0  0  0  0  0  0
   11.5782    1.8007  -59.3786 H   0  0  0  0  0  0  0  0  0  0  0  0
   13.8088    2.9712  -59.3162 H   0  0  0  0  0  0  0  0  0  0  0  0
   12.8300    3.5122  -60.7281 H   0  0  0  0  0  0  0  0  0  0  0  0
   12.5886   -4.7074  -54.3126 H   0  0  0  0  0  0  0  0  0  0  0  0
   11.1093   -5.4815  -55.0276 H   0  0  0  0  0  0  0  0  0  0  0  0
   13.5770   -6.3033  -55.6460 H   0  0  0  0  0  0  0  0  0  0  0  0
   12.2341   -6.2993  -56.8390 H   0  0  0  0  0  0  0  0  0  0  0  0
   13.4394   -4.9675  -56.8390 H   0  0  0  0  0  0  0  0  0  0  0  0
    8.2453   -3.7887  -55.1056 H   0  0  0  0  0  0  0  0  0  0  0  0
    6.9194   -4.1768  -53.0344 H   0  0  0  0  0  0  0  0  0  0  0  0
  1  2  1  0
  2  3  1  0
  3  4  1  0
  4  5  2  0
  5  6  1  0
  6  7  1  0
  7  8  2  0
  8  9  1  0
  9 10  1  0
 10 11  1  0
 11 12  1  0
 12 13  1  0
 12 14  1  0
 14 15  1  0
 15 16  1  0
 16 17  2  0
 17 18  1  0
 18 19  2  0
 19 20  1  0
 20 21  1  0
 21 22  1  0
 21 23  1  0
 21 24  1  0
 20 25  2  0
  9 26  1  0
 26 27  1  0
 27 28  2  0
 27 29  1  0
 29 30  1  0
 30 31  1  0
 31 32  1  0
 32 33  1  0
 33 34  1  0
 34 35  1  0
 34 36  1  0
 36 37  1  0
 37 38  1  0
  8 39  1  0
 39 40  2  0
 40 41  1  0
 41 42  1  0
 42 43  1  0
  6 44  2  0
 44 45  1  0
 45  3  2  0
 41  7  1  0
 14 11  1  0
 25 16  1  0
 37 29  1  0
 35 30  1  0
 38 32  1  0
  1 46  1  0
  1 47  1  0
  1 48  1  0
  2 49  1  0
  2 50  1  0
  4 51  1  0
  5 52  1  0
  9 53  1  6
 10 54  1  0
 10 55  1  0
 11 56  1  6
 12 57  1  1
 13 58  1  0
 13 59  1  0
 13 60  1  0
 14 61  1  1
 15 62  1  0
 15 63  1  0
 17 64  1  0
 18 65  1  0
 19 66  1  0
 25 67  1  0
 26 68  1  0
 29 69  1  1
 30 70  1  6
 31 71  1  0
 31 72  1  0
 32 73  1  1
 33 74  1  0
 33 75  1  0
 34 76  1  6
 35 77  1  0
 35 78  1  0
 36 79  1  0
 36 80  1  0
 37 81  1  1
 38 82  1  0
 38 83  1  0
 42 84  1  0
 42 85  1  0
 43 86  1  0
 43 87  1  0
 43 88  1  0
 44 89  1  0
 45 90  1  0
M  CHG  1  14   1
M  END
>  <meeko>  (245) 
{"is_sidechain": false}

$$$$

     RDKit          3D

 90 96  0  0  0  0  0  0  0  0999 V2000
    5.9100   -4.0830  -50.4850 C   0  0  0  0  0  0  0  0  0  0  0  0
    7.4000   -4.3460  -50.3380 C   0  0  0  0  0  0  0  0  0  0  0  0
    8.1810   -3.8180  -51.5160 C   0  0  0  0  0  0  0  0  0  0  0  0
    7.7570   -4.0810  -52.8230 C   0  0  0  0  0  0  0  0  0  0  0  0
    8.4840   -3.6000  -53.9140 C   0  0  0  0  0  0  0  0  0  0  0  0
    9.6490   -2.8520  -53.7100 C   0  0  0  0  0  0  0  0  0  0  0  0
   10.3800   -2.3150  -54.8440 C   0  0  0  0  0  0  0  0  0  0  0  0
   10.3260   -1.0860  -55.4890 C   0  0  0  0  0  0  0  0  0  0  0  0
    9.5230    0.1640  -55.2630 C   0  0  2  0  0  0  0  0  0  0  0  0
    8.1800   -0.1840  -54.5740 C   0  0  0  0  0  0  0  0  0  0  0  0
    7.2190    0.9730  -54.6110 C   0  0  2  0  0  0  0  0  0  0  0  0
    5.7090    0.8250  -54.4130 C   0  0  2  0  0  0  0  0  0  0  0  0
    5.0270   -0.4800  -54.1760 C   0  0  0  0  0  0  0  0  0  0  0  0
    6.2760    1.0950  -55.7310 N   0  0  1  0  0  0  0  0  0  0  0  0
    6.0940    2.3820  -56.4380 C   0  0  0  0  0  0  0  0  0  0  0  0
    5.5230    2.3550  -57.8340 C   0  0  0  0  0  0  0  0  0  0  0  0
    4.1360    2.3170  -58.0370 C   0  0  0  0  0  0  0  0  0  0  0  0
    3.6100    2.2770  -59.3290 C   0  0  0  0  0  0  0  0  0  0  0  0
    4.4620    2.2770  -60.4340 C   0  0  0  0  0  0  0  0  0  0  0  0
    5.8510    2.3160  -60.2600 C   0  0  0  0  0  0  0  0  0  0  0  0
    6.7820    2.3390  -61.4520 C   0  0  0  0  0  0  0  0  0  0  0  0
    6.1570    1.9600  -62.5970 F   0  0  0  0  0  0  0  0  0  0  0  0
    7.2740    3.5880  -61.6880 F   0  0  0  0  0  0  0  0  0  0  0  0
    7.8630    1.5280  -61.3140 F   0  0  0  0  0  0  0  0  0  0  0  0
    6.3710    2.3660  -58.9550 C   0  0  0  0  0  0  0  0  0  0  0  0
    9.3260    0.9080  -56.4950 N   0  0  0  0  0  0  0  0  0  0  0  0
    9.6670    2.2440  -56.5670 C   0  0  0  0  0  0  0  0  0  0  0  0
   10.0530    2.8610  -55.5790 O   0  0  0  0  0  0  0  0  0  0  0  0
    9.5630    2.8450  -57.9710 C   0  0  2  0  0  0  0  0  0  0  0  0
   10.8230    2.5910  -58.8360 C   0  0  1  0  0  0  0  0  0  0  0  0
   10.5140    3.0320  -60.2820 C   0  0  0  0  0  0  0  0  0  0  0  0
   10.1650    4.5320  -60.3170 C   0  0  2  0  0  0  0  0  0  0  0  0
   11.3580    5.3410  -59.7830 C   0  0  0  0  0  0  0  0  0  0  0  0
   11.6800    4.9160  -58.3410 C   0  0  2  0  0  0  0  0  0  0  0  0
   12.0210    3.4180  -58.3230 C   0  0  0  0  0  0  0  0  0  0  0  0
   10.4520    5.1630  -57.4510 C   0  0  0  0  0  0  0  0  0  0  0  0
    9.2450    4.3600  -57.9720 C   0  0  1  0  0  0  0  0  0  0  0  0
    8.9430    4.7950  -59.4190 C   0  0  0  0  0  0  0  0  0  0  0  0
   11.2680   -1.0650  -56.4910 N   0  0  0  0  0  0  0  0  0  0  0  0
   11.9120   -2.2170  -56.4860 N   0  0  0  0  0  0  0  0  0  0  0  0
   11.3620   -2.9910  -55.5320 N   0  0  0  0  0  0  0  0  0  0  0  0
   11.8740   -4.3300  -55.3180 C   0  0  0  0  0  0  0  0  0  0  0  0
   11.2440   -5.3420  -56.2580 C   0  0  0  0  0  0  0  0  0  0  0  0
   10.0820   -2.5940  -52.4060 C   0  0  0  0  0  0  0  0  0  0  0  0
    9.3550   -3.0790  -51.3160 C   0  0  0  0  0  0  0  0  0  0  0  0
    5.4519   -4.0021  -49.4882 H   0  0  0  0  0  0  0  0  0  0  0  0
    5.7561   -3.1438  -51.0366 H   0  0  0  0  0  0  0  0  0  0  0  0
    5.4439   -4.9128  -51.0366 H   0  0  0  0  0  0  0  0  0  0  0  0
    7.7599   -3.8535  -49.4226 H   0  0  0  0  0  0  0  0  0  0  0  0
    7.5518   -5.4343  -50.2872 H   0  0  0  0  0  0  0  0  0  0  0  0
    6.8442   -4.6710  -52.9925 H   0  0  0  0  0  0  0  0  0  0  0  0
    8.1397   -3.8098  -54.9374 H   0  0  0  0  0  0  0  0  0  0  0  0
   10.0911    0.8243  -54.5913 H   0  0  0  0  0  0  0  0  0  0  0  0
    7.7255   -1.0415  -55.0917 H   0  0  0  0  0  0  0  0  0  0  0  0
    8.3872   -0.4239  -53.5207 H   0  0  0  0  0  0  0  0  0  0  0  0
    7.9963    1.5876  -54.1334 H   0  0  0  0  0  0  0  0  0  0  0  0
    4.9873    1.2915  -53.7264 H   0  0  0  0  0  0  0  0  0  0  0  0
    4.9357   -0.6548  -53.0938 H   0  0  0  0  0  0  0  0  0  0  0  0
    4.0252   -0.4579  -54.6297 H   0  0  0  0  0  0  0  0  0  0  0  0
    5.6172   -1.2899  -54.6297 H   0  0  0  0  0  0  0  0  0  0  0  0
    6.2950    0.2760  -56.3520 H   0  0  0  0  0  0  0  0  0  0  0  0
    5.4227    2.9996  -55.8232 H   0  0  0  0  0  0  0  0  0  0  0  0
    7.1160    2.7671  -56.5694 H   0  0  0  0  0  0  0  0  0  0  0  0
    3.4574    2.3187  -57.1712 H   0  0  0  0  0  0  0  0  0  0  0  0
    2.5204    2.2454  -59.4767 H   0  0  0  0  0  0  0  0  0  0  0  0
    4.0396    2.2461  -61.4492 H   0  0  0  0  0  0  0  0  0  0  0  0
    7.4601    2.4146  -58.8085 H   0  0  0  0  0  0  0  0  0  0  0  0
    9.3350    0.4020  -57.3730 H   0  0  0  0  0  0  0  0  0  0  0  0
    8.7121    2.3135  -58.4221 H   0  0  0  0  0  0  0  0  0  0  0  0
   11.0803    1.5227  -58.7856 H   0  0  0  0  0  0  0  0  0  0  0  0
   11.3955    2.8491  -60.9140 H   0  0  0  0  0  0  0  0  0  0  0  0
    9.6564    2.4548  -60.6580 H   0  0  0  0  0  0  0  0  0  0  0  0
    9.9387    4.8319  -61.3509 H   0  0  0  0  0  0  0  0  0  0  0  0
   12.2357    5.1593  -60.4207 H   0  0  0  0  0  0  0  0  0  0  0  0
   11.1024    6.4108  -59.7950 H   0  0  0  0  0  0  0  0  0  0  0  0
   12.5333    5.4993  -57.9646 H   0  0  0  0  0  0  0  0  0  0  0  0
   12.8916    3.2360  -58.9702 H   0  0  0  0  0  0  0  0  0  0  0  0
   12.2498    3.1150  -57.2906 H   0  0  0  0  0  0  0  0  0  0  0  0
   10.6803    4.8486  -56.4219 H   0  0  0  0  0  0  0  0  0  0  0  0
   10.2048    6.2347  -57.4711 H   0  0  0  0  0  0  0  0  0  0  0  0
    8.3812    4.5507  -57.3182 H   0  0  0  0  0  0  0  0  0  0  0  0
    8.0830    4.2237  -59.7986 H   0  0  0  0  0  0  0  0  0  0  0  0
    8.7128    5.8706  -59.4307 H   0  0  0  0  0  0  0  0  0  0  0  0
   12.9617   -4.3237  -55.4817 H   0  0  0  0  0  0  0  0  0  0  0  0
   11.6258   -4.6258  -54.2880 H   0  0  0  0  0  0  0  0  0  0  0  0
   10.7525   -6.1316  -55.6707 H   0  0  0  0  0  0  0  0  0  0  0  0
   10.4991   -4.8392  -56.8922 H   0  0  0  0  0  0  0  0  0  0  0  0
   12.0240   -5.7885  -56.8922 H   0  0  0  0  0  0  0  0  0  0  0  0
   10.9974   -2.0077  -52.2378 H   0  0  0  0  0  0  0  0  0  0  0  0
    9.7067   -2.8794  -50.2930 H   0  0  0  0  0  0  0  0  0  0  0  0
  1  2  1  0
  2  3  1  0
  3  4  1  0
  4  5  2  0
  5  6  1  0
  6  7  1  0
  7  8  2  0
  8  9  1  0
  9 10  1  0
 10 11  1  0
 11 12  1  0
 12 13  1  0
 12 14  1  0
 14 15  1  0
 15 16  1  0
 16 17  2  0
 17 18  1  0
 18 19  2  0
 19 20  1  0
 20 21  1  0
 21 22  1  0
 21 23  1  0
 21 24  1  0
 20 25  2  0
  9 26  1  0
 26 27  1  0
 27 28  2  0
 27 29  1  0
 29 30  1  0
 30 31  1  0
 31 32  1  0
 32 33  1  0
 33 34  1  0
 34 35  1  0
 34 36  1  0
 36 37  1  0
 37 38  1  0
  8 39  1  0
 39 40  2  0
 40 41  1  0
 41 42  1  0
 42 43  1  0
  6 44  2  0
 44 45  1  0
 45  3  2  0
 41  7  1  0
 14 11  1  0
 25 16  1  0
 37 29  1  0
 35 30  1  0
 38 32  1  0
  1 46  1  0
  1 47  1  0
  1 48  1  0
  2 49  1  0
  2 50  1  0
  4 51  1  0
  5 52  1  0
  9 53  1  1
 10 54  1  0
 10 55  1  0
 11 56  1  1
 12 57  1  1
 13 58  1  0
 13 59  1  0
 13 60  1  0
 14 61  1  6
 15 62  1  0
 15 63  1  0
 17 64  1  0
 18 65  1  0
 19 66  1  0
 25 67  1  0
 26 68  1  0
 29 69  1  1
 30 70  1  1
 31 71  1  0
 31 72  1  0
 32 73  1  1
 33 74  1  0
 33 75  1  0
 34 76  1  6
 35 77  1  0
 35 78  1  0
 36 79  1  0
 36 80  1  0
 37 81  1  6
 38 82  1  0
 38 83  1  0
 42 84  1  0
 42 85  1  0
 43 86  1  0
 43 87  1  0
 43 88  1  0
 44 89  1  0
 45 90  1  0
M  CHG  1  14   1
M  END
>  <meeko>  (246) 
{"is_sidechain": false}

$$$$

     RDKit          3D

 90 96  0  0  0  0  0  0  0  0999 V2000
    5.9450   -4.0250  -50.6500 C   0  0  0  0  0  0  0  0  0  0  0  0
    7.4210   -3.8430  -50.3330 C   0  0  0  0  0  0  0  0  0  0  0  0
    8.2190   -3.4860  -51.5620 C   0  0  0  0  0  0  0  0  0  0  0  0
    9.4800   -2.8910  -51.4410 C   0  0  0  0  0  0  0  0  0  0  0  0
   10.2140   -2.5490  -52.5790 C   0  0  0  0  0  0  0  0  0  0  0  0
    9.6930   -2.7920  -53.8550 C   0  0  0  0  0  0  0  0  0  0  0  0
   10.4890   -2.5080  -55.0380 C   0  0  0  0  0  0  0  0  0  0  0  0
   10.5250   -1.3920  -55.8690 C   0  0  0  0  0  0  0  0  0  0  0  0
    9.7790   -0.0890  -55.7950 C   0  0  1  0  0  0  0  0  0  0  0  0
    9.1420    0.1740  -54.4110 C   0  0  0  0  0  0  0  0  0  0  0  0
    7.8940    1.0120  -54.4990 C   0  0  2  0  0  0  0  0  0  0  0  0
    6.5040    0.4290  -54.7540 C   0  0  2  0  0  0  0  0  0  0  0  0
    6.2410   -1.0270  -54.9310 C   0  0  0  0  0  0  0  0  0  0  0  0
    7.2240    1.1620  -55.7940 N   0  0  1  0  0  0  0  0  0  0  0  0
    6.7470    2.4940  -56.2130 C   0  0  0  0  0  0  0  0  0  0  0  0
    6.1130    2.4430  -57.5770 C   0  0  0  0  0  0  0  0  0  0  0  0
    4.7290    2.2760  -57.7160 C   0  0  0  0  0  0  0  0  0  0  0  0
    4.1490    2.1990  -58.9820 C   0  0  0  0  0  0  0  0  0  0  0  0
    4.9440    2.2780  -60.1250 C   0  0  0  0  0  0  0  0  0  0  0  0
    6.3320    2.4310  -60.0160 C   0  0  0  0  0  0  0  0  0  0  0  0
    7.2000    2.5360  -61.2500 C   0  0  0  0  0  0  0  0  0  0  0  0
    8.1720    1.5880  -61.3100 F   0  0  0  0  0  0  0  0  0  0  0  0
    7.8390    3.7360  -61.3220 F   0  0  0  0  0  0  0  0  0  0  0  0
    6.4780    2.4240  -62.3950 F   0  0  0  0  0  0  0  0  0  0  0  0
    6.9070    2.5170  -58.7350 C   0  0  0  0  0  0  0  0  0  0  0  0
   10.6630    1.0110  -56.1560 N   0  0  0  0  0  0  0  0  0  0  0  0
   10.4520    1.7220  -57.3170 C   0  0  0  0  0  0  0  0  0  0  0  0
    9.4370    1.5530  -57.9870 O   0  0  0  0  0  0  0  0  0  0  0  0
   11.5980    2.6600  -57.7000 C   0  0  2  0  0  0  0  0  0  0  0  0
   11.5470    4.0300  -56.9840 C   0  0  1  0  0  0  0  0  0  0  0  0
   12.8640    4.7780  -57.2750 C   0  0  0  0  0  0  0  0  0  0  0  0
   13.0260    4.9980  -58.7890 C   0  0  2  0  0  0  0  0  0  0  0  0
   11.8430    5.8390  -59.3000 C   0  0  0  0  0  0  0  0  0  0  0  0
   10.5200    5.1050  -59.0260 C   0  0  2  0  0  0  0  0  0  0  0  0
   10.3690    4.8690  -57.5140 C   0  0  0  0  0  0  0  0  0  0  0  0
   10.5400    3.7480  -59.7460 C   0  0  0  0  0  0  0  0  0  0  0  0
   11.7090    2.8860  -59.2280 C   0  0  1  0  0  0  0  0  0  0  0  0
   13.0270    3.6370  -59.5090 C   0  0  0  0  0  0  0  0  0  0  0  0
   11.4540   -1.6010  -56.8560 N   0  0  0  0  0  0  0  0  0  0  0  0
   12.0020   -2.7880  -56.6730 N   0  0  0  0  0  0  0  0  0  0  0  0
   11.4290   -3.3460  -55.5900 N   0  0  0  0  0  0  0  0  0  0  0  0
   11.8840   -4.6440  -55.1320 C   0  0  0  0  0  0  0  0  0  0  0  0
   12.5240   -5.4570  -56.2440 C   0  0  0  0  0  0  0  0  0  0  0  0
    8.4290   -3.3770  -53.9790 C   0  0  0  0  0  0  0  0  0  0  0  0
    7.6960   -3.7170  -52.8400 C   0  0  0  0  0  0  0  0  0  0  0  0
    5.3745   -4.0953  -49.7121 H   0  0  0  0  0  0  0  0  0  0  0  0
    5.5865   -3.1643  -51.2336 H   0  0  0  0  0  0  0  0  0  0  0  0
    5.8063   -4.9471  -51.2336 H   0  0  0  0  0  0  0  0  0  0  0  0
    7.5291   -3.0372  -49.5920 H   0  0  0  0  0  0  0  0  0  0  0  0
    7.8060   -4.7958  -49.9407 H   0  0  0  0  0  0  0  0  0  0  0  0
    9.8960   -2.6913  -50.4425 H   0  0  0  0  0  0  0  0  0  0  0  0
   11.2063   -2.0865  -52.4718 H   0  0  0  0  0  0  0  0  0  0  0  0
    8.9489   -0.1593  -56.5134 H   0  0  0  0  0  0  0  0  0  0  0  0
    8.8862   -0.7921  -53.9513 H   0  0  0  0  0  0  0  0  0  0  0  0
    9.8746    0.7289  -53.8065 H   0  0  0  0  0  0  0  0  0  0  0  0
    8.3152    1.6667  -53.7218 H   0  0  0  0  0  0  0  0  0  0  0  0
    5.5389    0.5033  -54.2315 H   0  0  0  0  0  0  0  0  0  0  0  0
    6.1544   -1.5065  -53.9448 H   0  0  0  0  0  0  0  0  0  0  0  0
    5.3034   -1.1650  -55.4894 H   0  0  0  0  0  0  0  0  0  0  0  0
    7.0711   -1.4843  -55.4894 H   0  0  0  0  0  0  0  0  0  0  0  0
    7.5930    0.5580  -56.5410 H   0  0  0  0  0  0  0  0  0  0  0  0
    6.0043    2.8539  -55.4858 H   0  0  0  0  0  0  0  0  0  0  0  0
    7.6102    3.1744  -56.2563 H   0  0  0  0  0  0  0  0  0  0  0  0
    4.0950    2.2051  -56.8199 H   0  0  0  0  0  0  0  0  0  0  0  0
    3.0603    2.0755  -59.0793 H   0  0  0  0  0  0  0  0  0  0  0  0
    4.4776    2.2197  -61.1195 H   0  0  0  0  0  0  0  0  0  0  0  0
    7.9953    2.6442  -58.6377 H   0  0  0  0  0  0  0  0  0  0  0  0
   11.5840    1.0560  -55.7370 H   0  0  0  0  0  0  0  0  0  0  0  0
   12.4976    2.1301  -57.3538 H   0  0  0  0  0  0  0  0  0  0  0  0
   11.4145    3.8738  -55.9032 H   0  0  0  0  0  0  0  0  0  0  0  0
   12.8485    5.7529  -56.7657 H   0  0  0  0  0  0  0  0  0  0  0  0
   13.7079    4.1758  -56.9072 H   0  0  0  0  0  0  0  0  0  0  0  0
   13.9738    5.5193  -58.9891 H   0  0  0  0  0  0  0  0  0  0  0  0
   11.8353    6.8095  -58.7823 H   0  0  0  0  0  0  0  0  0  0  0  0
   11.9520    5.9954  -60.3834 H   0  0  0  0  0  0  0  0  0  0  0  0
    9.6785    5.7121  -59.3911 H   0  0  0  0  0  0  0  0  0  0  0  0
   10.3518    5.8388  -56.9952 H   0  0  0  0  0  0  0  0  0  0  0  0
    9.4306    4.3259  -57.3284 H   0  0  0  0  0  0  0  0  0  0  0  0
    9.5914    3.2236  -59.5588 H   0  0  0  0  0  0  0  0  0  0  0  0
   10.6699    3.9168  -60.8252 H   0  0  0  0  0  0  0  0  0  0  0  0
   11.6824    1.9107  -59.7360 H   0  0  0  0  0  0  0  0  0  0  0  0
   13.8731    3.0346  -59.1466 H   0  0  0  0  0  0  0  0  0  0  0  0
   13.1219    3.8035  -60.5922 H   0  0  0  0  0  0  0  0  0  0  0  0
   12.6234   -4.4970  -54.3310 H   0  0  0  0  0  0  0  0  0  0  0  0
   11.0059   -5.2001  -54.7718 H   0  0  0  0  0  0  0  0  0  0  0  0
   13.1481   -6.2498  -55.8060 H   0  0  0  0  0  0  0  0  0  0  0  0
   11.7380   -5.9105  -56.8657 H   0  0  0  0  0  0  0  0  0  0  0  0
   13.1494   -4.7994  -56.8657 H   0  0  0  0  0  0  0  0  0  0  0  0
    8.0104   -3.5702  -54.9777 H   0  0  0  0  0  0  0  0  0  0  0  0
    6.6995   -4.1701  -52.9478 H   0  0  0  0  0  0  0  0  0  0  0  0
  1  2  1  0
  2  3  1  0
  3  4  1  0
  4  5  2  0
  5  6  1  0
  6  7  1  0
  7  8  2  0
  8  9  1  0
  9 10  1  0
 10 11  1  0
 11 12  1  0
 12 13  1  0
 12 14  1  0
 14 15  1  0
 15 16  1  0
 16 17  2  0
 17 18  1  0
 18 19  2  0
 19 20  1  0
 20 21  1  0
 21 22  1  0
 21 23  1  0
 21 24  1  0
 20 25  2  0
  9 26  1  0
 26 27  1  0
 27 28  2  0
 27 29  1  0
 29 30  1  0
 30 31  1  0
 31 32  1  0
 32 33  1  0
 33 34  1  0
 34 35  1  0
 34 36  1  0
 36 37  1  0
 37 38  1  0
  8 39  1  0
 39 40  2  0
 40 41  1  0
 41 42  1  0
 42 43  1  0
  6 44  2  0
 44 45  1  0
 45  3  2  0
 41  7  1  0
 14 11  1  0
 25 16  1  0
 37 29  1  0
 35 30  1  0
 38 32  1  0
  1 46  1  0
  1 47  1  0
  1 48  1  0
  2 49  1  0
  2 50  1  0
  4 51  1  0
  5 52  1  0
  9 53  1  6
 10 54  1  0
 10 55  1  0
 11 56  1  1
 12 57  1  1
 13 58  1  0
 13 59  1  0
 13 60  1  0
 14 61  1  6
 15 62  1  0
 15 63  1  0
 17 64  1  0
 18 65  1  0
 19 66  1  0
 25 67  1  0
 26 68  1  0
 29 69  1  6
 30 70  1  6
 31 71  1  0
 31 72  1  0
 32 73  1  6
 33 74  1  0
 33 75  1  0
 34 76  1  1
 35 77  1  0
 35 78  1  0
 36 79  1  0
 36 80  1  0
 37 81  1  1
 38 82  1  0
 38 83  1  0
 42 84  1  0
 42 85  1  0
 43 86  1  0
 43 87  1  0
 43 88  1  0
 44 89  1  0
 45 90  1  0
M  CHG  1  14   1
M  END
>  <meeko>  (247) 
{"is_sidechain": false}

$$$$

     RDKit          3D

 90 96  0  0  0  0  0  0  0  0999 V2000
    6.0490   -4.2060  -50.5130 C   0  0  0  0  0  0  0  0  0  0  0  0
    7.5080   -3.8860  -50.2260 C   0  0  0  0  0  0  0  0  0  0  0  0
    8.2500   -3.4860  -51.4770 C   0  0  0  0  0  0  0  0  0  0  0  0
    7.7120   -3.7580  -52.7400 C   0  0  0  0  0  0  0  0  0  0  0  0
    8.3980   -3.3810  -53.8980 C   0  0  0  0  0  0  0  0  0  0  0  0
    9.6260   -2.7160  -53.8090 C   0  0  0  0  0  0  0  0  0  0  0  0
   10.3680   -2.3760  -55.0120 C   0  0  0  0  0  0  0  0  0  0  0  0
   10.5600   -1.1530  -55.6430 C   0  0  0  0  0  0  0  0  0  0  0  0
   10.0360    0.2120  -55.2860 C   0  0  2  0  0  0  0  0  0  0  0  0
    8.8770    0.1450  -54.2590 C   0  0  0  0  0  0  0  0  0  0  0  0
    7.6510   -0.5570  -54.7760 C   0  0  1  0  0  0  0  0  0  0  0  0
    6.2670   -0.2190  -54.2350 C   0  0  2  0  0  0  0  0  0  0  0  0
    5.2700   -1.3020  -54.0030 C   0  0  0  0  0  0  0  0  0  0  0  0
    6.6480    0.1400  -55.5980 N   0  0  1  0  0  0  0  0  0  0  0  0
    6.7900    1.5570  -55.9700 C   0  0  0  0  0  0  0  0  0  0  0  0
    5.9770    1.8780  -57.1970 C   0  0  0  0  0  0  0  0  0  0  0  0
    4.6150    2.1960  -57.0850 C   0  0  0  0  0  0  0  0  0  0  0  0
    3.8700    2.5250  -58.2160 C   0  0  0  0  0  0  0  0  0  0  0  0
    4.4750    2.5530  -59.4720 C   0  0  0  0  0  0  0  0  0  0  0  0
    5.8380    2.2550  -59.6110 C   0  0  0  0  0  0  0  0  0  0  0  0
    6.5010    2.2690  -60.9700 C   0  0  0  0  0  0  0  0  0  0  0  0
    6.7210    3.5190  -61.4550 F   0  0  0  0  0  0  0  0  0  0  0  0
    7.7160    1.6520  -60.9490 F   0  0  0  0  0  0  0  0  0  0  0  0
    5.7650    1.6150  -61.9070 F   0  0  0  0  0  0  0  0  0  0  0  0
    6.5780    1.9140  -58.4650 C   0  0  0  0  0  0  0  0  0  0  0  0
    9.7320    0.9200  -56.5290 N   0  0  0  0  0  0  0  0  0  0  0  0
    9.9570    2.2740  -56.6710 C   0  0  0  0  0  0  0  0  0  0  0  0
   10.0470    3.0110  -55.6960 O   0  0  0  0  0  0  0  0  0  0  0  0
    9.9690    2.7730  -58.1210 C   0  0  2  0  0  0  0  0  0  0  0  0
   11.3850    2.8410  -58.7470 C   0  0  1  0  0  0  0  0  0  0  0  0
   11.2420    3.1470  -60.2500 C   0  0  0  0  0  0  0  0  0  0  0  0
   10.5340    4.4980  -60.4530 C   0  0  2  0  0  0  0  0  0  0  0  0
   11.3750    5.6030  -59.7900 C   0  0  0  0  0  0  0  0  0  0  0  0
   11.5230    5.3200  -58.2870 C   0  0  2  0  0  0  0  0  0  0  0  0
   12.2120    3.9610  -58.0870 C   0  0  0  0  0  0  0  0  0  0  0  0
   10.1260    5.2750  -57.6460 C   0  0  0  0  0  0  0  0  0  0  0  0
    9.2810    4.1540  -58.2850 C   0  0  1  0  0  0  0  0  0  0  0  0
    9.1450    4.4520  -59.7930 C   0  0  0  0  0  0  0  0  0  0  0  0
   11.3730   -1.3300  -56.7320 N   0  0  0  0  0  0  0  0  0  0  0  0
   11.6810   -2.6110  -56.8210 N   0  0  0  0  0  0  0  0  0  0  0  0
   11.0670   -3.2540  -55.8060 N   0  0  0  0  0  0  0  0  0  0  0  0
   11.1640   -4.6970  -55.7190 C   0  0  0  0  0  0  0  0  0  0  0  0
   12.5560   -5.2080  -56.0450 C   0  0  0  0  0  0  0  0  0  0  0  0
   10.1570   -2.4310  -52.5470 C   0  0  0  0  0  0  0  0  0  0  0  0
    9.4730   -2.8110  -51.3900 C   0  0  0  0  0  0  0  0  0  0  0  0
    5.5061   -4.3251  -49.5637 H   0  0  0  0  0  0  0  0  0  0  0  0
    5.6004   -3.3849  -51.0914 H   0  0  0  0  0  0  0  0  0  0  0  0
    5.9853   -5.1395  -51.0914 H   0  0  0  0  0  0  0  0  0  0  0  0
    7.5555   -3.0578  -49.5036 H   0  0  0  0  0  0  0  0  0  0  0  0
    7.9835   -4.7915  -49.8210 H   0  0  0  0  0  0  0  0  0  0  0  0
    6.7429   -4.2719  -52.8219 H   0  0  0  0  0  0  0  0  0  0  0  0
    7.9699   -3.6085  -54.8854 H   0  0  0  0  0  0  0  0  0  0  0  0
   10.7993    0.7976  -54.7525 H   0  0  0  0  0  0  0  0  0  0  0  0
    9.2338   -0.3908  -53.3671 H   0  0  0  0  0  0  0  0  0  0  0  0
    8.5842    1.1817  -54.0365 H   0  0  0  0  0  0  0  0  0  0  0  0
    8.2581   -1.4677  -54.8860 H   0  0  0  0  0  0  0  0  0  0  0  0
    5.8806    0.3239  -53.3598 H   0  0  0  0  0  0  0  0  0  0  0  0
    5.1340   -1.4497  -52.9215 H   0  0  0  0  0  0  0  0  0  0  0  0
    4.3092   -1.0196  -54.4581 H   0  0  0  0  0  0  0  0  0  0  0  0
    5.6308   -2.2362  -54.4581 H   0  0  0  0  0  0  0  0  0  0  0  0
    6.2340   -0.4620  -56.3220 H   0  0  0  0  0  0  0  0  0  0  0  0
    6.4441    2.1843  -55.1352 H   0  0  0  0  0  0  0  0  0  0  0  0
    7.8492    1.7568  -56.1897 H   0  0  0  0  0  0  0  0  0  0  0  0
    4.1315    2.1856  -56.0970 H   0  0  0  0  0  0  0  0  0  0  0  0
    2.8007    2.7635  -58.1175 H   0  0  0  0  0  0  0  0  0  0  0  0
    3.8789    2.8106  -60.3598 H   0  0  0  0  0  0  0  0  0  0  0  0
    7.6463    1.6713  -58.5639 H   0  0  0  0  0  0  0  0  0  0  0  0
    9.8200    0.3700  -57.3760 H   0  0  0  0  0  0  0  0  0  0  0  0
    9.3908    2.0122  -58.6659 H   0  0  0  0  0  0  0  0  0  0  0  0
   11.8970    1.8801  -58.5908 H   0  0  0  0  0  0  0  0  0  0  0  0
   12.2408    3.1878  -60.7090 H   0  0  0  0  0  0  0  0  0  0  0  0
   10.6435    2.3540  -60.7221 H   0  0  0  0  0  0  0  0  0  0  0  0
   10.4215    4.7037  -61.5277 H   0  0  0  0  0  0  0  0  0  0  0  0
   12.3714    5.6312  -60.2553 H   0  0  0  0  0  0  0  0  0  0  0  0
   10.8717    6.5714  -59.9274 H   0  0  0  0  0  0  0  0  0  0  0  0
   12.1268    6.1115  -57.8191 H   0  0  0  0  0  0  0  0  0  0  0  0
   13.2125    3.9906  -58.5433 H   0  0  0  0  0  0  0  0  0  0  0  0
   12.2957    3.7569  -57.0093 H   0  0  0  0  0  0  0  0  0  0  0  0
   10.2273    5.0834  -56.5676 H   0  0  0  0  0  0  0  0  0  0  0  0
    9.6247    6.2401  -57.8112 H   0  0  0  0  0  0  0  0  0  0  0  0
    8.3000    4.1216  -57.7884 H   0  0  0  0  0  0  0  0  0  0  0  0
    8.5437    3.6621  -60.2667 H   0  0  0  0  0  0  0  0  0  0  0  0
    8.6533    5.4274  -59.9232 H   0  0  0  0  0  0  0  0  0  0  0  0
   10.9055   -5.0067  -54.6956 H   0  0  0  0  0  0  0  0  0  0  0  0
   10.4703   -5.1233  -56.4586 H   0  0  0  0  0  0  0  0  0  0  0  0
   13.1012   -5.4081  -55.1108 H   0  0  0  0  0  0  0  0  0  0  0  0
   12.4781   -6.1362  -56.6302 H   0  0  0  0  0  0  0  0  0  0  0  0
   13.0972   -4.4499  -56.6302 H   0  0  0  0  0  0  0  0  0  0  0  0
   11.1192   -1.9043  -52.4651 H   0  0  0  0  0  0  0  0  0  0  0  0
    9.8988   -2.5780  -50.4029 H   0  0  0  0  0  0  0  0  0  0  0  0
  1  2  1  0
  2  3  1  0
  3  4  1  0
  4  5  2  0
  5  6  1  0
  6  7  1  0
  7  8  2  0
  8  9  1  0
  9 10  1  0
 10 11  1  0
 11 12  1  0
 12 13  1  0
 12 14  1  0
 14 15  1  0
 15 16  1  0
 16 17  2  0
 17 18  1  0
 18 19  2  0
 19 20  1  0
 20 21  1  0
 21 22  1  0
 21 23  1  0
 21 24  1  0
 20 25  2  0
  9 26  1  0
 26 27  1  0
 27 28  2  0
 27 29  1  0
 29 30  1  0
 30 31  1  0
 31 32  1  0
 32 33  1  0
 33 34  1  0
 34 35  1  0
 34 36  1  0
 36 37  1  0
 37 38  1  0
  8 39  1  0
 39 40  2  0
 40 41  1  0
 41 42  1  0
 42 43  1  0
  6 44  2  0
 44 45  1  0
 45  3  2  0
 41  7  1  0
 14 11  1  0
 25 16  1  0
 37 29  1  0
 35 30  1  0
 38 32  1  0
  1 46  1  0
  1 47  1  0
  1 48  1  0
  2 49  1  0
  2 50  1  0
  4 51  1  0
  5 52  1  0
  9 53  1  1
 10 54  1  0
 10 55  1  0
 11 56  1  6
 12 57  1  1
 13 58  1  0
 13 59  1  0
 13 60  1  0
 14 61  1  6
 15 62  1  0
 15 63  1  0
 17 64  1  0
 18 65  1  0
 19 66  1  0
 25 67  1  0
 26 68  1  0
 29 69  1  1
 30 70  1  1
 31 71  1  0
 31 72  1  0
 32 73  1  1
 33 74  1  0
 33 75  1  0
 34 76  1  6
 35 77  1  0
 35 78  1  0
 36 79  1  0
 36 80  1  0
 37 81  1  6
 38 82  1  0
 38 83  1  0
 42 84  1  0
 42 85  1  0
 43 86  1  0
 43 87  1  0
 43 88  1  0
 44 89  1  0
 45 90  1  0
M  CHG  1  14   1
M  END
>  <meeko>  (248) 
{"is_sidechain": false}

$$$$

     RDKit          3D

 90 96  0  0  0  0  0  0  0  0999 V2000
    5.9500   -4.1140  -50.9250 C   0  0  0  0  0  0  0  0  0  0  0  0
    7.3130   -3.5610  -50.5380 C   0  0  0  0  0  0  0  0  0  0  0  0
    8.1650   -3.2710  -51.7490 C   0  0  0  0  0  0  0  0  0  0  0  0
    9.3850   -2.5990  -51.6130 C   0  0  0  0  0  0  0  0  0  0  0  0
   10.1670   -2.3190  -52.7360 C   0  0  0  0  0  0  0  0  0  0  0  0
    9.7350   -2.7000  -54.0100 C   0  0  0  0  0  0  0  0  0  0  0  0
   10.5840   -2.4800  -55.1700 C   0  0  0  0  0  0  0  0  0  0  0  0
   10.6500   -1.4160  -56.0630 C   0  0  0  0  0  0  0  0  0  0  0  0
    9.8880   -0.1200  -56.0980 C   0  0  1  0  0  0  0  0  0  0  0  0
    9.0980    0.1470  -54.7930 C   0  0  0  0  0  0  0  0  0  0  0  0
    7.6760   -0.3410  -54.8710 C   0  0  1  0  0  0  0  0  0  0  0  0
    6.5910    0.2450  -53.9750 C   0  0  2  0  0  0  0  0  0  0  0  0
    5.5430   -0.6380  -53.3880 C   0  0  0  0  0  0  0  0  0  0  0  0
    6.6010    0.5010  -55.4140 N   0  0  1  0  0  0  0  0  0  0  0  0
    6.8390    1.8740  -55.8990 C   0  0  0  0  0  0  0  0  0  0  0  0
    6.1360    2.1140  -57.2100 C   0  0  0  0  0  0  0  0  0  0  0  0
    4.7370    2.1950  -57.2630 C   0  0  0  0  0  0  0  0  0  0  0  0
    4.0870    2.3870  -58.4820 C   0  0  0  0  0  0  0  0  0  0  0  0
    4.8230    2.4910  -59.6620 C   0  0  0  0  0  0  0  0  0  0  0  0
    6.2210    2.3980  -59.6380 C   0  0  0  0  0  0  0  0  0  0  0  0
    7.0280    2.5260  -60.9120 C   0  0  0  0  0  0  0  0  0  0  0  0
    8.0150    1.5890  -60.9830 F   0  0  0  0  0  0  0  0  0  0  0  0
    7.6470    3.7320  -61.0080 F   0  0  0  0  0  0  0  0  0  0  0  0
    6.2880    2.3790  -62.0410 F   0  0  0  0  0  0  0  0  0  0  0  0
    6.8690    2.2130  -58.4040 C   0  0  0  0  0  0  0  0  0  0  0  0
   10.7990    0.9820  -56.3740 N   0  0  0  0  0  0  0  0  0  0  0  0
   10.5450    1.8340  -57.4290 C   0  0  0  0  0  0  0  0  0  0  0  0
    9.4780    1.7930  -58.0350 O   0  0  0  0  0  0  0  0  0  0  0  0
   11.7120    2.7550  -57.7890 C   0  0  2  0  0  0  0  0  0  0  0  0
   11.6600    4.1320  -57.0830 C   0  0  1  0  0  0  0  0  0  0  0  0
   12.9920    4.8630  -57.3460 C   0  0  0  0  0  0  0  0  0  0  0  0
   13.1940    5.0710  -58.8580 C   0  0  2  0  0  0  0  0  0  0  0  0
   12.0340    5.9200  -59.4030 C   0  0  0  0  0  0  0  0  0  0  0  0
   10.6960    5.2030  -59.1570 C   0  0  2  0  0  0  0  0  0  0  0  0
   10.5050    4.9800  -57.6490 C   0  0  0  0  0  0  0  0  0  0  0  0
   10.7190    3.8410  -59.8680 C   0  0  0  0  0  0  0  0  0  0  0  0
   11.8650    2.9690  -59.3150 C   0  0  1  0  0  0  0  0  0  0  0  0
   13.1980    3.7040  -59.5670 C   0  0  0  0  0  0  0  0  0  0  0  0
   11.6240   -1.6730  -56.9930 N   0  0  0  0  0  0  0  0  0  0  0  0
   12.1760   -2.8390  -56.7140 N   0  0  0  0  0  0  0  0  0  0  0  0
   11.5630   -3.3350  -55.6210 N   0  0  0  0  0  0  0  0  0  0  0  0
   12.0110   -4.5930  -55.0590 C   0  0  0  0  0  0  0  0  0  0  0  0
   12.6330   -5.4990  -56.1060 C   0  0  0  0  0  0  0  0  0  0  0  0
    8.5120   -3.3640  -54.1500 C   0  0  0  0  0  0  0  0  0  0  0  0
    7.7310   -3.6440  -53.0260 C   0  0  0  0  0  0  0  0  0  0  0  0
    5.3769   -4.3465  -50.0153 H   0  0  0  0  0  0  0  0  0  0  0  0
    5.4060   -3.3655  -51.5198 H   0  0  0  0  0  0  0  0  0  0  0  0
    6.0813   -5.0300  -51.5198 H   0  0  0  0  0  0  0  0  0  0  0  0
    7.1712   -2.6291  -49.9711 H   0  0  0  0  0  0  0  0  0  0  0  0
    7.8293   -4.3189  -49.9305 H   0  0  0  0  0  0  0  0  0  0  0  0
    9.7302   -2.2894  -50.6155 H   0  0  0  0  0  0  0  0  0  0  0  0
   11.1275   -1.7961  -52.6175 H   0  0  0  0  0  0  0  0  0  0  0  0
    9.1453   -0.2004  -56.9054 H   0  0  0  0  0  0  0  0  0  0  0  0
    9.6031   -0.3686  -53.9629 H   0  0  0  0  0  0  0  0  0  0  0  0
    9.0702    1.2353  -54.6353 H   0  0  0  0  0  0  0  0  0  0  0  0
    8.0675   -1.3469  -55.0830 H   0  0  0  0  0  0  0  0  0  0  0  0
    6.5789    0.8636  -53.0655 H   0  0  0  0  0  0  0  0  0  0  0  0
    5.5975   -0.5921  -52.2903 H   0  0  0  0  0  0  0  0  0  0  0  0
    4.5504   -0.2999  -53.7203 H   0  0  0  0  0  0  0  0  0  0  0  0
    5.7078   -1.6736  -53.7203 H   0  0  0  0  0  0  0  0  0  0  0  0
    5.8850   -0.0270  -55.9290 H   0  0  0  0  0  0  0  0  0  0  0  0
    6.4625    2.5892  -55.1529 H   0  0  0  0  0  0  0  0  0  0  0  0
    7.9200    2.0089  -56.0516 H   0  0  0  0  0  0  0  0  0  0  0  0
    4.1488    2.1066  -56.3377 H   0  0  0  0  0  0  0  0  0  0  0  0
    2.9896    2.4567  -58.5128 H   0  0  0  0  0  0  0  0  0  0  0  0
    4.3024    2.6471  -60.6184 H   0  0  0  0  0  0  0  0  0  0  0  0
    7.9665    2.1448  -58.3732 H   0  0  0  0  0  0  0  0  0  0  0  0
   11.7640    0.9000  -56.0760 H   0  0  0  0  0  0  0  0  0  0  0  0
   12.5957    2.2162  -57.4165 H   0  0  0  0  0  0  0  0  0  0  0  0
   11.4998    3.9854  -56.0047 H   0  0  0  0  0  0  0  0  0  0  0  0
   12.9750    5.8414  -56.8436 H   0  0  0  0  0  0  0  0  0  0  0  0
   13.8196    4.2539  -56.9535 H   0  0  0  0  0  0  0  0  0  0  0  0
   14.1515    5.5812  -59.0393 H   0  0  0  0  0  0  0  0  0  0  0  0
   12.0244    6.8942  -58.8923 H   0  0  0  0  0  0  0  0  0  0  0  0
   12.1713    6.0668  -60.4845 H   0  0  0  0  0  0  0  0  0  0  0  0
    9.8703    5.8166  -59.5465 H   0  0  0  0  0  0  0  0  0  0  0  0
   10.4856    5.9538  -57.1378 H   0  0  0  0  0  0  0  0  0  0  0  0
    9.5564    4.4483  -57.4834 H   0  0  0  0  0  0  0  0  0  0  0  0
    9.7600    3.3284  -59.7018 H   0  0  0  0  0  0  0  0  0  0  0  0
   10.8783    4.0014  -60.9445 H   0  0  0  0  0  0  0  0  0  0  0  0
   11.8409    1.9906  -59.8171 H   0  0  0  0  0  0  0  0  0  0  0  0
   14.0276    3.0954  -59.1780 H   0  0  0  0  0  0  0  0  0  0  0  0
   13.3223    3.8611  -60.6486 H   0  0  0  0  0  0  0  0  0  0  0  0
   12.7592   -4.3864  -54.2796 H   0  0  0  0  0  0  0  0  0  0  0  0
   11.1329   -5.1094  -54.6439 H   0  0  0  0  0  0  0  0  0  0  0  0
   13.1881   -6.3076  -55.6080 H   0  0  0  0  0  0  0  0  0  0  0  0
   11.8404   -5.9313  -56.7344 H   0  0  0  0  0  0  0  0  0  0  0  0
   13.3213   -4.9146  -56.7344 H   0  0  0  0  0  0  0  0  0  0  0  0
    8.1639   -3.6668  -55.1486 H   0  0  0  0  0  0  0  0  0  0  0  0
    6.7677   -4.1615  -53.1457 H   0  0  0  0  0  0  0  0  0  0  0  0
  1  2  1  0
  2  3  1  0
  3  4  1  0
  4  5  2  0
  5  6  1  0
  6  7  1  0
  7  8  2  0
  8  9  1  0
  9 10  1  0
 10 11  1  0
 11 12  1  0
 12 13  1  0
 12 14  1  0
 14 15  1  0
 15 16  1  0
 16 17  2  0
 17 18  1  0
 18 19  2  0
 19 20  1  0
 20 21  1  0
 21 22  1  0
 21 23  1  0
 21 24  1  0
 20 25  2  0
  9 26  1  0
 26 27  1  0
 27 28  2  0
 27 29  1  0
 29 30  1  0
 30 31  1  0
 31 32  1  0
 32 33  1  0
 33 34  1  0
 34 35  1  0
 34 36  1  0
 36 37  1  0
 37 38  1  0
  8 39  1  0
 39 40  2  0
 40 41  1  0
 41 42  1  0
 42 43  1  0
  6 44  2  0
 44 45  1  0
 45  3  2  0
 41  7  1  0
 14 11  1  0
 25 16  1  0
 37 29  1  0
 35 30  1  0
 38 32  1  0
  1 46  1  0
  1 47  1  0
  1 48  1  0
  2 49  1  0
  2 50  1  0
  4 51  1  0
  5 52  1  0
  9 53  1  6
 10 54  1  0
 10 55  1  0
 11 56  1  6
 12 57  1  1
 13 58  1  0
 13 59  1  0
 13 60  1  0
 14 61  1  6
 15 62  1  0
 15 63  1  0
 17 64  1  0
 18 65  1  0
 19 66  1  0
 25 67  1  0
 26 68  1  0
 29 69  1  6
 30 70  1  6
 31 71  1  0
 31 72  1  0
 32 73  1  6
 33 74  1  0
 33 75  1  0
 34 76  1  1
 35 77  1  0
 35 78  1  0
 36 79  1  0
 36 80  1  0
 37 81  1  1
 38 82  1  0
 38 83  1  0
 42 84  1  0
 42 85  1  0
 43 86  1  0
 43 87  1  0
 43 88  1  0
 44 89  1  0
 45 90  1  0
M  CHG  1  14   1
M  END
>  <meeko>  (249) 
{"is_sidechain": false}

$$$$

     RDKit          3D

 90 96  0  0  0  0  0  0  0  0999 V2000
   13.1150    4.1660  -59.1560 C   0  0  0  0  0  0  0  0  0  0  0  0
   12.6030    4.4750  -57.7590 C   0  0  0  0  0  0  0  0  0  0  0  0
   11.2870    3.7970  -57.4710 C   0  0  0  0  0  0  0  0  0  0  0  0
   10.2880    4.4640  -56.7510 C   0  0  0  0  0  0  0  0  0  0  0  0
    9.0710    3.8360  -56.4750 C   0  0  0  0  0  0  0  0  0  0  0  0
    8.8320    2.5310  -56.9200 C   0  0  0  0  0  0  0  0  0  0  0  0
    7.5730    1.8720  -56.6100 C   0  0  0  0  0  0  0  0  0  0  0  0
    7.2280    0.9810  -55.6020 C   0  0  0  0  0  0  0  0  0  0  0  0
    8.0590    0.4050  -54.4990 C   0  0  2  0  0  0  0  0  0  0  0  0
    9.4670   -0.0340  -54.9630 C   0  0  0  0  0  0  0  0  0  0  0  0
    9.8530   -1.3810  -54.4190 C   0  0  2  0  0  0  0  0  0  0  0  0
   11.2710   -1.6740  -53.9430 C   0  0  1  0  0  0  0  0  0  0  0  0
   11.4920   -2.5080  -52.7290 C   0  0  0  0  0  0  0  0  0  0  0  0
   10.7740   -2.2190  -55.2010 N   0  0  1  0  0  0  0  0  0  0  0  0
   10.4630   -3.6490  -55.3880 C   0  0  0  0  0  0  0  0  0  0  0  0
   11.3480   -4.2580  -56.4430 C   0  0  0  0  0  0  0  0  0  0  0  0
   10.8130   -5.1200  -57.4110 C   0  0  0  0  0  0  0  0  0  0  0  0
   11.6260   -5.6560  -58.4100 C   0  0  0  0  0  0  0  0  0  0  0  0
   12.9810   -5.3330  -58.4590 C   0  0  0  0  0  0  0  0  0  0  0  0
   13.5400   -4.4640  -57.5130 C   0  0  0  0  0  0  0  0  0  0  0  0
   15.0130   -4.1190  -57.5500 C   0  0  0  0  0  0  0  0  0  0  0  0
   15.6550   -4.5110  -56.4130 F   0  0  0  0  0  0  0  0  0  0  0  0
   15.6560   -4.7360  -58.5760 F   0  0  0  0  0  0  0  0  0  0  0  0
   15.2570   -2.7900  -57.6820 F   0  0  0  0  0  0  0  0  0  0  0  0
   12.7130   -3.9330  -56.5060 C   0  0  0  0  0  0  0  0  0  0  0  0
    7.3430   -0.7110  -53.9070 N   0  0  0  0  0  0  0  0  0  0  0  0
    7.1860   -0.7940  -52.5420 C   0  0  0  0  0  0  0  0  0  0  0  0
    7.7150    0.0250  -51.7950 O   0  0  0  0  0  0  0  0  0  0  0  0
    6.3930   -2.0110  -52.0600 C   0  0  2  0  0  0  0  0  0  0  0  0
    6.4920   -2.2540  -50.5350 C   0  0  1  0  0  0  0  0  0  0  0  0
    5.4870   -3.3600  -50.1510 C   0  0  0  0  0  0  0  0  0  0  0  0
    5.8190   -4.6630  -50.8970 C   0  0  2  0  0  0  0  0  0  0  0  0
    7.2370   -5.1130  -50.5080 C   0  0  0  0  0  0  0  0  0  0  0  0
    8.2570   -4.0280  -50.8910 C   0  0  2  0  0  0  0  0  0  0  0  0
    7.9100   -2.7220  -50.1580 C   0  0  0  0  0  0  0  0  0  0  0  0
    8.1870   -3.7870  -52.4070 C   0  0  0  0  0  0  0  0  0  0  0  0
    6.7760   -3.3130  -52.8090 C   0  0  1  0  0  0  0  0  0  0  0  0
    5.7670   -4.4120  -52.4160 C   0  0  0  0  0  0  0  0  0  0  0  0
    5.9130    0.6250  -55.7470 N   0  0  0  0  0  0  0  0  0  0  0  0
    5.4320    1.2230  -56.8210 N   0  0  0  0  0  0  0  0  0  0  0  0
    6.4100    1.9950  -57.3350 N   0  0  0  0  0  0  0  0  0  0  0  0
    6.1570    2.7500  -58.5470 C   0  0  0  0  0  0  0  0  0  0  0  0
    6.4800    1.9540  -59.8000 C   0  0  0  0  0  0  0  0  0  0  0  0
    9.8180    1.8720  -57.6610 C   0  0  0  0  0  0  0  0  0  0  0  0
   11.0370    2.4990  -57.9330 C   0  0  0  0  0  0  0  0  0  0  0  0
   14.0548    3.5988  -59.0849 H   0  0  0  0  0  0  0  0  0  0  0  0
   12.3663    3.5688  -59.6971 H   0  0  0  0  0  0  0  0  0  0  0  0
   13.2945    5.1067  -59.6971 H   0  0  0  0  0  0  0  0  0  0  0  0
   13.3467    4.1310  -57.0251 H   0  0  0  0  0  0  0  0  0  0  0  0
   12.4450    5.5614  -57.6902 H   0  0  0  0  0  0  0  0  0  0  0  0
   10.4632    5.4916  -56.3997 H   0  0  0  0  0  0  0  0  0  0  0  0
    8.2966    4.3701  -55.9049 H   0  0  0  0  0  0  0  0  0  0  0  0
    8.2223    1.1964  -53.7526 H   0  0  0  0  0  0  0  0  0  0  0  0
    9.4790   -0.0797  -56.0620 H   0  0  0  0  0  0  0  0  0  0  0  0
   10.1910    0.7021  -54.5835 H   0  0  0  0  0  0  0  0  0  0  0  0
    8.8533   -1.4840  -53.9718 H   0  0  0  0  0  0  0  0  0  0  0  0
   12.1577   -1.0884  -53.6588 H   0  0  0  0  0  0  0  0  0  0  0  0
   11.3299   -1.8962  -51.8293 H   0  0  0  0  0  0  0  0  0  0  0  0
   10.7865   -3.3520  -52.7305 H   0  0  0  0  0  0  0  0  0  0  0  0
   12.5229   -2.8918  -52.7305 H   0  0  0  0  0  0  0  0  0  0  0  0
   11.1550   -1.7460  -56.0310 H   0  0  0  0  0  0  0  0  0  0  0  0
   10.6195   -4.1789  -54.4369 H   0  0  0  0  0  0  0  0  0  0  0  0
    9.4158   -3.7414  -55.7116 H   0  0  0  0  0  0  0  0  0  0  0  0
    9.7435   -5.3757  -57.3824 H   0  0  0  0  0  0  0  0  0  0  0  0
   11.1965   -6.3353  -59.1610 H   0  0  0  0  0  0  0  0  0  0  0  0
   13.6165   -5.7639  -59.2467 H   0  0  0  0  0  0  0  0  0  0  0  0
   13.1424   -3.2524  -55.7561 H   0  0  0  0  0  0  0  0  0  0  0  0
    6.9550   -1.4290  -54.5070 H   0  0  0  0  0  0  0  0  0  0  0  0
    5.3491   -1.7570  -52.2959 H   0  0  0  0  0  0  0  0  0  0  0  0
    6.2694   -1.3179  -50.0019 H   0  0  0  0  0  0  0  0  0  0  0  0
    5.5402   -3.5386  -49.0669 H   0  0  0  0  0  0  0  0  0  0  0  0
    4.4734   -3.0358  -50.4295 H   0  0  0  0  0  0  0  0  0  0  0  0
    5.0897   -5.4413  -50.6281 H   0  0  0  0  0  0  0  0  0  0  0  0
    7.2793   -5.2858  -49.4225 H   0  0  0  0  0  0  0  0  0  0  0  0
    7.4804   -6.0424  -51.0436 H   0  0  0  0  0  0  0  0  0  0  0  0
    9.2691   -4.3537  -50.6087 H   0  0  0  0  0  0  0  0  0  0  0  0
    7.9587   -2.8920  -49.0723 H   0  0  0  0  0  0  0  0  0  0  0  0
    8.6315   -1.9456  -50.4523 H   0  0  0  0  0  0  0  0  0  0  0  0
    8.9216   -3.0174  -52.6864 H   0  0  0  0  0  0  0  0  0  0  0  0
    8.4105   -4.7287  -52.9297 H   0  0  0  0  0  0  0  0  0  0  0  0
    6.7607   -3.1181  -53.8915 H   0  0  0  0  0  0  0  0  0  0  0  0
    4.7529   -4.0915  -52.6969 H   0  0  0  0  0  0  0  0  0  0  0  0
    6.0261   -5.3423  -52.9427 H   0  0  0  0  0  0  0  0  0  0  0  0
    5.0944    3.0333  -58.5720 H   0  0  0  0  0  0  0  0  0  0  0  0
    6.8087    3.6360  -58.5338 H   0  0  0  0  0  0  0  0  0  0  0  0
    6.8796    0.9693  -59.5160 H   0  0  0  0  0  0  0  0  0  0  0  0
    5.5649    1.8205  -60.3956 H   0  0  0  0  0  0  0  0  0  0  0  0
    7.2294    2.4959  -60.3956 H   0  0  0  0  0  0  0  0  0  0  0  0
    9.6329    0.8532  -58.0323 H   0  0  0  0  0  0  0  0  0  0  0  0
   11.8058    1.9689  -58.5143 H   0  0  0  0  0  0  0  0  0  0  0  0
  1  2  1  0
  2  3  1  0
  3  4  1  0
  4  5  2  0
  5  6  1  0
  6  7  1  0
  7  8  2  0
  8  9  1  0
  9 10  1  0
 10 11  1  0
 11 12  1  0
 12 13  1  0
 12 14  1  0
 14 15  1  0
 15 16  1  0
 16 17  2  0
 17 18  1  0
 18 19  2  0
 19 20  1  0
 20 21  1  0
 21 22  1  0
 21 23  1  0
 21 24  1  0
 20 25  2  0
  9 26  1  0
 26 27  1  0
 27 28  2  0
 27 29  1  0
 29 30  1  0
 30 31  1  0
 31 32  1  0
 32 33  1  0
 33 34  1  0
 34 35  1  0
 34 36  1  0
 36 37  1  0
 37 38  1  0
  8 39  1  0
 39 40  2  0
 40 41  1  0
 41 42  1  0
 42 43  1  0
  6 44  2  0
 44 45  1  0
 45  3  2  0
 41  7  1  0
 14 11  1  0
 25 16  1  0
 37 29  1  0
 35 30  1  0
 38 32  1  0
  1 46  1  0
  1 47  1  0
  1 48  1  0
  2 49  1  0
  2 50  1  0
  4 51  1  0
  5 52  1  0
  9 53  1  1
 10 54  1  0
 10 55  1  0
 11 56  1  1
 12 57  1  6
 13 58  1  0
 13 59  1  0
 13 60  1  0
 14 61  1  6
 15 62  1  0
 15 63  1  0
 17 64  1  0
 18 65  1  0
 19 66  1  0
 25 67  1  0
 26 68  1  0
 29 69  1  6
 30 70  1  6
 31 71  1  0
 31 72  1  0
 32 73  1  1
 33 74  1  0
 33 75  1  0
 34 76  1  1
 35 77  1  0
 35 78  1  0
 36 79  1  0
 36 80  1  0
 37 81  1  1
 38 82  1  0
 38 83  1  0
 42 84  1  0
 42 85  1  0
 43 86  1  0
 43 87  1  0
 43 88  1  0
 44 89  1  0
 45 90  1  0
M  CHG  1  14   1
M  END
>  <meeko>  (250) 
{"is_sidechain": false}

$$$$

     RDKit          3D

 90 96  0  0  0  0  0  0  0  0999 V2000
    6.1060   -4.1190  -50.8660 C   0  0  0  0  0  0  0  0  0  0  0  0
    7.4180   -3.4280  -50.5260 C   0  0  0  0  0  0  0  0  0  0  0  0
    8.2820   -3.2290  -51.7480 C   0  0  0  0  0  0  0  0  0  0  0  0
    7.7970   -3.5550  -53.0210 C   0  0  0  0  0  0  0  0  0  0  0  0
    8.5840   -3.3400  -54.1540 C   0  0  0  0  0  0  0  0  0  0  0  0
    9.8630   -2.7870  -54.0280 C   0  0  0  0  0  0  0  0  0  0  0  0
   10.7020   -2.6140  -55.1990 C   0  0  0  0  0  0  0  0  0  0  0  0
   10.7960   -1.5560  -56.0880 C   0  0  0  0  0  0  0  0  0  0  0  0
   10.0410   -0.2630  -56.0950 C   0  0  1  0  0  0  0  0  0  0  0  0
    9.4210    0.0280  -54.7130 C   0  0  0  0  0  0  0  0  0  0  0  0
    7.9880    0.4890  -54.6490 C   0  0  2  0  0  0  0  0  0  0  0  0
    6.7890   -0.4160  -54.9400 C   0  0  1  0  0  0  0  0  0  0  0  0
    5.6100   -0.3910  -54.0310 C   0  0  0  0  0  0  0  0  0  0  0  0
    7.1490    0.6880  -55.8240 N   0  0  1  0  0  0  0  0  0  0  0  0
    6.3580    1.9200  -55.9690 C   0  0  0  0  0  0  0  0  0  0  0  0
    5.8360    2.1080  -57.3700 C   0  0  0  0  0  0  0  0  0  0  0  0
    4.4580    2.2160  -57.6080 C   0  0  0  0  0  0  0  0  0  0  0  0
    3.9740    2.4090  -58.9020 C   0  0  0  0  0  0  0  0  0  0  0  0
    4.8570    2.4970  -59.9760 C   0  0  0  0  0  0  0  0  0  0  0  0
    6.2380    2.3850  -59.7690 C   0  0  0  0  0  0  0  0  0  0  0  0
    7.2110    2.4980  -60.9210 C   0  0  0  0  0  0  0  0  0  0  0  0
    7.7970    3.7250  -60.9650 F   0  0  0  0  0  0  0  0  0  0  0  0
    6.6450    2.2990  -62.1400 F   0  0  0  0  0  0  0  0  0  0  0  0
    8.2310    1.6020  -60.8220 F   0  0  0  0  0  0  0  0  0  0  0  0
    6.7170    2.1940  -58.4600 C   0  0  0  0  0  0  0  0  0  0  0  0
   10.9540    0.7930  -56.5140 N   0  0  0  0  0  0  0  0  0  0  0  0
   10.5830    1.8030  -57.3600 C   0  0  0  0  0  0  0  0  0  0  0  0
    9.4290    1.8740  -57.7810 O   0  0  0  0  0  0  0  0  0  0  0  0
   11.6990    2.7750  -57.7410 C   0  0  2  0  0  0  0  0  0  0  0  0
   11.5540    4.1670  -57.0780 C   0  0  1  0  0  0  0  0  0  0  0  0
   12.8360    4.9760  -57.3590 C   0  0  0  0  0  0  0  0  0  0  0  0
   13.0300    5.1530  -58.8760 C   0  0  2  0  0  0  0  0  0  0  0  0
   11.8190    5.9090  -59.4480 C   0  0  0  0  0  0  0  0  0  0  0  0
   10.5310    5.1120  -59.1850 C   0  0  2  0  0  0  0  0  0  0  0  0
   10.3490    4.9210  -57.6710 C   0  0  0  0  0  0  0  0  0  0  0  0
   10.6450    3.7360  -59.8560 C   0  0  0  0  0  0  0  0  0  0  0  0
   11.8430    2.9560  -59.2730 C   0  0  1  0  0  0  0  0  0  0  0  0
   13.1260    3.7680  -59.5450 C   0  0  0  0  0  0  0  0  0  0  0  0
   11.7530   -1.8290  -57.0270 N   0  0  0  0  0  0  0  0  0  0  0  0
   12.2450   -3.0310  -56.7740 N   0  0  0  0  0  0  0  0  0  0  0  0
   11.6140   -3.5180  -55.6890 N   0  0  0  0  0  0  0  0  0  0  0  0
   11.9350   -4.8460  -55.2090 C   0  0  0  0  0  0  0  0  0  0  0  0
   12.8600   -5.5900  -56.1550 C   0  0  0  0  0  0  0  0  0  0  0  0
   10.3470   -2.4530  -52.7600 C   0  0  0  0  0  0  0  0  0  0  0  0
    9.5600   -2.6700  -51.6270 C   0  0  0  0  0  0  0  0  0  0  0  0
    5.5847   -4.3936  -49.9371 H   0  0  0  0  0  0  0  0  0  0  0  0
    5.4738   -3.4369  -51.4534 H   0  0  0  0  0  0  0  0  0  0  0  0
    6.3109   -5.0262  -51.4534 H   0  0  0  0  0  0  0  0  0  0  0  0
    7.1982   -2.4459  -50.0820 H   0  0  0  0  0  0  0  0  0  0  0  0
    7.9677   -4.0679  -49.8201 H   0  0  0  0  0  0  0  0  0  0  0  0
    6.7895   -3.9832  -53.1287 H   0  0  0  0  0  0  0  0  0  0  0  0
    8.1973   -3.6062  -55.1488 H   0  0  0  0  0  0  0  0  0  0  0  0
    9.2005   -0.3203  -56.8023 H   0  0  0  0  0  0  0  0  0  0  0  0
    9.4902   -0.8989  -54.1247 H   0  0  0  0  0  0  0  0  0  0  0  0
    9.9964    0.8863  -54.3358 H   0  0  0  0  0  0  0  0  0  0  0  0
    8.3204    1.1086  -53.8030 H   0  0  0  0  0  0  0  0  0  0  0  0
    6.6015   -1.4890  -55.0933 H   0  0  0  0  0  0  0  0  0  0  0  0
    5.9527   -0.3983  -52.9858 H   0  0  0  0  0  0  0  0  0  0  0  0
    5.0222    0.5198  -54.2178 H   0  0  0  0  0  0  0  0  0  0  0  0
    4.9841   -1.2761  -54.2178 H   0  0  0  0  0  0  0  0  0  0  0  0
    7.6020    0.3970  -56.7160 H   0  0  0  0  0  0  0  0  0  0  0  0
    5.5039    1.8745  -55.2773 H   0  0  0  0  0  0  0  0  0  0  0  0
    7.0178    2.7701  -55.7409 H   0  0  0  0  0  0  0  0  0  0  0  0
    3.7526    2.1479  -56.7667 H   0  0  0  0  0  0  0  0  0  0  0  0
    2.8909    2.4920  -59.0751 H   0  0  0  0  0  0  0  0  0  0  0  0
    4.4675    2.6554  -60.9925 H   0  0  0  0  0  0  0  0  0  0  0  0
    7.8002    2.1106  -58.2875 H   0  0  0  0  0  0  0  0  0  0  0  0
   11.9350    0.6760  -56.2660 H   0  0  0  0  0  0  0  0  0  0  0  0
   12.6121    2.3007  -57.3520 H   0  0  0  0  0  0  0  0  0  0  0  0
   11.3988    4.0416  -55.9962 H   0  0  0  0  0  0  0  0  0  0  0  0
   12.7527    5.9653  -56.8853 H   0  0  0  0  0  0  0  0  0  0  0  0
   13.7002    4.4344  -56.9470 H   0  0  0  0  0  0  0  0  0  0  0  0
   13.9529    5.7191  -59.0704 H   0  0  0  0  0  0  0  0  0  0  0  0
   11.7430    6.8943  -58.9649 H   0  0  0  0  0  0  0  0  0  0  0  0
   11.9510    6.0352  -60.5327 H   0  0  0  0  0  0  0  0  0  0  0  0
    9.6684    5.6578  -59.5947 H   0  0  0  0  0  0  0  0  0  0  0  0
   10.2643    5.9060  -57.1887 H   0  0  0  0  0  0  0  0  0  0  0  0
    9.4363    4.3336  -57.4919 H   0  0  0  0  0  0  0  0  0  0  0  0
    9.7202    3.1675  -59.6785 H   0  0  0  0  0  0  0  0  0  0  0  0
   10.7988    3.8752  -60.9363 H   0  0  0  0  0  0  0  0  0  0  0  0
   11.8833    1.9632  -59.7449 H   0  0  0  0  0  0  0  0  0  0  0  0
   13.9922    3.2265  -59.1371 H   0  0  0  0  0  0  0  0  0  0  0  0
   13.2439    3.9007  -60.6306 H   0  0  0  0  0  0  0  0  0  0  0  0
   12.4263   -4.7591  -54.2287 H   0  0  0  0  0  0  0  0  0  0  0  0
   10.9964   -5.4151  -55.1376 H   0  0  0  0  0  0  0  0  0  0  0  0
   13.5871   -6.1748  -55.5725 H   0  0  0  0  0  0  0  0  0  0  0  0
   12.2687   -6.2670  -56.7890 H   0  0  0  0  0  0  0  0  0  0  0  0
   13.3945   -4.8673  -56.7890 H   0  0  0  0  0  0  0  0  0  0  0  0
   11.3516   -2.0176  -52.6542 H   0  0  0  0  0  0  0  0  0  0  0  0
    9.9466   -2.4001  -50.6332 H   0  0  0  0  0  0  0  0  0  0  0  0
  1  2  1  0
  2  3  1  0
  3  4  1  0
  4  5  2  0
  5  6  1  0
  6  7  1  0
  7  8  2  0
  8  9  1  0
  9 10  1  0
 10 11  1  0
 11 12  1  0
 12 13  1  0
 12 14  1  0
 14 15  1  0
 15 16  1  0
 16 17  2  0
 17 18  1  0
 18 19  2  0
 19 20  1  0
 20 21  1  0
 21 22  1  0
 21 23  1  0
 21 24  1  0
 20 25  2  0
  9 26  1  0
 26 27  1  0
 27 28  2  0
 27 29  1  0
 29 30  1  0
 30 31  1  0
 31 32  1  0
 32 33  1  0
 33 34  1  0
 34 35  1  0
 34 36  1  0
 36 37  1  0
 37 38  1  0
  8 39  1  0
 39 40  2  0
 40 41  1  0
 41 42  1  0
 42 43  1  0
  6 44  2  0
 44 45  1  0
 45  3  2  0
 41  7  1  0
 14 11  1  0
 25 16  1  0
 37 29  1  0
 35 30  1  0
 38 32  1  0
  1 46  1  0
  1 47  1  0
  1 48  1  0
  2 49  1  0
  2 50  1  0
  4 51  1  0
  5 52  1  0
  9 53  1  6
 10 54  1  0
 10 55  1  0
 11 56  1  1
 12 57  1  6
 13 58  1  0
 13 59  1  0
 13 60  1  0
 14 61  1  6
 15 62  1  0
 15 63  1  0
 17 64  1  0
 18 65  1  0
 19 66  1  0
 25 67  1  0
 26 68  1  0
 29 69  1  6
 30 70  1  6
 31 71  1  0
 31 72  1  0
 32 73  1  6
 33 74  1  0
 33 75  1  0
 34 76  1  1
 35 77  1  0
 35 78  1  0
 36 79  1  0
 36 80  1  0
 37 81  1  1
 38 82  1  0
 38 83  1  0
 42 84  1  0
 42 85  1  0
 43 86  1  0
 43 87  1  0
 43 88  1  0
 44 89  1  0
 45 90  1  0
M  CHG  1  14   1
M  END
>  <meeko>  (251) 
{"is_sidechain": false}

$$$$

     RDKit          3D

 90 96  0  0  0  0  0  0  0  0999 V2000
    5.9200   -4.2750  -50.5760 C   0  0  0  0  0  0  0  0  0  0  0  0
    7.3530   -3.9100  -50.2230 C   0  0  0  0  0  0  0  0  0  0  0  0
    8.1410   -3.4910  -51.4390 C   0  0  0  0  0  0  0  0  0  0  0  0
    9.3160   -2.7430  -51.3010 C   0  0  0  0  0  0  0  0  0  0  0  0
   10.0320   -2.3340  -52.4290 C   0  0  0  0  0  0  0  0  0  0  0  0
    9.5770   -2.6620  -53.7110 C   0  0  0  0  0  0  0  0  0  0  0  0
   10.3260   -2.2510  -54.8850 C   0  0  0  0  0  0  0  0  0  0  0  0
   10.4520   -1.0150  -55.4980 C   0  0  0  0  0  0  0  0  0  0  0  0
    9.8400    0.3060  -55.1490 C   0  0  2  0  0  0  0  0  0  0  0  0
    8.5780    0.0950  -54.2810 C   0  0  0  0  0  0  0  0  0  0  0  0
    7.5020   -0.6930  -54.9750 C   0  0  1  0  0  0  0  0  0  0  0  0
    6.0470   -0.7550  -54.5070 C   0  0  1  0  0  0  0  0  0  0  0  0
    5.5300   -0.0840  -53.2840 C   0  0  0  0  0  0  0  0  0  0  0  0
    6.4160   -0.0360  -55.7250 N   0  0  1  0  0  0  0  0  0  0  0  0
    6.3380    1.4290  -55.8600 C   0  0  0  0  0  0  0  0  0  0  0  0
    5.6760    1.8320  -57.1530 C   0  0  0  0  0  0  0  0  0  0  0  0
    4.3370    2.2520  -57.1640 C   0  0  0  0  0  0  0  0  0  0  0  0
    3.7300    2.6510  -58.3550 C   0  0  0  0  0  0  0  0  0  0  0  0
    4.4520    2.6420  -59.5480 C   0  0  0  0  0  0  0  0  0  0  0  0
    5.7920    2.2360  -59.5630 C   0  0  0  0  0  0  0  0  0  0  0  0
    6.5760    2.2040  -60.8560 C   0  0  0  0  0  0  0  0  0  0  0  0
    7.7660    1.5540  -60.7530 F   0  0  0  0  0  0  0  0  0  0  0  0
    5.8900    1.5790  -61.8550 F   0  0  0  0  0  0  0  0  0  0  0  0
    6.8560    3.4520  -61.3180 F   0  0  0  0  0  0  0  0  0  0  0  0
    6.3920    1.8250  -58.3590 C   0  0  0  0  0  0  0  0  0  0  0  0
    9.5780    0.9960  -56.4090 N   0  0  0  0  0  0  0  0  0  0  0  0
    9.7140    2.3530  -56.5600 C   0  0  0  0  0  0  0  0  0  0  0  0
    9.8630    3.0890  -55.5880 O   0  0  0  0  0  0  0  0  0  0  0  0
    9.7400    2.8390  -58.0140 C   0  0  2  0  0  0  0  0  0  0  0  0
   11.1610    2.8090  -58.6300 C   0  0  1  0  0  0  0  0  0  0  0  0
   11.0410    3.0590  -60.1470 C   0  0  0  0  0  0  0  0  0  0  0  0
   10.4020    4.4350  -60.4090 C   0  0  2  0  0  0  0  0  0  0  0  0
   11.2830    5.5290  -59.7830 C   0  0  0  0  0  0  0  0  0  0  0  0
   11.4110    5.2960  -58.2680 C   0  0  2  0  0  0  0  0  0  0  0  0
   12.0450    3.9180  -58.0240 C   0  0  0  0  0  0  0  0  0  0  0  0
   10.0120    5.3340  -57.6310 C   0  0  0  0  0  0  0  0  0  0  0  0
    9.1180    4.2400  -58.2410 C   0  0  1  0  0  0  0  0  0  0  0  0
    9.0070    4.4840  -59.7600 C   0  0  0  0  0  0  0  0  0  0  0  0
   11.2840   -1.1230  -56.5810 N   0  0  0  0  0  0  0  0  0  0  0  0
   11.6950   -2.3770  -56.6600 N   0  0  0  0  0  0  0  0  0  0  0  0
   11.1450   -3.0590  -55.6380 N   0  0  0  0  0  0  0  0  0  0  0  0
   11.4840   -4.4540  -55.4470 C   0  0  0  0  0  0  0  0  0  0  0  0
   11.1710   -5.2940  -56.6710 C   0  0  0  0  0  0  0  0  0  0  0  0
    8.4020   -3.4080  -53.8520 C   0  0  0  0  0  0  0  0  0  0  0  0
    7.6880   -3.8170  -52.7240 C   0  0  0  0  0  0  0  0  0  0  0  0
    5.3410   -4.4225  -49.6524 H   0  0  0  0  0  0  0  0  0  0  0  0
    5.4694   -3.4630  -51.1655 H   0  0  0  0  0  0  0  0  0  0  0  0
    5.9128   -5.2037  -51.1655 H   0  0  0  0  0  0  0  0  0  0  0  0
    7.3414   -3.0788  -49.5026 H   0  0  0  0  0  0  0  0  0  0  0  0
    7.8360   -4.7998  -49.7929 H   0  0  0  0  0  0  0  0  0  0  0  0
    9.6783   -2.4753  -50.2975 H   0  0  0  0  0  0  0  0  0  0  0  0
   10.9574   -1.7516  -52.3087 H   0  0  0  0  0  0  0  0  0  0  0  0
   10.5099    0.9296  -54.5388 H   0  0  0  0  0  0  0  0  0  0  0  0
    8.8694   -0.4426  -53.3666 H   0  0  0  0  0  0  0  0  0  0  0  0
    8.1630    1.0902  -54.0633 H   0  0  0  0  0  0  0  0  0  0  0  0
    8.2828   -1.4394  -55.1829 H   0  0  0  0  0  0  0  0  0  0  0  0
    5.3452   -1.5612  -54.2470 H   0  0  0  0  0  0  0  0  0  0  0  0
    5.9229   -0.5940  -52.3921 H   0  0  0  0  0  0  0  0  0  0  0  0
    5.8539    0.9672  -53.2778 H   0  0  0  0  0  0  0  0  0  0  0  0
    4.4309   -0.1291  -53.2778 H   0  0  0  0  0  0  0  0  0  0  0  0
    6.1420   -0.5530  -56.5700 H   0  0  0  0  0  0  0  0  0  0  0  0
    5.7560    1.8346  -55.0193 H   0  0  0  0  0  0  0  0  0  0  0  0
    7.3623    1.8300  -55.8580 H   0  0  0  0  0  0  0  0  0  0  0  0
    3.7618    2.2667  -56.2265 H   0  0  0  0  0  0  0  0  0  0  0  0
    2.6784    2.9738  -58.3530 H   0  0  0  0  0  0  0  0  0  0  0  0
    3.9657    2.9559  -60.4834 H   0  0  0  0  0  0  0  0  0  0  0  0
    7.4405    1.4925  -58.3634 H   0  0  0  0  0  0  0  0  0  0  0  0
    9.5690    0.4170  -57.2440 H   0  0  0  0  0  0  0  0  0  0  0  0
    9.0996    2.1103  -58.5326 H   0  0  0  0  0  0  0  0  0  0  0  0
   11.6192    1.8312  -58.4203 H   0  0  0  0  0  0  0  0  0  0  0  0
   12.0428    3.0311  -60.6004 H   0  0  0  0  0  0  0  0  0  0  0  0
   10.4066    2.2777  -60.5909 H   0  0  0  0  0  0  0  0  0  0  0  0
   10.3133    4.5984  -61.4932 H   0  0  0  0  0  0  0  0  0  0  0  0
   12.2822    5.4996  -60.2421 H   0  0  0  0  0  0  0  0  0  0  0  0
   10.8207    6.5113  -59.9602 H   0  0  0  0  0  0  0  0  0  0  0  0
   12.0413    6.0787  -57.8207 H   0  0  0  0  0  0  0  0  0  0  0  0
   13.0392    3.8873  -58.4938 H   0  0  0  0  0  0  0  0  0  0  0  0
   12.1359    3.7520  -56.9404 H   0  0  0  0  0  0  0  0  0  0  0  0
   10.1019    5.1669  -56.5475 H   0  0  0  0  0  0  0  0  0  0  0  0
    9.5573    6.3168  -57.8241 H   0  0  0  0  0  0  0  0  0  0  0  0
    8.1290    4.2780  -57.7609 H   0  0  0  0  0  0  0  0  0  0  0  0
    8.3704    3.7065  -60.2075 H   0  0  0  0  0  0  0  0  0  0  0  0
    8.5650    5.4763  -59.9330 H   0  0  0  0  0  0  0  0  0  0  0  0
   12.5598   -4.5305  -55.2309 H   0  0  0  0  0  0  0  0  0  0  0  0
   10.8790   -4.8367  -54.6118 H   0  0  0  0  0  0  0  0  0  0  0  0
   10.8032   -6.2810  -56.3540 H   0  0  0  0  0  0  0  0  0  0  0  0
   10.3998   -4.7914  -57.2732 H   0  0  0  0  0  0  0  0  0  0  0  0
   12.0830   -5.4186  -57.2732 H   0  0  0  0  0  0  0  0  0  0  0  0
    8.0390   -3.6735  -54.8559 H   0  0  0  0  0  0  0  0  0  0  0  0
    6.7628   -4.3996  -52.8452 H   0  0  0  0  0  0  0  0  0  0  0  0
  1  2  1  0
  2  3  1  0
  3  4  1  0
  4  5  2  0
  5  6  1  0
  6  7  1  0
  7  8  2  0
  8  9  1  0
  9 10  1  0
 10 11  1  0
 11 12  1  0
 12 13  1  0
 12 14  1  0
 14 15  1  0
 15 16  1  0
 16 17  2  0
 17 18  1  0
 18 19  2  0
 19 20  1  0
 20 21  1  0
 21 22  1  0
 21 23  1  0
 21 24  1  0
 20 25  2  0
  9 26  1  0
 26 27  1  0
 27 28  2  0
 27 29  1  0
 29 30  1  0
 30 31  1  0
 31 32  1  0
 32 33  1  0
 33 34  1  0
 34 35  1  0
 34 36  1  0
 36 37  1  0
 37 38  1  0
  8 39  1  0
 39 40  2  0
 40 41  1  0
 41 42  1  0
 42 43  1  0
  6 44  2  0
 44 45  1  0
 45  3  2  0
 41  7  1  0
 14 11  1  0
 25 16  1  0
 37 29  1  0
 35 30  1  0
 38 32  1  0
  1 46  1  0
  1 47  1  0
  1 48  1  0
  2 49  1  0
  2 50  1  0
  4 51  1  0
  5 52  1  0
  9 53  1  1
 10 54  1  0
 10 55  1  0
 11 56  1  6
 12 57  1  6
 13 58  1  0
 13 59  1  0
 13 60  1  0
 14 61  1  6
 15 62  1  0
 15 63  1  0
 17 64  1  0
 18 65  1  0
 19 66  1  0
 25 67  1  0
 26 68  1  0
 29 69  1  1
 30 70  1  1
 31 71  1  0
 31 72  1  0
 32 73  1  1
 33 74  1  0
 33 75  1  0
 34 76  1  6
 35 77  1  0
 35 78  1  0
 36 79  1  0
 36 80  1  0
 37 81  1  6
 38 82  1  0
 38 83  1  0
 42 84  1  0
 42 85  1  0
 43 86  1  0
 43 87  1  0
 43 88  1  0
 44 89  1  0
 45 90  1  0
M  CHG  1  14   1
M  END
>  <meeko>  (252) 
{"is_sidechain": false}

$$$$

     RDKit          3D

 90 96  0  0  0  0  0  0  0  0999 V2000
    3.9530    2.0100  -60.1250 C   0  0  0  0  0  0  0  0  0  0  0  0
    4.2570    2.4010  -58.6880 C   0  0  0  0  0  0  0  0  0  0  0  0
    5.7410    2.4450  -58.4200 C   0  0  0  0  0  0  0  0  0  0  0  0
    6.2340    3.0400  -57.2520 C   0  0  0  0  0  0  0  0  0  0  0  0
    7.6080    3.0920  -57.0080 C   0  0  0  0  0  0  0  0  0  0  0  0
    8.5060    2.5550  -57.9350 C   0  0  0  0  0  0  0  0  0  0  0  0
    9.9320    2.5500  -57.6550 C   0  0  0  0  0  0  0  0  0  0  0  0
   10.7330    1.6710  -56.9350 C   0  0  0  0  0  0  0  0  0  0  0  0
   10.4470    0.4200  -56.1570 C   0  0  1  0  0  0  0  0  0  0  0  0
    8.9320    0.3430  -55.8470 C   0  0  0  0  0  0  0  0  0  0  0  0
    8.5820    0.6720  -54.4250 C   0  0  1  0  0  0  0  0  0  0  0  0
    7.2050    0.4230  -53.8140 C   0  0  1  0  0  0  0  0  0  0  0  0
    6.0700   -0.1660  -54.5770 C   0  0  0  0  0  0  0  0  0  0  0  0
    8.3770   -0.3420  -53.3840 N   0  0  1  0  0  0  0  0  0  0  0  0
    8.5330   -1.7850  -53.6250 C   0  0  0  0  0  0  0  0  0  0  0  0
    8.3250   -2.5790  -52.3620 C   0  0  0  0  0  0  0  0  0  0  0  0
    9.3920   -2.8330  -51.4910 C   0  0  0  0  0  0  0  0  0  0  0  0
    9.2000   -3.5930  -50.3370 C   0  0  0  0  0  0  0  0  0  0  0  0
    7.9410   -4.1160  -50.0410 C   0  0  0  0  0  0  0  0  0  0  0  0
    6.8590   -3.8870  -50.9000 C   0  0  0  0  0  0  0  0  0  0  0  0
    5.4850   -4.4330  -50.5790 C   0  0  0  0  0  0  0  0  0  0  0  0
    4.8530   -4.9120  -51.6830 F   0  0  0  0  0  0  0  0  0  0  0  0
    4.6510   -3.5150  -50.0230 F   0  0  0  0  0  0  0  0  0  0  0  0
    5.5440   -5.4720  -49.6990 F   0  0  0  0  0  0  0  0  0  0  0  0
    7.0600   -3.1120  -52.0570 C   0  0  0  0  0  0  0  0  0  0  0  0
   10.9540   -0.7610  -56.8420 N   0  0  0  0  0  0  0  0  0  0  0  0
   11.5140   -1.8210  -56.1660 C   0  0  0  0  0  0  0  0  0  0  0  0
   11.4950   -1.8800  -54.9400 O   0  0  0  0  0  0  0  0  0  0  0  0
   12.1570   -2.8740  -57.0730 C   0  0  2  0  0  0  0  0  0  0  0  0
   11.1230   -3.7460  -57.8290 C   0  0  1  0  0  0  0  0  0  0  0  0
   11.8750   -4.6000  -58.8690 C   0  0  0  0  0  0  0  0  0  0  0  0
   12.8950   -5.5130  -58.1660 C   0  0  2  0  0  0  0  0  0  0  0  0
   12.1460   -6.4420  -57.1950 C   0  0  0  0  0  0  0  0  0  0  0  0
   11.3950   -5.6070  -56.1440 C   0  0  2  0  0  0  0  0  0  0  0  0
   10.3900   -4.6820  -56.8500 C   0  0  0  0  0  0  0  0  0  0  0  0
   12.4050   -4.7510  -55.3660 C   0  0  0  0  0  0  0  0  0  0  0  0
   13.1490   -3.7980  -56.3250 C   0  0  1  0  0  0  0  0  0  0  0  0
   13.8950   -4.6520  -57.3710 C   0  0  0  0  0  0  0  0  0  0  0  0
   12.0250    2.1370  -56.9400 N   0  0  0  0  0  0  0  0  0  0  0  0
   12.0620    3.2620  -57.6310 N   0  0  0  0  0  0  0  0  0  0  0  0
   10.8200    3.5120  -58.0790 N   0  0  0  0  0  0  0  0  0  0  0  0
   10.5720    4.7020  -58.8680 C   0  0  0  0  0  0  0  0  0  0  0  0
   10.5850    4.4170  -60.3580 C   0  0  0  0  0  0  0  0  0  0  0  0
    8.0190    1.9730  -59.1100 C   0  0  0  0  0  0  0  0  0  0  0  0
    6.6450    1.9200  -59.3510 C   0  0  0  0  0  0  0  0  0  0  0  0
    3.2778    1.1416  -60.1337 H   0  0  0  0  0  0  0  0  0  0  0  0
    3.4715    2.8540  -60.6406 H   0  0  0  0  0  0  0  0  0  0  0  0
    4.8896    1.7514  -60.6406 H   0  0  0  0  0  0  0  0  0  0  0  0
    3.8304    3.3958  -58.4921 H   0  0  0  0  0  0  0  0  0  0  0  0
    3.8130    1.6424  -58.0266 H   0  0  0  0  0  0  0  0  0  0  0  0
    5.5334    3.4698  -56.5210 H   0  0  0  0  0  0  0  0  0  0  0  0
    7.9844    3.5564  -56.0846 H   0  0  0  0  0  0  0  0  0  0  0  0
   10.9825    0.4529  -55.1967 H   0  0  0  0  0  0  0  0  0  0  0  0
    8.4079    1.0518  -56.5050 H   0  0  0  0  0  0  0  0  0  0  0  0
    8.6251   -0.6995  -56.0171 H   0  0  0  0  0  0  0  0  0  0  0  0
    9.2390    1.5443  -54.5567 H   0  0  0  0  0  0  0  0  0  0  0  0
    6.4420    1.0358  -53.3117 H   0  0  0  0  0  0  0  0  0  0  0  0
    5.3188   -0.5558  -53.8743 H   0  0  0  0  0  0  0  0  0  0  0  0
    5.6127    0.6085  -55.2102 H   0  0  0  0  0  0  0  0  0  0  0  0
    6.4401   -0.9858  -55.2102 H   0  0  0  0  0  0  0  0  0  0  0  0
    8.7120   -0.0350  -52.4590 H   0  0  0  0  0  0  0  0  0  0  0  0
    7.7939   -2.1046  -54.3744 H   0  0  0  0  0  0  0  0  0  0  0  0
    9.5567   -1.9673  -53.9838 H   0  0  0  0  0  0  0  0  0  0  0  0
   10.3898   -2.4298  -51.7188 H   0  0  0  0  0  0  0  0  0  0  0  0
   10.0447   -3.7806  -49.6578 H   0  0  0  0  0  0  0  0  0  0  0  0
    7.7974   -4.7117  -49.1275 H   0  0  0  0  0  0  0  0  0  0  0  0
    6.2142   -2.9200  -52.7336 H   0  0  0  0  0  0  0  0  0  0  0  0
   11.2060   -0.6720  -57.8200 H   0  0  0  0  0  0  0  0  0  0  0  0
   12.7177   -2.2814  -57.8108 H   0  0  0  0  0  0  0  0  0  0  0  0
   10.3839   -3.0941  -58.3176 H   0  0  0  0  0  0  0  0  0  0  0  0
   11.1531   -5.2190  -59.4219 H   0  0  0  0  0  0  0  0  0  0  0  0
   12.4072   -3.9342  -59.5644 H   0  0  0  0  0  0  0  0  0  0  0  0
   13.4381   -6.1079  -58.9151 H   0  0  0  0  0  0  0  0  0  0  0  0
   11.4252   -7.0530  -57.7581 H   0  0  0  0  0  0  0  0  0  0  0  0
   12.8712   -7.0949  -56.6873 H   0  0  0  0  0  0  0  0  0  0  0  0
   10.8604   -6.2760  -55.4536 H   0  0  0  0  0  0  0  0  0  0  0  0
    9.6636   -5.2925  -57.4064 H   0  0  0  0  0  0  0  0  0  0  0  0
    9.8705   -4.0743  -56.0945 H   0  0  0  0  0  0  0  0  0  0  0  0
   11.8713   -4.1592  -54.6078 H   0  0  0  0  0  0  0  0  0  0  0  0
   13.1367   -5.4133  -54.8802 H   0  0  0  0  0  0  0  0  0  0  0  0
   13.8419   -3.1754  -55.7400 H   0  0  0  0  0  0  0  0  0  0  0  0
   14.4344   -3.9890  -58.0634 H   0  0  0  0  0  0  0  0  0  0  0  0
   14.6058   -5.3131  -56.8536 H   0  0  0  0  0  0  0  0  0  0  0  0
    9.5876    5.1093  -58.5942 H   0  0  0  0  0  0  0  0  0  0  0  0
   11.3770    5.4209  -58.6555 H   0  0  0  0  0  0  0  0  0  0  0  0
   10.6346    3.3306  -60.5231 H   0  0  0  0  0  0  0  0  0  0  0  0
    9.6677    4.8160  -60.8156 H   0  0  0  0  0  0  0  0  0  0  0  0
   11.4621    4.8978  -60.8156 H   0  0  0  0  0  0  0  0  0  0  0  0
    8.7212    1.5556  -59.8467 H   0  0  0  0  0  0  0  0  0  0  0  0
    6.2702    1.4627  -60.2786 H   0  0  0  0  0  0  0  0  0  0  0  0
  1  2  1  0
  2  3  1  0
  3  4  1  0
  4  5  2  0
  5  6  1  0
  6  7  1  0
  7  8  2  0
  8  9  1  0
  9 10  1  0
 10 11  1  0
 11 12  1  0
 12 13  1  0
 12 14  1  0
 14 15  1  0
 15 16  1  0
 16 17  2  0
 17 18  1  0
 18 19  2  0
 19 20  1  0
 20 21  1  0
 21 22  1  0
 21 23  1  0
 21 24  1  0
 20 25  2  0
  9 26  1  0
 26 27  1  0
 27 28  2  0
 27 29  1  0
 29 30  1  0
 30 31  1  0
 31 32  1  0
 32 33  1  0
 33 34  1  0
 34 35  1  0
 34 36  1  0
 36 37  1  0
 37 38  1  0
  8 39  1  0
 39 40  2  0
 40 41  1  0
 41 42  1  0
 42 43  1  0
  6 44  2  0
 44 45  1  0
 45  3  2  0
 41  7  1  0
 14 11  1  0
 25 16  1  0
 37 29  1  0
 35 30  1  0
 38 32  1  0
  1 46  1  0
  1 47  1  0
  1 48  1  0
  2 49  1  0
  2 50  1  0
  4 51  1  0
  5 52  1  0
  9 53  1  1
 10 54  1  0
 10 55  1  0
 11 56  1  1
 12 57  1  1
 13 58  1  0
 13 59  1  0
 13 60  1  0
 14 61  1  1
 15 62  1  0
 15 63  1  0
 17 64  1  0
 18 65  1  0
 19 66  1  0
 25 67  1  0
 26 68  1  0
 29 69  1  1
 30 70  1  1
 31 71  1  0
 31 72  1  0
 32 73  1  1
 33 74  1  0
 33 75  1  0
 34 76  1  6
 35 77  1  0
 35 78  1  0
 36 79  1  0
 36 80  1  0
 37 81  1  6
 38 82  1  0
 38 83  1  0
 42 84  1  0
 42 85  1  0
 43 86  1  0
 43 87  1  0
 43 88  1  0
 44 89  1  0
 45 90  1  0
M  CHG  1  14   1
M  END
>  <meeko>  (253) 
{"is_sidechain": false}

$$$$

     RDKit          3D

 51 55  0  0  0  0  0  0  0  0999 V2000
   10.8130    0.8850  -56.6110 O   0  0  0  0  0  0  0  0  0  0  0  0
    9.7290    1.2380  -56.1590 C   0  0  0  0  0  0  0  0  0  0  0  0
    9.0030    0.5370  -55.2230 N   0  0  0  0  0  0  0  0  0  0  0  0
    9.2970   -0.7020  -54.6490 C   0  0  0  0  0  0  0  0  0  0  0  0
    8.8580   -1.1020  -53.4100 C   0  0  0  0  0  0  0  0  0  0  0  0
    9.2450   -2.3620  -52.9910 C   0  0  0  0  0  0  0  0  0  0  0  0
    8.7840   -2.8530  -51.6290 C   0  0  0  0  0  0  0  0  0  0  0  0
    7.9490   -3.9290  -51.7180 F   0  0  0  0  0  0  0  0  0  0  0  0
    8.0870   -1.9030  -50.9400 F   0  0  0  0  0  0  0  0  0  0  0  0
    9.7970   -3.2390  -50.8030 F   0  0  0  0  0  0  0  0  0  0  0  0
   10.0190   -3.1650  -53.7640 N   0  0  0  0  0  0  0  0  0  0  0  0
   10.4040   -2.6910  -54.9600 C   0  0  0  0  0  0  0  0  0  0  0  0
   11.2500   -3.5550  -55.8090 C   0  0  0  0  0  0  0  0  0  0  0  0
   11.8080   -4.7520  -55.3180 C   0  0  0  0  0  0  0  0  0  0  0  0
   12.6090   -5.5710  -56.1210 C   0  0  0  0  0  0  0  0  0  0  0  0
   12.8730   -5.2110  -57.4390 C   0  0  0  0  0  0  0  0  0  0  0  0
   12.3360   -4.0350  -57.9520 C   0  0  0  0  0  0  0  0  0  0  0  0
   11.5350   -3.2190  -57.1470 C   0  0  0  0  0  0  0  0  0  0  0  0
   10.0670   -1.4760  -55.4300 N   0  0  0  0  0  0  0  0  0  0  0  0
    9.0660    2.5660  -56.5560 C   0  0  2  0  0  0  0  0  0  0  0  0
    8.4890    2.5640  -57.9940 C   0  0  1  0  0  0  0  0  0  0  0  0
    7.6520    3.8460  -58.1840 C   0  0  0  0  0  0  0  0  0  0  0  0
    8.5360    5.0910  -57.9910 C   0  0  2  0  0  0  0  0  0  0  0  0
    9.6630    5.0660  -59.0360 C   0  0  0  0  0  0  0  0  0  0  0  0
   10.5160    3.7990  -58.8590 C   0  0  2  0  0  0  0  0  0  0  0  0
    9.6290    2.5560  -59.0310 C   0  0  0  0  0  0  0  0  0  0  0  0
   11.1180    3.7960  -57.4460 C   0  0  0  0  0  0  0  0  0  0  0  0
    9.9980    3.7940  -56.3870 C   0  0  1  0  0  0  0  0  0  0  0  0
    9.1520    5.0700  -56.5800 C   0  0  0  0  0  0  0  0  0  0  0  0
    8.1590    0.9450  -54.8440 H   0  0  0  0  0  0  0  0  0  0  0  0
    8.2300   -0.4525  -52.7825 H   0  0  0  0  0  0  0  0  0  0  0  0
   11.6090   -5.0498  -54.2779 H   0  0  0  0  0  0  0  0  0  0  0  0
   13.0305   -6.5003  -55.7102 H   0  0  0  0  0  0  0  0  0  0  0  0
   13.5031   -5.8532  -58.0719 H   0  0  0  0  0  0  0  0  0  0  0  0
   12.5418   -3.7462  -58.9933 H   0  0  0  0  0  0  0  0  0  0  0  0
   11.1175   -2.2927  -57.5686 H   0  0  0  0  0  0  0  0  0  0  0  0
    8.2307    2.6594  -55.8464 H   0  0  0  0  0  0  0  0  0  0  0  0
    7.8704    1.6658  -58.1374 H   0  0  0  0  0  0  0  0  0  0  0  0
    7.2272    3.8556  -59.1986 H   0  0  0  0  0  0  0  0  0  0  0  0
    6.8434    3.8607  -57.4384 H   0  0  0  0  0  0  0  0  0  0  0  0
    7.9298    6.0009  -58.1116 H   0  0  0  0  0  0  0  0  0  0  0  0
    9.2246    5.0720  -60.0448 H   0  0  0  0  0  0  0  0  0  0  0  0
   10.3004    5.9523  -58.9010 H   0  0  0  0  0  0  0  0  0  0  0  0
   11.3189    3.7847  -59.6108 H   0  0  0  0  0  0  0  0  0  0  0  0
    9.1986    2.5548  -60.0433 H   0  0  0  0  0  0  0  0  0  0  0  0
   10.2425    1.6554  -58.8810 H   0  0  0  0  0  0  0  0  0  0  0  0
   11.7396    2.8975  -57.3184 H   0  0  0  0  0  0  0  0  0  0  0  0
   11.7311    4.7001  -57.3165 H   0  0  0  0  0  0  0  0  0  0  0  0
   10.4564    3.7545  -55.3878 H   0  0  0  0  0  0  0  0  0  0  0  0
    8.3462    5.0884  -55.8314 H   0  0  0  0  0  0  0  0  0  0  0  0
    9.7986    5.9514  -56.4574 H   0  0  0  0  0  0  0  0  0  0  0  0
  1  2  2  0
  2  3  1  0
  3  4  1  0
  4  5  2  0
  5  6  1  0
  6  7  1  0
  7  8  1  0
  7  9  1  0
  7 10  1  0
  6 11  2  0
 11 12  1  0
 12 13  1  0
 13 14  2  0
 14 15  1  0
 15 16  2  0
 16 17  1  0
 17 18  2  0
 12 19  2  0
  2 20  1  0
 20 21  1  0
 21 22  1  0
 22 23  1  0
 23 24  1  0
 24 25  1  0
 25 26  1  0
 25 27  1  0
 27 28  1  0
 28 29  1  0
 19  4  1  0
 28 20  1  0
 18 13  1  0
 26 21  1  0
 29 23  1  0
  3 30  1  0
  5 31  1  0
 14 32  1  0
 15 33  1  0
 16 34  1  0
 17 35  1  0
 18 36  1  0
 20 37  1  6
 21 38  1  6
 22 39  1  0
 22 40  1  0
 23 41  1  6
 24 42  1  0
 24 43  1  0
 25 44  1  1
 26 45  1  0
 26 46  1  0
 27 47  1  0
 27 48  1  0
 28 49  1  6
 29 50  1  0
 29 51  1  0
M  END
>  <meeko>  (254) 
{"is_sidechain": false}

$$$$

     RDKit          3D

 54 58  0  0  0  0  0  0  0  0999 V2000
    6.2590    0.6900  -53.1570 O   0  0  0  0  0  0  0  0  0  0  0  0
    6.9150   -0.2260  -53.6470 C   0  0  0  0  0  0  0  0  0  0  0  0
    7.3610   -0.2500  -54.9500 N   0  0  0  0  0  0  0  0  0  0  0  0
    7.1770    0.7110  -55.9480 C   0  0  0  0  0  0  0  0  0  0  0  0
    5.9590    1.0220  -56.5060 C   0  0  0  0  0  0  0  0  0  0  0  0
    5.9560    2.0000  -57.4840 C   0  0  0  0  0  0  0  0  0  0  0  0
    4.6360    2.3820  -58.1320 C   0  0  0  0  0  0  0  0  0  0  0  0
    4.4290    1.7350  -59.3150 F   0  0  0  0  0  0  0  0  0  0  0  0
    3.5410    2.1110  -57.3650 F   0  0  0  0  0  0  0  0  0  0  0  0
    4.5640    3.7140  -58.4220 F   0  0  0  0  0  0  0  0  0  0  0  0
    7.0980    2.6200  -57.8770 N   0  0  0  0  0  0  0  0  0  0  0  0
    8.2420    2.2520  -57.2780 C   0  0  0  0  0  0  0  0  0  0  0  0
    9.4900    2.9210  -57.6960 C   0  0  0  0  0  0  0  0  0  0  0  0
    9.4800    4.0170  -58.5800 C   0  0  0  0  0  0  0  0  0  0  0  0
   10.6630    4.6520  -58.9770 C   0  0  0  0  0  0  0  0  0  0  0  0
   11.9040    4.2050  -58.5080 C   0  0  0  0  0  0  0  0  0  0  0  0
   13.1790    4.9020  -58.9180 C   0  0  0  0  0  0  0  0  0  0  0  0
   14.0540    4.0820  -59.5630 F   0  0  0  0  0  0  0  0  0  0  0  0
   12.9660    5.9520  -59.7580 F   0  0  0  0  0  0  0  0  0  0  0  0
   13.8570    5.4090  -57.8510 F   0  0  0  0  0  0  0  0  0  0  0  0
   11.9340    3.1210  -57.6220 C   0  0  0  0  0  0  0  0  0  0  0  0
   10.7470    2.4920  -57.2280 C   0  0  0  0  0  0  0  0  0  0  0  0
    8.3190    1.3110  -56.3200 N   0  0  0  0  0  0  0  0  0  0  0  0
    7.3090   -1.4680  -52.8220 C   0  0  2  0  0  0  0  0  0  0  0  0
    6.2590   -2.5930  -53.0260 C   0  0  0  0  0  0  0  0  0  0  0  0
    6.6290   -3.8440  -52.2110 C   0  0  1  0  0  0  0  0  0  0  0  0
    8.0050   -4.3520  -52.6660 C   0  0  0  0  0  0  0  0  0  0  0  0
    9.0650   -3.2610  -52.4500 C   0  0  2  0  0  0  0  0  0  0  0  0
    9.1150   -2.8920  -50.9570 C   0  0  0  0  0  0  0  0  0  0  0  0
    7.7400   -2.3800  -50.4930 C   0  0  2  0  0  0  0  0  0  0  0  0
    6.6880   -3.4750  -50.7210 C   0  0  0  0  0  0  0  0  0  0  0  0
    7.3630   -1.1320  -51.3110 C   0  0  0  0  0  0  0  0  0  0  0  0
    8.6880   -2.0130  -53.2660 C   0  0  0  0  0  0  0  0  0  0  0  0
    7.8970   -1.0410  -55.2790 H   0  0  0  0  0  0  0  0  0  0  0  0
    5.0336    0.5181  -56.1903 H   0  0  0  0  0  0  0  0  0  0  0  0
    8.5184    4.3836  -58.9685 H   0  0  0  0  0  0  0  0  0  0  0  0
   10.6169    5.5100  -59.6638 H   0  0  0  0  0  0  0  0  0  0  0  0
   12.8977    2.7609  -57.2326 H   0  0  0  0  0  0  0  0  0  0  0  0
   10.7975    1.6398  -56.5343 H   0  0  0  0  0  0  0  0  0  0  0  0
    5.2735   -2.2292  -52.6998 H   0  0  0  0  0  0  0  0  0  0  0  0
    6.2356   -2.8626  -54.0922 H   0  0  0  0  0  0  0  0  0  0  0  0
    5.8749   -4.6294  -52.3673 H   0  0  0  0  0  0  0  0  0  0  0  0
    8.2757   -5.2438  -52.0817 H   0  0  0  0  0  0  0  0  0  0  0  0
    7.9608   -4.6062  -53.7353 H   0  0  0  0  0  0  0  0  0  0  0  0
   10.0478   -3.6325  -52.7757 H   0  0  0  0  0  0  0  0  0  0  0  0
    9.3886   -3.7819  -50.3712 H   0  0  0  0  0  0  0  0  0  0  0  0
    9.8637   -2.1003  -50.8065 H   0  0  0  0  0  0  0  0  0  0  0  0
    7.7798   -2.1241  -49.4239 H   0  0  0  0  0  0  0  0  0  0  0  0
    6.9570   -4.3664  -50.1352 H   0  0  0  0  0  0  0  0  0  0  0  0
    5.7035   -3.1023  -50.4018 H   0  0  0  0  0  0  0  0  0  0  0  0
    6.3765   -0.7704  -50.9853 H   0  0  0  0  0  0  0  0  0  0  0  0
    8.1252   -0.3561  -51.1467 H   0  0  0  0  0  0  0  0  0  0  0  0
    9.4508   -1.2358  -53.1111 H   0  0  0  0  0  0  0  0  0  0  0  0
    8.6351   -2.2875  -54.3299 H   0  0  0  0  0  0  0  0  0  0  0  0
  1  2  2  0
  2  3  1  0
  3  4  1  0
  4  5  2  0
  5  6  1  0
  6  7  1  0
  7  8  1  0
  7  9  1  0
  7 10  1  0
  6 11  2  0
 11 12  1  0
 12 13  1  0
 13 14  1  0
 14 15  2  0
 15 16  1  0
 16 17  1  0
 17 18  1  0
 17 19  1  0
 17 20  1  0
 16 21  2  0
 21 22  1  0
 12 23  2  0
 24  2  1  6
 24 25  1  0
 25 26  1  0
 26 27  1  0
 27 28  1  0
 28 29  1  0
 29 30  1  0
 30 31  1  0
 30 32  1  0
 28 33  1  0
 23  4  1  0
 32 24  1  0
 22 13  2  0
 33 24  1  0
 31 26  1  0
  3 34  1  0
  5 35  1  0
 14 36  1  0
 15 37  1  0
 21 38  1  0
 22 39  1  0
 25 40  1  0
 25 41  1  0
 26 42  1  1
 27 43  1  0
 27 44  1  0
 28 45  1  6
 29 46  1  0
 29 47  1  0
 30 48  1  1
 31 49  1  0
 31 50  1  0
 32 51  1  0
 32 52  1  0
 33 53  1  0
 33 54  1  0
M  END
>  <meeko>  (255) 
{"is_sidechain": false}

$$$$

     RDKit          3D

 50 54  0  0  0  0  0  0  0  0999 V2000
    6.9560    1.1500  -56.6490 O   0  0  0  0  0  0  0  0  0  0  0  0
    7.9830    1.7730  -56.4050 C   0  0  0  0  0  0  0  0  0  0  0  0
    9.0320    1.2950  -55.6500 N   0  0  0  0  0  0  0  0  0  0  0  0
    9.1280    0.0730  -54.9800 C   0  0  0  0  0  0  0  0  0  0  0  0
    8.4450   -0.2310  -53.8260 C   0  0  0  0  0  0  0  0  0  0  0  0
    8.6590   -1.4880  -53.2910 C   0  0  0  0  0  0  0  0  0  0  0  0
    7.9240   -1.8740  -52.0170 C   0  0  0  0  0  0  0  0  0  0  0  0
    6.8510   -2.6800  -52.2580 F   0  0  0  0  0  0  0  0  0  0  0  0
    8.6960   -2.5430  -51.1140 F   0  0  0  0  0  0  0  0  0  0  0  0
    7.4300   -0.7900  -51.3510 F   0  0  0  0  0  0  0  0  0  0  0  0
    9.5020   -2.3780  -53.8730 N   0  0  0  0  0  0  0  0  0  0  0  0
   10.1290   -1.9940  -54.9960 C   0  0  0  0  0  0  0  0  0  0  0  0
   11.0460   -2.9490  -55.6330 C   0  0  0  0  0  0  0  0  0  0  0  0
   11.5510   -2.7630  -56.9300 C   0  0  0  0  0  0  0  0  0  0  0  0
   12.4190   -3.6950  -57.4990 C   0  0  0  0  0  0  0  0  0  0  0  0
   12.7700   -4.8060  -56.7530 C   0  0  0  0  0  0  0  0  0  0  0  0
   12.3160   -5.0350  -55.5040 N   0  0  0  0  0  0  0  0  0  0  0  0
   11.4730   -4.1080  -54.9820 C   0  0  0  0  0  0  0  0  0  0  0  0
    9.9700   -0.7900  -55.5720 N   0  0  0  0  0  0  0  0  0  0  0  0
    8.2490    3.1770  -56.9720 C   0  0  2  0  0  0  0  0  0  0  0  0
    7.6000    3.4180  -58.3590 C   0  0  1  0  0  0  0  0  0  0  0  0
    7.7340    4.9150  -58.7040 C   0  0  0  0  0  0  0  0  0  0  0  0
    9.2180    5.3160  -58.7600 C   0  0  2  0  0  0  0  0  0  0  0  0
    9.9180    4.4830  -59.8470 C   0  0  0  0  0  0  0  0  0  0  0  0
    9.8030    2.9860  -59.5160 C   0  0  2  0  0  0  0  0  0  0  0  0
    8.3200    2.5910  -59.4400 C   0  0  0  0  0  0  0  0  0  0  0  0
   10.4650    2.7220  -58.1560 C   0  0  0  0  0  0  0  0  0  0  0  0
    9.7560    3.5330  -57.0510 C   0  0  1  0  0  0  0  0  0  0  0  0
    9.8800    5.0310  -57.3980 C   0  0  0  0  0  0  0  0  0  0  0  0
    9.8760    1.8460  -55.5720 H   0  0  0  0  0  0  0  0  0  0  0  0
    7.7624    0.4898  -53.3521 H   0  0  0  0  0  0  0  0  0  0  0  0
   11.2586   -1.8715  -57.5043 H   0  0  0  0  0  0  0  0  0  0  0  0
   12.8144   -3.5503  -58.5152 H   0  0  0  0  0  0  0  0  0  0  0  0
   13.4548   -5.5405  -57.2019 H   0  0  0  0  0  0  0  0  0  0  0  0
   11.0958   -4.2841  -53.9638 H   0  0  0  0  0  0  0  0  0  0  0  0
    7.7680    3.8451  -56.2424 H   0  0  0  0  0  0  0  0  0  0  0  0
    6.5429    3.1158  -58.3253 H   0  0  0  0  0  0  0  0  0  0  0  0
    7.2689    5.1055  -59.6824 H   0  0  0  0  0  0  0  0  0  0  0  0
    7.2306    5.5091  -57.9271 H   0  0  0  0  0  0  0  0  0  0  0  0
    9.3048    6.3878  -58.9918 H   0  0  0  0  0  0  0  0  0  0  0  0
    9.4423    4.6789  -60.8193 H   0  0  0  0  0  0  0  0  0  0  0  0
   10.9808    4.7634  -59.8892 H   0  0  0  0  0  0  0  0  0  0  0  0
   10.3017    2.3944  -60.2979 H   0  0  0  0  0  0  0  0  0  0  0  0
    7.8450    2.7763  -60.4147 H   0  0  0  0  0  0  0  0  0  0  0  0
    8.2472    1.5243  -59.1813 H   0  0  0  0  0  0  0  0  0  0  0  0
   10.3961    1.6497  -57.9205 H   0  0  0  0  0  0  0  0  0  0  0  0
   11.5202    3.0290  -58.2051 H   0  0  0  0  0  0  0  0  0  0  0  0
   10.2254    3.2985  -56.0842 H   0  0  0  0  0  0  0  0  0  0  0  0
    9.3816    5.6272  -56.6194 H   0  0  0  0  0  0  0  0  0  0  0  0
   10.9450    5.3009  -57.4520 H   0  0  0  0  0  0  0  0  0  0  0  0
  1  2  2  0
  2  3  1  0
  3  4  1  0
  4  5  2  0
  5  6  1  0
  6  7  1  0
  7  8  1  0
  7  9  1  0
  7 10  1  0
  6 11  2  0
 11 12  1  0
 12 13  1  0
 13 14  1  0
 14 15  2  0
 15 16  1  0
 16 17  2  0
 17 18  1  0
 12 19  2  0
  2 20  1  0
 20 21  1  0
 21 22  1  0
 22 23  1  0
 23 24  1  0
 24 25  1  0
 25 26  1  0
 25 27  1  0
 27 28  1  0
 28 29  1  0
 19  4  1  0
 28 20  1  0
 18 13  2  0
 26 21  1  0
 29 23  1  0
  3 30  1  0
  5 31  1  0
 14 32  1  0
 15 33  1  0
 16 34  1  0
 18 35  1  0
 20 36  1  6
 21 37  1  6
 22 38  1  0
 22 39  1  0
 23 40  1  1
 24 41  1  0
 24 42  1  0
 25 43  1  1
 26 44  1  0
 26 45  1  0
 27 46  1  0
 27 47  1  0
 28 48  1  6
 29 49  1  0
 29 50  1  0
M  END
>  <meeko>  (256) 
{"is_sidechain": false}

$$$$

     RDKit          3D

 54 58  0  0  0  0  0  0  0  0999 V2000
    7.0970    2.1050  -57.0600 O   0  0  0  0  0  0  0  0  0  0  0  0
    8.2210    2.5380  -56.8310 C   0  0  0  0  0  0  0  0  0  0  0  0
    9.1460    1.9300  -56.0120 N   0  0  0  0  0  0  0  0  0  0  0  0
    8.9930    0.7710  -55.2470 C   0  0  0  0  0  0  0  0  0  0  0  0
    8.1660    0.6700  -54.1540 C   0  0  0  0  0  0  0  0  0  0  0  0
    8.1390   -0.5530  -53.5070 C   0  0  0  0  0  0  0  0  0  0  0  0
    7.2370   -0.7180  -52.2950 C   0  0  0  0  0  0  0  0  0  0  0  0
    6.1000   -1.4140  -52.5820 F   0  0  0  0  0  0  0  0  0  0  0  0
    7.8210   -1.3740  -51.2530 F   0  0  0  0  0  0  0  0  0  0  0  0
    6.8190    0.4800  -51.7890 F   0  0  0  0  0  0  0  0  0  0  0  0
    8.8920   -1.6000  -53.9280 N   0  0  0  0  0  0  0  0  0  0  0  0
    9.6730   -1.4090  -55.0030 C   0  0  0  0  0  0  0  0  0  0  0  0
   10.4990   -2.5440  -55.4690 C   0  0  0  0  0  0  0  0  0  0  0  0
   10.4140   -3.8120  -54.8630 C   0  0  0  0  0  0  0  0  0  0  0  0
   11.1940   -4.8890  -55.3010 C   0  0  0  0  0  0  0  0  0  0  0  0
   12.0950   -4.7320  -56.3600 C   0  0  0  0  0  0  0  0  0  0  0  0
   12.9210   -5.8960  -56.8490 C   0  0  0  0  0  0  0  0  0  0  0  0
   14.0230   -6.1280  -56.0820 F   0  0  0  0  0  0  0  0  0  0  0  0
   13.3820   -5.7070  -58.1160 F   0  0  0  0  0  0  0  0  0  0  0  0
   12.2320   -7.0710  -56.8710 F   0  0  0  0  0  0  0  0  0  0  0  0
   12.1870   -3.4790  -56.9800 C   0  0  0  0  0  0  0  0  0  0  0  0
   11.4040   -2.4060  -56.5390 C   0  0  0  0  0  0  0  0  0  0  0  0
    9.7510   -0.2500  -55.6810 N   0  0  0  0  0  0  0  0  0  0  0  0
    8.7590    3.8130  -57.4990 C   0  0  2  0  0  0  0  0  0  0  0  0
    8.0670    4.1500  -58.8440 C   0  0  2  0  0  0  0  0  0  0  0  0
    8.4700    3.1300  -59.9250 C   0  0  0  0  0  0  0  0  0  0  0  0
    9.9920    3.1510  -60.1370 C   0  0  1  0  0  0  0  0  0  0  0  0
   10.4320    4.5600  -60.5650 C   0  0  0  0  0  0  0  0  0  0  0  0
   10.0490    5.5810  -59.4790 C   0  0  1  0  0  0  0  0  0  0  0  0
    8.5220    5.5550  -59.2910 C   0  0  0  0  0  0  0  0  0  0  0  0
   10.7270    5.2000  -58.1530 C   0  0  2  0  0  0  0  0  0  0  0  0
   12.0760    5.2270  -58.3170 F   0  0  0  0  0  0  0  0  0  0  0  0
   10.2940    3.7900  -57.7120 C   0  0  2  0  0  0  0  0  0  0  0  0
   10.6890    2.7880  -58.8180 C   0  0  0  0  0  0  0  0  0  0  0  0
   10.0810    2.3110  -55.9470 H   0  0  0  0  0  0  0  0  0  0  0  0
    7.5562    1.5187  -53.8107 H   0  0  0  0  0  0  0  0  0  0  0  0
    9.7175   -3.9602  -54.0246 H   0  0  0  0  0  0  0  0  0  0  0  0
   11.0976   -5.8676  -54.8081 H   0  0  0  0  0  0  0  0  0  0  0  0
   12.8812   -3.3372  -57.8214 H   0  0  0  0  0  0  0  0  0  0  0  0
   11.4978   -1.4314  -57.0403 H   0  0  0  0  0  0  0  0  0  0  0  0
    8.5140    4.6061  -56.7773 H   0  0  0  0  0  0  0  0  0  0  0  0
    6.9758    4.1166  -58.7094 H   0  0  0  0  0  0  0  0  0  0  0  0
    8.1618    2.1231  -59.6068 H   0  0  0  0  0  0  0  0  0  0  0  0
    7.9733    3.3950  -60.8700 H   0  0  0  0  0  0  0  0  0  0  0  0
   10.2639    2.4260  -60.9183 H   0  0  0  0  0  0  0  0  0  0  0  0
   11.5223    4.5733  -60.7098 H   0  0  0  0  0  0  0  0  0  0  0  0
    9.9285    4.8263  -61.5061 H   0  0  0  0  0  0  0  0  0  0  0  0
   10.3767    6.5866  -59.7814 H   0  0  0  0  0  0  0  0  0  0  0  0
    8.2372    6.2907  -58.5245 H   0  0  0  0  0  0  0  0  0  0  0  0
    8.0372    5.8035  -60.2466 H   0  0  0  0  0  0  0  0  0  0  0  0
   10.4266    5.9207  -57.3782 H   0  0  0  0  0  0  0  0  0  0  0  0
   10.7844    3.4853  -56.7757 H   0  0  0  0  0  0  0  0  0  0  0  0
   11.7790    2.8181  -58.9629 H   0  0  0  0  0  0  0  0  0  0  0  0
   10.3779    1.7776  -58.5142 H   0  0  0  0  0  0  0  0  0  0  0  0
  1  2  2  0
  2  3  1  0
  3  4  1  0
  4  5  2  0
  5  6  1  0
  6  7  1  0
  7  8  1  0
  7  9  1  0
  7 10  1  0
  6 11  2  0
 11 12  1  0
 12 13  1  0
 13 14  1  0
 14 15  2  0
 15 16  1  0
 16 17  1  0
 17 18  1  0
 17 19  1  0
 17 20  1  0
 16 21  2  0
 21 22  1  0
 12 23  2  0
  2 24  1  0
 24 25  1  0
 25 26  1  0
 26 27  1  0
 27 28  1  0
 28 29  1  0
 29 30  1  0
 29 31  1  0
 31 32  1  0
 31 33  1  0
 33 34  1  0
 23  4  1  0
 33 24  1  0
 22 13  2  0
 30 25  1  0
 34 27  1  0
  3 35  1  0
  5 36  1  0
 14 37  1  0
 15 38  1  0
 21 39  1  0
 22 40  1  0
 24 41  1  1
 25 42  1  1
 26 43  1  0
 26 44  1  0
 27 45  1  6
 28 46  1  0
 28 47  1  0
 29 48  1  6
 30 49  1  0
 30 50  1  0
 31 51  1  1
 33 52  1  1
 34 53  1  0
 34 54  1  0
M  END
>  <meeko>  (257) 
{"is_sidechain": false}

$$$$

     RDKit          3D

 63 65  0  0  0  0  0  0  0  0999 V2000
    7.1830   -5.7520  -50.0770 C   0  0  0  0  0  0  0  0  0  0  0  0
    6.4820   -4.4880  -50.5970 C   0  0  0  0  0  0  0  0  0  0  0  0
    5.0330   -4.4890  -50.0960 C   0  0  0  0  0  0  0  0  0  0  0  0
    6.5590   -4.4810  -52.1280 C   0  0  0  0  0  0  0  0  0  0  0  0
    7.2370   -3.3880  -50.0260 O   0  0  0  0  0  0  0  0  0  0  0  0
    8.1010   -2.6780  -50.7850 C   0  0  0  0  0  0  0  0  0  0  0  0
    9.2980   -2.8820  -50.9060 O   0  0  0  0  0  0  0  0  0  0  0  0
    7.4090   -1.6880  -51.4190 N   0  0  0  0  0  0  0  0  0  0  0  0
    8.0040   -0.8650  -52.4560 C   0  0  2  0  0  0  0  0  0  0  0  0
    7.2230    0.4480  -52.6190 C   0  0  0  0  0  0  0  0  0  0  0  0
    6.0790    0.3300  -53.6250 C   0  0  0  0  0  0  0  0  0  0  0  0
    6.5420   -0.1550  -55.0110 C   0  0  1  0  0  0  0  0  0  0  0  0
    6.4290    0.9400  -56.0780 C   0  0  0  0  0  0  0  0  0  0  0  0
    5.7950    1.9610  -55.8300 O   0  0  0  0  0  0  0  0  0  0  0  0
    7.0810    0.6420  -57.2600 N   0  0  0  0  0  0  0  0  0  0  0  0
    7.1310    1.4800  -58.3850 C   0  0  0  0  0  0  0  0  0  0  0  0
    6.0950    1.3960  -59.2900 C   0  0  0  0  0  0  0  0  0  0  0  0
    6.1600    2.2270  -60.3960 C   0  0  0  0  0  0  0  0  0  0  0  0
    5.0360    2.1700  -61.4170 C   0  0  0  0  0  0  0  0  0  0  0  0
    3.8440    2.5790  -60.8940 F   0  0  0  0  0  0  0  0  0  0  0  0
    4.8160    0.8990  -61.8680 F   0  0  0  0  0  0  0  0  0  0  0  0
    5.2410    2.9300  -62.5270 F   0  0  0  0  0  0  0  0  0  0  0  0
    7.1890    3.0880  -60.5820 N   0  0  0  0  0  0  0  0  0  0  0  0
    8.1560    3.1030  -59.6490 C   0  0  0  0  0  0  0  0  0  0  0  0
    9.2890    4.0320  -59.8270 C   0  0  0  0  0  0  0  0  0  0  0  0
   10.1190    3.9760  -60.9630 C   0  0  0  0  0  0  0  0  0  0  0  0
   11.1940    4.8580  -61.1290 C   0  0  0  0  0  0  0  0  0  0  0  0
   11.4720    5.8340  -60.1630 C   0  0  0  0  0  0  0  0  0  0  0  0
   12.6430    6.7700  -60.3300 C   0  0  0  0  0  0  0  0  0  0  0  0
   12.6870    7.3300  -61.5700 F   0  0  0  0  0  0  0  0  0  0  0  0
   13.8480    6.1600  -60.1520 F   0  0  0  0  0  0  0  0  0  0  0  0
   12.6240    7.8110  -59.4510 F   0  0  0  0  0  0  0  0  0  0  0  0
   10.6620    5.8980  -59.0230 C   0  0  0  0  0  0  0  0  0  0  0  0
    9.5890    5.0140  -58.8630 C   0  0  0  0  0  0  0  0  0  0  0  0
    8.1510    2.3220  -58.5590 N   0  0  0  0  0  0  0  0  0  0  0  0
    7.9430   -0.7820  -54.9980 C   0  0  0  0  0  0  0  0  0  0  0  0
    8.1280   -1.6620  -53.7660 C   0  0  0  0  0  0  0  0  0  0  0  0
    7.1801   -5.7467  -48.9770 H   0  0  0  0  0  0  0  0  0  0  0  0
    6.6500   -6.6428  -50.4408 H   0  0  0  0  0  0  0  0  0  0  0  0
    8.2209   -5.7716  -50.4408 H   0  0  0  0  0  0  0  0  0  0  0  0
    5.0254   -4.4890  -48.9960 H   0  0  0  0  0  0  0  0  0  0  0  0
    4.5164   -3.5912  -50.4663 H   0  0  0  0  0  0  0  0  0  0  0  0
    4.5176   -5.3875  -50.4663 H   0  0  0  0  0  0  0  0  0  0  0  0
    7.6089   -4.3856  -52.4419 H   0  0  0  0  0  0  0  0  0  0  0  0
    6.1430   -5.4207  -52.5204 H   0  0  0  0  0  0  0  0  0  0  0  0
    5.9803   -3.6318  -52.5204 H   0  0  0  0  0  0  0  0  0  0  0  0
    6.4050   -1.7570  -51.3290 H   0  0  0  0  0  0  0  0  0  0  0  0
    9.0253   -0.5840  -52.1595 H   0  0  0  0  0  0  0  0  0  0  0  0
    6.8052    0.7330  -51.6422 H   0  0  0  0  0  0  0  0  0  0  0  0
    7.9230    1.2072  -52.9979 H   0  0  0  0  0  0  0  0  0  0  0  0
    5.3401   -0.3843  -53.2329 H   0  0  0  0  0  0  0  0  0  0  0  0
    5.6511    1.3350  -53.7549 H   0  0  0  0  0  0  0  0  0  0  0  0
    5.8443   -0.9595  -55.2866 H   0  0  0  0  0  0  0  0  0  0  0  0
    7.5590   -0.2420  -57.3280 H   0  0  0  0  0  0  0  0  0  0  0  0
    5.2554    0.7011  -59.1408 H   0  0  0  0  0  0  0  0  0  0  0  0
    9.9183    3.2218  -61.7382 H   0  0  0  0  0  0  0  0  0  0  0  0
   11.8261    4.7838  -62.0262 H   0  0  0  0  0  0  0  0  0  0  0  0
   10.8706    6.6491  -58.2469 H   0  0  0  0  0  0  0  0  0  0  0  0
    8.9637    5.0880  -57.9610 H   0  0  0  0  0  0  0  0  0  0  0  0
    8.0729   -1.3947  -55.9023 H   0  0  0  0  0  0  0  0  0  0  0  0
    8.6911    0.0240  -54.9727 H   0  0  0  0  0  0  0  0  0  0  0  0
    7.3601   -2.4495  -53.7751 H   0  0  0  0  0  0  0  0  0  0  0  0
    9.1411   -2.0887  -53.8060 H   0  0  0  0  0  0  0  0  0  0  0  0
  1  2  1  0
  2  3  1  0
  2  4  1  0
  2  5  1  0
  5  6  1  0
  6  7  2  0
  6  8  1  0
  8  9  1  0
  9 10  1  0
 10 11  1  0
 11 12  1  0
 12 13  1  0
 13 14  2  0
 13 15  1  0
 15 16  1  0
 16 17  2  0
 17 18  1  0
 18 19  1  0
 19 20  1  0
 19 21  1  0
 19 22  1  0
 18 23  2  0
 23 24  1  0
 24 25  1  0
 25 26  1  0
 26 27  2  0
 27 28  1  0
 28 29  1  0
 29 30  1  0
 29 31  1  0
 29 32  1  0
 28 33  2  0
 33 34  1  0
 24 35  2  0
 12 36  1  0
 36 37  1  0
 37  9  1  0
 35 16  1  0
 34 25  2  0
  1 38  1  0
  1 39  1  0
  1 40  1  0
  3 41  1  0
  3 42  1  0
  3 43  1  0
  4 44  1  0
  4 45  1  0
  4 46  1  0
  8 47  1  0
  9 48  1  6
 10 49  1  0
 10 50  1  0
 11 51  1  0
 11 52  1  0
 12 53  1  1
 15 54  1  0
 17 55  1  0
 26 56  1  0
 27 57  1  0
 33 58  1  0
 34 59  1  0
 36 60  1  0
 36 61  1  0
 37 62  1  0
 37 63  1  0
M  END
>  <meeko>  (258) 
{"is_sidechain": false}

$$$$

     RDKit          3D

 59 64  0  0  0  0  0  0  0  0999 V2000
   10.5850   -0.7890  -55.8260 O   0  0  0  0  0  0  0  0  0  0  0  0
    9.7820   -0.0940  -55.2140 C   0  0  0  0  0  0  0  0  0  0  0  0
    9.2880    1.1120  -55.6580 N   0  0  0  0  0  0  0  0  0  0  0  0
    9.6190    1.8070  -56.8250 C   0  0  0  0  0  0  0  0  0  0  0  0
   10.8040    2.4770  -57.0140 C   0  0  0  0  0  0  0  0  0  0  0  0
   10.9680    3.1160  -58.2290 C   0  0  0  0  0  0  0  0  0  0  0  0
   12.2620    3.8690  -58.4890 C   0  0  0  0  0  0  0  0  0  0  0  0
   13.0990    3.8560  -57.4110 F   0  0  0  0  0  0  0  0  0  0  0  0
   12.9920    3.3770  -59.5300 F   0  0  0  0  0  0  0  0  0  0  0  0
   12.0510    5.1860  -58.7760 F   0  0  0  0  0  0  0  0  0  0  0  0
   10.0080    3.0850  -59.1870 N   0  0  0  0  0  0  0  0  0  0  0  0
    8.8810    2.4090  -58.9140 C   0  0  0  0  0  0  0  0  0  0  0  0
    7.8270    2.3710  -59.9500 C   0  0  0  0  0  0  0  0  0  0  0  0
    8.1030    2.7000  -61.2910 C   0  0  0  0  0  0  0  0  0  0  0  0
    7.1050    2.6710  -62.2700 C   0  0  0  0  0  0  0  0  0  0  0  0
    5.8040    2.3150  -61.9340 C   0  0  0  0  0  0  0  0  0  0  0  0
    5.4930    1.9560  -60.6210 C   0  0  0  0  0  0  0  0  0  0  0  0
    6.5010    2.0000  -59.6410 C   0  0  0  0  0  0  0  0  0  0  0  0
    4.0970    1.5540  -60.2420 C   0  0  0  0  0  0  0  0  0  0  0  0
    3.2880    1.2030  -61.4830 C   0  0  0  0  0  0  0  0  0  0  0  0
    3.5270    2.2650  -62.5420 C   0  0  0  0  0  0  0  0  0  0  0  0
    4.8950    2.3090  -62.9570 O   0  0  0  0  0  0  0  0  0  0  0  0
    8.6530    1.7650  -57.7550 N   0  0  0  0  0  0  0  0  0  0  0  0
    9.1780   -0.5260  -53.8690 C   0  0  2  0  0  0  0  0  0  0  0  0
    9.4290   -2.0160  -53.5270 C   0  0  1  0  0  0  0  0  0  0  0  0
    8.9900   -2.2600  -52.0680 C   0  0  0  0  0  0  0  0  0  0  0  0
    7.4930   -1.9460  -51.9050 C   0  0  2  0  0  0  0  0  0  0  0  0
    6.6870   -2.8680  -52.8350 C   0  0  0  0  0  0  0  0  0  0  0  0
    7.1030   -2.6320  -54.2960 C   0  0  2  0  0  0  0  0  0  0  0  0
    8.6030   -2.9260  -54.4540 C   0  0  0  0  0  0  0  0  0  0  0  0
    6.8370   -1.1660  -54.6630 C   0  0  0  0  0  0  0  0  0  0  0  0
    7.6600   -0.2300  -53.7540 C   0  0  1  0  0  0  0  0  0  0  0  0
    7.2300   -0.4780  -52.2920 C   0  0  0  0  0  0  0  0  0  0  0  0
    8.5650    1.5780  -55.1270 H   0  0  0  0  0  0  0  0  0  0  0  0
   11.5828    2.5035  -56.2376 H   0  0  0  0  0  0  0  0  0  0  0  0
    9.1265    2.9862  -61.5748 H   0  0  0  0  0  0  0  0  0  0  0  0
    7.3504    2.9310  -63.3103 H   0  0  0  0  0  0  0  0  0  0  0  0
    6.2482    1.7375  -58.6031 H   0  0  0  0  0  0  0  0  0  0  0  0
    4.1401    0.6779  -59.5782 H   0  0  0  0  0  0  0  0  0  0  0  0
    3.6115    2.3962  -59.7272 H   0  0  0  0  0  0  0  0  0  0  0  0
    3.6056    0.2218  -61.8656 H   0  0  0  0  0  0  0  0  0  0  0  0
    2.2180    1.1616  -61.2312 H   0  0  0  0  0  0  0  0  0  0  0  0
    2.8976    2.0428  -63.4163 H   0  0  0  0  0  0  0  0  0  0  0  0
    3.2722    3.2425  -62.1067 H   0  0  0  0  0  0  0  0  0  0  0  0
    9.7139    0.0934  -53.1347 H   0  0  0  0  0  0  0  0  0  0  0  0
   10.4963   -2.2467  -53.6601 H   0  0  0  0  0  0  0  0  0  0  0  0
    9.1714   -3.3126  -51.8050 H   0  0  0  0  0  0  0  0  0  0  0  0
    9.5695   -1.6021  -51.4036 H   0  0  0  0  0  0  0  0  0  0  0  0
    7.1906   -2.1080  -50.8599 H   0  0  0  0  0  0  0  0  0  0  0  0
    6.8805   -3.9168  -52.5657 H   0  0  0  0  0  0  0  0  0  0  0  0
    5.6152   -2.6467  -52.7237 H   0  0  0  0  0  0  0  0  0  0  0  0
    6.5251   -3.2950  -54.9567 H   0  0  0  0  0  0  0  0  0  0  0  0
    8.7954   -3.9776  -54.1950 H   0  0  0  0  0  0  0  0  0  0  0  0
    8.8963   -2.7336  -55.4966 H   0  0  0  0  0  0  0  0  0  0  0  0
    7.1223   -0.9967  -55.7118 H   0  0  0  0  0  0  0  0  0  0  0  0
    5.7673   -0.9504  -54.5246 H   0  0  0  0  0  0  0  0  0  0  0  0
    7.4789    0.8104  -54.0618 H   0  0  0  0  0  0  0  0  0  0  0  0
    7.8052    0.1824  -51.6265 H   0  0  0  0  0  0  0  0  0  0  0  0
    6.1553   -0.2660  -52.1917 H   0  0  0  0  0  0  0  0  0  0  0  0
  1  2  2  0
  2  3  1  0
  3  4  1  0
  4  5  2  0
  5  6  1  0
  6  7  1  0
  7  8  1  0
  7  9  1  0
  7 10  1  0
  6 11  2  0
 11 12  1  0
 12 13  1  0
 13 14  1  0
 14 15  2  0
 15 16  1  0
 16 17  2  0
 17 18  1  0
 17 19  1  0
 19 20  1  0
 20 21  1  0
 21 22  1  0
 12 23  2  0
  2 24  1  0
 24 25  1  0
 25 26  1  0
 26 27  1  0
 27 28  1  0
 28 29  1  0
 29 30  1  0
 29 31  1  0
 31 32  1  0
 32 33  1  0
 23  4  1  0
 32 24  1  0
 18 13  2  0
 30 25  1  0
 22 16  1  0
 33 27  1  0
  3 34  1  0
  5 35  1  0
 14 36  1  0
 15 37  1  0
 18 38  1  0
 19 39  1  0
 19 40  1  0
 20 41  1  0
 20 42  1  0
 21 43  1  0
 21 44  1  0
 24 45  1  6
 25 46  1  6
 26 47  1  0
 26 48  1  0
 27 49  1  6
 28 50  1  0
 28 51  1  0
 29 52  1  1
 30 53  1  0
 30 54  1  0
 31 55  1  0
 31 56  1  0
 32 57  1  1
 33 58  1  0
 33 59  1  0
M  END
>  <meeko>  (259) 
{"is_sidechain": false}

$$$$

     RDKit          3D

 52 56  0  0  0  0  0  0  0  0999 V2000
    9.4850    2.0060  -60.4690 O   0  0  0  0  0  0  0  0  0  0  0  0
    9.7080    2.9960  -59.7820 C   0  0  0  0  0  0  0  0  0  0  0  0
    8.9750    3.3840  -58.6820 N   0  0  0  0  0  0  0  0  0  0  0  0
    7.8250    2.7900  -58.1570 C   0  0  0  0  0  0  0  0  0  0  0  0
    6.5660    2.9510  -58.6840 C   0  0  0  0  0  0  0  0  0  0  0  0
    5.5340    2.2950  -58.0370 C   0  0  0  0  0  0  0  0  0  0  0  0
    4.1230    2.4380  -58.5820 C   0  0  0  0  0  0  0  0  0  0  0  0
    3.7680    3.7420  -58.7770 F   0  0  0  0  0  0  0  0  0  0  0  0
    3.1830    1.9220  -57.7390 F   0  0  0  0  0  0  0  0  0  0  0  0
    3.9240    1.8190  -59.7800 F   0  0  0  0  0  0  0  0  0  0  0  0
    5.7520    1.5320  -56.9370 N   0  0  0  0  0  0  0  0  0  0  0  0
    7.0150    1.4340  -56.4900 C   0  0  0  0  0  0  0  0  0  0  0  0
    7.2630    0.6060  -55.2920 C   0  0  0  0  0  0  0  0  0  0  0  0
    6.2210   -0.0610  -54.6260 C   0  0  0  0  0  0  0  0  0  0  0  0
    6.4620   -0.8450  -53.4910 C   0  0  0  0  0  0  0  0  0  0  0  0
    7.7530   -0.9890  -52.9820 C   0  0  0  0  0  0  0  0  0  0  0  0
    7.8410   -1.7800  -51.8750 O   0  0  0  0  0  0  0  0  0  0  0  0
    8.5680   -2.9910  -51.9830 C   0  0  0  0  0  0  0  0  0  0  0  0
    9.8830   -2.7940  -51.7460 F   0  0  0  0  0  0  0  0  0  0  0  0
    8.1030   -3.8600  -51.0590 F   0  0  0  0  0  0  0  0  0  0  0  0
    8.4070   -3.5500  -53.2020 F   0  0  0  0  0  0  0  0  0  0  0  0
    8.8030   -0.3380  -53.6250 C   0  0  0  0  0  0  0  0  0  0  0  0
    8.5570    0.4470  -54.7620 C   0  0  0  0  0  0  0  0  0  0  0  0
    8.0650    2.0430  -57.0680 N   0  0  0  0  0  0  0  0  0  0  0  0
   10.9060    3.9060  -60.0340 C   0  0  1  0  0  0  0  0  0  0  0  0
   10.7980    5.3200  -59.4370 C   0  0  1  0  0  0  0  0  0  0  0  0
   10.8270    5.2860  -57.8760 C   0  0  0  0  0  0  0  0  0  0  0  0
   12.0590    4.5020  -57.3380 C   0  0  2  0  0  0  0  0  0  0  0  0
   13.3420    5.0760  -57.9400 C   0  0  0  0  0  0  0  0  0  0  0  0
   13.1050    4.7980  -59.4310 C   0  0  2  0  0  0  0  0  0  0  0  0
   12.1340    5.8800  -59.9370 C   0  0  0  0  0  0  0  0  0  0  0  0
   12.2640    3.4640  -59.4530 C   0  0  1  0  0  0  0  0  0  0  0  0
   12.0970    3.1100  -57.9660 C   0  0  0  0  0  0  0  0  0  0  0  0
    9.2730    4.1910  -58.1510 H   0  0  0  0  0  0  0  0  0  0  0  0
    6.3878    3.5703  -59.5754 H   0  0  0  0  0  0  0  0  0  0  0  0
    5.1927    0.0348  -55.0047 H   0  0  0  0  0  0  0  0  0  0  0  0
    5.6227   -1.3538  -52.9944 H   0  0  0  0  0  0  0  0  0  0  0  0
    9.8286   -0.4395  -53.2404 H   0  0  0  0  0  0  0  0  0  0  0  0
    9.4008    0.9532  -55.2537 H   0  0  0  0  0  0  0  0  0  0  0  0
   10.8762    3.8638  -61.1328 H   0  0  0  0  0  0  0  0  0  0  0  0
    9.8836    5.8677  -59.7086 H   0  0  0  0  0  0  0  0  0  0  0  0
   10.8690    6.3182  -57.4981 H   0  0  0  0  0  0  0  0  0  0  0  0
    9.9175    4.7744  -57.5281 H   0  0  0  0  0  0  0  0  0  0  0  0
   11.9900    4.5326  -56.2406 H   0  0  0  0  0  0  0  0  0  0  0  0
   13.4378    6.1532  -57.7386 H   0  0  0  0  0  0  0  0  0  0  0  0
   14.2694    4.6435  -57.5364 H   0  0  0  0  0  0  0  0  0  0  0  0
   14.0383    4.7627  -60.0121 H   0  0  0  0  0  0  0  0  0  0  0  0
   12.3538    6.8617  -59.4922 H   0  0  0  0  0  0  0  0  0  0  0  0
   12.1762    6.0600  -61.0214 H   0  0  0  0  0  0  0  0  0  0  0  0
   12.6900    2.6213  -60.0173 H   0  0  0  0  0  0  0  0  0  0  0  0
   11.1624    2.5591  -57.7843 H   0  0  0  0  0  0  0  0  0  0  0  0
   12.8827    2.4528  -57.5651 H   0  0  0  0  0  0  0  0  0  0  0  0
  1  2  2  0
  2  3  1  0
  3  4  1  0
  4  5  2  0
  5  6  1  0
  6  7  1  0
  7  8  1  0
  7  9  1  0
  7 10  1  0
  6 11  2  0
 11 12  1  0
 12 13  1  0
 13 14  1  0
 14 15  2  0
 15 16  1  0
 16 17  1  0
 17 18  1  0
 18 19  1  0
 18 20  1  0
 18 21  1  0
 16 22  2  0
 22 23  1  0
 12 24  2  0
  2 25  1  0
 25 26  1  0
 26 27  1  0
 27 28  1  0
 28 29  1  0
 29 30  1  0
 30 31  1  0
 30 32  1  0
 32 33  1  0
 24  4  1  0
 32 25  1  0
 23 13  2  0
 31 26  1  0
 33 28  1  0
  3 34  1  0
  5 35  1  0
 14 36  1  0
 15 37  1  0
 22 38  1  0
 23 39  1  0
 25 40  1  6
 26 41  1  1
 27 42  1  0
 27 43  1  0
 28 44  1  1
 29 45  1  0
 29 46  1  0
 30 47  1  6
 31 48  1  0
 31 49  1  0
 32 50  1  6
 33 51  1  0
 33 52  1  0
M  END
>  <meeko>  (260) 
{"is_sidechain": false}

$$$$

     RDKit          3D

 56 58  0  0  0  0  0  0  0  0999 V2000
   12.4040    6.6510  -59.9810 C   0  0  0  0  0  0  0  0  0  0  0  0
   11.9470    5.3770  -60.4190 O   0  0  0  0  0  0  0  0  0  0  0  0
   10.7210    4.9780  -59.9620 C   0  0  0  0  0  0  0  0  0  0  0  0
   10.1230    5.3790  -58.7740 C   0  0  0  0  0  0  0  0  0  0  0  0
    8.8530    4.8920  -58.4150 C   0  0  0  0  0  0  0  0  0  0  0  0
    8.2860    5.3580  -57.2480 O   0  0  0  0  0  0  0  0  0  0  0  0
    9.2380    5.3900  -56.1810 C   0  0  0  0  0  0  0  0  0  0  0  0
    8.1150    4.0210  -59.2540 C   0  0  0  0  0  0  0  0  0  0  0  0
    6.8270    3.5680  -58.8810 N   0  0  0  0  0  0  0  0  0  0  0  0
    6.6880    2.1060  -58.6880 C   0  0  2  0  0  0  0  0  0  0  0  0
    5.5710    1.3200  -59.5100 C   0  0  0  0  0  0  0  0  0  0  0  0
    4.5210    1.9700  -59.8160 O   0  0  0  0  0  0  0  0  0  0  0  0
    5.8760    0.1280  -59.8360 O   0  0  0  0  0  0  0  0  0  0  0  0
    6.7290    1.8920  -57.2120 N   0  0  0  0  0  0  0  0  0  0  0  0
    5.7990    2.7370  -56.4720 C   0  0  0  0  0  0  0  0  0  0  0  0
    7.8360    1.3480  -56.5640 C   0  0  0  0  0  0  0  0  0  0  0  0
    9.1400    1.5420  -57.0150 C   0  0  0  0  0  0  0  0  0  0  0  0
   10.2100    0.9620  -56.3510 C   0  0  0  0  0  0  0  0  0  0  0  0
   10.0930    0.1670  -55.2690 N   0  0  0  0  0  0  0  0  0  0  0  0
    8.8370   -0.0500  -54.8150 C   0  0  0  0  0  0  0  0  0  0  0  0
    8.7310   -0.9250  -53.6260 C   0  0  0  0  0  0  0  0  0  0  0  0
    9.7370   -1.8610  -53.3330 C   0  0  0  0  0  0  0  0  0  0  0  0
    9.6600   -2.6940  -52.2110 C   0  0  0  0  0  0  0  0  0  0  0  0
    8.5700   -2.6100  -51.3420 C   0  0  0  0  0  0  0  0  0  0  0  0
    8.4680   -3.5240  -50.1580 C   0  0  0  0  0  0  0  0  0  0  0  0
    7.5470   -1.7020  -51.6300 C   0  0  0  0  0  0  0  0  0  0  0  0
    7.6300   -0.8700  -52.7540 C   0  0  0  0  0  0  0  0  0  0  0  0
    7.7160    0.5230  -55.4320 C   0  0  0  0  0  0  0  0  0  0  0  0
    8.7500    3.6380  -60.4590 C   0  0  0  0  0  0  0  0  0  0  0  0
    8.1030    2.7380  -61.4210 N   0  0  0  0  0  0  0  0  0  0  0  0
    8.5820    1.6040  -61.5850 O   0  0  0  0  0  0  0  0  0  0  0  0
    7.0520    3.1230  -61.9610 O   0  0  0  0  0  0  0  0  0  0  0  0
   10.0330    4.1100  -60.8030 C   0  0  0  0  0  0  0  0  0  0  0  0
   12.4140    6.6788  -58.8814 H   0  0  0  0  0  0  0  0  0  0  0  0
   13.4211    6.8264  -60.3615 H   0  0  0  0  0  0  0  0  0  0  0  0
   11.7303    7.4329  -60.3615 H   0  0  0  0  0  0  0  0  0  0  0  0
   10.6462    6.0822  -58.1094 H   0  0  0  0  0  0  0  0  0  0  0  0
    8.7088    5.3722  -55.2168 H   0  0  0  0  0  0  0  0  0  0  0  0
    9.8988    4.5136  -56.2528 H   0  0  0  0  0  0  0  0  0  0  0  0
    9.8385    6.3088  -56.2528 H   0  0  0  0  0  0  0  0  0  0  0  0
    6.1210    3.8240  -59.5680 H   0  0  0  0  0  0  0  0  0  0  0  0
    7.5274    1.5981  -59.1854 H   0  0  0  0  0  0  0  0  0  0  0  0
    5.9547    2.5956  -55.3923 H   0  0  0  0  0  0  0  0  0  0  0  0
    5.9744    3.7912  -56.7328 H   0  0  0  0  0  0  0  0  0  0  0  0
    4.7664    2.4617  -56.7328 H   0  0  0  0  0  0  0  0  0  0  0  0
    9.3222    2.1609  -57.9059 H   0  0  0  0  0  0  0  0  0  0  0  0
   11.2217    1.1641  -56.7327 H   0  0  0  0  0  0  0  0  0  0  0  0
   10.6066   -1.9411  -54.0019 H   0  0  0  0  0  0  0  0  0  0  0  0
   10.4629   -3.4192  -52.0124 H   0  0  0  0  0  0  0  0  0  0  0  0
    8.5339   -2.9336  -49.2322 H   0  0  0  0  0  0  0  0  0  0  0  0
    7.5050   -4.0549  -50.1865 H   0  0  0  0  0  0  0  0  0  0  0  0
    9.2902   -4.2541  -50.1865 H   0  0  0  0  0  0  0  0  0  0  0  0
    6.6700   -1.6403  -50.9689 H   0  0  0  0  0  0  0  0  0  0  0  0
    6.8163   -0.1586  -52.9585 H   0  0  0  0  0  0  0  0  0  0  0  0
    6.7163    0.3218  -55.0195 H   0  0  0  0  0  0  0  0  0  0  0  0
   10.4954    3.7880  -61.7477 H   0  0  0  0  0  0  0  0  0  0  0  0
  1  2  1  0
  2  3  1  0
  3  4  2  0
  4  5  1  0
  5  6  1  0
  6  7  1  0
  5  8  2  0
  8  9  1  0
  9 10  1  0
 10 11  1  0
 11 12  2  0
 11 13  1  0
 10 14  1  0
 14 15  1  0
 14 16  1  0
 16 17  2  0
 17 18  1  0
 18 19  2  0
 19 20  1  0
 20 21  1  0
 21 22  1  0
 22 23  2  0
 23 24  1  0
 24 25  1  0
 24 26  2  0
 26 27  1  0
 20 28  2  0
  8 29  1  0
 29 30  1  0
 30 31  2  0
 30 32  1  0
 29 33  2  0
 33  3  1  0
 28 16  1  0
 27 21  2  0
  1 34  1  0
  1 35  1  0
  1 36  1  0
  4 37  1  0
  7 38  1  0
  7 39  1  0
  7 40  1  0
  9 41  1  0
 10 42  1  6
 15 43  1  0
 15 44  1  0
 15 45  1  0
 17 46  1  0
 18 47  1  0
 22 48  1  0
 23 49  1  0
 25 50  1  0
 25 51  1  0
 25 52  1  0
 26 53  1  0
 27 54  1  0
 28 55  1  0
 33 56  1  0
M  CHG  3  13  -1  30   1  32  -1
M  END
>  <meeko>  (261) 
{"is_sidechain": false}

$$$$

     RDKit          3D

 56 58  0  0  0  0  0  0  0  0999 V2000
    4.4390    1.8540  -62.9570 C   0  0  0  0  0  0  0  0  0  0  0  0
    5.6430    2.6010  -62.8200 O   0  0  0  0  0  0  0  0  0  0  0  0
    6.3130    2.4510  -61.6360 C   0  0  0  0  0  0  0  0  0  0  0  0
    7.6950    2.5900  -61.7140 C   0  0  0  0  0  0  0  0  0  0  0  0
    8.4910    2.4440  -60.5700 C   0  0  0  0  0  0  0  0  0  0  0  0
    9.8520    2.6260  -60.6670 O   0  0  0  0  0  0  0  0  0  0  0  0
   10.1840    3.9780  -60.9850 C   0  0  0  0  0  0  0  0  0  0  0  0
    7.9270    2.2090  -59.2980 C   0  0  0  0  0  0  0  0  0  0  0  0
    8.7940    1.9930  -58.1990 N   0  0  0  0  0  0  0  0  0  0  0  0
    9.5290    3.2110  -57.7600 C   0  0  1  0  0  0  0  0  0  0  0  0
    8.6590    4.4930  -57.3970 C   0  0  0  0  0  0  0  0  0  0  0  0
    8.8980    5.5780  -58.0120 O   0  0  0  0  0  0  0  0  0  0  0  0
    7.7710    4.2940  -56.5030 O   0  0  0  0  0  0  0  0  0  0  0  0
   10.5100    2.6890  -56.7700 N   0  0  0  0  0  0  0  0  0  0  0  0
   11.8860    2.6020  -57.2690 C   0  0  0  0  0  0  0  0  0  0  0  0
   10.0430    1.5280  -56.1270 C   0  0  0  0  0  0  0  0  0  0  0  0
    8.9640    1.5100  -55.2480 C   0  0  0  0  0  0  0  0  0  0  0  0
    8.6050    0.3080  -54.6650 C   0  0  0  0  0  0  0  0  0  0  0  0
    9.2380   -0.8660  -54.8900 N   0  0  0  0  0  0  0  0  0  0  0  0
   10.3130   -0.8450  -55.7190 C   0  0  0  0  0  0  0  0  0  0  0  0
   11.0050   -2.1400  -55.9090 C   0  0  0  0  0  0  0  0  0  0  0  0
   10.9510   -3.1370  -54.9180 C   0  0  0  0  0  0  0  0  0  0  0  0
   11.5940   -4.3680  -55.0790 C   0  0  0  0  0  0  0  0  0  0  0  0
   12.3110   -4.6450  -56.2460 C   0  0  0  0  0  0  0  0  0  0  0  0
   13.0320   -5.9490  -56.4080 C   0  0  0  0  0  0  0  0  0  0  0  0
   12.3980   -3.6580  -57.2320 C   0  0  0  0  0  0  0  0  0  0  0  0
   11.7520   -2.4270  -57.0650 C   0  0  0  0  0  0  0  0  0  0  0  0
   10.7280    0.3290  -56.3490 C   0  0  0  0  0  0  0  0  0  0  0  0
    6.5250    2.1030  -59.2450 C   0  0  0  0  0  0  0  0  0  0  0  0
    5.8280    1.9340  -57.9710 N   0  0  0  0  0  0  0  0  0  0  0  0
    4.7740    2.5640  -57.7900 O   0  0  0  0  0  0  0  0  0  0  0  0
    6.2960    1.1170  -57.1610 O   0  0  0  0  0  0  0  0  0  0  0  0
    5.7200    2.2180  -60.3980 C   0  0  0  0  0  0  0  0  0  0  0  0
    4.0441    1.6090  -61.9600 H   0  0  0  0  0  0  0  0  0  0  0  0
    3.6978    2.4511  -63.5084 H   0  0  0  0  0  0  0  0  0  0  0  0
    4.6448    0.9247  -63.5084 H   0  0  0  0  0  0  0  0  0  0  0  0
    8.1668    2.8164  -62.6816 H   0  0  0  0  0  0  0  0  0  0  0  0
   10.3243    4.5494  -60.0556 H   0  0  0  0  0  0  0  0  0  0  0  0
   11.1139    3.9988  -61.5722 H   0  0  0  0  0  0  0  0  0  0  0  0
    9.3695    4.4272  -61.5722 H   0  0  0  0  0  0  0  0  0  0  0  0
    9.5380    1.3450  -58.4500 H   0  0  0  0  0  0  0  0  0  0  0  0
   10.0551    3.7122  -58.5858 H   0  0  0  0  0  0  0  0  0  0  0  0
   12.5823    2.5580  -56.4186 H   0  0  0  0  0  0  0  0  0  0  0  0
   11.9973    1.6950  -57.8814 H   0  0  0  0  0  0  0  0  0  0  0  0
   12.1106    3.4877  -57.8814 H   0  0  0  0  0  0  0  0  0  0  0  0
    8.4085    2.4321  -55.0217 H   0  0  0  0  0  0  0  0  0  0  0  0
    7.7494    0.3068  -53.9737 H   0  0  0  0  0  0  0  0  0  0  0  0
   10.3885   -2.9431  -53.9928 H   0  0  0  0  0  0  0  0  0  0  0  0
   11.5351   -5.1235  -54.2817 H   0  0  0  0  0  0  0  0  0  0  0  0
   13.2626   -6.3661  -55.4166 H   0  0  0  0  0  0  0  0  0  0  0  0
   12.3953   -6.6535  -56.9631 H   0  0  0  0  0  0  0  0  0  0  0  0
   13.9673   -5.7844  -56.9631 H   0  0  0  0  0  0  0  0  0  0  0  0
   12.9786   -3.8499  -58.1464 H   0  0  0  0  0  0  0  0  0  0  0  0
   11.8307   -1.6671  -57.8564 H   0  0  0  0  0  0  0  0  0  0  0  0
   11.5973    0.3113  -57.0228 H   0  0  0  0  0  0  0  0  0  0  0  0
    4.6269    2.1238  -60.3191 H   0  0  0  0  0  0  0  0  0  0  0  0
  1  2  1  0
  2  3  1  0
  3  4  2  0
  4  5  1  0
  5  6  1  0
  6  7  1  0
  5  8  2  0
  8  9  1  0
  9 10  1  0
 10 11  1  0
 11 12  2  0
 11 13  1  0
 10 14  1  0
 14 15  1  0
 14 16  1  0
 16 17  2  0
 17 18  1  0
 18 19  2  0
 19 20  1  0
 20 21  1  0
 21 22  1  0
 22 23  2  0
 23 24  1  0
 24 25  1  0
 24 26  2  0
 26 27  1  0
 20 28  2  0
  8 29  1  0
 29 30  1  0
 30 31  2  0
 30 32  1  0
 29 33  2  0
 33  3  1  0
 28 16  1  0
 27 21  2  0
  1 34  1  0
  1 35  1  0
  1 36  1  0
  4 37  1  0
  7 38  1  0
  7 39  1  0
  7 40  1  0
  9 41  1  0
 10 42  1  6
 15 43  1  0
 15 44  1  0
 15 45  1  0
 17 46  1  0
 18 47  1  0
 22 48  1  0
 23 49  1  0
 25 50  1  0
 25 51  1  0
 25 52  1  0
 26 53  1  0
 27 54  1  0
 28 55  1  0
 33 56  1  0
M  CHG  3  13  -1  30   1  32  -1
M  END
>  <meeko>  (262) 
{"is_sidechain": false}

$$$$

     RDKit          3D

 42 45  0  0  0  0  0  0  0  0999 V2000
    7.7820    5.1050  -59.7630 O   0  0  0  0  0  0  0  0  0  0  0  0
    8.5470    4.2300  -60.1540 C   0  0  0  0  0  0  0  0  0  0  0  0
    8.1330    2.9990  -60.6140 N   0  0  0  0  0  0  0  0  0  0  0  0
    6.8060    2.5690  -60.7060 C   0  0  0  0  0  0  0  0  0  0  0  0
    6.3580    2.6790  -61.9830 N   0  0  0  0  0  0  0  0  0  0  0  0
    5.1190    2.2280  -62.2690 C   0  0  0  0  0  0  0  0  0  0  0  0
    4.2740    1.6830  -61.3280 C   0  0  0  0  0  0  0  0  0  0  0  0
    4.7210    1.6350  -60.0130 C   0  0  0  0  0  0  0  0  0  0  0  0
    6.0030    2.1120  -59.6680 C   0  0  0  0  0  0  0  0  0  0  0  0
    6.3540    2.1760  -58.2100 C   0  0  0  0  0  0  0  0  0  0  0  0
    5.3960    1.5490  -57.4510 F   0  0  0  0  0  0  0  0  0  0  0  0
    7.5080    1.5310  -57.8920 F   0  0  0  0  0  0  0  0  0  0  0  0
    6.4200    3.4270  -57.6800 F   0  0  0  0  0  0  0  0  0  0  0  0
   10.0730    4.3630  -60.0660 C   0  0  2  0  0  0  0  0  0  0  0  0
   10.7620    3.0660  -59.5690 C   0  0  1  0  0  0  0  0  0  0  0  0
   12.2870    3.2270  -59.7460 C   0  0  0  0  0  0  0  0  0  0  0  0
   12.7940    4.4230  -58.9180 C   0  0  2  0  0  0  0  0  0  0  0  0
   12.4790    4.1770  -57.4330 C   0  0  0  0  0  0  0  0  0  0  0  0
   10.9610    4.0170  -57.2370 C   0  0  2  0  0  0  0  0  0  0  0  0
   10.4690    2.8270  -58.0740 C   0  0  0  0  0  0  0  0  0  0  0  0
   10.2510    5.2950  -57.7100 C   0  0  0  0  0  0  0  0  0  0  0  0
   10.5520    5.5550  -59.1990 C   0  0  1  0  0  0  0  0  0  0  0  0
   12.0770    5.7050  -59.3760 C   0  0  0  0  0  0  0  0  0  0  0  0
    8.7590    2.2230  -60.4390 H   0  0  0  0  0  0  0  0  0  0  0  0
    4.7653    2.2993  -63.3081 H   0  0  0  0  0  0  0  0  0  0  0  0
    3.2814    1.2997  -61.6070 H   0  0  0  0  0  0  0  0  0  0  0  0
    4.0673    1.2200  -59.2317 H   0  0  0  0  0  0  0  0  0  0  0  0
   10.3775    4.5576  -61.1049 H   0  0  0  0  0  0  0  0  0  0  0  0
   10.3784    2.2134  -60.1486 H   0  0  0  0  0  0  0  0  0  0  0  0
   12.7912    2.3101  -59.4068 H   0  0  0  0  0  0  0  0  0  0  0  0
   12.5087    3.4056  -60.8085 H   0  0  0  0  0  0  0  0  0  0  0  0
   13.8791    4.5349  -59.0596 H   0  0  0  0  0  0  0  0  0  0  0  0
   12.9880    3.2607  -57.0995 H   0  0  0  0  0  0  0  0  0  0  0  0
   12.8311    5.0353  -56.8420 H   0  0  0  0  0  0  0  0  0  0  0  0
   10.7397    3.8425  -56.1737 H   0  0  0  0  0  0  0  0  0  0  0  0
   10.9857    1.9135  -57.7446 H   0  0  0  0  0  0  0  0  0  0  0  0
    9.3833    2.7170  -57.9355 H   0  0  0  0  0  0  0  0  0  0  0  0
    9.1656    5.1784  -57.5743 H   0  0  0  0  0  0  0  0  0  0  0  0
   10.6158    6.1469  -57.1174 H   0  0  0  0  0  0  0  0  0  0  0  0
   10.0262    6.4677  -59.5160 H   0  0  0  0  0  0  0  0  0  0  0  0
   12.3033    5.8887  -60.4367 H   0  0  0  0  0  0  0  0  0  0  0  0
   12.4277    6.5500  -58.7653 H   0  0  0  0  0  0  0  0  0  0  0  0
  1  2  2  0
  2  3  1  0
  3  4  1  0
  4  5  1  0
  5  6  2  0
  6  7  1  0
  7  8  2  0
  8  9  1  0
  9 10  1  0
 10 11  1  0
 10 12  1  0
 10 13  1  0
  2 14  1  0
 14 15  1  0
 15 16  1  0
 16 17  1  0
 17 18  1  0
 18 19  1  0
 19 20  1  0
 19 21  1  0
 21 22  1  0
 22 23  1  0
  9  4  2  0
 22 14  1  0
 20 15  1  0
 23 17  1  0
  3 24  1  0
  6 25  1  0
  7 26  1  0
  8 27  1  0
 14 28  1  1
 15 29  1  1
 16 30  1  0
 16 31  1  0
 17 32  1  6
 18 33  1  0
 18 34  1  0
 19 35  1  6
 20 36  1  0
 20 37  1  0
 21 38  1  0
 21 39  1  0
 22 40  1  1
 23 41  1  0
 23 42  1  0
M  END
>  <meeko>  (263) 
{"is_sidechain": false}

$$$$

     RDKit          3D

 62 67  0  0  0  0  0  0  0  0999 V2000
    8.8520    5.4570  -56.3930 O   0  0  0  0  0  0  0  0  0  0  0  0
    9.4590    4.8330  -57.2550 C   0  0  0  0  0  0  0  0  0  0  0  0
    9.0130    3.6720  -57.8460 N   0  0  0  0  0  0  0  0  0  0  0  0
    7.8500    2.9500  -57.5660 C   0  0  0  0  0  0  0  0  0  0  0  0
    6.6500    3.1360  -58.2090 C   0  0  0  0  0  0  0  0  0  0  0  0
    5.5970    2.3370  -57.8040 C   0  0  0  0  0  0  0  0  0  0  0  0
    4.2500    2.5030  -58.4860 C   0  0  0  0  0  0  0  0  0  0  0  0
    3.9070    3.7990  -58.7310 F   0  0  0  0  0  0  0  0  0  0  0  0
    3.2250    1.9810  -57.7520 F   0  0  0  0  0  0  0  0  0  0  0  0
    4.1960    1.8720  -59.6940 F   0  0  0  0  0  0  0  0  0  0  0  0
    5.7380    1.4150  -56.8190 N   0  0  0  0  0  0  0  0  0  0  0  0
    6.9470    1.3030  -56.2430 C   0  0  0  0  0  0  0  0  0  0  0  0
    7.1120    0.3040  -55.1680 C   0  0  0  0  0  0  0  0  0  0  0  0
    8.3760   -0.0080  -54.6400 C   0  0  0  0  0  0  0  0  0  0  0  0
    8.5350   -0.9580  -53.6190 C   0  0  0  0  0  0  0  0  0  0  0  0
    7.4350   -1.6330  -53.0780 C   0  0  0  0  0  0  0  0  0  0  0  0
    7.6100   -2.6360  -52.0160 C   0  0  0  0  0  0  0  0  0  0  0  0
    8.5050   -2.6020  -51.0160 C   0  0  0  0  0  0  0  0  0  0  0  0
    8.4210   -3.8090  -50.1420 C   0  0  0  0  0  0  0  0  0  0  0  0
    7.0880   -4.4260  -50.5510 C   0  0  0  0  0  0  0  0  0  0  0  0
    6.7990   -3.8990  -51.9550 C   0  0  0  0  0  0  0  0  0  0  0  0
    6.1720   -1.3330  -53.6030 C   0  0  0  0  0  0  0  0  0  0  0  0
    6.0140   -0.3840  -54.6250 C   0  0  0  0  0  0  0  0  0  0  0  0
    8.0140    2.0470  -56.5850 N   0  0  0  0  0  0  0  0  0  0  0  0
   10.7990    5.3170  -57.8320 C   0  0  2  0  0  0  0  0  0  0  0  0
   10.8390    5.3260  -59.3810 C   0  0  1  0  0  0  0  0  0  0  0  0
   12.1270    6.0460  -59.8300 C   0  0  0  0  0  0  0  0  0  0  0  0
   13.3640    5.3050  -59.2940 C   0  0  2  0  0  0  0  0  0  0  0  0
   13.3660    3.8730  -59.8530 C   0  0  0  0  0  0  0  0  0  0  0  0
   12.0930    3.1340  -59.4090 C   0  0  2  0  0  0  0  0  0  0  0  0
   10.8570    3.8860  -59.9270 C   0  0  0  0  0  0  0  0  0  0  0  0
   12.0480    3.0910  -57.8750 C   0  0  0  0  0  0  0  0  0  0  0  0
   12.0190    4.5220  -57.3010 C   0  0  1  0  0  0  0  0  0  0  0  0
   13.3030    5.2480  -57.7550 C   0  0  0  0  0  0  0  0  0  0  0  0
    9.5400    3.2700  -58.6100 H   0  0  0  0  0  0  0  0  0  0  0  0
    6.5329    3.8840  -59.0070 H   0  0  0  0  0  0  0  0  0  0  0  0
    9.2641    0.5055  -55.0370 H   0  0  0  0  0  0  0  0  0  0  0  0
    9.5432   -1.1760  -53.2369 H   0  0  0  0  0  0  0  0  0  0  0  0
    9.2181   -1.7794  -50.8588 H   0  0  0  0  0  0  0  0  0  0  0  0
    9.2546   -4.4995  -50.3379 H   0  0  0  0  0  0  0  0  0  0  0  0
    8.4836   -3.5763  -49.0687 H   0  0  0  0  0  0  0  0  0  0  0  0
    7.1610   -5.5235  -50.5613 H   0  0  0  0  0  0  0  0  0  0  0  0
    6.2861   -4.1613  -49.8461 H   0  0  0  0  0  0  0  0  0  0  0  0
    7.1266   -4.6165  -52.7217 H   0  0  0  0  0  0  0  0  0  0  0  0
    5.7278   -3.7357  -52.1445 H   0  0  0  0  0  0  0  0  0  0  0  0
    5.2863   -1.8512  -53.2067 H   0  0  0  0  0  0  0  0  0  0  0  0
    5.0054   -0.1737  -55.0104 H   0  0  0  0  0  0  0  0  0  0  0  0
   10.8733    6.3552  -57.4762 H   0  0  0  0  0  0  0  0  0  0  0  0
    9.9466    5.8412  -59.7659 H   0  0  0  0  0  0  0  0  0  0  0  0
   12.1656    6.0699  -60.9291 H   0  0  0  0  0  0  0  0  0  0  0  0
   12.1224    7.0715  -59.4321 H   0  0  0  0  0  0  0  0  0  0  0  0
   14.2776    5.8330  -59.6047 H   0  0  0  0  0  0  0  0  0  0  0  0
   13.4009    3.9108  -60.9518 H   0  0  0  0  0  0  0  0  0  0  0  0
   14.2470    3.3370  -59.4703 H   0  0  0  0  0  0  0  0  0  0  0  0
   12.0991    2.1114  -59.8143 H   0  0  0  0  0  0  0  0  0  0  0  0
   10.8844    3.9152  -61.0263 H   0  0  0  0  0  0  0  0  0  0  0  0
    9.9513    3.3630  -59.5861 H   0  0  0  0  0  0  0  0  0  0  0  0
   11.1444    2.5524  -57.5533 H   0  0  0  0  0  0  0  0  0  0  0  0
   12.9459    2.5746  -57.5046 H   0  0  0  0  0  0  0  0  0  0  0  0
   11.9498    4.4618  -56.2048 H   0  0  0  0  0  0  0  0  0  0  0  0
   13.3035    6.2718  -57.3528 H   0  0  0  0  0  0  0  0  0  0  0  0
   14.1789    4.6980  -57.3804 H   0  0  0  0  0  0  0  0  0  0  0  0
  1  2  2  0
  2  3  1  0
  3  4  1  0
  4  5  2  0
  5  6  1  0
  6  7  1  0
  7  8  1  0
  7  9  1  0
  7 10  1  0
  6 11  2  0
 11 12  1  0
 12 13  1  0
 13 14  1  0
 14 15  2  0
 15 16  1  0
 16 17  1  0
 17 18  2  0
 18 19  1  0
 19 20  1  0
 20 21  1  0
 16 22  2  0
 22 23  1  0
 12 24  2  0
  2 25  1  0
 25 26  1  0
 26 27  1  0
 27 28  1  0
 28 29  1  0
 29 30  1  0
 30 31  1  0
 30 32  1  0
 32 33  1  0
 33 34  1  0
 24  4  1  0
 33 25  1  0
 23 13  2  0
 31 26  1  0
 21 17  1  0
 34 28  1  0
  3 35  1  0
  5 36  1  0
 14 37  1  0
 15 38  1  0
 18 39  1  0
 19 40  1  0
 19 41  1  0
 20 42  1  0
 20 43  1  0
 21 44  1  0
 21 45  1  0
 22 46  1  0
 23 47  1  0
 25 48  1  6
 26 49  1  1
 27 50  1  0
 27 51  1  0
 28 52  1  6
 29 53  1  0
 29 54  1  0
 30 55  1  1
 31 56  1  0
 31 57  1  0
 32 58  1  0
 32 59  1  0
 33 60  1  6
 34 61  1  0
 34 62  1  0
M  END
>  <meeko>  (264) 
{"is_sidechain": false}

$$$$

     RDKit          3D

 33 34  0  0  0  0  0  0  0  0999 V2000
    9.4990    5.5950  -58.2860 O   0  0  0  0  0  0  0  0  0  0  0  0
    9.3900    5.1360  -57.1180 C   0  0  0  0  0  0  0  0  0  0  0  0
    8.8990    5.6570  -56.0780 O   0  0  0  0  0  0  0  0  0  0  0  0
    9.9490    3.7390  -56.8850 C   0  0  0  0  0  0  0  0  0  0  0  0
    9.1980    2.7660  -56.3440 C   0  0  0  0  0  0  0  0  0  0  0  0
    9.6710    1.3830  -56.0890 C   0  0  0  0  0  0  0  0  0  0  0  0
   10.5890    0.9200  -56.7580 O   0  0  0  0  0  0  0  0  0  0  0  0
    9.0430    0.7620  -55.0400 N   0  0  0  0  0  0  0  0  0  0  0  0
    9.2540   -0.5260  -54.5470 C   0  0  0  0  0  0  0  0  0  0  0  0
    8.8300   -0.9500  -53.3100 C   0  0  0  0  0  0  0  0  0  0  0  0
    9.1190   -2.2580  -52.9670 C   0  0  0  0  0  0  0  0  0  0  0  0
    8.6670   -2.7730  -51.6120 C   0  0  0  0  0  0  0  0  0  0  0  0
    7.8510   -3.8630  -51.7060 F   0  0  0  0  0  0  0  0  0  0  0  0
    9.7100   -3.1600  -50.8200 F   0  0  0  0  0  0  0  0  0  0  0  0
    7.9700   -1.8580  -50.8760 F   0  0  0  0  0  0  0  0  0  0  0  0
    9.7890   -3.0890  -53.8070 N   0  0  0  0  0  0  0  0  0  0  0  0
   10.1680   -2.5870  -54.9940 C   0  0  0  0  0  0  0  0  0  0  0  0
   10.9020   -3.4760  -55.9190 C   0  0  0  0  0  0  0  0  0  0  0  0
   11.0170   -4.8610  -55.6740 C   0  0  0  0  0  0  0  0  0  0  0  0
   11.7100   -5.7030  -56.5480 C   0  0  0  0  0  0  0  0  0  0  0  0
   12.3010   -5.1720  -57.6860 C   0  0  0  0  0  0  0  0  0  0  0  0
   12.9660   -5.9790  -58.5240 F   0  0  0  0  0  0  0  0  0  0  0  0
   12.2110   -3.8160  -57.9640 C   0  0  0  0  0  0  0  0  0  0  0  0
   11.5170   -2.9770  -57.0870 C   0  0  0  0  0  0  0  0  0  0  0  0
    9.9220   -1.3290  -55.3930 N   0  0  0  0  0  0  0  0  0  0  0  0
   10.9902    3.5221  -57.1658 H   0  0  0  0  0  0  0  0  0  0  0  0
    8.1610    3.0112  -56.0712 H   0  0  0  0  0  0  0  0  0  0  0  0
    8.3630    1.2920  -54.5110 H   0  0  0  0  0  0  0  0  0  0  0  0
    8.2871   -0.2811  -52.6261 H   0  0  0  0  0  0  0  0  0  0  0  0
   10.5502   -5.2878  -54.7740 H   0  0  0  0  0  0  0  0  0  0  0  0
   11.7866   -6.7795  -56.3354 H   0  0  0  0  0  0  0  0  0  0  0  0
   12.6824   -3.4036  -58.8683 H   0  0  0  0  0  0  0  0  0  0  0  0
   11.4487   -1.9026  -57.3128 H   0  0  0  0  0  0  0  0  0  0  0  0
  1  2  2  0
  2  3  1  0
  2  4  1  0
  4  5  2  0
  5  6  1  0
  6  7  2  0
  6  8  1  0
  8  9  1  0
  9 10  2  0
 10 11  1  0
 11 12  1  0
 12 13  1  0
 12 14  1  0
 12 15  1  0
 11 16  2  0
 16 17  1  0
 17 18  1  0
 18 19  1  0
 19 20  2  0
 20 21  1  0
 21 22  1  0
 21 23  2  0
 23 24  1  0
 17 25  2  0
 25  9  1  0
 24 18  2  0
  4 26  1  0
  5 27  1  0
  8 28  1  0
 10 29  1  0
 19 30  1  0
 20 31  1  0
 23 32  1  0
 24 33  1  0
M  CHG  1   3  -1
M  END
>  <meeko>  (265) 
{"is_sidechain": false}

$$$$

     RDKit          3D

 25 26  0  0  0  0  0  0  0  0999 V2000
    7.0760    3.1780  -56.4560 N   0  0  0  0  0  0  0  0  0  0  0  0
    6.7830    2.9560  -57.5560 C   0  0  0  0  0  0  0  0  0  0  0  0
    6.3850    2.6750  -58.9070 C   0  0  0  0  0  0  0  0  0  0  0  0
    5.0630    2.2760  -59.1340 C   0  0  0  0  0  0  0  0  0  0  0  0
    4.6720    2.0040  -60.4300 C   0  0  0  0  0  0  0  0  0  0  0  0
    5.4990    2.1020  -61.4860 N   0  0  0  0  0  0  0  0  0  0  0  0
    6.7740    2.4890  -61.2390 C   0  0  0  0  0  0  0  0  0  0  0  0
    7.7210    2.5730  -62.6770 Cl  0  0  0  0  0  0  0  0  0  0  0  0
    7.2900    2.7930  -59.9780 C   0  0  0  0  0  0  0  0  0  0  0  0
    8.6850    3.2090  -59.7760 C   0  0  0  0  0  0  0  0  0  0  0  0
    9.0800    4.5320  -60.0210 C   0  0  0  0  0  0  0  0  0  0  0  0
   10.4060    4.9300  -59.8230 C   0  0  0  0  0  0  0  0  0  0  0  0
   11.3680    4.0100  -59.3810 C   0  0  0  0  0  0  0  0  0  0  0  0
   12.7950    4.4430  -59.1480 C   0  0  0  0  0  0  0  0  0  0  0  0
   13.7020    3.6890  -59.8310 F   0  0  0  0  0  0  0  0  0  0  0  0
   13.0300    5.7320  -59.5220 F   0  0  0  0  0  0  0  0  0  0  0  0
   13.1530    4.3630  -57.8370 F   0  0  0  0  0  0  0  0  0  0  0  0
   10.9730    2.6890  -59.1280 C   0  0  0  0  0  0  0  0  0  0  0  0
    9.6470    2.2920  -59.3260 C   0  0  0  0  0  0  0  0  0  0  0  0
    4.3523    2.1813  -58.2998 H   0  0  0  0  0  0  0  0  0  0  0  0
    3.6323    1.6916  -60.6076 H   0  0  0  0  0  0  0  0  0  0  0  0
    8.3388    5.2648  -60.3728 H   0  0  0  0  0  0  0  0  0  0  0  0
   10.6969    5.9732  -60.0155 H   0  0  0  0  0  0  0  0  0  0  0  0
   11.7131    1.9580  -58.7704 H   0  0  0  0  0  0  0  0  0  0  0  0
    9.3551    1.2503  -59.1270 H   0  0  0  0  0  0  0  0  0  0  0  0
  1  2  3  0
  2  3  1  0
  3  4  2  0
  4  5  1  0
  5  6  2  0
  6  7  1  0
  7  8  1  0
  7  9  2  0
  9 10  1  0
 10 11  1  0
 11 12  2  0
 12 13  1  0
 13 14  1  0
 14 15  1  0
 14 16  1  0
 14 17  1  0
 13 18  2  0
 18 19  1  0
  9  3  1  0
 19 10  2  0
  4 20  1  0
  5 21  1  0
 11 22  1  0
 12 23  1  0
 18 24  1  0
 19 25  1  0
M  END
>  <meeko>  (266) 
{"is_sidechain": false}

$$$$

     RDKit          3D

 58 63  0  0  0  0  0  0  0  0999 V2000
    5.5220   -4.1640  -50.8460 N   0  0  0  0  0  0  0  0  0  0  0  0
    6.5320   -3.5520  -51.5480 C   0  0  0  0  0  0  0  0  0  0  0  0
    7.5680   -4.2730  -52.0340 C   0  0  0  0  0  0  0  0  0  0  0  0
    8.5980   -3.7230  -52.7580 N   0  0  0  0  0  0  0  0  0  0  0  0
    8.5380   -2.3940  -53.1240 C   0  0  0  0  0  0  0  0  0  0  0  0
    9.2960   -1.7280  -54.0020 C   0  0  0  0  0  0  0  0  0  0  0  0
   10.4190   -2.3810  -54.7270 C   0  0  0  0  0  0  0  0  0  0  0  0
   10.0960   -3.7220  -55.4560 C   0  0  0  0  0  0  0  0  0  0  0  0
   11.5090   -4.1940  -55.0680 C   0  0  0  0  0  0  0  0  0  0  0  0
   11.4170   -3.2250  -53.8760 C   0  0  0  0  0  0  0  0  0  0  0  0
    8.8100   -0.3800  -54.3740 C   0  0  0  0  0  0  0  0  0  0  0  0
    9.0450    0.1050  -55.5460 N   0  0  0  0  0  0  0  0  0  0  0  0
    8.5580    1.4520  -55.8590 C   0  0  0  0  0  0  0  0  0  0  0  0
    9.6880    2.2630  -56.4990 C   0  0  0  0  0  0  0  0  0  0  0  0
    9.2990    3.1060  -57.7380 C   0  0  2  0  0  0  0  0  0  0  0  0
   10.1460    4.4090  -57.7310 C   0  0  0  0  0  0  0  0  0  0  0  0
    9.8080    5.2930  -58.9430 C   0  0  1  0  0  0  0  0  0  0  0  0
   10.1030    4.5120  -60.2330 C   0  0  0  0  0  0  0  0  0  0  0  0
    9.2530    3.2320  -60.2760 C   0  0  2  0  0  0  0  0  0  0  0  0
    7.7640    3.6120  -60.2280 C   0  0  0  0  0  0  0  0  0  0  0  0
    7.4600    4.3870  -58.9360 C   0  0  2  0  0  0  0  0  0  0  0  0
    8.3180    5.6620  -58.8980 C   0  0  0  0  0  0  0  0  0  0  0  0
    7.8020    3.5030  -57.7230 C   0  0  0  0  0  0  0  0  0  0  0  0
    9.5920    2.3510  -59.0610 C   0  0  0  0  0  0  0  0  0  0  0  0
    8.1270    0.3170  -53.4110 N   0  0  0  0  0  0  0  0  0  0  0  0
    7.4090   -0.2720  -52.5740 N   0  0  0  0  0  0  0  0  0  0  0  0
    7.4050   -1.6410  -52.4670 C   0  0  0  0  0  0  0  0  0  0  0  0
    6.4680   -2.1890  -51.7480 N   0  0  0  0  0  0  0  0  0  0  0  0
    5.3940   -3.7800  -49.9170 H   0  0  0  0  0  0  0  0  0  0  0  0
    5.6970   -5.1660  -50.8330 H   0  0  0  0  0  0  0  0  0  0  0  0
    7.5869   -5.3555  -51.8396 H   0  0  0  0  0  0  0  0  0  0  0  0
    9.2220   -4.3490  -53.2530 H   0  0  0  0  0  0  0  0  0  0  0  0
   10.7240   -1.4700  -55.2628 H   0  0  0  0  0  0  0  0  0  0  0  0
    9.2781   -4.3037  -55.0058 H   0  0  0  0  0  0  0  0  0  0  0  0
    9.7439   -3.7443  -56.4979 H   0  0  0  0  0  0  0  0  0  0  0  0
   11.5806   -5.2568  -54.7934 H   0  0  0  0  0  0  0  0  0  0  0  0
   12.3485   -4.1665  -55.7783 H   0  0  0  0  0  0  0  0  0  0  0  0
   10.9863   -3.6610  -52.9625 H   0  0  0  0  0  0  0  0  0  0  0  0
   12.3142   -2.7773  -53.4237 H   0  0  0  0  0  0  0  0  0  0  0  0
    7.7127    1.3835  -56.5595 H   0  0  0  0  0  0  0  0  0  0  0  0
    8.2265    1.9478  -54.9347 H   0  0  0  0  0  0  0  0  0  0  0  0
   10.0843    2.9489  -55.7358 H   0  0  0  0  0  0  0  0  0  0  0  0
   10.4172    1.5229  -56.8602 H   0  0  0  0  0  0  0  0  0  0  0  0
    9.9366    4.9691  -56.8077 H   0  0  0  0  0  0  0  0  0  0  0  0
   11.2101    4.1353  -57.7830 H   0  0  0  0  0  0  0  0  0  0  0  0
   10.4154    6.2098  -58.9190 H   0  0  0  0  0  0  0  0  0  0  0  0
    9.8607    5.1400  -61.1030 H   0  0  0  0  0  0  0  0  0  0  0  0
   11.1686    4.2399  -60.2558 H   0  0  0  0  0  0  0  0  0  0  0  0
    9.4660    2.6784  -61.2024 H   0  0  0  0  0  0  0  0  0  0  0  0
    7.5208    4.2420  -61.0963 H   0  0  0  0  0  0  0  0  0  0  0  0
    7.1567    2.6951  -60.2501 H   0  0  0  0  0  0  0  0  0  0  0  0
    6.3944    4.6584  -58.9056 H   0  0  0  0  0  0  0  0  0  0  0  0
    8.0724    6.2925  -59.7652 H   0  0  0  0  0  0  0  0  0  0  0  0
    8.1094    6.2104  -57.9675 H   0  0  0  0  0  0  0  0  0  0  0  0
    7.5853    4.0589  -56.7988 H   0  0  0  0  0  0  0  0  0  0  0  0
    7.1935    2.5879  -57.7702 H   0  0  0  0  0  0  0  0  0  0  0  0
    8.9827    1.4359  -59.0972 H   0  0  0  0  0  0  0  0  0  0  0  0
   10.6621    2.0984  -59.0947 H   0  0  0  0  0  0  0  0  0  0  0  0
  1  2  1  0
  2  3  2  0
  3  4  1  0
  4  5  1  0
  5  6  2  0
  6  7  1  0
  7  8  1  0
  8  9  1  0
  9 10  1  0
  6 11  1  0
 11 12  2  0
 12 13  1  0
 13 14  1  0
 15 14  1  1
 15 16  1  0
 16 17  1  0
 17 18  1  0
 18 19  1  0
 19 20  1  0
 20 21  1  0
 21 22  1  0
 21 23  1  0
 19 24  1  0
 11 25  1  0
 25 26  2  0
 26 27  1  0
 27 28  2  0
 28  2  1  0
 27  5  1  0
 10  7  1  0
 23 15  1  0
 24 15  1  0
 22 17  1  0
  1 29  1  0
  1 30  1  0
  3 31  1  0
  4 32  1  0
  7 33  1  0
  8 34  1  0
  8 35  1  0
  9 36  1  0
  9 37  1  0
 10 38  1  0
 10 39  1  0
 13 40  1  0
 13 41  1  0
 14 42  1  0
 14 43  1  0
 16 44  1  0
 16 45  1  0
 17 46  1  6
 18 47  1  0
 18 48  1  0
 19 49  1  6
 20 50  1  0
 20 51  1  0
 21 52  1  6
 22 53  1  0
 22 54  1  0
 23 55  1  0
 23 56  1  0
 24 57  1  0
 24 58  1  0
M  END
>  <meeko>  (267) 
{"is_sidechain": false}

$$$$

     RDKit          3D

 58 63  0  0  0  0  0  0  0  0999 V2000
    5.8750   -4.1160  -50.5360 N   0  0  0  0  0  0  0  0  0  0  0  0
    6.7480   -3.4660  -51.4030 C   0  0  0  0  0  0  0  0  0  0  0  0
    8.0230   -3.9320  -51.6560 C   0  0  0  0  0  0  0  0  0  0  0  0
    8.8660   -3.3120  -52.5110 N   0  0  0  0  0  0  0  0  0  0  0  0
    8.4110   -2.2080  -53.1450 C   0  0  0  0  0  0  0  0  0  0  0  0
    9.2390   -1.5180  -54.0530 C   0  0  0  0  0  0  0  0  0  0  0  0
   10.7370   -1.9800  -54.4580 C   0  0  0  0  0  0  0  0  0  0  0  0
   11.2070   -3.3670  -53.9230 C   0  0  0  0  0  0  0  0  0  0  0  0
   10.9960   -3.9280  -55.3400 C   0  0  0  0  0  0  0  0  0  0  0  0
   11.1410   -2.4900  -55.8660 C   0  0  0  0  0  0  0  0  0  0  0  0
    8.6930   -0.3540  -54.6300 C   0  0  0  0  0  0  0  0  0  0  0  0
    9.4840    0.3850  -55.5340 N   0  0  0  0  0  0  0  0  0  0  0  0
    8.8930    1.6350  -56.0060 C   0  0  0  0  0  0  0  0  0  0  0  0
    9.9910    2.6030  -56.4720 C   0  0  0  0  0  0  0  0  0  0  0  0
    9.7650    3.3560  -57.8110 C   0  0  2  0  0  0  0  0  0  0  0  0
    9.7160    4.8800  -57.5000 C   0  0  0  0  0  0  0  0  0  0  0  0
    9.4770    5.7010  -58.7760 C   0  0  1  0  0  0  0  0  0  0  0  0
   10.6180    5.4320  -59.7690 C   0  0  0  0  0  0  0  0  0  0  0  0
   10.6640    3.9370  -60.1200 C   0  0  2  0  0  0  0  0  0  0  0  0
    9.3210    3.5220  -60.7460 C   0  0  0  0  0  0  0  0  0  0  0  0
    8.1760    3.7820  -59.7530 C   0  0  2  0  0  0  0  0  0  0  0  0
    8.1400    5.2780  -59.4030 C   0  0  0  0  0  0  0  0  0  0  0  0
    8.4180    2.9620  -58.4720 C   0  0  0  0  0  0  0  0  0  0  0  0
   10.8980    3.1140  -58.8400 C   0  0  0  0  0  0  0  0  0  0  0  0
    7.4340    0.0430  -54.3650 N   0  0  0  0  0  0  0  0  0  0  0  0
    6.6480   -0.6520  -53.4920 N   0  0  0  0  0  0  0  0  0  0  0  0
    7.1000   -1.7430  -52.8860 C   0  0  0  0  0  0  0  0  0  0  0  0
    6.2860   -2.3730  -52.0230 N   0  0  0  0  0  0  0  0  0  0  0  0
    5.5310   -4.9910  -50.9150 H   0  0  0  0  0  0  0  0  0  0  0  0
    6.3650   -4.2550  -49.6540 H   0  0  0  0  0  0  0  0  0  0  0  0
    8.3654   -4.8423  -51.1421 H   0  0  0  0  0  0  0  0  0  0  0  0
   11.1178   -1.0021  -54.1284 H   0  0  0  0  0  0  0  0  0  0  0  0
   12.2495   -3.3918  -53.5729 H   0  0  0  0  0  0  0  0  0  0  0  0
   10.7347   -3.8331  -53.0457 H   0  0  0  0  0  0  0  0  0  0  0  0
   11.7801   -4.6208  -55.6795 H   0  0  0  0  0  0  0  0  0  0  0  0
   10.1223   -4.5477  -55.5902 H   0  0  0  0  0  0  0  0  0  0  0  0
   12.1618   -2.2183  -56.1730 H   0  0  0  0  0  0  0  0  0  0  0  0
   10.6081   -2.1561  -56.7685 H   0  0  0  0  0  0  0  0  0  0  0  0
   10.4080    0.5290  -55.1320 H   0  0  0  0  0  0  0  0  0  0  0  0
    8.2169    1.4216  -56.8470 H   0  0  0  0  0  0  0  0  0  0  0  0
    8.3338    2.0998  -55.1806 H   0  0  0  0  0  0  0  0  0  0  0  0
   10.1167    3.3614  -55.6852 H   0  0  0  0  0  0  0  0  0  0  0  0
   10.8672    1.9638  -56.6556 H   0  0  0  0  0  0  0  0  0  0  0  0
    8.8989    5.0750  -56.7898 H   0  0  0  0  0  0  0  0  0  0  0  0
   10.6836    5.1786  -57.0703 H   0  0  0  0  0  0  0  0  0  0  0  0
    9.4466    6.7733  -58.5324 H   0  0  0  0  0  0  0  0  0  0  0  0
   10.4495    6.0168  -60.6853 H   0  0  0  0  0  0  0  0  0  0  0  0
   11.5738    5.7260  -59.3108 H   0  0  0  0  0  0  0  0  0  0  0  0
   11.4823    3.7530  -60.8317 H   0  0  0  0  0  0  0  0  0  0  0  0
    9.1494    4.1072  -61.6614 H   0  0  0  0  0  0  0  0  0  0  0  0
    9.3518    2.4497  -60.9894 H   0  0  0  0  0  0  0  0  0  0  0  0
    7.2178    3.4853  -60.2044 H   0  0  0  0  0  0  0  0  0  0  0  0
    7.9653    5.8625  -60.3183 H   0  0  0  0  0  0  0  0  0  0  0  0
    7.3285    5.4620  -58.6835 H   0  0  0  0  0  0  0  0  0  0  0  0
    7.5991    3.1517  -57.7624 H   0  0  0  0  0  0  0  0  0  0  0  0
    8.4550    1.8954  -58.7383 H   0  0  0  0  0  0  0  0  0  0  0  0
   10.9265    2.0454  -59.0993 H   0  0  0  0  0  0  0  0  0  0  0  0
   11.8524    3.4266  -58.3913 H   0  0  0  0  0  0  0  0  0  0  0  0
  1  2  1  0
  2  3  2  0
  3  4  1  0
  4  5  2  0
  5  6  1  0
  6  7  1  0
  7  8  1  0
  8  9  1  0
  9 10  1  0
  6 11  2  0
 11 12  1  0
 12 13  1  0
 13 14  1  0
 15 14  1  1
 15 16  1  0
 16 17  1  0
 17 18  1  0
 18 19  1  0
 19 20  1  0
 20 21  1  0
 21 22  1  0
 21 23  1  0
 19 24  1  0
 11 25  1  0
 25 26  2  0
 26 27  1  0
 27 28  2  0
 28  2  1  0
 27  5  1  0
 10  7  1  0
 23 15  1  0
 24 15  1  0
 22 17  1  0
  1 29  1  0
  1 30  1  0
  3 31  1  0
  7 32  1  0
  8 33  1  0
  8 34  1  0
  9 35  1  0
  9 36  1  0
 10 37  1  0
 10 38  1  0
 12 39  1  0
 13 40  1  0
 13 41  1  0
 14 42  1  0
 14 43  1  0
 16 44  1  0
 16 45  1  0
 17 46  1  1
 18 47  1  0
 18 48  1  0
 19 49  1  6
 20 50  1  0
 20 51  1  0
 21 52  1  6
 22 53  1  0
 22 54  1  0
 23 55  1  0
 23 56  1  0
 24 57  1  0
 24 58  1  0
M  END
>  <meeko>  (268) 
{"is_sidechain": false}

$$$$

     RDKit          3D

 58 63  0  0  0  0  0  0  0  0999 V2000
    5.7150   -4.1050  -50.4620 N   0  0  0  0  0  0  0  0  0  0  0  0
    6.5040   -3.4950  -51.4000 C   0  0  0  0  0  0  0  0  0  0  0  0
    7.7040   -4.2260  -51.9380 C   0  0  0  0  0  0  0  0  0  0  0  0
    8.5140   -3.7210  -52.8050 N   0  0  0  0  0  0  0  0  0  0  0  0
    8.2300   -2.4480  -53.2540 C   0  0  0  0  0  0  0  0  0  0  0  0
    9.0040   -1.8140  -54.1630 C   0  0  0  0  0  0  0  0  0  0  0  0
   10.2380   -2.4140  -54.7700 C   0  0  0  0  0  0  0  0  0  0  0  0
   11.2940   -3.0590  -53.8390 C   0  0  0  0  0  0  0  0  0  0  0  0
   11.5500   -4.0890  -54.9620 C   0  0  0  0  0  0  0  0  0  0  0  0
   10.1320   -3.7800  -55.4910 C   0  0  0  0  0  0  0  0  0  0  0  0
    8.5780   -0.4220  -54.5750 C   0  0  0  0  0  0  0  0  0  0  0  0
    9.3270    0.1880  -55.4370 N   0  0  0  0  0  0  0  0  0  0  0  0
    8.9990    1.5260  -55.9260 C   0  0  0  0  0  0  0  0  0  0  0  0
   10.0810    1.9970  -56.9000 C   0  0  0  0  0  0  0  0  0  0  0  0
    9.6080    2.9470  -58.0260 C   0  0  2  0  0  0  0  0  0  0  0  0
    9.6780    2.2770  -59.4220 C   0  0  0  0  0  0  0  0  0  0  0  0
    9.2550    3.2660  -60.5230 C   0  0  1  0  0  0  0  0  0  0  0  0
    7.8140    3.7330  -60.2570 C   0  0  0  0  0  0  0  0  0  0  0  0
    7.7310    4.4290  -58.8890 C   0  0  2  0  0  0  0  0  0  0  0  0
    8.6760    5.6410  -58.8790 C   0  0  0  0  0  0  0  0  0  0  0  0
   10.1190    5.1820  -59.1390 C   0  0  2  0  0  0  0  0  0  0  0  0
   10.1930    4.4830  -60.5050 C   0  0  0  0  0  0  0  0  0  0  0  0
   10.5390    4.1920  -58.0420 C   0  0  0  0  0  0  0  0  0  0  0  0
    8.1570    3.4390  -57.7900 C   0  0  0  0  0  0  0  0  0  0  0  0
    7.4360    0.1040  -54.0110 N   0  0  0  0  0  0  0  0  0  0  0  0
    6.6460   -0.5010  -53.0890 N   0  0  0  0  0  0  0  0  0  0  0  0
    7.0150   -1.6920  -52.7400 C   0  0  0  0  0  0  0  0  0  0  0  0
    6.2160   -2.3040  -51.8050 N   0  0  0  0  0  0  0  0  0  0  0  0
    6.1700   -4.7240  -49.8000 H   0  0  0  0  0  0  0  0  0  0  0  0
    5.0760   -3.4510  -50.0170 H   0  0  0  0  0  0  0  0  0  0  0  0
    7.9007   -5.2447  -51.5725 H   0  0  0  0  0  0  0  0  0  0  0  0
   10.4530   -1.4893  -55.3256 H   0  0  0  0  0  0  0  0  0  0  0  0
   12.1532   -2.4140  -53.6026 H   0  0  0  0  0  0  0  0  0  0  0  0
   11.0498   -3.3692  -52.8123 H   0  0  0  0  0  0  0  0  0  0  0  0
   12.3638   -3.8206  -55.6517 H   0  0  0  0  0  0  0  0  0  0  0  0
   11.8684   -5.1176  -54.7372 H   0  0  0  0  0  0  0  0  0  0  0  0
   10.0542   -3.7163  -56.5864 H   0  0  0  0  0  0  0  0  0  0  0  0
    9.2872   -4.4628  -55.3179 H   0  0  0  0  0  0  0  0  0  0  0  0
    8.0282    1.4990  -56.4426 H   0  0  0  0  0  0  0  0  0  0  0  0
    8.9450    2.2221  -55.0760 H   0  0  0  0  0  0  0  0  0  0  0  0
   10.8532    2.5217  -56.3183 H   0  0  0  0  0  0  0  0  0  0  0  0
   10.4411    1.0897  -57.4071 H   0  0  0  0  0  0  0  0  0  0  0  0
   10.7094    1.9452  -59.6118 H   0  0  0  0  0  0  0  0  0  0  0  0
    8.9914    1.4177  -59.4362 H   0  0  0  0  0  0  0  0  0  0  0  0
    9.3114    2.7720  -61.5042 H   0  0  0  0  0  0  0  0  0  0  0  0
    7.5086    4.4385  -61.0438 H   0  0  0  0  0  0  0  0  0  0  0  0
    7.1452    2.8597  -60.2590 H   0  0  0  0  0  0  0  0  0  0  0  0
    6.6997    4.7642  -58.7041 H   0  0  0  0  0  0  0  0  0  0  0  0
    8.3710    6.3477  -59.6649 H   0  0  0  0  0  0  0  0  0  0  0  0
    8.6241    6.1323  -57.8962 H   0  0  0  0  0  0  0  0  0  0  0  0
   10.7908    6.0530  -59.1326 H   0  0  0  0  0  0  0  0  0  0  0  0
    9.8896    5.1887  -61.2924 H   0  0  0  0  0  0  0  0  0  0  0  0
   11.2250    4.1467  -60.6835 H   0  0  0  0  0  0  0  0  0  0  0  0
   11.5726    3.8654  -58.2292 H   0  0  0  0  0  0  0  0  0  0  0  0
   10.4639    4.6972  -57.0678 H   0  0  0  0  0  0  0  0  0  0  0  0
    8.1002    3.9393  -56.8120 H   0  0  0  0  0  0  0  0  0  0  0  0
    7.4815    2.5712  -57.8155 H   0  0  0  0  0  0  0  0  0  0  0  0
    7.1760    1.0530  -54.2570 H   0  0  0  0  0  0  0  0  0  0  0  0
  1  2  1  0
  2  3  1  0
  3  4  2  0
  4  5  1  0
  5  6  2  0
  6  7  1  0
  7  8  1  0
  8  9  1  0
  9 10  1  0
  6 11  1  0
 11 12  2  0
 12 13  1  0
 13 14  1  0
 15 14  1  1
 15 16  1  0
 16 17  1  0
 17 18  1  0
 18 19  1  0
 19 20  1  0
 20 21  1  0
 21 22  1  0
 21 23  1  0
 19 24  1  0
 11 25  1  0
 25 26  1  0
 26 27  2  0
 27 28  1  0
 28  2  2  0
 27  5  1  0
 10  7  1  0
 23 15  1  0
 24 15  1  0
 22 17  1  0
  1 29  1  0
  1 30  1  0
  3 31  1  0
  7 32  1  0
  8 33  1  0
  8 34  1  0
  9 35  1  0
  9 36  1  0
 10 37  1  0
 10 38  1  0
 13 39  1  0
 13 40  1  0
 14 41  1  0
 14 42  1  0
 16 43  1  0
 16 44  1  0
 17 45  1  6
 18 46  1  0
 18 47  1  0
 19 48  1  1
 20 49  1  0
 20 50  1  0
 21 51  1  6
 22 52  1  0
 22 53  1  0
 23 54  1  0
 23 55  1  0
 24 56  1  0
 24 57  1  0
 25 58  1  0
M  END
>  <meeko>  (269) 
{"is_sidechain": false}

$$$$

     RDKit          3D

 58 63  0  0  0  0  0  0  0  0999 V2000
    4.7670    2.1190  -62.9530 N   0  0  0  0  0  0  0  0  0  0  0  0
    5.3680    2.2760  -61.7340 C   0  0  0  0  0  0  0  0  0  0  0  0
    6.8220    2.6690  -61.6750 C   0  0  0  0  0  0  0  0  0  0  0  0
    7.4800    2.8060  -60.5740 N   0  0  0  0  0  0  0  0  0  0  0  0
    6.7820    2.5620  -59.4100 C   0  0  0  0  0  0  0  0  0  0  0  0
    7.3690    2.6220  -58.1930 C   0  0  0  0  0  0  0  0  0  0  0  0
    8.7590    3.1480  -58.0060 C   0  0  0  0  0  0  0  0  0  0  0  0
    9.2330    4.3550  -58.8860 C   0  0  0  0  0  0  0  0  0  0  0  0
    8.7820    5.3040  -57.7680 C   0  0  0  0  0  0  0  0  0  0  0  0
    8.9580    4.1290  -56.7980 C   0  0  0  0  0  0  0  0  0  0  0  0
    6.5160    2.1180  -57.0620 C   0  0  0  0  0  0  0  0  0  0  0  0
    6.8690    1.4560  -56.0130 N   0  0  0  0  0  0  0  0  0  0  0  0
    8.1980    0.9140  -55.7690 C   0  0  0  0  0  0  0  0  0  0  0  0
    8.4200    0.7580  -54.2620 C   0  0  0  0  0  0  0  0  0  0  0  0
    8.2830   -0.6800  -53.7020 C   0  0  2  0  0  0  0  0  0  0  0  0
    9.7090   -1.2480  -53.4550 C   0  0  0  0  0  0  0  0  0  0  0  0
    9.6430   -2.6770  -52.8940 C   0  0  1  0  0  0  0  0  0  0  0  0
    8.8750   -2.6620  -51.5650 C   0  0  0  0  0  0  0  0  0  0  0  0
    7.4500   -2.1320  -51.7880 C   0  0  2  0  0  0  0  0  0  0  0  0
    6.7250   -3.0390  -52.7960 C   0  0  0  0  0  0  0  0  0  0  0  0
    7.4850   -3.0550  -54.1320 C   0  0  2  0  0  0  0  0  0  0  0  0
    8.9100   -3.5800  -53.8980 C   0  0  0  0  0  0  0  0  0  0  0  0
    7.5540   -1.6220  -54.6920 C   0  0  0  0  0  0  0  0  0  0  0  0
    7.5200   -0.7010  -52.3530 C   0  0  0  0  0  0  0  0  0  0  0  0
    5.1540    2.3080  -57.1900 N   0  0  0  0  0  0  0  0  0  0  0  0
    4.5150    2.1770  -58.3950 N   0  0  0  0  0  0  0  0  0  0  0  0
    5.2890    2.2620  -59.4320 C   0  0  0  0  0  0  0  0  0  0  0  0
    4.6840    2.0940  -60.6520 N   0  0  0  0  0  0  0  0  0  0  0  0
    3.7540    2.0700  -62.8740 H   0  0  0  0  0  0  0  0  0  0  0  0
    5.0740    2.7230  -63.7060 H   0  0  0  0  0  0  0  0  0  0  0  0
    7.3509    2.8488  -62.6226 H   0  0  0  0  0  0  0  0  0  0  0  0
    9.2317    2.1579  -58.0853 H   0  0  0  0  0  0  0  0  0  0  0  0
   10.3142    4.3727  -59.0878 H   0  0  0  0  0  0  0  0  0  0  0  0
    8.8728    4.4814  -59.9176 H   0  0  0  0  0  0  0  0  0  0  0  0
    9.4563    6.1541  -57.5871 H   0  0  0  0  0  0  0  0  0  0  0  0
    7.8398    5.8682  -57.8309 H   0  0  0  0  0  0  0  0  0  0  0  0
    9.9505    4.0738  -56.3269 H   0  0  0  0  0  0  0  0  0  0  0  0
    8.3424    4.0446  -55.8903 H   0  0  0  0  0  0  0  0  0  0  0  0
    8.2879   -0.0682  -56.2560 H   0  0  0  0  0  0  0  0  0  0  0  0
    8.9535    1.5994  -56.1807 H   0  0  0  0  0  0  0  0  0  0  0  0
    9.4354    1.1135  -54.0326 H   0  0  0  0  0  0  0  0  0  0  0  0
    7.6205    1.3413  -53.7819 H   0  0  0  0  0  0  0  0  0  0  0  0
   10.2611   -1.2602  -54.4063 H   0  0  0  0  0  0  0  0  0  0  0  0
   10.2194   -0.6067  -52.7214 H   0  0  0  0  0  0  0  0  0  0  0  0
   10.6605   -3.0603  -52.7277 H   0  0  0  0  0  0  0  0  0  0  0  0
    8.8246   -3.6842  -51.1617 H   0  0  0  0  0  0  0  0  0  0  0  0
    9.3973   -2.0057  -50.8533 H   0  0  0  0  0  0  0  0  0  0  0  0
    6.9043   -2.1259  -50.8329 H   0  0  0  0  0  0  0  0  0  0  0  0
    6.6736   -4.0617  -52.3941 H   0  0  0  0  0  0  0  0  0  0  0  0
    5.7091   -2.6519  -52.9637 H   0  0  0  0  0  0  0  0  0  0  0  0
    6.9646   -3.7076  -54.8485 H   0  0  0  0  0  0  0  0  0  0  0  0
    8.8603   -4.6038  -53.4988 H   0  0  0  0  0  0  0  0  0  0  0  0
    9.4572   -3.5785  -54.8522 H   0  0  0  0  0  0  0  0  0  0  0  0
    8.0997   -1.6338  -55.6470 H   0  0  0  0  0  0  0  0  0  0  0  0
    6.5290   -1.2518  -54.8416 H   0  0  0  0  0  0  0  0  0  0  0  0
    6.4984   -0.3248  -52.5103 H   0  0  0  0  0  0  0  0  0  0  0  0
    8.0557   -0.0634  -51.6343 H   0  0  0  0  0  0  0  0  0  0  0  0
    4.6490    1.8990  -56.4050 H   0  0  0  0  0  0  0  0  0  0  0  0
  1  2  1  0
  2  3  1  0
  3  4  2  0
  4  5  1  0
  5  6  2  0
  6  7  1  0
  7  8  1  0
  8  9  1  0
  9 10  1  0
  6 11  1  0
 11 12  2  0
 12 13  1  0
 13 14  1  0
 15 14  1  6
 15 16  1  0
 16 17  1  0
 17 18  1  0
 18 19  1  0
 19 20  1  0
 20 21  1  0
 21 22  1  0
 21 23  1  0
 19 24  1  0
 11 25  1  0
 25 26  1  0
 26 27  2  0
 27 28  1  0
 28  2  2  0
 27  5  1  0
 10  7  1  0
 23 15  1  0
 24 15  1  0
 22 17  1  0
  1 29  1  0
  1 30  1  0
  3 31  1  0
  7 32  1  0
  8 33  1  0
  8 34  1  0
  9 35  1  0
  9 36  1  0
 10 37  1  0
 10 38  1  0
 13 39  1  0
 13 40  1  0
 14 41  1  0
 14 42  1  0
 16 43  1  0
 16 44  1  0
 17 45  1  1
 18 46  1  0
 18 47  1  0
 19 48  1  1
 20 49  1  0
 20 50  1  0
 21 51  1  6
 22 52  1  0
 22 53  1  0
 23 54  1  0
 23 55  1  0
 24 56  1  0
 24 57  1  0
 25 58  1  0
M  END
>  <meeko>  (270) 
{"is_sidechain": false}

$$$$

     RDKit          3D

 58 63  0  0  0  0  0  0  0  0999 V2000
    8.2200    4.8030  -59.2800 N   0  0  0  0  0  0  0  0  0  0  0  0
    8.2670    3.8310  -58.4280 C   0  0  0  0  0  0  0  0  0  0  0  0
    7.0260    3.4400  -57.6470 C   0  0  0  0  0  0  0  0  0  0  0  0
    7.0240    2.4730  -56.7830 N   0  0  0  0  0  0  0  0  0  0  0  0
    8.2350    1.7540  -56.5620 C   0  0  0  0  0  0  0  0  0  0  0  0
    8.2400    0.7010  -55.6150 C   0  0  0  0  0  0  0  0  0  0  0  0
    6.9240    0.3000  -54.7780 C   0  0  0  0  0  0  0  0  0  0  0  0
    6.9660    0.3040  -53.2150 C   0  0  0  0  0  0  0  0  0  0  0  0
    5.9390   -0.8400  -53.2460 C   0  0  0  0  0  0  0  0  0  0  0  0
    6.5130   -1.2010  -54.6260 C   0  0  0  0  0  0  0  0  0  0  0  0
    9.4960    0.0900  -55.4000 C   0  0  0  0  0  0  0  0  0  0  0  0
    9.6050   -0.9110  -54.4090 N   0  0  0  0  0  0  0  0  0  0  0  0
   10.7390   -1.8320  -54.5380 C   0  0  0  0  0  0  0  0  0  0  0  0
   10.2520   -3.2430  -54.8910 C   0  0  0  0  0  0  0  0  0  0  0  0
   11.1140   -4.0160  -55.9200 C   0  0  2  0  0  0  0  0  0  0  0  0
   10.2550   -4.9890  -56.7700 C   0  0  0  0  0  0  0  0  0  0  0  0
   11.1210   -5.6990  -57.8260 C   0  0  1  0  0  0  0  0  0  0  0  0
   11.7550   -4.6520  -58.7550 C   0  0  0  0  0  0  0  0  0  0  0  0
   12.6350   -3.6910  -57.9390 C   0  0  2  0  0  0  0  0  0  0  0  0
   13.7410   -4.4890  -57.2300 C   0  0  0  0  0  0  0  0  0  0  0  0
   13.1160   -5.5360  -56.2960 C   0  0  2  0  0  0  0  0  0  0  0  0
   12.2350   -6.4890  -57.1190 C   0  0  0  0  0  0  0  0  0  0  0  0
   12.2460   -4.8270  -55.2420 C   0  0  0  0  0  0  0  0  0  0  0  0
   11.7680   -2.9860  -56.8850 C   0  0  0  0  0  0  0  0  0  0  0  0
   10.6050    0.4630  -56.0870 N   0  0  0  0  0  0  0  0  0  0  0  0
   10.5690    1.4480  -57.0230 N   0  0  0  0  0  0  0  0  0  0  0  0
    9.4170    2.0920  -57.2510 C   0  0  0  0  0  0  0  0  0  0  0  0
    9.3970    3.1230  -58.1870 N   0  0  0  0  0  0  0  0  0  0  0  0
    7.2860    5.2220  -59.3290 H   0  0  0  0  0  0  0  0  0  0  0  0
    6.0937    3.9975  -57.8202 H   0  0  0  0  0  0  0  0  0  0  0  0
    6.3336    1.0196  -55.3642 H   0  0  0  0  0  0  0  0  0  0  0  0
    7.9404    0.0331  -52.7824 H   0  0  0  0  0  0  0  0  0  0  0  0
    6.7893    1.2222  -52.6356 H   0  0  0  0  0  0  0  0  0  0  0  0
    6.0805   -1.6085  -52.4718 H   0  0  0  0  0  0  0  0  0  0  0  0
    4.8646   -0.6660  -53.0866 H   0  0  0  0  0  0  0  0  0  0  0  0
    7.3566   -1.9065  -54.6008 H   0  0  0  0  0  0  0  0  0  0  0  0
    5.9059   -1.7127  -55.3873 H   0  0  0  0  0  0  0  0  0  0  0  0
    8.7290   -1.4230  -54.3860 H   0  0  0  0  0  0  0  0  0  0  0  0
   11.4087   -1.4715  -55.3327 H   0  0  0  0  0  0  0  0  0  0  0  0
   11.2742   -1.8718  -53.5778 H   0  0  0  0  0  0  0  0  0  0  0  0
   10.2248   -3.8327  -53.9628 H   0  0  0  0  0  0  0  0  0  0  0  0
    9.2686   -3.1096  -55.3654 H   0  0  0  0  0  0  0  0  0  0  0  0
    9.8019   -5.7423  -56.1088 H   0  0  0  0  0  0  0  0  0  0  0  0
    9.4722   -4.4123  -57.2844 H   0  0  0  0  0  0  0  0  0  0  0  0
   10.4949   -6.3846  -58.4160 H   0  0  0  0  0  0  0  0  0  0  0  0
   12.3732   -5.1607  -59.5094 H   0  0  0  0  0  0  0  0  0  0  0  0
   10.9579   -4.0791  -59.2514 H   0  0  0  0  0  0  0  0  0  0  0  0
   13.0886   -2.9461  -58.6093 H   0  0  0  0  0  0  0  0  0  0  0  0
   14.3632   -4.9965  -57.9818 H   0  0  0  0  0  0  0  0  0  0  0  0
   14.3604   -3.7999  -56.6372 H   0  0  0  0  0  0  0  0  0  0  0  0
   13.9133   -6.1051  -55.7956 H   0  0  0  0  0  0  0  0  0  0  0  0
   12.8543   -6.9982  -57.8721 H   0  0  0  0  0  0  0  0  0  0  0  0
   11.7797   -7.2305  -56.4461 H   0  0  0  0  0  0  0  0  0  0  0  0
   11.8008   -5.5805  -54.5756 H   0  0  0  0  0  0  0  0  0  0  0  0
   12.8803   -4.1357  -54.6678 H   0  0  0  0  0  0  0  0  0  0  0  0
   12.3984   -2.2978  -56.3028 H   0  0  0  0  0  0  0  0  0  0  0  0
   10.9690   -2.4339  -57.4015 H   0  0  0  0  0  0  0  0  0  0  0  0
   10.2590    3.3460  -58.6560 H   0  0  0  0  0  0  0  0  0  0  0  0
  1  2  2  3
  2  3  1  0
  3  4  2  0
  4  5  1  0
  5  6  1  0
  6  7  1  0
  7  8  1  0
  8  9  1  0
  9 10  1  0
  6 11  2  0
 11 12  1  0
 12 13  1  0
 13 14  1  0
 15 14  1  1
 15 16  1  0
 16 17  1  0
 17 18  1  0
 18 19  1  0
 19 20  1  0
 20 21  1  0
 21 22  1  0
 21 23  1  0
 19 24  1  0
 11 25  1  0
 25 26  2  0
 26 27  1  0
 27 28  1  0
 28  2  1  0
 27  5  2  0
 10  7  1  0
 23 15  1  0
 24 15  1  0
 22 17  1  0
  1 29  1  0
  3 30  1  0
  7 31  1  0
  8 32  1  0
  8 33  1  0
  9 34  1  0
  9 35  1  0
 10 36  1  0
 10 37  1  0
 12 38  1  0
 13 39  1  0
 13 40  1  0
 14 41  1  0
 14 42  1  0
 16 43  1  0
 16 44  1  0
 17 45  1  6
 18 46  1  0
 18 47  1  0
 19 48  1  6
 20 49  1  0
 20 50  1  0
 21 51  1  1
 22 52  1  0
 22 53  1  0
 23 54  1  0
 23 55  1  0
 24 56  1  0
 24 57  1  0
 28 58  1  0
M  END
>  <meeko>  (271) 
{"is_sidechain": false}

$$$$

     RDKit          3D

 58 63  0  0  0  0  0  0  0  0999 V2000
   12.8320    3.7620  -59.4680 N   0  0  0  0  0  0  0  0  0  0  0  0
   11.4770    3.5750  -59.3300 C   0  0  0  0  0  0  0  0  0  0  0  0
   10.7890    2.8310  -60.2260 C   0  0  0  0  0  0  0  0  0  0  0  0
    9.4350    2.5870  -60.1370 N   0  0  0  0  0  0  0  0  0  0  0  0
    8.7760    2.9580  -58.9820 C   0  0  0  0  0  0  0  0  0  0  0  0
    7.5850    2.5700  -58.5120 C   0  0  0  0  0  0  0  0  0  0  0  0
    6.6400    1.7280  -59.2840 C   0  0  0  0  0  0  0  0  0  0  0  0
    6.3780    2.1410  -60.7660 C   0  0  0  0  0  0  0  0  0  0  0  0
    4.9120    1.7260  -60.5540 C   0  0  0  0  0  0  0  0  0  0  0  0
    5.1260    2.0360  -59.0620 C   0  0  0  0  0  0  0  0  0  0  0  0
    7.3790    2.9380  -57.0890 C   0  0  0  0  0  0  0  0  0  0  0  0
    6.9630    2.2310  -56.1060 N   0  0  0  0  0  0  0  0  0  0  0  0
    6.7360    0.7990  -56.2490 C   0  0  0  0  0  0  0  0  0  0  0  0
    6.2860    0.2570  -54.8870 C   0  0  0  0  0  0  0  0  0  0  0  0
    7.2060   -0.8110  -54.2460 C   0  0  2  0  0  0  0  0  0  0  0  0
    8.6490   -0.7430  -54.8080 C   0  0  0  0  0  0  0  0  0  0  0  0
    9.5240   -1.8540  -54.1970 C   0  0  1  0  0  0  0  0  0  0  0  0
    9.5680   -1.6810  -52.6690 C   0  0  0  0  0  0  0  0  0  0  0  0
    8.1460   -1.7740  -52.0890 C   0  0  2  0  0  0  0  0  0  0  0  0
    7.5470   -3.1450  -52.4350 C   0  0  0  0  0  0  0  0  0  0  0  0
    7.4970   -3.3260  -53.9600 C   0  0  2  0  0  0  0  0  0  0  0  0
    8.9180   -3.2250  -54.5340 C   0  0  0  0  0  0  0  0  0  0  0  0
    6.6260   -2.2160  -54.5710 C   0  0  0  0  0  0  0  0  0  0  0  0
    7.2740   -0.6640  -52.7040 C   0  0  0  0  0  0  0  0  0  0  0  0
    7.7210    4.2390  -56.8110 N   0  0  0  0  0  0  0  0  0  0  0  0
    8.8500    4.6430  -57.1870 N   0  0  0  0  0  0  0  0  0  0  0  0
    9.5670    3.9220  -58.1180 C   0  0  0  0  0  0  0  0  0  0  0  0
   10.8280    4.1970  -58.2820 N   0  0  0  0  0  0  0  0  0  0  0  0
   13.2990    2.9590  -59.8750 H   0  0  0  0  0  0  0  0  0  0  0  0
   12.9840    4.6080  -60.0130 H   0  0  0  0  0  0  0  0  0  0  0  0
   11.3405    2.3965  -61.0728 H   0  0  0  0  0  0  0  0  0  0  0  0
    9.0750    1.8000  -60.6650 H   0  0  0  0  0  0  0  0  0  0  0  0
    7.1064    0.7682  -59.0169 H   0  0  0  0  0  0  0  0  0  0  0  0
    6.5258    3.2104  -60.9769 H   0  0  0  0  0  0  0  0  0  0  0  0
    6.9792    1.7365  -61.5936 H   0  0  0  0  0  0  0  0  0  0  0  0
    4.1739    2.3681  -61.0569 H   0  0  0  0  0  0  0  0  0  0  0  0
    4.5247    0.7558  -60.8985 H   0  0  0  0  0  0  0  0  0  0  0  0
    4.9068    3.0746  -58.7734 H   0  0  0  0  0  0  0  0  0  0  0  0
    4.5425    1.5322  -58.2773 H   0  0  0  0  0  0  0  0  0  0  0  0
    5.9539    0.6174  -57.0009 H   0  0  0  0  0  0  0  0  0  0  0  0
    7.6569    0.2951  -56.5776 H   0  0  0  0  0  0  0  0  0  0  0  0
    6.2204    1.1065  -54.1913 H   0  0  0  0  0  0  0  0  0  0  0  0
    5.3264   -0.2484  -55.0703 H   0  0  0  0  0  0  0  0  0  0  0  0
    8.6174   -0.8680  -55.9004 H   0  0  0  0  0  0  0  0  0  0  0  0
    9.0842    0.2332  -54.5481 H   0  0  0  0  0  0  0  0  0  0  0  0
   10.5422   -1.7900  -54.6084 H   0  0  0  0  0  0  0  0  0  0  0  0
   10.1931   -2.4728  -52.2304 H   0  0  0  0  0  0  0  0  0  0  0  0
    9.9927   -0.6952  -52.4288 H   0  0  0  0  0  0  0  0  0  0  0  0
    8.1811   -1.6524  -50.9963 H   0  0  0  0  0  0  0  0  0  0  0  0
    8.1705   -3.9368  -51.9943 H   0  0  0  0  0  0  0  0  0  0  0  0
    6.5260   -3.2059  -52.0302 H   0  0  0  0  0  0  0  0  0  0  0  0
    7.0713   -4.3113  -54.2009 H   0  0  0  0  0  0  0  0  0  0  0  0
    9.5443   -4.0173  -54.0980 H   0  0  0  0  0  0  0  0  0  0  0  0
    8.8754   -3.3424  -55.6269 H   0  0  0  0  0  0  0  0  0  0  0  0
    6.5901   -2.3467  -55.6626 H   0  0  0  0  0  0  0  0  0  0  0  0
    5.6159   -2.2863  -54.1412 H   0  0  0  0  0  0  0  0  0  0  0  0
    6.2573   -0.7323  -52.2896 H   0  0  0  0  0  0  0  0  0  0  0  0
    7.7205    0.3116  -52.4613 H   0  0  0  0  0  0  0  0  0  0  0  0
  1  2  1  0
  2  3  2  0
  3  4  1  0
  4  5  1  0
  5  6  2  0
  6  7  1  0
  7  8  1  0
  8  9  1  0
  9 10  1  0
  6 11  1  0
 11 12  2  0
 12 13  1  0
 13 14  1  0
 15 14  1  6
 15 16  1  0
 16 17  1  0
 17 18  1  0
 18 19  1  0
 19 20  1  0
 20 21  1  0
 21 22  1  0
 21 23  1  0
 19 24  1  0
 11 25  1  0
 25 26  2  0
 26 27  1  0
 27 28  2  0
 28  2  1  0
 27  5  1  0
 10  7  1  0
 23 15  1  0
 24 15  1  0
 22 17  1  0
  1 29  1  0
  1 30  1  0
  3 31  1  0
  4 32  1  0
  7 33  1  0
  8 34  1  0
  8 35  1  0
  9 36  1  0
  9 37  1  0
 10 38  1  0
 10 39  1  0
 13 40  1  0
 13 41  1  0
 14 42  1  0
 14 43  1  0
 16 44  1  0
 16 45  1  0
 17 46  1  6
 18 47  1  0
 18 48  1  0
 19 49  1  1
 20 50  1  0
 20 51  1  0
 21 52  1  1
 22 53  1  0
 22 54  1  0
 23 55  1  0
 23 56  1  0
 24 57  1  0
 24 58  1  0
M  END
>  <meeko>  (272) 
{"is_sidechain": false}

$$$$

     RDKit          3D

 58 63  0  0  0  0  0  0  0  0999 V2000
    7.7480    4.2230  -59.6160 N   0  0  0  0  0  0  0  0  0  0  0  0
    7.8190    3.4210  -58.6070 C   0  0  0  0  0  0  0  0  0  0  0  0
    6.5810    3.0890  -57.8100 C   0  0  0  0  0  0  0  0  0  0  0  0
    6.5930    2.2560  -56.8180 N   0  0  0  0  0  0  0  0  0  0  0  0
    7.8150    1.6820  -56.5240 C   0  0  0  0  0  0  0  0  0  0  0  0
    7.9960    0.7860  -55.5310 C   0  0  0  0  0  0  0  0  0  0  0  0
    6.8640    0.4090  -54.6210 C   0  0  0  0  0  0  0  0  0  0  0  0
    7.1810    0.1500  -53.1120 C   0  0  0  0  0  0  0  0  0  0  0  0
    6.1100   -0.9530  -53.1440 C   0  0  0  0  0  0  0  0  0  0  0  0
    6.4170   -1.0890  -54.6450 C   0  0  0  0  0  0  0  0  0  0  0  0
    9.3460    0.0900  -55.4160 C   0  0  0  0  0  0  0  0  0  0  0  0
    9.4680   -1.0240  -54.6060 N   0  0  0  0  0  0  0  0  0  0  0  0
   10.6810   -1.8220  -54.5100 C   0  0  0  0  0  0  0  0  0  0  0  0
   10.3610   -3.2960  -54.7800 C   0  0  0  0  0  0  0  0  0  0  0  0
   11.1770   -3.9670  -55.9120 C   0  0  2  0  0  0  0  0  0  0  0  0
   10.3100   -4.9310  -56.7610 C   0  0  0  0  0  0  0  0  0  0  0  0
   11.1620   -5.6250  -57.8390 C   0  0  1  0  0  0  0  0  0  0  0  0
   11.7810   -4.5590  -58.7580 C   0  0  0  0  0  0  0  0  0  0  0  0
   12.6710   -3.6090  -57.9380 C   0  0  2  0  0  0  0  0  0  0  0  0
   13.7880   -4.4180  -57.2620 C   0  0  0  0  0  0  0  0  0  0  0  0
   13.1790   -5.4850  -56.3390 C   0  0  2  0  0  0  0  0  0  0  0  0
   12.2870   -6.4250  -57.1630 C   0  0  0  0  0  0  0  0  0  0  0  0
   12.3240   -4.7920  -55.2650 C   0  0  0  0  0  0  0  0  0  0  0  0
   11.8150   -2.9200  -56.8600 C   0  0  0  0  0  0  0  0  0  0  0  0
   10.4080    0.4830  -56.0760 N   0  0  0  0  0  0  0  0  0  0  0  0
   10.2540    1.5130  -56.9360 N   0  0  0  0  0  0  0  0  0  0  0  0
    9.0570    2.0630  -57.3050 C   0  0  0  0  0  0  0  0  0  0  0  0
    9.0420    2.9010  -58.3060 N   0  0  0  0  0  0  0  0  0  0  0  0
    6.7960    4.5620  -59.7660 H   0  0  0  0  0  0  0  0  0  0  0  0
    5.6315    3.5733  -58.0821 H   0  0  0  0  0  0  0  0  0  0  0  0
    6.2237    1.2413  -54.9485 H   0  0  0  0  0  0  0  0  0  0  0  0
    8.2019   -0.2078  -52.9128 H   0  0  0  0  0  0  0  0  0  0  0  0
    7.1543    0.9602  -52.3684 H   0  0  0  0  0  0  0  0  0  0  0  0
    6.3463   -1.8430  -52.5423 H   0  0  0  0  0  0  0  0  0  0  0  0
    5.0892   -0.7874  -52.7690 H   0  0  0  0  0  0  0  0  0  0  0  0
    7.2184   -1.8028  -54.8863 H   0  0  0  0  0  0  0  0  0  0  0  0
    5.6643   -1.4563  -55.3581 H   0  0  0  0  0  0  0  0  0  0  0  0
    8.6190   -1.5380  -54.4070 H   0  0  0  0  0  0  0  0  0  0  0  0
   11.4110   -1.4659  -55.2518 H   0  0  0  0  0  0  0  0  0  0  0  0
   11.0994   -1.7228  -53.4975 H   0  0  0  0  0  0  0  0  0  0  0  0
   10.5467   -3.8570  -53.8522 H   0  0  0  0  0  0  0  0  0  0  0  0
    9.3132   -3.3176  -55.1143 H   0  0  0  0  0  0  0  0  0  0  0  0
    9.8691   -5.6942  -56.1029 H   0  0  0  0  0  0  0  0  0  0  0  0
    9.5183   -4.3500  -57.2567 H   0  0  0  0  0  0  0  0  0  0  0  0
   10.5294   -6.3040  -58.4295 H   0  0  0  0  0  0  0  0  0  0  0  0
   12.3896   -5.0527  -59.5299 H   0  0  0  0  0  0  0  0  0  0  0  0
   10.9752   -3.9793  -59.2320 H   0  0  0  0  0  0  0  0  0  0  0  0
   13.1146   -2.8503  -58.5996 H   0  0  0  0  0  0  0  0  0  0  0  0
   14.3997   -4.9094  -58.0330 H   0  0  0  0  0  0  0  0  0  0  0  0
   14.4149   -3.7393  -56.6651 H   0  0  0  0  0  0  0  0  0  0  0  0
   13.9836   -6.0640  -55.8622 H   0  0  0  0  0  0  0  0  0  0  0  0
   12.8950   -6.9210  -57.9339 H   0  0  0  0  0  0  0  0  0  0  0  0
   11.8431   -7.1783  -56.4955 H   0  0  0  0  0  0  0  0  0  0  0  0
   11.8888   -5.5558  -54.6038 H   0  0  0  0  0  0  0  0  0  0  0  0
   12.9677   -4.1078  -54.6927 H   0  0  0  0  0  0  0  0  0  0  0  0
   12.4518   -2.2422  -56.2725 H   0  0  0  0  0  0  0  0  0  0  0  0
   11.0107   -2.3563  -57.3553 H   0  0  0  0  0  0  0  0  0  0  0  0
   11.0460    1.7670  -57.5210 H   0  0  0  0  0  0  0  0  0  0  0  0
  1  2  2  3
  2  3  1  0
  3  4  2  0
  4  5  1  0
  5  6  2  0
  6  7  1  0
  7  8  1  0
  8  9  1  0
  9 10  1  0
  6 11  1  0
 11 12  1  0
 12 13  1  0
 13 14  1  0
 15 14  1  1
 15 16  1  0
 16 17  1  0
 17 18  1  0
 18 19  1  0
 19 20  1  0
 20 21  1  0
 21 22  1  0
 21 23  1  0
 19 24  1  0
 11 25  2  0
 25 26  1  0
 26 27  1  0
 27 28  2  0
 28  2  1  0
 27  5  1  0
 10  7  1  0
 23 15  1  0
 24 15  1  0
 22 17  1  0
  1 29  1  0
  3 30  1  0
  7 31  1  0
  8 32  1  0
  8 33  1  0
  9 34  1  0
  9 35  1  0
 10 36  1  0
 10 37  1  0
 12 38  1  0
 13 39  1  0
 13 40  1  0
 14 41  1  0
 14 42  1  0
 16 43  1  0
 16 44  1  0
 17 45  1  6
 18 46  1  0
 18 47  1  0
 19 48  1  6
 20 49  1  0
 20 50  1  0
 21 51  1  1
 22 52  1  0
 22 53  1  0
 23 54  1  0
 23 55  1  0
 24 56  1  0
 24 57  1  0
 26 58  1  0
M  END
>  <meeko>  (273) 
{"is_sidechain": false}

$$$$

     RDKit          3D

 58 63  0  0  0  0  0  0  0  0999 V2000
    5.9030   -4.1350  -50.3760 N   0  0  0  0  0  0  0  0  0  0  0  0
    6.6550   -3.4730  -51.1920 C   0  0  0  0  0  0  0  0  0  0  0  0
    8.1150   -3.8260  -51.3690 C   0  0  0  0  0  0  0  0  0  0  0  0
    8.9190   -3.2010  -52.1730 N   0  0  0  0  0  0  0  0  0  0  0  0
    8.4590   -2.1380  -52.9370 C   0  0  0  0  0  0  0  0  0  0  0  0
    9.2380   -1.4460  -53.7910 C   0  0  0  0  0  0  0  0  0  0  0  0
   10.6940   -1.7030  -54.0640 C   0  0  0  0  0  0  0  0  0  0  0  0
   11.2610   -2.9570  -53.3320 C   0  0  0  0  0  0  0  0  0  0  0  0
   11.2050   -3.7060  -54.6760 C   0  0  0  0  0  0  0  0  0  0  0  0
   11.2370   -2.3330  -55.3690 C   0  0  0  0  0  0  0  0  0  0  0  0
    8.5840   -0.2990  -54.5280 C   0  0  0  0  0  0  0  0  0  0  0  0
    9.3440    0.3780  -55.3290 N   0  0  0  0  0  0  0  0  0  0  0  0
    8.8390    1.5270  -56.0750 C   0  0  0  0  0  0  0  0  0  0  0  0
    9.9940    2.2110  -56.8110 C   0  0  0  0  0  0  0  0  0  0  0  0
    9.5980    3.0890  -58.0230 C   0  0  2  0  0  0  0  0  0  0  0  0
    8.0950    3.4600  -57.8910 C   0  0  0  0  0  0  0  0  0  0  0  0
    7.6370    4.3380  -59.0670 C   0  0  1  0  0  0  0  0  0  0  0  0
    8.4700    5.6290  -59.0830 C   0  0  0  0  0  0  0  0  0  0  0  0
    9.9600    5.2900  -59.2440 C   0  0  2  0  0  0  0  0  0  0  0  0
   10.1650    4.5220  -60.5600 C   0  0  0  0  0  0  0  0  0  0  0  0
    9.3400    3.2250  -60.5480 C   0  0  2  0  0  0  0  0  0  0  0  0
    7.8530    3.5730  -60.3810 C   0  0  0  0  0  0  0  0  0  0  0  0
    9.7950    2.3460  -59.3680 C   0  0  0  0  0  0  0  0  0  0  0  0
   10.4130    4.4080  -58.0670 C   0  0  0  0  0  0  0  0  0  0  0  0
    7.2470   -0.0530  -54.3050 N   0  0  0  0  0  0  0  0  0  0  0  0
    6.4330   -0.7320  -53.4660 N   0  0  0  0  0  0  0  0  0  0  0  0
    6.9910   -1.7120  -52.8130 C   0  0  0  0  0  0  0  0  0  0  0  0
    6.2200   -2.4330  -51.9420 N   0  0  0  0  0  0  0  0  0  0  0  0
    6.4200   -4.8830  -49.9030 H   0  0  0  0  0  0  0  0  0  0  0  0
    8.5195   -4.6629  -50.7808 H   0  0  0  0  0  0  0  0  0  0  0  0
   10.9505   -0.6511  -53.8698 H   0  0  0  0  0  0  0  0  0  0  0  0
   12.2742   -2.8276  -52.9238 H   0  0  0  0  0  0  0  0  0  0  0  0
   10.7775   -3.3613  -52.4305 H   0  0  0  0  0  0  0  0  0  0  0  0
   12.0772   -4.3438  -54.8820 H   0  0  0  0  0  0  0  0  0  0  0  0
   10.4194   -4.4446  -54.8934 H   0  0  0  0  0  0  0  0  0  0  0  0
   12.2429   -1.9913  -55.6542 H   0  0  0  0  0  0  0  0  0  0  0  0
   10.7315   -2.1702  -56.3323 H   0  0  0  0  0  0  0  0  0  0  0  0
    8.0893    1.1883  -56.8053 H   0  0  0  0  0  0  0  0  0  0  0  0
    8.3776    2.2410  -55.3769 H   0  0  0  0  0  0  0  0  0  0  0  0
   10.5215    2.8515  -56.0889 H   0  0  0  0  0  0  0  0  0  0  0  0
   10.6090    1.3967  -57.2217 H   0  0  0  0  0  0  0  0  0  0  0  0
    7.4968    2.5370  -57.8774 H   0  0  0  0  0  0  0  0  0  0  0  0
    7.9549    4.0249  -56.9576 H   0  0  0  0  0  0  0  0  0  0  0  0
    6.5712    4.5869  -58.9571 H   0  0  0  0  0  0  0  0  0  0  0  0
    8.1471    6.2607  -59.9237 H   0  0  0  0  0  0  0  0  0  0  0  0
    8.3220    6.1664  -58.1347 H   0  0  0  0  0  0  0  0  0  0  0  0
   10.5504    6.2180  -59.2588 H   0  0  0  0  0  0  0  0  0  0  0  0
    9.8419    5.1510  -61.4026 H   0  0  0  0  0  0  0  0  0  0  0  0
   11.2304    4.2704  -60.6681 H   0  0  0  0  0  0  0  0  0  0  0  0
    9.4879    2.6809  -61.4925 H   0  0  0  0  0  0  0  0  0  0  0  0
    7.5285    4.1996  -61.2249 H   0  0  0  0  0  0  0  0  0  0  0  0
    7.2650    2.6436  -60.3586 H   0  0  0  0  0  0  0  0  0  0  0  0
    9.2024    1.4193  -59.3586 H   0  0  0  0  0  0  0  0  0  0  0  0
   10.8634    2.1149  -59.4909 H   0  0  0  0  0  0  0  0  0  0  0  0
   11.4802    4.1690  -58.1851 H   0  0  0  0  0  0  0  0  0  0  0  0
   10.2458    4.9578  -57.1290 H   0  0  0  0  0  0  0  0  0  0  0  0
    6.8130    0.6930  -54.8390 H   0  0  0  0  0  0  0  0  0  0  0  0
    5.2520   -2.1640  -51.8510 H   0  0  0  0  0  0  0  0  0  0  0  0
  1  2  2  3
  2  3  1  0
  3  4  2  0
  4  5  1  0
  5  6  2  0
  6  7  1  0
  7  8  1  0
  8  9  1  0
  9 10  1  0
  6 11  1  0
 11 12  2  0
 12 13  1  0
 13 14  1  0
 15 14  1  1
 15 16  1  0
 16 17  1  0
 17 18  1  0
 18 19  1  0
 19 20  1  0
 20 21  1  0
 21 22  1  0
 21 23  1  0
 19 24  1  0
 11 25  1  0
 25 26  1  0
 26 27  2  0
 27 28  1  0
 28  2  1  0
 27  5  1  0
 10  7  1  0
 23 15  1  0
 24 15  1  0
 22 17  1  0
  1 29  1  0
  3 30  1  0
  7 31  1  0
  8 32  1  0
  8 33  1  0
  9 34  1  0
  9 35  1  0
 10 36  1  0
 10 37  1  0
 13 38  1  0
 13 39  1  0
 14 40  1  0
 14 41  1  0
 16 42  1  0
 16 43  1  0
 17 44  1  1
 18 45  1  0
 18 46  1  0
 19 47  1  6
 20 48  1  0
 20 49  1  0
 21 50  1  6
 22 51  1  0
 22 52  1  0
 23 53  1  0
 23 54  1  0
 24 55  1  0
 24 56  1  0
 25 57  1  0
 28 58  1  0
M  END
>  <meeko>  (274) 
{"is_sidechain": false}

$$$$

     RDKit          3D

 58 63  0  0  0  0  0  0  0  0999 V2000
    8.4420    4.5600  -59.4090 N   0  0  0  0  0  0  0  0  0  0  0  0
    8.4430    3.7080  -58.4400 C   0  0  0  0  0  0  0  0  0  0  0  0
    7.1980    3.4810  -57.6210 C   0  0  0  0  0  0  0  0  0  0  0  0
    7.1240    2.5730  -56.7030 N   0  0  0  0  0  0  0  0  0  0  0  0
    8.2570    1.8040  -56.5000 C   0  0  0  0  0  0  0  0  0  0  0  0
    8.2810    0.7610  -55.6350 C   0  0  0  0  0  0  0  0  0  0  0  0
    7.0390    0.4350  -54.8560 C   0  0  0  0  0  0  0  0  0  0  0  0
    6.5290   -1.0270  -54.8580 C   0  0  0  0  0  0  0  0  0  0  0  0
    6.1110   -0.8110  -53.3870 C   0  0  0  0  0  0  0  0  0  0  0  0
    7.1480    0.3300  -53.3150 C   0  0  0  0  0  0  0  0  0  0  0  0
    9.5680   -0.0430  -55.5010 C   0  0  0  0  0  0  0  0  0  0  0  0
    9.5900   -0.9830  -54.6140 N   0  0  0  0  0  0  0  0  0  0  0  0
   10.7450   -1.8530  -54.4170 C   0  0  0  0  0  0  0  0  0  0  0  0
   10.3500   -3.2980  -54.7290 C   0  0  0  0  0  0  0  0  0  0  0  0
   11.1540   -3.9900  -55.8550 C   0  0  2  0  0  0  0  0  0  0  0  0
   10.2710   -4.9450  -56.6980 C   0  0  0  0  0  0  0  0  0  0  0  0
   11.1120   -5.6600  -57.7720 C   0  0  1  0  0  0  0  0  0  0  0  0
   11.7490   -4.6090  -58.6970 C   0  0  0  0  0  0  0  0  0  0  0  0
   12.6540   -3.6690  -57.8840 C   0  0  2  0  0  0  0  0  0  0  0  0
   13.7580   -4.4930  -57.2040 C   0  0  0  0  0  0  0  0  0  0  0  0
   13.1310   -5.5430  -56.2730 C   0  0  2  0  0  0  0  0  0  0  0  0
   12.2240   -6.4750  -57.0920 C   0  0  0  0  0  0  0  0  0  0  0  0
   12.2880   -4.8300  -55.2040 C   0  0  0  0  0  0  0  0  0  0  0  0
   11.8090   -2.9590  -56.8090 C   0  0  0  0  0  0  0  0  0  0  0  0
   10.6480    0.2590  -56.3190 N   0  0  0  0  0  0  0  0  0  0  0  0
   10.6990    1.4410  -56.9920 N   0  0  0  0  0  0  0  0  0  0  0  0
    9.5390    2.1270  -57.2670 C   0  0  0  0  0  0  0  0  0  0  0  0
    9.6060    3.0390  -58.1980 N   0  0  0  0  0  0  0  0  0  0  0  0
    7.5320    5.0110  -59.5160 H   0  0  0  0  0  0  0  0  0  0  0  0
    6.3177    4.1125  -57.8117 H   0  0  0  0  0  0  0  0  0  0  0  0
    6.4639    1.2399  -55.3372 H   0  0  0  0  0  0  0  0  0  0  0  0
    5.6949   -1.2211  -55.5483 H   0  0  0  0  0  0  0  0  0  0  0  0
    7.1749   -1.8649  -55.1592 H   0  0  0  0  0  0  0  0  0  0  0  0
    5.0679   -0.4893  -53.2512 H   0  0  0  0  0  0  0  0  0  0  0  0
    6.1164   -1.6379  -52.6616 H   0  0  0  0  0  0  0  0  0  0  0  0
    6.8101    1.2233  -52.7693 H   0  0  0  0  0  0  0  0  0  0  0  0
    8.1171    0.2001  -52.8110 H   0  0  0  0  0  0  0  0  0  0  0  0
   11.5584   -1.5414  -55.0888 H   0  0  0  0  0  0  0  0  0  0  0  0
   11.0858   -1.7817  -53.3736 H   0  0  0  0  0  0  0  0  0  0  0  0
   10.4798   -3.8888  -53.8102 H   0  0  0  0  0  0  0  0  0  0  0  0
    9.3119   -3.2516  -55.0897 H   0  0  0  0  0  0  0  0  0  0  0  0
    9.8176   -5.6967  -56.0351 H   0  0  0  0  0  0  0  0  0  0  0  0
    9.4889   -4.3543  -57.1973 H   0  0  0  0  0  0  0  0  0  0  0  0
   10.4681   -6.3322  -58.3581 H   0  0  0  0  0  0  0  0  0  0  0  0
   12.3495   -5.1172  -59.4659 H   0  0  0  0  0  0  0  0  0  0  0  0
   10.9525   -4.0188  -59.1737 H   0  0  0  0  0  0  0  0  0  0  0  0
   13.1096   -2.9212  -58.5497 H   0  0  0  0  0  0  0  0  0  0  0  0
   14.3599   -5.0002  -57.9724 H   0  0  0  0  0  0  0  0  0  0  0  0
   14.3979   -3.8216  -56.6126 H   0  0  0  0  0  0  0  0  0  0  0  0
   13.9259   -6.1311  -55.7911 H   0  0  0  0  0  0  0  0  0  0  0  0
   12.8239   -6.9849  -57.8602 H   0  0  0  0  0  0  0  0  0  0  0  0
   11.7688   -7.2182  -56.4208 H   0  0  0  0  0  0  0  0  0  0  0  0
   11.8407   -5.5827  -54.5381 H   0  0  0  0  0  0  0  0  0  0  0  0
   12.9431   -4.1527  -54.6365 H   0  0  0  0  0  0  0  0  0  0  0  0
   12.4570   -2.2885  -56.2255 H   0  0  0  0  0  0  0  0  0  0  0  0
   11.0141   -2.3848  -57.3074 H   0  0  0  0  0  0  0  0  0  0  0  0
   11.5410   -0.0970  -55.9900 H   0  0  0  0  0  0  0  0  0  0  0  0
   11.4030    1.5530  -57.7200 H   0  0  0  0  0  0  0  0  0  0  0  0
  1  2  2  3
  2  3  1  0
  3  4  2  0
  4  5  1  0
  5  6  2  0
  6  7  1  0
  7  8  1  0
  8  9  1  0
  9 10  1  0
  6 11  1  0
 11 12  2  0
 12 13  1  0
 13 14  1  0
 15 14  1  1
 15 16  1  0
 16 17  1  0
 17 18  1  0
 18 19  1  0
 19 20  1  0
 20 21  1  0
 21 22  1  0
 21 23  1  0
 19 24  1  0
 11 25  1  0
 25 26  1  0
 26 27  1  0
 27 28  2  0
 28  2  1  0
 27  5  1  0
 10  7  1  0
 23 15  1  0
 24 15  1  0
 22 17  1  0
  1 29  1  0
  3 30  1  0
  7 31  1  0
  8 32  1  0
  8 33  1  0
  9 34  1  0
  9 35  1  0
 10 36  1  0
 10 37  1  0
 13 38  1  0
 13 39  1  0
 14 40  1  0
 14 41  1  0
 16 42  1  0
 16 43  1  0
 17 44  1  6
 18 45  1  0
 18 46  1  0
 19 47  1  6
 20 48  1  0
 20 49  1  0
 21 50  1  1
 22 51  1  0
 22 52  1  0
 23 53  1  0
 23 54  1  0
 24 55  1  0
 24 56  1  0
 25 57  1  0
 26 58  1  0
M  END
>  <meeko>  (275) 
{"is_sidechain": false}

$$$$

     RDKit          3D

 53 56  0  0  0  0  0  0  0  0999 V2000
   10.1380   -2.6050  -52.4790 N   0  0  0  0  0  0  0  0  0  0  0  0
    9.3570   -1.9880  -53.0740 C   0  0  0  0  0  0  0  0  0  0  0  0
    8.4200   -1.2120  -53.8200 C   0  0  0  0  0  0  0  0  0  0  0  0
    7.1110   -1.5110  -53.8620 C   0  0  0  0  0  0  0  0  0  0  0  0
    6.2330   -0.6570  -54.6420 C   0  0  0  0  0  0  0  0  0  0  0  0
    6.7160    0.3860  -55.3510 C   0  0  0  0  0  0  0  0  0  0  0  0
    5.8670    1.2170  -56.0210 N   0  0  0  0  0  0  0  0  0  0  0  0
    6.2540    2.1470  -56.7520 N   0  0  0  0  0  0  0  0  0  0  0  0
    7.5880    2.3370  -57.0280 C   0  0  0  0  0  0  0  0  0  0  0  0
    7.9700    3.0830  -58.0110 N   0  0  0  0  0  0  0  0  0  0  0  0
    6.9590    3.7110  -58.8640 C   0  0  0  0  0  0  0  0  0  0  0  0
    7.2940    3.4460  -60.3330 C   0  0  0  0  0  0  0  0  0  0  0  0
    6.4270    2.3360  -60.9390 C   0  0  0  0  0  0  0  0  0  0  0  0
    5.1110    2.1920  -60.2820 C   0  0  0  0  0  0  0  0  0  0  0  0
    3.7790    2.2690  -59.6640 C   0  0  0  0  0  0  0  0  0  0  0  0
    2.9160    1.5690  -60.8010 C   0  0  0  0  0  0  0  0  0  0  0  0
    3.1960    2.0160  -62.3180 C   0  0  0  0  0  0  0  0  0  0  0  0
    4.6460    1.8260  -62.9680 C   0  0  0  0  0  0  0  0  0  0  0  0
    5.9230    2.6450  -62.4280 C   0  0  0  0  0  0  0  0  0  0  0  0
    8.6030    1.6860  -56.1390 C   0  0  0  0  0  0  0  0  0  0  0  0
   10.0240    2.1400  -56.2450 C   0  0  0  0  0  0  0  0  0  0  0  0
   10.3170    3.6550  -56.3430 C   0  0  0  0  0  0  0  0  0  0  0  0
   11.4810    3.3050  -57.2940 C   0  0  0  0  0  0  0  0  0  0  0  0
   10.7860    1.9550  -57.5770 C   0  0  0  0  0  0  0  0  0  0  0  0
    8.1610    0.6870  -55.3500 C   0  0  0  0  0  0  0  0  0  0  0  0
    8.9290   -0.1270  -54.5170 N   0  0  0  0  0  0  0  0  0  0  0  0
    6.7140   -2.3813  -53.3189 H   0  0  0  0  0  0  0  0  0  0  0  0
    5.1527   -0.8638  -54.6556 H   0  0  0  0  0  0  0  0  0  0  0  0
    5.9701    3.2890  -58.6317 H   0  0  0  0  0  0  0  0  0  0  0  0
    6.9476    4.7956  -58.6808 H   0  0  0  0  0  0  0  0  0  0  0  0
    7.1330    4.3719  -60.9047 H   0  0  0  0  0  0  0  0  0  0  0  0
    8.3428    3.1181  -60.3841 H   0  0  0  0  0  0  0  0  0  0  0  0
    7.1013    1.4721  -60.8445 H   0  0  0  0  0  0  0  0  0  0  0  0
    4.7960    1.4003  -60.9776 H   0  0  0  0  0  0  0  0  0  0  0  0
    5.4717    2.8732  -59.4972 H   0  0  0  0  0  0  0  0  0  0  0  0
    3.7347    1.7134  -58.7156 H   0  0  0  0  0  0  0  0  0  0  0  0
    3.4513    3.2818  -59.3866 H   0  0  0  0  0  0  0  0  0  0  0  0
    3.0998    0.4864  -60.7361 H   0  0  0  0  0  0  0  0  0  0  0  0
    1.8800    1.8801  -60.6013 H   0  0  0  0  0  0  0  0  0  0  0  0
    2.4924    1.4515  -62.9475 H   0  0  0  0  0  0  0  0  0  0  0  0
    3.0854    3.1097  -62.2773 H   0  0  0  0  0  0  0  0  0  0  0  0
    4.8950    0.7595  -62.8652 H   0  0  0  0  0  0  0  0  0  0  0  0
    4.5089    2.2399  -63.9779 H   0  0  0  0  0  0  0  0  0  0  0  0
    6.7607    2.4349  -63.1092 H   0  0  0  0  0  0  0  0  0  0  0  0
    5.5904    3.6931  -62.3984 H   0  0  0  0  0  0  0  0  0  0  0  0
   10.3033    1.5592  -55.3536 H   0  0  0  0  0  0  0  0  0  0  0  0
    9.5127    4.2483  -56.8025 H   0  0  0  0  0  0  0  0  0  0  0  0
   10.4709    4.2721  -55.4455 H   0  0  0  0  0  0  0  0  0  0  0  0
   11.5677    3.9649  -58.1698 H   0  0  0  0  0  0  0  0  0  0  0  0
   12.5270    3.3490  -56.9565 H   0  0  0  0  0  0  0  0  0  0  0  0
   10.1476    1.9473  -58.4728 H   0  0  0  0  0  0  0  0  0  0  0  0
   11.3624    1.0427  -57.7903 H   0  0  0  0  0  0  0  0  0  0  0  0
    9.9340   -0.0090  -54.5060 H   0  0  0  0  0  0  0  0  0  0  0  0
  1  2  3  0
  2  3  1  0
  3  4  2  0
  4  5  1  0
  5  6  2  0
  6  7  1  0
  7  8  2  0
  8  9  1  0
  9 10  2  0
 10 11  1  0
 11 12  1  0
 12 13  1  0
 13 14  1  0
 14 15  1  0
 15 16  1  0
 16 17  1  0
 17 18  1  0
 18 19  1  0
  9 20  1  0
 20 21  1  0
 21 22  1  0
 22 23  1  0
 23 24  1  0
 20 25  2  0
 25 26  1  0
 26  3  1  0
 25  6  1  0
 19 13  1  0
 24 21  1  0
  4 27  1  0
  5 28  1  0
 11 29  1  0
 11 30  1  0
 12 31  1  0
 12 32  1  0
 13 33  1  0
 14 34  1  0
 14 35  1  0
 15 36  1  0
 15 37  1  0
 16 38  1  0
 16 39  1  0
 17 40  1  0
 17 41  1  0
 18 42  1  0
 18 43  1  0
 19 44  1  0
 19 45  1  0
 21 46  1  0
 22 47  1  0
 22 48  1  0
 23 49  1  0
 23 50  1  0
 24 51  1  0
 24 52  1  0
 26 53  1  0
M  END
>  <meeko>  (276) 
{"is_sidechain": false}

$$$$

     RDKit          3D

 53 56  0  0  0  0  0  0  0  0999 V2000
   12.6540    7.4080  -60.8690 N   0  0  0  0  0  0  0  0  0  0  0  0
   12.4040    6.5130  -60.1720 C   0  0  0  0  0  0  0  0  0  0  0  0
   12.1420    5.4080  -59.2920 C   0  0  0  0  0  0  0  0  0  0  0  0
   13.1260    4.9090  -58.4640 C   0  0  0  0  0  0  0  0  0  0  0  0
   12.7890    3.8420  -57.6400 C   0  0  0  0  0  0  0  0  0  0  0  0
   11.5080    3.3040  -57.6540 C   0  0  0  0  0  0  0  0  0  0  0  0
   11.2250    2.2850  -56.8420 N   0  0  0  0  0  0  0  0  0  0  0  0
    9.9780    1.7630  -56.8400 N   0  0  0  0  0  0  0  0  0  0  0  0
    9.0130    2.2620  -57.6430 C   0  0  0  0  0  0  0  0  0  0  0  0
    7.7170    1.6920  -57.6140 N   0  0  0  0  0  0  0  0  0  0  0  0
    6.9580    1.9540  -56.3900 C   0  0  0  0  0  0  0  0  0  0  0  0
    6.3580    0.6340  -55.8920 C   0  0  0  0  0  0  0  0  0  0  0  0
    6.8110    0.1690  -54.4870 C   0  0  0  0  0  0  0  0  0  0  0  0
    6.3240   -1.2560  -54.1780 C   0  0  0  0  0  0  0  0  0  0  0  0
    6.6560   -1.8060  -52.7870 C   0  0  0  0  0  0  0  0  0  0  0  0
    8.1430   -1.8080  -52.4340 C   0  0  0  0  0  0  0  0  0  0  0  0
    9.1140   -2.0010  -53.6080 C   0  0  0  0  0  0  0  0  0  0  0  0
    9.2150   -0.8430  -54.5960 C   0  0  0  0  0  0  0  0  0  0  0  0
    8.3230    0.3640  -54.2870 C   0  0  0  0  0  0  0  0  0  0  0  0
    9.2600    3.3200  -58.5490 C   0  0  0  0  0  0  0  0  0  0  0  0
    8.0720    3.8320  -59.5220 C   0  0  0  0  0  0  0  0  0  0  0  0
    8.3500    3.7700  -61.0550 C   0  0  0  0  0  0  0  0  0  0  0  0
    7.4370    2.5350  -61.1220 C   0  0  0  0  0  0  0  0  0  0  0  0
    6.7830    3.0200  -59.8170 C   0  0  0  0  0  0  0  0  0  0  0  0
   10.5580    3.8620  -58.5270 C   0  0  0  0  0  0  0  0  0  0  0  0
   10.8840    4.9040  -59.3280 N   0  0  0  0  0  0  0  0  0  0  0  0
   14.1384    5.3391  -58.4563 H   0  0  0  0  0  0  0  0  0  0  0  0
   13.5478    3.4169  -56.9665 H   0  0  0  0  0  0  0  0  0  0  0  0
    7.2090    1.9890  -58.4440 H   0  0  0  0  0  0  0  0  0  0  0  0
    7.6264    2.3700  -55.6218 H   0  0  0  0  0  0  0  0  0  0  0  0
    6.1549    2.6773  -56.5945 H   0  0  0  0  0  0  0  0  0  0  0  0
    5.2641    0.7481  -55.8721 H   0  0  0  0  0  0  0  0  0  0  0  0
    6.7181   -0.1367  -56.5894 H   0  0  0  0  0  0  0  0  0  0  0  0
    6.3270    0.8159  -53.7405 H   0  0  0  0  0  0  0  0  0  0  0  0
    5.2297   -1.2665  -54.2889 H   0  0  0  0  0  0  0  0  0  0  0  0
    6.8614   -1.9064  -54.8838 H   0  0  0  0  0  0  0  0  0  0  0  0
    6.1288   -1.1920  -52.0420 H   0  0  0  0  0  0  0  0  0  0  0  0
    6.3376   -2.8589  -52.7875 H   0  0  0  0  0  0  0  0  0  0  0  0
    8.3772   -0.8441  -51.9587 H   0  0  0  0  0  0  0  0  0  0  0  0
    8.2912   -2.6803  -51.7805 H   0  0  0  0  0  0  0  0  0  0  0  0
   10.1165   -2.1734  -53.1894 H   0  0  0  0  0  0  0  0  0  0  0  0
    8.7128   -2.8467  -54.1858 H   0  0  0  0  0  0  0  0  0  0  0  0
   10.2596   -0.4985  -54.6095 H   0  0  0  0  0  0  0  0  0  0  0  0
    8.8673   -1.2376  -55.5621 H   0  0  0  0  0  0  0  0  0  0  0  0
    8.4880    0.6409  -53.2353 H   0  0  0  0  0  0  0  0  0  0  0  0
    8.6156    1.1358  -55.0141 H   0  0  0  0  0  0  0  0  0  0  0  0
    7.9868    4.7512  -58.9239 H   0  0  0  0  0  0  0  0  0  0  0  0
    7.9833    4.6394  -61.6205 H   0  0  0  0  0  0  0  0  0  0  0  0
    9.3763    3.7452  -61.4500 H   0  0  0  0  0  0  0  0  0  0  0  0
    6.7624    2.5114  -61.9905 H   0  0  0  0  0  0  0  0  0  0  0  0
    7.8485    1.5193  -61.2168 H   0  0  0  0  0  0  0  0  0  0  0  0
    5.8814    3.6337  -59.9605 H   0  0  0  0  0  0  0  0  0  0  0  0
    6.3773    2.3078  -59.0835 H   0  0  0  0  0  0  0  0  0  0  0  0
  1  2  3  0
  2  3  1  0
  3  4  2  0
  4  5  1  0
  5  6  2  0
  6  7  1  0
  7  8  2  0
  8  9  1  0
  9 10  1  0
 10 11  1  0
 11 12  1  0
 12 13  1  0
 13 14  1  0
 14 15  1  0
 15 16  1  0
 16 17  1  0
 17 18  1  0
 18 19  1  0
  9 20  2  0
 20 21  1  0
 21 22  1  0
 22 23  1  0
 23 24  1  0
 20 25  1  0
 25 26  2  0
 26  3  1  0
 25  6  1  0
 19 13  1  0
 24 21  1  0
  4 27  1  0
  5 28  1  0
 10 29  1  0
 11 30  1  0
 11 31  1  0
 12 32  1  0
 12 33  1  0
 13 34  1  0
 14 35  1  0
 14 36  1  0
 15 37  1  0
 15 38  1  0
 16 39  1  0
 16 40  1  0
 17 41  1  0
 17 42  1  0
 18 43  1  0
 18 44  1  0
 19 45  1  0
 19 46  1  0
 21 47  1  0
 22 48  1  0
 22 49  1  0
 23 50  1  0
 23 51  1  0
 24 52  1  0
 24 53  1  0
M  END
>  <meeko>  (277) 
{"is_sidechain": false}

$$$$

     RDKit          3D

 53 56  0  0  0  0  0  0  0  0999 V2000
   11.6720   -2.7540  -52.2220 N   0  0  0  0  0  0  0  0  0  0  0  0
   10.7040   -2.3390  -52.7150 C   0  0  0  0  0  0  0  0  0  0  0  0
    9.4590   -1.8720  -53.2960 C   0  0  0  0  0  0  0  0  0  0  0  0
    8.1800   -2.5230  -52.9710 C   0  0  0  0  0  0  0  0  0  0  0  0
    7.0770   -2.0310  -53.5370 C   0  0  0  0  0  0  0  0  0  0  0  0
    7.1510   -0.8730  -54.4590 C   0  0  0  0  0  0  0  0  0  0  0  0
    6.0400   -0.4350  -54.9680 N   0  0  0  0  0  0  0  0  0  0  0  0
    6.1730    0.6320  -55.7940 N   0  0  0  0  0  0  0  0  0  0  0  0
    7.3480    1.2960  -56.0860 C   0  0  0  0  0  0  0  0  0  0  0  0
    7.4260    2.3950  -56.7650 N   0  0  0  0  0  0  0  0  0  0  0  0
    6.2160    3.0140  -57.2960 C   0  0  0  0  0  0  0  0  0  0  0  0
    6.4920    3.4210  -58.7450 C   0  0  0  0  0  0  0  0  0  0  0  0
    7.9870    3.6890  -59.0430 C   0  0  0  0  0  0  0  0  0  0  0  0
    8.4460    2.8950  -60.2800 C   0  0  0  0  0  0  0  0  0  0  0  0
    9.6040    3.4620  -61.0970 C   0  0  0  0  0  0  0  0  0  0  0  0
   10.8150    3.9050  -60.2850 C   0  0  0  0  0  0  0  0  0  0  0  0
   10.7240    5.3500  -59.8060 C   0  0  0  0  0  0  0  0  0  0  0  0
    9.6400    5.6240  -58.7700 C   0  0  0  0  0  0  0  0  0  0  0  0
    8.2230    5.2060  -59.1680 C   0  0  0  0  0  0  0  0  0  0  0  0
    8.6390    0.7170  -55.5670 C   0  0  0  0  0  0  0  0  0  0  0  0
    9.9620    1.3380  -55.8910 C   0  0  0  0  0  0  0  0  0  0  0  0
   10.4550    1.2740  -57.3730 C   0  0  0  0  0  0  0  0  0  0  0  0
   11.0850    2.6600  -57.1520 C   0  0  0  0  0  0  0  0  0  0  0  0
   10.0020    2.8870  -56.0840 C   0  0  0  0  0  0  0  0  0  0  0  0
    8.5390   -0.3230  -54.7110 C   0  0  0  0  0  0  0  0  0  0  0  0
    9.6430   -0.8670  -54.0860 N   0  0  0  0  0  0  0  0  0  0  0  0
    8.1352   -3.3832  -52.2869 H   0  0  0  0  0  0  0  0  0  0  0  0
    6.1017   -2.4898  -53.3171 H   0  0  0  0  0  0  0  0  0  0  0  0
    5.3100    1.0380  -56.1420 H   0  0  0  0  0  0  0  0  0  0  0  0
    5.3832    2.2962  -57.2617 H   0  0  0  0  0  0  0  0  0  0  0  0
    5.9417    3.8946  -56.6966 H   0  0  0  0  0  0  0  0  0  0  0  0
    6.1462    2.6116  -59.4048 H   0  0  0  0  0  0  0  0  0  0  0  0
    5.9553    4.3649  -58.9211 H   0  0  0  0  0  0  0  0  0  0  0  0
    8.6079    3.3318  -58.2082 H   0  0  0  0  0  0  0  0  0  0  0  0
    8.7459    1.8943  -59.9355 H   0  0  0  0  0  0  0  0  0  0  0  0
    7.5843    2.9216  -60.9632 H   0  0  0  0  0  0  0  0  0  0  0  0
    9.9335    2.6864  -61.8040 H   0  0  0  0  0  0  0  0  0  0  0  0
    9.2172    4.3676  -61.5872 H   0  0  0  0  0  0  0  0  0  0  0  0
   10.9040    3.2505  -59.4054 H   0  0  0  0  0  0  0  0  0  0  0  0
   11.6928    3.8349  -60.9442 H   0  0  0  0  0  0  0  0  0  0  0  0
   11.6936    5.6237  -59.3644 H   0  0  0  0  0  0  0  0  0  0  0  0
   10.4589    5.9482  -60.6902 H   0  0  0  0  0  0  0  0  0  0  0  0
    9.9066    5.0827  -57.8503 H   0  0  0  0  0  0  0  0  0  0  0  0
    9.6083    6.7170  -58.6501 H   0  0  0  0  0  0  0  0  0  0  0  0
    7.5072    5.7273  -58.5154 H   0  0  0  0  0  0  0  0  0  0  0  0
    8.0848    5.4751  -60.2256 H   0  0  0  0  0  0  0  0  0  0  0  0
   10.4829    0.8234  -55.0702 H   0  0  0  0  0  0  0  0  0  0  0  0
   11.1762    0.4703  -57.5823 H   0  0  0  0  0  0  0  0  0  0  0  0
    9.7627    1.0790  -58.2053 H   0  0  0  0  0  0  0  0  0  0  0  0
   12.1155    2.6424  -56.7677 H   0  0  0  0  0  0  0  0  0  0  0  0
   11.2475    3.3668  -57.9791 H   0  0  0  0  0  0  0  0  0  0  0  0
   10.3392    3.4505  -55.2015 H   0  0  0  0  0  0  0  0  0  0  0  0
    9.0918    3.4666  -56.2978 H   0  0  0  0  0  0  0  0  0  0  0  0
  1  2  3  0
  2  3  1  0
  3  4  1  0
  4  5  2  0
  5  6  1  0
  6  7  2  0
  7  8  1  0
  8  9  1  0
  9 10  2  0
 10 11  1  0
 11 12  1  0
 12 13  1  0
 13 14  1  0
 14 15  1  0
 15 16  1  0
 16 17  1  0
 17 18  1  0
 18 19  1  0
  9 20  1  0
 20 21  1  0
 21 22  1  0
 22 23  1  0
 23 24  1  0
 20 25  2  0
 25 26  1  0
 26  3  2  0
 25  6  1  0
 19 13  1  0
 24 21  1  0
  4 27  1  0
  5 28  1  0
  8 29  1  0
 11 30  1  0
 11 31  1  0
 12 32  1  0
 12 33  1  0
 13 34  1  0
 14 35  1  0
 14 36  1  0
 15 37  1  0
 15 38  1  0
 16 39  1  0
 16 40  1  0
 17 41  1  0
 17 42  1  0
 18 43  1  0
 18 44  1  0
 19 45  1  0
 19 46  1  0
 21 47  1  0
 22 48  1  0
 22 49  1  0
 23 50  1  0
 23 51  1  0
 24 52  1  0
 24 53  1  0
M  END
>  <meeko>  (278) 
{"is_sidechain": false}

$$$$

     RDKit          3D

 53 56  0  0  0  0  0  0  0  0999 V2000
    7.3090   -2.6880  -50.7080 N   0  0  0  0  0  0  0  0  0  0  0  0
    8.0510   -2.4130  -51.5590 C   0  0  0  0  0  0  0  0  0  0  0  0
    9.0210   -2.1170  -52.5970 C   0  0  0  0  0  0  0  0  0  0  0  0
   10.2800   -2.8760  -52.6980 C   0  0  0  0  0  0  0  0  0  0  0  0
   11.0960   -2.5850  -53.7120 C   0  0  0  0  0  0  0  0  0  0  0  0
   10.7400   -1.5270  -54.6870 C   0  0  0  0  0  0  0  0  0  0  0  0
   11.5110   -1.3580  -55.7170 N   0  0  0  0  0  0  0  0  0  0  0  0
   11.1200   -0.3520  -56.5550 N   0  0  0  0  0  0  0  0  0  0  0  0
   10.2660    0.6620  -56.1610 C   0  0  0  0  0  0  0  0  0  0  0  0
   10.5750    1.8190  -56.6360 N   0  0  0  0  0  0  0  0  0  0  0  0
   10.0320    3.0950  -56.2060 C   0  0  0  0  0  0  0  0  0  0  0  0
   10.8400    4.2110  -56.8790 C   0  0  0  0  0  0  0  0  0  0  0  0
   10.0580    5.0880  -57.8890 C   0  0  0  0  0  0  0  0  0  0  0  0
   10.6390    4.9920  -59.3080 C   0  0  0  0  0  0  0  0  0  0  0  0
   10.4030    3.6290  -59.9620 C   0  0  0  0  0  0  0  0  0  0  0  0
    9.1230    3.5020  -60.7780 C   0  0  0  0  0  0  0  0  0  0  0  0
    7.8250    3.5800  -59.9640 C   0  0  0  0  0  0  0  0  0  0  0  0
    7.7480    4.8360  -59.1050 C   0  0  0  0  0  0  0  0  0  0  0  0
    8.5500    4.7910  -57.8060 C   0  0  0  0  0  0  0  0  0  0  0  0
    9.1780    0.2820  -55.1960 C   0  0  0  0  0  0  0  0  0  0  0  0
    7.8370    0.9370  -55.1690 C   0  0  0  0  0  0  0  0  0  0  0  0
    7.3190    1.4700  -56.5470 C   0  0  0  0  0  0  0  0  0  0  0  0
    5.9020    1.0840  -56.0910 C   0  0  0  0  0  0  0  0  0  0  0  0
    6.5720    0.0150  -55.2120 C   0  0  0  0  0  0  0  0  0  0  0  0
    9.4670   -0.7610  -54.3850 C   0  0  0  0  0  0  0  0  0  0  0  0
    8.6290   -1.1500  -53.3600 N   0  0  0  0  0  0  0  0  0  0  0  0
   10.5373   -3.6539  -51.9641 H   0  0  0  0  0  0  0  0  0  0  0  0
   12.0417   -3.1352  -53.8257 H   0  0  0  0  0  0  0  0  0  0  0  0
   11.8480    0.0010  -57.1750 H   0  0  0  0  0  0  0  0  0  0  0  0
    8.9755    3.1692  -56.5031 H   0  0  0  0  0  0  0  0  0  0  0  0
   10.0968    3.1860  -55.1117 H   0  0  0  0  0  0  0  0  0  0  0  0
   11.2297    4.8701  -56.0892 H   0  0  0  0  0  0  0  0  0  0  0  0
   11.6232    3.7053  -57.4629 H   0  0  0  0  0  0  0  0  0  0  0  0
   10.1826    6.1444  -57.6088 H   0  0  0  0  0  0  0  0  0  0  0  0
   10.1684    5.7660  -59.9321 H   0  0  0  0  0  0  0  0  0  0  0  0
   11.7269    5.1333  -59.2274 H   0  0  0  0  0  0  0  0  0  0  0  0
   11.2520    3.4231  -60.6304 H   0  0  0  0  0  0  0  0  0  0  0  0
   10.3038    2.9117  -59.1340 H   0  0  0  0  0  0  0  0  0  0  0  0
    9.1096    4.3136  -61.5203 H   0  0  0  0  0  0  0  0  0  0  0  0
    9.1437    2.4986  -61.2284 H   0  0  0  0  0  0  0  0  0  0  0  0
    6.9723    3.5754  -60.6589 H   0  0  0  0  0  0  0  0  0  0  0  0
    7.8020    2.7120  -59.2887 H   0  0  0  0  0  0  0  0  0  0  0  0
    8.1195    5.6803  -59.7042 H   0  0  0  0  0  0  0  0  0  0  0  0
    6.6938    4.9355  -58.8072 H   0  0  0  0  0  0  0  0  0  0  0  0
    8.1067    5.5277  -57.1199 H   0  0  0  0  0  0  0  0  0  0  0  0
    8.4893    3.7433  -57.4764 H   0  0  0  0  0  0  0  0  0  0  0  0
    8.0614    1.5789  -54.3043 H   0  0  0  0  0  0  0  0  0  0  0  0
    7.4710    2.5475  -56.7081 H   0  0  0  0  0  0  0  0  0  0  0  0
    7.7371    1.1113  -57.4991 H   0  0  0  0  0  0  0  0  0  0  0  0
    5.3657    1.8681  -55.5364 H   0  0  0  0  0  0  0  0  0  0  0  0
    5.1036    0.8374  -56.8064 H   0  0  0  0  0  0  0  0  0  0  0  0
    6.0886   -0.1456  -54.2371 H   0  0  0  0  0  0  0  0  0  0  0  0
    6.6343   -1.0367  -55.5282 H   0  0  0  0  0  0  0  0  0  0  0  0
  1  2  3  0
  2  3  1  0
  3  4  1  0
  4  5  2  0
  5  6  1  0
  6  7  2  0
  7  8  1  0
  8  9  1  0
  9 10  2  0
 10 11  1  0
 11 12  1  0
 12 13  1  0
 13 14  1  0
 14 15  1  0
 15 16  1  0
 16 17  1  0
 17 18  1  0
 18 19  1  0
  9 20  1  0
 20 21  1  0
 21 22  1  0
 22 23  1  0
 23 24  1  0
 20 25  2  0
 25 26  1  0
 26  3  2  0
 25  6  1  0
 19 13  1  0
 24 21  1  0
  4 27  1  0
  5 28  1  0
  8 29  1  0
 11 30  1  0
 11 31  1  0
 12 32  1  0
 12 33  1  0
 13 34  1  0
 14 35  1  0
 14 36  1  0
 15 37  1  0
 15 38  1  0
 16 39  1  0
 16 40  1  0
 17 41  1  0
 17 42  1  0
 18 43  1  0
 18 44  1  0
 19 45  1  0
 19 46  1  0
 21 47  1  0
 22 48  1  0
 22 49  1  0
 23 50  1  0
 23 51  1  0
 24 52  1  0
 24 53  1  0
M  END
>  <meeko>  (279) 
{"is_sidechain": false}

$$$$

     RDKit          3D

 53 56  0  0  0  0  0  0  0  0999 V2000
   11.1550   -1.9930  -53.4460 N   0  0  0  0  0  0  0  0  0  0  0  0
   10.1450   -1.5260  -53.7730 C   0  0  0  0  0  0  0  0  0  0  0  0
    8.9180   -0.9340  -54.2040 C   0  0  0  0  0  0  0  0  0  0  0  0
    7.7190   -1.4070  -53.8190 C   0  0  0  0  0  0  0  0  0  0  0  0
    6.5190   -0.7330  -54.2920 C   0  0  0  0  0  0  0  0  0  0  0  0
    6.5980    0.2760  -55.1820 C   0  0  0  0  0  0  0  0  0  0  0  0
    5.5030    1.0330  -55.5180 N   0  0  0  0  0  0  0  0  0  0  0  0
    5.5440    1.8720  -56.4510 N   0  0  0  0  0  0  0  0  0  0  0  0
    6.5920    1.7800  -57.3400 C   0  0  0  0  0  0  0  0  0  0  0  0
    6.2840    1.8130  -58.5840 N   0  0  0  0  0  0  0  0  0  0  0  0
    7.2700    1.5340  -59.6160 C   0  0  0  0  0  0  0  0  0  0  0  0
    7.1170    2.5920  -60.7120 C   0  0  0  0  0  0  0  0  0  0  0  0
    8.0820    3.7900  -60.5700 C   0  0  0  0  0  0  0  0  0  0  0  0
    7.6730    4.6300  -59.3360 C   0  0  0  0  0  0  0  0  0  0  0  0
    8.5130    5.8810  -59.0880 C   0  0  0  0  0  0  0  0  0  0  0  0
    9.8520    5.6420  -58.3720 C   0  0  0  0  0  0  0  0  0  0  0  0
   10.9890    5.0630  -59.2270 C   0  0  0  0  0  0  0  0  0  0  0  0
   10.5720    4.5480  -60.6010 C   0  0  0  0  0  0  0  0  0  0  0  0
    9.5700    3.3970  -60.6130 C   0  0  0  0  0  0  0  0  0  0  0  0
    7.9260    1.6180  -56.6880 C   0  0  0  0  0  0  0  0  0  0  0  0
    9.1550    2.2910  -57.1800 C   0  0  0  0  0  0  0  0  0  0  0  0
   10.4240    1.3970  -57.3600 C   0  0  0  0  0  0  0  0  0  0  0  0
   11.2550    2.5860  -56.8500 C   0  0  0  0  0  0  0  0  0  0  0  0
    9.9940    3.0400  -56.0950 C   0  0  0  0  0  0  0  0  0  0  0  0
    7.9150    0.7160  -55.6910 C   0  0  0  0  0  0  0  0  0  0  0  0
    9.0230    0.1500  -55.0660 N   0  0  0  0  0  0  0  0  0  0  0  0
    7.6470   -2.2850  -53.1603 H   0  0  0  0  0  0  0  0  0  0  0  0
    5.5346   -1.0513  -53.9182 H   0  0  0  0  0  0  0  0  0  0  0  0
    8.2824    1.5826  -59.1885 H   0  0  0  0  0  0  0  0  0  0  0  0
    7.1153    0.5272  -60.0313 H   0  0  0  0  0  0  0  0  0  0  0  0
    7.3027    2.1119  -61.6841 H   0  0  0  0  0  0  0  0  0  0  0  0
    6.0968    2.9940  -60.6252 H   0  0  0  0  0  0  0  0  0  0  0  0
    7.9802    4.4302  -61.4587 H   0  0  0  0  0  0  0  0  0  0  0  0
    6.6275    4.9444  -59.4708 H   0  0  0  0  0  0  0  0  0  0  0  0
    7.8301    3.9810  -58.4618 H   0  0  0  0  0  0  0  0  0  0  0  0
    8.7266    6.3454  -60.0620 H   0  0  0  0  0  0  0  0  0  0  0  0
    7.9187    6.5182  -58.4167 H   0  0  0  0  0  0  0  0  0  0  0  0
   10.1936    6.6072  -57.9699 H   0  0  0  0  0  0  0  0  0  0  0  0
    9.6429    4.8789  -57.6078 H   0  0  0  0  0  0  0  0  0  0  0  0
   11.7405    5.8528  -59.3735 H   0  0  0  0  0  0  0  0  0  0  0  0
   11.3699    4.1899  -58.6769 H   0  0  0  0  0  0  0  0  0  0  0  0
   10.1250    5.3880  -61.1529 H   0  0  0  0  0  0  0  0  0  0  0  0
   11.4891    4.1449  -61.0553 H   0  0  0  0  0  0  0  0  0  0  0  0
    9.7372    2.8162  -61.5321 H   0  0  0  0  0  0  0  0  0  0  0  0
    9.7535    2.8376  -59.6838 H   0  0  0  0  0  0  0  0  0  0  0  0
    8.6701    2.7988  -58.0268 H   0  0  0  0  0  0  0  0  0  0  0  0
   10.4530    0.5070  -56.7142 H   0  0  0  0  0  0  0  0  0  0  0  0
   10.6507    0.9014  -58.3155 H   0  0  0  0  0  0  0  0  0  0  0  0
   12.1038    2.3122  -56.2061 H   0  0  0  0  0  0  0  0  0  0  0  0
   11.7965    3.2549  -57.5350 H   0  0  0  0  0  0  0  0  0  0  0  0
    9.8968    2.6322  -55.0780 H   0  0  0  0  0  0  0  0  0  0  0  0
    9.8142    4.0982  -55.8542 H   0  0  0  0  0  0  0  0  0  0  0  0
    9.9400    0.3370  -55.4580 H   0  0  0  0  0  0  0  0  0  0  0  0
  1  2  3  0
  2  3  1  0
  3  4  2  0
  4  5  1  0
  5  6  2  0
  6  7  1  0
  7  8  2  0
  8  9  1  0
  9 10  2  0
 10 11  1  0
 11 12  1  0
 12 13  1  0
 13 14  1  0
 14 15  1  0
 15 16  1  0
 16 17  1  0
 17 18  1  0
 18 19  1  0
  9 20  1  0
 20 21  1  0
 21 22  1  0
 22 23  1  0
 23 24  1  0
 20 25  2  0
 25 26  1  0
 26  3  1  0
 25  6  1  0
 19 13  1  0
 24 21  1  0
  4 27  1  0
  5 28  1  0
 11 29  1  0
 11 30  1  0
 12 31  1  0
 12 32  1  0
 13 33  1  0
 14 34  1  0
 14 35  1  0
 15 36  1  0
 15 37  1  0
 16 38  1  0
 16 39  1  0
 17 40  1  0
 17 41  1  0
 18 42  1  0
 18 43  1  0
 19 44  1  0
 19 45  1  0
 21 46  1  0
 22 47  1  0
 22 48  1  0
 23 49  1  0
 23 50  1  0
 24 51  1  0
 24 52  1  0
 26 53  1  0
M  END
>  <meeko>  (280) 
{"is_sidechain": false}

$$$$

     RDKit          3D

 39 42  0  0  0  0  0  0  0  0999 V2000
    4.1870    2.3720  -57.5980 C   0  0  0  0  0  0  0  0  0  0  0  0
    3.9570    2.2990  -59.0020 O   0  0  0  0  0  0  0  0  0  0  0  0
    5.1060    2.4350  -59.7510 C   0  0  0  0  0  0  0  0  0  0  0  0
    5.0310    2.0330  -61.0660 C   0  0  0  0  0  0  0  0  0  0  0  0
    6.1730    2.1630  -61.8450 C   0  0  0  0  0  0  0  0  0  0  0  0
    7.3420    2.6820  -61.3080 C   0  0  0  0  0  0  0  0  0  0  0  0
    8.4230    2.7970  -62.0860 N   0  0  0  0  0  0  0  0  0  0  0  0
    9.5600    3.3170  -61.5770 N   0  0  0  0  0  0  0  0  0  0  0  0
    9.6060    3.7120  -60.2820 C   0  0  0  0  0  0  0  0  0  0  0  0
   10.9030    4.2840  -59.8980 C   0  0  0  0  0  0  0  0  0  0  0  0
   11.9180    3.4670  -59.3740 C   0  0  0  0  0  0  0  0  0  0  0  0
   13.1520    4.0080  -59.0060 C   0  0  0  0  0  0  0  0  0  0  0  0
   13.3920    5.3710  -59.1620 C   0  0  0  0  0  0  0  0  0  0  0  0
   12.4010    6.1950  -59.6930 C   0  0  0  0  0  0  0  0  0  0  0  0
   11.1660    5.6550  -60.0620 C   0  0  0  0  0  0  0  0  0  0  0  0
    8.5190    3.5930  -59.3940 C   0  0  0  0  0  0  0  0  0  0  0  0
    8.6350    4.0220  -57.8510 C   0  0  0  0  0  0  0  0  0  0  0  0
    9.2960    5.3730  -57.4610 C   0  0  0  0  0  0  0  0  0  0  0  0
    9.8210    4.6750  -56.1890 C   0  0  0  0  0  0  0  0  0  0  0  0
    9.6880    3.3360  -56.9390 C   0  0  0  0  0  0  0  0  0  0  0  0
    7.3390    3.0670  -59.9520 C   0  0  0  0  0  0  0  0  0  0  0  0
    6.2270    2.9400  -59.1930 N   0  0  0  0  0  0  0  0  0  0  0  0
    3.2720    2.0816  -57.0610 H   0  0  0  0  0  0  0  0  0  0  0  0
    5.0050    1.6893  -57.3245 H   0  0  0  0  0  0  0  0  0  0  0  0
    4.4616    3.4015  -57.3245 H   0  0  0  0  0  0  0  0  0  0  0  0
    4.0997    1.6235  -61.4843 H   0  0  0  0  0  0  0  0  0  0  0  0
    6.1505    1.8510  -62.8996 H   0  0  0  0  0  0  0  0  0  0  0  0
   11.7391    2.3885  -59.2520 H   0  0  0  0  0  0  0  0  0  0  0  0
   13.9357    3.3564  -58.5922 H   0  0  0  0  0  0  0  0  0  0  0  0
   14.3623    5.7967  -58.8666 H   0  0  0  0  0  0  0  0  0  0  0  0
   12.5911    7.2708  -59.8216 H   0  0  0  0  0  0  0  0  0  0  0  0
   10.3908    6.3104  -60.4857 H   0  0  0  0  0  0  0  0  0  0  0  0
    7.5555    3.8540  -57.7227 H   0  0  0  0  0  0  0  0  0  0  0  0
   10.0799    5.7161  -58.1522 H   0  0  0  0  0  0  0  0  0  0  0  0
    8.7161    6.3064  -57.4102 H   0  0  0  0  0  0  0  0  0  0  0  0
   10.8510    4.9437  -55.9118 H   0  0  0  0  0  0  0  0  0  0  0  0
    9.3490    4.8348  -55.2083 H   0  0  0  0  0  0  0  0  0  0  0  0
   10.6009    3.0097  -57.4588 H   0  0  0  0  0  0  0  0  0  0  0  0
    9.4678    2.3977  -56.4089 H   0  0  0  0  0  0  0  0  0  0  0  0
  1  2  1  0
  2  3  1  0
  3  4  2  0
  4  5  1  0
  5  6  2  0
  6  7  1  0
  7  8  2  0
  8  9  1  0
  9 10  1  0
 10 11  2  0
 11 12  1  0
 12 13  2  0
 13 14  1  0
 14 15  2  0
  9 16  2  0
 16 17  1  0
 17 18  1  0
 18 19  1  0
 19 20  1  0
 16 21  1  0
 21 22  2  0
 22  3  1  0
 21  6  1  0
 15 10  1  0
 20 17  1  0
  1 23  1  0
  1 24  1  0
  1 25  1  0
  4 26  1  0
  5 27  1  0
 11 28  1  0
 12 29  1  0
 13 30  1  0
 14 31  1  0
 15 32  1  0
 17 33  1  0
 18 34  1  0
 18 35  1  0
 19 36  1  0
 19 37  1  0
 20 38  1  0
 20 39  1  0
M  END
>  <meeko>  (281) 
{"is_sidechain": false}

$$$$

     RDKit          3D

 51 54  0  0  0  0  0  0  0  0999 V2000
    9.4400   -3.5620  -54.4580 C   0  0  0  0  0  0  0  0  0  0  0  0
    7.9680   -3.3520  -54.0890 C   0  0  2  0  0  0  0  0  0  0  0  0
    7.4350   -2.0180  -54.6270 C   0  0  0  0  0  0  0  0  0  0  0  0
    7.9120   -0.8540  -53.7960 C   0  0  0  0  0  0  0  0  0  0  0  0
    8.4840    0.2750  -54.2440 C   0  0  0  0  0  0  0  0  0  0  0  0
    8.8430    0.6440  -55.6500 C   0  0  0  0  0  0  0  0  0  0  0  0
    9.2870    2.0240  -55.6480 N   0  0  0  0  0  0  0  0  0  0  0  0
    8.9810    2.8170  -56.6080 C   0  0  0  0  0  0  0  0  0  0  0  0
    9.6100    4.0440  -56.6070 N   0  0  0  0  0  0  0  0  0  0  0  0
   10.1350    4.4220  -57.6830 N   0  0  0  0  0  0  0  0  0  0  0  0
    9.8240    3.8290  -58.8820 C   0  0  0  0  0  0  0  0  0  0  0  0
   10.4970    4.1150  -60.0150 C   0  0  0  0  0  0  0  0  0  0  0  0
   10.0400    3.6130  -61.3000 C   0  0  0  0  0  0  0  0  0  0  0  0
    8.8760    2.9480  -61.3450 C   0  0  0  0  0  0  0  0  0  0  0  0
    8.1290    2.6980  -60.2130 N   0  0  0  0  0  0  0  0  0  0  0  0
    8.6040    2.9940  -58.9370 C   0  0  0  0  0  0  0  0  0  0  0  0
    8.0640    2.6080  -57.7670 C   0  0  0  0  0  0  0  0  0  0  0  0
    6.7480    1.9330  -57.6480 C   0  0  0  0  0  0  0  0  0  0  0  0
    5.6050    2.4360  -58.5880 C   0  0  0  0  0  0  0  0  0  0  0  0
    4.6330    2.2170  -57.4170 C   0  0  0  0  0  0  0  0  0  0  0  0
    5.8350    2.4370  -56.4830 C   0  0  0  0  0  0  0  0  0  0  0  0
    7.6570   -0.9680  -52.4370 O   0  0  0  0  0  0  0  0  0  0  0  0
    8.2560   -2.1460  -51.8760 C   0  0  1  0  0  0  0  0  0  0  0  0
    7.9110   -2.1700  -50.3910 C   0  0  0  0  0  0  0  0  0  0  0  0
    7.7450   -3.4150  -52.5710 C   0  0  0  0  0  0  0  0  0  0  0  0
   10.0396   -3.6475  -53.5398 H   0  0  0  0  0  0  0  0  0  0  0  0
    9.5418   -4.4838  -55.0496 H   0  0  0  0  0  0  0  0  0  0  0  0
    9.7955   -2.7055  -55.0496 H   0  0  0  0  0  0  0  0  0  0  0  0
    7.4111   -4.1747  -54.5613 H   0  0  0  0  0  0  0  0  0  0  0  0
    7.7846   -1.8851  -55.6615 H   0  0  0  0  0  0  0  0  0  0  0  0
    6.3362   -2.0441  -54.5839 H   0  0  0  0  0  0  0  0  0  0  0  0
    8.7199    1.0278  -53.4774 H   0  0  0  0  0  0  0  0  0  0  0  0
    9.6510   -0.0082  -56.0131 H   0  0  0  0  0  0  0  0  0  0  0  0
    7.9735    0.5218  -56.3126 H   0  0  0  0  0  0  0  0  0  0  0  0
   11.4035    4.7362  -59.9660 H   0  0  0  0  0  0  0  0  0  0  0  0
   10.6333    3.7742  -62.2121 H   0  0  0  0  0  0  0  0  0  0  0  0
    8.5050    2.5903  -62.3168 H   0  0  0  0  0  0  0  0  0  0  0  0
    7.3750    2.0280  -60.2980 H   0  0  0  0  0  0  0  0  0  0  0  0
    7.1468    0.9095  -57.7071 H   0  0  0  0  0  0  0  0  0  0  0  0
    5.7047    3.4827  -58.9112 H   0  0  0  0  0  0  0  0  0  0  0  0
    5.4296    1.9856  -59.5761 H   0  0  0  0  0  0  0  0  0  0  0  0
    3.8382    2.9726  -57.3306 H   0  0  0  0  0  0  0  0  0  0  0  0
    3.9970    1.3222  -57.3472 H   0  0  0  0  0  0  0  0  0  0  0  0
    6.0021    3.4839  -56.1897 H   0  0  0  0  0  0  0  0  0  0  0  0
    5.8772    1.9876  -55.4799 H   0  0  0  0  0  0  0  0  0  0  0  0
    9.3461   -2.1212  -52.0214 H   0  0  0  0  0  0  0  0  0  0  0  0
    8.8357   -2.1057  -49.7987 H   0  0  0  0  0  0  0  0  0  0  0  0
    7.2619   -1.3148  -50.1515 H   0  0  0  0  0  0  0  0  0  0  0  0
    7.3866   -3.1068  -50.1515 H   0  0  0  0  0  0  0  0  0  0  0  0
    8.2822   -4.2855  -52.1663 H   0  0  0  0  0  0  0  0  0  0  0  0
    6.6645   -3.5007  -52.3835 H   0  0  0  0  0  0  0  0  0  0  0  0
  1  2  1  0
  2  3  1  0
  3  4  1  0
  4  5  2  0
  5  6  1  0
  6  7  1  0
  7  8  2  0
  8  9  1  0
  9 10  2  0
 10 11  1  0
 11 12  2  0
 12 13  1  0
 13 14  2  0
 14 15  1  0
 15 16  1  0
 16 17  2  0
 17 18  1  0
 18 19  1  0
 19 20  1  0
 20 21  1  0
  4 22  1  0
 22 23  1  0
 23 24  1  0
 23 25  1  0
 25  2  1  0
 17  8  1  0
 21 18  1  0
 16 11  1  0
  1 26  1  0
  1 27  1  0
  1 28  1  0
  2 29  1  6
  3 30  1  0
  3 31  1  0
  5 32  1  0
  6 33  1  0
  6 34  1  0
 12 35  1  0
 13 36  1  0
 14 37  1  0
 15 38  1  0
 18 39  1  0
 19 40  1  0
 19 41  1  0
 20 42  1  0
 20 43  1  0
 21 44  1  0
 21 45  1  0
 23 46  1  1
 24 47  1  0
 24 48  1  0
 24 49  1  0
 25 50  1  0
 25 51  1  0
M  END
>  <meeko>  (282) 
{"is_sidechain": false}

$$$$

     RDKit          3D

 51 54  0  0  0  0  0  0  0  0999 V2000
   10.6110   -4.4140  -55.3750 C   0  0  0  0  0  0  0  0  0  0  0  0
   10.2160   -3.3700  -54.3340 C   0  0  1  0  0  0  0  0  0  0  0  0
   10.0080   -1.9950  -54.9790 C   0  0  0  0  0  0  0  0  0  0  0  0
    9.2680   -1.0450  -54.0720 C   0  0  0  0  0  0  0  0  0  0  0  0
    8.7640    0.1370  -54.4600 C   0  0  0  0  0  0  0  0  0  0  0  0
    8.8380    0.7470  -55.8260 C   0  0  0  0  0  0  0  0  0  0  0  0
    9.2200    2.1360  -55.6690 N   0  0  0  0  0  0  0  0  0  0  0  0
    8.9760    2.9940  -56.5890 C   0  0  0  0  0  0  0  0  0  0  0  0
    9.5470    4.2380  -56.4270 N   0  0  0  0  0  0  0  0  0  0  0  0
   10.1580    4.7240  -57.4110 N   0  0  0  0  0  0  0  0  0  0  0  0
    9.9900    4.2230  -58.6800 C   0  0  0  0  0  0  0  0  0  0  0  0
   10.7570    4.6290  -59.7130 C   0  0  0  0  0  0  0  0  0  0  0  0
   10.4490    4.2180  -61.0720 C   0  0  0  0  0  0  0  0  0  0  0  0
    9.3250    3.5180  -61.2870 C   0  0  0  0  0  0  0  0  0  0  0  0
    8.4840    3.1500  -60.2600 N   0  0  0  0  0  0  0  0  0  0  0  0
    8.8190    3.3540  -58.9230 C   0  0  0  0  0  0  0  0  0  0  0  0
    8.1850    2.8510  -57.8480 C   0  0  0  0  0  0  0  0  0  0  0  0
    6.8950    2.1210  -57.9170 C   0  0  0  0  0  0  0  0  0  0  0  0
    5.8970    2.4090  -56.7490 C   0  0  0  0  0  0  0  0  0  0  0  0
    4.7600    2.2970  -57.7790 C   0  0  0  0  0  0  0  0  0  0  0  0
    5.7890    2.7270  -58.8390 C   0  0  0  0  0  0  0  0  0  0  0  0
    9.1330   -1.4100  -52.7460 O   0  0  0  0  0  0  0  0  0  0  0  0
    8.6250   -2.7340  -52.5070 C   0  0  1  0  0  0  0  0  0  0  0  0
    7.1330   -2.6510  -52.2060 C   0  0  0  0  0  0  0  0  0  0  0  0
    8.9310   -3.7560  -53.6100 C   0  0  0  0  0  0  0  0  0  0  0  0
   10.9562   -5.3264  -54.8666 H   0  0  0  0  0  0  0  0  0  0  0  0
    9.7407   -4.6518  -56.0043 H   0  0  0  0  0  0  0  0  0  0  0  0
   11.4208   -4.0162  -56.0043 H   0  0  0  0  0  0  0  0  0  0  0  0
   11.0442   -3.3237  -53.6115 H   0  0  0  0  0  0  0  0  0  0  0  0
   10.9913   -1.5633  -55.2172 H   0  0  0  0  0  0  0  0  0  0  0  0
    9.4017   -2.1363  -55.8859 H   0  0  0  0  0  0  0  0  0  0  0  0
    8.2390    0.7218  -53.6904 H   0  0  0  0  0  0  0  0  0  0  0  0
    9.5885    0.2184  -56.4320 H   0  0  0  0  0  0  0  0  0  0  0  0
    7.8659    0.6703  -56.3350 H   0  0  0  0  0  0  0  0  0  0  0  0
   11.6248    5.2781  -59.5243 H   0  0  0  0  0  0  0  0  0  0  0  0
   11.1210    4.4745  -61.9043 H   0  0  0  0  0  0  0  0  0  0  0  0
    9.0667    3.2286  -62.3163 H   0  0  0  0  0  0  0  0  0  0  0  0
    7.7730    2.4600  -60.4730 H   0  0  0  0  0  0  0  0  0  0  0  0
    7.3383    1.1322  -58.1062 H   0  0  0  0  0  0  0  0  0  0  0  0
    5.8793    1.6413  -55.9614 H   0  0  0  0  0  0  0  0  0  0  0  0
    6.0049    3.2915  -56.1013 H   0  0  0  0  0  0  0  0  0  0  0  0
    4.3574    1.2821  -57.9125 H   0  0  0  0  0  0  0  0  0  0  0  0
    3.8018    2.8215  -57.6496 H   0  0  0  0  0  0  0  0  0  0  0  0
    5.6798    2.2274  -59.8129 H   0  0  0  0  0  0  0  0  0  0  0  0
    5.8445    3.7636  -59.2029 H   0  0  0  0  0  0  0  0  0  0  0  0
    9.1663   -3.1266  -51.6336 H   0  0  0  0  0  0  0  0  0  0  0  0
    6.9786   -2.6424  -51.1169 H   0  0  0  0  0  0  0  0  0  0  0  0
    6.7218   -1.7286  -52.6419 H   0  0  0  0  0  0  0  0  0  0  0  0
    6.6220   -3.5221  -52.6419 H   0  0  0  0  0  0  0  0  0  0  0  0
    9.0511   -4.7527  -53.1604 H   0  0  0  0  0  0  0  0  0  0  0  0
    8.1000   -3.7704  -54.3306 H   0  0  0  0  0  0  0  0  0  0  0  0
  1  2  1  0
  2  3  1  0
  3  4  1  0
  4  5  2  0
  5  6  1  0
  6  7  1  0
  7  8  2  0
  8  9  1  0
  9 10  2  0
 10 11  1  0
 11 12  2  0
 12 13  1  0
 13 14  2  0
 14 15  1  0
 15 16  1  0
 16 17  2  0
 17 18  1  0
 18 19  1  0
 19 20  1  0
 20 21  1  0
  4 22  1  0
 22 23  1  0
 23 24  1  0
 23 25  1  0
 25  2  1  0
 17  8  1  0
 21 18  1  0
 16 11  1  0
  1 26  1  0
  1 27  1  0
  1 28  1  0
  2 29  1  1
  3 30  1  0
  3 31  1  0
  5 32  1  0
  6 33  1  0
  6 34  1  0
 12 35  1  0
 13 36  1  0
 14 37  1  0
 15 38  1  0
 18 39  1  0
 19 40  1  0
 19 41  1  0
 20 42  1  0
 20 43  1  0
 21 44  1  0
 21 45  1  0
 23 46  1  1
 24 47  1  0
 24 48  1  0
 24 49  1  0
 25 50  1  0
 25 51  1  0
M  END
>  <meeko>  (283) 
{"is_sidechain": false}

$$$$

     RDKit          3D

 51 54  0  0  0  0  0  0  0  0999 V2000
    7.8370   -2.5260  -50.4920 C   0  0  0  0  0  0  0  0  0  0  0  0
    8.5950   -2.0530  -51.7300 C   0  0  2  0  0  0  0  0  0  0  0  0
    7.7050   -1.1860  -52.6230 C   0  0  0  0  0  0  0  0  0  0  0  0
    8.4010   -0.8600  -53.9170 C   0  0  0  0  0  0  0  0  0  0  0  0
    8.4720    0.3860  -54.4110 C   0  0  0  0  0  0  0  0  0  0  0  0
    9.1210    0.7680  -55.7020 C   0  0  0  0  0  0  0  0  0  0  0  0
    9.3630    2.2000  -55.7170 N   0  0  0  0  0  0  0  0  0  0  0  0
    8.9650    2.9480  -56.6770 C   0  0  0  0  0  0  0  0  0  0  0  0
    9.4750    4.2300  -56.6950 N   0  0  0  0  0  0  0  0  0  0  0  0
   10.0020    4.6130  -57.7720 N   0  0  0  0  0  0  0  0  0  0  0  0
    9.7590    3.9600  -58.9580 C   0  0  0  0  0  0  0  0  0  0  0  0
   10.4300    4.2600  -60.0890 C   0  0  0  0  0  0  0  0  0  0  0  0
   10.0270    3.6910  -61.3640 C   0  0  0  0  0  0  0  0  0  0  0  0
    8.9040    2.9550  -61.4080 C   0  0  0  0  0  0  0  0  0  0  0  0
    8.1560    2.6940  -60.2800 N   0  0  0  0  0  0  0  0  0  0  0  0
    8.5970    3.0460  -59.0080 C   0  0  0  0  0  0  0  0  0  0  0  0
    8.0690    2.6560  -57.8330 C   0  0  0  0  0  0  0  0  0  0  0  0
    6.7780    1.9400  -57.6970 C   0  0  0  0  0  0  0  0  0  0  0  0
    5.5980    2.4190  -58.6010 C   0  0  0  0  0  0  0  0  0  0  0  0
    4.6650    2.1540  -57.4070 C   0  0  0  0  0  0  0  0  0  0  0  0
    5.8840    2.4140  -56.5060 C   0  0  0  0  0  0  0  0  0  0  0  0
    8.9210   -1.9270  -54.6250 O   0  0  0  0  0  0  0  0  0  0  0  0
    9.7720   -2.7890  -53.8520 C   0  0  1  0  0  0  0  0  0  0  0  0
   11.1450   -2.1450  -53.6560 C   0  0  0  0  0  0  0  0  0  0  0  0
    9.1170   -3.2430  -52.5430 C   0  0  0  0  0  0  0  0  0  0  0  0
    8.3684   -2.1944  -49.5878 H   0  0  0  0  0  0  0  0  0  0  0  0
    6.8228   -2.1002  -50.4981 H   0  0  0  0  0  0  0  0  0  0  0  0
    7.7737   -3.6242  -50.4981 H   0  0  0  0  0  0  0  0  0  0  0  0
    9.4475   -1.4526  -51.3797 H   0  0  0  0  0  0  0  0  0  0  0  0
    6.7743   -1.7301  -52.8414 H   0  0  0  0  0  0  0  0  0  0  0  0
    7.4848   -0.2465  -52.0950 H   0  0  0  0  0  0  0  0  0  0  0  0
    8.0153    1.1916  -53.8173 H   0  0  0  0  0  0  0  0  0  0  0  0
   10.0770    0.2335  -55.8041 H   0  0  0  0  0  0  0  0  0  0  0  0
    8.4594    0.4991  -56.5387 H   0  0  0  0  0  0  0  0  0  0  0  0
   11.2915    4.9427  -60.0458 H   0  0  0  0  0  0  0  0  0  0  0  0
   10.6267    3.8588  -62.2707 H   0  0  0  0  0  0  0  0  0  0  0  0
    8.5711    2.5480  -62.3742 H   0  0  0  0  0  0  0  0  0  0  0  0
    7.4490    1.9710  -60.3520 H   0  0  0  0  0  0  0  0  0  0  0  0
    7.2009    0.9281  -57.7817 H   0  0  0  0  0  0  0  0  0  0  0  0
    5.6569    3.4724  -58.9123 H   0  0  0  0  0  0  0  0  0  0  0  0
    5.4110    1.9771  -59.5908 H   0  0  0  0  0  0  0  0  0  0  0  0
    3.8445    2.8778  -57.2932 H   0  0  0  0  0  0  0  0  0  0  0  0
    4.0647    1.2357  -57.3272 H   0  0  0  0  0  0  0  0  0  0  0  0
    6.0248    3.4659  -56.2167 H   0  0  0  0  0  0  0  0  0  0  0  0
    5.9694    1.9673  -55.5044 H   0  0  0  0  0  0  0  0  0  0  0  0
    9.9279   -3.7173  -54.4212 H   0  0  0  0  0  0  0  0  0  0  0  0
   11.3539   -2.0470  -52.5805 H   0  0  0  0  0  0  0  0  0  0  0  0
   11.9158   -2.7755  -54.1233 H   0  0  0  0  0  0  0  0  0  0  0  0
   11.1530   -1.1492  -54.1233 H   0  0  0  0  0  0  0  0  0  0  0  0
    8.2754   -3.9112  -52.7781 H   0  0  0  0  0  0  0  0  0  0  0  0
    9.8764   -3.7638  -51.9412 H   0  0  0  0  0  0  0  0  0  0  0  0
  1  2  1  0
  2  3  1  0
  3  4  1  0
  4  5  2  0
  5  6  1  0
  6  7  1  0
  7  8  2  0
  8  9  1  0
  9 10  2  0
 10 11  1  0
 11 12  2  0
 12 13  1  0
 13 14  2  0
 14 15  1  0
 15 16  1  0
 16 17  2  0
 17 18  1  0
 18 19  1  0
 19 20  1  0
 20 21  1  0
  4 22  1  0
 22 23  1  0
 23 24  1  0
 23 25  1  0
 25  2  1  0
 17  8  1  0
 21 18  1  0
 16 11  1  0
  1 26  1  0
  1 27  1  0
  1 28  1  0
  2 29  1  1
  3 30  1  0
  3 31  1  0
  5 32  1  0
  6 33  1  0
  6 34  1  0
 12 35  1  0
 13 36  1  0
 14 37  1  0
 15 38  1  0
 18 39  1  0
 19 40  1  0
 19 41  1  0
 20 42  1  0
 20 43  1  0
 21 44  1  0
 21 45  1  0
 23 46  1  6
 24 47  1  0
 24 48  1  0
 24 49  1  0
 25 50  1  0
 25 51  1  0
M  END
>  <meeko>  (284) 
{"is_sidechain": false}

$$$$

     RDKit          3D

 51 54  0  0  0  0  0  0  0  0999 V2000
    7.5410   -2.9610  -50.0820 C   0  0  0  0  0  0  0  0  0  0  0  0
    7.7480   -2.7030  -51.5720 C   0  0  1  0  0  0  0  0  0  0  0  0
    7.7910   -1.2070  -51.8810 C   0  0  0  0  0  0  0  0  0  0  0  0
    7.9720   -0.9910  -53.3600 C   0  0  0  0  0  0  0  0  0  0  0  0
    7.4920    0.0980  -53.9830 C   0  0  0  0  0  0  0  0  0  0  0  0
    7.6150    0.3840  -55.4480 C   0  0  0  0  0  0  0  0  0  0  0  0
    6.3590    0.9660  -55.8900 N   0  0  0  0  0  0  0  0  0  0  0  0
    6.3520    1.9110  -56.7570 C   0  0  0  0  0  0  0  0  0  0  0  0
    5.1190    2.2640  -57.2600 N   0  0  0  0  0  0  0  0  0  0  0  0
    5.0110    2.3520  -58.5090 N   0  0  0  0  0  0  0  0  0  0  0  0
    6.1160    2.4290  -59.3220 C   0  0  0  0  0  0  0  0  0  0  0  0
    6.0180    2.3600  -60.6650 C   0  0  0  0  0  0  0  0  0  0  0  0
    7.1720    2.6180  -61.5080 C   0  0  0  0  0  0  0  0  0  0  0  0
    8.3080    3.0320  -60.9260 C   0  0  0  0  0  0  0  0  0  0  0  0
    8.4170    3.1800  -59.5590 N   0  0  0  0  0  0  0  0  0  0  0  0
    7.4080    2.7750  -58.6890 C   0  0  0  0  0  0  0  0  0  0  0  0
    7.4890    2.6750  -57.3500 C   0  0  0  0  0  0  0  0  0  0  0  0
    8.6430    3.1590  -56.5520 C   0  0  0  0  0  0  0  0  0  0  0  0
   10.0690    2.7690  -57.0550 C   0  0  0  0  0  0  0  0  0  0  0  0
   10.5360    4.1690  -56.6220 C   0  0  0  0  0  0  0  0  0  0  0  0
    9.0850    4.6310  -56.8440 C   0  0  0  0  0  0  0  0  0  0  0  0
    8.5820   -1.9950  -54.0900 O   0  0  0  0  0  0  0  0  0  0  0  0
    9.5610   -2.7650  -53.3820 C   0  0  1  0  0  0  0  0  0  0  0  0
   10.8440   -1.9550  -53.1870 C   0  0  0  0  0  0  0  0  0  0  0  0
    9.0280   -3.3780  -52.0770 C   0  0  0  0  0  0  0  0  0  0  0  0
    8.1249   -2.2333  -49.4993 H   0  0  0  0  0  0  0  0  0  0  0  0
    6.4739   -2.8558  -49.8364 H   0  0  0  0  0  0  0  0  0  0  0  0
    7.8750   -3.9799  -49.8364 H   0  0  0  0  0  0  0  0  0  0  0  0
    6.8867   -3.1404  -52.0982 H   0  0  0  0  0  0  0  0  0  0  0  0
    6.8485   -0.7411  -51.5576 H   0  0  0  0  0  0  0  0  0  0  0  0
    8.6361   -0.7518  -51.3438 H   0  0  0  0  0  0  0  0  0  0  0  0
    6.9651    0.8410  -53.3663 H   0  0  0  0  0  0  0  0  0  0  0  0
    8.4386    1.0916  -55.6240 H   0  0  0  0  0  0  0  0  0  0  0  0
    7.8293   -0.5401  -56.0049 H   0  0  0  0  0  0  0  0  0  0  0  0
    5.0529    2.1054  -61.1274 H   0  0  0  0  0  0  0  0  0  0  0  0
    7.1162    2.4774  -62.5976 H   0  0  0  0  0  0  0  0  0  0  0  0
    9.1787    3.2603  -61.5583 H   0  0  0  0  0  0  0  0  0  0  0  0
    9.3500    3.2960  -59.1830 H   0  0  0  0  0  0  0  0  0  0  0  0
    8.2547    2.8200  -55.5803 H   0  0  0  0  0  0  0  0  0  0  0  0
   10.5377    1.9394  -56.5054 H   0  0  0  0  0  0  0  0  0  0  0  0
   10.2386    2.3938  -58.0750 H   0  0  0  0  0  0  0  0  0  0  0  0
   10.8872    4.2365  -55.5818 H   0  0  0  0  0  0  0  0  0  0  0  0
   11.3886    4.6735  -57.1000 H   0  0  0  0  0  0  0  0  0  0  0  0
    8.7230    5.3716  -56.1157 H   0  0  0  0  0  0  0  0  0  0  0  0
    8.7790    5.1555  -57.7612 H   0  0  0  0  0  0  0  0  0  0  0  0
    9.8099   -3.6338  -54.0091 H   0  0  0  0  0  0  0  0  0  0  0  0
   11.0397   -1.8314  -52.1116 H   0  0  0  0  0  0  0  0  0  0  0  0
   11.6869   -2.4850  -53.6546 H   0  0  0  0  0  0  0  0  0  0  0  0
   10.7279   -0.9661  -53.6546 H   0  0  0  0  0  0  0  0  0  0  0  0
    8.8160   -4.4431  -52.2520 H   0  0  0  0  0  0  0  0  0  0  0  0
    9.8004   -3.2316  -51.3076 H   0  0  0  0  0  0  0  0  0  0  0  0
  1  2  1  0
  2  3  1  0
  3  4  1  0
  4  5  2  0
  5  6  1  0
  6  7  1  0
  7  8  2  0
  8  9  1  0
  9 10  2  0
 10 11  1  0
 11 12  2  0
 12 13  1  0
 13 14  2  0
 14 15  1  0
 15 16  1  0
 16 17  2  0
 17 18  1  0
 18 19  1  0
 19 20  1  0
 20 21  1  0
  4 22  1  0
 22 23  1  0
 23 24  1  0
 23 25  1  0
 25  2  1  0
 17  8  1  0
 21 18  1  0
 16 11  1  0
  1 26  1  0
  1 27  1  0
  1 28  1  0
  2 29  1  6
  3 30  1  0
  3 31  1  0
  5 32  1  0
  6 33  1  0
  6 34  1  0
 12 35  1  0
 13 36  1  0
 14 37  1  0
 15 38  1  0
 18 39  1  0
 19 40  1  0
 19 41  1  0
 20 42  1  0
 20 43  1  0
 21 44  1  0
 21 45  1  0
 23 46  1  6
 24 47  1  0
 24 48  1  0
 24 49  1  0
 25 50  1  0
 25 51  1  0
M  END
>  <meeko>  (285) 
{"is_sidechain": false}

$$$$

     RDKit          3D

 51 54  0  0  0  0  0  0  0  0999 V2000
   11.2100    1.9990  -57.6310 C   0  0  0  0  0  0  0  0  0  0  0  0
   11.5930    3.2650  -56.8590 C   0  0  2  0  0  0  0  0  0  0  0  0
   10.3600    4.0990  -56.4940 C   0  0  0  0  0  0  0  0  0  0  0  0
    9.8410    4.8690  -57.6830 C   0  0  0  0  0  0  0  0  0  0  0  0
    8.5720    4.8840  -58.1180 C   0  0  0  0  0  0  0  0  0  0  0  0
    7.4140    4.1460  -57.5210 C   0  0  0  0  0  0  0  0  0  0  0  0
    7.3480    2.8530  -58.1860 N   0  0  0  0  0  0  0  0  0  0  0  0
    6.1850    2.6350  -58.9520 C   0  0  0  0  0  0  0  0  0  0  0  0
    4.9880    2.5740  -58.3270 N   0  0  0  0  0  0  0  0  0  0  0  0
    3.8500    2.3270  -59.0170 N   0  0  0  0  0  0  0  0  0  0  0  0
    3.9130    2.1030  -60.3300 C   0  0  0  0  0  0  0  0  0  0  0  0
    2.7500    1.8140  -61.0300 C   0  0  0  0  0  0  0  0  0  0  0  0
    2.7830    1.5570  -62.3940 C   0  0  0  0  0  0  0  0  0  0  0  0
    4.0090    1.5970  -63.0170 C   0  0  0  0  0  0  0  0  0  0  0  0
    5.1600    1.8780  -62.3690 N   0  0  0  0  0  0  0  0  0  0  0  0
    5.1270    2.1390  -61.0400 C   0  0  0  0  0  0  0  0  0  0  0  0
    6.3130    2.4380  -60.3440 C   0  0  0  0  0  0  0  0  0  0  0  0
    7.7440    2.4590  -61.0860 C   0  0  0  0  0  0  0  0  0  0  0  0
    8.9550    1.6970  -60.4560 C   0  0  0  0  0  0  0  0  0  0  0  0
    9.8690    2.7680  -61.0760 C   0  0  0  0  0  0  0  0  0  0  0  0
    8.6650    3.7200  -60.9940 C   0  0  0  0  0  0  0  0  0  0  0  0
   10.7810    5.6520  -58.3380 O   0  0  0  0  0  0  0  0  0  0  0  0
   11.8940    4.8690  -58.8010 C   0  0  1  0  0  0  0  0  0  0  0  0
   12.8640    5.8220  -59.4910 C   0  0  0  0  0  0  0  0  0  0  0  0
   12.5850    4.1370  -57.6430 C   0  0  0  0  0  0  0  0  0  0  0  0
   10.9669    1.1955  -56.9201 H   0  0  0  0  0  0  0  0  0  0  0  0
   10.3343    2.2062  -58.2637 H   0  0  0  0  0  0  0  0  0  0  0  0
   12.0537    1.6860  -58.2637 H   0  0  0  0  0  0  0  0  0  0  0  0
   12.0803    2.9249  -55.9333 H   0  0  0  0  0  0  0  0  0  0  0  0
    9.5688    3.4268  -56.1305 H   0  0  0  0  0  0  0  0  0  0  0  0
   10.6496    4.8203  -55.7156 H   0  0  0  0  0  0  0  0  0  0  0  0
    8.3607    5.5014  -59.0035 H   0  0  0  0  0  0  0  0  0  0  0  0
    7.5697    4.0082  -56.4408 H   0  0  0  0  0  0  0  0  0  0  0  0
    6.4775    4.7068  -57.6571 H   0  0  0  0  0  0  0  0  0  0  0  0
    8.1630    2.7020  -58.7670 H   0  0  0  0  0  0  0  0  0  0  0  0
    1.7884    1.7882  -60.4965 H   0  0  0  0  0  0  0  0  0  0  0  0
    1.8644    1.3302  -62.9549 H   0  0  0  0  0  0  0  0  0  0  0  0
    4.0539    1.3898  -64.0964 H   0  0  0  0  0  0  0  0  0  0  0  0
    7.2602    2.1481  -62.0237 H   0  0  0  0  0  0  0  0  0  0  0  0
    8.9588    1.6720  -59.3563 H   0  0  0  0  0  0  0  0  0  0  0  0
    9.1186    0.6241  -60.6351 H   0  0  0  0  0  0  0  0  0  0  0  0
   10.7290    3.0570  -60.4539 H   0  0  0  0  0  0  0  0  0  0  0  0
   10.4162    2.5972  -62.0148 H   0  0  0  0  0  0  0  0  0  0  0  0
    8.5853    4.2777  -60.0492 H   0  0  0  0  0  0  0  0  0  0  0  0
    8.5522    4.5690  -61.6842 H   0  0  0  0  0  0  0  0  0  0  0  0
   11.5448    4.0942  -59.4994 H   0  0  0  0  0  0  0  0  0  0  0  0
   13.4320    6.3800  -58.7321 H   0  0  0  0  0  0  0  0  0  0  0  0
   13.5593    5.2460  -60.1193 H   0  0  0  0  0  0  0  0  0  0  0  0
   12.3004    6.5274  -60.1193 H   0  0  0  0  0  0  0  0  0  0  0  0
   13.3813    3.4960  -58.0493 H   0  0  0  0  0  0  0  0  0  0  0  0
   13.0011    4.8896  -56.9571 H   0  0  0  0  0  0  0  0  0  0  0  0
  1  2  1  0
  2  3  1  0
  3  4  1  0
  4  5  2  0
  5  6  1  0
  6  7  1  0
  7  8  1  0
  8  9  1  0
  9 10  2  0
 10 11  1  0
 11 12  2  0
 12 13  1  0
 13 14  2  0
 14 15  1  0
 15 16  2  0
 16 17  1  0
 17 18  1  0
 18 19  1  0
 19 20  1  0
 20 21  1  0
  4 22  1  0
 22 23  1  0
 23 24  1  0
 23 25  1  0
 25  2  1  0
 17  8  2  0
 21 18  1  0
 16 11  1  0
  1 26  1  0
  1 27  1  0
  1 28  1  0
  2 29  1  1
  3 30  1  0
  3 31  1  0
  5 32  1  0
  6 33  1  0
  6 34  1  0
  7 35  1  0
 12 36  1  0
 13 37  1  0
 14 38  1  0
 18 39  1  0
 19 40  1  0
 19 41  1  0
 20 42  1  0
 20 43  1  0
 21 44  1  0
 21 45  1  0
 23 46  1  6
 24 47  1  0
 24 48  1  0
 24 49  1  0
 25 50  1  0
 25 51  1  0
M  END
>  <meeko>  (286) 
{"is_sidechain": false}

$$$$

     RDKit          3D

 51 54  0  0  0  0  0  0  0  0999 V2000
    7.8400    5.7470  -59.0240 C   0  0  0  0  0  0  0  0  0  0  0  0
    9.0470    5.3620  -58.1730 C   0  0  1  0  0  0  0  0  0  0  0  0
    8.7290    4.1660  -57.2690 C   0  0  0  0  0  0  0  0  0  0  0  0
    9.9710    3.5100  -56.7190 C   0  0  0  0  0  0  0  0  0  0  0  0
    9.9820    2.3210  -56.0970 C   0  0  0  0  0  0  0  0  0  0  0  0
    8.7970    1.4480  -55.8180 C   0  0  0  0  0  0  0  0  0  0  0  0
    9.3110    0.1200  -55.5230 N   0  0  0  0  0  0  0  0  0  0  0  0
    8.8360   -0.4430  -54.3170 C   0  0  0  0  0  0  0  0  0  0  0  0
    7.6600   -0.0200  -53.8040 N   0  0  0  0  0  0  0  0  0  0  0  0
    7.1790   -0.5360  -52.6510 N   0  0  0  0  0  0  0  0  0  0  0  0
    7.8710   -1.4820  -52.0150 C   0  0  0  0  0  0  0  0  0  0  0  0
    7.3750   -1.9970  -50.8240 C   0  0  0  0  0  0  0  0  0  0  0  0
    8.0660   -2.9780  -50.1270 C   0  0  0  0  0  0  0  0  0  0  0  0
    9.2560   -3.4150  -50.6630 C   0  0  0  0  0  0  0  0  0  0  0  0
    9.7670   -2.9380  -51.8170 N   0  0  0  0  0  0  0  0  0  0  0  0
    9.0930   -1.9840  -52.5010 C   0  0  0  0  0  0  0  0  0  0  0  0
    9.5990   -1.4670  -53.7070 C   0  0  0  0  0  0  0  0  0  0  0  0
   10.9700   -1.9660  -54.4100 C   0  0  0  0  0  0  0  0  0  0  0  0
   11.2140   -3.5050  -54.4470 C   0  0  0  0  0  0  0  0  0  0  0  0
   10.8340   -3.4790  -55.9380 C   0  0  0  0  0  0  0  0  0  0  0  0
   11.2040   -1.9850  -55.9440 C   0  0  0  0  0  0  0  0  0  0  0  0
   11.1650    4.1940  -56.8420 O   0  0  0  0  0  0  0  0  0  0  0  0
   11.4670    4.7290  -58.1410 C   0  0  1  0  0  0  0  0  0  0  0  0
   12.4810    3.8210  -58.8270 C   0  0  0  0  0  0  0  0  0  0  0  0
   10.2500    4.9990  -59.0360 C   0  0  0  0  0  0  0  0  0  0  0  0
    6.9991    6.0152  -58.3675 H   0  0  0  0  0  0  0  0  0  0  0  0
    8.0984    6.6073  -59.6589 H   0  0  0  0  0  0  0  0  0  0  0  0
    7.5525    4.8960  -59.6589 H   0  0  0  0  0  0  0  0  0  0  0  0
    9.2874    6.2427  -57.5594 H   0  0  0  0  0  0  0  0  0  0  0  0
    8.1121    4.5143  -56.4275 H   0  0  0  0  0  0  0  0  0  0  0  0
    8.1987    3.4190  -57.8779 H   0  0  0  0  0  0  0  0  0  0  0  0
   10.9603    1.9498  -55.7576 H   0  0  0  0  0  0  0  0  0  0  0  0
    8.2356    1.8365  -54.9555 H   0  0  0  0  0  0  0  0  0  0  0  0
    8.1143    1.4235  -56.6801 H   0  0  0  0  0  0  0  0  0  0  0  0
   10.3270    0.1030  -55.5220 H   0  0  0  0  0  0  0  0  0  0  0  0
    6.4201   -1.6215  -50.4274 H   0  0  0  0  0  0  0  0  0  0  0  0
    7.6781   -3.3900  -49.1837 H   0  0  0  0  0  0  0  0  0  0  0  0
    9.8183   -4.1916  -50.1238 H   0  0  0  0  0  0  0  0  0  0  0  0
   11.5347   -1.2418  -53.8045 H   0  0  0  0  0  0  0  0  0  0  0  0
   12.2524   -3.8073  -54.2460 H   0  0  0  0  0  0  0  0  0  0  0  0
   10.7125   -4.1818  -53.7396 H   0  0  0  0  0  0  0  0  0  0  0  0
   11.4646   -4.1094  -56.5822 H   0  0  0  0  0  0  0  0  0  0  0  0
    9.8528   -3.8312  -56.2890 H   0  0  0  0  0  0  0  0  0  0  0  0
   12.2394   -1.7735  -56.2493 H   0  0  0  0  0  0  0  0  0  0  0  0
   10.6927   -1.2729  -56.6084 H   0  0  0  0  0  0  0  0  0  0  0  0
   11.8939    5.7295  -57.9777 H   0  0  0  0  0  0  0  0  0  0  0  0
   13.0726    3.2912  -58.0659 H   0  0  0  0  0  0  0  0  0  0  0  0
   11.9519    3.0892  -59.4551 H   0  0  0  0  0  0  0  0  0  0  0  0
   13.1502    4.4274  -59.4551 H   0  0  0  0  0  0  0  0  0  0  0  0
   10.4754    5.8322  -59.7179 H   0  0  0  0  0  0  0  0  0  0  0  0
   10.0198    4.0955  -59.6196 H   0  0  0  0  0  0  0  0  0  0  0  0
  1  2  1  0
  2  3  1  0
  3  4  1  0
  4  5  2  0
  5  6  1  0
  6  7  1  0
  7  8  1  0
  8  9  1  0
  9 10  2  0
 10 11  1  0
 11 12  2  0
 12 13  1  0
 13 14  2  0
 14 15  1  0
 15 16  2  0
 16 17  1  0
 17 18  1  0
 18 19  1  0
 19 20  1  0
 20 21  1  0
  4 22  1  0
 22 23  1  0
 23 24  1  0
 23 25  1  0
 25  2  1  0
 17  8  2  0
 21 18  1  0
 16 11  1  0
  1 26  1  0
  1 27  1  0
  1 28  1  0
  2 29  1  1
  3 30  1  0
  3 31  1  0
  5 32  1  0
  6 33  1  0
  6 34  1  0
  7 35  1  0
 12 36  1  0
 13 37  1  0
 14 38  1  0
 18 39  1  0
 19 40  1  0
 19 41  1  0
 20 42  1  0
 20 43  1  0
 21 44  1  0
 21 45  1  0
 23 46  1  1
 24 47  1  0
 24 48  1  0
 24 49  1  0
 25 50  1  0
 25 51  1  0
M  END
>  <meeko>  (287) 
{"is_sidechain": false}

$$$$

     RDKit          3D

 51 54  0  0  0  0  0  0  0  0999 V2000
    8.6780    5.2750  -56.5160 C   0  0  0  0  0  0  0  0  0  0  0  0
   10.0850    4.7960  -56.8780 C   0  0  2  0  0  0  0  0  0  0  0  0
   10.5100    5.2900  -58.2680 C   0  0  0  0  0  0  0  0  0  0  0  0
   10.4370    4.2070  -59.3100 C   0  0  0  0  0  0  0  0  0  0  0  0
    9.7810    4.3750  -60.4700 C   0  0  0  0  0  0  0  0  0  0  0  0
    9.6680    3.3600  -61.5660 C   0  0  0  0  0  0  0  0  0  0  0  0
    8.8350    2.2570  -61.0970 N   0  0  0  0  0  0  0  0  0  0  0  0
    7.4760    2.2690  -61.4720 C   0  0  0  0  0  0  0  0  0  0  0  0
    7.1540    2.3100  -62.7850 N   0  0  0  0  0  0  0  0  0  0  0  0
    5.8640    2.2790  -63.1940 N   0  0  0  0  0  0  0  0  0  0  0  0
    4.8910    2.1690  -62.2890 C   0  0  0  0  0  0  0  0  0  0  0  0
    3.5700    2.1010  -62.7110 C   0  0  0  0  0  0  0  0  0  0  0  0
    2.5340    1.9660  -61.7960 C   0  0  0  0  0  0  0  0  0  0  0  0
    2.8700    1.9010  -60.4640 C   0  0  0  0  0  0  0  0  0  0  0  0
    4.1430    1.9680  -60.0170 N   0  0  0  0  0  0  0  0  0  0  0  0
    5.1540    2.1080  -60.9080 C   0  0  0  0  0  0  0  0  0  0  0  0
    6.4880    2.1840  -60.4660 C   0  0  0  0  0  0  0  0  0  0  0  0
    6.8610    2.0830  -58.9000 C   0  0  0  0  0  0  0  0  0  0  0  0
    6.5920    3.3000  -57.9570 C   0  0  0  0  0  0  0  0  0  0  0  0
    6.3500    2.2880  -56.8240 C   0  0  0  0  0  0  0  0  0  0  0  0
    5.9350    1.2910  -57.9180 C   0  0  0  0  0  0  0  0  0  0  0  0
   11.0830    3.0150  -59.0440 O   0  0  0  0  0  0  0  0  0  0  0  0
   11.2630    2.6760  -57.6600 C   0  0  1  0  0  0  0  0  0  0  0  0
   12.6840    3.0150  -57.2170 C   0  0  0  0  0  0  0  0  0  0  0  0
   10.1740    3.2680  -56.7630 C   0  0  0  0  0  0  0  0  0  0  0  0
    8.5731    5.3107  -55.4216 H   0  0  0  0  0  0  0  0  0  0  0  0
    8.5140    6.2796  -56.9330 H   0  0  0  0  0  0  0  0  0  0  0  0
    7.9351    4.5791  -56.9330 H   0  0  0  0  0  0  0  0  0  0  0  0
   10.7935    5.2327  -56.1587 H   0  0  0  0  0  0  0  0  0  0  0  0
    9.8459    6.1140  -58.5681 H   0  0  0  0  0  0  0  0  0  0  0  0
   11.5573    5.6197  -58.2005 H   0  0  0  0  0  0  0  0  0  0  0  0
    9.2830    5.3428  -60.6292 H   0  0  0  0  0  0  0  0  0  0  0  0
    9.2072    3.8213  -62.4519 H   0  0  0  0  0  0  0  0  0  0  0  0
   10.6669    2.9871  -61.8365 H   0  0  0  0  0  0  0  0  0  0  0  0
    8.8940    2.1800  -60.0880 H   0  0  0  0  0  0  0  0  0  0  0  0
    3.3407    2.1548  -63.7855 H   0  0  0  0  0  0  0  0  0  0  0  0
    1.4854    1.9131  -62.1239 H   0  0  0  0  0  0  0  0  0  0  0  0
    2.0621    1.7889  -59.7260 H   0  0  0  0  0  0  0  0  0  0  0  0
    7.8729    1.7421  -59.1644 H   0  0  0  0  0  0  0  0  0  0  0  0
    7.4578    3.9610  -57.8037 H   0  0  0  0  0  0  0  0  0  0  0  0
    5.8506    4.0726  -58.2089 H   0  0  0  0  0  0  0  0  0  0  0  0
    7.2501    2.0044  -56.2588 H   0  0  0  0  0  0  0  0  0  0  0  0
    5.7016    2.5164  -55.9653 H   0  0  0  0  0  0  0  0  0  0  0  0
    6.2454    0.2521  -57.7329 H   0  0  0  0  0  0  0  0  0  0  0  0
    4.8777    1.0967  -58.1513 H   0  0  0  0  0  0  0  0  0  0  0  0
   11.1423    1.5884  -57.5478 H   0  0  0  0  0  0  0  0  0  0  0  0
   12.7326    3.0266  -56.1181 H   0  0  0  0  0  0  0  0  0  0  0  0
   13.3801    2.2577  -57.6068 H   0  0  0  0  0  0  0  0  0  0  0  0
   12.9633    4.0050  -57.6068 H   0  0  0  0  0  0  0  0  0  0  0  0
    9.2049    2.8353  -57.0521 H   0  0  0  0  0  0  0  0  0  0  0  0
   10.4302    3.0253  -55.7212 H   0  0  0  0  0  0  0  0  0  0  0  0
  1  2  1  0
  2  3  1  0
  3  4  1  0
  4  5  2  0
  5  6  1  0
  6  7  1  0
  7  8  1  0
  8  9  1  0
  9 10  2  0
 10 11  1  0
 11 12  2  0
 12 13  1  0
 13 14  2  0
 14 15  1  0
 15 16  2  0
 16 17  1  0
 17 18  1  0
 18 19  1  0
 19 20  1  0
 20 21  1  0
  4 22  1  0
 22 23  1  0
 23 24  1  0
 23 25  1  0
 25  2  1  0
 17  8  2  0
 21 18  1  0
 16 11  1  0
  1 26  1  0
  1 27  1  0
  1 28  1  0
  2 29  1  1
  3 30  1  0
  3 31  1  0
  5 32  1  0
  6 33  1  0
  6 34  1  0
  7 35  1  0
 12 36  1  0
 13 37  1  0
 14 38  1  0
 18 39  1  0
 19 40  1  0
 19 41  1  0
 20 42  1  0
 20 43  1  0
 21 44  1  0
 21 45  1  0
 23 46  1  6
 24 47  1  0
 24 48  1  0
 24 49  1  0
 25 50  1  0
 25 51  1  0
M  END
>  <meeko>  (288) 
{"is_sidechain": false}

$$$$

     RDKit          3D

 51 54  0  0  0  0  0  0  0  0999 V2000
   13.6410    6.4380  -59.8870 C   0  0  0  0  0  0  0  0  0  0  0  0
   12.4420    5.8400  -59.1560 C   0  0  1  0  0  0  0  0  0  0  0  0
   11.2640    5.6210  -60.1120 C   0  0  0  0  0  0  0  0  0  0  0  0
   10.1550    4.8630  -59.4300 C   0  0  0  0  0  0  0  0  0  0  0  0
    8.8700    5.2450  -59.4720 C   0  0  0  0  0  0  0  0  0  0  0  0
    7.7230    4.5180  -58.8370 C   0  0  0  0  0  0  0  0  0  0  0  0
    7.8290    3.1330  -59.2720 N   0  0  0  0  0  0  0  0  0  0  0  0
    6.9030    2.7580  -60.2710 C   0  0  0  0  0  0  0  0  0  0  0  0
    7.1470    3.0820  -61.5600 N   0  0  0  0  0  0  0  0  0  0  0  0
    6.2670    2.7610  -62.5390 N   0  0  0  0  0  0  0  0  0  0  0  0
    5.1390    2.1190  -62.2260 C   0  0  0  0  0  0  0  0  0  0  0  0
    4.2210    1.8200  -63.2230 C   0  0  0  0  0  0  0  0  0  0  0  0
    3.0320    1.1640  -62.9250 C   0  0  0  0  0  0  0  0  0  0  0  0
    2.8060    0.8290  -61.6090 C   0  0  0  0  0  0  0  0  0  0  0  0
    3.6750    1.1040  -60.6140 N   0  0  0  0  0  0  0  0  0  0  0  0
    4.8370    1.7340  -60.9080 C   0  0  0  0  0  0  0  0  0  0  0  0
    5.7610    2.0250  -59.8900 C   0  0  0  0  0  0  0  0  0  0  0  0
    5.4970    1.5780  -58.3670 C   0  0  0  0  0  0  0  0  0  0  0  0
    6.7080    1.2600  -57.4310 C   0  0  0  0  0  0  0  0  0  0  0  0
    5.8650    1.8000  -56.2630 C   0  0  0  0  0  0  0  0  0  0  0  0
    5.1270    2.6610  -57.3030 C   0  0  0  0  0  0  0  0  0  0  0  0
   10.5240    3.6860  -58.8060 O   0  0  0  0  0  0  0  0  0  0  0  0
   11.5630    3.8960  -57.8360 C   0  0  1  0  0  0  0  0  0  0  0  0
   11.8860    2.5440  -57.2130 C   0  0  0  0  0  0  0  0  0  0  0  0
   12.8090    4.5120  -58.4820 C   0  0  0  0  0  0  0  0  0  0  0  0
   14.3735    6.8033  -59.1522 H   0  0  0  0  0  0  0  0  0  0  0  0
   14.1077    5.6671  -60.5178 H   0  0  0  0  0  0  0  0  0  0  0  0
   13.3059    7.2745  -60.5178 H   0  0  0  0  0  0  0  0  0  0  0  0
   12.1425    6.5609  -58.3810 H   0  0  0  0  0  0  0  0  0  0  0  0
   10.8822    6.5979  -60.4435 H   0  0  0  0  0  0  0  0  0  0  0  0
   11.6140    5.0340  -60.9739 H   0  0  0  0  0  0  0  0  0  0  0  0
    8.6380    6.1707  -60.0190 H   0  0  0  0  0  0  0  0  0  0  0  0
    7.7923    4.5798  -57.7409 H   0  0  0  0  0  0  0  0  0  0  0  0
    6.7582    4.9575  -59.1304 H   0  0  0  0  0  0  0  0  0  0  0  0
    7.7200    2.5080  -58.4770 H   0  0  0  0  0  0  0  0  0  0  0  0
    4.4371    2.1059  -64.2630 H   0  0  0  0  0  0  0  0  0  0  0  0
    2.3004    0.9221  -63.7101 H   0  0  0  0  0  0  0  0  0  0  0  0
    1.8694    0.3108  -61.3557 H   0  0  0  0  0  0  0  0  0  0  0  0
    4.7900    0.8050  -58.7025 H   0  0  0  0  0  0  0  0  0  0  0  0
    6.9623    0.1923  -57.3574 H   0  0  0  0  0  0  0  0  0  0  0  0
    7.7169    1.6447  -57.6412 H   0  0  0  0  0  0  0  0  0  0  0  0
    5.2395    1.0481  -55.7596 H   0  0  0  0  0  0  0  0  0  0  0  0
    6.3249    2.2367  -55.3643 H   0  0  0  0  0  0  0  0  0  0  0  0
    4.0481    2.7749  -57.1211 H   0  0  0  0  0  0  0  0  0  0  0  0
    5.3714    3.7232  -57.4512 H   0  0  0  0  0  0  0  0  0  0  0  0
   11.2247    4.6042  -57.0653 H   0  0  0  0  0  0  0  0  0  0  0  0
   11.8652    2.6311  -56.1167 H   0  0  0  0  0  0  0  0  0  0  0  0
   11.1395    1.8036  -57.5362 H   0  0  0  0  0  0  0  0  0  0  0  0
   12.8866    2.2210  -57.5362 H   0  0  0  0  0  0  0  0  0  0  0  0
   13.5698    4.6931  -57.7084 H   0  0  0  0  0  0  0  0  0  0  0  0
   13.2067    3.8188  -59.2378 H   0  0  0  0  0  0  0  0  0  0  0  0
  1  2  1  0
  2  3  1  0
  3  4  1  0
  4  5  2  0
  5  6  1  0
  6  7  1  0
  7  8  1  0
  8  9  1  0
  9 10  2  0
 10 11  1  0
 11 12  2  0
 12 13  1  0
 13 14  2  0
 14 15  1  0
 15 16  2  0
 16 17  1  0
 17 18  1  0
 18 19  1  0
 19 20  1  0
 20 21  1  0
  4 22  1  0
 22 23  1  0
 23 24  1  0
 23 25  1  0
 25  2  1  0
 17  8  2  0
 21 18  1  0
 16 11  1  0
  1 26  1  0
  1 27  1  0
  1 28  1  0
  2 29  1  1
  3 30  1  0
  3 31  1  0
  5 32  1  0
  6 33  1  0
  6 34  1  0
  7 35  1  0
 12 36  1  0
 13 37  1  0
 14 38  1  0
 18 39  1  0
 19 40  1  0
 19 41  1  0
 20 42  1  0
 20 43  1  0
 21 44  1  0
 21 45  1  0
 23 46  1  1
 24 47  1  0
 24 48  1  0
 24 49  1  0
 25 50  1  0
 25 51  1  0
M  END
>  <meeko>  (289) 
{"is_sidechain": false}

$$$$

     RDKit          3D

 51 54  0  0  0  0  0  0  0  0999 V2000
   11.2120   -2.8740  -52.9380 C   0  0  0  0  0  0  0  0  0  0  0  0
    9.7120   -2.5900  -52.9380 C   0  0  2  0  0  0  0  0  0  0  0  0
    9.4330   -1.1060  -53.1870 C   0  0  0  0  0  0  0  0  0  0  0  0
    7.9610   -0.8220  -53.0530 C   0  0  0  0  0  0  0  0  0  0  0  0
    7.1940   -0.2160  -53.9740 C   0  0  0  0  0  0  0  0  0  0  0  0
    7.6390    0.2880  -55.3130 C   0  0  0  0  0  0  0  0  0  0  0  0
    6.5170    0.9730  -55.9130 N   0  0  0  0  0  0  0  0  0  0  0  0
    6.5960    1.7390  -56.9470 C   0  0  0  0  0  0  0  0  0  0  0  0
    5.3740    2.0520  -57.5120 N   0  0  0  0  0  0  0  0  0  0  0  0
    5.1840    2.1410  -58.8620 N   0  0  0  0  0  0  0  0  0  0  0  0
    6.2770    2.3070  -59.5470 C   0  0  0  0  0  0  0  0  0  0  0  0
    6.1720    2.3930  -61.0220 C   0  0  0  0  0  0  0  0  0  0  0  0
    7.2470    2.6640  -61.7610 C   0  0  0  0  0  0  0  0  0  0  0  0
    8.5210    2.8880  -61.0600 C   0  0  0  0  0  0  0  0  0  0  0  0
    8.7370    2.7990  -59.7900 N   0  0  0  0  0  0  0  0  0  0  0  0
    7.6740    2.4500  -58.9810 C   0  0  0  0  0  0  0  0  0  0  0  0
    7.8160    2.2610  -57.6510 C   0  0  0  0  0  0  0  0  0  0  0  0
    9.0950    2.6060  -56.9590 C   0  0  0  0  0  0  0  0  0  0  0  0
    9.8040    3.9220  -57.4150 C   0  0  0  0  0  0  0  0  0  0  0  0
   11.1460    3.1990  -57.2040 C   0  0  0  0  0  0  0  0  0  0  0  0
   10.3900    1.8900  -57.4740 C   0  0  0  0  0  0  0  0  0  0  0  0
    7.3780   -1.2180  -51.8600 O   0  0  0  0  0  0  0  0  0  0  0  0
    7.5890   -2.6070  -51.5490 C   0  0  1  0  0  0  0  0  0  0  0  0
    6.6850   -3.4930  -52.4070 C   0  0  0  0  0  0  0  0  0  0  0  0
    9.0690   -3.0050  -51.6110 C   0  0  0  0  0  0  0  0  0  0  0  0
   11.5723   -2.9422  -51.9009 H   0  0  0  0  0  0  0  0  0  0  0  0
   11.4052   -3.8247  -53.4565 H   0  0  0  0  0  0  0  0  0  0  0  0
   11.7393   -2.0597  -53.4565 H   0  0  0  0  0  0  0  0  0  0  0  0
    9.2715   -3.1836  -53.7526 H   0  0  0  0  0  0  0  0  0  0  0  0
    9.9872   -0.5041  -52.4517 H   0  0  0  0  0  0  0  0  0  0  0  0
    9.7563   -0.8470  -54.2060 H   0  0  0  0  0  0  0  0  0  0  0  0
    6.1330   -0.0756  -53.7199 H   0  0  0  0  0  0  0  0  0  0  0  0
    8.4825    0.9835  -55.1913 H   0  0  0  0  0  0  0  0  0  0  0  0
    7.9707   -0.5450  -55.9503 H   0  0  0  0  0  0  0  0  0  0  0  0
    4.6090    1.6160  -56.9970 H   0  0  0  0  0  0  0  0  0  0  0  0
    5.1997    2.2320  -61.5107 H   0  0  0  0  0  0  0  0  0  0  0  0
    7.1842    2.7184  -62.8579 H   0  0  0  0  0  0  0  0  0  0  0  0
    9.3834    3.1610  -61.6859 H   0  0  0  0  0  0  0  0  0  0  0  0
    8.6973    2.4615  -55.9437 H   0  0  0  0  0  0  0  0  0  0  0  0
    9.6003    4.2151  -58.4555 H   0  0  0  0  0  0  0  0  0  0  0  0
    9.5883    4.8889  -56.9368 H   0  0  0  0  0  0  0  0  0  0  0  0
   11.9225    3.4437  -57.9437 H   0  0  0  0  0  0  0  0  0  0  0  0
   11.7516    3.3464  -56.2976 H   0  0  0  0  0  0  0  0  0  0  0  0
   10.3575    1.5896  -58.5317 H   0  0  0  0  0  0  0  0  0  0  0  0
   10.7263    0.9317  -57.0514 H   0  0  0  0  0  0  0  0  0  0  0  0
    7.2978   -2.7691  -50.5007 H   0  0  0  0  0  0  0  0  0  0  0  0
    6.0527   -4.1127  -51.7543 H   0  0  0  0  0  0  0  0  0  0  0  0
    6.0474   -2.8604  -53.0420 H   0  0  0  0  0  0  0  0  0  0  0  0
    7.3047   -4.1432  -53.0420 H   0  0  0  0  0  0  0  0  0  0  0  0
    9.6052   -2.5134  -50.7859 H   0  0  0  0  0  0  0  0  0  0  0  0
    9.1336   -4.0998  -51.5262 H   0  0  0  0  0  0  0  0  0  0  0  0
  1  2  1  0
  2  3  1  0
  3  4  1  0
  4  5  2  0
  5  6  1  0
  6  7  1  0
  7  8  2  0
  8  9  1  0
  9 10  1  0
 10 11  2  0
 11 12  1  0
 12 13  2  0
 13 14  1  0
 14 15  2  0
 15 16  1  0
 16 17  2  0
 17 18  1  0
 18 19  1  0
 19 20  1  0
 20 21  1  0
  4 22  1  0
 22 23  1  0
 23 24  1  0
 23 25  1  0
 25  2  1  0
 17  8  1  0
 21 18  1  0
 16 11  1  0
  1 26  1  0
  1 27  1  0
  1 28  1  0
  2 29  1  6
  3 30  1  0
  3 31  1  0
  5 32  1  0
  6 33  1  0
  6 34  1  0
  9 35  1  0
 12 36  1  0
 13 37  1  0
 14 38  1  0
 18 39  1  0
 19 40  1  0
 19 41  1  0
 20 42  1  0
 20 43  1  0
 21 44  1  0
 21 45  1  0
 23 46  1  1
 24 47  1  0
 24 48  1  0
 24 49  1  0
 25 50  1  0
 25 51  1  0
M  END
>  <meeko>  (290) 
{"is_sidechain": false}

$$$$

     RDKit          3D

 51 54  0  0  0  0  0  0  0  0999 V2000
    9.7090    2.4810  -61.2940 C   0  0  0  0  0  0  0  0  0  0  0  0
    8.7300    3.3100  -60.4690 C   0  0  1  0  0  0  0  0  0  0  0  0
    7.8500    2.4150  -59.5900 C   0  0  0  0  0  0  0  0  0  0  0  0
    7.1360    3.1920  -58.5130 C   0  0  0  0  0  0  0  0  0  0  0  0
    6.4560    2.6310  -57.5000 C   0  0  0  0  0  0  0  0  0  0  0  0
    6.2640    1.1690  -57.2350 C   0  0  0  0  0  0  0  0  0  0  0  0
    6.0820    1.0050  -55.8100 N   0  0  0  0  0  0  0  0  0  0  0  0
    6.9860    0.5680  -54.9990 C   0  0  0  0  0  0  0  0  0  0  0  0
    6.5080    0.3150  -53.7290 N   0  0  0  0  0  0  0  0  0  0  0  0
    6.9920   -0.6540  -52.9090 N   0  0  0  0  0  0  0  0  0  0  0  0
    8.1600   -1.1100  -53.2490 C   0  0  0  0  0  0  0  0  0  0  0  0
    8.7510   -2.1810  -52.4140 C   0  0  0  0  0  0  0  0  0  0  0  0
    9.9820   -2.6280  -52.6580 C   0  0  0  0  0  0  0  0  0  0  0  0
   10.7230   -2.0070  -53.7650 C   0  0  0  0  0  0  0  0  0  0  0  0
   10.2960   -1.0980  -54.5730 N   0  0  0  0  0  0  0  0  0  0  0  0
    9.0040   -0.6360  -54.4160 C   0  0  0  0  0  0  0  0  0  0  0  0
    8.4440    0.2590  -55.2620 C   0  0  0  0  0  0  0  0  0  0  0  0
    9.2120    0.9610  -56.3320 C   0  0  0  0  0  0  0  0  0  0  0  0
    9.6880    2.4240  -56.1240 C   0  0  0  0  0  0  0  0  0  0  0  0
   10.9470    2.0520  -56.9370 C   0  0  0  0  0  0  0  0  0  0  0  0
   10.7000    0.5810  -56.5410 C   0  0  0  0  0  0  0  0  0  0  0  0
    7.1530    4.5700  -58.6060 O   0  0  0  0  0  0  0  0  0  0  0  0
    8.4380    5.1750  -58.8230 C   0  0  1  0  0  0  0  0  0  0  0  0
    8.9820    5.6820  -57.4920 C   0  0  0  0  0  0  0  0  0  0  0  0
    9.4560    4.2960  -59.5600 C   0  0  0  0  0  0  0  0  0  0  0  0
   10.3725    1.9192  -60.6200 H   0  0  0  0  0  0  0  0  0  0  0  0
    9.1499    1.7775  -61.9285 H   0  0  0  0  0  0  0  0  0  0  0  0
   10.3107    3.1484  -61.9285 H   0  0  0  0  0  0  0  0  0  0  0  0
    8.1073    3.8610  -61.1892 H   0  0  0  0  0  0  0  0  0  0  0  0
    7.1002    1.9222  -60.2263 H   0  0  0  0  0  0  0  0  0  0  0  0
    8.5044    1.6812  -59.0968 H   0  0  0  0  0  0  0  0  0  0  0  0
    5.9873    3.3226  -56.7844 H   0  0  0  0  0  0  0  0  0  0  0  0
    5.3758    0.8037  -57.7714 H   0  0  0  0  0  0  0  0  0  0  0  0
    7.1356    0.5949  -57.5825 H   0  0  0  0  0  0  0  0  0  0  0  0
    5.5070    0.4980  -53.6600 H   0  0  0  0  0  0  0  0  0  0  0  0
    8.1687   -2.6108  -51.5856 H   0  0  0  0  0  0  0  0  0  0  0  0
   10.4273   -3.4319  -52.0535 H   0  0  0  0  0  0  0  0  0  0  0  0
   11.7544   -2.3560  -53.9210 H   0  0  0  0  0  0  0  0  0  0  0  0
    8.4337    0.7263  -57.0730 H   0  0  0  0  0  0  0  0  0  0  0  0
    9.0477    3.1865  -56.5915 H   0  0  0  0  0  0  0  0  0  0  0  0
    9.7556    2.8758  -55.1233 H   0  0  0  0  0  0  0  0  0  0  0  0
   10.8708    2.2540  -58.0156 H   0  0  0  0  0  0  0  0  0  0  0  0
   11.9148    2.5418  -56.7541 H   0  0  0  0  0  0  0  0  0  0  0  0
   10.8792   -0.1474  -57.3455 H   0  0  0  0  0  0  0  0  0  0  0  0
   11.2878    0.0863  -55.7538 H   0  0  0  0  0  0  0  0  0  0  0  0
    8.2776    6.0159  -59.5137 H   0  0  0  0  0  0  0  0  0  0  0  0
    8.4505    5.1867  -56.6661 H   0  0  0  0  0  0  0  0  0  0  0  0
   10.0563    5.4555  -57.4248 H   0  0  0  0  0  0  0  0  0  0  0  0
    8.8316    6.7696  -57.4248 H   0  0  0  0  0  0  0  0  0  0  0  0
   10.1161    4.9332  -60.1668 H   0  0  0  0  0  0  0  0  0  0  0  0
   10.0520    3.7374  -58.8233 H   0  0  0  0  0  0  0  0  0  0  0  0
  1  2  1  0
  2  3  1  0
  3  4  1  0
  4  5  2  0
  5  6  1  0
  6  7  1  0
  7  8  2  0
  8  9  1  0
  9 10  1  0
 10 11  2  0
 11 12  1  0
 12 13  2  0
 13 14  1  0
 14 15  2  0
 15 16  1  0
 16 17  2  0
 17 18  1  0
 18 19  1  0
 19 20  1  0
 20 21  1  0
  4 22  1  0
 22 23  1  0
 23 24  1  0
 23 25  1  0
 25  2  1  0
 17  8  1  0
 21 18  1  0
 16 11  1  0
  1 26  1  0
  1 27  1  0
  1 28  1  0
  2 29  1  6
  3 30  1  0
  3 31  1  0
  5 32  1  0
  6 33  1  0
  6 34  1  0
  9 35  1  0
 12 36  1  0
 13 37  1  0
 14 38  1  0
 18 39  1  0
 19 40  1  0
 19 41  1  0
 20 42  1  0
 20 43  1  0
 21 44  1  0
 21 45  1  0
 23 46  1  6
 24 47  1  0
 24 48  1  0
 24 49  1  0
 25 50  1  0
 25 51  1  0
M  END
>  <meeko>  (291) 
{"is_sidechain": false}

$$$$

     RDKit          3D

 51 54  0  0  0  0  0  0  0  0999 V2000
    7.9710   -2.6350  -50.2540 C   0  0  0  0  0  0  0  0  0  0  0  0
    8.2000   -2.1110  -51.6690 C   0  0  2  0  0  0  0  0  0  0  0  0
    6.8760   -1.9390  -52.4200 C   0  0  0  0  0  0  0  0  0  0  0  0
    7.1450   -1.4890  -53.8350 C   0  0  0  0  0  0  0  0  0  0  0  0
    6.4150   -0.5350  -54.4320 C   0  0  0  0  0  0  0  0  0  0  0  0
    6.6430    0.0060  -55.8140 C   0  0  0  0  0  0  0  0  0  0  0  0
    7.5560    1.1260  -55.6920 N   0  0  0  0  0  0  0  0  0  0  0  0
    7.8840    1.8960  -56.6740 C   0  0  0  0  0  0  0  0  0  0  0  0
    8.9510    2.7320  -56.3980 N   0  0  0  0  0  0  0  0  0  0  0  0
    9.9030    3.0560  -57.3200 N   0  0  0  0  0  0  0  0  0  0  0  0
    9.5470    2.8480  -58.5530 C   0  0  0  0  0  0  0  0  0  0  0  0
   10.5280    3.1480  -59.6210 C   0  0  0  0  0  0  0  0  0  0  0  0
   10.1810    3.0470  -60.9040 C   0  0  0  0  0  0  0  0  0  0  0  0
    8.7980    2.6490  -61.2100 C   0  0  0  0  0  0  0  0  0  0  0  0
    7.8760    2.3300  -60.3660 N   0  0  0  0  0  0  0  0  0  0  0  0
    8.1970    2.3460  -59.0230 C   0  0  0  0  0  0  0  0  0  0  0  0
    7.3210    1.9610  -58.0680 C   0  0  0  0  0  0  0  0  0  0  0  0
    5.8920    1.6740  -58.4020 C   0  0  0  0  0  0  0  0  0  0  0  0
    5.3290    2.2980  -59.7250 C   0  0  0  0  0  0  0  0  0  0  0  0
    3.9980    2.5060  -58.9880 C   0  0  0  0  0  0  0  0  0  0  0  0
    4.8200    2.5620  -57.6910 C   0  0  0  0  0  0  0  0  0  0  0  0
    8.2280   -2.0520  -54.4920 O   0  0  0  0  0  0  0  0  0  0  0  0
    8.6980   -3.2620  -53.8900 C   0  0  1  0  0  0  0  0  0  0  0  0
    9.8310   -3.8050  -54.7530 C   0  0  0  0  0  0  0  0  0  0  0  0
    9.1710   -3.0130  -52.4520 C   0  0  0  0  0  0  0  0  0  0  0  0
    8.3010   -1.8798  -49.5255 H   0  0  0  0  0  0  0  0  0  0  0  0
    6.9005   -2.8418  -50.1083 H   0  0  0  0  0  0  0  0  0  0  0  0
    8.5464   -3.5611  -50.1083 H   0  0  0  0  0  0  0  0  0  0  0  0
    8.6660   -1.1184  -51.5818 H   0  0  0  0  0  0  0  0  0  0  0  0
    6.3391   -2.8989  -52.4380 H   0  0  0  0  0  0  0  0  0  0  0  0
    6.2643   -1.1814  -51.9083 H   0  0  0  0  0  0  0  0  0  0  0  0
    5.5764   -0.1122  -53.8593 H   0  0  0  0  0  0  0  0  0  0  0  0
    7.0842   -0.7716  -56.4549 H   0  0  0  0  0  0  0  0  0  0  0  0
    5.6938    0.3244  -56.2697 H   0  0  0  0  0  0  0  0  0  0  0  0
    9.3000    2.5820  -55.4520 H   0  0  0  0  0  0  0  0  0  0  0  0
   11.5496    3.4562  -59.3538 H   0  0  0  0  0  0  0  0  0  0  0  0
   10.9040    3.2542  -61.7067 H   0  0  0  0  0  0  0  0  0  0  0  0
    8.5200    2.6203  -62.2739 H   0  0  0  0  0  0  0  0  0  0  0  0
    5.9758    0.5883  -58.2465 H   0  0  0  0  0  0  0  0  0  0  0  0
    5.8271    3.2263  -60.0416 H   0  0  0  0  0  0  0  0  0  0  0  0
    5.3797    1.7604  -60.6834 H   0  0  0  0  0  0  0  0  0  0  0  0
    3.4719    3.4383  -59.2409 H   0  0  0  0  0  0  0  0  0  0  0  0
    3.1489    1.8177  -59.1114 H   0  0  0  0  0  0  0  0  0  0  0  0
    5.1696    3.5675  -57.4140 H   0  0  0  0  0  0  0  0  0  0  0  0
    4.3861    2.2754  -56.7216 H   0  0  0  0  0  0  0  0  0  0  0  0
    7.8819   -3.9974  -53.8341 H   0  0  0  0  0  0  0  0  0  0  0  0
   10.6331   -4.1894  -54.1057 H   0  0  0  0  0  0  0  0  0  0  0  0
    9.4506   -4.6187  -55.3880 H   0  0  0  0  0  0  0  0  0  0  0  0
   10.2270   -2.9988  -55.3880 H   0  0  0  0  0  0  0  0  0  0  0  0
    9.2529   -3.9797  -51.9335 H   0  0  0  0  0  0  0  0  0  0  0  0
   10.1435   -2.5011  -52.5000 H   0  0  0  0  0  0  0  0  0  0  0  0
  1  2  1  0
  2  3  1  0
  3  4  1  0
  4  5  2  0
  5  6  1  0
  6  7  1  0
  7  8  2  0
  8  9  1  0
  9 10  1  0
 10 11  2  0
 11 12  1  0
 12 13  2  0
 13 14  1  0
 14 15  2  0
 15 16  1  0
 16 17  2  0
 17 18  1  0
 18 19  1  0
 19 20  1  0
 20 21  1  0
  4 22  1  0
 22 23  1  0
 23 24  1  0
 23 25  1  0
 25  2  1  0
 17  8  1  0
 21 18  1  0
 16 11  1  0
  1 26  1  0
  1 27  1  0
  1 28  1  0
  2 29  1  1
  3 30  1  0
  3 31  1  0
  5 32  1  0
  6 33  1  0
  6 34  1  0
  9 35  1  0
 12 36  1  0
 13 37  1  0
 14 38  1  0
 18 39  1  0
 19 40  1  0
 19 41  1  0
 20 42  1  0
 20 43  1  0
 21 44  1  0
 21 45  1  0
 23 46  1  1
 24 47  1  0
 24 48  1  0
 24 49  1  0
 25 50  1  0
 25 51  1  0
M  END
>  <meeko>  (292) 
{"is_sidechain": false}

$$$$

     RDKit          3D

 51 54  0  0  0  0  0  0  0  0999 V2000
    7.6680   -2.8620  -49.9410 C   0  0  0  0  0  0  0  0  0  0  0  0
    7.9660   -2.5960  -51.4140 C   0  0  1  0  0  0  0  0  0  0  0  0
    7.6980   -1.1330  -51.7760 C   0  0  0  0  0  0  0  0  0  0  0  0
    8.1720   -0.8380  -53.1750 C   0  0  0  0  0  0  0  0  0  0  0  0
    7.4120   -0.2280  -54.0990 C   0  0  0  0  0  0  0  0  0  0  0  0
    7.8370    0.0990  -55.4980 C   0  0  0  0  0  0  0  0  0  0  0  0
    8.7480    1.2250  -55.4210 N   0  0  0  0  0  0  0  0  0  0  0  0
    8.8980    2.1080  -56.3520 C   0  0  0  0  0  0  0  0  0  0  0  0
    9.9550    2.9660  -56.1280 N   0  0  0  0  0  0  0  0  0  0  0  0
   10.7040    3.5280  -57.1120 N   0  0  0  0  0  0  0  0  0  0  0  0
   10.1570    3.4900  -58.2900 C   0  0  0  0  0  0  0  0  0  0  0  0
   10.9180    4.0680  -59.4220 C   0  0  0  0  0  0  0  0  0  0  0  0
   10.3750    4.1390  -60.6360 C   0  0  0  0  0  0  0  0  0  0  0  0
    9.0030    3.6390  -60.7970 C   0  0  0  0  0  0  0  0  0  0  0  0
    8.2650    3.0870  -59.8940 N   0  0  0  0  0  0  0  0  0  0  0  0
    8.7910    2.9250  -58.6280 C   0  0  0  0  0  0  0  0  0  0  0  0
    8.1230    2.2880  -57.6390 C   0  0  0  0  0  0  0  0  0  0  0  0
    6.6980    1.8590  -57.7620 C   0  0  0  0  0  0  0  0  0  0  0  0
    5.6270    2.3970  -56.7760 C   0  0  0  0  0  0  0  0  0  0  0  0
    4.6320    2.3720  -57.9570 C   0  0  0  0  0  0  0  0  0  0  0  0
    5.8460    2.4620  -58.9070 C   0  0  0  0  0  0  0  0  0  0  0  0
    9.4820   -1.1830  -53.4470 O   0  0  0  0  0  0  0  0  0  0  0  0
    9.7130   -2.5820  -53.2150 C   0  0  1  0  0  0  0  0  0  0  0  0
   11.1680   -2.8680  -53.5660 C   0  0  0  0  0  0  0  0  0  0  0  0
    9.4180   -2.9550  -51.7580 C   0  0  0  0  0  0  0  0  0  0  0  0
    8.3431   -2.2594  -49.3157 H   0  0  0  0  0  0  0  0  0  0  0  0
    6.6250   -2.5891  -49.7228 H   0  0  0  0  0  0  0  0  0  0  0  0
    7.8211   -3.9292  -49.7228 H   0  0  0  0  0  0  0  0  0  0  0  0
    7.2931   -3.2359  -52.0037 H   0  0  0  0  0  0  0  0  0  0  0  0
    6.6176   -0.9366  -51.7113 H   0  0  0  0  0  0  0  0  0  0  0  0
    8.2447   -0.4876  -51.0727 H   0  0  0  0  0  0  0  0  0  0  0  0
    6.3910    0.0556  -53.8037 H   0  0  0  0  0  0  0  0  0  0  0  0
    8.3453   -0.7661  -55.9487 H   0  0  0  0  0  0  0  0  0  0  0  0
    6.9652    0.3459  -56.1218 H   0  0  0  0  0  0  0  0  0  0  0  0
   10.4490    2.7410  -55.2650 H   0  0  0  0  0  0  0  0  0  0  0  0
   11.9397    4.4415  -59.2585 H   0  0  0  0  0  0  0  0  0  0  0  0
   10.9332    4.5566  -61.4868 H   0  0  0  0  0  0  0  0  0  0  0  0
    8.5562    3.7470  -61.7963 H   0  0  0  0  0  0  0  0  0  0  0  0
    6.9938    0.7997  -57.7399 H   0  0  0  0  0  0  0  0  0  0  0  0
    5.3778    1.7138  -55.9507 H   0  0  0  0  0  0  0  0  0  0  0  0
    5.7936    3.3043  -56.1769 H   0  0  0  0  0  0  0  0  0  0  0  0
    4.0502    1.4426  -58.0452 H   0  0  0  0  0  0  0  0  0  0  0  0
    3.7972    3.0854  -58.0211 H   0  0  0  0  0  0  0  0  0  0  0  0
    5.7733    1.8321  -59.8058 H   0  0  0  0  0  0  0  0  0  0  0  0
    6.1251    3.4035  -59.4027 H   0  0  0  0  0  0  0  0  0  0  0  0
    9.0406   -3.1885  -53.8396 H   0  0  0  0  0  0  0  0  0  0  0  0
   11.7525   -2.9829  -52.6413 H   0  0  0  0  0  0  0  0  0  0  0  0
   11.2277   -3.7951  -54.1551 H   0  0  0  0  0  0  0  0  0  0  0  0
   11.5741   -2.0325  -54.1551 H   0  0  0  0  0  0  0  0  0  0  0  0
    9.5697   -4.0357  -51.6197 H   0  0  0  0  0  0  0  0  0  0  0  0
   10.0969   -2.3980  -51.0956 H   0  0  0  0  0  0  0  0  0  0  0  0
  1  2  1  0
  2  3  1  0
  3  4  1  0
  4  5  2  0
  5  6  1  0
  6  7  1  0
  7  8  2  0
  8  9  1  0
  9 10  1  0
 10 11  2  0
 11 12  1  0
 12 13  2  0
 13 14  1  0
 14 15  2  0
 15 16  1  0
 16 17  2  0
 17 18  1  0
 18 19  1  0
 19 20  1  0
 20 21  1  0
  4 22  1  0
 22 23  1  0
 23 24  1  0
 23 25  1  0
 25  2  1  0
 17  8  1  0
 21 18  1  0
 16 11  1  0
  1 26  1  0
  1 27  1  0
  1 28  1  0
  2 29  1  6
  3 30  1  0
  3 31  1  0
  5 32  1  0
  6 33  1  0
  6 34  1  0
  9 35  1  0
 12 36  1  0
 13 37  1  0
 14 38  1  0
 18 39  1  0
 19 40  1  0
 19 41  1  0
 20 42  1  0
 20 43  1  0
 21 44  1  0
 21 45  1  0
 23 46  1  6
 24 47  1  0
 24 48  1  0
 24 49  1  0
 25 50  1  0
 25 51  1  0
M  END
>  <meeko>  (293) 
{"is_sidechain": false}

$$$$

     RDKit          3D

 51 54  0  0  0  0  0  0  0  0999 V2000
    8.1980    2.5820  -61.7130 C   0  0  0  0  0  0  0  0  0  0  0  0
    9.2610    2.7610  -60.6330 C   0  0  2  0  0  0  0  0  0  0  0  0
    8.6480    2.7150  -59.2270 C   0  0  0  0  0  0  0  0  0  0  0  0
    9.7170    2.9300  -58.1820 C   0  0  0  0  0  0  0  0  0  0  0  0
    9.7200    2.3890  -56.9520 C   0  0  0  0  0  0  0  0  0  0  0  0
    8.6650    1.5250  -56.3340 C   0  0  0  0  0  0  0  0  0  0  0  0
    9.2810    0.3630  -55.7120 N   0  0  0  0  0  0  0  0  0  0  0  0
    8.8450   -0.1300  -54.5970 C   0  0  0  0  0  0  0  0  0  0  0  0
    7.7510    0.3390  -53.8970 N   0  0  0  0  0  0  0  0  0  0  0  0
    7.2600   -0.1690  -52.7410 N   0  0  0  0  0  0  0  0  0  0  0  0
    7.9160   -1.1840  -52.2670 C   0  0  0  0  0  0  0  0  0  0  0  0
    7.4280   -1.7790  -51.0000 C   0  0  0  0  0  0  0  0  0  0  0  0
    8.0510   -2.8240  -50.4560 C   0  0  0  0  0  0  0  0  0  0  0  0
    9.2290   -3.3520  -51.1550 C   0  0  0  0  0  0  0  0  0  0  0  0
    9.7390   -2.9160  -52.2570 N   0  0  0  0  0  0  0  0  0  0  0  0
    9.1400   -1.8370  -52.8760 C   0  0  0  0  0  0  0  0  0  0  0  0
    9.5980   -1.3160  -54.0340 C   0  0  0  0  0  0  0  0  0  0  0  0
   10.7920   -1.8460  -54.7700 C   0  0  0  0  0  0  0  0  0  0  0  0
   11.3020   -1.0850  -56.0180 C   0  0  0  0  0  0  0  0  0  0  0  0
   11.6760   -2.4600  -56.6150 C   0  0  0  0  0  0  0  0  0  0  0  0
   10.6250   -3.0910  -55.6750 C   0  0  0  0  0  0  0  0  0  0  0  0
   10.8110    3.7070  -58.5500 O   0  0  0  0  0  0  0  0  0  0  0  0
   10.4650    4.7060  -59.5160 C   0  0  1  0  0  0  0  0  0  0  0  0
   11.6650    5.6280  -59.6930 C   0  0  0  0  0  0  0  0  0  0  0  0
   10.0620    4.0560  -60.8450 C   0  0  0  0  0  0  0  0  0  0  0  0
    7.2187    2.4171  -61.2399 H   0  0  0  0  0  0  0  0  0  0  0  0
    8.1553    3.4856  -62.3388 H   0  0  0  0  0  0  0  0  0  0  0  0
    8.4536    1.7143  -62.3388 H   0  0  0  0  0  0  0  0  0  0  0  0
    9.9601    1.9161  -60.7188 H   0  0  0  0  0  0  0  0  0  0  0  0
    7.8879    3.5050  -59.1365 H   0  0  0  0  0  0  0  0  0  0  0  0
    8.1869    1.7288  -59.0697 H   0  0  0  0  0  0  0  0  0  0  0  0
   10.5989    2.6059  -56.3271 H   0  0  0  0  0  0  0  0  0  0  0  0
    8.1211    2.1019  -55.5715 H   0  0  0  0  0  0  0  0  0  0  0  0
    7.9660    1.1909  -57.1149 H   0  0  0  0  0  0  0  0  0  0  0  0
    7.2070    1.0840  -54.3190 H   0  0  0  0  0  0  0  0  0  0  0  0
    6.5430   -1.3538  -50.5040 H   0  0  0  0  0  0  0  0  0  0  0  0
    7.6955   -3.2744  -49.5175 H   0  0  0  0  0  0  0  0  0  0  0  0
    9.7312   -4.2125  -50.6888 H   0  0  0  0  0  0  0  0  0  0  0  0
   11.3837   -1.8881  -53.8437 H   0  0  0  0  0  0  0  0  0  0  0  0
   10.5245   -0.5394  -56.5729 H   0  0  0  0  0  0  0  0  0  0  0  0
   12.0345   -0.2681  -55.9399 H   0  0  0  0  0  0  0  0  0  0  0  0
   11.4543   -2.5685  -57.6870 H   0  0  0  0  0  0  0  0  0  0  0  0
   12.7171   -2.8146  -56.6339 H   0  0  0  0  0  0  0  0  0  0  0  0
    9.6243   -3.2068  -56.1168 H   0  0  0  0  0  0  0  0  0  0  0  0
   10.7371   -4.1124  -55.2824 H   0  0  0  0  0  0  0  0  0  0  0  0
    9.5996    5.2890  -59.1678 H   0  0  0  0  0  0  0  0  0  0  0  0
   12.0493    5.9233  -58.7055 H   0  0  0  0  0  0  0  0  0  0  0  0
   12.4532    5.1010  -60.2506 H   0  0  0  0  0  0  0  0  0  0  0  0
   11.3588    6.5254  -60.2506 H   0  0  0  0  0  0  0  0  0  0  0  0
    9.4448    4.7661  -61.4149 H   0  0  0  0  0  0  0  0  0  0  0  0
   10.9820    3.8009  -61.3913 H   0  0  0  0  0  0  0  0  0  0  0  0
  1  2  1  0
  2  3  1  0
  3  4  1  0
  4  5  2  0
  5  6  1  0
  6  7  1  0
  7  8  2  0
  8  9  1  0
  9 10  1  0
 10 11  2  0
 11 12  1  0
 12 13  2  0
 13 14  1  0
 14 15  2  0
 15 16  1  0
 16 17  2  0
 17 18  1  0
 18 19  1  0
 19 20  1  0
 20 21  1  0
  4 22  1  0
 22 23  1  0
 23 24  1  0
 23 25  1  0
 25  2  1  0
 17  8  1  0
 21 18  1  0
 16 11  1  0
  1 26  1  0
  1 27  1  0
  1 28  1  0
  2 29  1  1
  3 30  1  0
  3 31  1  0
  5 32  1  0
  6 33  1  0
  6 34  1  0
  9 35  1  0
 12 36  1  0
 13 37  1  0
 14 38  1  0
 18 39  1  0
 19 40  1  0
 19 41  1  0
 20 42  1  0
 20 43  1  0
 21 44  1  0
 21 45  1  0
 23 46  1  1
 24 47  1  0
 24 48  1  0
 24 49  1  0
 25 50  1  0
 25 51  1  0
M  END
>  <meeko>  (294) 
{"is_sidechain": false}

$$$$

     RDKit          3D

 51 54  0  0  0  0  0  0  0  0999 V2000
    9.6380    3.2790  -61.3830 C   0  0  0  0  0  0  0  0  0  0  0  0
    9.9220    3.9170  -60.0270 C   0  0  1  0  0  0  0  0  0  0  0  0
    9.1350    3.2200  -58.9110 C   0  0  0  0  0  0  0  0  0  0  0  0
    9.6970    3.4930  -57.5410 C   0  0  0  0  0  0  0  0  0  0  0  0
    9.4200    2.7840  -56.4360 C   0  0  0  0  0  0  0  0  0  0  0  0
    8.5180    1.6030  -56.2380 C   0  0  0  0  0  0  0  0  0  0  0  0
    9.1600    0.3940  -55.7350 N   0  0  0  0  0  0  0  0  0  0  0  0
    8.7490   -0.1770  -54.6490 C   0  0  0  0  0  0  0  0  0  0  0  0
    7.6340    0.2090  -53.9300 N   0  0  0  0  0  0  0  0  0  0  0  0
    7.1930   -0.3420  -52.7730 N   0  0  0  0  0  0  0  0  0  0  0  0
    7.9380   -1.2960  -52.3030 C   0  0  0  0  0  0  0  0  0  0  0  0
    7.5220   -1.9280  -51.0290 C   0  0  0  0  0  0  0  0  0  0  0  0
    8.2610   -2.8890  -50.4750 C   0  0  0  0  0  0  0  0  0  0  0  0
    9.4960   -3.2820  -51.1690 C   0  0  0  0  0  0  0  0  0  0  0  0
    9.9420   -2.8180  -52.2860 N   0  0  0  0  0  0  0  0  0  0  0  0
    9.2010   -1.8450  -52.9280 C   0  0  0  0  0  0  0  0  0  0  0  0
    9.5670   -1.3330  -54.1240 C   0  0  0  0  0  0  0  0  0  0  0  0
   10.8180   -1.7770  -54.8180 C   0  0  0  0  0  0  0  0  0  0  0  0
   10.7520   -3.0220  -55.7600 C   0  0  0  0  0  0  0  0  0  0  0  0
   11.8060   -2.3240  -56.6390 C   0  0  0  0  0  0  0  0  0  0  0  0
   11.2410   -0.9980  -56.1010 C   0  0  0  0  0  0  0  0  0  0  0  0
   10.5650    4.5630  -57.4170 O   0  0  0  0  0  0  0  0  0  0  0  0
   11.6460    4.6170  -58.3620 C   0  0  1  0  0  0  0  0  0  0  0  0
   12.9260    4.1550  -57.6760 C   0  0  0  0  0  0  0  0  0  0  0  0
   11.4030    3.8630  -59.6760 C   0  0  0  0  0  0  0  0  0  0  0  0
    9.1948    2.2833  -61.2341 H   0  0  0  0  0  0  0  0  0  0  0  0
    8.9367    3.9120  -61.9464 H   0  0  0  0  0  0  0  0  0  0  0  0
   10.5777    3.1815  -61.9464 H   0  0  0  0  0  0  0  0  0  0  0  0
    9.6063    4.9677  -60.1072 H   0  0  0  0  0  0  0  0  0  0  0  0
    8.0942    3.5748  -58.9408 H   0  0  0  0  0  0  0  0  0  0  0  0
    9.2024    2.1361  -59.0861 H   0  0  0  0  0  0  0  0  0  0  0  0
    9.9390    3.1246  -55.5279 H   0  0  0  0  0  0  0  0  0  0  0  0
    7.7345    1.8924  -55.5222 H   0  0  0  0  0  0  0  0  0  0  0  0
    8.1366    1.3463  -57.2373 H   0  0  0  0  0  0  0  0  0  0  0  0
    7.0180    0.8900  -54.3630 H   0  0  0  0  0  0  0  0  0  0  0  0
    6.5947   -1.6010  -50.5359 H   0  0  0  0  0  0  0  0  0  0  0  0
    7.9580   -3.3702  -49.5334 H   0  0  0  0  0  0  0  0  0  0  0  0
   10.1063   -4.0568  -50.6819 H   0  0  0  0  0  0  0  0  0  0  0  0
   11.4043   -1.7762  -53.8873 H   0  0  0  0  0  0  0  0  0  0  0  0
   11.0875   -3.9636  -55.3009 H   0  0  0  0  0  0  0  0  0  0  0  0
    9.8001   -3.3855  -56.1745 H   0  0  0  0  0  0  0  0  0  0  0  0
   12.8501   -2.5289  -56.3598 H   0  0  0  0  0  0  0  0  0  0  0  0
   11.9001   -2.5278  -57.7159 H   0  0  0  0  0  0  0  0  0  0  0  0
   11.9933   -0.2131  -55.9339 H   0  0  0  0  0  0  0  0  0  0  0  0
   10.5207   -0.3997  -56.6782 H   0  0  0  0  0  0  0  0  0  0  0  0
   11.7353    5.6665  -58.6791 H   0  0  0  0  0  0  0  0  0  0  0  0
   12.7949    4.2023  -56.5849 H   0  0  0  0  0  0  0  0  0  0  0  0
   13.1486    3.1198  -57.9740 H   0  0  0  0  0  0  0  0  0  0  0  0
   13.7584    4.8094  -57.9740 H   0  0  0  0  0  0  0  0  0  0  0  0
   11.9878    4.3318  -60.4811 H   0  0  0  0  0  0  0  0  0  0  0  0
   11.7138    2.8143  -59.5594 H   0  0  0  0  0  0  0  0  0  0  0  0
  1  2  1  0
  2  3  1  0
  3  4  1  0
  4  5  2  0
  5  6  1  0
  6  7  1  0
  7  8  2  0
  8  9  1  0
  9 10  1  0
 10 11  2  0
 11 12  1  0
 12 13  2  0
 13 14  1  0
 14 15  2  0
 15 16  1  0
 16 17  2  0
 17 18  1  0
 18 19  1  0
 19 20  1  0
 20 21  1  0
  4 22  1  0
 22 23  1  0
 23 24  1  0
 23 25  1  0
 25  2  1  0
 17  8  1  0
 21 18  1  0
 16 11  1  0
  1 26  1  0
  1 27  1  0
  1 28  1  0
  2 29  1  6
  3 30  1  0
  3 31  1  0
  5 32  1  0
  6 33  1  0
  6 34  1  0
  9 35  1  0
 12 36  1  0
 13 37  1  0
 14 38  1  0
 18 39  1  0
 19 40  1  0
 19 41  1  0
 20 42  1  0
 20 43  1  0
 21 44  1  0
 21 45  1  0
 23 46  1  6
 24 47  1  0
 24 48  1  0
 24 49  1  0
 25 50  1  0
 25 51  1  0
M  END
>  <meeko>  (295) 
{"is_sidechain": false}

$$$$

     RDKit          3D

 51 54  0  0  0  0  0  0  0  0999 V2000
   12.4110    4.0130  -59.1670 C   0  0  0  0  0  0  0  0  0  0  0  0
   11.0710    4.6800  -58.8540 C   0  0  2  0  0  0  0  0  0  0  0  0
   10.6800    4.5020  -57.3800 C   0  0  0  0  0  0  0  0  0  0  0  0
    9.6150    3.4590  -57.1870 C   0  0  0  0  0  0  0  0  0  0  0  0
    9.7220    2.4800  -56.2730 C   0  0  0  0  0  0  0  0  0  0  0  0
    8.6950    1.4220  -56.0220 C   0  0  0  0  0  0  0  0  0  0  0  0
    9.3190    0.2590  -55.4060 N   0  0  0  0  0  0  0  0  0  0  0  0
    8.7910   -0.2910  -54.3580 C   0  0  0  0  0  0  0  0  0  0  0  0
    7.6720    0.1730  -53.6910 N   0  0  0  0  0  0  0  0  0  0  0  0
    7.2010   -0.2890  -52.5040 N   0  0  0  0  0  0  0  0  0  0  0  0
    7.8500   -1.3020  -52.0140 C   0  0  0  0  0  0  0  0  0  0  0  0
    7.3870   -1.8520  -50.7170 C   0  0  0  0  0  0  0  0  0  0  0  0
    8.0170   -2.8820  -50.1540 C   0  0  0  0  0  0  0  0  0  0  0  0
    9.1780   -3.4410  -50.8610 C   0  0  0  0  0  0  0  0  0  0  0  0
    9.6620   -3.0490  -51.9900 N   0  0  0  0  0  0  0  0  0  0  0  0
    9.0430   -1.9940  -52.6310 C   0  0  0  0  0  0  0  0  0  0  0  0
    9.4740   -1.5260  -53.8230 C   0  0  0  0  0  0  0  0  0  0  0  0
   10.6470   -2.1380  -54.5230 C   0  0  0  0  0  0  0  0  0  0  0  0
   11.1520   -1.4410  -55.8250 C   0  0  0  0  0  0  0  0  0  0  0  0
   11.5020   -2.8400  -56.3600 C   0  0  0  0  0  0  0  0  0  0  0  0
   10.3870   -3.3730  -55.4430 C   0  0  0  0  0  0  0  0  0  0  0  0
    8.4670    3.5530  -57.9530 O   0  0  0  0  0  0  0  0  0  0  0  0
    8.5800    4.2580  -59.1980 C   0  0  1  0  0  0  0  0  0  0  0  0
    8.0690    5.6870  -59.0410 C   0  0  0  0  0  0  0  0  0  0  0  0
    9.9820    4.1580  -59.8020 C   0  0  0  0  0  0  0  0  0  0  0  0
   12.9223    3.7585  -58.2269 H   0  0  0  0  0  0  0  0  0  0  0  0
   12.2371    3.0963  -59.7496 H   0  0  0  0  0  0  0  0  0  0  0  0
   13.0375    4.7044  -59.7496 H   0  0  0  0  0  0  0  0  0  0  0  0
   11.1774    5.7620  -59.0212 H   0  0  0  0  0  0  0  0  0  0  0  0
   11.5733    4.2028  -56.8121 H   0  0  0  0  0  0  0  0  0  0  0  0
   10.2758    5.4611  -57.0241 H   0  0  0  0  0  0  0  0  0  0  0  0
   10.6361    2.4546  -55.6617 H   0  0  0  0  0  0  0  0  0  0  0  0
    7.9200    1.8187  -55.3496 H   0  0  0  0  0  0  0  0  0  0  0  0
    8.2415    1.1243  -56.9790 H   0  0  0  0  0  0  0  0  0  0  0  0
    7.3110    1.0820  -53.9840 H   0  0  0  0  0  0  0  0  0  0  0  0
    6.5157   -1.4056  -50.2154 H   0  0  0  0  0  0  0  0  0  0  0  0
    7.6801   -3.2995  -49.1937 H   0  0  0  0  0  0  0  0  0  0  0  0
    9.6891   -4.2848  -50.3745 H   0  0  0  0  0  0  0  0  0  0  0  0
   11.2492   -2.2002  -53.6046 H   0  0  0  0  0  0  0  0  0  0  0  0
   10.3725   -0.9140  -56.3948 H   0  0  0  0  0  0  0  0  0  0  0  0
   11.8954   -0.6307  -55.7958 H   0  0  0  0  0  0  0  0  0  0  0  0
   11.3219   -2.9812  -57.4359 H   0  0  0  0  0  0  0  0  0  0  0  0
   12.5265   -3.2392  -56.3284 H   0  0  0  0  0  0  0  0  0  0  0  0
    9.3883   -3.4000  -55.9032 H   0  0  0  0  0  0  0  0  0  0  0  0
   10.4026   -4.4004  -55.0503 H   0  0  0  0  0  0  0  0  0  0  0  0
    7.9320    3.7682  -59.9398 H   0  0  0  0  0  0  0  0  0  0  0  0
    7.9821    5.9299  -57.9717 H   0  0  0  0  0  0  0  0  0  0  0  0
    8.7739    6.3831  -59.5191 H   0  0  0  0  0  0  0  0  0  0  0  0
    7.0825    5.7783  -59.5191 H   0  0  0  0  0  0  0  0  0  0  0  0
   10.1918    3.1032  -60.0330 H   0  0  0  0  0  0  0  0  0  0  0  0
   10.0005    4.7826  -60.7073 H   0  0  0  0  0  0  0  0  0  0  0  0
  1  2  1  0
  2  3  1  0
  3  4  1  0
  4  5  2  0
  5  6  1  0
  6  7  1  0
  7  8  2  0
  8  9  1  0
  9 10  1  0
 10 11  2  0
 11 12  1  0
 12 13  2  0
 13 14  1  0
 14 15  2  0
 15 16  1  0
 16 17  2  0
 17 18  1  0
 18 19  1  0
 19 20  1  0
 20 21  1  0
  4 22  1  0
 22 23  1  0
 23 24  1  0
 23 25  1  0
 25  2  1  0
 17  8  1  0
 21 18  1  0
 16 11  1  0
  1 26  1  0
  1 27  1  0
  1 28  1  0
  2 29  1  6
  3 30  1  0
  3 31  1  0
  5 32  1  0
  6 33  1  0
  6 34  1  0
  9 35  1  0
 12 36  1  0
 13 37  1  0
 14 38  1  0
 18 39  1  0
 19 40  1  0
 19 41  1  0
 20 42  1  0
 20 43  1  0
 21 44  1  0
 21 45  1  0
 23 46  1  6
 24 47  1  0
 24 48  1  0
 24 49  1  0
 25 50  1  0
 25 51  1  0
M  END
>  <meeko>  (296) 
{"is_sidechain": false}

$$$$

     RDKit          3D

 51 54  0  0  0  0  0  0  0  0999 V2000
   10.1570    5.5740  -59.2070 C   0  0  0  0  0  0  0  0  0  0  0  0
   10.6700    4.3130  -59.9020 C   0  0  1  0  0  0  0  0  0  0  0  0
   11.1720    3.2690  -58.9020 C   0  0  0  0  0  0  0  0  0  0  0  0
   10.0320    2.5140  -58.2760 C   0  0  0  0  0  0  0  0  0  0  0  0
    9.8920    2.3710  -56.9490 C   0  0  0  0  0  0  0  0  0  0  0  0
    8.8170    1.5820  -56.2700 C   0  0  0  0  0  0  0  0  0  0  0  0
    9.4320    0.3960  -55.6900 N   0  0  0  0  0  0  0  0  0  0  0  0
    8.9000   -0.1620  -54.6510 C   0  0  0  0  0  0  0  0  0  0  0  0
    7.7650    0.2890  -54.0040 N   0  0  0  0  0  0  0  0  0  0  0  0
    7.2700   -0.1820  -52.8330 N   0  0  0  0  0  0  0  0  0  0  0  0
    7.9270   -1.1830  -52.3260 C   0  0  0  0  0  0  0  0  0  0  0  0
    7.4440   -1.7390  -51.0400 C   0  0  0  0  0  0  0  0  0  0  0  0
    8.0810   -2.7580  -50.4610 C   0  0  0  0  0  0  0  0  0  0  0  0
    9.2680   -3.2950  -51.1410 C   0  0  0  0  0  0  0  0  0  0  0  0
    9.7700   -2.8960  -52.2600 N   0  0  0  0  0  0  0  0  0  0  0  0
    9.1460   -1.8550  -52.9170 C   0  0  0  0  0  0  0  0  0  0  0  0
    9.5900   -1.3840  -54.1010 C   0  0  0  0  0  0  0  0  0  0  0  0
   10.7860   -1.9790  -54.7790 C   0  0  0  0  0  0  0  0  0  0  0  0
   11.2880   -1.2950  -56.0890 C   0  0  0  0  0  0  0  0  0  0  0  0
   11.6730   -2.6950  -56.5950 C   0  0  0  0  0  0  0  0  0  0  0  0
   10.5630   -3.2380  -55.6780 C   0  0  0  0  0  0  0  0  0  0  0  0
    9.1540    1.9060  -59.1500 O   0  0  0  0  0  0  0  0  0  0  0  0
    8.5930    2.7880  -60.1320 C   0  0  1  0  0  0  0  0  0  0  0  0
    7.4050    3.5480  -59.5420 C   0  0  0  0  0  0  0  0  0  0  0  0
    9.6340    3.6740  -60.8340 C   0  0  0  0  0  0  0  0  0  0  0  0
   10.2116    5.4397  -58.1166 H   0  0  0  0  0  0  0  0  0  0  0  0
   10.7770    6.4333  -59.5021 H   0  0  0  0  0  0  0  0  0  0  0  0
    9.1132    5.7564  -59.5021 H   0  0  0  0  0  0  0  0  0  0  0  0
   11.5145    4.6516  -60.5202 H   0  0  0  0  0  0  0  0  0  0  0  0
   11.8270    2.5576  -59.4263 H   0  0  0  0  0  0  0  0  0  0  0  0
   11.7206    3.7907  -58.1039 H   0  0  0  0  0  0  0  0  0  0  0  0
   10.6288    2.8758  -56.3070 H   0  0  0  0  0  0  0  0  0  0  0  0
    8.3523    2.1876  -55.4779 H   0  0  0  0  0  0  0  0  0  0  0  0
    8.0374    1.2960  -56.9914 H   0  0  0  0  0  0  0  0  0  0  0  0
    7.3000    1.1070  -54.3850 H   0  0  0  0  0  0  0  0  0  0  0  0
    6.5534   -1.3081  -50.5592 H   0  0  0  0  0  0  0  0  0  0  0  0
    7.7302   -3.1814  -49.5083 H   0  0  0  0  0  0  0  0  0  0  0  0
    9.7845   -4.1278  -50.6413 H   0  0  0  0  0  0  0  0  0  0  0  0
   11.3813   -2.0078  -53.8545 H   0  0  0  0  0  0  0  0  0  0  0  0
   10.5027   -0.7955  -56.6754 H   0  0  0  0  0  0  0  0  0  0  0  0
   12.0134   -0.4684  -56.0679 H   0  0  0  0  0  0  0  0  0  0  0  0
   11.5052   -2.8594  -57.6696 H   0  0  0  0  0  0  0  0  0  0  0  0
   12.7060   -3.0700  -56.5473 H   0  0  0  0  0  0  0  0  0  0  0  0
    9.5693   -3.2976  -56.1460 H   0  0  0  0  0  0  0  0  0  0  0  0
   10.5993   -4.2573  -55.2661 H   0  0  0  0  0  0  0  0  0  0  0  0
    8.2019    2.1725  -60.9556 H   0  0  0  0  0  0  0  0  0  0  0  0
    7.4572    3.5146  -58.4437 H   0  0  0  0  0  0  0  0  0  0  0  0
    7.4355    4.5947  -59.8789 H   0  0  0  0  0  0  0  0  0  0  0  0
    6.4675    3.0816  -59.8789 H   0  0  0  0  0  0  0  0  0  0  0  0
   10.1704    3.0550  -61.5682 H   0  0  0  0  0  0  0  0  0  0  0  0
    9.0754    4.5044  -61.2906 H   0  0  0  0  0  0  0  0  0  0  0  0
  1  2  1  0
  2  3  1  0
  3  4  1  0
  4  5  2  0
  5  6  1  0
  6  7  1  0
  7  8  2  0
  8  9  1  0
  9 10  1  0
 10 11  2  0
 11 12  1  0
 12 13  2  0
 13 14  1  0
 14 15  2  0
 15 16  1  0
 16 17  2  0
 17 18  1  0
 18 19  1  0
 19 20  1  0
 20 21  1  0
  4 22  1  0
 22 23  1  0
 23 24  1  0
 23 25  1  0
 25  2  1  0
 17  8  1  0
 21 18  1  0
 16 11  1  0
  1 26  1  0
  1 27  1  0
  1 28  1  0
  2 29  1  6
  3 30  1  0
  3 31  1  0
  5 32  1  0
  6 33  1  0
  6 34  1  0
  9 35  1  0
 12 36  1  0
 13 37  1  0
 14 38  1  0
 18 39  1  0
 19 40  1  0
 19 41  1  0
 20 42  1  0
 20 43  1  0
 21 44  1  0
 21 45  1  0
 23 46  1  6
 24 47  1  0
 24 48  1  0
 24 49  1  0
 25 50  1  0
 25 51  1  0
M  END
>  <meeko>  (297) 
{"is_sidechain": false}

$$$$

     RDKit          3D

 51 54  0  0  0  0  0  0  0  0999 V2000
    7.8790    4.0980  -59.8160 C   0  0  0  0  0  0  0  0  0  0  0  0
    9.1230    3.3650  -60.3260 C   0  0  2  0  0  0  0  0  0  0  0  0
    9.5890    2.2890  -59.3350 C   0  0  0  0  0  0  0  0  0  0  0  0
   10.3140    2.8930  -58.1590 C   0  0  0  0  0  0  0  0  0  0  0  0
   10.0920    2.6360  -56.8620 C   0  0  0  0  0  0  0  0  0  0  0  0
    9.0540    1.7420  -56.2600 C   0  0  0  0  0  0  0  0  0  0  0  0
    9.7100    0.5560  -55.7200 N   0  0  0  0  0  0  0  0  0  0  0  0
    9.0360   -0.2240  -54.9420 C   0  0  0  0  0  0  0  0  0  0  0  0
    7.7250    0.0300  -54.6060 N   0  0  0  0  0  0  0  0  0  0  0  0
    7.2520   -0.3970  -53.5310 N   0  0  0  0  0  0  0  0  0  0  0  0
    7.9290   -1.2590  -52.7120 C   0  0  0  0  0  0  0  0  0  0  0  0
    7.4460   -1.5940  -51.4980 C   0  0  0  0  0  0  0  0  0  0  0  0
    8.1210   -2.5770  -50.6690 C   0  0  0  0  0  0  0  0  0  0  0  0
    9.2050   -3.1900  -51.1660 C   0  0  0  0  0  0  0  0  0  0  0  0
    9.6930   -2.9010  -52.4200 N   0  0  0  0  0  0  0  0  0  0  0  0
    9.1550   -1.8970  -53.2240 C   0  0  0  0  0  0  0  0  0  0  0  0
    9.6600   -1.4590  -54.3910 C   0  0  0  0  0  0  0  0  0  0  0  0
   10.8810   -2.0560  -55.0020 C   0  0  0  0  0  0  0  0  0  0  0  0
   11.4030   -1.4190  -56.3280 C   0  0  0  0  0  0  0  0  0  0  0  0
   11.7950   -2.8370  -56.7770 C   0  0  0  0  0  0  0  0  0  0  0  0
   10.6760   -3.3490  -55.8540 C   0  0  0  0  0  0  0  0  0  0  0  0
   11.3620    3.7420  -58.4920 O   0  0  0  0  0  0  0  0  0  0  0  0
   10.9240    4.8340  -59.3140 C   0  0  1  0  0  0  0  0  0  0  0  0
   12.1460    5.6940  -59.6170 C   0  0  0  0  0  0  0  0  0  0  0  0
   10.2800    4.3310  -60.6120 C   0  0  0  0  0  0  0  0  0  0  0  0
    7.8787    4.0982  -58.7160 H   0  0  0  0  0  0  0  0  0  0  0  0
    7.8883    5.1350  -60.1828 H   0  0  0  0  0  0  0  0  0  0  0  0
    6.9764    3.5874  -60.1828 H   0  0  0  0  0  0  0  0  0  0  0  0
    8.8309    2.8799  -61.2691 H   0  0  0  0  0  0  0  0  0  0  0  0
    8.7108    1.7376  -58.9679 H   0  0  0  0  0  0  0  0  0  0  0  0
   10.2844    1.6170  -59.8592 H   0  0  0  0  0  0  0  0  0  0  0  0
   10.7571    3.1470  -56.1503 H   0  0  0  0  0  0  0  0  0  0  0  0
    8.5306    2.2749  -55.4524 H   0  0  0  0  0  0  0  0  0  0  0  0
    8.3236    1.4477  -57.0281 H   0  0  0  0  0  0  0  0  0  0  0  0
    6.5265   -1.1152  -51.1301 H   0  0  0  0  0  0  0  0  0  0  0  0
    7.7526   -2.8125  -49.6597 H   0  0  0  0  0  0  0  0  0  0  0  0
    9.7191   -3.9456  -50.5538 H   0  0  0  0  0  0  0  0  0  0  0  0
   10.5980   -3.2830  -52.6690 H   0  0  0  0  0  0  0  0  0  0  0  0
   11.4643   -2.0379  -54.0696 H   0  0  0  0  0  0  0  0  0  0  0  0
   10.6269   -0.9411  -56.9438 H   0  0  0  0  0  0  0  0  0  0  0  0
   12.1282   -0.5919  -56.3259 H   0  0  0  0  0  0  0  0  0  0  0  0
   11.6398   -3.0412  -57.8467 H   0  0  0  0  0  0  0  0  0  0  0  0
   12.8279   -3.2079  -56.7030 H   0  0  0  0  0  0  0  0  0  0  0  0
    9.6888   -3.4317  -56.3321 H   0  0  0  0  0  0  0  0  0  0  0  0
   10.7118   -4.3513  -55.4023 H   0  0  0  0  0  0  0  0  0  0  0  0
   10.1570    5.4200  -58.7865 H   0  0  0  0  0  0  0  0  0  0  0  0
   12.6084    6.0194  -58.6735 H   0  0  0  0  0  0  0  0  0  0  0  0
   12.8725    5.1070  -60.1981 H   0  0  0  0  0  0  0  0  0  0  0  0
   11.8387    6.5760  -60.1981 H   0  0  0  0  0  0  0  0  0  0  0  0
    9.8953    5.1924  -61.1777 H   0  0  0  0  0  0  0  0  0  0  0  0
   11.0446    3.7929  -61.1915 H   0  0  0  0  0  0  0  0  0  0  0  0
  1  2  1  0
  2  3  1  0
  3  4  1  0
  4  5  2  0
  5  6  1  0
  6  7  1  0
  7  8  2  0
  8  9  1  0
  9 10  2  0
 10 11  1  0
 11 12  2  0
 12 13  1  0
 13 14  2  0
 14 15  1  0
 15 16  1  0
 16 17  2  0
 17 18  1  0
 18 19  1  0
 19 20  1  0
 20 21  1  0
  4 22  1  0
 22 23  1  0
 23 24  1  0
 23 25  1  0
 25  2  1  0
 17  8  1  0
 21 18  1  0
 16 11  1  0
  1 26  1  0
  1 27  1  0
  1 28  1  0
  2 29  1  6
  3 30  1  0
  3 31  1  0
  5 32  1  0
  6 33  1  0
  6 34  1  0
 12 35  1  0
 13 36  1  0
 14 37  1  0
 15 38  1  0
 18 39  1  0
 19 40  1  0
 19 41  1  0
 20 42  1  0
 20 43  1  0
 21 44  1  0
 21 45  1  0
 23 46  1  1
 24 47  1  0
 24 48  1  0
 24 49  1  0
 25 50  1  0
 25 51  1  0
M  END
>  <meeko>  (298) 
{"is_sidechain": false}

$$$$

     RDKit          3D

 51 54  0  0  0  0  0  0  0  0999 V2000
    6.4740    0.4840  -52.5750 C   0  0  0  0  0  0  0  0  0  0  0  0
    6.9120   -0.7090  -53.4290 C   0  0  1  0  0  0  0  0  0  0  0  0
    6.8880   -0.3680  -54.9270 C   0  0  0  0  0  0  0  0  0  0  0  0
    8.1620    0.3090  -55.3640 C   0  0  0  0  0  0  0  0  0  0  0  0
    8.2420    1.4200  -56.1140 C   0  0  0  0  0  0  0  0  0  0  0  0
    7.1300    2.2390  -56.6890 C   0  0  0  0  0  0  0  0  0  0  0  0
    7.3010    2.3210  -58.1360 N   0  0  0  0  0  0  0  0  0  0  0  0
    6.2620    2.5190  -58.8740 C   0  0  0  0  0  0  0  0  0  0  0  0
    5.0080    2.6830  -58.3280 N   0  0  0  0  0  0  0  0  0  0  0  0
    3.9900    2.3570  -58.9720 N   0  0  0  0  0  0  0  0  0  0  0  0
    4.0300    2.0040  -60.2920 C   0  0  0  0  0  0  0  0  0  0  0  0
    2.9330    1.5350  -60.9230 C   0  0  0  0  0  0  0  0  0  0  0  0
    2.9490    1.2610  -62.3470 C   0  0  0  0  0  0  0  0  0  0  0  0
    4.0610    1.5540  -63.0360 C   0  0  0  0  0  0  0  0  0  0  0  0
    5.1770    2.0800  -62.4280 N   0  0  0  0  0  0  0  0  0  0  0  0
    5.2720    2.2530  -61.0460 C   0  0  0  0  0  0  0  0  0  0  0  0
    6.3790    2.6010  -60.3610 C   0  0  0  0  0  0  0  0  0  0  0  0
    7.6580    2.9070  -61.0620 C   0  0  0  0  0  0  0  0  0  0  0  0
    8.7680    1.8300  -60.9980 C   0  0  0  0  0  0  0  0  0  0  0  0
    9.7910    2.9850  -60.9710 C   0  0  0  0  0  0  0  0  0  0  0  0
    8.6670    3.8830  -60.4050 C   0  0  0  0  0  0  0  0  0  0  0  0
    9.3590   -0.2620  -54.9440 O   0  0  0  0  0  0  0  0  0  0  0  0
    9.2150   -1.4670  -54.1800 C   0  0  1  0  0  0  0  0  0  0  0  0
   10.6060   -1.8890  -53.7220 C   0  0  0  0  0  0  0  0  0  0  0  0
    8.2940   -1.2200  -52.9820 C   0  0  0  0  0  0  0  0  0  0  0  0
    6.5685    0.2267  -51.5097 H   0  0  0  0  0  0  0  0  0  0  0  0
    7.1125    1.3507  -52.8009 H   0  0  0  0  0  0  0  0  0  0  0  0
    5.4263    0.7316  -52.8009 H   0  0  0  0  0  0  0  0  0  0  0  0
    6.1877   -1.5224  -53.2748 H   0  0  0  0  0  0  0  0  0  0  0  0
    6.7623   -1.2971  -55.5023 H   0  0  0  0  0  0  0  0  0  0  0  0
    6.0520    0.3235  -55.1084 H   0  0  0  0  0  0  0  0  0  0  0  0
    9.2596    1.7747  -56.3347 H   0  0  0  0  0  0  0  0  0  0  0  0
    6.1648    1.7648  -56.4578 H   0  0  0  0  0  0  0  0  0  0  0  0
    7.1486    3.2493  -56.2542 H   0  0  0  0  0  0  0  0  0  0  0  0
    2.0121    1.3578  -60.3480 H   0  0  0  0  0  0  0  0  0  0  0  0
    2.0724    0.8246  -62.8482 H   0  0  0  0  0  0  0  0  0  0  0  0
    4.0815    1.3682  -64.1200 H   0  0  0  0  0  0  0  0  0  0  0  0
    6.0270    2.1170  -62.9790 H   0  0  0  0  0  0  0  0  0  0  0  0
    7.1479    3.1785  -61.9980 H   0  0  0  0  0  0  0  0  0  0  0  0
    8.7530    1.2088  -60.0903 H   0  0  0  0  0  0  0  0  0  0  0  0
    8.8305    1.0182  -61.7376 H   0  0  0  0  0  0  0  0  0  0  0  0
   10.6400    2.8292  -60.2892 H   0  0  0  0  0  0  0  0  0  0  0  0
   10.3625    3.2709  -61.8664 H   0  0  0  0  0  0  0  0  0  0  0  0
    8.6195    3.9227  -59.3067 H   0  0  0  0  0  0  0  0  0  0  0  0
    8.6367    4.9657  -60.5971 H   0  0  0  0  0  0  0  0  0  0  0  0
    8.7616   -2.2653  -54.7860 H   0  0  0  0  0  0  0  0  0  0  0  0
   10.6424   -1.9000  -52.6227 H   0  0  0  0  0  0  0  0  0  0  0  0
   10.8290   -2.8952  -54.1064 H   0  0  0  0  0  0  0  0  0  0  0  0
   11.3505   -1.1763  -54.1064 H   0  0  0  0  0  0  0  0  0  0  0  0
    8.1652   -2.1626  -52.4298 H   0  0  0  0  0  0  0  0  0  0  0  0
    8.7561   -0.4524  -52.3438 H   0  0  0  0  0  0  0  0  0  0  0  0
  1  2  1  0
  2  3  1  0
  3  4  1  0
  4  5  2  0
  5  6  1  0
  6  7  1  0
  7  8  2  0
  8  9  1  0
  9 10  2  0
 10 11  1  0
 11 12  2  0
 12 13  1  0
 13 14  2  0
 14 15  1  0
 15 16  1  0
 16 17  2  0
 17 18  1  0
 18 19  1  0
 19 20  1  0
 20 21  1  0
  4 22  1  0
 22 23  1  0
 23 24  1  0
 23 25  1  0
 25  2  1  0
 17  8  1  0
 21 18  1  0
 16 11  1  0
  1 26  1  0
  1 27  1  0
  1 28  1  0
  2 29  1  6
  3 30  1  0
  3 31  1  0
  5 32  1  0
  6 33  1  0
  6 34  1  0
 12 35  1  0
 13 36  1  0
 14 37  1  0
 15 38  1  0
 18 39  1  0
 19 40  1  0
 19 41  1  0
 20 42  1  0
 20 43  1  0
 21 44  1  0
 21 45  1  0
 23 46  1  6
 24 47  1  0
 24 48  1  0
 24 49  1  0
 25 50  1  0
 25 51  1  0
M  END
>  <meeko>  (299) 
{"is_sidechain": false}

$$$$

     RDKit          3D

 51 54  0  0  0  0  0  0  0  0999 V2000
    6.8880   -3.4590  -50.1800 C   0  0  0  0  0  0  0  0  0  0  0  0
    7.7990   -2.5020  -50.9410 C   0  0  2  0  0  0  0  0  0  0  0  0
    7.1770   -2.0800  -52.2780 C   0  0  0  0  0  0  0  0  0  0  0  0
    8.1190   -1.1630  -53.0190 C   0  0  0  0  0  0  0  0  0  0  0  0
    7.6850   -0.1620  -53.8010 C   0  0  0  0  0  0  0  0  0  0  0  0
    8.5640    0.7860  -54.5580 C   0  0  0  0  0  0  0  0  0  0  0  0
    7.9500    1.0680  -55.8540 N   0  0  0  0  0  0  0  0  0  0  0  0
    8.4830    1.9800  -56.6000 C   0  0  0  0  0  0  0  0  0  0  0  0
    9.5850    2.6950  -56.1970 N   0  0  0  0  0  0  0  0  0  0  0  0
   10.3100    3.2850  -57.0210 N   0  0  0  0  0  0  0  0  0  0  0  0
   10.0040    3.3860  -58.3470 C   0  0  0  0  0  0  0  0  0  0  0  0
   10.8760    3.9520  -59.2090 C   0  0  0  0  0  0  0  0  0  0  0  0
   10.5340    4.1450  -60.6050 C   0  0  0  0  0  0  0  0  0  0  0  0
    9.3040    3.7970  -61.0060 C   0  0  0  0  0  0  0  0  0  0  0  0
    8.3850    3.2510  -60.1400 N   0  0  0  0  0  0  0  0  0  0  0  0
    8.6720    2.9480  -58.8090 C   0  0  0  0  0  0  0  0  0  0  0  0
    7.8780    2.3000  -57.9340 C   0  0  0  0  0  0  0  0  0  0  0  0
    6.4970    1.8060  -58.2170 C   0  0  0  0  0  0  0  0  0  0  0  0
    6.2240    1.0840  -59.5550 C   0  0  0  0  0  0  0  0  0  0  0  0
    4.8300    1.7450  -59.5560 C   0  0  0  0  0  0  0  0  0  0  0  0
    5.3870    2.8150  -58.5920 C   0  0  0  0  0  0  0  0  0  0  0  0
    9.4780   -1.3550  -52.8250 O   0  0  0  0  0  0  0  0  0  0  0  0
    9.7980   -2.7140  -52.5100 C   0  0  1  0  0  0  0  0  0  0  0  0
   11.3140   -2.8540  -52.5090 C   0  0  0  0  0  0  0  0  0  0  0  0
    9.1980   -3.1070  -51.1530 C   0  0  0  0  0  0  0  0  0  0  0  0
    7.0258   -3.3142  -49.0983 H   0  0  0  0  0  0  0  0  0  0  0  0
    5.8400   -3.2573  -50.4463 H   0  0  0  0  0  0  0  0  0  0  0  0
    7.1410   -4.4958  -50.4463 H   0  0  0  0  0  0  0  0  0  0  0  0
    7.9127   -1.5991  -50.3230 H   0  0  0  0  0  0  0  0  0  0  0  0
    6.9840   -2.9745  -52.8884 H   0  0  0  0  0  0  0  0  0  0  0  0
    6.2331   -1.5490  -52.0855 H   0  0  0  0  0  0  0  0  0  0  0  0
    6.5972   -0.0270  -53.8934 H   0  0  0  0  0  0  0  0  0  0  0  0
    8.6737    1.7215  -53.9899 H   0  0  0  0  0  0  0  0  0  0  0  0
    9.5570    0.3365  -54.7058 H   0  0  0  0  0  0  0  0  0  0  0  0
   11.8636    4.2724  -58.8456 H   0  0  0  0  0  0  0  0  0  0  0  0
   11.2630    4.5648  -61.3138 H   0  0  0  0  0  0  0  0  0  0  0  0
    9.0208    3.9522  -62.0575 H   0  0  0  0  0  0  0  0  0  0  0  0
    7.5190    2.9190  -60.5410 H   0  0  0  0  0  0  0  0  0  0  0  0
    6.4658    1.2679  -57.2581 H   0  0  0  0  0  0  0  0  0  0  0  0
    6.8779    1.3929  -60.3838 H   0  0  0  0  0  0  0  0  0  0  0  0
    6.3464   -0.0042  -59.6586 H   0  0  0  0  0  0  0  0  0  0  0  0
    4.5112    2.1346  -60.5340 H   0  0  0  0  0  0  0  0  0  0  0  0
    3.9248    1.1703  -59.3106 H   0  0  0  0  0  0  0  0  0  0  0  0
    5.7471    3.7312  -59.0828 H   0  0  0  0  0  0  0  0  0  0  0  0
    4.7544    3.2887  -57.8269 H   0  0  0  0  0  0  0  0  0  0  0  0
    9.3675   -3.3932  -53.2605 H   0  0  0  0  0  0  0  0  0  0  0  0
   11.6784   -2.8877  -51.4717 H   0  0  0  0  0  0  0  0  0  0  0  0
   11.5969   -3.7821  -53.0273 H   0  0  0  0  0  0  0  0  0  0  0  0
   11.7620   -1.9934  -53.0273 H   0  0  0  0  0  0  0  0  0  0  0  0
    9.1215   -4.2032  -51.1032 H   0  0  0  0  0  0  0  0  0  0  0  0
    9.8586   -2.7165  -50.3649 H   0  0  0  0  0  0  0  0  0  0  0  0
  1  2  1  0
  2  3  1  0
  3  4  1  0
  4  5  2  0
  5  6  1  0
  6  7  1  0
  7  8  2  0
  8  9  1  0
  9 10  2  0
 10 11  1  0
 11 12  2  0
 12 13  1  0
 13 14  2  0
 14 15  1  0
 15 16  1  0
 16 17  2  0
 17 18  1  0
 18 19  1  0
 19 20  1  0
 20 21  1  0
  4 22  1  0
 22 23  1  0
 23 24  1  0
 23 25  1  0
 25  2  1  0
 17  8  1  0
 21 18  1  0
 16 11  1  0
  1 26  1  0
  1 27  1  0
  1 28  1  0
  2 29  1  1
  3 30  1  0
  3 31  1  0
  5 32  1  0
  6 33  1  0
  6 34  1  0
 12 35  1  0
 13 36  1  0
 14 37  1  0
 15 38  1  0
 18 39  1  0
 19 40  1  0
 19 41  1  0
 20 42  1  0
 20 43  1  0
 21 44  1  0
 21 45  1  0
 23 46  1  6
 24 47  1  0
 24 48  1  0
 24 49  1  0
 25 50  1  0
 25 51  1  0
M  END
>  <meeko>  (300) 
{"is_sidechain": false}

$$$$

     RDKit          3D

 51 54  0  0  0  0  0  0  0  0999 V2000
   10.7580    5.5830  -58.8330 C   0  0  0  0  0  0  0  0  0  0  0  0
   11.1030    4.2830  -59.5630 C   0  0  1  0  0  0  0  0  0  0  0  0
   11.5400    3.1840  -58.5820 C   0  0  0  0  0  0  0  0  0  0  0  0
   10.3580    2.4330  -58.0270 C   0  0  0  0  0  0  0  0  0  0  0  0
   10.2050    2.2050  -56.7130 C   0  0  0  0  0  0  0  0  0  0  0  0
    9.0610    1.4750  -56.0790 C   0  0  0  0  0  0  0  0  0  0  0  0
    9.5500    0.2180  -55.5200 N   0  0  0  0  0  0  0  0  0  0  0  0
    8.8880   -0.3580  -54.5720 C   0  0  0  0  0  0  0  0  0  0  0  0
    7.7300    0.1890  -54.0720 N   0  0  0  0  0  0  0  0  0  0  0  0
    7.2690   -0.1630  -52.9710 N   0  0  0  0  0  0  0  0  0  0  0  0
    7.7910   -1.1830  -52.2300 C   0  0  0  0  0  0  0  0  0  0  0  0
    7.2980   -1.4600  -51.0040 C   0  0  0  0  0  0  0  0  0  0  0  0
    7.7890   -2.5840  -50.2320 C   0  0  0  0  0  0  0  0  0  0  0  0
    8.7150   -3.3740  -50.7900 C   0  0  0  0  0  0  0  0  0  0  0  0
    9.2110   -3.1340  -52.0500 N   0  0  0  0  0  0  0  0  0  0  0  0
    8.8490   -2.0280  -52.8190 C   0  0  0  0  0  0  0  0  0  0  0  0
    9.3680   -1.6600  -54.0070 C   0  0  0  0  0  0  0  0  0  0  0  0
   10.4270   -2.4040  -54.7570 C   0  0  0  0  0  0  0  0  0  0  0  0
   10.0800   -3.7520  -55.4320 C   0  0  0  0  0  0  0  0  0  0  0  0
   11.4970   -4.2330  -55.0490 C   0  0  0  0  0  0  0  0  0  0  0  0
   11.5260   -3.1400  -53.9590 C   0  0  0  0  0  0  0  0  0  0  0  0
    9.3950    1.9990  -58.9230 O   0  0  0  0  0  0  0  0  0  0  0  0
    9.6660    2.3210  -60.2940 C   0  0  1  0  0  0  0  0  0  0  0  0
    8.4520    1.8940  -61.1120 C   0  0  0  0  0  0  0  0  0  0  0  0
    9.9240    3.8230  -60.4430 C   0  0  0  0  0  0  0  0  0  0  0  0
   10.8022    5.4163  -57.7466 H   0  0  0  0  0  0  0  0  0  0  0  0
   11.4800    6.3639  -59.1138 H   0  0  0  0  0  0  0  0  0  0  0  0
    9.7438    5.9032  -59.1138 H   0  0  0  0  0  0  0  0  0  0  0  0
   11.9596    4.4822  -60.2238 H   0  0  0  0  0  0  0  0  0  0  0  0
   12.1971    2.4763  -59.1086 H   0  0  0  0  0  0  0  0  0  0  0  0
   12.0681    3.6618  -57.7437 H   0  0  0  0  0  0  0  0  0  0  0  0
   10.9887    2.5880  -56.0429 H   0  0  0  0  0  0  0  0  0  0  0  0
    8.6290    2.0918  -55.2772 H   0  0  0  0  0  0  0  0  0  0  0  0
    8.2873    1.2699  -56.8336 H   0  0  0  0  0  0  0  0  0  0  0  0
    6.5084   -0.8202  -50.5830 H   0  0  0  0  0  0  0  0  0  0  0  0
    7.4121   -2.7822  -49.2178 H   0  0  0  0  0  0  0  0  0  0  0  0
    9.0897   -4.2398  -50.2243 H   0  0  0  0  0  0  0  0  0  0  0  0
    9.9720   -3.7200  -52.3630 H   0  0  0  0  0  0  0  0  0  0  0  0
   10.6575   -1.5162  -55.3642 H   0  0  0  0  0  0  0  0  0  0  0  0
    9.2615   -4.3081  -54.9516 H   0  0  0  0  0  0  0  0  0  0  0  0
    9.7127   -3.8023  -56.4676 H   0  0  0  0  0  0  0  0  0  0  0  0
   11.5397   -5.2622  -54.6631 H   0  0  0  0  0  0  0  0  0  0  0  0
   12.2961   -4.3108  -55.8009 H   0  0  0  0  0  0  0  0  0  0  0  0
   11.2163   -3.4809  -52.9600 H   0  0  0  0  0  0  0  0  0  0  0  0
   12.4614   -2.6395  -53.6683 H   0  0  0  0  0  0  0  0  0  0  0  0
   10.5654    1.7964  -60.6489 H   0  0  0  0  0  0  0  0  0  0  0  0
    7.6353    1.6067  -60.4334 H   0  0  0  0  0  0  0  0  0  0  0  0
    8.1245    2.7309  -61.7463 H   0  0  0  0  0  0  0  0  0  0  0  0
    8.7205    1.0364  -61.7463 H   0  0  0  0  0  0  0  0  0  0  0  0
   10.1561    4.0433  -61.4954 H   0  0  0  0  0  0  0  0  0  0  0  0
    9.0212    4.3622  -60.1203 H   0  0  0  0  0  0  0  0  0  0  0  0
  1  2  1  0
  2  3  1  0
  3  4  1  0
  4  5  2  0
  5  6  1  0
  6  7  1  0
  7  8  2  0
  8  9  1  0
  9 10  2  0
 10 11  1  0
 11 12  2  0
 12 13  1  0
 13 14  2  0
 14 15  1  0
 15 16  1  0
 16 17  2  0
 17 18  1  0
 18 19  1  0
 19 20  1  0
 20 21  1  0
  4 22  1  0
 22 23  1  0
 23 24  1  0
 23 25  1  0
 25  2  1  0
 17  8  1  0
 21 18  1  0
 16 11  1  0
  1 26  1  0
  1 27  1  0
  1 28  1  0
  2 29  1  6
  3 30  1  0
  3 31  1  0
  5 32  1  0
  6 33  1  0
  6 34  1  0
 12 35  1  0
 13 36  1  0
 14 37  1  0
 15 38  1  0
 18 39  1  0
 19 40  1  0
 19 41  1  0
 20 42  1  0
 20 43  1  0
 21 44  1  0
 21 45  1  0
 23 46  1  6
 24 47  1  0
 24 48  1  0
 24 49  1  0
 25 50  1  0
 25 51  1  0
M  END
>  <meeko>  (301) 
{"is_sidechain": false}

$$$$

     RDKit          3D

 35 38  0  0  0  0  0  0  0  0999 V2000
    8.4220   -0.4700  -54.1320 C   0  0  0  0  0  0  0  0  0  0  0  0
    7.0270   -0.6270  -54.1970 C   0  0  0  0  0  0  0  0  0  0  0  0
    6.2050    0.0550  -55.0350 N   0  0  0  0  0  0  0  0  0  0  0  0
    6.8520    0.9210  -55.8250 C   0  0  0  0  0  0  0  0  0  0  0  0
    8.2420    1.1500  -55.8370 C   0  0  0  0  0  0  0  0  0  0  0  0
    9.0560    0.4460  -54.9770 C   0  0  0  0  0  0  0  0  0  0  0  0
    8.5700    2.1900  -56.8600 C   0  0  0  0  0  0  0  0  0  0  0  0
    9.7580    2.6120  -57.1070 N   0  0  0  0  0  0  0  0  0  0  0  0
    9.9570    3.6430  -58.1280 C   0  0  0  0  0  0  0  0  0  0  0  0
   11.2280    4.4300  -57.7530 C   0  0  0  0  0  0  0  0  0  0  0  0
   11.9530    5.0350  -58.9590 C   0  0  0  0  0  0  0  0  0  0  0  0
   11.0040    5.3150  -60.1160 C   0  0  0  0  0  0  0  0  0  0  0  0
   10.3100    4.0410  -60.6030 C   0  0  0  0  0  0  0  0  0  0  0  0
   10.1180    2.9930  -59.5030 C   0  0  0  0  0  0  0  0  0  0  0  0
    7.2730    2.5300  -57.4250 C   0  0  0  0  0  0  0  0  0  0  0  0
    6.7850    3.3420  -58.3590 N   0  0  0  0  0  0  0  0  0  0  0  0
    5.4470    3.0770  -58.3050 N   0  0  0  0  0  0  0  0  0  0  0  0
    5.0920    2.1250  -57.3710 C   0  0  0  0  0  0  0  0  0  0  0  0
    6.2740    1.7730  -56.8030 C   0  0  0  0  0  0  0  0  0  0  0  0
    9.0124   -1.0650  -53.4197 H   0  0  0  0  0  0  0  0  0  0  0  0
    6.5659   -1.3584  -53.5169 H   0  0  0  0  0  0  0  0  0  0  0  0
   10.1455    0.5963  -54.9562 H   0  0  0  0  0  0  0  0  0  0  0  0
    9.0898    4.3183  -58.1732 H   0  0  0  0  0  0  0  0  0  0  0  0
   10.9435    5.2464  -57.0729 H   0  0  0  0  0  0  0  0  0  0  0  0
   11.9220    3.7171  -57.2838 H   0  0  0  0  0  0  0  0  0  0  0  0
   12.4259    5.9794  -58.6515 H   0  0  0  0  0  0  0  0  0  0  0  0
   12.7024    4.3074  -59.3039 H   0  0  0  0  0  0  0  0  0  0  0  0
   10.2391    6.0322  -59.7835 H   0  0  0  0  0  0  0  0  0  0  0  0
   11.5932    5.7236  -60.9502 H   0  0  0  0  0  0  0  0  0  0  0  0
    9.3214    4.3132  -61.0013 H   0  0  0  0  0  0  0  0  0  0  0  0
   10.9584    3.5914  -61.3695 H   0  0  0  0  0  0  0  0  0  0  0  0
    9.2174    2.4021  -59.7262 H   0  0  0  0  0  0  0  0  0  0  0  0
   11.0120    2.3525  -59.4782 H   0  0  0  0  0  0  0  0  0  0  0  0
    4.8360    3.5820  -58.9380 H   0  0  0  0  0  0  0  0  0  0  0  0
    4.0871    1.7413  -57.1407 H   0  0  0  0  0  0  0  0  0  0  0  0
  1  2  1  0
  2  3  2  0
  3  4  1  0
  4  5  2  0
  5  6  1  0
  5  7  1  0
  7  8  2  0
  8  9  1  0
  9 10  1  0
 10 11  1  0
 11 12  1  0
 12 13  1  0
 13 14  1  0
  7 15  1  0
 15 16  2  0
 16 17  1  0
 17 18  1  0
 18 19  2  0
  6  1  2  0
 14  9  1  0
 19 15  1  0
 19  4  1  0
  1 20  1  0
  2 21  1  0
  6 22  1  0
  9 23  1  0
 10 24  1  0
 10 25  1  0
 11 26  1  0
 11 27  1  0
 12 28  1  0
 12 29  1  0
 13 30  1  0
 13 31  1  0
 14 32  1  0
 14 33  1  0
 17 34  1  0
 18 35  1  0
M  END
>  <meeko>  (302) 
{"is_sidechain": false}

$$$$

     RDKit          3D

 35 38  0  0  0  0  0  0  0  0999 V2000
    5.1480    2.1900  -62.8930 C   0  0  0  0  0  0  0  0  0  0  0  0
    4.1110    1.7850  -62.0360 C   0  0  0  0  0  0  0  0  0  0  0  0
    4.1630    1.8210  -60.6790 N   0  0  0  0  0  0  0  0  0  0  0  0
    5.3220    2.2900  -60.2000 C   0  0  0  0  0  0  0  0  0  0  0  0
    6.4130    2.7170  -60.9770 C   0  0  0  0  0  0  0  0  0  0  0  0
    6.3420    2.6730  -62.3500 C   0  0  0  0  0  0  0  0  0  0  0  0
    7.4970    3.1600  -60.0590 C   0  0  0  0  0  0  0  0  0  0  0  0
    8.6280    3.6080  -60.4540 N   0  0  0  0  0  0  0  0  0  0  0  0
    9.6570    4.0120  -59.5010 C   0  0  0  0  0  0  0  0  0  0  0  0
   10.6270    4.9900  -60.1740 C   0  0  0  0  0  0  0  0  0  0  0  0
   11.8040    5.3280  -59.2630 C   0  0  0  0  0  0  0  0  0  0  0  0
   12.5320    4.0720  -58.7950 C   0  0  0  0  0  0  0  0  0  0  0  0
   11.5770    3.0780  -58.1400 C   0  0  0  0  0  0  0  0  0  0  0  0
   10.3990    2.7460  -59.0530 C   0  0  0  0  0  0  0  0  0  0  0  0
    6.9280    2.9510  -58.7630 C   0  0  0  0  0  0  0  0  0  0  0  0
    7.2180    3.0950  -57.4520 N   0  0  0  0  0  0  0  0  0  0  0  0
    6.1940    2.6960  -56.6530 N   0  0  0  0  0  0  0  0  0  0  0  0
    5.2350    2.2960  -57.5100 C   0  0  0  0  0  0  0  0  0  0  0  0
    5.6530    2.4400  -58.8210 C   0  0  0  0  0  0  0  0  0  0  0  0
    5.0212    2.1274  -63.9839 H   0  0  0  0  0  0  0  0  0  0  0  0
    3.1864    1.4101  -62.4992 H   0  0  0  0  0  0  0  0  0  0  0  0
    7.1784    2.9998  -62.9853 H   0  0  0  0  0  0  0  0  0  0  0  0
    9.2100    4.5163  -58.6316 H   0  0  0  0  0  0  0  0  0  0  0  0
   11.0104    4.5336  -61.0985 H   0  0  0  0  0  0  0  0  0  0  0  0
   10.0821    5.9202  -60.3926 H   0  0  0  0  0  0  0  0  0  0  0  0
   12.5107    5.9653  -59.8148 H   0  0  0  0  0  0  0  0  0  0  0  0
   11.4137    5.8493  -58.3765 H   0  0  0  0  0  0  0  0  0  0  0  0
   13.0073    3.5911  -59.6626 H   0  0  0  0  0  0  0  0  0  0  0  0
   13.2835    4.3689  -58.0486 H   0  0  0  0  0  0  0  0  0  0  0  0
   12.1256    2.1518  -57.9138 H   0  0  0  0  0  0  0  0  0  0  0  0
   11.1820    3.5348  -57.2206 H   0  0  0  0  0  0  0  0  0  0  0  0
   10.7743    2.2187  -59.9424 H   0  0  0  0  0  0  0  0  0  0  0  0
    9.6948    2.1155  -58.4903 H   0  0  0  0  0  0  0  0  0  0  0  0
    8.0610    3.4510  -57.0130 H   0  0  0  0  0  0  0  0  0  0  0  0
    4.2514    1.9070  -57.2081 H   0  0  0  0  0  0  0  0  0  0  0  0
  1  2  1  0
  2  3  2  0
  3  4  1  0
  4  5  2  0
  5  6  1  0
  5  7  1  0
  7  8  2  0
  8  9  1  0
  9 10  1  0
 10 11  1  0
 11 12  1  0
 12 13  1  0
 13 14  1  0
  7 15  1  0
 15 16  1  0
 16 17  1  0
 17 18  2  0
 18 19  1  0
  6  1  2  0
 14  9  1  0
 19 15  2  0
 19  4  1  0
  1 20  1  0
  2 21  1  0
  6 22  1  0
  9 23  1  0
 10 24  1  0
 10 25  1  0
 11 26  1  0
 11 27  1  0
 12 28  1  0
 12 29  1  0
 13 30  1  0
 13 31  1  0
 14 32  1  0
 14 33  1  0
 16 34  1  0
 18 35  1  0
M  END
>  <meeko>  (303) 
{"is_sidechain": false}

$$$$

     RDKit          3D

 35 38  0  0  0  0  0  0  0  0999 V2000
    6.7870    2.5420  -56.4900 C   0  0  0  0  0  0  0  0  0  0  0  0
    5.5330    2.0380  -56.8610 C   0  0  0  0  0  0  0  0  0  0  0  0
    5.0970    1.9310  -58.1370 N   0  0  0  0  0  0  0  0  0  0  0  0
    5.9820    2.3610  -59.0460 C   0  0  0  0  0  0  0  0  0  0  0  0
    7.2700    2.8920  -58.7900 C   0  0  0  0  0  0  0  0  0  0  0  0
    7.6820    2.9780  -57.4770 C   0  0  0  0  0  0  0  0  0  0  0  0
    7.9190    3.2390  -60.1070 C   0  0  0  0  0  0  0  0  0  0  0  0
    9.0440    3.7440  -60.4480 N   0  0  0  0  0  0  0  0  0  0  0  0
   10.0580    4.1630  -59.4970 C   0  0  0  0  0  0  0  0  0  0  0  0
   10.9220    5.2340  -60.1800 C   0  0  0  0  0  0  0  0  0  0  0  0
   12.0900    5.6610  -59.2970 C   0  0  0  0  0  0  0  0  0  0  0  0
   12.9370    4.4660  -58.8680 C   0  0  0  0  0  0  0  0  0  0  0  0
   12.0890    3.3820  -58.2090 C   0  0  0  0  0  0  0  0  0  0  0  0
   10.9230    2.9620  -59.1010 C   0  0  0  0  0  0  0  0  0  0  0  0
    6.9140    2.8560  -61.0890 C   0  0  0  0  0  0  0  0  0  0  0  0
    6.7890    2.8670  -62.4140 N   0  0  0  0  0  0  0  0  0  0  0  0
    5.5410    2.3450  -62.5910 N   0  0  0  0  0  0  0  0  0  0  0  0
    4.8940    2.0130  -61.4190 C   0  0  0  0  0  0  0  0  0  0  0  0
    5.7850    2.3470  -60.4510 C   0  0  0  0  0  0  0  0  0  0  0  0
    7.0680    2.5953  -55.4278 H   0  0  0  0  0  0  0  0  0  0  0  0
    4.8567    1.7066  -56.0593 H   0  0  0  0  0  0  0  0  0  0  0  0
    8.6743    3.3733  -57.2142 H   0  0  0  0  0  0  0  0  0  0  0  0
    9.5939    4.5694  -58.5862 H   0  0  0  0  0  0  0  0  0  0  0  0
   11.3173    4.8262  -61.1221 H   0  0  0  0  0  0  0  0  0  0  0  0
   10.2920    6.1161  -60.3671 H   0  0  0  0  0  0  0  0  0  0  0  0
   12.7231    6.3641  -59.8581 H   0  0  0  0  0  0  0  0  0  0  0  0
   11.6817    6.1354  -58.3925 H   0  0  0  0  0  0  0  0  0  0  0  0
   13.4312    4.0424  -59.7548 H   0  0  0  0  0  0  0  0  0  0  0  0
   13.6778    4.8160  -58.1340 H   0  0  0  0  0  0  0  0  0  0  0  0
   12.7218    2.5042  -58.0115 H   0  0  0  0  0  0  0  0  0  0  0  0
   11.6778    3.7878  -57.2729 H   0  0  0  0  0  0  0  0  0  0  0  0
   11.3214    2.4924  -60.0125 H   0  0  0  0  0  0  0  0  0  0  0  0
   10.2953    2.2551  -58.5385 H   0  0  0  0  0  0  0  0  0  0  0  0
    5.1980    2.2440  -63.5400 H   0  0  0  0  0  0  0  0  0  0  0  0
    3.8906    1.5790  -61.2972 H   0  0  0  0  0  0  0  0  0  0  0  0
  1  2  1  0
  2  3  2  0
  3  4  1  0
  4  5  2  0
  5  6  1  0
  5  7  1  0
  7  8  2  0
  8  9  1  0
  9 10  1  0
 10 11  1  0
 11 12  1  0
 12 13  1  0
 13 14  1  0
  7 15  1  0
 15 16  2  0
 16 17  1  0
 17 18  1  0
 18 19  2  0
  6  1  2  0
 14  9  1  0
 19 15  1  0
 19  4  1  0
  1 20  1  0
  2 21  1  0
  6 22  1  0
  9 23  1  0
 10 24  1  0
 10 25  1  0
 11 26  1  0
 11 27  1  0
 12 28  1  0
 12 29  1  0
 13 30  1  0
 13 31  1  0
 14 32  1  0
 14 33  1  0
 17 34  1  0
 18 35  1  0
M  END
>  <meeko>  (304) 
{"is_sidechain": false}

$$$$

     RDKit          3D

 35 38  0  0  0  0  0  0  0  0999 V2000
    6.9860    2.9000  -61.7610 C   0  0  0  0  0  0  0  0  0  0  0  0
    5.8460    2.2480  -61.2760 C   0  0  0  0  0  0  0  0  0  0  0  0
    5.7060    1.7940  -60.0100 N   0  0  0  0  0  0  0  0  0  0  0  0
    6.7740    2.0230  -59.2300 C   0  0  0  0  0  0  0  0  0  0  0  0
    7.9760    2.6690  -59.6110 C   0  0  0  0  0  0  0  0  0  0  0  0
    8.0790    3.1170  -60.9110 C   0  0  0  0  0  0  0  0  0  0  0  0
    8.8720    2.6920  -58.4110 C   0  0  0  0  0  0  0  0  0  0  0  0
   10.0380    3.1160  -58.1240 N   0  0  0  0  0  0  0  0  0  0  0  0
   11.0050    3.8010  -58.9650 C   0  0  0  0  0  0  0  0  0  0  0  0
   10.6250    5.2600  -59.2230 C   0  0  0  0  0  0  0  0  0  0  0  0
   11.6720    5.9750  -60.0720 C   0  0  0  0  0  0  0  0  0  0  0  0
   13.0800    5.7980  -59.5110 C   0  0  0  0  0  0  0  0  0  0  0  0
   13.4460    4.3230  -59.3770 C   0  0  0  0  0  0  0  0  0  0  0  0
   12.4450    3.5640  -58.5090 C   0  0  0  0  0  0  0  0  0  0  0  0
    8.0830    2.0380  -57.4170 C   0  0  0  0  0  0  0  0  0  0  0  0
    8.1760    1.6770  -56.1210 N   0  0  0  0  0  0  0  0  0  0  0  0
    7.0460    1.0480  -55.6940 N   0  0  0  0  0  0  0  0  0  0  0  0
    6.2440    1.0310  -56.7780 C   0  0  0  0  0  0  0  0  0  0  0  0
    6.8560    1.6360  -57.8610 C   0  0  0  0  0  0  0  0  0  0  0  0
    7.0238    3.2410  -62.8061 H   0  0  0  0  0  0  0  0  0  0  0  0
    5.0078    2.0947  -61.9716 H   0  0  0  0  0  0  0  0  0  0  0  0
    8.9863    3.6263  -61.2680 H   0  0  0  0  0  0  0  0  0  0  0  0
   10.9657    3.3397  -59.9628 H   0  0  0  0  0  0  0  0  0  0  0  0
    9.6593    5.2891  -59.7490 H   0  0  0  0  0  0  0  0  0  0  0  0
   10.5614    5.7742  -58.2527 H   0  0  0  0  0  0  0  0  0  0  0  0
   11.6421    5.5653  -61.0924 H   0  0  0  0  0  0  0  0  0  0  0  0
   11.4370    7.0496  -60.0680 H   0  0  0  0  0  0  0  0  0  0  0  0
   13.7982    6.2847  -60.1873 H   0  0  0  0  0  0  0  0  0  0  0  0
   13.1134    6.2546  -58.5108 H   0  0  0  0  0  0  0  0  0  0  0  0
   13.4641    3.8688  -60.3787 H   0  0  0  0  0  0  0  0  0  0  0  0
   14.4324    4.2592  -58.8944 H   0  0  0  0  0  0  0  0  0  0  0  0
   12.6652    2.4880  -58.5693 H   0  0  0  0  0  0  0  0  0  0  0  0
   12.5415    3.9296  -57.4760 H   0  0  0  0  0  0  0  0  0  0  0  0
    8.9460    1.8150  -55.4750 H   0  0  0  0  0  0  0  0  0  0  0  0
    5.2351    0.5933  -56.7983 H   0  0  0  0  0  0  0  0  0  0  0  0
  1  2  1  0
  2  3  2  0
  3  4  1  0
  4  5  2  0
  5  6  1  0
  5  7  1  0
  7  8  2  0
  8  9  1  0
  9 10  1  0
 10 11  1  0
 11 12  1  0
 12 13  1  0
 13 14  1  0
  7 15  1  0
 15 16  1  0
 16 17  1  0
 17 18  2  0
 18 19  1  0
  6  1  2  0
 14  9  1  0
 19 15  2  0
 19  4  1  0
  1 20  1  0
  2 21  1  0
  6 22  1  0
  9 23  1  0
 10 24  1  0
 10 25  1  0
 11 26  1  0
 11 27  1  0
 12 28  1  0
 12 29  1  0
 13 30  1  0
 13 31  1  0
 14 32  1  0
 14 33  1  0
 16 34  1  0
 18 35  1  0
M  END
>  <meeko>  (305) 
{"is_sidechain": false}

$$$$

     RDKit          3D

 39 42  0  0  0  0  0  0  0  0999 V2000
   11.5900    4.5420  -57.2300 N   0  0  0  0  0  0  0  0  0  0  0  0
   11.8110    5.1000  -58.5950 C   0  0  0  0  0  0  0  0  0  0  0  0
   10.4710    5.5340  -59.1990 C   0  0  0  0  0  0  0  0  0  0  0  0
    9.9650    4.5650  -60.2710 C   0  0  0  0  0  0  0  0  0  0  0  0
   10.2650    3.1770  -59.8980 N   0  0  0  0  0  0  0  0  0  0  0  0
    9.4670    2.6350  -58.9330 C   0  0  0  0  0  0  0  0  0  0  0  0
    9.8750    2.3890  -57.7030 N   0  0  0  0  0  0  0  0  0  0  0  0
    8.7590    1.9470  -57.0280 C   0  0  0  0  0  0  0  0  0  0  0  0
    8.8550    1.5450  -55.3790 Cl  0  0  0  0  0  0  0  0  0  0  0  0
    7.6640    1.9270  -57.8560 C   0  0  0  0  0  0  0  0  0  0  0  0
    6.3000    1.5790  -57.6100 C   0  0  0  0  0  0  0  0  0  0  0  0
    5.8550    1.2410  -56.5190 O   0  0  0  0  0  0  0  0  0  0  0  0
    5.4830    1.6580  -58.7090 N   0  0  0  0  0  0  0  0  0  0  0  0
    5.9150    2.0210  -59.9990 C   0  0  0  0  0  0  0  0  0  0  0  0
    5.0060    2.0410  -61.0660 C   0  0  0  0  0  0  0  0  0  0  0  0
    3.3430    1.6440  -60.8320 Cl  0  0  0  0  0  0  0  0  0  0  0  0
    5.4390    2.3820  -62.3470 C   0  0  0  0  0  0  0  0  0  0  0  0
    6.7800    2.6990  -62.5680 C   0  0  0  0  0  0  0  0  0  0  0  0
    7.6950    2.6850  -61.5110 C   0  0  0  0  0  0  0  0  0  0  0  0
    7.2620    2.3590  -60.2230 C   0  0  0  0  0  0  0  0  0  0  0  0
    8.1200    2.3250  -59.0970 N   0  0  0  0  0  0  0  0  0  0  0  0
   11.7010    2.8580  -59.8130 C   0  0  0  0  0  0  0  0  0  0  0  0
   12.5480    4.0820  -59.4580 C   0  0  0  0  0  0  0  0  0  0  0  0
   12.4060    4.6170  -56.6140 H   0  0  0  0  0  0  0  0  0  0  0  0
   10.7910    4.9740  -56.7500 H   0  0  0  0  0  0  0  0  0  0  0  0
   11.3540    3.5270  -57.2890 H   0  0  0  0  0  0  0  0  0  0  0  0
   12.4474    5.9957  -58.5422 H   0  0  0  0  0  0  0  0  0  0  0  0
    9.7236    5.5897  -58.3939 H   0  0  0  0  0  0  0  0  0  0  0  0
   10.6242    6.5113  -59.6800 H   0  0  0  0  0  0  0  0  0  0  0  0
    8.8767    4.6827  -60.3797 H   0  0  0  0  0  0  0  0  0  0  0  0
   10.4699    4.7932  -61.2213 H   0  0  0  0  0  0  0  0  0  0  0  0
    4.5080    1.4090  -58.5640 H   0  0  0  0  0  0  0  0  0  0  0  0
    4.7240    2.4011  -63.1827 H   0  0  0  0  0  0  0  0  0  0  0  0
    7.1194    2.9617  -63.5808 H   0  0  0  0  0  0  0  0  0  0  0  0
    8.7519    2.9297  -61.6926 H   0  0  0  0  0  0  0  0  0  0  0  0
   11.8475    2.0900  -59.0392 H   0  0  0  0  0  0  0  0  0  0  0  0
   12.0251    2.4997  -60.8012 H   0  0  0  0  0  0  0  0  0  0  0  0
   13.4397    3.7420  -58.9110 H   0  0  0  0  0  0  0  0  0  0  0  0
   12.8051    4.5834  -60.4027 H   0  0  0  0  0  0  0  0  0  0  0  0
  1  2  1  0
  2  3  1  0
  3  4  1  0
  4  5  1  0
  5  6  1  0
  6  7  2  0
  7  8  1  0
  8  9  1  0
  8 10  2  0
 10 11  1  0
 11 12  2  0
 11 13  1  0
 13 14  1  0
 14 15  2  0
 15 16  1  0
 15 17  1  0
 17 18  2  0
 18 19  1  0
 19 20  2  0
 20 21  1  0
  5 22  1  0
 22 23  1  0
 23  2  1  0
 21  6  1  0
 21 10  1  0
 20 14  1  0
  1 24  1  0
  1 25  1  0
  1 26  1  0
  2 27  1  0
  3 28  1  0
  3 29  1  0
  4 30  1  0
  4 31  1  0
 13 32  1  0
 17 33  1  0
 18 34  1  0
 19 35  1  0
 22 36  1  0
 22 37  1  0
 23 38  1  0
 23 39  1  0
M  CHG  1   1   1
M  END
>  <meeko>  (306) 
{"is_sidechain": false}

$$$$

     RDKit          3D

 39 42  0  0  0  0  0  0  0  0999 V2000
   11.3240    5.7270  -59.7120 N   0  0  0  0  0  0  0  0  0  0  0  0
    9.9620    5.2960  -59.2620 C   0  0  0  0  0  0  0  0  0  0  0  0
    9.9270    5.2010  -57.7380 C   0  0  0  0  0  0  0  0  0  0  0  0
   10.6060    3.9390  -57.2110 C   0  0  0  0  0  0  0  0  0  0  0  0
   10.0850    2.7470  -57.8910 N   0  0  0  0  0  0  0  0  0  0  0  0
    8.8850    2.2900  -57.4190 C   0  0  0  0  0  0  0  0  0  0  0  0
    7.7190    2.8250  -57.7050 N   0  0  0  0  0  0  0  0  0  0  0  0
    6.7980    2.1670  -56.9330 C   0  0  0  0  0  0  0  0  0  0  0  0
    5.1500    2.5850  -56.9700 Cl  0  0  0  0  0  0  0  0  0  0  0  0
    7.4060    1.2070  -56.1640 C   0  0  0  0  0  0  0  0  0  0  0  0
    6.9760    0.2780  -55.1800 C   0  0  0  0  0  0  0  0  0  0  0  0
    5.6750    0.3120  -54.8440 O   0  0  0  0  0  0  0  0  0  0  0  0
    7.7720   -0.5560  -54.6090 N   0  0  0  0  0  0  0  0  0  0  0  0
    9.1340   -0.5830  -55.0000 C   0  0  0  0  0  0  0  0  0  0  0  0
   10.0090   -1.5200  -54.4260 C   0  0  0  0  0  0  0  0  0  0  0  0
    9.4700   -2.6320  -53.2170 Cl  0  0  0  0  0  0  0  0  0  0  0  0
   11.3490   -1.5860  -54.8180 C   0  0  0  0  0  0  0  0  0  0  0  0
   11.8350   -0.7230  -55.7980 C   0  0  0  0  0  0  0  0  0  0  0  0
   10.9900    0.2210  -56.3830 C   0  0  0  0  0  0  0  0  0  0  0  0
    9.6540    0.3020  -55.9750 C   0  0  0  0  0  0  0  0  0  0  0  0
    8.7390    1.2370  -56.5190 N   0  0  0  0  0  0  0  0  0  0  0  0
   10.2220    2.7660  -59.3530 C   0  0  0  0  0  0  0  0  0  0  0  0
    9.5750    4.0020  -59.9730 C   0  0  0  0  0  0  0  0  0  0  0  0
   11.5350    5.3530  -60.6480 H   0  0  0  0  0  0  0  0  0  0  0  0
   12.0790    5.4210  -59.0840 H   0  0  0  0  0  0  0  0  0  0  0  0
   11.3820    6.7520  -59.7930 H   0  0  0  0  0  0  0  0  0  0  0  0
    9.2030    6.0422  -59.5397 H   0  0  0  0  0  0  0  0  0  0  0  0
   10.4410    6.0785  -57.3187 H   0  0  0  0  0  0  0  0  0  0  0  0
    8.8713    5.1633  -57.4314 H   0  0  0  0  0  0  0  0  0  0  0  0
   11.6893    4.0111  -57.3879 H   0  0  0  0  0  0  0  0  0  0  0  0
   10.4002    3.8501  -56.1341 H   0  0  0  0  0  0  0  0  0  0  0  0
    5.4870    0.0270  -53.9380 H   0  0  0  0  0  0  0  0  0  0  0  0
   12.0215   -2.3210  -54.3517 H   0  0  0  0  0  0  0  0  0  0  0  0
   12.8875   -0.7860  -56.1114 H   0  0  0  0  0  0  0  0  0  0  0  0
   11.3723    0.8981  -57.1610 H   0  0  0  0  0  0  0  0  0  0  0  0
   11.2917    2.7589  -59.6094 H   0  0  0  0  0  0  0  0  0  0  0  0
    9.7105    1.8783  -59.7533 H   0  0  0  0  0  0  0  0  0  0  0  0
    9.8892    4.0722  -61.0248 H   0  0  0  0  0  0  0  0  0  0  0  0
    8.4852    3.8866  -59.8776 H   0  0  0  0  0  0  0  0  0  0  0  0
  1  2  1  0
  2  3  1  0
  3  4  1  0
  4  5  1  0
  5  6  1  0
  6  7  2  0
  7  8  1  0
  8  9  1  0
  8 10  2  0
 10 11  1  0
 11 12  1  0
 11 13  2  0
 13 14  1  0
 14 15  2  0
 15 16  1  0
 15 17  1  0
 17 18  2  0
 18 19  1  0
 19 20  2  0
 20 21  1  0
  5 22  1  0
 22 23  1  0
 23  2  1  0
 21  6  1  0
 21 10  1  0
 20 14  1  0
  1 24  1  0
  1 25  1  0
  1 26  1  0
  2 27  1  0
  3 28  1  0
  3 29  1  0
  4 30  1  0
  4 31  1  0
 12 32  1  0
 17 33  1  0
 18 34  1  0
 19 35  1  0
 22 36  1  0
 22 37  1  0
 23 38  1  0
 23 39  1  0
M  CHG  1   1   1
M  END
>  <meeko>  (307) 
{"is_sidechain": false}

$$$$

     RDKit          3D

 40 43  0  0  0  0  0  0  0  0999 V2000
   13.4220    6.3060  -60.2060 N   0  0  0  0  0  0  0  0  0  0  0  0
   12.6850    5.6310  -59.0980 C   0  0  0  0  0  0  0  0  0  0  0  0
   13.0450    4.1470  -59.0770 C   0  0  0  0  0  0  0  0  0  0  0  0
   12.2760    3.4220  -57.9720 C   0  0  0  0  0  0  0  0  0  0  0  0
   10.8260    3.6850  -58.0600 N   0  0  0  0  0  0  0  0  0  0  0  0
    9.9430    2.7670  -57.5560 C   0  0  0  0  0  0  0  0  0  0  0  0
   10.1390    2.1210  -56.4160 N   0  0  0  0  0  0  0  0  0  0  0  0
    8.9620    1.5670  -55.9620 C   0  0  0  0  0  0  0  0  0  0  0  0
    8.7860    0.7920  -54.4220 Cl  0  0  0  0  0  0  0  0  0  0  0  0
    8.0370    1.7770  -56.9460 C   0  0  0  0  0  0  0  0  0  0  0  0
    6.6480    1.4110  -56.9680 C   0  0  0  0  0  0  0  0  0  0  0  0
    5.9620    0.9360  -56.0700 O   0  0  0  0  0  0  0  0  0  0  0  0
    6.0750    1.6690  -58.2030 N   0  0  0  0  0  0  0  0  0  0  0  0
    6.7550    2.1310  -59.3600 C   0  0  0  0  0  0  0  0  0  0  0  0
    6.0930    2.2150  -60.5870 C   0  0  0  0  0  0  0  0  0  0  0  0
    4.4180    1.8330  -60.7240 Cl  0  0  0  0  0  0  0  0  0  0  0  0
    6.7930    2.5960  -61.7370 C   0  0  0  0  0  0  0  0  0  0  0  0
    8.1620    2.8790  -61.6710 C   0  0  0  0  0  0  0  0  0  0  0  0
    8.8370    2.8150  -60.4520 C   0  0  0  0  0  0  0  0  0  0  0  0
    8.1160    2.4820  -59.3150 C   0  0  0  0  0  0  0  0  0  0  0  0
    8.7430    2.4010  -58.0050 N   0  0  0  0  0  0  0  0  0  0  0  0
   10.4020    5.0990  -58.1940 C   0  0  0  0  0  0  0  0  0  0  0  0
   11.1820    5.8210  -59.2930 C   0  0  0  0  0  0  0  0  0  0  0  0
   13.7010    5.6710  -60.9690 H   0  0  0  0  0  0  0  0  0  0  0  0
   14.2890    6.7610  -59.8740 H   0  0  0  0  0  0  0  0  0  0  0  0
   12.8670    7.0610  -60.6400 H   0  0  0  0  0  0  0  0  0  0  0  0
   12.9714    6.0758  -58.1335 H   0  0  0  0  0  0  0  0  0  0  0  0
   12.7895    3.6993  -60.0487 H   0  0  0  0  0  0  0  0  0  0  0  0
   14.1231    4.0464  -58.8833 H   0  0  0  0  0  0  0  0  0  0  0  0
   12.4494    2.3399  -58.0667 H   0  0  0  0  0  0  0  0  0  0  0  0
   12.6357    3.7927  -57.0008 H   0  0  0  0  0  0  0  0  0  0  0  0
   10.9740    2.1280  -55.8460 H   0  0  0  0  0  0  0  0  0  0  0  0
    5.0950    1.4090  -58.2910 H   0  0  0  0  0  0  0  0  0  0  0  0
    6.2643    2.6735  -62.6985 H   0  0  0  0  0  0  0  0  0  0  0  0
    8.7086    3.1534  -62.5853 H   0  0  0  0  0  0  0  0  0  0  0  0
    9.9155    3.0237  -60.3939 H   0  0  0  0  0  0  0  0  0  0  0  0
    9.3302    5.1281  -58.4396 H   0  0  0  0  0  0  0  0  0  0  0  0
   10.6016    5.6089  -57.2400 H   0  0  0  0  0  0  0  0  0  0  0  0
   10.8898    5.4127  -60.2717 H   0  0  0  0  0  0  0  0  0  0  0  0
   10.9509    6.8954  -59.2450 H   0  0  0  0  0  0  0  0  0  0  0  0
  1  2  1  0
  2  3  1  0
  3  4  1  0
  4  5  1  0
  5  6  1  0
  6  7  2  0
  7  8  1  0
  8  9  1  0
  8 10  2  0
 10 11  1  0
 11 12  2  0
 11 13  1  0
 13 14  1  0
 14 15  2  0
 15 16  1  0
 15 17  1  0
 17 18  2  0
 18 19  1  0
 19 20  2  0
 20 21  1  0
  5 22  1  0
 22 23  1  0
 23  2  1  0
 21  6  1  0
 21 10  1  0
 20 14  1  0
  1 24  1  0
  1 25  1  0
  1 26  1  0
  2 27  1  0
  3 28  1  0
  3 29  1  0
  4 30  1  0
  4 31  1  0
  7 32  1  0
 13 33  1  0
 17 34  1  0
 18 35  1  0
 19 36  1  0
 22 37  1  0
 22 38  1  0
 23 39  1  0
 23 40  1  0
M  CHG  2   1   1   7   1
M  END
>  <meeko>  (308) 
{"is_sidechain": false}

$$$$

     RDKit          3D

 40 43  0  0  0  0  0  0  0  0999 V2000
   13.4490    5.5810  -57.9540 N   0  0  0  0  0  0  0  0  0  0  0  0
   12.3760    4.5660  -58.1700 C   0  0  0  0  0  0  0  0  0  0  0  0
   10.9910    5.2230  -58.0670 C   0  0  0  0  0  0  0  0  0  0  0  0
   10.1850    5.1480  -59.3650 C   0  0  0  0  0  0  0  0  0  0  0  0
   10.1700    3.7840  -59.9230 N   0  0  0  0  0  0  0  0  0  0  0  0
    8.9890    3.1480  -60.1770 C   0  0  0  0  0  0  0  0  0  0  0  0
    8.4300    3.0900  -61.3770 N   0  0  0  0  0  0  0  0  0  0  0  0
    7.0990    2.7270  -61.2810 C   0  0  0  0  0  0  0  0  0  0  0  0
    6.0100    2.6880  -62.6270 Cl  0  0  0  0  0  0  0  0  0  0  0  0
    6.8830    2.4430  -59.9640 C   0  0  0  0  0  0  0  0  0  0  0  0
    5.7520    2.0280  -59.2180 C   0  0  0  0  0  0  0  0  0  0  0  0
    4.5830    2.0470  -59.8660 O   0  0  0  0  0  0  0  0  0  0  0  0
    5.7870    1.6730  -57.9780 N   0  0  0  0  0  0  0  0  0  0  0  0
    7.0700    1.6270  -57.3370 C   0  0  0  0  0  0  0  0  0  0  0  0
    7.1870    1.1100  -56.0390 C   0  0  0  0  0  0  0  0  0  0  0  0
    5.7970    0.5940  -55.1550 Cl  0  0  0  0  0  0  0  0  0  0  0  0
    8.4410    0.9820  -55.4280 C   0  0  0  0  0  0  0  0  0  0  0  0
    9.6060    1.3510  -56.1080 C   0  0  0  0  0  0  0  0  0  0  0  0
    9.5300    1.8780  -57.3950 C   0  0  0  0  0  0  0  0  0  0  0  0
    8.2770    2.0450  -57.9700 C   0  0  0  0  0  0  0  0  0  0  0  0
    8.1380    2.5810  -59.3280 N   0  0  0  0  0  0  0  0  0  0  0  0
   11.4140    2.9820  -59.8610 C   0  0  0  0  0  0  0  0  0  0  0  0
   12.6190    3.8480  -59.4950 C   0  0  0  0  0  0  0  0  0  0  0  0
   13.1680    6.5150  -58.2920 H   0  0  0  0  0  0  0  0  0  0  0  0
   14.3090    5.3520  -58.4780 H   0  0  0  0  0  0  0  0  0  0  0  0
   13.7270    5.7010  -56.9680 H   0  0  0  0  0  0  0  0  0  0  0  0
   12.4042    3.8000  -57.3811 H   0  0  0  0  0  0  0  0  0  0  0  0
   10.4225    4.7156  -57.2737 H   0  0  0  0  0  0  0  0  0  0  0  0
   11.1526    6.2884  -57.8462 H   0  0  0  0  0  0  0  0  0  0  0  0
    9.1503    5.4600  -59.1599 H   0  0  0  0  0  0  0  0  0  0  0  0
   10.6605    5.8129  -60.1011 H   0  0  0  0  0  0  0  0  0  0  0  0
    8.8370    3.3780  -62.2550 H   0  0  0  0  0  0  0  0  0  0  0  0
    3.9790    2.6520  -59.3940 H   0  0  0  0  0  0  0  0  0  0  0  0
    8.5100    0.5875  -54.4035 H   0  0  0  0  0  0  0  0  0  0  0  0
   10.5860    1.2246  -55.6246 H   0  0  0  0  0  0  0  0  0  0  0  0
   10.4420    2.1557  -57.9437 H   0  0  0  0  0  0  0  0  0  0  0  0
   11.2950    2.1952  -59.1015 H   0  0  0  0  0  0  0  0  0  0  0  0
   11.5923    2.5430  -60.8537 H   0  0  0  0  0  0  0  0  0  0  0  0
   13.5098    3.2092  -59.4030 H   0  0  0  0  0  0  0  0  0  0  0  0
   12.7718    4.5985  -60.2845 H   0  0  0  0  0  0  0  0  0  0  0  0
  1  2  1  0
  2  3  1  0
  3  4  1  0
  4  5  1  0
  5  6  1  0
  6  7  2  0
  7  8  1  0
  8  9  1  0
  8 10  2  0
 10 11  1  0
 11 12  1  0
 11 13  2  0
 13 14  1  0
 14 15  2  0
 15 16  1  0
 15 17  1  0
 17 18  2  0
 18 19  1  0
 19 20  2  0
 20 21  1  0
  5 22  1  0
 22 23  1  0
 23  2  1  0
 21  6  1  0
 21 10  1  0
 20 14  1  0
  1 24  1  0
  1 25  1  0
  1 26  1  0
  2 27  1  0
  3 28  1  0
  3 29  1  0
  4 30  1  0
  4 31  1  0
  7 32  1  0
 12 33  1  0
 17 34  1  0
 18 35  1  0
 19 36  1  0
 22 37  1  0
 22 38  1  0
 23 39  1  0
 23 40  1  0
M  CHG  2   1   1   7   1
M  END
>  <meeko>  (309) 
{"is_sidechain": false}

$$$$

     RDKit          3D

 54 55  0  0  0  0  0  0  0  0999 V2000
    8.4320   -2.9550  -50.4700 C   0  0  0  0  0  0  0  0  0  0  0  0
    7.7850   -1.8840  -51.3350 C   0  0  0  0  0  0  0  0  0  0  0  0
    8.3940   -1.8570  -52.7360 C   0  0  0  0  0  0  0  0  0  0  0  0
    8.6160   -0.4500  -53.3060 C   0  0  0  0  0  0  0  0  0  0  0  0
    7.5190    0.0290  -54.2740 C   0  0  2  0  0  0  0  0  0  0  0  0
    6.6500   -1.1260  -54.7800 C   0  0  0  0  0  0  0  0  0  0  0  0
    8.1350    0.6980  -55.4210 N   0  0  0  0  0  0  0  0  0  0  0  0
    7.4040    1.4600  -56.2880 C   0  0  0  0  0  0  0  0  0  0  0  0
    6.2150    1.7370  -56.1840 O   0  0  0  0  0  0  0  0  0  0  0  0
    8.1500    1.9480  -57.4800 C   0  0  0  0  0  0  0  0  0  0  0  0
    9.4950    1.9900  -57.4500 C   0  0  0  0  0  0  0  0  0  0  0  0
   10.4110    2.6810  -58.4490 C   0  0  2  0  0  0  0  0  0  0  0  0
   11.6530    3.2070  -57.6980 C   0  0  0  0  0  0  0  0  0  0  0  0
   12.6470    3.9040  -58.6160 C   0  0  0  0  0  0  0  0  0  0  0  0
   12.0070    5.0680  -59.3530 C   0  0  0  0  0  0  0  0  0  0  0  0
   10.7870    4.6220  -60.1450 C   0  0  0  0  0  0  0  0  0  0  0  0
    9.7680    3.7630  -59.3740 C   0  0  2  0  0  0  0  0  0  0  0  0
    8.7130    4.6500  -58.6900 N   0  0  2  0  0  0  0  0  0  0  0  0
    9.0610    5.2800  -57.3660 C   0  0  0  0  0  0  0  0  0  0  0  0
    7.3090    4.0320  -58.6530 C   0  0  0  0  0  0  0  0  0  0  0  0
    7.2880    2.4970  -58.5730 C   0  0  0  0  0  0  0  0  0  0  0  0
    8.2830   -2.7084  -49.4084 H   0  0  0  0  0  0  0  0  0  0  0  0
    7.9717   -3.9300  -50.6880 H   0  0  0  0  0  0  0  0  0  0  0  0
    9.5092   -3.0011  -50.6880 H   0  0  0  0  0  0  0  0  0  0  0  0
    6.7080   -2.0921  -51.4167 H   0  0  0  0  0  0  0  0  0  0  0  0
    7.9584   -0.9057  -50.8629 H   0  0  0  0  0  0  0  0  0  0  0  0
    9.3665   -2.3697  -52.6979 H   0  0  0  0  0  0  0  0  0  0  0  0
    7.6718   -2.3536  -53.4008 H   0  0  0  0  0  0  0  0  0  0  0  0
    8.6644    0.2573  -52.4650 H   0  0  0  0  0  0  0  0  0  0  0  0
    9.5486   -0.4926  -53.8877 H   0  0  0  0  0  0  0  0  0  0  0  0
    6.8720    0.7244  -53.7193 H   0  0  0  0  0  0  0  0  0  0  0  0
    6.2359   -1.6764  -53.9223 H   0  0  0  0  0  0  0  0  0  0  0  0
    5.8272   -0.7257  -55.3906 H   0  0  0  0  0  0  0  0  0  0  0  0
    7.2626   -1.8056  -55.3906 H   0  0  0  0  0  0  0  0  0  0  0  0
    9.0570    0.3880  -55.7010 H   0  0  0  0  0  0  0  0  0  0  0  0
    9.9842    1.4690  -56.6138 H   0  0  0  0  0  0  0  0  0  0  0  0
   10.6895    1.9099  -59.1824 H   0  0  0  0  0  0  0  0  0  0  0  0
   11.3226    3.9222  -56.9303 H   0  0  0  0  0  0  0  0  0  0  0  0
   12.1639    2.3393  -57.2551 H   0  0  0  0  0  0  0  0  0  0  0  0
   13.4859    4.2814  -58.0128 H   0  0  0  0  0  0  0  0  0  0  0  0
   12.9960    3.1748  -59.3620 H   0  0  0  0  0  0  0  0  0  0  0  0
   11.6994    5.8292  -58.6209 H   0  0  0  0  0  0  0  0  0  0  0  0
   12.7452    5.4788  -60.0575 H   0  0  0  0  0  0  0  0  0  0  0  0
   10.2676    5.5236  -60.5019 H   0  0  0  0  0  0  0  0  0  0  0  0
   11.1712    3.9800  -60.9513 H   0  0  0  0  0  0  0  0  0  0  0  0
    9.2317    3.1523  -60.1152 H   0  0  0  0  0  0  0  0  0  0  0  0
    8.5970    5.4590  -59.3140 H   0  0  0  0  0  0  0  0  0  0  0  0
    8.7051    4.6357  -56.5485 H   0  0  0  0  0  0  0  0  0  0  0  0
   10.1521    5.3978  -57.2915 H   0  0  0  0  0  0  0  0  0  0  0  0
    8.5798    6.2663  -57.2915 H   0  0  0  0  0  0  0  0  0  0  0  0
    6.7825    4.4288  -57.7725 H   0  0  0  0  0  0  0  0  0  0  0  0
    6.8243    4.3016  -59.6030 H   0  0  0  0  0  0  0  0  0  0  0  0
    6.2522    2.1709  -58.3975 H   0  0  0  0  0  0  0  0  0  0  0  0
    7.6876    2.1163  -59.5245 H   0  0  0  0  0  0  0  0  0  0  0  0
  1  2  1  0
  2  3  1  0
  3  4  1  0
  4  5  1  0
  5  6  1  0
  5  7  1  0
  7  8  1  0
  8  9  2  0
  8 10  1  0
 10 11  2  0
 11 12  1  0
 12 13  1  0
 13 14  1  0
 14 15  1  0
 15 16  1  0
 16 17  1  0
 17 18  1  0
 18 19  1  0
 18 20  1  0
 20 21  1  0
 21 10  1  0
 17 12  1  0
  1 22  1  0
  1 23  1  0
  1 24  1  0
  2 25  1  0
  2 26  1  0
  3 27  1  0
  3 28  1  0
  4 29  1  0
  4 30  1  0
  5 31  1  1
  6 32  1  0
  6 33  1  0
  6 34  1  0
  7 35  1  0
 11 36  1  0
 12 37  1  6
 13 38  1  0
 13 39  1  0
 14 40  1  0
 14 41  1  0
 15 42  1  0
 15 43  1  0
 16 44  1  0
 16 45  1  0
 17 46  1  6
 18 47  1  6
 19 48  1  0
 19 49  1  0
 19 50  1  0
 20 51  1  0
 20 52  1  0
 21 53  1  0
 21 54  1  0
M  CHG  1  18   1
M  END
>  <meeko>  (310) 
{"is_sidechain": false}

$$$$

     RDKit          3D

 54 55  0  0  0  0  0  0  0  0999 V2000
    8.2840   -3.0920  -50.1710 C   0  0  0  0  0  0  0  0  0  0  0  0
    8.7470   -2.7490  -51.5770 C   0  0  0  0  0  0  0  0  0  0  0  0
    7.8460   -1.7370  -52.2900 C   0  0  0  0  0  0  0  0  0  0  0  0
    8.3510   -1.3550  -53.6860 C   0  0  0  0  0  0  0  0  0  0  0  0
    7.3650   -0.4460  -54.4440 C   0  0  1  0  0  0  0  0  0  0  0  0
    6.2630    0.0700  -53.5190 C   0  0  0  0  0  0  0  0  0  0  0  0
    8.0230    0.6460  -55.1590 N   0  0  0  0  0  0  0  0  0  0  0  0
    7.4360    1.3650  -56.1640 C   0  0  0  0  0  0  0  0  0  0  0  0
    6.3220    1.1650  -56.6310 O   0  0  0  0  0  0  0  0  0  0  0  0
    8.2940    2.4370  -56.7630 C   0  0  0  0  0  0  0  0  0  0  0  0
    7.7620    3.3150  -57.6330 C   0  0  0  0  0  0  0  0  0  0  0  0
    8.4750    4.3690  -58.4690 C   0  0  2  0  0  0  0  0  0  0  0  0
    7.7210    4.5160  -59.8130 C   0  0  0  0  0  0  0  0  0  0  0  0
    7.8680    3.2800  -60.7050 C   0  0  0  0  0  0  0  0  0  0  0  0
    9.3300    2.9210  -60.9500 C   0  0  0  0  0  0  0  0  0  0  0  0
   10.1510    2.8350  -59.6590 C   0  0  0  0  0  0  0  0  0  0  0  0
    9.9700    4.1120  -58.8170 C   0  0  2  0  0  0  0  0  0  0  0  0
   10.9010    4.2040  -57.6100 N   0  0  2  0  0  0  0  0  0  0  0  0
   12.3220    3.7700  -57.8810 C   0  0  0  0  0  0  0  0  0  0  0  0
   10.4060    3.7130  -56.2690 C   0  0  0  0  0  0  0  0  0  0  0  0
    9.7260    2.3650  -56.3130 C   0  0  0  0  0  0  0  0  0  0  0  0
    8.9434   -2.6035  -49.4384 H   0  0  0  0  0  0  0  0  0  0  0  0
    7.2521   -2.7387  -50.0284 H   0  0  0  0  0  0  0  0  0  0  0  0
    8.3214   -4.1821  -50.0284 H   0  0  0  0  0  0  0  0  0  0  0  0
    9.7617   -2.3286  -51.5160 H   0  0  0  0  0  0  0  0  0  0  0  0
    8.7137   -3.6792  -52.1632 H   0  0  0  0  0  0  0  0  0  0  0  0
    6.8411   -2.1732  -52.3893 H   0  0  0  0  0  0  0  0  0  0  0  0
    7.8411   -0.8199  -51.6826 H   0  0  0  0  0  0  0  0  0  0  0  0
    9.3094   -0.8253  -53.5813 H   0  0  0  0  0  0  0  0  0  0  0  0
    8.4619   -2.2831  -54.2659 H   0  0  0  0  0  0  0  0  0  0  0  0
    6.8962   -1.0739  -55.2160 H   0  0  0  0  0  0  0  0  0  0  0  0
    6.5670   -0.0724  -52.4715 H   0  0  0  0  0  0  0  0  0  0  0  0
    6.0953    1.1402  -53.7099 H   0  0  0  0  0  0  0  0  0  0  0  0
    5.3336   -0.4865  -53.7099 H   0  0  0  0  0  0  0  0  0  0  0  0
    8.9870    0.8280  -54.9130 H   0  0  0  0  0  0  0  0  0  0  0  0
    6.6701    3.2647  -57.7562 H   0  0  0  0  0  0  0  0  0  0  0  0
    8.4688    5.2651  -57.8311 H   0  0  0  0  0  0  0  0  0  0  0  0
    6.6530    4.6747  -59.6030 H   0  0  0  0  0  0  0  0  0  0  0  0
    8.1583    5.3704  -60.3503 H   0  0  0  0  0  0  0  0  0  0  0  0
    7.3706    2.4289  -60.2169 H   0  0  0  0  0  0  0  0  0  0  0  0
    7.4069    3.5069  -61.6776 H   0  0  0  0  0  0  0  0  0  0  0  0
    9.3710    1.9456  -61.4569 H   0  0  0  0  0  0  0  0  0  0  0  0
    9.7666    3.7223  -61.5643 H   0  0  0  0  0  0  0  0  0  0  0  0
    9.8158    1.9656  -59.0743 H   0  0  0  0  0  0  0  0  0  0  0  0
   11.2143    2.7297  -59.9206 H   0  0  0  0  0  0  0  0  0  0  0  0
   10.2916    4.9438  -59.4609 H   0  0  0  0  0  0  0  0  0  0  0  0
   10.9930    5.2190  -57.4590 H   0  0  0  0  0  0  0  0  0  0  0  0
   12.8450    3.6103  -56.9265 H   0  0  0  0  0  0  0  0  0  0  0  0
   12.3157    2.8328  -58.4569 H   0  0  0  0  0  0  0  0  0  0  0  0
   12.8403    4.5508  -58.4569 H   0  0  0  0  0  0  0  0  0  0  0  0
   11.2675    3.6422  -55.5886 H   0  0  0  0  0  0  0  0  0  0  0  0
    9.6503    4.4360  -55.9282 H   0  0  0  0  0  0  0  0  0  0  0  0
   10.2789    1.7174  -57.0094 H   0  0  0  0  0  0  0  0  0  0  0  0
    9.7261    1.9660  -55.2879 H   0  0  0  0  0  0  0  0  0  0  0  0
  1  2  1  0
  2  3  1  0
  3  4  1  0
  4  5  1  0
  5  6  1  0
  5  7  1  0
  7  8  1  0
  8  9  2  0
  8 10  1  0
 10 11  2  0
 11 12  1  0
 12 13  1  0
 13 14  1  0
 14 15  1  0
 15 16  1  0
 16 17  1  0
 17 18  1  0
 18 19  1  0
 18 20  1  0
 20 21  1  0
 21 10  1  0
 17 12  1  0
  1 22  1  0
  1 23  1  0
  1 24  1  0
  2 25  1  0
  2 26  1  0
  3 27  1  0
  3 28  1  0
  4 29  1  0
  4 30  1  0
  5 31  1  6
  6 32  1  0
  6 33  1  0
  6 34  1  0
  7 35  1  0
 11 36  1  0
 12 37  1  1
 13 38  1  0
 13 39  1  0
 14 40  1  0
 14 41  1  0
 15 42  1  0
 15 43  1  0
 16 44  1  0
 16 45  1  0
 17 46  1  6
 18 47  1  1
 19 48  1  0
 19 49  1  0
 19 50  1  0
 20 51  1  0
 20 52  1  0
 21 53  1  0
 21 54  1  0
M  CHG  1  18   1
M  END
>  <meeko>  (311) 
{"is_sidechain": false}

$$$$

     RDKit          3D

 54 55  0  0  0  0  0  0  0  0999 V2000
    8.1710   -2.8360  -50.6770 C   0  0  0  0  0  0  0  0  0  0  0  0
    8.4970   -2.1600  -51.9990 C   0  0  0  0  0  0  0  0  0  0  0  0
    7.4690   -1.0810  -52.3450 C   0  0  0  0  0  0  0  0  0  0  0  0
    8.0860    0.0090  -53.2250 C   0  0  0  0  0  0  0  0  0  0  0  0
    7.2470    0.3380  -54.4730 C   0  0  2  0  0  0  0  0  0  0  0  0
    6.5290   -0.8840  -55.0410 C   0  0  0  0  0  0  0  0  0  0  0  0
    8.1050    0.9170  -55.5040 N   0  0  0  0  0  0  0  0  0  0  0  0
    7.6150    1.7530  -56.4670 C   0  0  0  0  0  0  0  0  0  0  0  0
    6.4380    2.0390  -56.6460 O   0  0  0  0  0  0  0  0  0  0  0  0
    8.6410    2.3260  -57.3800 C   0  0  0  0  0  0  0  0  0  0  0  0
    9.6050    3.1120  -56.8680 C   0  0  0  0  0  0  0  0  0  0  0  0
   10.5800    3.9830  -57.6310 C   0  0  1  0  0  0  0  0  0  0  0  0
   12.0280    3.5330  -57.3760 C   0  0  0  0  0  0  0  0  0  0  0  0
   13.0300    4.5140  -57.9890 C   0  0  0  0  0  0  0  0  0  0  0  0
   12.7710    4.7660  -59.4730 C   0  0  0  0  0  0  0  0  0  0  0  0
   11.3240    5.1830  -59.7420 C   0  0  0  0  0  0  0  0  0  0  0  0
   10.3540    4.1440  -59.1580 C   0  0  2  0  0  0  0  0  0  0  0  0
    8.9140    4.5110  -59.5160 N   0  0  2  0  0  0  0  0  0  0  0  0
    8.3060    5.6440  -58.7230 C   0  0  0  0  0  0  0  0  0  0  0  0
    7.9540    3.3230  -59.6190 C   0  0  0  0  0  0  0  0  0  0  0  0
    8.3800    2.0800  -58.8350 C   0  0  0  0  0  0  0  0  0  0  0  0
    8.4841   -2.1867  -49.8461 H   0  0  0  0  0  0  0  0  0  0  0  0
    7.0875   -3.0151  -50.6141 H   0  0  0  0  0  0  0  0  0  0  0  0
    8.7055   -3.7954  -50.6141 H   0  0  0  0  0  0  0  0  0  0  0  0
    9.4919   -1.6962  -51.9276 H   0  0  0  0  0  0  0  0  0  0  0  0
    8.4768   -2.9229  -52.7912 H   0  0  0  0  0  0  0  0  0  0  0  0
    6.6295   -1.5447  -52.8837 H   0  0  0  0  0  0  0  0  0  0  0  0
    7.1212   -0.6183  -51.4096 H   0  0  0  0  0  0  0  0  0  0  0  0
    8.1900    0.9244  -52.6240 H   0  0  0  0  0  0  0  0  0  0  0  0
    9.0563   -0.3705  -53.5780 H   0  0  0  0  0  0  0  0  0  0  0  0
    6.4755    1.0578  -54.1619 H   0  0  0  0  0  0  0  0  0  0  0  0
    6.1611   -1.5101  -54.2147 H   0  0  0  0  0  0  0  0  0  0  0  0
    5.6799   -0.5561  -55.6587 H   0  0  0  0  0  0  0  0  0  0  0  0
    7.2287   -1.4661  -55.6587 H   0  0  0  0  0  0  0  0  0  0  0  0
    9.1040    0.7750  -55.4220 H   0  0  0  0  0  0  0  0  0  0  0  0
    9.6949    3.1231  -55.7717 H   0  0  0  0  0  0  0  0  0  0  0  0
   10.3810    4.9837  -57.2199 H   0  0  0  0  0  0  0  0  0  0  0  0
   12.1999    3.4760  -56.2910 H   0  0  0  0  0  0  0  0  0  0  0  0
   12.1739    2.5486  -57.8448 H   0  0  0  0  0  0  0  0  0  0  0  0
   12.9601    5.4712  -57.4515 H   0  0  0  0  0  0  0  0  0  0  0  0
   14.0318    4.0693  -57.8960 H   0  0  0  0  0  0  0  0  0  0  0  0
   13.4411    5.5668  -59.8190 H   0  0  0  0  0  0  0  0  0  0  0  0
   12.9589    3.8268  -60.0139 H   0  0  0  0  0  0  0  0  0  0  0  0
   11.1346    6.1602  -59.2737 H   0  0  0  0  0  0  0  0  0  0  0  0
   11.1662    5.2498  -60.8286 H   0  0  0  0  0  0  0  0  0  0  0  0
   10.5542    3.1595  -59.6059 H   0  0  0  0  0  0  0  0  0  0  0  0
    8.9590    4.8760  -60.4760 H   0  0  0  0  0  0  0  0  0  0  0  0
    8.4158    5.4393  -57.6478 H   0  0  0  0  0  0  0  0  0  0  0  0
    8.8211    6.5835  -58.9719 H   0  0  0  0  0  0  0  0  0  0  0  0
    7.2383    5.7342  -58.9719 H   0  0  0  0  0  0  0  0  0  0  0  0
    6.9715    3.6441  -59.2427 H   0  0  0  0  0  0  0  0  0  0  0  0
    7.9398    3.0291  -60.6789 H   0  0  0  0  0  0  0  0  0  0  0  0
    7.5804    1.3293  -58.9191 H   0  0  0  0  0  0  0  0  0  0  0  0
    9.3315    1.7434  -59.2724 H   0  0  0  0  0  0  0  0  0  0  0  0
  1  2  1  0
  2  3  1  0
  3  4  1  0
  4  5  1  0
  5  6  1  0
  5  7  1  0
  7  8  1  0
  8  9  2  0
  8 10  1  0
 10 11  2  0
 11 12  1  0
 12 13  1  0
 13 14  1  0
 14 15  1  0
 15 16  1  0
 16 17  1  0
 17 18  1  0
 18 19  1  0
 18 20  1  0
 20 21  1  0
 21 10  1  0
 17 12  1  0
  1 22  1  0
  1 23  1  0
  1 24  1  0
  2 25  1  0
  2 26  1  0
  3 27  1  0
  3 28  1  0
  4 29  1  0
  4 30  1  0
  5 31  1  1
  6 32  1  0
  6 33  1  0
  6 34  1  0
  7 35  1  0
 11 36  1  0
 12 37  1  1
 13 38  1  0
 13 39  1  0
 14 40  1  0
 14 41  1  0
 15 42  1  0
 15 43  1  0
 16 44  1  0
 16 45  1  0
 17 46  1  6
 18 47  1  6
 19 48  1  0
 19 49  1  0
 19 50  1  0
 20 51  1  0
 20 52  1  0
 21 53  1  0
 21 54  1  0
M  CHG  1  18   1
M  END
>  <meeko>  (312) 
{"is_sidechain": false}

$$$$

     RDKit          3D

 54 55  0  0  0  0  0  0  0  0999 V2000
    8.4300   -3.0150  -50.5790 C   0  0  0  0  0  0  0  0  0  0  0  0
    9.4600   -2.8880  -51.6910 C   0  0  0  0  0  0  0  0  0  0  0  0
    8.7910   -2.7610  -53.0590 C   0  0  0  0  0  0  0  0  0  0  0  0
    9.1240   -1.4530  -53.7840 C   0  0  0  0  0  0  0  0  0  0  0  0
    7.9240   -0.5730  -54.1690 C   0  0  1  0  0  0  0  0  0  0  0  0
    7.2660    0.0920  -52.9590 C   0  0  0  0  0  0  0  0  0  0  0  0
    8.3630    0.4510  -55.1160 N   0  0  0  0  0  0  0  0  0  0  0  0
    7.4890    1.0650  -55.9710 C   0  0  0  0  0  0  0  0  0  0  0  0
    6.3040    0.7960  -56.1090 O   0  0  0  0  0  0  0  0  0  0  0  0
    8.0840    2.1790  -56.7670 C   0  0  0  0  0  0  0  0  0  0  0  0
    9.4250    2.1940  -56.8980 C   0  0  0  0  0  0  0  0  0  0  0  0
   10.1810    3.1700  -57.7660 C   0  0  1  0  0  0  0  0  0  0  0  0
   11.6990    3.1180  -57.4920 C   0  0  0  0  0  0  0  0  0  0  0  0
   12.5410    3.7130  -58.6270 C   0  0  0  0  0  0  0  0  0  0  0  0
   11.7760    4.7540  -59.4330 C   0  0  0  0  0  0  0  0  0  0  0  0
   10.5080    4.1760  -60.0730 C   0  0  0  0  0  0  0  0  0  0  0  0
    9.9230    2.9890  -59.2850 C   0  0  2  0  0  0  0  0  0  0  0  0
    8.4400    2.7790  -59.6020 N   0  0  2  0  0  0  0  0  0  0  0  0
    8.1230    2.7220  -61.0710 C   0  0  0  0  0  0  0  0  0  0  0  0
    7.5020    3.6870  -58.8270 C   0  0  0  0  0  0  0  0  0  0  0  0
    7.0740    3.0360  -57.4930 C   0  0  0  0  0  0  0  0  0  0  0  0
    8.9342   -2.9528  -49.6033 H   0  0  0  0  0  0  0  0  0  0  0  0
    7.6955   -2.2006  -50.6647 H   0  0  0  0  0  0  0  0  0  0  0  0
    7.9154   -3.9834  -50.6647 H   0  0  0  0  0  0  0  0  0  0  0  0
   10.0748   -1.9942  -51.5089 H   0  0  0  0  0  0  0  0  0  0  0  0
   10.0814   -3.7957  -51.6925 H   0  0  0  0  0  0  0  0  0  0  0  0
    9.1216   -3.6011  -53.6874 H   0  0  0  0  0  0  0  0  0  0  0  0
    7.7042   -2.7688  -52.8893 H   0  0  0  0  0  0  0  0  0  0  0  0
    9.7787   -0.8612  -53.1273 H   0  0  0  0  0  0  0  0  0  0  0  0
    9.5911   -1.7507  -54.7344 H   0  0  0  0  0  0  0  0  0  0  0  0
    7.1674   -1.2271  -54.6270 H   0  0  0  0  0  0  0  0  0  0  0  0
    7.6853   -0.3318  -52.0346 H   0  0  0  0  0  0  0  0  0  0  0  0
    7.4582    1.1747  -52.9861 H   0  0  0  0  0  0  0  0  0  0  0  0
    6.1813   -0.0887  -52.9861 H   0  0  0  0  0  0  0  0  0  0  0  0
    9.2780    0.8600  -54.9720 H   0  0  0  0  0  0  0  0  0  0  0  0
   10.0057    1.4473  -56.3365 H   0  0  0  0  0  0  0  0  0  0  0  0
    9.7887    4.1586  -57.4851 H   0  0  0  0  0  0  0  0  0  0  0  0
   11.9070    3.6817  -56.5706 H   0  0  0  0  0  0  0  0  0  0  0  0
   11.9775    2.0577  -57.4011 H   0  0  0  0  0  0  0  0  0  0  0  0
   13.4334    4.1879  -58.1933 H   0  0  0  0  0  0  0  0  0  0  0  0
   12.8117    2.8934  -59.3089 H   0  0  0  0  0  0  0  0  0  0  0  0
   11.4904    5.5795  -58.7644 H   0  0  0  0  0  0  0  0  0  0  0  0
   12.4334    5.1030  -60.2430 H   0  0  0  0  0  0  0  0  0  0  0  0
    9.7487    4.9701  -60.1254 H   0  0  0  0  0  0  0  0  0  0  0  0
   10.7835    3.8044  -61.0710 H   0  0  0  0  0  0  0  0  0  0  0  0
   10.4397    2.0716  -59.6035 H   0  0  0  0  0  0  0  0  0  0  0  0
    8.2340    1.8220  -59.2760 H   0  0  0  0  0  0  0  0  0  0  0  0
    7.0487    2.5288  -61.2070 H   0  0  0  0  0  0  0  0  0  0  0  0
    8.3853    3.6817  -61.5402 H   0  0  0  0  0  0  0  0  0  0  0  0
    8.7032    1.9138  -61.5402 H   0  0  0  0  0  0  0  0  0  0  0  0
    8.0150    4.6367  -58.6150 H   0  0  0  0  0  0  0  0  0  0  0  0
    6.6022    3.8610  -59.4354 H   0  0  0  0  0  0  0  0  0  0  0  0
    6.7835    3.8485  -56.8107 H   0  0  0  0  0  0  0  0  0  0  0  0
    6.2712    2.3379  -57.7726 H   0  0  0  0  0  0  0  0  0  0  0  0
  1  2  1  0
  2  3  1  0
  3  4  1  0
  4  5  1  0
  5  6  1  0
  5  7  1  0
  7  8  1  0
  8  9  2  0
  8 10  1  0
 10 11  2  0
 11 12  1  0
 12 13  1  0
 13 14  1  0
 14 15  1  0
 15 16  1  0
 16 17  1  0
 17 18  1  0
 18 19  1  0
 18 20  1  0
 20 21  1  0
 21 10  1  0
 17 12  1  0
  1 22  1  0
  1 23  1  0
  1 24  1  0
  2 25  1  0
  2 26  1  0
  3 27  1  0
  3 28  1  0
  4 29  1  0
  4 30  1  0
  5 31  1  6
  6 32  1  0
  6 33  1  0
  6 34  1  0
  7 35  1  0
 11 36  1  0
 12 37  1  1
 13 38  1  0
 13 39  1  0
 14 40  1  0
 14 41  1  0
 15 42  1  0
 15 43  1  0
 16 44  1  0
 16 45  1  0
 17 46  1  6
 18 47  1  1
 19 48  1  0
 19 49  1  0
 19 50  1  0
 20 51  1  0
 20 52  1  0
 21 53  1  0
 21 54  1  0
M  CHG  1  18   1
M  END
>  <meeko>  (313) 
{"is_sidechain": false}

$$$$

     RDKit          3D

 54 55  0  0  0  0  0  0  0  0999 V2000
    8.7490   -3.5810  -50.0960 C   0  0  0  0  0  0  0  0  0  0  0  0
    7.8140   -2.5470  -50.7040 C   0  0  0  0  0  0  0  0  0  0  0  0
    8.1580   -2.1930  -52.1490 C   0  0  0  0  0  0  0  0  0  0  0  0
    7.8120   -0.7710  -52.6130 C   0  0  0  0  0  0  0  0  0  0  0  0
    6.9300   -0.7020  -53.8750 C   0  0  2  0  0  0  0  0  0  0  0  0
    6.6050   -2.0850  -54.4400 C   0  0  0  0  0  0  0  0  0  0  0  0
    7.6180    0.0780  -54.9070 N   0  0  0  0  0  0  0  0  0  0  0  0
    6.9290    0.8860  -55.7740 C   0  0  0  0  0  0  0  0  0  0  0  0
    5.7370    1.1460  -55.6850 O   0  0  0  0  0  0  0  0  0  0  0  0
    7.7620    1.5370  -56.8360 C   0  0  0  0  0  0  0  0  0  0  0  0
    9.1020    1.5710  -56.7240 C   0  0  0  0  0  0  0  0  0  0  0  0
   10.1190    2.1520  -57.6900 C   0  0  2  0  0  0  0  0  0  0  0  0
   11.1460    2.9420  -56.8480 C   0  0  0  0  0  0  0  0  0  0  0  0
   12.3000    3.4690  -57.6880 C   0  0  0  0  0  0  0  0  0  0  0  0
   11.7940    4.3540  -58.8130 C   0  0  0  0  0  0  0  0  0  0  0  0
   10.7700    3.6240  -59.6760 C   0  0  0  0  0  0  0  0  0  0  0  0
    9.5930    2.9960  -58.9020 C   0  0  2  0  0  0  0  0  0  0  0  0
    8.5470    4.0180  -58.4140 N   0  0  1  0  0  0  0  0  0  0  0  0
    8.5030    5.3510  -59.1260 C   0  0  0  0  0  0  0  0  0  0  0  0
    7.1180    3.4670  -58.3820 C   0  0  0  0  0  0  0  0  0  0  0  0
    7.0000    1.9800  -58.0480 C   0  0  0  0  0  0  0  0  0  0  0  0
    8.6963   -3.5228  -48.9988 H   0  0  0  0  0  0  0  0  0  0  0  0
    8.4473   -4.5864  -50.4247 H   0  0  0  0  0  0  0  0  0  0  0  0
    9.7796   -3.3817  -50.4247 H   0  0  0  0  0  0  0  0  0  0  0  0
    6.7890   -2.9454  -50.6772 H   0  0  0  0  0  0  0  0  0  0  0  0
    7.9182   -1.6266  -50.1107 H   0  0  0  0  0  0  0  0  0  0  0  0
    9.2419   -2.3305  -52.2766 H   0  0  0  0  0  0  0  0  0  0  0  0
    7.5342   -2.8573  -52.7651 H   0  0  0  0  0  0  0  0  0  0  0  0
    7.2798   -0.2636  -51.7949 H   0  0  0  0  0  0  0  0  0  0  0  0
    8.7656   -0.2887  -52.8737 H   0  0  0  0  0  0  0  0  0  0  0  0
    5.9824   -0.2255  -53.5835 H   0  0  0  0  0  0  0  0  0  0  0  0
    6.4394   -2.7898  -53.6118 H   0  0  0  0  0  0  0  0  0  0  0  0
    5.6966   -2.0247  -55.0573 H   0  0  0  0  0  0  0  0  0  0  0  0
    7.4452   -2.4356  -55.0573 H   0  0  0  0  0  0  0  0  0  0  0  0
    8.5900   -0.1400  -55.0770 H   0  0  0  0  0  0  0  0  0  0  0  0
    9.5160    1.1176  -55.8113 H   0  0  0  0  0  0  0  0  0  0  0  0
   10.5585    1.2919  -58.2163 H   0  0  0  0  0  0  0  0  0  0  0  0
   10.6351    3.7937  -56.3752 H   0  0  0  0  0  0  0  0  0  0  0  0
   11.5634    2.2556  -56.0966 H   0  0  0  0  0  0  0  0  0  0  0  0
   12.9747    4.0541  -57.0457 H   0  0  0  0  0  0  0  0  0  0  0  0
   12.8328    2.6131  -58.1279 H   0  0  0  0  0  0  0  0  0  0  0  0
   11.3243    5.2497  -58.3804 H   0  0  0  0  0  0  0  0  0  0  0  0
   12.6487    4.6302  -59.4480 H   0  0  0  0  0  0  0  0  0  0  0  0
   10.3577    4.3438  -60.3984 H   0  0  0  0  0  0  0  0  0  0  0  0
   11.3070    2.7886  -60.1490 H   0  0  0  0  0  0  0  0  0  0  0  0
    9.0778    2.3440  -59.6227 H   0  0  0  0  0  0  0  0  0  0  0  0
    8.7840    4.2330  -57.4370 H   0  0  0  0  0  0  0  0  0  0  0  0
    8.4762    6.1624  -58.3838 H   0  0  0  0  0  0  0  0  0  0  0  0
    9.3980    5.4598  -59.7561 H   0  0  0  0  0  0  0  0  0  0  0  0
    7.6027    5.4006  -59.7561 H   0  0  0  0  0  0  0  0  0  0  0  0
    6.5528    4.0313  -57.6257 H   0  0  0  0  0  0  0  0  0  0  0  0
    6.7240    3.5823  -59.4025 H   0  0  0  0  0  0  0  0  0  0  0  0
    5.9366    1.7511  -57.8841 H   0  0  0  0  0  0  0  0  0  0  0  0
    7.4390    1.4396  -58.8996 H   0  0  0  0  0  0  0  0  0  0  0  0
  1  2  1  0
  2  3  1  0
  3  4  1  0
  4  5  1  0
  5  6  1  0
  5  7  1  0
  7  8  1  0
  8  9  2  0
  8 10  1  0
 10 11  2  0
 11 12  1  0
 12 13  1  0
 13 14  1  0
 14 15  1  0
 15 16  1  0
 16 17  1  0
 17 18  1  0
 18 19  1  0
 18 20  1  0
 20 21  1  0
 21 10  1  0
 17 12  1  0
  1 22  1  0
  1 23  1  0
  1 24  1  0
  2 25  1  0
  2 26  1  0
  3 27  1  0
  3 28  1  0
  4 29  1  0
  4 30  1  0
  5 31  1  1
  6 32  1  0
  6 33  1  0
  6 34  1  0
  7 35  1  0
 11 36  1  0
 12 37  1  6
 13 38  1  0
 13 39  1  0
 14 40  1  0
 14 41  1  0
 15 42  1  0
 15 43  1  0
 16 44  1  0
 16 45  1  0
 17 46  1  6
 18 47  1  1
 19 48  1  0
 19 49  1  0
 19 50  1  0
 20 51  1  0
 20 52  1  0
 21 53  1  0
 21 54  1  0
M  CHG  1  18   1
M  END
>  <meeko>  (314) 
{"is_sidechain": false}

$$$$

     RDKit          3D

 54 55  0  0  0  0  0  0  0  0999 V2000
    7.7770   -3.0670  -50.2040 C   0  0  0  0  0  0  0  0  0  0  0  0
    8.9880   -2.9810  -51.1190 C   0  0  0  0  0  0  0  0  0  0  0  0
    8.5750   -2.8660  -52.5870 C   0  0  0  0  0  0  0  0  0  0  0  0
    8.9560   -1.5000  -53.1650 C   0  0  0  0  0  0  0  0  0  0  0  0
    7.7530   -0.6980  -53.6860 C   0  0  1  0  0  0  0  0  0  0  0  0
    7.0350    0.0740  -52.5790 C   0  0  0  0  0  0  0  0  0  0  0  0
    8.2050    0.2300  -54.7220 N   0  0  0  0  0  0  0  0  0  0  0  0
    7.3350    0.7800  -55.6230 C   0  0  0  0  0  0  0  0  0  0  0  0
    6.1410    0.5260  -55.7180 O   0  0  0  0  0  0  0  0  0  0  0  0
    7.9310    1.8130  -56.5180 C   0  0  0  0  0  0  0  0  0  0  0  0
    9.2670    1.8930  -56.6340 C   0  0  0  0  0  0  0  0  0  0  0  0
   10.0220    2.7410  -57.6250 C   0  0  2  0  0  0  0  0  0  0  0  0
   10.0900    4.2240  -57.2140 C   0  0  0  0  0  0  0  0  0  0  0  0
   10.4670    5.1640  -58.3610 C   0  0  0  0  0  0  0  0  0  0  0  0
   11.3300    4.4970  -59.4220 C   0  0  0  0  0  0  0  0  0  0  0  0
   10.7620    3.1790  -59.9670 C   0  0  0  0  0  0  0  0  0  0  0  0
    9.6410    2.5370  -59.1190 C   0  0  2  0  0  0  0  0  0  0  0  0
    8.2420    3.1030  -59.4560 N   0  0  1  0  0  0  0  0  0  0  0  0
    7.9800    3.2470  -60.9410 C   0  0  0  0  0  0  0  0  0  0  0  0
    7.0990    2.2840  -58.8380 C   0  0  0  0  0  0  0  0  0  0  0  0
    6.9490    2.5760  -57.3500 C   0  0  0  0  0  0  0  0  0  0  0  0
    8.1076   -3.0435  -49.1551 H   0  0  0  0  0  0  0  0  0  0  0  0
    7.1100   -2.2140  -50.3974 H   0  0  0  0  0  0  0  0  0  0  0  0
    7.2372   -4.0057  -50.3974 H   0  0  0  0  0  0  0  0  0  0  0  0
    9.5813   -2.0963  -50.8444 H   0  0  0  0  0  0  0  0  0  0  0  0
    9.5779   -3.9015  -50.9978 H   0  0  0  0  0  0  0  0  0  0  0  0
    9.0809   -3.6536  -53.1647 H   0  0  0  0  0  0  0  0  0  0  0  0
    7.4826   -2.9785  -52.6510 H   0  0  0  0  0  0  0  0  0  0  0  0
    9.4502   -0.9137  -52.3763 H   0  0  0  0  0  0  0  0  0  0  0  0
    9.6180   -1.6851  -54.0238 H   0  0  0  0  0  0  0  0  0  0  0  0
    7.0294   -1.4164  -54.0986 H   0  0  0  0  0  0  0  0  0  0  0  0
    7.3742   -0.2908  -51.5983 H   0  0  0  0  0  0  0  0  0  0  0  0
    7.2647    1.1458  -52.6711 H   0  0  0  0  0  0  0  0  0  0  0  0
    5.9494   -0.0775  -52.6711 H   0  0  0  0  0  0  0  0  0  0  0  0
    9.1220    0.6400  -54.6110 H   0  0  0  0  0  0  0  0  0  0  0  0
    9.8654    1.2829  -55.9414 H   0  0  0  0  0  0  0  0  0  0  0  0
   11.0480    2.3479  -57.5720 H   0  0  0  0  0  0  0  0  0  0  0  0
    9.1037    4.5233  -56.8297 H   0  0  0  0  0  0  0  0  0  0  0  0
   10.8808    4.3109  -56.4543 H   0  0  0  0  0  0  0  0  0  0  0  0
    9.5427    5.5234  -58.8370 H   0  0  0  0  0  0  0  0  0  0  0  0
   11.0559    5.9870  -57.9298 H   0  0  0  0  0  0  0  0  0  0  0  0
   11.4427    5.1967  -60.2633 H   0  0  0  0  0  0  0  0  0  0  0  0
   12.2863    4.2496  -58.9380 H   0  0  0  0  0  0  0  0  0  0  0  0
   10.3580    3.3736  -60.9714 H   0  0  0  0  0  0  0  0  0  0  0  0
   11.5968    2.4628  -59.9562 H   0  0  0  0  0  0  0  0  0  0  0  0
    9.5638    1.4637  -59.3471 H   0  0  0  0  0  0  0  0  0  0  0  0
    8.1680    4.0490  -59.0670 H   0  0  0  0  0  0  0  0  0  0  0  0
    7.0256    3.7716  -61.0958 H   0  0  0  0  0  0  0  0  0  0  0  0
    8.7947    3.8241  -61.4028 H   0  0  0  0  0  0  0  0  0  0  0  0
    7.9295    2.2499  -61.4028 H   0  0  0  0  0  0  0  0  0  0  0  0
    6.1589    2.5384  -59.3494 H   0  0  0  0  0  0  0  0  0  0  0  0
    7.3323    1.2160  -58.9600 H   0  0  0  0  0  0  0  0  0  0  0  0
    7.1055    3.6520  -57.1835 H   0  0  0  0  0  0  0  0  0  0  0  0
    5.9385    2.2644  -57.0469 H   0  0  0  0  0  0  0  0  0  0  0  0
  1  2  1  0
  2  3  1  0
  3  4  1  0
  4  5  1  0
  5  6  1  0
  5  7  1  0
  7  8  1  0
  8  9  2  0
  8 10  1  0
 10 11  2  0
 11 12  1  0
 12 13  1  0
 13 14  1  0
 14 15  1  0
 15 16  1  0
 16 17  1  0
 17 18  1  0
 18 19  1  0
 18 20  1  0
 20 21  1  0
 21 10  1  0
 17 12  1  0
  1 22  1  0
  1 23  1  0
  1 24  1  0
  2 25  1  0
  2 26  1  0
  3 27  1  0
  3 28  1  0
  4 29  1  0
  4 30  1  0
  5 31  1  6
  6 32  1  0
  6 33  1  0
  6 34  1  0
  7 35  1  0
 11 36  1  0
 12 37  1  6
 13 38  1  0
 13 39  1  0
 14 40  1  0
 14 41  1  0
 15 42  1  0
 15 43  1  0
 16 44  1  0
 16 45  1  0
 17 46  1  6
 18 47  1  1
 19 48  1  0
 19 49  1  0
 19 50  1  0
 20 51  1  0
 20 52  1  0
 21 53  1  0
 21 54  1  0
M  CHG  1  18   1
M  END
>  <meeko>  (315) 
{"is_sidechain": false}

$$$$

     RDKit          3D

 54 55  0  0  0  0  0  0  0  0999 V2000
    8.9140   -3.6400  -50.1430 C   0  0  0  0  0  0  0  0  0  0  0  0
    7.7890   -2.6170  -50.1270 C   0  0  0  0  0  0  0  0  0  0  0  0
    7.6930   -1.8680  -51.4580 C   0  0  0  0  0  0  0  0  0  0  0  0
    8.9420   -2.1040  -52.3140 C   0  0  0  0  0  0  0  0  0  0  0  0
    8.6560   -2.3760  -53.8040 C   0  0  2  0  0  0  0  0  0  0  0  0
    9.6490   -3.3510  -54.4290 C   0  0  0  0  0  0  0  0  0  0  0  0
    8.6150   -1.1380  -54.5760 N   0  0  0  0  0  0  0  0  0  0  0  0
    7.4340   -0.5220  -54.8830 C   0  0  0  0  0  0  0  0  0  0  0  0
    6.3130   -0.9480  -54.6380 O   0  0  0  0  0  0  0  0  0  0  0  0
    7.5740    0.8080  -55.5360 C   0  0  0  0  0  0  0  0  0  0  0  0
    8.7900    1.3360  -55.7520 C   0  0  0  0  0  0  0  0  0  0  0  0
    8.9890    2.5730  -56.5980 C   0  0  1  0  0  0  0  0  0  0  0  0
   10.4080    3.1460  -56.4020 C   0  0  0  0  0  0  0  0  0  0  0  0
   11.3780    2.6340  -57.4550 C   0  0  0  0  0  0  0  0  0  0  0  0
   10.9450    3.0600  -58.8550 C   0  0  0  0  0  0  0  0  0  0  0  0
    9.4280    3.2120  -59.0160 C   0  0  0  0  0  0  0  0  0  0  0  0
    8.6540    2.2580  -58.0950 C   0  0  2  0  0  0  0  0  0  0  0  0
    7.1200    2.3730  -58.3240 N   0  0  1  0  0  0  0  0  0  0  0  0
    6.7270    2.4250  -59.7860 C   0  0  0  0  0  0  0  0  0  0  0  0
    6.3030    1.2570  -57.6480 C   0  0  0  0  0  0  0  0  0  0  0  0
    6.3150    1.3820  -56.1170 C   0  0  0  0  0  0  0  0  0  0  0  0
    9.1933   -3.8940  -49.1098 H   0  0  0  0  0  0  0  0  0  0  0  0
    8.5770   -4.5475  -50.6654 H   0  0  0  0  0  0  0  0  0  0  0  0
    9.7855   -3.2185  -50.6654 H   0  0  0  0  0  0  0  0  0  0  0  0
    6.8372   -3.1354  -49.9391 H   0  0  0  0  0  0  0  0  0  0  0  0
    7.9995   -1.8849  -49.3334 H   0  0  0  0  0  0  0  0  0  0  0  0
    6.8085   -2.2230  -52.0072 H   0  0  0  0  0  0  0  0  0  0  0  0
    7.6109   -0.7913  -51.2484 H   0  0  0  0  0  0  0  0  0  0  0  0
    9.5796   -1.2103  -52.2445 H   0  0  0  0  0  0  0  0  0  0  0  0
    9.4247   -3.0099  -51.9185 H   0  0  0  0  0  0  0  0  0  0  0  0
    7.6636   -2.8493  -53.8384 H   0  0  0  0  0  0  0  0  0  0  0  0
   10.1908   -3.8830  -53.6332 H   0  0  0  0  0  0  0  0  0  0  0  0
    9.1068   -4.0774  -55.0523 H   0  0  0  0  0  0  0  0  0  0  0  0
   10.3653   -2.7956  -55.0523 H   0  0  0  0  0  0  0  0  0  0  0  0
    9.4770   -0.6150  -54.6630 H   0  0  0  0  0  0  0  0  0  0  0  0
    9.6686    0.8532  -55.2992 H   0  0  0  0  0  0  0  0  0  0  0  0
    8.2924    3.3591  -56.2713 H   0  0  0  0  0  0  0  0  0  0  0  0
   10.3603    4.2431  -56.4662 H   0  0  0  0  0  0  0  0  0  0  0  0
   10.7730    2.8213  -55.4164 H   0  0  0  0  0  0  0  0  0  0  0  0
   12.3791    3.0409  -57.2493 H   0  0  0  0  0  0  0  0  0  0  0  0
   11.3910    1.5349  -57.4128 H   0  0  0  0  0  0  0  0  0  0  0  0
   11.4164    4.0271  -59.0842 H   0  0  0  0  0  0  0  0  0  0  0  0
   11.2612    2.2627  -59.5437 H   0  0  0  0  0  0  0  0  0  0  0  0
    9.1468    4.2472  -58.7723 H   0  0  0  0  0  0  0  0  0  0  0  0
    9.1700    2.9643  -60.0562 H   0  0  0  0  0  0  0  0  0  0  0  0
    8.9618    1.2295  -58.3346 H   0  0  0  0  0  0  0  0  0  0  0  0
    6.8120    3.2660  -57.9170 H   0  0  0  0  0  0  0  0  0  0  0  0
    5.6396    2.5689  -59.8685 H   0  0  0  0  0  0  0  0  0  0  0  0
    7.2458    3.2623  -60.2756 H   0  0  0  0  0  0  0  0  0  0  0  0
    7.0102    1.4816  -60.2756 H   0  0  0  0  0  0  0  0  0  0  0  0
    5.2628    1.3148  -58.0009 H   0  0  0  0  0  0  0  0  0  0  0  0
    6.7602    0.2925  -57.9138 H   0  0  0  0  0  0  0  0  0  0  0  0
    6.2455    2.4451  -55.8432 H   0  0  0  0  0  0  0  0  0  0  0  0
    5.4583    0.8213  -55.7148 H   0  0  0  0  0  0  0  0  0  0  0  0
  1  2  1  0
  2  3  1  0
  3  4  1  0
  4  5  1  0
  5  6  1  0
  5  7  1  0
  7  8  1  0
  8  9  2  0
  8 10  1  0
 10 11  2  0
 11 12  1  0
 12 13  1  0
 13 14  1  0
 14 15  1  0
 15 16  1  0
 16 17  1  0
 17 18  1  0
 18 19  1  0
 18 20  1  0
 20 21  1  0
 21 10  1  0
 17 12  1  0
  1 22  1  0
  1 23  1  0
  1 24  1  0
  2 25  1  0
  2 26  1  0
  3 27  1  0
  3 28  1  0
  4 29  1  0
  4 30  1  0
  5 31  1  1
  6 32  1  0
  6 33  1  0
  6 34  1  0
  7 35  1  0
 11 36  1  0
 12 37  1  1
 13 38  1  0
 13 39  1  0
 14 40  1  0
 14 41  1  0
 15 42  1  0
 15 43  1  0
 16 44  1  0
 16 45  1  0
 17 46  1  6
 18 47  1  1
 19 48  1  0
 19 49  1  0
 19 50  1  0
 20 51  1  0
 20 52  1  0
 21 53  1  0
 21 54  1  0
M  CHG  1  18   1
M  END
>  <meeko>  (316) 
{"is_sidechain": false}

$$$$

     RDKit          3D

 54 55  0  0  0  0  0  0  0  0999 V2000
    7.7700   -2.6010  -50.2550 C   0  0  0  0  0  0  0  0  0  0  0  0
    7.9050   -3.0720  -51.6950 C   0  0  0  0  0  0  0  0  0  0  0  0
    8.4470   -1.9990  -52.6440 C   0  0  0  0  0  0  0  0  0  0  0  0
    7.6210   -1.8510  -53.9250 C   0  0  0  0  0  0  0  0  0  0  0  0
    6.9610   -0.4660  -54.0700 C   0  0  1  0  0  0  0  0  0  0  0  0
    6.8350    0.2730  -52.7400 C   0  0  0  0  0  0  0  0  0  0  0  0
    7.7330    0.3540  -55.0020 N   0  0  0  0  0  0  0  0  0  0  0  0
    7.1290    1.2500  -55.8400 C   0  0  0  0  0  0  0  0  0  0  0  0
    5.9370    1.5280  -55.8620 O   0  0  0  0  0  0  0  0  0  0  0  0
    8.0360    1.8970  -56.8300 C   0  0  0  0  0  0  0  0  0  0  0  0
    9.1980    2.4290  -56.4100 C   0  0  0  0  0  0  0  0  0  0  0  0
   10.1340    3.3290  -57.1920 C   0  0  1  0  0  0  0  0  0  0  0  0
   11.4950    2.6550  -57.4130 C   0  0  0  0  0  0  0  0  0  0  0  0
   12.5100    3.6430  -57.9880 C   0  0  0  0  0  0  0  0  0  0  0  0
   11.9970    4.3370  -59.2480 C   0  0  0  0  0  0  0  0  0  0  0  0
   10.6180    4.9720  -59.0430 C   0  0  0  0  0  0  0  0  0  0  0  0
    9.6150    3.9230  -58.5390 C   0  0  2  0  0  0  0  0  0  0  0  0
    8.1990    4.4770  -58.3240 N   0  0  1  0  0  0  0  0  0  0  0  0
    7.8590    5.7720  -59.0120 C   0  0  0  0  0  0  0  0  0  0  0  0
    7.0990    3.4470  -58.6010 C   0  0  0  0  0  0  0  0  0  0  0  0
    7.4680    2.0160  -58.2110 C   0  0  0  0  0  0  0  0  0  0  0  0
    8.0080   -3.4313  -49.5738 H   0  0  0  0  0  0  0  0  0  0  0  0
    8.4656   -1.7681  -50.0749 H   0  0  0  0  0  0  0  0  0  0  0  0
    6.7388   -2.2630  -50.0749 H   0  0  0  0  0  0  0  0  0  0  0  0
    8.5896   -3.9328  -51.7164 H   0  0  0  0  0  0  0  0  0  0  0  0
    6.8949   -3.3312  -52.0451 H   0  0  0  0  0  0  0  0  0  0  0  0
    8.4484   -1.0341  -52.1159 H   0  0  0  0  0  0  0  0  0  0  0  0
    9.4592   -2.3091  -52.9427 H   0  0  0  0  0  0  0  0  0  0  0  0
    8.2834   -2.0138  -54.7880 H   0  0  0  0  0  0  0  0  0  0  0  0
    6.8110   -2.5937  -53.8772 H   0  0  0  0  0  0  0  0  0  0  0  0
    5.9435   -0.6363  -54.4516 H   0  0  0  0  0  0  0  0  0  0  0  0
    6.9566   -0.4401  -51.9113 H   0  0  0  0  0  0  0  0  0  0  0  0
    7.6142    1.0467  -52.6752 H   0  0  0  0  0  0  0  0  0  0  0  0
    5.8434    0.7448  -52.6752 H   0  0  0  0  0  0  0  0  0  0  0  0
    8.6870    0.0740  -55.1910 H   0  0  0  0  0  0  0  0  0  0  0  0
    9.5036    2.1829  -55.3824 H   0  0  0  0  0  0  0  0  0  0  0  0
   10.2189    4.2053  -56.5325 H   0  0  0  0  0  0  0  0  0  0  0  0
   11.8685    2.2751  -56.4506 H   0  0  0  0  0  0  0  0  0  0  0  0
   11.3649    1.8303  -58.1292 H   0  0  0  0  0  0  0  0  0  0  0  0
   12.7288    4.4074  -57.2278 H   0  0  0  0  0  0  0  0  0  0  0  0
   13.4124    3.0763  -58.2609 H   0  0  0  0  0  0  0  0  0  0  0  0
   12.7100    5.1246  -59.5330 H   0  0  0  0  0  0  0  0  0  0  0  0
   11.9024    3.5755  -60.0362 H   0  0  0  0  0  0  0  0  0  0  0  0
   10.6982    5.7818  -58.3028 H   0  0  0  0  0  0  0  0  0  0  0  0
   10.2630    5.3723  -60.0041 H   0  0  0  0  0  0  0  0  0  0  0  0
    9.5416    3.1538  -59.3219 H   0  0  0  0  0  0  0  0  0  0  0  0
    8.1170    4.6830  -57.3170 H   0  0  0  0  0  0  0  0  0  0  0  0
    7.6558    6.5459  -58.2572 H   0  0  0  0  0  0  0  0  0  0  0  0
    8.7051    6.0863  -59.6408 H   0  0  0  0  0  0  0  0  0  0  0  0
    6.9677    5.6301  -59.6408 H   0  0  0  0  0  0  0  0  0  0  0  0
    6.2026    3.7388  -58.0342 H   0  0  0  0  0  0  0  0  0  0  0  0
    6.9339    3.4456  -59.6885 H   0  0  0  0  0  0  0  0  0  0  0  0
    6.5616    1.3954  -58.2686 H   0  0  0  0  0  0  0  0  0  0  0  0
    8.2491    1.6829  -58.9103 H   0  0  0  0  0  0  0  0  0  0  0  0
  1  2  1  0
  2  3  1  0
  3  4  1  0
  4  5  1  0
  5  6  1  0
  5  7  1  0
  7  8  1  0
  8  9  2  0
  8 10  1  0
 10 11  2  0
 11 12  1  0
 12 13  1  0
 13 14  1  0
 14 15  1  0
 15 16  1  0
 16 17  1  0
 17 18  1  0
 18 19  1  0
 18 20  1  0
 20 21  1  0
 21 10  1  0
 17 12  1  0
  1 22  1  0
  1 23  1  0
  1 24  1  0
  2 25  1  0
  2 26  1  0
  3 27  1  0
  3 28  1  0
  4 29  1  0
  4 30  1  0
  5 31  1  6
  6 32  1  0
  6 33  1  0
  6 34  1  0
  7 35  1  0
 11 36  1  0
 12 37  1  1
 13 38  1  0
 13 39  1  0
 14 40  1  0
 14 41  1  0
 15 42  1  0
 15 43  1  0
 16 44  1  0
 16 45  1  0
 17 46  1  6
 18 47  1  1
 19 48  1  0
 19 49  1  0
 19 50  1  0
 20 51  1  0
 20 52  1  0
 21 53  1  0
 21 54  1  0
M  CHG  1  18   1
M  END
>  <meeko>  (317) 
{"is_sidechain": false}

$$$$

     RDKit          3D

 47 50  0  0  0  0  0  0  0  0999 V2000
   13.3780   -5.0260  -58.0040 N   0  0  0  0  0  0  0  0  0  0  0  0
   12.6120   -4.4590  -57.3420 C   0  0  0  0  0  0  0  0  0  0  0  0
   11.6670   -3.7630  -56.5180 C   0  0  0  0  0  0  0  0  0  0  0  0
   11.7030   -2.3700  -56.4280 C   0  0  0  0  0  0  0  0  0  0  0  0
   10.7820   -1.6930  -55.6210 C   0  0  0  0  0  0  0  0  0  0  0  0
    9.8030   -2.4020  -54.9040 C   0  0  0  0  0  0  0  0  0  0  0  0
    8.8880   -1.6890  -54.0750 N   0  0  0  0  0  0  0  0  0  0  0  0
    8.6800   -1.9990  -52.7440 C   0  0  0  0  0  0  0  0  0  0  0  0
    7.7220   -1.2970  -52.1960 N   0  0  0  0  0  0  0  0  0  0  0  0
    7.3060   -0.4480  -53.1760 C   0  0  0  0  0  0  0  0  0  0  0  0
    6.0680    0.6910  -52.8860 Cl  0  0  0  0  0  0  0  0  0  0  0  0
    8.0310   -0.6190  -54.3520 C   0  0  0  0  0  0  0  0  0  0  0  0
    7.9500    0.2620  -55.5940 C   0  0  2  0  0  0  0  0  0  0  0  0
    8.8200    1.5280  -55.3920 C   0  0  0  0  0  0  0  0  0  0  0  0
    9.6460    2.0400  -56.5730 C   0  0  0  0  0  0  0  0  0  0  0  0
    8.8640    2.7970  -57.6450 C   0  0  0  0  0  0  0  0  0  0  0  0
    7.8950    1.9580  -58.4700 C   0  0  0  0  0  0  0  0  0  0  0  0
    6.5130    2.0520  -58.0220 N   0  0  0  0  0  0  0  0  0  0  0  0
    5.4440    1.9980  -58.9070 C   0  0  0  0  0  0  0  0  0  0  0  0
    4.1660    2.5170  -58.8460 C   0  0  0  0  0  0  0  0  0  0  0  0
    3.5020    2.1030  -60.0270 C   0  0  0  0  0  0  0  0  0  0  0  0
    4.4080    1.3440  -60.7270 C   0  0  0  0  0  0  0  0  0  0  0  0
    5.5800    1.2620  -60.0480 O   0  0  0  0  0  0  0  0  0  0  0  0
    6.2160    1.8500  -56.6790 C   0  0  0  0  0  0  0  0  0  0  0  0
    5.7900    2.7290  -55.9300 O   0  0  0  0  0  0  0  0  0  0  0  0
    6.5280    0.4600  -56.1340 C   0  0  0  0  0  0  0  0  0  0  0  0
    9.7840   -3.7970  -54.9860 C   0  0  0  0  0  0  0  0  0  0  0  0
   10.7080   -4.4740  -55.7920 C   0  0  0  0  0  0  0  0  0  0  0  0
   12.4576   -1.8032  -56.9932 H   0  0  0  0  0  0  0  0  0  0  0  0
   10.8246   -0.5963  -55.5471 H   0  0  0  0  0  0  0  0  0  0  0  0
    9.2611   -2.7588  -52.2009 H   0  0  0  0  0  0  0  0  0  0  0  0
    8.3994   -0.2680  -56.4467 H   0  0  0  0  0  0  0  0  0  0  0  0
    8.1443    2.3421  -55.0907 H   0  0  0  0  0  0  0  0  0  0  0  0
    9.5715    1.2234  -54.6488 H   0  0  0  0  0  0  0  0  0  0  0  0
   10.4195    2.7150  -56.1780 H   0  0  0  0  0  0  0  0  0  0  0  0
   10.0491    1.1450  -57.0695 H   0  0  0  0  0  0  0  0  0  0  0  0
    8.2859    3.5889  -57.1462 H   0  0  0  0  0  0  0  0  0  0  0  0
    9.6149    3.1741  -58.3549 H   0  0  0  0  0  0  0  0  0  0  0  0
    7.9452    2.2967  -59.5154 H   0  0  0  0  0  0  0  0  0  0  0  0
    8.2000    0.9075  -58.3546 H   0  0  0  0  0  0  0  0  0  0  0  0
    3.7451    3.1325  -58.0373 H   0  0  0  0  0  0  0  0  0  0  0  0
    2.4698    2.3412  -60.3234 H   0  0  0  0  0  0  0  0  0  0  0  0
    4.2114    0.8699  -61.6999 H   0  0  0  0  0  0  0  0  0  0  0  0
    5.8234    0.2518  -55.3154 H   0  0  0  0  0  0  0  0  0  0  0  0
    6.4332   -0.2259  -56.9888 H   0  0  0  0  0  0  0  0  0  0  0  0
    9.0379   -4.3675  -54.4134 H   0  0  0  0  0  0  0  0  0  0  0  0
   10.6785   -5.5719  -55.8538 H   0  0  0  0  0  0  0  0  0  0  0  0
  1  2  3  0
  2  3  1  0
  3  4  1  0
  4  5  2  0
  5  6  1  0
  6  7  1  0
  7  8  1  0
  8  9  2  0
  9 10  1  0
 10 11  1  0
 10 12  2  0
 12 13  1  0
 13 14  1  0
 14 15  1  0
 15 16  1  0
 16 17  1  0
 17 18  1  0
 18 19  1  0
 19 20  2  0
 20 21  1  0
 21 22  2  0
 22 23  1  0
 18 24  1  0
 24 25  2  0
 24 26  1  0
  6 27  2  0
 27 28  1  0
 28  3  2  0
 12  7  1  0
 26 13  1  0
 23 19  1  0
  4 29  1  0
  5 30  1  0
  8 31  1  0
 13 32  1  6
 14 33  1  0
 14 34  1  0
 15 35  1  0
 15 36  1  0
 16 37  1  0
 16 38  1  0
 17 39  1  0
 17 40  1  0
 20 41  1  0
 21 42  1  0
 22 43  1  0
 26 44  1  0
 26 45  1  0
 27 46  1  0
 28 47  1  0
M  END
>  <meeko>  (318) 
{"is_sidechain": false}

$$$$

     RDKit          3D

 48 51  0  0  0  0  0  0  0  0999 V2000
    3.0770    2.3670  -62.0820 N   0  0  0  0  0  0  0  0  0  0  0  0
    3.6880    2.1640  -61.1180 C   0  0  0  0  0  0  0  0  0  0  0  0
    4.4460    1.9080  -59.9270 C   0  0  0  0  0  0  0  0  0  0  0  0
    5.4790    0.9600  -59.9420 C   0  0  0  0  0  0  0  0  0  0  0  0
    6.2250    0.7120  -58.7850 C   0  0  0  0  0  0  0  0  0  0  0  0
    5.9260    1.4220  -57.6260 C   0  0  0  0  0  0  0  0  0  0  0  0
    6.6840    1.1440  -56.4130 N   0  0  0  0  0  0  0  0  0  0  0  0
    6.0820    0.7140  -55.2910 C   0  0  0  0  0  0  0  0  0  0  0  0
    7.0340    0.2510  -54.4900 N   0  0  0  0  0  0  0  0  0  0  0  0
    8.2730    0.5450  -54.9920 C   0  0  0  0  0  0  0  0  0  0  0  0
    9.7270    0.0440  -54.1830 Cl  0  0  0  0  0  0  0  0  0  0  0  0
    8.0830    1.2910  -56.1460 C   0  0  0  0  0  0  0  0  0  0  0  0
    8.9960    2.1500  -57.0070 C   0  0  2  0  0  0  0  0  0  0  0  0
   10.4490    1.6570  -57.1860 C   0  0  0  0  0  0  0  0  0  0  0  0
   11.5760    2.6970  -57.1050 C   0  0  0  0  0  0  0  0  0  0  0  0
   12.0260    3.3070  -58.4350 C   0  0  0  0  0  0  0  0  0  0  0  0
   11.2030    4.4960  -58.9510 C   0  0  0  0  0  0  0  0  0  0  0  0
    9.7570    4.2370  -58.9100 N   0  0  0  0  0  0  0  0  0  0  0  0
    9.1230    3.7270  -60.0520 C   0  0  0  0  0  0  0  0  0  0  0  0
    9.6380    3.2230  -61.2350 C   0  0  0  0  0  0  0  0  0  0  0  0
    8.5360    2.8420  -62.0400 C   0  0  0  0  0  0  0  0  0  0  0  0
    7.4140    3.1370  -61.3060 C   0  0  0  0  0  0  0  0  0  0  0  0
    7.7620    3.6750  -60.1120 O   0  0  0  0  0  0  0  0  0  0  0  0
    8.9620    4.5830  -57.8120 C   0  0  0  0  0  0  0  0  0  0  0  0
    8.3040    5.6210  -57.6840 O   0  0  0  0  0  0  0  0  0  0  0  0
    8.9520    3.6400  -56.6150 C   0  0  0  0  0  0  0  0  0  0  0  0
    4.8960    2.3570  -57.5840 C   0  0  0  0  0  0  0  0  0  0  0  0
    4.1580    2.6050  -58.7450 C   0  0  0  0  0  0  0  0  0  0  0  0
    5.7036    0.4091  -60.8673 H   0  0  0  0  0  0  0  0  0  0  0  0
    7.0350   -0.0323  -58.7911 H   0  0  0  0  0  0  0  0  0  0  0  0
    5.0034    0.7407  -55.0767 H   0  0  0  0  0  0  0  0  0  0  0  0
    6.8770   -0.2180  -53.6030 H   0  0  0  0  0  0  0  0  0  0  0  0
    8.5535    2.0326  -58.0072 H   0  0  0  0  0  0  0  0  0  0  0  0
   10.6389    0.9067  -56.4044 H   0  0  0  0  0  0  0  0  0  0  0  0
   10.4891    1.2870  -58.2211 H   0  0  0  0  0  0  0  0  0  0  0  0
   11.2305    3.5174  -56.4587 H   0  0  0  0  0  0  0  0  0  0  0  0
   12.4511    2.1549  -56.7173 H   0  0  0  0  0  0  0  0  0  0  0  0
   13.0653    3.6463  -58.3135 H   0  0  0  0  0  0  0  0  0  0  0  0
   11.8925    2.5113  -59.1827 H   0  0  0  0  0  0  0  0  0  0  0  0
   11.4222    5.3747  -58.3267 H   0  0  0  0  0  0  0  0  0  0  0  0
   11.4832    4.6671  -60.0009 H   0  0  0  0  0  0  0  0  0  0  0  0
   10.7021    3.1351  -61.4996 H   0  0  0  0  0  0  0  0  0  0  0  0
    8.5721    2.4003  -63.0468 H   0  0  0  0  0  0  0  0  0  0  0  0
    6.3805    2.9617  -61.6394 H   0  0  0  0  0  0  0  0  0  0  0  0
    9.8293    3.8617  -55.9895 H   0  0  0  0  0  0  0  0  0  0  0  0
    8.0057    3.8063  -56.0795 H   0  0  0  0  0  0  0  0  0  0  0  0
    4.6661    2.8928  -56.6512 H   0  0  0  0  0  0  0  0  0  0  0  0
    3.3485    3.3496  -58.7312 H   0  0  0  0  0  0  0  0  0  0  0  0
  1  2  3  0
  2  3  1  0
  3  4  1  0
  4  5  2  0
  5  6  1  0
  6  7  1  0
  7  8  1  0
  8  9  2  0
  9 10  1  0
 10 11  1  0
 10 12  2  0
 12 13  1  0
 13 14  1  0
 14 15  1  0
 15 16  1  0
 16 17  1  0
 17 18  1  0
 18 19  1  0
 19 20  2  0
 20 21  1  0
 21 22  2  0
 22 23  1  0
 18 24  1  0
 24 25  2  0
 24 26  1  0
  6 27  2  0
 27 28  1  0
 28  3  2  0
 12  7  1  0
 26 13  1  0
 23 19  1  0
  4 29  1  0
  5 30  1  0
  8 31  1  0
  9 32  1  0
 13 33  1  6
 14 34  1  0
 14 35  1  0
 15 36  1  0
 15 37  1  0
 16 38  1  0
 16 39  1  0
 17 40  1  0
 17 41  1  0
 20 42  1  0
 21 43  1  0
 22 44  1  0
 26 45  1  0
 26 46  1  0
 27 47  1  0
 28 48  1  0
M  CHG  1   9   1
M  END
>  <meeko>  (319) 
{"is_sidechain": false}

$$$$

     RDKit          3D

 33 35  0  0  0  0  0  0  0  0999 V2000
   13.0600    7.2780  -60.6080 N   0  0  0  0  0  0  0  0  0  0  0  0
   13.0790    6.3910  -59.8600 C   0  0  0  0  0  0  0  0  0  0  0  0
   13.1040    5.2690  -58.9090 C   0  0  0  0  0  0  0  0  0  0  0  0
   12.2800    4.0910  -59.4390 C   0  0  0  0  0  0  0  0  0  0  0  0
   10.7840    4.0750  -59.0350 C   0  0  2  0  0  0  0  0  0  0  0  0
    9.9270    4.1800  -60.3280 C   0  0  0  0  0  0  0  0  0  0  0  0
    8.4250    4.1690  -59.9970 C   0  0  1  0  0  0  0  0  0  0  0  0
    8.0790    2.8600  -59.2710 C   0  0  0  0  0  0  0  0  0  0  0  0
    8.8920    2.7490  -57.9730 C   0  0  2  0  0  0  0  0  0  0  0  0
    8.5650    3.9490  -57.0660 C   0  0  0  0  0  0  0  0  0  0  0  0
    8.9160    5.2620  -57.7840 C   0  0  2  0  0  0  0  0  0  0  0  0
    8.1020    5.3620  -59.0850 C   0  0  0  0  0  0  0  0  0  0  0  0
   10.4180    5.2710  -58.1190 C   0  0  0  0  0  0  0  0  0  0  0  0
   10.3950    2.7630  -58.3070 C   0  0  0  0  0  0  0  0  0  0  0  0
   14.1445    4.9442  -58.7611 H   0  0  0  0  0  0  0  0  0  0  0  0
   12.6694    5.6039  -57.9556 H   0  0  0  0  0  0  0  0  0  0  0  0
   12.3322    4.1105  -60.5376 H   0  0  0  0  0  0  0  0  0  0  0  0
   12.7206    3.1914  -58.9845 H   0  0  0  0  0  0  0  0  0  0  0  0
   10.1738    5.1175  -60.8478 H   0  0  0  0  0  0  0  0  0  0  0  0
   10.1509    3.3137  -60.9678 H   0  0  0  0  0  0  0  0  0  0  0  0
    7.8362    4.2432  -60.9232 H   0  0  0  0  0  0  0  0  0  0  0  0
    7.0056    2.8494  -59.0306 H   0  0  0  0  0  0  0  0  0  0  0  0
    8.3233    2.0093  -59.9241 H   0  0  0  0  0  0  0  0  0  0  0  0
    8.6368    1.8112  -57.4578 H   0  0  0  0  0  0  0  0  0  0  0  0
    7.4918    3.9414  -56.8247 H   0  0  0  0  0  0  0  0  0  0  0  0
    9.1559    3.8741  -56.1412 H   0  0  0  0  0  0  0  0  0  0  0  0
    8.6778    6.1164  -57.1334 H   0  0  0  0  0  0  0  0  0  0  0  0
    7.0285    5.3573  -58.8448 H   0  0  0  0  0  0  0  0  0  0  0  0
    8.3629    6.2959  -59.6044 H   0  0  0  0  0  0  0  0  0  0  0  0
   10.6670    6.2100  -58.6350 H   0  0  0  0  0  0  0  0  0  0  0  0
   10.9890    5.1861  -57.1826 H   0  0  0  0  0  0  0  0  0  0  0  0
   10.9726    2.6830  -57.3743 H   0  0  0  0  0  0  0  0  0  0  0  0
   10.6174    1.9129  -58.9687 H   0  0  0  0  0  0  0  0  0  0  0  0
  1  2  3  0
  2  3  1  0
  3  4  1  0
  5  4  1  6
  5  6  1  0
  6  7  1  0
  7  8  1  0
  8  9  1  0
  9 10  1  0
 10 11  1  0
 11 12  1  0
 11 13  1  0
  9 14  1  0
 13  5  1  0
 14  5  1  0
 12  7  1  0
  3 15  1  0
  3 16  1  0
  4 17  1  0
  4 18  1  0
  6 19  1  0
  6 20  1  0
  7 21  1  6
  8 22  1  0
  8 23  1  0
  9 24  1  1
 10 25  1  0
 10 26  1  0
 11 27  1  1
 12 28  1  0
 12 29  1  0
 13 30  1  0
 13 31  1  0
 14 32  1  0
 14 33  1  0
M  END
>  <meeko>  (320) 
{"is_sidechain": false}

$$$$

     RDKit          3D

 56 61  0  0  0  0  0  0  0  0999 V2000
    7.9430   -2.7230  -50.0700 C   0  0  0  0  0  0  0  0  0  0  0  0
    7.2920   -1.5960  -50.7540 C   0  0  0  0  0  0  0  0  0  0  0  0
    7.7270   -1.3130  -51.9900 C   0  0  0  0  0  0  0  0  0  0  0  0
    7.1250   -0.3200  -52.7110 N   0  0  0  0  0  0  0  0  0  0  0  0
    7.5280    0.0550  -53.8260 N   0  0  0  0  0  0  0  0  0  0  0  0
    8.6860   -0.4460  -54.3740 C   0  0  0  0  0  0  0  0  0  0  0  0
    9.2670    0.1500  -55.3630 N   0  0  0  0  0  0  0  0  0  0  0  0
    8.6510    1.3830  -55.8630 C   0  0  0  0  0  0  0  0  0  0  0  0
    9.7540    2.2270  -56.5110 C   0  0  0  0  0  0  0  0  0  0  0  0
    9.3300    3.0750  -57.7350 C   0  0  2  0  0  0  0  0  0  0  0  0
   10.1070    4.4200  -57.6930 C   0  0  0  0  0  0  0  0  0  0  0  0
    9.7310    5.3130  -58.8860 C   0  0  1  0  0  0  0  0  0  0  0  0
   10.0710    4.5780  -60.1920 C   0  0  0  0  0  0  0  0  0  0  0  0
    9.2890    3.2580  -60.2700 C   0  0  2  0  0  0  0  0  0  0  0  0
    7.7820    3.5590  -60.2220 C   0  0  0  0  0  0  0  0  0  0  0  0
    7.4320    4.2880  -58.9140 C   0  0  2  0  0  0  0  0  0  0  0  0
    8.2230    5.6040  -58.8410 C   0  0  0  0  0  0  0  0  0  0  0  0
    7.8140    3.3950  -57.7190 C   0  0  0  0  0  0  0  0  0  0  0  0
    9.6670    2.3680  -59.0730 C   0  0  0  0  0  0  0  0  0  0  0  0
    9.2510   -1.7160  -53.8170 C   0  0  0  0  0  0  0  0  0  0  0  0
   10.3160   -2.4120  -54.6040 C   0  0  0  0  0  0  0  0  0  0  0  0
    9.9870   -3.7400  -55.3230 C   0  0  0  0  0  0  0  0  0  0  0  0
   11.4150   -4.2100  -54.9720 C   0  0  0  0  0  0  0  0  0  0  0  0
   11.4390   -3.1550  -53.8450 C   0  0  0  0  0  0  0  0  0  0  0  0
    8.7920   -2.0990  -52.6080 C   0  0  0  0  0  0  0  0  0  0  0  0
    9.2280   -3.1820  -51.8560 N   0  0  0  0  0  0  0  0  0  0  0  0
    8.8590   -3.4830  -50.5800 N   0  0  0  0  0  0  0  0  0  0  0  0
    7.6254   -2.9385  -49.0391 H   0  0  0  0  0  0  0  0  0  0  0  0
    6.4894   -1.0150  -50.2762 H   0  0  0  0  0  0  0  0  0  0  0  0
    7.8788    1.1404  -56.6079 H   0  0  0  0  0  0  0  0  0  0  0  0
    8.1761    1.9370  -55.0399 H   0  0  0  0  0  0  0  0  0  0  0  0
   10.1459    2.9132  -55.7458 H   0  0  0  0  0  0  0  0  0  0  0  0
   10.4933    1.5068  -56.8914 H   0  0  0  0  0  0  0  0  0  0  0  0
    9.8631    4.9469  -56.7587 H   0  0  0  0  0  0  0  0  0  0  0  0
   11.1842    4.2032  -57.7443 H   0  0  0  0  0  0  0  0  0  0  0  0
   10.2913    6.2584  -58.8378 H   0  0  0  0  0  0  0  0  0  0  0  0
    9.8005    5.2130  -61.0485 H   0  0  0  0  0  0  0  0  0  0  0  0
   11.1492    4.3612  -60.2146 H   0  0  0  0  0  0  0  0  0  0  0  0
    9.5349    2.7382  -61.2077 H   0  0  0  0  0  0  0  0  0  0  0  0
    7.5103    4.1951  -61.0773 H   0  0  0  0  0  0  0  0  0  0  0  0
    7.2234    2.6125  -60.2682 H   0  0  0  0  0  0  0  0  0  0  0  0
    6.3537    4.5034  -58.8845 H   0  0  0  0  0  0  0  0  0  0  0  0
    7.9493    6.2415  -59.6946 H   0  0  0  0  0  0  0  0  0  0  0  0
    7.9822    6.1186  -57.8991 H   0  0  0  0  0  0  0  0  0  0  0  0
    7.5655    3.9180  -56.7838 H   0  0  0  0  0  0  0  0  0  0  0  0
    7.2533    2.4513  -57.7900 H   0  0  0  0  0  0  0  0  0  0  0  0
    9.1057    1.4240  -59.1337 H   0  0  0  0  0  0  0  0  0  0  0  0
   10.7489    2.1722  -59.1063 H   0  0  0  0  0  0  0  0  0  0  0  0
   10.5231   -1.4983  -55.1805 H   0  0  0  0  0  0  0  0  0  0  0  0
    9.1833   -4.3275  -54.8551 H   0  0  0  0  0  0  0  0  0  0  0  0
    9.6106   -3.7591  -56.3564 H   0  0  0  0  0  0  0  0  0  0  0  0
   11.4786   -5.2511  -54.6225 H   0  0  0  0  0  0  0  0  0  0  0  0
   12.2068   -4.2484  -55.7347 H   0  0  0  0  0  0  0  0  0  0  0  0
   11.1486   -3.5357  -52.8547 H   0  0  0  0  0  0  0  0  0  0  0  0
   12.3690   -2.6478  -53.5486 H   0  0  0  0  0  0  0  0  0  0  0  0
   10.0000   -3.7280  -52.2280 H   0  0  0  0  0  0  0  0  0  0  0  0
  1  2  1  0
  2  3  2  0
  3  4  1  0
  4  5  2  0
  5  6  1  0
  6  7  2  0
  7  8  1  0
  8  9  1  0
 10  9  1  1
 10 11  1  0
 11 12  1  0
 12 13  1  0
 13 14  1  0
 14 15  1  0
 15 16  1  0
 16 17  1  0
 16 18  1  0
 14 19  1  0
  6 20  1  0
 20 21  1  0
 21 22  1  0
 22 23  1  0
 23 24  1  0
 20 25  2  0
 25 26  1  0
 26 27  1  0
 27  1  2  0
 25  3  1  0
 18 10  1  0
 24 21  1  0
 19 10  1  0
 17 12  1  0
  1 28  1  0
  2 29  1  0
  8 30  1  0
  8 31  1  0
  9 32  1  0
  9 33  1  0
 11 34  1  0
 11 35  1  0
 12 36  1  1
 13 37  1  0
 13 38  1  0
 14 39  1  6
 15 40  1  0
 15 41  1  0
 16 42  1  6
 17 43  1  0
 17 44  1  0
 18 45  1  0
 18 46  1  0
 19 47  1  0
 19 48  1  0
 21 49  1  0
 22 50  1  0
 22 51  1  0
 23 52  1  0
 23 53  1  0
 24 54  1  0
 24 55  1  0
 26 56  1  0
M  END
>  <meeko>  (321) 
{"is_sidechain": false}

$$$$

     RDKit          3D

 56 61  0  0  0  0  0  0  0  0999 V2000
    9.9820    3.6640  -61.3500 C   0  0  0  0  0  0  0  0  0  0  0  0
   10.4730    4.2940  -60.1100 C   0  0  0  0  0  0  0  0  0  0  0  0
    9.7780    4.0200  -59.0000 C   0  0  0  0  0  0  0  0  0  0  0  0
   10.0350    4.6640  -57.8120 N   0  0  0  0  0  0  0  0  0  0  0  0
    9.5080    4.2860  -56.7360 N   0  0  0  0  0  0  0  0  0  0  0  0
    8.9520    3.0240  -56.7250 C   0  0  0  0  0  0  0  0  0  0  0  0
    9.3220    2.2580  -55.7690 N   0  0  0  0  0  0  0  0  0  0  0  0
    9.0010    0.8440  -55.7020 C   0  0  0  0  0  0  0  0  0  0  0  0
    8.0260    0.5170  -54.5660 C   0  0  0  0  0  0  0  0  0  0  0  0
    8.1870   -0.8370  -53.8220 C   0  0  2  0  0  0  0  0  0  0  0  0
    9.6510   -1.3470  -53.8150 C   0  0  0  0  0  0  0  0  0  0  0  0
    9.7480   -2.7280  -53.1390 C   0  0  1  0  0  0  0  0  0  0  0  0
    9.2460   -2.6150  -51.6900 C   0  0  0  0  0  0  0  0  0  0  0  0
    7.7830   -2.1410  -51.6770 C   0  0  2  0  0  0  0  0  0  0  0  0
    6.9180   -3.1510  -52.4450 C   0  0  0  0  0  0  0  0  0  0  0  0
    7.4130   -3.2690  -53.8950 C   0  0  2  0  0  0  0  0  0  0  0  0
    8.8760   -3.7350  -53.9020 C   0  0  0  0  0  0  0  0  0  0  0  0
    7.3210   -1.8930  -54.5710 C   0  0  0  0  0  0  0  0  0  0  0  0
    7.6910   -0.7620  -52.3570 C   0  0  0  0  0  0  0  0  0  0  0  0
    8.0570    2.7620  -57.8860 C   0  0  0  0  0  0  0  0  0  0  0  0
    6.7660    2.0410  -57.7770 C   0  0  0  0  0  0  0  0  0  0  0  0
    5.6120    2.5210  -58.7130 C   0  0  0  0  0  0  0  0  0  0  0  0
    4.6440    2.2530  -57.5480 C   0  0  0  0  0  0  0  0  0  0  0  0
    5.8350    2.5020  -56.6080 C   0  0  0  0  0  0  0  0  0  0  0  0
    8.6050    3.1450  -59.0550 C   0  0  0  0  0  0  0  0  0  0  0  0
    8.1600    2.8170  -60.3270 N   0  0  0  0  0  0  0  0  0  0  0  0
    8.8940    2.9700  -61.4700 N   0  0  0  0  0  0  0  0  0  0  0  0
   10.5944    3.7950  -62.2543 H   0  0  0  0  0  0  0  0  0  0  0  0
   11.3566    4.9491  -60.0985 H   0  0  0  0  0  0  0  0  0  0  0  0
    8.5458    0.5400  -56.6561 H   0  0  0  0  0  0  0  0  0  0  0  0
    9.9359    0.2978  -55.5078 H   0  0  0  0  0  0  0  0  0  0  0  0
    8.1226    1.3146  -53.8146 H   0  0  0  0  0  0  0  0  0  0  0  0
    7.0479    0.4381  -55.0631 H   0  0  0  0  0  0  0  0  0  0  0  0
   10.0095   -1.4274  -54.8518 H   0  0  0  0  0  0  0  0  0  0  0  0
   10.2691   -0.6343  -53.2494 H   0  0  0  0  0  0  0  0  0  0  0  0
   10.7932   -3.0707  -53.1461 H   0  0  0  0  0  0  0  0  0  0  0  0
    9.3148   -3.5987  -51.2027 H   0  0  0  0  0  0  0  0  0  0  0  0
    9.8670   -1.8866  -51.1479 H   0  0  0  0  0  0  0  0  0  0  0  0
    7.4246   -2.0639  -50.6399 H   0  0  0  0  0  0  0  0  0  0  0  0
    6.9844   -4.1341  -51.9560 H   0  0  0  0  0  0  0  0  0  0  0  0
    5.8736   -2.8056  -52.4462 H   0  0  0  0  0  0  0  0  0  0  0  0
    6.7921   -3.9970  -54.4377 H   0  0  0  0  0  0  0  0  0  0  0  0
    8.9475   -4.7201  -53.4177 H   0  0  0  0  0  0  0  0  0  0  0  0
    9.2289   -3.8056  -54.9414 H   0  0  0  0  0  0  0  0  0  0  0  0
    7.6774   -1.9785  -55.6082 H   0  0  0  0  0  0  0  0  0  0  0  0
    6.2720   -1.5630  -54.5466 H   0  0  0  0  0  0  0  0  0  0  0  0
    6.6441   -0.4244  -52.3476 H   0  0  0  0  0  0  0  0  0  0  0  0
    8.3267   -0.0538  -51.8054 H   0  0  0  0  0  0  0  0  0  0  0  0
    7.1962    1.0310  -57.8462 H   0  0  0  0  0  0  0  0  0  0  0  0
    5.6791    3.5751  -59.0201 H   0  0  0  0  0  0  0  0  0  0  0  0
    5.4542    2.0806  -59.7086 H   0  0  0  0  0  0  0  0  0  0  0  0
    3.8234    2.9795  -57.4544 H   0  0  0  0  0  0  0  0  0  0  0  0
    4.0388    1.3362  -57.4920 H   0  0  0  0  0  0  0  0  0  0  0  0
    5.9670    3.5505  -56.3026 H   0  0  0  0  0  0  0  0  0  0  0  0
    5.8898    2.0436  -55.6096 H   0  0  0  0  0  0  0  0  0  0  0  0
    7.4080    2.1330  -60.3790 H   0  0  0  0  0  0  0  0  0  0  0  0
  1  2  1  0
  2  3  2  0
  3  4  1  0
  4  5  2  0
  5  6  1  0
  6  7  2  0
  7  8  1  0
  8  9  1  0
 10  9  1  6
 10 11  1  0
 11 12  1  0
 12 13  1  0
 13 14  1  0
 14 15  1  0
 15 16  1  0
 16 17  1  0
 16 18  1  0
 14 19  1  0
  6 20  1  0
 20 21  1  0
 21 22  1  0
 22 23  1  0
 23 24  1  0
 20 25  2  0
 25 26  1  0
 26 27  1  0
 27  1  2  0
 25  3  1  0
 18 10  1  0
 24 21  1  0
 19 10  1  0
 17 12  1  0
  1 28  1  0
  2 29  1  0
  8 30  1  0
  8 31  1  0
  9 32  1  0
  9 33  1  0
 11 34  1  0
 11 35  1  0
 12 36  1  1
 13 37  1  0
 13 38  1  0
 14 39  1  1
 15 40  1  0
 15 41  1  0
 16 42  1  6
 17 43  1  0
 17 44  1  0
 18 45  1  0
 18 46  1  0
 19 47  1  0
 19 48  1  0
 21 49  1  0
 22 50  1  0
 22 51  1  0
 23 52  1  0
 23 53  1  0
 24 54  1  0
 24 55  1  0
 26 56  1  0
M  END
>  <meeko>  (322) 
{"is_sidechain": false}

$$$$

     RDKit          3D

 56 61  0  0  0  0  0  0  0  0999 V2000
    8.1300   -2.9900  -50.1550 C   0  0  0  0  0  0  0  0  0  0  0  0
    7.4060   -2.0340  -50.8260 C   0  0  0  0  0  0  0  0  0  0  0  0
    7.8980   -1.5240  -52.0140 C   0  0  0  0  0  0  0  0  0  0  0  0
    7.1910   -0.5920  -52.6520 N   0  0  0  0  0  0  0  0  0  0  0  0
    7.6600   -0.0720  -53.8120 N   0  0  0  0  0  0  0  0  0  0  0  0
    8.8400   -0.4770  -54.3300 C   0  0  0  0  0  0  0  0  0  0  0  0
    9.3020    0.0880  -55.5420 N   0  0  0  0  0  0  0  0  0  0  0  0
    8.8950    1.4770  -55.7680 C   0  0  0  0  0  0  0  0  0  0  0  0
    9.9960    2.1890  -56.5640 C   0  0  0  0  0  0  0  0  0  0  0  0
    9.5170    3.0670  -57.7460 C   0  0  2  0  0  0  0  0  0  0  0  0
    9.7100    2.3560  -59.1110 C   0  0  0  0  0  0  0  0  0  0  0  0
    9.2830    3.2750  -60.2700 C   0  0  1  0  0  0  0  0  0  0  0  0
    7.8010    3.6490  -60.0980 C   0  0  0  0  0  0  0  0  0  0  0  0
    7.5940    4.3820  -58.7630 C   0  0  2  0  0  0  0  0  0  0  0  0
    8.4520    5.6570  -58.7480 C   0  0  0  0  0  0  0  0  0  0  0  0
    9.9340    5.2930  -58.9160 C   0  0  2  0  0  0  0  0  0  0  0  0
   10.1330    4.5540  -60.2480 C   0  0  0  0  0  0  0  0  0  0  0  0
   10.3610    4.3730  -57.7610 C   0  0  0  0  0  0  0  0  0  0  0  0
    8.0250    3.4610  -57.6070 C   0  0  0  0  0  0  0  0  0  0  0  0
    9.6220   -1.4810  -53.7170 C   0  0  0  0  0  0  0  0  0  0  0  0
   11.0000   -1.9630  -54.4110 C   0  0  0  0  0  0  0  0  0  0  0  0
   11.2270   -3.5020  -54.5160 C   0  0  0  0  0  0  0  0  0  0  0  0
   10.8700   -3.4020  -56.0080 C   0  0  0  0  0  0  0  0  0  0  0  0
   11.2610   -1.9150  -55.9400 C   0  0  0  0  0  0  0  0  0  0  0  0
    9.1200   -1.9970  -52.5080 C   0  0  0  0  0  0  0  0  0  0  0  0
    9.7840   -2.9320  -51.8030 N   0  0  0  0  0  0  0  0  0  0  0  0
    9.2990   -3.4380  -50.6240 N   0  0  0  0  0  0  0  0  0  0  0  0
    7.7388   -3.3959  -49.2104 H   0  0  0  0  0  0  0  0  0  0  0  0
    6.4462   -1.6784  -50.4230 H   0  0  0  0  0  0  0  0  0  0  0  0
   10.3120   -0.0220  -55.5930 H   0  0  0  0  0  0  0  0  0  0  0  0
    7.9538    1.4990  -56.3369 H   0  0  0  0  0  0  0  0  0  0  0  0
    8.7420    1.9842  -54.8040 H   0  0  0  0  0  0  0  0  0  0  0  0
   10.5509    2.8350  -55.8678 H   0  0  0  0  0  0  0  0  0  0  0  0
   10.6019    1.3890  -57.0144 H   0  0  0  0  0  0  0  0  0  0  0  0
   10.7705    2.0906  -59.2329 H   0  0  0  0  0  0  0  0  0  0  0  0
    9.0849    1.4511  -59.1292 H   0  0  0  0  0  0  0  0  0  0  0  0
    9.4276    2.7532  -61.2275 H   0  0  0  0  0  0  0  0  0  0  0  0
    7.4928    4.3053  -60.9252 H   0  0  0  0  0  0  0  0  0  0  0  0
    7.1946    2.7313  -60.1032 H   0  0  0  0  0  0  0  0  0  0  0  0
    6.5336    4.6496  -58.6453 H   0  0  0  0  0  0  0  0  0  0  0  0
    8.1423    6.3145  -59.5737 H   0  0  0  0  0  0  0  0  0  0  0  0
    8.3134    6.1749  -57.7875 H   0  0  0  0  0  0  0  0  0  0  0  0
   10.5414    6.2101  -58.9092 H   0  0  0  0  0  0  0  0  0  0  0  0
    9.8275    5.2089  -61.0773 H   0  0  0  0  0  0  0  0  0  0  0  0
   11.1940    4.2849  -60.3571 H   0  0  0  0  0  0  0  0  0  0  0  0
   11.4230    4.1133  -57.8820 H   0  0  0  0  0  0  0  0  0  0  0  0
   10.1995    4.9050  -56.8118 H   0  0  0  0  0  0  0  0  0  0  0  0
    7.8782    3.9874  -56.6523 H   0  0  0  0  0  0  0  0  0  0  0  0
    7.4141    2.5468  -57.6374 H   0  0  0  0  0  0  0  0  0  0  0  0
   11.5621   -1.2766  -53.7607 H   0  0  0  0  0  0  0  0  0  0  0  0
   12.2587   -3.8259  -54.3143 H   0  0  0  0  0  0  0  0  0  0  0  0
   10.7074   -4.2049  -53.8482 H   0  0  0  0  0  0  0  0  0  0  0  0
   11.5012   -4.0114  -56.6715 H   0  0  0  0  0  0  0  0  0  0  0  0
    9.8892   -3.7232  -56.3887 H   0  0  0  0  0  0  0  0  0  0  0  0
   12.3045   -1.7052  -56.2177 H   0  0  0  0  0  0  0  0  0  0  0  0
   10.7719   -1.1658  -56.5799 H   0  0  0  0  0  0  0  0  0  0  0  0
  1  2  2  0
  2  3  1  0
  3  4  2  0
  4  5  1  0
  5  6  2  0
  6  7  1  0
  7  8  1  0
  8  9  1  0
 10  9  1  1
 10 11  1  0
 11 12  1  0
 12 13  1  0
 13 14  1  0
 14 15  1  0
 15 16  1  0
 16 17  1  0
 16 18  1  0
 14 19  1  0
  6 20  1  0
 20 21  1  0
 21 22  1  0
 22 23  1  0
 23 24  1  0
 20 25  2  0
 25 26  1  0
 26 27  2  0
 27  1  1  0
 25  3  1  0
 18 10  1  0
 24 21  1  0
 19 10  1  0
 17 12  1  0
  1 28  1  0
  2 29  1  0
  7 30  1  0
  8 31  1  0
  8 32  1  0
  9 33  1  0
  9 34  1  0
 11 35  1  0
 11 36  1  0
 12 37  1  6
 13 38  1  0
 13 39  1  0
 14 40  1  1
 15 41  1  0
 15 42  1  0
 16 43  1  6
 17 44  1  0
 17 45  1  0
 18 46  1  0
 18 47  1  0
 19 48  1  0
 19 49  1  0
 21 50  1  0
 22 51  1  0
 22 52  1  0
 23 53  1  0
 23 54  1  0
 24 55  1  0
 24 56  1  0
M  END
>  <meeko>  (323) 
{"is_sidechain": false}

$$$$

     RDKit          3D

 56 61  0  0  0  0  0  0  0  0999 V2000
    8.2470   -2.9380  -50.1900 C   0  0  0  0  0  0  0  0  0  0  0  0
    7.4780   -1.9560  -50.6620 C   0  0  0  0  0  0  0  0  0  0  0  0
    7.8530   -1.3830  -51.9650 C   0  0  0  0  0  0  0  0  0  0  0  0
    7.1360   -0.4170  -52.4500 N   0  0  0  0  0  0  0  0  0  0  0  0
    7.5580    0.0560  -53.6520 N   0  0  0  0  0  0  0  0  0  0  0  0
    8.6840   -0.3570  -54.3390 C   0  0  0  0  0  0  0  0  0  0  0  0
    9.1560    0.2060  -55.4020 N   0  0  0  0  0  0  0  0  0  0  0  0
    8.4930    1.3500  -56.0220 C   0  0  0  0  0  0  0  0  0  0  0  0
    9.5410    2.3710  -56.4710 C   0  0  0  0  0  0  0  0  0  0  0  0
    9.2110    3.1540  -57.7640 C   0  0  2  0  0  0  0  0  0  0  0  0
    9.9680    4.5110  -57.7230 C   0  0  0  0  0  0  0  0  0  0  0  0
    9.6770    5.3430  -58.9820 C   0  0  1  0  0  0  0  0  0  0  0  0
   10.1270    4.5550  -60.2220 C   0  0  0  0  0  0  0  0  0  0  0  0
    9.3660    3.2210  -60.3000 C   0  0  2  0  0  0  0  0  0  0  0  0
    7.8570    3.5040  -60.3830 C   0  0  0  0  0  0  0  0  0  0  0  0
    7.3990    4.2870  -59.1420 C   0  0  2  0  0  0  0  0  0  0  0  0
    8.1680    5.6160  -59.0690 C   0  0  0  0  0  0  0  0  0  0  0  0
    7.6950    3.4550  -57.8800 C   0  0  0  0  0  0  0  0  0  0  0  0
    9.6570    2.3910  -59.0370 C   0  0  0  0  0  0  0  0  0  0  0  0
    9.4460   -1.5410  -53.8020 C   0  0  0  0  0  0  0  0  0  0  0  0
   10.6400   -2.0960  -54.5130 C   0  0  0  0  0  0  0  0  0  0  0  0
   11.1410   -1.3300  -55.7780 C   0  0  0  0  0  0  0  0  0  0  0  0
   11.5270   -2.6970  -56.3690 C   0  0  0  0  0  0  0  0  0  0  0  0
   10.4180   -3.2950  -55.4880 C   0  0  0  0  0  0  0  0  0  0  0  0
    9.0600   -2.0080  -52.5970 C   0  0  0  0  0  0  0  0  0  0  0  0
    9.7230   -3.0140  -51.9300 N   0  0  0  0  0  0  0  0  0  0  0  0
    9.3480   -3.4480  -50.8190 N   0  0  0  0  0  0  0  0  0  0  0  0
    7.9734   -3.3721  -49.2170 H   0  0  0  0  0  0  0  0  0  0  0  0
    6.6036   -1.5910  -50.1033 H   0  0  0  0  0  0  0  0  0  0  0  0
    7.0800    0.8820  -53.9940 H   0  0  0  0  0  0  0  0  0  0  0  0
    7.9162    1.0098  -56.8947 H   0  0  0  0  0  0  0  0  0  0  0  0
    7.8161    1.8187  -55.2925 H   0  0  0  0  0  0  0  0  0  0  0  0
    9.6700    3.1012  -55.6585 H   0  0  0  0  0  0  0  0  0  0  0  0
   10.4459    1.7884  -56.6985 H   0  0  0  0  0  0  0  0  0  0  0  0
    9.6454    5.0761  -56.8361 H   0  0  0  0  0  0  0  0  0  0  0  0
   11.0483    4.3082  -57.6793 H   0  0  0  0  0  0  0  0  0  0  0  0
   10.2217    6.2974  -58.9336 H   0  0  0  0  0  0  0  0  0  0  0  0
    9.9188    5.1469  -61.1255 H   0  0  0  0  0  0  0  0  0  0  0  0
   11.2058    4.3525  -60.1501 H   0  0  0  0  0  0  0  0  0  0  0  0
    9.6902    2.6628  -61.1907 H   0  0  0  0  0  0  0  0  0  0  0  0
    7.6468    4.0967  -61.2855 H   0  0  0  0  0  0  0  0  0  0  0  0
    7.3129    2.5491  -60.4281 H   0  0  0  0  0  0  0  0  0  0  0  0
    6.3196    4.4886  -59.2068 H   0  0  0  0  0  0  0  0  0  0  0  0
    7.9562    6.2099  -59.9704 H   0  0  0  0  0  0  0  0  0  0  0  0
    7.8483    6.1706  -58.1745 H   0  0  0  0  0  0  0  0  0  0  0  0
    7.3698    4.0175  -56.9924 H   0  0  0  0  0  0  0  0  0  0  0  0
    7.1500    2.5020  -57.9494 H   0  0  0  0  0  0  0  0  0  0  0  0
    9.1100    1.4385  -59.0971 H   0  0  0  0  0  0  0  0  0  0  0  0
   10.7398    2.2067  -58.9772 H   0  0  0  0  0  0  0  0  0  0  0  0
   11.2345   -2.1858  -53.5918 H   0  0  0  0  0  0  0  0  0  0  0  0
   10.3552   -0.7958  -56.3322 H   0  0  0  0  0  0  0  0  0  0  0  0
   11.8651   -0.5051  -55.7062 H   0  0  0  0  0  0  0  0  0  0  0  0
   11.3596   -2.7954  -57.4517 H   0  0  0  0  0  0  0  0  0  0  0  0
   12.5602   -3.0738  -56.3441 H   0  0  0  0  0  0  0  0  0  0  0  0
    9.4244   -3.3254  -55.9589 H   0  0  0  0  0  0  0  0  0  0  0  0
   10.4547   -4.3379  -55.1402 H   0  0  0  0  0  0  0  0  0  0  0  0
  1  2  2  0
  2  3  1  0
  3  4  2  0
  4  5  1  0
  5  6  1  0
  6  7  2  0
  7  8  1  0
  8  9  1  0
 10  9  1  1
 10 11  1  0
 11 12  1  0
 12 13  1  0
 13 14  1  0
 14 15  1  0
 15 16  1  0
 16 17  1  0
 16 18  1  0
 14 19  1  0
  6 20  1  0
 20 21  1  0
 21 22  1  0
 22 23  1  0
 23 24  1  0
 20 25  2  0
 25 26  1  0
 26 27  2  0
 27  1  1  0
 25  3  1  0
 18 10  1  0
 24 21  1  0
 19 10  1  0
 17 12  1  0
  1 28  1  0
  2 29  1  0
  5 30  1  0
  8 31  1  0
  8 32  1  0
  9 33  1  0
  9 34  1  0
 11 35  1  0
 11 36  1  0
 12 37  1  1
 13 38  1  0
 13 39  1  0
 14 40  1  6
 15 41  1  0
 15 42  1  0
 16 43  1  6
 17 44  1  0
 17 45  1  0
 18 46  1  0
 18 47  1  0
 19 48  1  0
 19 49  1  0
 21 50  1  0
 22 51  1  0
 22 52  1  0
 23 53  1  0
 23 54  1  0
 24 55  1  0
 24 56  1  0
M  END
>  <meeko>  (324) 
{"is_sidechain": false}

$$$$

     RDKit          3D

 56 61  0  0  0  0  0  0  0  0999 V2000
    5.5380    2.8530  -58.0720 C   0  0  0  0  0  0  0  0  0  0  0  0
    5.1590    2.0070  -57.1150 C   0  0  0  0  0  0  0  0  0  0  0  0
    6.2230    1.4150  -56.2900 C   0  0  0  0  0  0  0  0  0  0  0  0
    5.8900    0.6490  -55.2970 N   0  0  0  0  0  0  0  0  0  0  0  0
    6.9450    0.1450  -54.6030 N   0  0  0  0  0  0  0  0  0  0  0  0
    8.2460    0.1280  -55.0640 C   0  0  0  0  0  0  0  0  0  0  0  0
    8.9380   -0.8630  -54.6120 N   0  0  0  0  0  0  0  0  0  0  0  0
   10.2680   -1.2250  -55.0710 C   0  0  0  0  0  0  0  0  0  0  0  0
   10.5160   -2.6880  -54.6820 C   0  0  0  0  0  0  0  0  0  0  0  0
   11.1840   -3.5710  -55.7640 C   0  0  2  0  0  0  0  0  0  0  0  0
   10.1550   -4.4770  -56.4870 C   0  0  0  0  0  0  0  0  0  0  0  0
   10.8560   -5.3870  -57.5130 C   0  0  1  0  0  0  0  0  0  0  0  0
   11.5770   -4.5130  -58.5520 C   0  0  0  0  0  0  0  0  0  0  0  0
   12.6240   -3.6270  -57.8580 C   0  0  2  0  0  0  0  0  0  0  0  0
   13.6460   -4.5200  -57.1370 C   0  0  0  0  0  0  0  0  0  0  0  0
   12.9340   -5.3940  -56.0940 C   0  0  2  0  0  0  0  0  0  0  0  0
   11.8840   -6.2720  -56.7930 C   0  0  0  0  0  0  0  0  0  0  0  0
   12.2310   -4.4870  -55.0710 C   0  0  0  0  0  0  0  0  0  0  0  0
   11.9200   -2.7210  -56.8310 C   0  0  0  0  0  0  0  0  0  0  0  0
    8.6500    1.2110  -56.0400 C   0  0  0  0  0  0  0  0  0  0  0  0
   10.0700    1.6370  -56.2080 C   0  0  0  0  0  0  0  0  0  0  0  0
   10.4350    3.1440  -56.2730 C   0  0  0  0  0  0  0  0  0  0  0  0
   11.5400    2.7560  -57.2810 C   0  0  0  0  0  0  0  0  0  0  0  0
   10.7170    1.4920  -57.6070 C   0  0  0  0  0  0  0  0  0  0  0  0
    7.6210    1.7970  -56.6920 C   0  0  0  0  0  0  0  0  0  0  0  0
    7.7850    2.7330  -57.6890 N   0  0  0  0  0  0  0  0  0  0  0  0
    6.8290    3.2140  -58.3350 N   0  0  0  0  0  0  0  0  0  0  0  0
    4.7499    3.2952  -58.6992 H   0  0  0  0  0  0  0  0  0  0  0  0
    4.0993    1.7626  -56.9496 H   0  0  0  0  0  0  0  0  0  0  0  0
    6.7430   -0.6470  -53.9960 H   0  0  0  0  0  0  0  0  0  0  0  0
   10.3304   -1.1125  -56.1635 H   0  0  0  0  0  0  0  0  0  0  0  0
   11.0242   -0.5716  -54.6114 H   0  0  0  0  0  0  0  0  0  0  0  0
   11.1644   -2.6953  -53.7934 H   0  0  0  0  0  0  0  0  0  0  0  0
    9.5203   -3.1245  -54.5143 H   0  0  0  0  0  0  0  0  0  0  0  0
    9.6391   -5.1020  -55.7433 H   0  0  0  0  0  0  0  0  0  0  0  0
    9.4326   -3.8385  -57.0165 H   0  0  0  0  0  0  0  0  0  0  0  0
   10.1110   -6.0228  -58.0136 H   0  0  0  0  0  0  0  0  0  0  0  0
   12.0772   -5.1597  -59.2879 H   0  0  0  0  0  0  0  0  0  0  0  0
   10.8402   -3.8721  -59.0584 H   0  0  0  0  0  0  0  0  0  0  0  0
   13.1404   -3.0061  -58.6049 H   0  0  0  0  0  0  0  0  0  0  0  0
   14.1484   -5.1659  -57.8721 H   0  0  0  0  0  0  0  0  0  0  0  0
   14.3879   -3.8848  -56.6309 H   0  0  0  0  0  0  0  0  0  0  0  0
   13.6701   -6.0332  -55.5845 H   0  0  0  0  0  0  0  0  0  0  0  0
   12.3827   -6.9221  -57.5269 H   0  0  0  0  0  0  0  0  0  0  0  0
   11.3680   -6.8866  -56.0407 H   0  0  0  0  0  0  0  0  0  0  0  0
   11.7218   -5.1143  -54.3245 H   0  0  0  0  0  0  0  0  0  0  0  0
   12.9879   -3.8509  -54.5889 H   0  0  0  0  0  0  0  0  0  0  0  0
   12.6699   -2.0880  -56.3340 H   0  0  0  0  0  0  0  0  0  0  0  0
   11.1821   -2.0973  -57.3568 H   0  0  0  0  0  0  0  0  0  0  0  0
   10.3786    1.0254  -55.3473 H   0  0  0  0  0  0  0  0  0  0  0  0
    9.6454    3.7911  -56.6828 H   0  0  0  0  0  0  0  0  0  0  0  0
   10.6542    3.7282  -55.3671 H   0  0  0  0  0  0  0  0  0  0  0  0
   11.6577    3.4549  -58.1223 H   0  0  0  0  0  0  0  0  0  0  0  0
   12.5966    2.6937  -56.9814 H   0  0  0  0  0  0  0  0  0  0  0  0
   10.0186    1.6036  -58.4495 H   0  0  0  0  0  0  0  0  0  0  0  0
   11.1965    0.5559  -57.9291 H   0  0  0  0  0  0  0  0  0  0  0  0
  1  2  2  0
  2  3  1  0
  3  4  2  0
  4  5  1  0
  5  6  1  0
  6  7  2  0
  7  8  1  0
  8  9  1  0
 10  9  1  1
 10 11  1  0
 11 12  1  0
 12 13  1  0
 13 14  1  0
 14 15  1  0
 15 16  1  0
 16 17  1  0
 16 18  1  0
 14 19  1  0
  6 20  1  0
 20 21  1  0
 21 22  1  0
 22 23  1  0
 23 24  1  0
 20 25  2  0
 25 26  1  0
 26 27  2  0
 27  1  1  0
 25  3  1  0
 18 10  1  0
 24 21  1  0
 19 10  1  0
 17 12  1  0
  1 28  1  0
  2 29  1  0
  5 30  1  0
  8 31  1  0
  8 32  1  0
  9 33  1  0
  9 34  1  0
 11 35  1  0
 11 36  1  0
 12 37  1  6
 13 38  1  0
 13 39  1  0
 14 40  1  6
 15 41  1  0
 15 42  1  0
 16 43  1  1
 17 44  1  0
 17 45  1  0
 18 46  1  0
 18 47  1  0
 19 48  1  0
 19 49  1  0
 21 50  1  0
 22 51  1  0
 22 52  1  0
 23 53  1  0
 23 54  1  0
 24 55  1  0
 24 56  1  0
M  END
>  <meeko>  (325) 
{"is_sidechain": false}

$$$$

     RDKit          3D

 37 39  0  0  0  0  0  0  0  0999 V2000
    3.7740    1.3440  -61.9410 N   0  0  0  0  0  0  0  0  0  0  0  0
    4.4940    1.9010  -62.8470 C   0  0  0  0  0  0  0  0  0  0  0  0
    5.6410    2.6000  -62.6430 N   0  0  0  0  0  0  0  0  0  0  0  0
    6.3280    2.6280  -61.3630 C   0  0  0  0  0  0  0  0  0  0  0  0
    7.8450    2.6350  -61.5780 C   0  0  0  0  0  0  0  0  0  0  0  0
    8.6840    3.2970  -60.4580 C   0  0  2  0  0  0  0  0  0  0  0  0
   10.0410    3.8270  -60.9870 C   0  0  0  0  0  0  0  0  0  0  0  0
   10.8780    4.4240  -59.8390 C   0  0  1  0  0  0  0  0  0  0  0  0
   10.0970    5.5830  -59.1960 C   0  0  0  0  0  0  0  0  0  0  0  0
    8.7590    5.0710  -58.6380 C   0  0  2  0  0  0  0  0  0  0  0  0
    9.0320    3.9850  -57.5850 C   0  0  0  0  0  0  0  0  0  0  0  0
    9.8090    2.8220  -58.2200 C   0  0  2  0  0  0  0  0  0  0  0  0
   11.1410    3.3430  -58.7820 C   0  0  0  0  0  0  0  0  0  0  0  0
    8.9770    2.2280  -59.3670 C   0  0  0  0  0  0  0  0  0  0  0  0
    7.9280    4.4710  -59.7870 C   0  0  0  0  0  0  0  0  0  0  0  0
    2.9630    0.8940  -62.3770 H   0  0  0  0  0  0  0  0  0  0  0  0
    4.1492    1.8028  -63.8870 H   0  0  0  0  0  0  0  0  0  0  0  0
    6.2250    2.7830  -63.4510 H   0  0  0  0  0  0  0  0  0  0  0  0
    6.0346    3.5341  -60.8127 H   0  0  0  0  0  0  0  0  0  0  0  0
    6.0508    1.7330  -60.7867 H   0  0  0  0  0  0  0  0  0  0  0  0
    8.1764    1.5906  -61.6747 H   0  0  0  0  0  0  0  0  0  0  0  0
    8.0152    3.2451  -62.4773 H   0  0  0  0  0  0  0  0  0  0  0  0
   10.5983    2.9973  -61.4465 H   0  0  0  0  0  0  0  0  0  0  0  0
    9.8474    4.6147  -61.7300 H   0  0  0  0  0  0  0  0  0  0  0  0
   11.8364    4.7928  -60.2333 H   0  0  0  0  0  0  0  0  0  0  0  0
   10.6923    6.0131  -58.3771 H   0  0  0  0  0  0  0  0  0  0  0  0
    9.8996    6.3515  -59.9579 H   0  0  0  0  0  0  0  0  0  0  0  0
    8.2057    5.9020  -58.1762 H   0  0  0  0  0  0  0  0  0  0  0  0
    9.6251    4.4143  -56.7641 H   0  0  0  0  0  0  0  0  0  0  0  0
    8.0739    3.6098  -57.1960 H   0  0  0  0  0  0  0  0  0  0  0  0
   10.0052    2.0509  -57.4605 H   0  0  0  0  0  0  0  0  0  0  0  0
   11.7388    3.7713  -57.9640 H   0  0  0  0  0  0  0  0  0  0  0  0
   11.6875    2.5091  -59.2467 H   0  0  0  0  0  0  0  0  0  0  0  0
    9.5338    1.3949  -59.8207 H   0  0  0  0  0  0  0  0  0  0  0  0
    8.0190    1.8751  -58.9574 H   0  0  0  0  0  0  0  0  0  0  0  0
    6.9721    4.1024  -59.3864 H   0  0  0  0  0  0  0  0  0  0  0  0
    7.7515    5.2530  -60.5402 H   0  0  0  0  0  0  0  0  0  0  0  0
  1  2  2  3
  2  3  1  0
  3  4  1  0
  4  5  1  0
  6  5  1  6
  6  7  1  0
  7  8  1  0
  8  9  1  0
  9 10  1  0
 10 11  1  0
 11 12  1  0
 12 13  1  0
 12 14  1  0
 10 15  1  0
 14  6  1  0
 15  6  1  0
 13  8  1  0
  1 16  1  0
  2 17  1  0
  3 18  1  0
  4 19  1  0
  4 20  1  0
  5 21  1  0
  5 22  1  0
  7 23  1  0
  7 24  1  0
  8 25  1  6
  9 26  1  0
  9 27  1  0
 10 28  1  1
 11 29  1  0
 11 30  1  0
 12 31  1  1
 13 32  1  0
 13 33  1  0
 14 34  1  0
 14 35  1  0
 15 36  1  0
 15 37  1  0
M  END
>  <meeko>  (326) 
{"is_sidechain": false}

$$$$

     RDKit          3D

 37 39  0  0  0  0  0  0  0  0999 V2000
   13.0120    7.5610  -60.8990 N   0  0  0  0  0  0  0  0  0  0  0  0
   12.7670    6.7140  -59.8710 C   0  0  0  0  0  0  0  0  0  0  0  0
   13.4730    5.6660  -59.6520 N   0  0  0  0  0  0  0  0  0  0  0  0
   13.0160    4.8960  -58.4890 C   0  0  0  0  0  0  0  0  0  0  0  0
   12.1850    3.7160  -59.0000 C   0  0  0  0  0  0  0  0  0  0  0  0
   10.6510    3.8430  -58.8360 C   0  0  2  0  0  0  0  0  0  0  0  0
   10.0060    2.5150  -58.3690 C   0  0  0  0  0  0  0  0  0  0  0  0
    8.4910    2.6870  -58.1580 C   0  0  1  0  0  0  0  0  0  0  0  0
    8.2440    3.7650  -57.0910 C   0  0  0  0  0  0  0  0  0  0  0  0
    8.8490    5.1020  -57.5470 C   0  0  2  0  0  0  0  0  0  0  0  0
    8.2020    5.5300  -58.8730 C   0  0  0  0  0  0  0  0  0  0  0  0
    8.4490    4.4600  -59.9480 C   0  0  2  0  0  0  0  0  0  0  0  0
    7.8430    3.1260  -59.4810 C   0  0  0  0  0  0  0  0  0  0  0  0
    9.9640    4.2830  -60.1540 C   0  0  0  0  0  0  0  0  0  0  0  0
   10.3600    4.9250  -57.7580 C   0  0  0  0  0  0  0  0  0  0  0  0
   12.8150    8.5410  -60.7400 H   0  0  0  0  0  0  0  0  0  0  0  0
   13.9120    7.3900  -61.3360 H   0  0  0  0  0  0  0  0  0  0  0  0
   11.9272    6.9342  -59.1955 H   0  0  0  0  0  0  0  0  0  0  0  0
   13.8830    4.5247  -57.9230 H   0  0  0  0  0  0  0  0  0  0  0  0
   12.4109    5.5303  -57.8244 H   0  0  0  0  0  0  0  0  0  0  0  0
   12.3995    3.5928  -60.0718 H   0  0  0  0  0  0  0  0  0  0  0  0
   12.4788    2.8565  -58.3796 H   0  0  0  0  0  0  0  0  0  0  0  0
   10.1782    1.7424  -59.1328 H   0  0  0  0  0  0  0  0  0  0  0  0
   10.4633    2.2180  -57.4137 H   0  0  0  0  0  0  0  0  0  0  0  0
    8.0532    1.7335  -57.8275 H   0  0  0  0  0  0  0  0  0  0  0  0
    7.1613    3.8874  -56.9402 H   0  0  0  0  0  0  0  0  0  0  0  0
    8.7187    3.4561  -56.1480 H   0  0  0  0  0  0  0  0  0  0  0  0
    8.6653    5.8705  -56.7817 H   0  0  0  0  0  0  0  0  0  0  0  0
    7.1191    5.6556  -58.7261 H   0  0  0  0  0  0  0  0  0  0  0  0
    8.6468    6.4810  -59.2013 H   0  0  0  0  0  0  0  0  0  0  0  0
    7.9817    4.7714  -60.8939 H   0  0  0  0  0  0  0  0  0  0  0  0
    6.7602    3.2503  -59.3323 H   0  0  0  0  0  0  0  0  0  0  0  0
    8.0295    2.3579  -60.2460 H   0  0  0  0  0  0  0  0  0  0  0  0
   10.1361    3.5163  -60.9238 H   0  0  0  0  0  0  0  0  0  0  0  0
   10.3917    5.2459  -60.4702 H   0  0  0  0  0  0  0  0  0  0  0  0
   10.7919    5.8826  -58.0842 H   0  0  0  0  0  0  0  0  0  0  0  0
   10.8103    4.6019  -56.8078 H   0  0  0  0  0  0  0  0  0  0  0  0
  1  2  1  0
  2  3  2  0
  3  4  1  0
  4  5  1  0
  6  5  1  6
  6  7  1  0
  7  8  1  0
  8  9  1  0
  9 10  1  0
 10 11  1  0
 11 12  1  0
 12 13  1  0
 12 14  1  0
 10 15  1  0
 14  6  1  0
 15  6  1  0
 13  8  1  0
  1 16  1  0
  1 17  1  0
  2 18  1  0
  4 19  1  0
  4 20  1  0
  5 21  1  0
  5 22  1  0
  7 23  1  0
  7 24  1  0
  8 25  1  1
  9 26  1  0
  9 27  1  0
 10 28  1  1
 11 29  1  0
 11 30  1  0
 12 31  1  6
 13 32  1  0
 13 33  1  0
 14 34  1  0
 14 35  1  0
 15 36  1  0
 15 37  1  0
M  END
>  <meeko>  (327) 
{"is_sidechain": false}

$$$$

     RDKit          3D

 37 39  0  0  0  0  0  0  0  0999 V2000
    3.9450    1.0650  -61.7330 N   0  0  0  0  0  0  0  0  0  0  0  0
    4.5530    1.9120  -62.6110 C   0  0  0  0  0  0  0  0  0  0  0  0
    5.6060    2.6250  -62.4860 N   0  0  0  0  0  0  0  0  0  0  0  0
    6.3290    2.6280  -61.2150 C   0  0  0  0  0  0  0  0  0  0  0  0
    7.8360    2.6450  -61.4860 C   0  0  0  0  0  0  0  0  0  0  0  0
    8.7150    3.2780  -60.3810 C   0  0  2  0  0  0  0  0  0  0  0  0
    9.0610    2.2570  -59.2660 C   0  0  0  0  0  0  0  0  0  0  0  0
    9.9860    2.8940  -58.2120 C   0  0  1  0  0  0  0  0  0  0  0  0
   11.2860    3.3570  -58.8870 C   0  0  0  0  0  0  0  0  0  0  0  0
   10.9710    4.3920  -59.9780 C   0  0  2  0  0  0  0  0  0  0  0  0
   10.2600    5.5990  -59.3470 C   0  0  0  0  0  0  0  0  0  0  0  0
    8.9550    5.1460  -58.6740 C   0  0  2  0  0  0  0  0  0  0  0  0
    9.2790    4.1080  -57.5870 C   0  0  0  0  0  0  0  0  0  0  0  0
    8.0320    4.5050  -59.7260 C   0  0  0  0  0  0  0  0  0  0  0  0
   10.0470    3.7540  -61.0260 C   0  0  0  0  0  0  0  0  0  0  0  0
    4.5010    0.7630  -60.9440 H   0  0  0  0  0  0  0  0  0  0  0  0
    3.3800    0.3270  -62.1360 H   0  0  0  0  0  0  0  0  0  0  0  0
    4.0551    1.9955  -63.5883 H   0  0  0  0  0  0  0  0  0  0  0  0
    6.0502    3.5211  -60.6365 H   0  0  0  0  0  0  0  0  0  0  0  0
    6.0692    1.7252  -60.6428 H   0  0  0  0  0  0  0  0  0  0  0  0
    8.1653    1.6045  -61.6237 H   0  0  0  0  0  0  0  0  0  0  0  0
    7.9713    3.2801  -62.3739 H   0  0  0  0  0  0  0  0  0  0  0  0
    8.1321    1.9262  -58.7784 H   0  0  0  0  0  0  0  0  0  0  0  0
    9.5800    1.4000  -59.7201 H   0  0  0  0  0  0  0  0  0  0  0  0
   10.2193    2.1559  -57.4305 H   0  0  0  0  0  0  0  0  0  0  0  0
   11.9461    3.8113  -58.1334 H   0  0  0  0  0  0  0  0  0  0  0  0
   11.7843    2.4897  -59.3447 H   0  0  0  0  0  0  0  0  0  0  0  0
   11.9057    4.7220  -60.4549 H   0  0  0  0  0  0  0  0  0  0  0  0
   10.9183    6.0572  -58.5942 H   0  0  0  0  0  0  0  0  0  0  0  0
   10.0259    6.3322  -60.1329 H   0  0  0  0  0  0  0  0  0  0  0  0
    8.4532    6.0144  -58.2223 H   0  0  0  0  0  0  0  0  0  0  0  0
    9.9370    4.5640  -56.8326 H   0  0  0  0  0  0  0  0  0  0  0  0
    8.3427    3.7763  -57.1144 H   0  0  0  0  0  0  0  0  0  0  0  0
    7.0998    4.1821  -59.2394 H   0  0  0  0  0  0  0  0  0  0  0  0
    7.8175    5.2487  -60.5076 H   0  0  0  0  0  0  0  0  0  0  0  0
    9.8233    4.4957  -61.8070 H   0  0  0  0  0  0  0  0  0  0  0  0
   10.5582    2.8808  -61.4576 H   0  0  0  0  0  0  0  0  0  0  0  0
  1  2  1  0
  2  3  2  0
  3  4  1  0
  4  5  1  0
  6  5  1  6
  6  7  1  0
  7  8  1  0
  8  9  1  0
  9 10  1  0
 10 11  1  0
 11 12  1  0
 12 13  1  0
 12 14  1  0
 10 15  1  0
 14  6  1  0
 15  6  1  0
 13  8  1  0
  1 16  1  0
  1 17  1  0
  2 18  1  0
  4 19  1  0
  4 20  1  0
  5 21  1  0
  5 22  1  0
  7 23  1  0
  7 24  1  0
  8 25  1  1
  9 26  1  0
  9 27  1  0
 10 28  1  6
 11 29  1  0
 11 30  1  0
 12 31  1  1
 13 32  1  0
 13 33  1  0
 14 34  1  0
 14 35  1  0
 15 36  1  0
 15 37  1  0
M  END
>  <meeko>  (328) 
{"is_sidechain": false}

$$$$

     RDKit          3D

 55 59  0  0  0  0  0  0  0  0999 V2000
    5.5230   -0.3750  -54.2020 C   0  0  0  0  0  0  0  0  0  0  0  0
    6.6930    0.3240  -53.5210 C   0  0  0  0  0  0  0  0  0  0  0  0
    7.9260   -0.5340  -53.4810 C   0  0  0  0  0  0  0  0  0  0  0  0
    9.0210   -0.3590  -54.5270 C   0  0  0  0  0  0  0  0  0  0  0  0
    8.7590    0.6120  -55.3390 N   0  0  0  0  0  0  0  0  0  0  0  0
    9.6060    1.0730  -56.4180 C   0  0  0  0  0  0  0  0  0  0  0  0
    9.6640    2.6040  -56.3400 C   0  0  0  0  0  0  0  0  0  0  0  0
    9.2530    3.3660  -57.6230 C   0  0  2  0  0  0  0  0  0  0  0  0
    9.6500    2.5040  -58.8540 C   0  0  0  0  0  0  0  0  0  0  0  0
    9.2660    3.2070  -60.1660 C   0  0  1  0  0  0  0  0  0  0  0  0
    7.7490    3.4410  -60.1870 C   0  0  0  0  0  0  0  0  0  0  0  0
    7.3360    4.3180  -58.9960 C   0  0  2  0  0  0  0  0  0  0  0  0
    8.0700    5.6670  -59.0810 C   0  0  0  0  0  0  0  0  0  0  0  0
    9.5910    5.4410  -59.0530 C   0  0  2  0  0  0  0  0  0  0  0  0
    9.9940    4.5590  -60.2450 C   0  0  0  0  0  0  0  0  0  0  0  0
    9.9730    4.7330  -57.7400 C   0  0  0  0  0  0  0  0  0  0  0  0
    7.7240    3.6140  -57.6830 C   0  0  0  0  0  0  0  0  0  0  0  0
   10.1330   -1.2320  -54.4780 N   0  0  0  0  0  0  0  0  0  0  0  0
   11.1900   -1.2650  -55.4780 C   0  0  0  0  0  0  0  0  0  0  0  0
   10.3340   -2.1930  -53.4970 N   0  0  0  0  0  0  0  0  0  0  0  0
    9.3850   -2.2880  -52.6350 C   0  0  0  0  0  0  0  0  0  0  0  0
    9.3370   -3.2080  -51.4680 C   0  0  0  0  0  0  0  0  0  0  0  0
    8.1680   -2.9360  -50.8680 C   0  0  0  0  0  0  0  0  0  0  0  0
    7.4310   -1.9850  -51.5140 N   0  0  0  0  0  0  0  0  0  0  0  0
    8.1220   -1.5010  -52.5840 C   0  0  0  0  0  0  0  0  0  0  0  0
    4.8435   -0.7810  -53.4382 H   0  0  0  0  0  0  0  0  0  0  0  0
    4.9798    0.3467  -54.8298 H   0  0  0  0  0  0  0  0  0  0  0  0
    5.9010   -1.1954  -54.8298 H   0  0  0  0  0  0  0  0  0  0  0  0
    6.9227    1.2476  -54.0725 H   0  0  0  0  0  0  0  0  0  0  0  0
    6.3986    0.5381  -52.4830 H   0  0  0  0  0  0  0  0  0  0  0  0
   10.6167    0.6532  -56.3072 H   0  0  0  0  0  0  0  0  0  0  0  0
    9.2039    0.7505  -57.3897 H   0  0  0  0  0  0  0  0  0  0  0  0
    8.9939    2.9251  -55.5289 H   0  0  0  0  0  0  0  0  0  0  0  0
   10.7228    2.8521  -56.1747 H   0  0  0  0  0  0  0  0  0  0  0  0
   10.7371    2.3367  -58.8404 H   0  0  0  0  0  0  0  0  0  0  0  0
    9.1119    1.5462  -58.7992 H   0  0  0  0  0  0  0  0  0  0  0  0
    9.5543    2.5819  -61.0240 H   0  0  0  0  0  0  0  0  0  0  0  0
    7.4712    3.9453  -61.1243 H   0  0  0  0  0  0  0  0  0  0  0  0
    7.2333    2.4719  -60.1176 H   0  0  0  0  0  0  0  0  0  0  0  0
    6.2487    4.4828  -59.0200 H   0  0  0  0  0  0  0  0  0  0  0  0
    7.7942    6.1734  -60.0177 H   0  0  0  0  0  0  0  0  0  0  0  0
    7.7816    6.2897  -58.2213 H   0  0  0  0  0  0  0  0  0  0  0  0
   10.1126    6.4074  -59.1170 H   0  0  0  0  0  0  0  0  0  0  0  0
    9.7211    5.0659  -61.1824 H   0  0  0  0  0  0  0  0  0  0  0  0
   11.0802    4.3874  -60.2174 H   0  0  0  0  0  0  0  0  0  0  0  0
   11.0608    4.5706  -57.7210 H   0  0  0  0  0  0  0  0  0  0  0  0
    9.6660    5.3669  -56.8951 H   0  0  0  0  0  0  0  0  0  0  0  0
    7.4275    4.2465  -56.8333 H   0  0  0  0  0  0  0  0  0  0  0  0
    7.2072    2.6441  -57.6366 H   0  0  0  0  0  0  0  0  0  0  0  0
   12.1685   -1.2955  -54.9764 H   0  0  0  0  0  0  0  0  0  0  0  0
   11.0722   -2.1599  -56.1067 H   0  0  0  0  0  0  0  0  0  0  0  0
   11.1282   -0.3645  -56.1067 H   0  0  0  0  0  0  0  0  0  0  0  0
   10.0923   -3.9476  -51.1639 H   0  0  0  0  0  0  0  0  0  0  0  0
    7.8352   -3.4317  -49.9441 H   0  0  0  0  0  0  0  0  0  0  0  0
    6.6410   -1.5080  -51.1050 H   0  0  0  0  0  0  0  0  0  0  0  0
  1  2  1  0
  2  3  1  0
  3  4  1  0
  4  5  2  0
  5  6  1  0
  6  7  1  0
  8  7  1  1
  8  9  1  0
  9 10  1  0
 10 11  1  0
 11 12  1  0
 12 13  1  0
 13 14  1  0
 14 15  1  0
 14 16  1  0
 12 17  1  0
  4 18  1  0
 18 19  1  0
 18 20  1  0
 20 21  2  0
 21 22  1  0
 22 23  2  0
 23 24  1  0
 24 25  1  0
 25  3  2  0
 16  8  1  0
 25 21  1  0
 17  8  1  0
 15 10  1  0
  1 26  1  0
  1 27  1  0
  1 28  1  0
  2 29  1  0
  2 30  1  0
  6 31  1  0
  6 32  1  0
  7 33  1  0
  7 34  1  0
  9 35  1  0
  9 36  1  0
 10 37  1  6
 11 38  1  0
 11 39  1  0
 12 40  1  1
 13 41  1  0
 13 42  1  0
 14 43  1  6
 15 44  1  0
 15 45  1  0
 16 46  1  0
 16 47  1  0
 17 48  1  0
 17 49  1  0
 19 50  1  0
 19 51  1  0
 19 52  1  0
 22 53  1  0
 23 54  1  0
 24 55  1  0
M  END
>  <meeko>  (329) 
{"is_sidechain": false}

$$$$

     RDKit          3D

 55 59  0  0  0  0  0  0  0  0999 V2000
   10.8220   -2.7160  -55.7530 C   0  0  0  0  0  0  0  0  0  0  0  0
   10.8510   -1.4790  -54.8670 C   0  0  0  0  0  0  0  0  0  0  0  0
    9.5020   -1.1760  -54.2780 C   0  0  0  0  0  0  0  0  0  0  0  0
    9.1780   -1.8550  -53.0180 C   0  0  0  0  0  0  0  0  0  0  0  0
    9.8690   -2.6930  -52.3120 N   0  0  0  0  0  0  0  0  0  0  0  0
    9.0720   -2.9710  -51.2190 C   0  0  0  0  0  0  0  0  0  0  0  0
    7.8810   -2.3630  -51.1440 C   0  0  0  0  0  0  0  0  0  0  0  0
    7.8780   -1.5770  -52.3670 C   0  0  0  0  0  0  0  0  0  0  0  0
    6.9840   -0.7960  -52.8530 N   0  0  0  0  0  0  0  0  0  0  0  0
    7.3010   -0.2170  -54.0660 N   0  0  0  0  0  0  0  0  0  0  0  0
    6.1530    0.4740  -54.6630 C   0  0  0  0  0  0  0  0  0  0  0  0
    8.5380   -0.3390  -54.7420 C   0  0  0  0  0  0  0  0  0  0  0  0
    8.7660    0.4020  -55.9080 N   0  0  0  0  0  0  0  0  0  0  0  0
    9.3690    1.7380  -55.8300 C   0  0  0  0  0  0  0  0  0  0  0  0
   10.4030    1.8820  -56.9500 C   0  0  0  0  0  0  0  0  0  0  0  0
   10.0920    2.9540  -58.0230 C   0  0  2  0  0  0  0  0  0  0  0  0
   11.3510    3.3330  -58.8440 C   0  0  0  0  0  0  0  0  0  0  0  0
   11.0000    4.3550  -59.9410 C   0  0  1  0  0  0  0  0  0  0  0  0
    9.9490    3.7510  -60.8850 C   0  0  0  0  0  0  0  0  0  0  0  0
    8.6790    3.3950  -60.0970 C   0  0  2  0  0  0  0  0  0  0  0  0
    8.1120    4.6630  -59.4400 C   0  0  0  0  0  0  0  0  0  0  0  0
    9.1550    5.2720  -58.4890 C   0  0  2  0  0  0  0  0  0  0  0  0
   10.4240    5.6220  -59.2860 C   0  0  0  0  0  0  0  0  0  0  0  0
    9.5110    4.2470  -57.3960 C   0  0  0  0  0  0  0  0  0  0  0  0
    9.0340    2.3760  -59.0030 C   0  0  0  0  0  0  0  0  0  0  0  0
   10.8009   -3.6177  -55.1233 H   0  0  0  0  0  0  0  0  0  0  0  0
    9.9242   -2.6912  -56.3881 H   0  0  0  0  0  0  0  0  0  0  0  0
   11.7200   -2.7333  -56.3881 H   0  0  0  0  0  0  0  0  0  0  0  0
   11.5666   -1.6454  -54.0483 H   0  0  0  0  0  0  0  0  0  0  0  0
   11.1499   -0.6226  -55.4893 H   0  0  0  0  0  0  0  0  0  0  0  0
    9.4043   -3.6686  -50.4361 H   0  0  0  0  0  0  0  0  0  0  0  0
    7.1094   -2.4384  -50.3637 H   0  0  0  0  0  0  0  0  0  0  0  0
    5.5044    0.8644  -53.8649 H   0  0  0  0  0  0  0  0  0  0  0  0
    6.5100    1.3074  -55.2859 H   0  0  0  0  0  0  0  0  0  0  0  0
    5.5837   -0.2316  -55.2859 H   0  0  0  0  0  0  0  0  0  0  0  0
    9.2640   -0.1440  -56.6040 H   0  0  0  0  0  0  0  0  0  0  0  0
    8.5877    2.5032  -55.9483 H   0  0  0  0  0  0  0  0  0  0  0  0
    9.8571    1.8699  -54.8531 H   0  0  0  0  0  0  0  0  0  0  0  0
   11.3676    2.1379  -56.4874 H   0  0  0  0  0  0  0  0  0  0  0  0
   10.4021    0.9191  -57.4819 H   0  0  0  0  0  0  0  0  0  0  0  0
   12.1027    3.7704  -58.1705 H   0  0  0  0  0  0  0  0  0  0  0  0
   11.7476    2.4249  -59.3215 H   0  0  0  0  0  0  0  0  0  0  0  0
   11.9053    4.6091  -60.5119 H   0  0  0  0  0  0  0  0  0  0  0  0
    9.6992    4.4822  -61.6679 H   0  0  0  0  0  0  0  0  0  0  0  0
   10.3573    2.8385  -61.3440 H   0  0  0  0  0  0  0  0  0  0  0  0
    7.9297    2.9665  -60.7789 H   0  0  0  0  0  0  0  0  0  0  0  0
    7.8584    5.3957  -60.2203 H   0  0  0  0  0  0  0  0  0  0  0  0
    7.2098    4.4013  -58.8676 H   0  0  0  0  0  0  0  0  0  0  0  0
    8.7442    6.1804  -58.0242 H   0  0  0  0  0  0  0  0  0  0  0  0
   10.1729    6.3542  -60.0676 H   0  0  0  0  0  0  0  0  0  0  0  0
   11.1735    6.0479  -58.6028 H   0  0  0  0  0  0  0  0  0  0  0  0
   10.2580    4.6866  -56.7187 H   0  0  0  0  0  0  0  0  0  0  0  0
    8.5962    3.9901  -56.8418 H   0  0  0  0  0  0  0  0  0  0  0  0
    8.1239    2.1215  -58.4400 H   0  0  0  0  0  0  0  0  0  0  0  0
    9.4547    1.4801  -59.4830 H   0  0  0  0  0  0  0  0  0  0  0  0
  1  2  1  0
  2  3  1  0
  3  4  1  0
  4  5  2  0
  5  6  1  0
  6  7  2  0
  7  8  1  0
  8  9  2  0
  9 10  1  0
 10 11  1  0
 10 12  1  0
 12 13  1  0
 13 14  1  0
 14 15  1  0
 16 15  1  1
 16 17  1  0
 17 18  1  0
 18 19  1  0
 19 20  1  0
 20 21  1  0
 21 22  1  0
 22 23  1  0
 22 24  1  0
 20 25  1  0
 12  3  2  0
 24 16  1  0
  8  4  1  0
 25 16  1  0
 23 18  1  0
  1 26  1  0
  1 27  1  0
  1 28  1  0
  2 29  1  0
  2 30  1  0
  6 31  1  0
  7 32  1  0
 11 33  1  0
 11 34  1  0
 11 35  1  0
 13 36  1  0
 14 37  1  0
 14 38  1  0
 15 39  1  0
 15 40  1  0
 17 41  1  0
 17 42  1  0
 18 43  1  6
 19 44  1  0
 19 45  1  0
 20 46  1  6
 21 47  1  0
 21 48  1  0
 22 49  1  1
 23 50  1  0
 23 51  1  0
 24 52  1  0
 24 53  1  0
 25 54  1  0
 25 55  1  0
M  END
>  <meeko>  (330) 
{"is_sidechain": false}

$$$$

     RDKit          3D

 55 59  0  0  0  0  0  0  0  0999 V2000
    5.8950   -0.4470  -54.6750 C   0  0  0  0  0  0  0  0  0  0  0  0
    6.9990    0.2730  -53.9120 C   0  0  0  0  0  0  0  0  0  0  0  0
    8.2320   -0.5730  -53.7580 C   0  0  0  0  0  0  0  0  0  0  0  0
    8.3900   -1.4850  -52.7900 C   0  0  0  0  0  0  0  0  0  0  0  0
    7.5230   -1.7800  -51.7640 N   0  0  0  0  0  0  0  0  0  0  0  0
    8.1700   -2.6450  -51.0460 C   0  0  0  0  0  0  0  0  0  0  0  0
    9.5040   -3.0140  -51.5220 C   0  0  0  0  0  0  0  0  0  0  0  0
    9.5860   -2.2830  -52.6340 C   0  0  0  0  0  0  0  0  0  0  0  0
   10.5670   -2.1750  -53.5760 N   0  0  0  0  0  0  0  0  0  0  0  0
   10.4890   -1.3130  -54.6610 N   0  0  0  0  0  0  0  0  0  0  0  0
   11.1110   -1.8330  -55.8770 C   0  0  0  0  0  0  0  0  0  0  0  0
    9.3950   -0.4110  -54.7410 C   0  0  0  0  0  0  0  0  0  0  0  0
    9.2460    0.5910  -55.5470 N   0  0  0  0  0  0  0  0  0  0  0  0
   10.2350    1.0740  -56.4940 C   0  0  0  0  0  0  0  0  0  0  0  0
   10.2450    2.6060  -56.5170 C   0  0  0  0  0  0  0  0  0  0  0  0
    9.6030    3.2710  -57.7590 C   0  0  2  0  0  0  0  0  0  0  0  0
    9.5670    2.3100  -58.9740 C   0  0  0  0  0  0  0  0  0  0  0  0
    8.9800    3.0160  -60.2110 C   0  0  1  0  0  0  0  0  0  0  0  0
    7.5510    3.4870  -59.8940 C   0  0  0  0  0  0  0  0  0  0  0  0
    7.5710    4.4670  -58.7100 C   0  0  2  0  0  0  0  0  0  0  0  0
    8.4460    5.6780  -59.0680 C   0  0  0  0  0  0  0  0  0  0  0  0
    9.8770    5.2160  -59.3830 C   0  0  2  0  0  0  0  0  0  0  0  0
    9.8490    4.2320  -60.5640 C   0  0  0  0  0  0  0  0  0  0  0  0
   10.4600    4.5080  -58.1500 C   0  0  0  0  0  0  0  0  0  0  0  0
    8.1600    3.7580  -57.4760 C   0  0  0  0  0  0  0  0  0  0  0  0
    5.1940   -0.9042  -53.9611 H   0  0  0  0  0  0  0  0  0  0  0  0
    5.3562    0.2739  -55.3075 H   0  0  0  0  0  0  0  0  0  0  0  0
    6.3374   -1.2307  -55.3075 H   0  0  0  0  0  0  0  0  0  0  0  0
    7.2654    1.1904  -54.4573 H   0  0  0  0  0  0  0  0  0  0  0  0
    6.6189    0.4999  -52.9050 H   0  0  0  0  0  0  0  0  0  0  0  0
    7.7401   -3.0772  -50.1304 H   0  0  0  0  0  0  0  0  0  0  0  0
   10.2381   -3.7053  -51.0825 H   0  0  0  0  0  0  0  0  0  0  0  0
   11.4920   -2.4930  -53.2910 H   0  0  0  0  0  0  0  0  0  0  0  0
   11.9291   -2.5169  -55.6068 H   0  0  0  0  0  0  0  0  0  0  0  0
   10.3600   -2.3758  -56.4697 H   0  0  0  0  0  0  0  0  0  0  0  0
   11.5121   -0.9977  -56.4697 H   0  0  0  0  0  0  0  0  0  0  0  0
   11.2295    0.7090  -56.1980 H   0  0  0  0  0  0  0  0  0  0  0  0
    9.9808    0.7026  -57.4977 H   0  0  0  0  0  0  0  0  0  0  0  0
    9.7022    2.9594  -55.6279 H   0  0  0  0  0  0  0  0  0  0  0  0
   11.3061    2.8950  -56.5415 H   0  0  0  0  0  0  0  0  0  0  0  0
   10.5904    1.9763  -59.2006 H   0  0  0  0  0  0  0  0  0  0  0  0
    8.9306    1.4483  -58.7240 H   0  0  0  0  0  0  0  0  0  0  0  0
    8.9608    2.3181  -61.0610 H   0  0  0  0  0  0  0  0  0  0  0  0
    7.1292    3.9904  -60.7764 H   0  0  0  0  0  0  0  0  0  0  0  0
    6.9335    2.6155  -59.6310 H   0  0  0  0  0  0  0  0  0  0  0  0
    6.5475    4.8045  -58.4897 H   0  0  0  0  0  0  0  0  0  0  0  0
    8.0244    6.1847  -59.9486 H   0  0  0  0  0  0  0  0  0  0  0  0
    8.4696    6.3719  -58.2148 H   0  0  0  0  0  0  0  0  0  0  0  0
   10.4973    6.0863  -59.6433 H   0  0  0  0  0  0  0  0  0  0  0  0
    9.4303    4.7351  -61.4481 H   0  0  0  0  0  0  0  0  0  0  0  0
   10.8738    3.8946  -60.7785 H   0  0  0  0  0  0  0  0  0  0  0  0
   11.4849    4.1784  -58.3758 H   0  0  0  0  0  0  0  0  0  0  0  0
   10.4587    5.2150  -57.3073 H   0  0  0  0  0  0  0  0  0  0  0  0
    8.1758    4.4604  -56.6296 H   0  0  0  0  0  0  0  0  0  0  0  0
    7.5335    2.8858  -57.2376 H   0  0  0  0  0  0  0  0  0  0  0  0
  1  2  1  0
  2  3  1  0
  3  4  2  0
  4  5  1  0
  5  6  2  0
  6  7  1  0
  7  8  2  0
  8  9  1  0
  9 10  1  0
 10 11  1  0
 10 12  1  0
 12 13  2  0
 13 14  1  0
 14 15  1  0
 16 15  1  1
 16 17  1  0
 17 18  1  0
 18 19  1  0
 19 20  1  0
 20 21  1  0
 21 22  1  0
 22 23  1  0
 22 24  1  0
 20 25  1  0
 12  3  1  0
 24 16  1  0
  8  4  1  0
 25 16  1  0
 23 18  1  0
  1 26  1  0
  1 27  1  0
  1 28  1  0
  2 29  1  0
  2 30  1  0
  6 31  1  0
  7 32  1  0
  9 33  1  0
 11 34  1  0
 11 35  1  0
 11 36  1  0
 14 37  1  0
 14 38  1  0
 15 39  1  0
 15 40  1  0
 17 41  1  0
 17 42  1  0
 18 43  1  6
 19 44  1  0
 19 45  1  0
 20 46  1  1
 21 47  1  0
 21 48  1  0
 22 49  1  6
 23 50  1  0
 23 51  1  0
 24 52  1  0
 24 53  1  0
 25 54  1  0
 25 55  1  0
M  END
>  <meeko>  (331) 
{"is_sidechain": false}

$$$$

     RDKit          3D

 55 59  0  0  0  0  0  0  0  0999 V2000
    5.8380   -0.2780  -54.5810 C   0  0  0  0  0  0  0  0  0  0  0  0
    6.9280    0.3040  -53.6880 C   0  0  0  0  0  0  0  0  0  0  0  0
    8.1090   -0.6150  -53.5760 C   0  0  0  0  0  0  0  0  0  0  0  0
    9.2370   -0.7190  -54.6000 C   0  0  0  0  0  0  0  0  0  0  0  0
    9.4990    0.1170  -55.5510 N   0  0  0  0  0  0  0  0  0  0  0  0
    8.8570    1.3840  -55.8210 C   0  0  0  0  0  0  0  0  0  0  0  0
    9.8900    2.2890  -56.5060 C   0  0  0  0  0  0  0  0  0  0  0  0
    9.3800    3.0980  -57.7240 C   0  0  2  0  0  0  0  0  0  0  0  0
   10.1780    4.4300  -57.7970 C   0  0  0  0  0  0  0  0  0  0  0  0
    9.7180    5.2840  -58.9900 C   0  0  1  0  0  0  0  0  0  0  0  0
    9.9410    4.4940  -60.2890 C   0  0  0  0  0  0  0  0  0  0  0  0
    9.1350    3.1870  -60.2530 C   0  0  2  0  0  0  0  0  0  0  0  0
    7.6420    3.5160  -60.0950 C   0  0  0  0  0  0  0  0  0  0  0  0
    7.4100    4.3000  -58.7920 C   0  0  2  0  0  0  0  0  0  0  0  0
    8.2240    5.6030  -58.8350 C   0  0  0  0  0  0  0  0  0  0  0  0
    7.8750    3.4450  -57.5990 C   0  0  0  0  0  0  0  0  0  0  0  0
    9.5950    2.3350  -59.0560 C   0  0  0  0  0  0  0  0  0  0  0  0
   10.1090   -1.8310  -54.5040 N   0  0  0  0  0  0  0  0  0  0  0  0
   11.1910   -1.9950  -55.4730 C   0  0  0  0  0  0  0  0  0  0  0  0
   10.2290   -2.6600  -53.4070 N   0  0  0  0  0  0  0  0  0  0  0  0
    9.3280   -2.4630  -52.5130 C   0  0  0  0  0  0  0  0  0  0  0  0
    9.1830   -3.1950  -51.2280 C   0  0  0  0  0  0  0  0  0  0  0  0
    8.0790   -2.6800  -50.6670 C   0  0  0  0  0  0  0  0  0  0  0  0
    7.4710   -1.7270  -51.4330 N   0  0  0  0  0  0  0  0  0  0  0  0
    8.2080   -1.4790  -52.5570 C   0  0  0  0  0  0  0  0  0  0  0  0
    5.0400   -0.7041  -53.9552 H   0  0  0  0  0  0  0  0  0  0  0  0
    5.4207    0.5174  -55.2161 H   0  0  0  0  0  0  0  0  0  0  0  0
    6.2668   -1.0672  -55.2161 H   0  0  0  0  0  0  0  0  0  0  0  0
    7.2619    1.2622  -54.1128 H   0  0  0  0  0  0  0  0  0  0  0  0
    6.5066    0.4421  -52.6813 H   0  0  0  0  0  0  0  0  0  0  0  0
    7.9922    1.2329  -56.4837 H   0  0  0  0  0  0  0  0  0  0  0  0
    8.4988    1.8430  -54.8877 H   0  0  0  0  0  0  0  0  0  0  0  0
   10.2598    3.0048  -55.7571 H   0  0  0  0  0  0  0  0  0  0  0  0
   10.6623    1.6125  -56.9008 H   0  0  0  0  0  0  0  0  0  0  0  0
   10.0190    4.9958  -56.8672 H   0  0  0  0  0  0  0  0  0  0  0  0
   11.2443    4.1928  -57.9266 H   0  0  0  0  0  0  0  0  0  0  0  0
   10.2929    6.2212  -59.0242 H   0  0  0  0  0  0  0  0  0  0  0  0
    9.6128    5.1011  -61.1456 H   0  0  0  0  0  0  0  0  0  0  0  0
   11.0104    4.2565  -60.3885 H   0  0  0  0  0  0  0  0  0  0  0  0
    9.2962    2.6292  -61.1873 H   0  0  0  0  0  0  0  0  0  0  0  0
    7.3107    4.1241  -60.9497 H   0  0  0  0  0  0  0  0  0  0  0  0
    7.0679    2.5784  -60.0588 H   0  0  0  0  0  0  0  0  0  0  0  0
    6.3412    4.5363  -58.6830 H   0  0  0  0  0  0  0  0  0  0  0  0
    7.8912    6.2124  -59.6881 H   0  0  0  0  0  0  0  0  0  0  0  0
    8.0684    6.1570  -57.8975 H   0  0  0  0  0  0  0  0  0  0  0  0
    7.7105    4.0062  -56.6673 H   0  0  0  0  0  0  0  0  0  0  0  0
    7.2970    2.5091  -57.5895 H   0  0  0  0  0  0  0  0  0  0  0  0
    9.0152    1.4005  -59.0342 H   0  0  0  0  0  0  0  0  0  0  0  0
   10.6673    2.1170  -59.1690 H   0  0  0  0  0  0  0  0  0  0  0  0
   12.1422   -2.1392  -54.9396 H   0  0  0  0  0  0  0  0  0  0  0  0
   10.9879   -2.8726  -56.1043 H   0  0  0  0  0  0  0  0  0  0  0  0
   11.2571   -1.0966  -56.1043 H   0  0  0  0  0  0  0  0  0  0  0  0
    9.8359   -3.9838  -50.8262 H   0  0  0  0  0  0  0  0  0  0  0  0
    7.6996   -2.9952  -49.6838 H   0  0  0  0  0  0  0  0  0  0  0  0
    6.7630   -1.0990  -51.0820 H   0  0  0  0  0  0  0  0  0  0  0  0
  1  2  1  0
  2  3  1  0
  3  4  1  0
  4  5  2  0
  5  6  1  0
  6  7  1  0
  8  7  1  1
  8  9  1  0
  9 10  1  0
 10 11  1  0
 11 12  1  0
 12 13  1  0
 13 14  1  0
 14 15  1  0
 14 16  1  0
 12 17  1  0
  4 18  1  0
 18 19  1  0
 18 20  1  0
 20 21  2  0
 21 22  1  0
 22 23  2  0
 23 24  1  0
 24 25  1  0
 25  3  2  0
 16  8  1  0
 25 21  1  0
 17  8  1  0
 15 10  1  0
  1 26  1  0
  1 27  1  0
  1 28  1  0
  2 29  1  0
  2 30  1  0
  6 31  1  0
  6 32  1  0
  7 33  1  0
  7 34  1  0
  9 35  1  0
  9 36  1  0
 10 37  1  6
 11 38  1  0
 11 39  1  0
 12 40  1  6
 13 41  1  0
 13 42  1  0
 14 43  1  1
 15 44  1  0
 15 45  1  0
 16 46  1  0
 16 47  1  0
 17 48  1  0
 17 49  1  0
 19 50  1  0
 19 51  1  0
 19 52  1  0
 22 53  1  0
 23 54  1  0
 24 55  1  0
M  END
>  <meeko>  (332) 
{"is_sidechain": false}

$$$$

     RDKit          3D

 46 50  0  0  0  0  0  0  0  0999 V2000
    3.7270    2.0990  -61.2850 C   0  0  0  0  0  0  0  0  0  0  0  0
    3.2690    2.2310  -60.0700 N   0  0  0  0  0  0  0  0  0  0  0  0
    4.2700    2.2350  -59.1590 C   0  0  0  0  0  0  0  0  0  0  0  0
    4.0440    2.3900  -57.8190 N   0  0  0  0  0  0  0  0  0  0  0  0
    5.2410    2.3550  -57.1430 C   0  0  0  0  0  0  0  0  0  0  0  0
    6.2490    2.1720  -58.0700 C   0  0  0  0  0  0  0  0  0  0  0  0
    5.6290    2.0980  -59.3320 C   0  0  0  0  0  0  0  0  0  0  0  0
    6.1390    1.9220  -60.5750 N   0  0  0  0  0  0  0  0  0  0  0  0
    7.5690    1.8910  -60.8560 C   0  0  0  0  0  0  0  0  0  0  0  0
    8.1260    3.3130  -61.0040 C   0  0  0  0  0  0  0  0  0  0  0  0
    9.2240    3.7170  -59.9880 C   0  0  2  0  0  0  0  0  0  0  0  0
    8.7410    4.8340  -59.0300 C   0  0  0  0  0  0  0  0  0  0  0  0
    9.8700    5.2580  -58.0730 C   0  0  1  0  0  0  0  0  0  0  0  0
   10.3170    4.0410  -57.2470 C   0  0  0  0  0  0  0  0  0  0  0  0
   10.8290    2.9310  -58.1800 C   0  0  2  0  0  0  0  0  0  0  0  0
   12.0170    3.4640  -58.9960 C   0  0  0  0  0  0  0  0  0  0  0  0
   11.5790    4.6800  -59.8270 C   0  0  2  0  0  0  0  0  0  0  0  0
   11.0620    5.7810  -58.8890 C   0  0  0  0  0  0  0  0  0  0  0  0
   10.4480    4.2580  -60.7790 C   0  0  0  0  0  0  0  0  0  0  0  0
    9.6980    2.5120  -59.1360 C   0  0  0  0  0  0  0  0  0  0  0  0
    5.1990    1.9760  -61.7050 C   0  0  0  0  0  0  0  0  0  0  0  0
    2.9806    2.0732  -62.0926 H   0  0  0  0  0  0  0  0  0  0  0  0
    3.1280    2.5100  -57.4130 H   0  0  0  0  0  0  0  0  0  0  0  0
    5.3728    2.4551  -56.0555 H   0  0  0  0  0  0  0  0  0  0  0  0
    7.3267    2.0984  -57.8624 H   0  0  0  0  0  0  0  0  0  0  0  0
    8.0882    1.3846  -60.0290 H   0  0  0  0  0  0  0  0  0  0  0  0
    7.7314    1.3487  -61.7992 H   0  0  0  0  0  0  0  0  0  0  0  0
    8.5508    3.4054  -62.0144 H   0  0  0  0  0  0  0  0  0  0  0  0
    7.2784    3.9871  -60.8112 H   0  0  0  0  0  0  0  0  0  0  0  0
    8.4238    5.7050  -59.6222 H   0  0  0  0  0  0  0  0  0  0  0  0
    7.8996    4.4493  -58.4349 H   0  0  0  0  0  0  0  0  0  0  0  0
    9.5066    6.0503  -57.4020 H   0  0  0  0  0  0  0  0  0  0  0  0
   11.1235    4.3420  -56.5622 H   0  0  0  0  0  0  0  0  0  0  0  0
    9.4603    3.6615  -56.6708 H   0  0  0  0  0  0  0  0  0  0  0  0
   11.1502    2.0630  -57.5855 H   0  0  0  0  0  0  0  0  0  0  0  0
   12.8248    3.7622  -58.3115 H   0  0  0  0  0  0  0  0  0  0  0  0
   12.3746    2.6737  -59.6724 H   0  0  0  0  0  0  0  0  0  0  0  0
   12.4344    5.0593  -60.4053 H   0  0  0  0  0  0  0  0  0  0  0  0
   11.8676    6.0841  -58.2040 H   0  0  0  0  0  0  0  0  0  0  0  0
   10.7383    6.6443  -59.4889 H   0  0  0  0  0  0  0  0  0  0  0  0
   10.1351    5.1289  -61.3737 H   0  0  0  0  0  0  0  0  0  0  0  0
   10.8227    3.4575  -61.4338 H   0  0  0  0  0  0  0  0  0  0  0  0
   10.0657    1.7198  -59.8047 H   0  0  0  0  0  0  0  0  0  0  0  0
    8.8493    2.1458  -58.5397 H   0  0  0  0  0  0  0  0  0  0  0  0
    5.4554    2.8460  -62.3274 H   0  0  0  0  0  0  0  0  0  0  0  0
    5.2975    1.0244  -62.2479 H   0  0  0  0  0  0  0  0  0  0  0  0
  1  2  2  0
  2  3  1  0
  3  4  1  0
  4  5  1  0
  5  6  2  0
  6  7  1  0
  7  8  1  0
  8  9  1  0
  9 10  1  0
 11 10  1  6
 11 12  1  0
 12 13  1  0
 13 14  1  0
 14 15  1  0
 15 16  1  0
 16 17  1  0
 17 18  1  0
 17 19  1  0
 15 20  1  0
  8 21  1  0
 21  1  1  0
  7  3  2  0
 19 11  1  0
 20 11  1  0
 18 13  1  0
  1 22  1  0
  4 23  1  0
  5 24  1  0
  6 25  1  0
  9 26  1  0
  9 27  1  0
 10 28  1  0
 10 29  1  0
 12 30  1  0
 12 31  1  0
 13 32  1  1
 14 33  1  0
 14 34  1  0
 15 35  1  1
 16 36  1  0
 16 37  1  0
 17 38  1  6
 18 39  1  0
 18 40  1  0
 19 41  1  0
 19 42  1  0
 20 43  1  0
 20 44  1  0
 21 45  1  0
 21 46  1  0
M  END
>  <meeko>  (333) 
{"is_sidechain": false}

$$$$

     RDKit          3D

 46 50  0  0  0  0  0  0  0  0999 V2000
    3.7080    2.1030  -61.4060 C   0  0  0  0  0  0  0  0  0  0  0  0
    5.0240    1.9350  -61.6730 C   0  0  0  0  0  0  0  0  0  0  0  0
    6.0010    1.9300  -60.6530 N   0  0  0  0  0  0  0  0  0  0  0  0
    7.4200    1.7020  -60.9330 C   0  0  0  0  0  0  0  0  0  0  0  0
    8.1130    3.0240  -61.2910 C   0  0  0  0  0  0  0  0  0  0  0  0
    9.1050    3.5730  -60.2360 C   0  0  2  0  0  0  0  0  0  0  0  0
    8.4480    4.6450  -59.3290 C   0  0  0  0  0  0  0  0  0  0  0  0
    9.4360    5.1290  -58.2520 C   0  0  1  0  0  0  0  0  0  0  0  0
    9.8680    3.9370  -57.3840 C   0  0  0  0  0  0  0  0  0  0  0  0
   10.5490    2.8720  -58.2570 C   0  0  2  0  0  0  0  0  0  0  0  0
   11.7810    3.4850  -58.9410 C   0  0  0  0  0  0  0  0  0  0  0  0
   11.3570    4.6740  -59.8170 C   0  0  2  0  0  0  0  0  0  0  0  0
   10.6740    5.7330  -58.9350 C   0  0  0  0  0  0  0  0  0  0  0  0
   10.3650    4.1920  -60.8910 C   0  0  0  0  0  0  0  0  0  0  0  0
    9.5610    2.3940  -59.3320 C   0  0  0  0  0  0  0  0  0  0  0  0
    5.5550    2.0850  -59.3610 C   0  0  0  0  0  0  0  0  0  0  0  0
    6.2020    2.1100  -58.1100 C   0  0  0  0  0  0  0  0  0  0  0  0
    5.2150    2.2980  -57.1540 C   0  0  0  0  0  0  0  0  0  0  0  0
    3.9960    2.3860  -57.7950 N   0  0  0  0  0  0  0  0  0  0  0  0
    4.2030    2.2550  -59.1320 C   0  0  0  0  0  0  0  0  0  0  0  0
    3.2590    2.2760  -60.1030 N   0  0  0  0  0  0  0  0  0  0  0  0
    2.9830    2.1025  -62.2333 H   0  0  0  0  0  0  0  0  0  0  0  0
    5.3427    1.7981  -62.7169 H   0  0  0  0  0  0  0  0  0  0  0  0
    7.9005    1.2702  -60.0426 H   0  0  0  0  0  0  0  0  0  0  0  0
    7.5096    1.0100  -61.7834 H   0  0  0  0  0  0  0  0  0  0  0  0
    8.6679    2.8710  -62.2284 H   0  0  0  0  0  0  0  0  0  0  0  0
    7.3098    3.7721  -61.3631 H   0  0  0  0  0  0  0  0  0  0  0  0
    8.1403    5.5012  -59.9472 H   0  0  0  0  0  0  0  0  0  0  0  0
    7.5743    4.1988  -58.8314 H   0  0  0  0  0  0  0  0  0  0  0  0
    8.9515    5.8889  -57.6212 H   0  0  0  0  0  0  0  0  0  0  0  0
   10.5738    4.2833  -56.6146 H   0  0  0  0  0  0  0  0  0  0  0  0
    8.9803    3.4982  -56.9050 H   0  0  0  0  0  0  0  0  0  0  0  0
   10.8585    2.0228  -57.6301 H   0  0  0  0  0  0  0  0  0  0  0  0
   12.4891    3.8317  -58.1739 H   0  0  0  0  0  0  0  0  0  0  0  0
   12.2603    2.7229  -59.5731 H   0  0  0  0  0  0  0  0  0  0  0  0
   12.2429    5.1085  -60.3032 H   0  0  0  0  0  0  0  0  0  0  0  0
   11.3815    6.0788  -58.1670 H   0  0  0  0  0  0  0  0  0  0  0  0
   10.3625    6.5802  -59.5636 H   0  0  0  0  0  0  0  0  0  0  0  0
   10.0645    5.0470  -61.5145 H   0  0  0  0  0  0  0  0  0  0  0  0
   10.8565    3.4241  -61.5065 H   0  0  0  0  0  0  0  0  0  0  0  0
   10.0499    1.6312  -59.9557 H   0  0  0  0  0  0  0  0  0  0  0  0
    8.6758    1.9746  -58.8315 H   0  0  0  0  0  0  0  0  0  0  0  0
    7.2812    2.0014  -57.9268 H   0  0  0  0  0  0  0  0  0  0  0  0
    5.3765    2.3656  -56.0680 H   0  0  0  0  0  0  0  0  0  0  0  0
    3.1020    2.5220  -57.3480 H   0  0  0  0  0  0  0  0  0  0  0  0
    2.2630    2.3880  -59.9550 H   0  0  0  0  0  0  0  0  0  0  0  0
  1  2  2  0
  2  3  1  0
  3  4  1  0
  4  5  1  0
  6  5  1  6
  6  7  1  0
  7  8  1  0
  8  9  1  0
  9 10  1  0
 10 11  1  0
 11 12  1  0
 12 13  1  0
 12 14  1  0
 10 15  1  0
  3 16  1  0
 16 17  1  0
 17 18  2  0
 18 19  1  0
 19 20  1  0
 20 21  1  0
 21  1  1  0
 14  6  1  0
 20 16  2  0
 15  6  1  0
 13  8  1  0
  1 22  1  0
  2 23  1  0
  4 24  1  0
  4 25  1  0
  5 26  1  0
  5 27  1  0
  7 28  1  0
  7 29  1  0
  8 30  1  1
  9 31  1  0
  9 32  1  0
 10 33  1  1
 11 34  1  0
 11 35  1  0
 12 36  1  6
 13 37  1  0
 13 38  1  0
 14 39  1  0
 14 40  1  0
 15 41  1  0
 15 42  1  0
 17 43  1  0
 18 44  1  0
 19 45  1  0
 21 46  1  0
M  END
>  <meeko>  (334) 
{"is_sidechain": false}

$$$$

     RDKit          3D

 50 54  0  0  0  0  0  0  0  0999 V2000
    8.2990   -1.8010  -52.5490 C   0  0  0  0  0  0  0  0  0  0  0  0
    8.9680   -0.8290  -53.3440 O   0  0  0  0  0  0  0  0  0  0  0  0
    8.2340   -0.2220  -54.3240 C   0  0  0  0  0  0  0  0  0  0  0  0
    6.9290   -0.5330  -54.6820 C   0  0  0  0  0  0  0  0  0  0  0  0
    6.3000    0.1850  -55.7030 C   0  0  0  0  0  0  0  0  0  0  0  0
    6.9640    1.2160  -56.4020 C   0  0  0  0  0  0  0  0  0  0  0  0
    8.2870    1.5190  -56.0550 C   0  0  0  0  0  0  0  0  0  0  0  0
    8.8950    0.8030  -55.0050 C   0  0  0  0  0  0  0  0  0  0  0  0
    9.0240    2.5480  -56.6630 N   0  0  0  0  0  0  0  0  0  0  0  0
   10.0370    2.1760  -57.3720 C   0  0  0  0  0  0  0  0  0  0  0  0
   10.8760    3.1750  -58.1050 C   0  0  0  0  0  0  0  0  0  0  0  0
   10.3680    3.5210  -59.5130 C   0  0  1  0  0  0  0  0  0  0  0  0
    9.9520    2.3000  -60.3620 C   0  0  0  0  0  0  0  0  0  0  0  0
    8.4490    2.1460  -60.6730 C   0  0  2  0  0  0  0  0  0  0  0  0
    7.8930    3.4940  -61.1000 C   0  0  0  0  0  0  0  0  0  0  0  0
    7.9350    4.4320  -59.9020 C   0  0  2  0  0  0  0  0  0  0  0  0
    9.3990    4.7240  -59.5390 C   0  0  0  0  0  0  0  0  0  0  0  0
    7.1260    3.9140  -58.6960 C   0  0  0  0  0  0  0  0  0  0  0  0
    6.6470    2.4480  -58.7940 C   0  0  2  0  0  0  0  0  0  0  0  0
    5.2730    2.4130  -59.5120 C   0  0  0  0  0  0  0  0  0  0  0  0
    4.2790    2.6860  -58.4020 C   0  0  0  0  0  0  0  0  0  0  0  0
    4.8560    2.0460  -57.2210 N   0  0  0  0  0  0  0  0  0  0  0  0
    6.1370    1.9160  -57.4380 C   0  0  0  0  0  0  0  0  0  0  0  0
    7.6400    1.5120  -59.5200 C   0  0  0  0  0  0  0  0  0  0  0  0
    8.4551   -1.5741  -51.4840 H   0  0  0  0  0  0  0  0  0  0  0  0
    7.2225   -1.7810  -52.7742 H   0  0  0  0  0  0  0  0  0  0  0  0
    8.7022   -2.7994  -52.7742 H   0  0  0  0  0  0  0  0  0  0  0  0
    6.3922   -1.3414  -54.1640 H   0  0  0  0  0  0  0  0  0  0  0  0
    5.2610   -0.0596  -55.9686 H   0  0  0  0  0  0  0  0  0  0  0  0
    9.9237    1.0595  -54.7119 H   0  0  0  0  0  0  0  0  0  0  0  0
   10.2874    1.1069  -57.4383 H   0  0  0  0  0  0  0  0  0  0  0  0
   10.9040    4.1013  -57.5124 H   0  0  0  0  0  0  0  0  0  0  0  0
   11.8679    2.7171  -58.2334 H   0  0  0  0  0  0  0  0  0  0  0  0
   11.2493    3.8904  -60.0578 H   0  0  0  0  0  0  0  0  0  0  0  0
   10.4850    2.3656  -61.3220 H   0  0  0  0  0  0  0  0  0  0  0  0
   10.2094    1.4235  -59.7493 H   0  0  0  0  0  0  0  0  0  0  0  0
    8.3438    1.4300  -61.5014 H   0  0  0  0  0  0  0  0  0  0  0  0
    8.5042    3.9063  -61.9163 H   0  0  0  0  0  0  0  0  0  0  0  0
    6.8582    3.3807  -61.4554 H   0  0  0  0  0  0  0  0  0  0  0  0
    7.4407    5.3723  -60.1875 H   0  0  0  0  0  0  0  0  0  0  0  0
    9.7855    5.4457  -60.2736 H   0  0  0  0  0  0  0  0  0  0  0  0
    9.3690    5.0894  -58.5019 H   0  0  0  0  0  0  0  0  0  0  0  0
    7.7581    4.0044  -57.8003 H   0  0  0  0  0  0  0  0  0  0  0  0
    6.2135    4.5272  -58.6598 H   0  0  0  0  0  0  0  0  0  0  0  0
    5.2166    3.1900  -60.2886 H   0  0  0  0  0  0  0  0  0  0  0  0
    5.0855    1.4588  -60.0261 H   0  0  0  0  0  0  0  0  0  0  0  0
    4.1657    3.7681  -58.2403 H   0  0  0  0  0  0  0  0  0  0  0  0
    3.2764    2.2991  -58.6369 H   0  0  0  0  0  0  0  0  0  0  0  0
    8.3555    1.1365  -58.7737 H   0  0  0  0  0  0  0  0  0  0  0  0
    7.0231    0.7295  -59.9860 H   0  0  0  0  0  0  0  0  0  0  0  0
  1  2  1  0
  2  3  1  0
  3  4  1  0
  4  5  2  0
  5  6  1  0
  6  7  2  0
  7  8  1  0
  7  9  1  0
  9 10  2  0
 10 11  1  0
 11 12  1  0
 12 13  1  0
 13 14  1  0
 14 15  1  0
 15 16  1  0
 16 17  1  0
 16 18  1  0
 18 19  1  0
 19 20  1  6
 20 21  1  0
 21 22  1  0
 22 23  2  0
 19 24  1  0
  8  3  2  0
 17 12  1  0
 23 19  1  0
 23  6  1  0
 24 14  1  0
  1 25  1  0
  1 26  1  0
  1 27  1  0
  4 28  1  0
  5 29  1  0
  8 30  1  0
 10 31  1  0
 11 32  1  0
 11 33  1  0
 12 34  1  6
 13 35  1  0
 13 36  1  0
 14 37  1  6
 15 38  1  0
 15 39  1  0
 16 40  1  6
 17 41  1  0
 17 42  1  0
 18 43  1  0
 18 44  1  0
 20 45  1  0
 20 46  1  0
 21 47  1  0
 21 48  1  0
 24 49  1  0
 24 50  1  0
M  END
>  <meeko>  (335) 
{"is_sidechain": false}

$$$$

     RDKit          3D

 50 54  0  0  0  0  0  0  0  0999 V2000
    7.3150   -0.8150  -54.5610 C   0  0  0  0  0  0  0  0  0  0  0  0
    8.7340   -0.7590  -54.6410 O   0  0  0  0  0  0  0  0  0  0  0  0
    9.2730    0.2610  -55.3760 C   0  0  0  0  0  0  0  0  0  0  0  0
   10.4890   -0.0430  -55.9880 C   0  0  0  0  0  0  0  0  0  0  0  0
   11.1520    0.9170  -56.7510 C   0  0  0  0  0  0  0  0  0  0  0  0
   10.5780    2.1810  -56.9420 C   0  0  0  0  0  0  0  0  0  0  0  0
    9.3570    2.5040  -56.3400 C   0  0  0  0  0  0  0  0  0  0  0  0
    8.7250    1.5350  -55.5400 C   0  0  0  0  0  0  0  0  0  0  0  0
    8.8040    3.7870  -56.4110 N   0  0  0  0  0  0  0  0  0  0  0  0
    7.7440    4.0260  -57.1170 C   0  0  0  0  0  0  0  0  0  0  0  0
    6.9560    3.0840  -57.9950 C   0  0  0  0  0  0  0  0  0  0  0  0
    7.3980    3.0600  -59.4690 C   0  0  1  0  0  0  0  0  0  0  0  0
    7.7770    4.4400  -60.0330 C   0  0  0  0  0  0  0  0  0  0  0  0
    9.1940    4.5430  -60.5960 C   0  0  2  0  0  0  0  0  0  0  0  0
    9.3990    3.3920  -61.5610 C   0  0  0  0  0  0  0  0  0  0  0  0
    9.5210    2.1160  -60.7540 C   0  0  2  0  0  0  0  0  0  0  0  0
    8.3570    1.8870  -59.7750 C   0  0  0  0  0  0  0  0  0  0  0  0
   10.8850    2.1370  -60.0540 C   0  0  0  0  0  0  0  0  0  0  0  0
   11.1860    3.4010  -59.2260 C   0  0  2  0  0  0  0  0  0  0  0  0
   12.6610    3.8060  -59.4730 C   0  0  0  0  0  0  0  0  0  0  0  0
   13.0480    4.5270  -58.1950 C   0  0  0  0  0  0  0  0  0  0  0  0
   12.3790    3.7620  -57.1370 N   0  0  0  0  0  0  0  0  0  0  0  0
   11.3810    3.1530  -57.7130 C   0  0  0  0  0  0  0  0  0  0  0  0
   10.2750    4.6350  -59.4960 C   0  0  0  0  0  0  0  0  0  0  0  0
    7.0075   -0.8271  -53.5049 H   0  0  0  0  0  0  0  0  0  0  0  0
    6.8846    0.0669  -55.0581 H   0  0  0  0  0  0  0  0  0  0  0  0
    6.9555   -1.7280  -55.0581 H   0  0  0  0  0  0  0  0  0  0  0  0
   10.9268   -1.0449  -55.8680 H   0  0  0  0  0  0  0  0  0  0  0  0
   12.1267    0.6821  -57.2036 H   0  0  0  0  0  0  0  0  0  0  0  0
    7.7810    1.7855  -55.0339 H   0  0  0  0  0  0  0  0  0  0  0  0
    7.3661    5.0580  -57.0701 H   0  0  0  0  0  0  0  0  0  0  0  0
    7.0617    2.0673  -57.5887 H   0  0  0  0  0  0  0  0  0  0  0  0
    5.9175    3.4465  -57.9872 H   0  0  0  0  0  0  0  0  0  0  0  0
    6.5088    2.8240  -60.0721 H   0  0  0  0  0  0  0  0  0  0  0  0
    7.0709    4.6838  -60.8404 H   0  0  0  0  0  0  0  0  0  0  0  0
    7.7322    5.1402  -59.1858 H   0  0  0  0  0  0  0  0  0  0  0  0
    9.3080    5.4900  -61.1439 H   0  0  0  0  0  0  0  0  0  0  0  0
    8.5394    3.3204  -62.2437 H   0  0  0  0  0  0  0  0  0  0  0  0
   10.3087    3.5532  -62.1580 H   0  0  0  0  0  0  0  0  0  0  0  0
    9.4574    1.2552  -61.4359 H   0  0  0  0  0  0  0  0  0  0  0  0
    7.7464    1.0690  -60.1849 H   0  0  0  0  0  0  0  0  0  0  0  0
    8.8537    1.6924  -58.8130 H   0  0  0  0  0  0  0  0  0  0  0  0
   10.9327    1.2701  -59.3786 H   0  0  0  0  0  0  0  0  0  0  0  0
   11.6368    2.1155  -60.8567 H   0  0  0  0  0  0  0  0  0  0  0  0
   13.2915    2.9185  -59.6303 H   0  0  0  0  0  0  0  0  0  0  0  0
   12.7905    4.4269  -60.3717 H   0  0  0  0  0  0  0  0  0  0  0  0
   14.1390    4.5156  -58.0551 H   0  0  0  0  0  0  0  0  0  0  0  0
   12.7526    5.5866  -58.2016 H   0  0  0  0  0  0  0  0  0  0  0  0
    9.7567    4.8651  -58.5535 H   0  0  0  0  0  0  0  0  0  0  0  0
   10.9710    5.3984  -59.8740 H   0  0  0  0  0  0  0  0  0  0  0  0
  1  2  1  0
  2  3  1  0
  3  4  1  0
  4  5  2  0
  5  6  1  0
  6  7  2  0
  7  8  1  0
  7  9  1  0
  9 10  2  0
 10 11  1  0
 11 12  1  0
 12 13  1  0
 13 14  1  0
 14 15  1  0
 15 16  1  0
 16 17  1  0
 16 18  1  0
 18 19  1  0
 19 20  1  6
 20 21  1  0
 21 22  1  0
 22 23  2  0
 19 24  1  0
  8  3  2  0
 17 12  1  0
 23 19  1  0
 23  6  1  0
 24 14  1  0
  1 25  1  0
  1 26  1  0
  1 27  1  0
  4 28  1  0
  5 29  1  0
  8 30  1  0
 10 31  1  0
 11 32  1  0
 11 33  1  0
 12 34  1  6
 13 35  1  0
 13 36  1  0
 14 37  1  6
 15 38  1  0
 15 39  1  0
 16 40  1  6
 17 41  1  0
 17 42  1  0
 18 43  1  0
 18 44  1  0
 20 45  1  0
 20 46  1  0
 21 47  1  0
 21 48  1  0
 24 49  1  0
 24 50  1  0
M  END
>  <meeko>  (336) 
{"is_sidechain": false}

$$$$

     RDKit          3D

 50 54  0  0  0  0  0  0  0  0999 V2000
    3.0680    1.9080  -61.4510 C   0  0  0  0  0  0  0  0  0  0  0  0
    3.0000    2.3890  -60.1150 O   0  0  0  0  0  0  0  0  0  0  0  0
    4.1410    2.2950  -59.3650 C   0  0  0  0  0  0  0  0  0  0  0  0
    4.2650    2.6220  -58.0190 C   0  0  0  0  0  0  0  0  0  0  0  0
    5.5000    2.4780  -57.3800 C   0  0  0  0  0  0  0  0  0  0  0  0
    6.6320    2.0260  -58.0820 C   0  0  0  0  0  0  0  0  0  0  0  0
    6.5150    1.6720  -59.4390 C   0  0  0  0  0  0  0  0  0  0  0  0
    5.2610    1.8270  -60.0610 C   0  0  0  0  0  0  0  0  0  0  0  0
    7.6040    1.2880  -60.2490 N   0  0  0  0  0  0  0  0  0  0  0  0
    8.6430    2.1370  -60.5470 C   0  0  0  0  0  0  0  0  0  0  0  0
    8.6910    3.4590  -60.3460 C   0  0  0  0  0  0  0  0  0  0  0  0
    9.9290    4.3250  -60.2580 C   0  0  1  0  0  0  0  0  0  0  0  0
    9.6940    5.5090  -59.2910 C   0  0  0  0  0  0  0  0  0  0  0  0
    9.8210    5.1600  -57.7890 C   0  0  2  0  0  0  0  0  0  0  0  0
   11.1910    4.5550  -57.5240 C   0  0  0  0  0  0  0  0  0  0  0  0
   11.3090    3.2650  -58.3250 C   0  0  2  0  0  0  0  0  0  0  0  0
   11.2090    3.5760  -59.8360 C   0  0  0  0  0  0  0  0  0  0  0  0
   10.2950    2.2180  -57.8220 C   0  0  0  0  0  0  0  0  0  0  0  0
    9.0320    2.7470  -57.0680 C   0  0  2  0  0  0  0  0  0  0  0  0
    9.2440    2.4530  -55.5580 C   0  0  0  0  0  0  0  0  0  0  0  0
    8.8970    0.9770  -55.4430 C   0  0  0  0  0  0  0  0  0  0  0  0
    7.7670    0.7950  -56.3620 N   0  0  0  0  0  0  0  0  0  0  0  0
    7.8210    1.7870  -57.2100 C   0  0  0  0  0  0  0  0  0  0  0  0
    8.6920    4.2470  -57.2680 C   0  0  0  0  0  0  0  0  0  0  0  0
    3.2220    0.8189  -61.4412 H   0  0  0  0  0  0  0  0  0  0  0  0
    2.1280    2.1407  -61.9728 H   0  0  0  0  0  0  0  0  0  0  0  0
    3.9066    2.3922  -61.9728 H   0  0  0  0  0  0  0  0  0  0  0  0
    3.3940    2.9928  -57.4589 H   0  0  0  0  0  0  0  0  0  0  0  0
    5.5879    2.7221  -56.3110 H   0  0  0  0  0  0  0  0  0  0  0  0
    5.1589    1.5724  -61.1263 H   0  0  0  0  0  0  0  0  0  0  0  0
    7.3640    0.6570  -61.0090 H   0  0  0  0  0  0  0  0  0  0  0  0
    9.5340    1.6788  -61.0011 H   0  0  0  0  0  0  0  0  0  0  0  0
    7.7249    3.9726  -60.2323 H   0  0  0  0  0  0  0  0  0  0  0  0
   10.0997    4.6820  -61.2843 H   0  0  0  0  0  0  0  0  0  0  0  0
   10.4316    6.2913  -59.5234 H   0  0  0  0  0  0  0  0  0  0  0  0
    8.6536    5.8310  -59.4455 H   0  0  0  0  0  0  0  0  0  0  0  0
    9.7143    6.0986  -57.2254 H   0  0  0  0  0  0  0  0  0  0  0  0
   11.9754    5.2598  -57.8369 H   0  0  0  0  0  0  0  0  0  0  0  0
   11.3111    4.3462  -56.4507 H   0  0  0  0  0  0  0  0  0  0  0  0
   12.2978    2.8086  -58.1701 H   0  0  0  0  0  0  0  0  0  0  0  0
   12.0751    4.1934  -60.1165 H   0  0  0  0  0  0  0  0  0  0  0  0
   11.1838    2.6045  -60.3514 H   0  0  0  0  0  0  0  0  0  0  0  0
    9.9441    1.6511  -58.6969 H   0  0  0  0  0  0  0  0  0  0  0  0
   10.8451    1.6296  -57.0728 H   0  0  0  0  0  0  0  0  0  0  0  0
   10.2873    2.6378  -55.2622 H   0  0  0  0  0  0  0  0  0  0  0  0
    8.6349    3.0931  -54.9028 H   0  0  0  0  0  0  0  0  0  0  0  0
    9.7498    0.3519  -55.7461 H   0  0  0  0  0  0  0  0  0  0  0  0
    8.6505    0.6833  -54.4120 H   0  0  0  0  0  0  0  0  0  0  0  0
    7.8606    4.3055  -57.9859 H   0  0  0  0  0  0  0  0  0  0  0  0
    8.4635    4.6238  -56.2601 H   0  0  0  0  0  0  0  0  0  0  0  0
  1  2  1  0
  2  3  1  0
  3  4  1  0
  4  5  2  0
  5  6  1  0
  6  7  2  0
  7  8  1  0
  7  9  1  0
  9 10  1  0
 10 11  2  0
 11 12  1  0
 12 13  1  0
 13 14  1  0
 14 15  1  0
 15 16  1  0
 16 17  1  0
 16 18  1  0
 18 19  1  0
 19 20  1  1
 20 21  1  0
 21 22  1  0
 22 23  2  0
 19 24  1  0
  8  3  2  0
 17 12  1  0
 23 19  1  0
 23  6  1  0
 24 14  1  0
  1 25  1  0
  1 26  1  0
  1 27  1  0
  4 28  1  0
  5 29  1  0
  8 30  1  0
  9 31  1  0
 10 32  1  0
 11 33  1  0
 12 34  1  6
 13 35  1  0
 13 36  1  0
 14 37  1  1
 15 38  1  0
 15 39  1  0
 16 40  1  6
 17 41  1  0
 17 42  1  0
 18 43  1  0
 18 44  1  0
 20 45  1  0
 20 46  1  0
 21 47  1  0
 21 48  1  0
 24 49  1  0
 24 50  1  0
M  END
>  <meeko>  (337) 
{"is_sidechain": false}

$$$$

     RDKit          3D

 50 54  0  0  0  0  0  0  0  0999 V2000
    3.2660    1.8410  -61.3840 C   0  0  0  0  0  0  0  0  0  0  0  0
    3.2930    2.6040  -60.1830 O   0  0  0  0  0  0  0  0  0  0  0  0
    4.3430    2.3820  -59.3330 C   0  0  0  0  0  0  0  0  0  0  0  0
    4.2640    2.2690  -57.9490 C   0  0  0  0  0  0  0  0  0  0  0  0
    5.4230    2.0360  -57.2080 C   0  0  0  0  0  0  0  0  0  0  0  0
    6.6720    1.9220  -57.8410 C   0  0  0  0  0  0  0  0  0  0  0  0
    6.7710    2.0210  -59.2350 C   0  0  0  0  0  0  0  0  0  0  0  0
    5.5860    2.2470  -59.9630 C   0  0  0  0  0  0  0  0  0  0  0  0
    8.0010    1.7350  -59.8990 N   0  0  0  0  0  0  0  0  0  0  0  0
    8.2740    2.2490  -61.1480 C   0  0  0  0  0  0  0  0  0  0  0  0
    9.0350    3.3160  -61.4240 C   0  0  0  0  0  0  0  0  0  0  0  0
    9.8120    4.1490  -60.4240 C   0  0  1  0  0  0  0  0  0  0  0  0
    8.9080    4.9210  -59.4390 C   0  0  0  0  0  0  0  0  0  0  0  0
    9.3890    5.0740  -57.9860 C   0  0  2  0  0  0  0  0  0  0  0  0
   10.8590    4.7600  -57.8010 C   0  0  0  0  0  0  0  0  0  0  0  0
   11.1170    3.3590  -58.3180 C   0  0  2  0  0  0  0  0  0  0  0  0
   10.9950    3.3510  -59.8440 C   0  0  0  0  0  0  0  0  0  0  0  0
   10.2250    2.2850  -57.6650 C   0  0  0  0  0  0  0  0  0  0  0  0
    8.9980    2.7530  -56.8350 C   0  0  2  0  0  0  0  0  0  0  0  0
    9.2860    2.4680  -55.3390 C   0  0  0  0  0  0  0  0  0  0  0  0
    8.9900    0.9850  -55.2010 C   0  0  0  0  0  0  0  0  0  0  0  0
    7.8270    0.7630  -56.0720 N   0  0  0  0  0  0  0  0  0  0  0  0
    7.8300    1.7470  -56.9300 C   0  0  0  0  0  0  0  0  0  0  0  0
    8.5690    4.2290  -56.9980 C   0  0  0  0  0  0  0  0  0  0  0  0
    3.2281    0.7697  -61.1371 H   0  0  0  0  0  0  0  0  0  0  0  0
    2.3769    2.1135  -61.9716 H   0  0  0  0  0  0  0  0  0  0  0  0
    4.1721    2.0500  -61.9716 H   0  0  0  0  0  0  0  0  0  0  0  0
    3.2927    2.3628  -57.4412 H   0  0  0  0  0  0  0  0  0  0  0  0
    5.3580    1.9403  -56.1141 H   0  0  0  0  0  0  0  0  0  0  0  0
    5.6391    2.3196  -61.0593 H   0  0  0  0  0  0  0  0  0  0  0  0
    8.0340    0.7110  -59.9400 H   0  0  0  0  0  0  0  0  0  0  0  0
    7.8208    1.7302  -62.0056 H   0  0  0  0  0  0  0  0  0  0  0  0
    9.1028    3.6173  -62.4797 H   0  0  0  0  0  0  0  0  0  0  0  0
   10.2986    4.9855  -60.9470 H   0  0  0  0  0  0  0  0  0  0  0  0
    8.7702    5.9335  -59.8463 H   0  0  0  0  0  0  0  0  0  0  0  0
    7.9974    4.3085  -59.3640 H   0  0  0  0  0  0  0  0  0  0  0  0
    9.2342    6.1398  -57.7624 H   0  0  0  0  0  0  0  0  0  0  0  0
   11.4672    5.4822  -58.3654 H   0  0  0  0  0  0  0  0  0  0  0  0
   11.1288    4.8260  -56.7366 H   0  0  0  0  0  0  0  0  0  0  0  0
   12.1426    3.0837  -58.0309 H   0  0  0  0  0  0  0  0  0  0  0  0
   11.9225    3.7719  -60.2593 H   0  0  0  0  0  0  0  0  0  0  0  0
   10.8157    2.3027  -60.1248 H   0  0  0  0  0  0  0  0  0  0  0  0
    9.8459    1.6414  -58.4724 H   0  0  0  0  0  0  0  0  0  0  0  0
   10.8811    1.7975  -56.9289 H   0  0  0  0  0  0  0  0  0  0  0  0
   10.3357    2.6847  -55.0918 H   0  0  0  0  0  0  0  0  0  0  0  0
    8.6860    3.0911  -54.6595 H   0  0  0  0  0  0  0  0  0  0  0  0
    9.8480    0.3838  -55.5362 H   0  0  0  0  0  0  0  0  0  0  0  0
    8.7963    0.6908  -54.1589 H   0  0  0  0  0  0  0  0  0  0  0  0
    7.5229    4.2379  -57.3380 H   0  0  0  0  0  0  0  0  0  0  0  0
    8.7319    4.6911  -56.0131 H   0  0  0  0  0  0  0  0  0  0  0  0
  1  2  1  0
  2  3  1  0
  3  4  1  0
  4  5  2  0
  5  6  1  0
  6  7  2  0
  7  8  1  0
  7  9  1  0
  9 10  1  0
 10 11  2  0
 11 12  1  0
 12 13  1  0
 13 14  1  0
 14 15  1  0
 15 16  1  0
 16 17  1  0
 16 18  1  0
 18 19  1  0
 19 20  1  1
 20 21  1  0
 21 22  1  0
 22 23  2  0
 19 24  1  0
  8  3  2  0
 17 12  1  0
 23 19  1  0
 23  6  1  0
 24 14  1  0
  1 25  1  0
  1 26  1  0
  1 27  1  0
  4 28  1  0
  5 29  1  0
  8 30  1  0
  9 31  1  0
 10 32  1  0
 11 33  1  0
 12 34  1  6
 13 35  1  0
 13 36  1  0
 14 37  1  1
 15 38  1  0
 15 39  1  0
 16 40  1  6
 17 41  1  0
 17 42  1  0
 18 43  1  0
 18 44  1  0
 20 45  1  0
 20 46  1  0
 21 47  1  0
 21 48  1  0
 24 49  1  0
 24 50  1  0
M  END
>  <meeko>  (338) 
{"is_sidechain": false}

$$$$

     RDKit          3D

 50 54  0  0  0  0  0  0  0  0999 V2000
    2.7450    1.7330  -62.9280 C   0  0  0  0  0  0  0  0  0  0  0  0
    4.0350    1.1510  -62.7400 O   0  0  0  0  0  0  0  0  0  0  0  0
    4.6620    1.7020  -61.6450 C   0  0  0  0  0  0  0  0  0  0  0  0
    3.8490    1.8990  -60.4750 C   0  0  0  0  0  0  0  0  0  0  0  0
    4.4160    2.2640  -59.3180 C   0  0  0  0  0  0  0  0  0  0  0  0
    5.8810    2.4580  -59.1850 C   0  0  0  0  0  0  0  0  0  0  0  0
    6.5020    2.9000  -60.5240 C   0  0  0  0  0  0  0  0  0  0  0  0
    5.8980    2.2050  -61.7120 C   0  0  0  0  0  0  0  0  0  0  0  0
    7.3900    3.7820  -60.8600 N   0  0  0  0  0  0  0  0  0  0  0  0
    8.0540    4.4750  -59.9080 C   0  0  0  0  0  0  0  0  0  0  0  0
    9.3890    4.4570  -59.9720 C   0  0  0  0  0  0  0  0  0  0  0  0
   10.3970    4.7130  -58.8890 C   0  0  1  0  0  0  0  0  0  0  0  0
    9.8900    5.2730  -57.5440 C   0  0  0  0  0  0  0  0  0  0  0  0
    9.4550    4.2460  -56.4700 C   0  0  2  0  0  0  0  0  0  0  0  0
   10.4490    3.1020  -56.3760 C   0  0  0  0  0  0  0  0  0  0  0  0
   10.4990    2.4020  -57.7280 C   0  0  2  0  0  0  0  0  0  0  0  0
   11.1810    3.3920  -58.6990 C   0  0  0  0  0  0  0  0  0  0  0  0
    9.1060    1.8940  -58.2190 C   0  0  0  0  0  0  0  0  0  0  0  0
    7.8800    2.3150  -57.3570 C   0  0  2  0  0  0  0  0  0  0  0  0
    7.7500    1.2070  -56.2420 C   0  0  0  0  0  0  0  0  0  0  0  0
    6.3310    1.2980  -55.7260 C   0  0  0  0  0  0  0  0  0  0  0  0
    5.6110    1.7350  -56.8970 N   0  0  0  0  0  0  0  0  0  0  0  0
    6.4270    2.2230  -57.9520 C   0  0  0  0  0  0  0  0  0  0  0  0
    8.0300    3.7080  -56.6600 C   0  0  0  0  0  0  0  0  0  0  0  0
    2.2892    1.9386  -61.9482 H   0  0  0  0  0  0  0  0  0  0  0  0
    2.8453    2.6731  -63.4903 H   0  0  0  0  0  0  0  0  0  0  0  0
    2.1066    1.0357  -63.4903 H   0  0  0  0  0  0  0  0  0  0  0  0
    2.7606    1.7497  -60.5306 H   0  0  0  0  0  0  0  0  0  0  0  0
    3.7754    2.4251  -58.4384 H   0  0  0  0  0  0  0  0  0  0  0  0
    6.4771    2.1099  -62.6424 H   0  0  0  0  0  0  0  0  0  0  0  0
    7.5217    5.0268  -59.1192 H   0  0  0  0  0  0  0  0  0  0  0  0
    9.8098    4.2206  -60.9605 H   0  0  0  0  0  0  0  0  0  0  0  0
   11.0217    5.5497  -59.2351 H   0  0  0  0  0  0  0  0  0  0  0  0
   10.6988    5.8809  -57.1125 H   0  0  0  0  0  0  0  0  0  0  0  0
    8.9735    5.8274  -57.7945 H   0  0  0  0  0  0  0  0  0  0  0  0
    9.4459    4.8002  -55.5198 H   0  0  0  0  0  0  0  0  0  0  0  0
   11.4450    3.4941  -56.1227 H   0  0  0  0  0  0  0  0  0  0  0  0
   10.1401    2.3939  -55.5929 H   0  0  0  0  0  0  0  0  0  0  0  0
   11.0801    1.4704  -57.6617 H   0  0  0  0  0  0  0  0  0  0  0  0
   12.1792    3.6336  -58.3050 H   0  0  0  0  0  0  0  0  0  0  0  0
   11.2270    2.9000  -59.6817 H   0  0  0  0  0  0  0  0  0  0  0  0
    8.9483    2.2781  -59.2376 H   0  0  0  0  0  0  0  0  0  0  0  0
    9.1514    0.7970  -58.1517 H   0  0  0  0  0  0  0  0  0  0  0  0
    7.9380    0.2110  -56.6694 H   0  0  0  0  0  0  0  0  0  0  0  0
    8.4822    1.3597  -55.4354 H   0  0  0  0  0  0  0  0  0  0  0  0
    5.9695    0.3194  -55.3771 H   0  0  0  0  0  0  0  0  0  0  0  0
    6.2168    1.9676  -54.8608 H   0  0  0  0  0  0  0  0  0  0  0  0
    4.8890    1.0890  -57.2110 H   0  0  0  0  0  0  0  0  0  0  0  0
    7.4767    4.4420  -57.2643 H   0  0  0  0  0  0  0  0  0  0  0  0
    7.6444    3.5587  -55.6407 H   0  0  0  0  0  0  0  0  0  0  0  0
  1  2  1  0
  2  3  1  0
  3  4  1  0
  4  5  2  0
  5  6  1  0
  6  7  1  0
  7  8  1  0
  7  9  2  0
  9 10  1  0
 10 11  2  0
 11 12  1  0
 12 13  1  0
 13 14  1  0
 14 15  1  0
 15 16  1  0
 16 17  1  0
 16 18  1  0
 18 19  1  0
 19 20  1  1
 20 21  1  0
 21 22  1  0
 22 23  1  0
 19 24  1  0
  8  3  2  0
 17 12  1  0
 23 19  1  0
 23  6  2  0
 24 14  1  0
  1 25  1  0
  1 26  1  0
  1 27  1  0
  4 28  1  0
  5 29  1  0
  8 30  1  0
 10 31  1  0
 11 32  1  0
 12 33  1  6
 13 34  1  0
 13 35  1  0
 14 36  1  1
 15 37  1  0
 15 38  1  0
 16 39  1  1
 17 40  1  0
 17 41  1  0
 18 42  1  0
 18 43  1  0
 20 44  1  0
 20 45  1  0
 21 46  1  0
 21 47  1  0
 22 48  1  0
 24 49  1  0
 24 50  1  0
M  END
>  <meeko>  (339) 
{"is_sidechain": false}

$$$$

     RDKit          3D

 50 54  0  0  0  0  0  0  0  0999 V2000
    4.0310    1.5000  -63.2200 C   0  0  0  0  0  0  0  0  0  0  0  0
    5.3440    2.0100  -63.0310 O   0  0  0  0  0  0  0  0  0  0  0  0
    5.7420    2.2890  -61.7450 C   0  0  0  0  0  0  0  0  0  0  0  0
    4.7530    1.8960  -60.7680 C   0  0  0  0  0  0  0  0  0  0  0  0
    5.0280    1.8810  -59.4570 C   0  0  0  0  0  0  0  0  0  0  0  0
    6.3400    2.2830  -58.9590 C   0  0  0  0  0  0  0  0  0  0  0  0
    7.1590    3.1400  -59.9090 C   0  0  0  0  0  0  0  0  0  0  0  0
    6.8880    2.8810  -61.3630 C   0  0  0  0  0  0  0  0  0  0  0  0
    7.9900    4.0130  -59.4290 N   0  0  0  0  0  0  0  0  0  0  0  0
    8.7540    4.8010  -60.2250 C   0  0  0  0  0  0  0  0  0  0  0  0
    9.9900    5.1690  -59.8650 C   0  0  0  0  0  0  0  0  0  0  0  0
   10.7240    4.8000  -58.5870 C   0  0  1  0  0  0  0  0  0  0  0  0
   10.0300    5.2700  -57.2860 C   0  0  0  0  0  0  0  0  0  0  0  0
    9.6490    4.1980  -56.2440 C   0  0  2  0  0  0  0  0  0  0  0  0
   10.7120    3.1140  -56.1920 C   0  0  0  0  0  0  0  0  0  0  0  0
   10.7430    2.4020  -57.5330 C   0  0  2  0  0  0  0  0  0  0  0  0
   11.2920    3.3650  -58.6010 C   0  0  0  0  0  0  0  0  0  0  0  0
    9.3810    1.8010  -57.9390 C   0  0  0  0  0  0  0  0  0  0  0  0
    8.1590    2.1900  -57.0530 C   0  0  2  0  0  0  0  0  0  0  0  0
    8.0910    1.1450  -55.8820 C   0  0  0  0  0  0  0  0  0  0  0  0
    6.6210    0.9960  -55.5330 C   0  0  0  0  0  0  0  0  0  0  0  0
    5.9660    1.2440  -56.7950 N   0  0  0  0  0  0  0  0  0  0  0  0
    6.7640    1.9440  -57.7130 C   0  0  0  0  0  0  0  0  0  0  0  0
    8.2330    3.6230  -56.4580 C   0  0  0  0  0  0  0  0  0  0  0  0
    3.5637    1.3185  -62.2409 H   0  0  0  0  0  0  0  0  0  0  0  0
    3.4313    2.2306  -63.7827 H   0  0  0  0  0  0  0  0  0  0  0  0
    4.0817    0.5562  -63.7827 H   0  0  0  0  0  0  0  0  0  0  0  0
    3.7494    1.6018  -61.1090 H   0  0  0  0  0  0  0  0  0  0  0  0
    4.2532    1.5608  -58.7448 H   0  0  0  0  0  0  0  0  0  0  0  0
    7.6300    3.1767  -62.1193 H   0  0  0  0  0  0  0  0  0  0  0  0
    8.3494    5.1457  -61.1881 H   0  0  0  0  0  0  0  0  0  0  0  0
   10.5348    5.8101  -60.5737 H   0  0  0  0  0  0  0  0  0  0  0  0
   11.6335    5.4185  -58.5715 H   0  0  0  0  0  0  0  0  0  0  0  0
   10.7079    5.9813  -56.7915 H   0  0  0  0  0  0  0  0  0  0  0  0
    9.0675    5.6842  -57.6206 H   0  0  0  0  0  0  0  0  0  0  0  0
    9.6123    4.6911  -55.2614 H   0  0  0  0  0  0  0  0  0  0  0  0
   11.6938    3.5670  -55.9900 H   0  0  0  0  0  0  0  0  0  0  0  0
   10.4792    2.3971  -55.3909 H   0  0  0  0  0  0  0  0  0  0  0  0
   11.4146    1.5355  -57.4422 H   0  0  0  0  0  0  0  0  0  0  0  0
   12.3809    3.4345  -58.4612 H   0  0  0  0  0  0  0  0  0  0  0  0
   10.9835    2.9377  -59.5665 H   0  0  0  0  0  0  0  0  0  0  0  0
    9.1653    2.1258  -58.9676 H   0  0  0  0  0  0  0  0  0  0  0  0
    9.4944    0.7135  -57.8185 H   0  0  0  0  0  0  0  0  0  0  0  0
    8.5055    0.1796  -56.2078 H   0  0  0  0  0  0  0  0  0  0  0  0
    8.6778    1.4775  -55.0131 H   0  0  0  0  0  0  0  0  0  0  0  0
    6.4018   -0.0173  -55.1652 H   0  0  0  0  0  0  0  0  0  0  0  0
    6.2928    1.6740  -54.7314 H   0  0  0  0  0  0  0  0  0  0  0  0
    5.4670    0.4580  -57.2050 H   0  0  0  0  0  0  0  0  0  0  0  0
    7.6959    4.2982  -57.1404 H   0  0  0  0  0  0  0  0  0  0  0  0
    7.7898    3.5488  -55.4540 H   0  0  0  0  0  0  0  0  0  0  0  0
  1  2  1  0
  2  3  1  0
  3  4  1  0
  4  5  2  0
  5  6  1  0
  6  7  1  0
  7  8  1  0
  7  9  2  0
  9 10  1  0
 10 11  2  0
 11 12  1  0
 12 13  1  0
 13 14  1  0
 14 15  1  0
 15 16  1  0
 16 17  1  0
 16 18  1  0
 18 19  1  0
 19 20  1  1
 20 21  1  0
 21 22  1  0
 22 23  1  0
 19 24  1  0
  8  3  2  0
 17 12  1  0
 23 19  1  0
 23  6  2  0
 24 14  1  0
  1 25  1  0
  1 26  1  0
  1 27  1  0
  4 28  1  0
  5 29  1  0
  8 30  1  0
 10 31  1  0
 11 32  1  0
 12 33  1  6
 13 34  1  0
 13 35  1  0
 14 36  1  1
 15 37  1  0
 15 38  1  0
 16 39  1  1
 17 40  1  0
 17 41  1  0
 18 42  1  0
 18 43  1  0
 20 44  1  0
 20 45  1  0
 21 46  1  0
 21 47  1  0
 22 48  1  0
 24 49  1  0
 24 50  1  0
M  END
>  <meeko>  (340) 
{"is_sidechain": false}

$$$$

     RDKit          3D

 50 54  0  0  0  0  0  0  0  0999 V2000
    3.0860    1.8050  -60.9830 C   0  0  0  0  0  0  0  0  0  0  0  0
    4.3150    1.1670  -60.6530 O   0  0  0  0  0  0  0  0  0  0  0  0
    5.2200    1.8900  -59.9130 C   0  0  0  0  0  0  0  0  0  0  0  0
    4.8880    1.9100  -58.4990 C   0  0  0  0  0  0  0  0  0  0  0  0
    5.7730    2.3290  -57.5810 C   0  0  0  0  0  0  0  0  0  0  0  0
    7.0990    2.7710  -58.0130 C   0  0  0  0  0  0  0  0  0  0  0  0
    7.0990    3.3700  -59.4050 C   0  0  0  0  0  0  0  0  0  0  0  0
    6.2880    2.5680  -60.3740 C   0  0  0  0  0  0  0  0  0  0  0  0
    7.6190    4.4660  -59.8600 N   0  0  0  0  0  0  0  0  0  0  0  0
    8.0020    5.4020  -58.9560 C   0  0  0  0  0  0  0  0  0  0  0  0
    9.2110    5.9540  -58.8320 C   0  0  0  0  0  0  0  0  0  0  0  0
   10.5490    5.6510  -59.4640 C   0  0  1  0  0  0  0  0  0  0  0  0
   11.6110    5.5880  -58.3460 C   0  0  0  0  0  0  0  0  0  0  0  0
   11.7620    4.1880  -57.7300 C   0  0  2  0  0  0  0  0  0  0  0  0
   12.2630    3.2590  -58.8240 C   0  0  0  0  0  0  0  0  0  0  0  0
   11.1550    3.0980  -59.8480 C   0  0  2  0  0  0  0  0  0  0  0  0
   10.7010    4.4570  -60.4340 C   0  0  0  0  0  0  0  0  0  0  0  0
   10.0300    2.2540  -59.2420 C   0  0  0  0  0  0  0  0  0  0  0  0
    9.7270    2.4690  -57.7300 C   0  0  2  0  0  0  0  0  0  0  0  0
   10.2190    1.1890  -56.9520 C   0  0  0  0  0  0  0  0  0  0  0  0
    9.4070    1.1730  -55.6610 C   0  0  0  0  0  0  0  0  0  0  0  0
    8.1410    1.6890  -56.1210 N   0  0  0  0  0  0  0  0  0  0  0  0
    8.2120    2.4110  -57.3200 C   0  0  0  0  0  0  0  0  0  0  0  0
   10.4560    3.6880  -57.0680 C   0  0  0  0  0  0  0  0  0  0  0  0
    2.5561    2.0801  -60.0592 H   0  0  0  0  0  0  0  0  0  0  0  0
    3.2899    2.7111  -61.5724 H   0  0  0  0  0  0  0  0  0  0  0  0
    2.4623    1.1168  -61.5724 H   0  0  0  0  0  0  0  0  0  0  0  0
    3.8918    1.5752  -58.1742 H   0  0  0  0  0  0  0  0  0  0  0  0
    5.5040    2.3399  -56.5145 H   0  0  0  0  0  0  0  0  0  0  0  0
    6.5586    2.5332  -61.4396 H   0  0  0  0  0  0  0  0  0  0  0  0
    7.2324    5.7433  -58.2480 H   0  0  0  0  0  0  0  0  0  0  0  0
    9.2384    6.7991  -58.1284 H   0  0  0  0  0  0  0  0  0  0  0  0
   10.6845    6.4864  -60.1667 H   0  0  0  0  0  0  0  0  0  0  0  0
   12.5808    5.8903  -58.7681 H   0  0  0  0  0  0  0  0  0  0  0  0
   11.2800    6.2634  -57.5434 H   0  0  0  0  0  0  0  0  0  0  0  0
   12.4907    4.2158  -56.9064 H   0  0  0  0  0  0  0  0  0  0  0  0
   13.1534    3.6926  -59.3028 H   0  0  0  0  0  0  0  0  0  0  0  0
   12.5352    2.2814  -58.3994 H   0  0  0  0  0  0  0  0  0  0  0  0
   11.5318    2.5500  -60.7242 H   0  0  0  0  0  0  0  0  0  0  0  0
   11.4385    4.7471  -61.1968 H   0  0  0  0  0  0  0  0  0  0  0  0
    9.6814    4.2706  -60.8022 H   0  0  0  0  0  0  0  0  0  0  0  0
    9.1091    2.4767  -59.8008 H   0  0  0  0  0  0  0  0  0  0  0  0
   10.3770    1.2131  -59.3207 H   0  0  0  0  0  0  0  0  0  0  0  0
   10.0255    0.2806  -57.5414 H   0  0  0  0  0  0  0  0  0  0  0  0
   11.3015    1.2149  -56.7581 H   0  0  0  0  0  0  0  0  0  0  0  0
    9.3055    0.1533  -55.2610 H   0  0  0  0  0  0  0  0  0  0  0  0
    9.8565    1.7470  -54.8373 H   0  0  0  0  0  0  0  0  0  0  0  0
    7.4740    2.0210  -55.4320 H   0  0  0  0  0  0  0  0  0  0  0  0
    9.7481    4.5299  -57.0599 H   0  0  0  0  0  0  0  0  0  0  0  0
   10.7669    3.3232  -56.0779 H   0  0  0  0  0  0  0  0  0  0  0  0
  1  2  1  0
  2  3  1  0
  3  4  1  0
  4  5  2  0
  5  6  1  0
  6  7  1  0
  7  8  1  0
  7  9  2  0
  9 10  1  0
 10 11  2  0
 11 12  1  0
 12 13  1  0
 13 14  1  0
 14 15  1  0
 15 16  1  0
 16 17  1  0
 16 18  1  0
 18 19  1  0
 19 20  1  1
 20 21  1  0
 21 22  1  0
 22 23  1  0
 19 24  1  0
  8  3  2  0
 17 12  1  0
 23 19  1  0
 23  6  2  0
 24 14  1  0
  1 25  1  0
  1 26  1  0
  1 27  1  0
  4 28  1  0
  5 29  1  0
  8 30  1  0
 10 31  1  0
 11 32  1  0
 12 33  1  6
 13 34  1  0
 13 35  1  0
 14 36  1  1
 15 37  1  0
 15 38  1  0
 16 39  1  6
 17 40  1  0
 17 41  1  0
 18 42  1  0
 18 43  1  0
 20 44  1  0
 20 45  1  0
 21 46  1  0
 21 47  1  0
 22 48  1  0
 24 49  1  0
 24 50  1  0
M  END
>  <meeko>  (341) 
{"is_sidechain": false}

$$$$

     RDKit          3D

 45 49  0  0  0  0  0  0  0  0999 V2000
   11.4930   -1.4490  -54.4320 N   0  0  0  0  0  0  0  0  0  0  0  0
   10.4530   -2.2520  -54.4090 C   0  0  0  0  0  0  0  0  0  0  0  0
   10.2980   -3.3640  -55.1080 N   0  0  0  0  0  0  0  0  0  0  0  0
   11.1800   -4.0460  -56.0650 C   0  0  2  0  0  0  0  0  0  0  0  0
   12.2880   -4.8220  -55.3330 C   0  0  0  0  0  0  0  0  0  0  0  0
   13.1690   -5.5640  -56.3550 C   0  0  1  0  0  0  0  0  0  0  0  0
   12.3010   -6.5590  -57.1430 C   0  0  0  0  0  0  0  0  0  0  0  0
   11.1800   -5.8100  -57.8830 C   0  0  2  0  0  0  0  0  0  0  0  0
   11.8040   -4.7960  -58.8550 C   0  0  0  0  0  0  0  0  0  0  0  0
   12.6690   -3.7860  -58.0810 C   0  0  2  0  0  0  0  0  0  0  0  0
   13.7810   -4.5430  -57.3320 C   0  0  0  0  0  0  0  0  0  0  0  0
   11.7880   -3.0420  -57.0610 C   0  0  0  0  0  0  0  0  0  0  0  0
   10.3160   -5.0570  -56.8570 C   0  0  0  0  0  0  0  0  0  0  0  0
    9.2980   -1.9150  -53.5590 C   0  0  0  0  0  0  0  0  0  0  0  0
    8.3550   -1.1060  -54.0700 N   0  0  0  0  0  0  0  0  0  0  0  0
    7.4780   -0.9750  -53.0530 N   0  0  0  0  0  0  0  0  0  0  0  0
    7.8010   -1.7150  -51.9450 C   0  0  0  0  0  0  0  0  0  0  0  0
    7.1400   -1.8600  -50.7210 C   0  0  0  0  0  0  0  0  0  0  0  0
    7.7110   -2.7250  -49.7850 C   0  0  0  0  0  0  0  0  0  0  0  0
    8.8840   -3.4190  -50.0710 C   0  0  0  0  0  0  0  0  0  0  0  0
    9.5350   -3.2600  -51.3010 C   0  0  0  0  0  0  0  0  0  0  0  0
    8.9910   -2.3730  -52.2540 C   0  0  0  0  0  0  0  0  0  0  0  0
   11.4750   -0.5720  -53.9270 H   0  0  0  0  0  0  0  0  0  0  0  0
   12.3010   -1.6370  -55.0030 H   0  0  0  0  0  0  0  0  0  0  0  0
    9.3660   -3.7640  -54.9480 H   0  0  0  0  0  0  0  0  0  0  0  0
   12.9086   -4.1180  -54.7592 H   0  0  0  0  0  0  0  0  0  0  0  0
   11.8291   -5.5531  -54.6512 H   0  0  0  0  0  0  0  0  0  0  0  0
   13.9711   -6.1041  -55.8307 H   0  0  0  0  0  0  0  0  0  0  0  0
   12.9284   -7.0898  -57.8742 H   0  0  0  0  0  0  0  0  0  0  0  0
   11.8523   -7.2791  -56.4429 H   0  0  0  0  0  0  0  0  0  0  0  0
   10.5597   -6.5267  -58.4412 H   0  0  0  0  0  0  0  0  0  0  0  0
   12.4317   -5.3294  -59.5840 H   0  0  0  0  0  0  0  0  0  0  0  0
   11.0005   -4.2563  -59.3776 H   0  0  0  0  0  0  0  0  0  0  0  0
   13.1160   -3.0651  -58.7814 H   0  0  0  0  0  0  0  0  0  0  0  0
   14.4136   -5.0718  -58.0601 H   0  0  0  0  0  0  0  0  0  0  0  0
   14.3842   -3.8206  -56.7626 H   0  0  0  0  0  0  0  0  0  0  0  0
   12.4012   -2.3109  -56.5138 H   0  0  0  0  0  0  0  0  0  0  0  0
   10.9773   -2.5225  -57.5928 H   0  0  0  0  0  0  0  0  0  0  0  0
    9.5161   -4.5161  -57.3838 H   0  0  0  0  0  0  0  0  0  0  0  0
    9.8810   -5.7831  -56.1544 H   0  0  0  0  0  0  0  0  0  0  0  0
    6.6660   -0.3770  -53.1780 H   0  0  0  0  0  0  0  0  0  0  0  0
    6.2091   -1.3154  -50.5046 H   0  0  0  0  0  0  0  0  0  0  0  0
    7.2267   -2.8602  -48.8067 H   0  0  0  0  0  0  0  0  0  0  0  0
    9.3058   -4.1025  -49.3194 H   0  0  0  0  0  0  0  0  0  0  0  0
   10.4569   -3.8185  -51.5208 H   0  0  0  0  0  0  0  0  0  0  0  0
  1  2  1  0
  2  3  2  0
  4  3  1  1
  4  5  1  0
  5  6  1  0
  6  7  1  0
  7  8  1  0
  8  9  1  0
  9 10  1  0
 10 11  1  0
 10 12  1  0
  8 13  1  0
  2 14  1  0
 14 15  2  0
 15 16  1  0
 16 17  1  0
 17 18  2  0
 18 19  1  0
 19 20  2  0
 20 21  1  0
 21 22  2  0
 12  4  1  0
 22 14  1  0
 13  4  1  0
 22 17  1  0
 11  6  1  0
  1 23  1  0
  1 24  1  0
  3 25  1  0
  5 26  1  0
  5 27  1  0
  6 28  1  1
  7 29  1  0
  7 30  1  0
  8 31  1  6
  9 32  1  0
  9 33  1  0
 10 34  1  6
 11 35  1  0
 11 36  1  0
 12 37  1  0
 12 38  1  0
 13 39  1  0
 13 40  1  0
 16 41  1  0
 18 42  1  0
 19 43  1  0
 20 44  1  0
 21 45  1  0
M  CHG  1   3   1
M  END
>  <meeko>  (342) 
{"is_sidechain": false}

$$$$

     RDKit          3D

 45 49  0  0  0  0  0  0  0  0999 V2000
    7.2720    0.4760  -55.5940 N   0  0  0  0  0  0  0  0  0  0  0  0
    7.5390    1.3740  -56.5220 C   0  0  0  0  0  0  0  0  0  0  0  0
    8.7840    1.7190  -56.8060 N   0  0  0  0  0  0  0  0  0  0  0  0
    9.3330    2.7410  -57.7400 C   0  0  2  0  0  0  0  0  0  0  0  0
    8.6120    4.0920  -57.5950 C   0  0  0  0  0  0  0  0  0  0  0  0
    9.2740    5.1460  -58.5040 C   0  0  1  0  0  0  0  0  0  0  0  0
   10.7430    5.3280  -58.0880 C   0  0  0  0  0  0  0  0  0  0  0  0
   11.4960    3.9950  -58.2240 C   0  0  2  0  0  0  0  0  0  0  0  0
   11.4360    3.5200  -59.6840 C   0  0  0  0  0  0  0  0  0  0  0  0
    9.9730    3.3250  -60.1110 C   0  0  2  0  0  0  0  0  0  0  0  0
    9.2200    4.6600  -59.9640 C   0  0  0  0  0  0  0  0  0  0  0  0
    9.3090    2.2710  -59.2040 C   0  0  0  0  0  0  0  0  0  0  0  0
   10.8190    2.9460  -57.3300 C   0  0  0  0  0  0  0  0  0  0  0  0
    6.3640    1.9520  -57.1650 C   0  0  0  0  0  0  0  0  0  0  0  0
    5.5510    2.7690  -56.4870 N   0  0  0  0  0  0  0  0  0  0  0  0
    4.5630    3.0230  -57.3720 N   0  0  0  0  0  0  0  0  0  0  0  0
    4.6860    2.3280  -58.5500 C   0  0  0  0  0  0  0  0  0  0  0  0
    3.8680    2.2810  -59.6820 C   0  0  0  0  0  0  0  0  0  0  0  0
    4.2710    1.4420  -60.7250 C   0  0  0  0  0  0  0  0  0  0  0  0
    5.4400    0.6850  -60.6330 C   0  0  0  0  0  0  0  0  0  0  0  0
    6.2490    0.7460  -59.4920 C   0  0  0  0  0  0  0  0  0  0  0  0
    5.8620    1.5930  -58.4360 C   0  0  0  0  0  0  0  0  0  0  0  0
    6.2990    0.2880  -55.3660 H   0  0  0  0  0  0  0  0  0  0  0  0
    7.9840    0.0230  -55.0430 H   0  0  0  0  0  0  0  0  0  0  0  0
    9.4910    1.2350  -56.2660 H   0  0  0  0  0  0  0  0  0  0  0  0
    7.5570    3.9741  -57.8832 H   0  0  0  0  0  0  0  0  0  0  0  0
    8.6793    4.4255  -56.5489 H   0  0  0  0  0  0  0  0  0  0  0  0
    8.7407    6.1033  -58.4085 H   0  0  0  0  0  0  0  0  0  0  0  0
   11.2148    6.0809  -58.7365 H   0  0  0  0  0  0  0  0  0  0  0  0
   10.7834    5.6607  -57.0403 H   0  0  0  0  0  0  0  0  0  0  0  0
   12.5450    4.1302  -57.9217 H   0  0  0  0  0  0  0  0  0  0  0  0
   11.9078    4.2731  -60.3322 H   0  0  0  0  0  0  0  0  0  0  0  0
   11.9705    2.5630  -59.7756 H   0  0  0  0  0  0  0  0  0  0  0  0
    9.9379    2.9878  -61.1575 H   0  0  0  0  0  0  0  0  0  0  0  0
    9.6872    5.4137  -60.6149 H   0  0  0  0  0  0  0  0  0  0  0  0
    8.1691    4.5118  -60.2532 H   0  0  0  0  0  0  0  0  0  0  0  0
    8.2662    2.1233  -59.5214 H   0  0  0  0  0  0  0  0  0  0  0  0
    9.8638    1.3248  -59.2868 H   0  0  0  0  0  0  0  0  0  0  0  0
   11.3545    1.9901  -57.4280 H   0  0  0  0  0  0  0  0  0  0  0  0
   10.8501    3.2997  -56.2889 H   0  0  0  0  0  0  0  0  0  0  0  0
    3.8180    3.6610  -57.1070 H   0  0  0  0  0  0  0  0  0  0  0  0
    2.9468    2.8784  -59.7494 H   0  0  0  0  0  0  0  0  0  0  0  0
    3.6558    1.3772  -61.6346 H   0  0  0  0  0  0  0  0  0  0  0  0
    5.7298    0.0312  -61.4688 H   0  0  0  0  0  0  0  0  0  0  0  0
    7.1676    0.1449  -59.4220 H   0  0  0  0  0  0  0  0  0  0  0  0
  1  2  1  0
  2  3  2  0
  4  3  1  1
  4  5  1  0
  5  6  1  0
  6  7  1  0
  7  8  1  0
  8  9  1  0
  9 10  1  0
 10 11  1  0
 10 12  1  0
  8 13  1  0
  2 14  1  0
 14 15  2  0
 15 16  1  0
 16 17  1  0
 17 18  2  0
 18 19  1  0
 19 20  2  0
 20 21  1  0
 21 22  2  0
 12  4  1  0
 22 14  1  0
 13  4  1  0
 22 17  1  0
 11  6  1  0
  1 23  1  0
  1 24  1  0
  3 25  1  0
  5 26  1  0
  5 27  1  0
  6 28  1  6
  7 29  1  0
  7 30  1  0
  8 31  1  1
  9 32  1  0
  9 33  1  0
 10 34  1  6
 11 35  1  0
 11 36  1  0
 12 37  1  0
 12 38  1  0
 13 39  1  0
 13 40  1  0
 16 41  1  0
 18 42  1  0
 19 43  1  0
 20 44  1  0
 21 45  1  0
M  CHG  1   3   1
M  END
>  <meeko>  (343) 
{"is_sidechain": false}

$$$$

     RDKit          3D

 45 49  0  0  0  0  0  0  0  0999 V2000
   11.5100   -1.7830  -53.9790 N   0  0  0  0  0  0  0  0  0  0  0  0
   10.3920   -2.4240  -54.2220 C   0  0  0  0  0  0  0  0  0  0  0  0
   10.1960   -3.3900  -55.0980 N   0  0  0  0  0  0  0  0  0  0  0  0
   11.1330   -4.0200  -56.0510 C   0  0  2  0  0  0  0  0  0  0  0  0
   11.7540   -2.9660  -56.9860 C   0  0  0  0  0  0  0  0  0  0  0  0
   12.6880   -3.6530  -57.9990 C   0  0  1  0  0  0  0  0  0  0  0  0
   13.7880   -4.4150  -57.2370 C   0  0  0  0  0  0  0  0  0  0  0  0
   13.1630   -5.4860  -56.3240 C   0  0  2  0  0  0  0  0  0  0  0  0
   12.3470   -6.4670  -57.1830 C   0  0  0  0  0  0  0  0  0  0  0  0
   11.2380   -5.7110  -57.9340 C   0  0  2  0  0  0  0  0  0  0  0  0
   11.8750   -4.6480  -58.8430 C   0  0  0  0  0  0  0  0  0  0  0  0
   10.3210   -5.0170  -56.9130 C   0  0  0  0  0  0  0  0  0  0  0  0
   12.2300   -4.8030  -55.3080 C   0  0  0  0  0  0  0  0  0  0  0  0
    9.2580   -2.0320  -53.4500 C   0  0  0  0  0  0  0  0  0  0  0  0
    8.2870   -1.1590  -53.8540 N   0  0  0  0  0  0  0  0  0  0  0  0
    7.3280   -0.9510  -52.9390 N   0  0  0  0  0  0  0  0  0  0  0  0
    7.6770   -1.7010  -51.8800 C   0  0  0  0  0  0  0  0  0  0  0  0
    7.0400   -1.8610  -50.6410 C   0  0  0  0  0  0  0  0  0  0  0  0
    7.7120   -2.7450  -49.7680 C   0  0  0  0  0  0  0  0  0  0  0  0
    8.9250   -3.4210  -50.1060 C   0  0  0  0  0  0  0  0  0  0  0  0
    9.5890   -3.2800  -51.3430 C   0  0  0  0  0  0  0  0  0  0  0  0
    8.9070   -2.4000  -52.1790 C   0  0  0  0  0  0  0  0  0  0  0  0
   11.5230   -1.0120  -53.3190 H   0  0  0  0  0  0  0  0  0  0  0  0
   12.3670   -1.9720  -54.4750 H   0  0  0  0  0  0  0  0  0  0  0  0
    9.2390   -3.7420  -55.1220 H   0  0  0  0  0  0  0  0  0  0  0  0
   10.9531   -2.4399  -57.5262 H   0  0  0  0  0  0  0  0  0  0  0  0
   12.3328   -2.2463  -56.3884 H   0  0  0  0  0  0  0  0  0  0  0  0
   13.1453   -2.8974  -58.6546 H   0  0  0  0  0  0  0  0  0  0  0  0
   14.4595   -4.9015  -57.9598 H   0  0  0  0  0  0  0  0  0  0  0  0
   14.3528   -3.7027  -56.6176 H   0  0  0  0  0  0  0  0  0  0  0  0
   13.9563   -6.0304  -55.7907 H   0  0  0  0  0  0  0  0  0  0  0  0
   13.0124   -6.9548  -57.9105 H   0  0  0  0  0  0  0  0  0  0  0  0
   11.8893   -7.2246  -56.5299 H   0  0  0  0  0  0  0  0  0  0  0  0
   10.6534   -6.4172  -58.5419 H   0  0  0  0  0  0  0  0  0  0  0  0
   12.5405   -5.1399  -59.5677 H   0  0  0  0  0  0  0  0  0  0  0  0
   11.0802   -4.1049  -59.3752 H   0  0  0  0  0  0  0  0  0  0  0  0
    9.5290   -4.4726  -57.4481 H   0  0  0  0  0  0  0  0  0  0  0  0
    9.8770   -5.7789  -56.2555 H   0  0  0  0  0  0  0  0  0  0  0  0
   11.7638   -5.5675  -54.6691 H   0  0  0  0  0  0  0  0  0  0  0  0
   12.8152   -4.1080  -54.6879 H   0  0  0  0  0  0  0  0  0  0  0  0
    8.2090   -0.6530  -54.7310 H   0  0  0  0  0  0  0  0  0  0  0  0
    6.1051   -1.3465  -50.3741 H   0  0  0  0  0  0  0  0  0  0  0  0
    7.2778   -2.9229  -48.7731 H   0  0  0  0  0  0  0  0  0  0  0  0
    9.3681   -4.0924  -49.3558 H   0  0  0  0  0  0  0  0  0  0  0  0
   10.5221   -3.7970  -51.6114 H   0  0  0  0  0  0  0  0  0  0  0  0
  1  2  1  0
  2  3  2  0
  4  3  1  1
  4  5  1  0
  5  6  1  0
  6  7  1  0
  7  8  1  0
  8  9  1  0
  9 10  1  0
 10 11  1  0
 10 12  1  0
  8 13  1  0
  2 14  1  0
 14 15  1  0
 15 16  1  0
 16 17  2  0
 17 18  1  0
 18 19  2  0
 19 20  1  0
 20 21  2  0
 21 22  1  0
 12  4  1  0
 22 14  2  0
 13  4  1  0
 22 17  1  0
 11  6  1  0
  1 23  1  0
  1 24  1  0
  3 25  1  0
  5 26  1  0
  5 27  1  0
  6 28  1  6
  7 29  1  0
  7 30  1  0
  8 31  1  1
  9 32  1  0
  9 33  1  0
 10 34  1  6
 11 35  1  0
 11 36  1  0
 12 37  1  0
 12 38  1  0
 13 39  1  0
 13 40  1  0
 15 41  1  0
 18 42  1  0
 19 43  1  0
 20 44  1  0
 21 45  1  0
M  CHG  1   3   1
M  END
>  <meeko>  (344) 
{"is_sidechain": false}

$$$$

     RDKit          3D

 45 49  0  0  0  0  0  0  0  0999 V2000
    6.9580    0.3900  -55.7540 N   0  0  0  0  0  0  0  0  0  0  0  0
    7.2530    1.3430  -56.6110 C   0  0  0  0  0  0  0  0  0  0  0  0
    8.4990    1.7290  -56.7940 N   0  0  0  0  0  0  0  0  0  0  0  0
    9.1140    2.7350  -57.7110 C   0  0  2  0  0  0  0  0  0  0  0  0
    8.4230    4.1030  -57.5790 C   0  0  0  0  0  0  0  0  0  0  0  0
    9.1410    5.1430  -58.4620 C   0  0  1  0  0  0  0  0  0  0  0  0
   10.5990    5.2850  -57.9970 C   0  0  0  0  0  0  0  0  0  0  0  0
   11.3210    3.9330  -58.1160 C   0  0  2  0  0  0  0  0  0  0  0  0
   11.2970    3.4680  -59.5800 C   0  0  0  0  0  0  0  0  0  0  0  0
    9.8440    3.3130  -60.0550 C   0  0  2  0  0  0  0  0  0  0  0  0
    9.1210    4.6670  -59.9260 C   0  0  0  0  0  0  0  0  0  0  0  0
    9.1240    2.2730  -59.1770 C   0  0  0  0  0  0  0  0  0  0  0  0
   10.5900    2.8970  -57.2500 C   0  0  0  0  0  0  0  0  0  0  0  0
    6.1380    1.8970  -57.2990 C   0  0  0  0  0  0  0  0  0  0  0  0
    5.2380    2.7810  -56.7780 N   0  0  0  0  0  0  0  0  0  0  0  0
    4.2450    3.1110  -57.6160 N   0  0  0  0  0  0  0  0  0  0  0  0
    4.4660    2.3920  -58.7280 C   0  0  0  0  0  0  0  0  0  0  0  0
    3.7330    2.3300  -59.9230 C   0  0  0  0  0  0  0  0  0  0  0  0
    4.2770    1.4420  -60.8760 C   0  0  0  0  0  0  0  0  0  0  0  0
    5.4630    0.6720  -60.6570 C   0  0  0  0  0  0  0  0  0  0  0  0
    6.2210    0.7130  -59.4680 C   0  0  0  0  0  0  0  0  0  0  0  0
    5.6610    1.5970  -58.5480 C   0  0  0  0  0  0  0  0  0  0  0  0
    5.9930    0.0910  -55.6490 H   0  0  0  0  0  0  0  0  0  0  0  0
    7.6540   -0.0950  -55.2080 H   0  0  0  0  0  0  0  0  0  0  0  0
    9.1830    1.2420  -56.2270 H   0  0  0  0  0  0  0  0  0  0  0  0
    7.3746    4.0142  -57.8999 H   0  0  0  0  0  0  0  0  0  0  0  0
    8.4652    4.4294  -56.5294 H   0  0  0  0  0  0  0  0  0  0  0  0
    8.6294    6.1133  -58.3797 H   0  0  0  0  0  0  0  0  0  0  0  0
   11.1113    6.0285  -58.6253 H   0  0  0  0  0  0  0  0  0  0  0  0
   10.6136    5.6118  -56.9468 H   0  0  0  0  0  0  0  0  0  0  0  0
   12.3625    4.0391  -57.7785 H   0  0  0  0  0  0  0  0  0  0  0  0
   11.8086    4.2125  -60.2077 H   0  0  0  0  0  0  0  0  0  0  0  0
   11.8101    2.4984  -59.6608 H   0  0  0  0  0  0  0  0  0  0  0  0
    9.8346    2.9814  -61.1038 H   0  0  0  0  0  0  0  0  0  0  0  0
    9.6284    5.4115  -60.5571 H   0  0  0  0  0  0  0  0  0  0  0  0
    8.0767    4.5487  -60.2507 H   0  0  0  0  0  0  0  0  0  0  0  0
    8.0883    2.1549  -59.5283 H   0  0  0  0  0  0  0  0  0  0  0  0
    9.6553    1.3124  -59.2480 H   0  0  0  0  0  0  0  0  0  0  0  0
   11.1033    1.9280  -57.3365 H   0  0  0  0  0  0  0  0  0  0  0  0
   10.5974    3.2422  -56.2056 H   0  0  0  0  0  0  0  0  0  0  0  0
    5.2280    3.2090  -55.8550 H   0  0  0  0  0  0  0  0  0  0  0  0
    2.8204    2.9180  -60.1004 H   0  0  0  0  0  0  0  0  0  0  0  0
    3.7601    1.3360  -61.8412 H   0  0  0  0  0  0  0  0  0  0  0  0
    5.8043    0.0079  -61.4647 H   0  0  0  0  0  0  0  0  0  0  0  0
    7.1335    0.1249  -59.2906 H   0  0  0  0  0  0  0  0  0  0  0  0
  1  2  1  0
  2  3  2  0
  4  3  1  1
  4  5  1  0
  5  6  1  0
  6  7  1  0
  7  8  1  0
  8  9  1  0
  9 10  1  0
 10 11  1  0
 10 12  1  0
  8 13  1  0
  2 14  1  0
 14 15  1  0
 15 16  1  0
 16 17  2  0
 17 18  1  0
 18 19  2  0
 19 20  1  0
 20 21  2  0
 21 22  1  0
 12  4  1  0
 22 14  2  0
 13  4  1  0
 22 17  1  0
 11  6  1  0
  1 23  1  0
  1 24  1  0
  3 25  1  0
  5 26  1  0
  5 27  1  0
  6 28  1  6
  7 29  1  0
  7 30  1  0
  8 31  1  1
  9 32  1  0
  9 33  1  0
 10 34  1  6
 11 35  1  0
 11 36  1  0
 12 37  1  0
 12 38  1  0
 13 39  1  0
 13 40  1  0
 15 41  1  0
 18 42  1  0
 19 43  1  0
 20 44  1  0
 21 45  1  0
M  CHG  1   3   1
M  END
>  <meeko>  (345) 
{"is_sidechain": false}

$$$$

     RDKit          3D

 76 83  0  0  0  0  0  0  0  0999 V2000
   10.0010    2.8230  -61.1020 O   0  0  0  0  0  0  0  0  0  0  0  0
   10.4510    3.0940  -59.9930 C   0  0  0  0  0  0  0  0  0  0  0  0
   11.4940    4.1380  -59.8480 C   0  0  0  0  0  0  0  0  0  0  0  0
   12.8170    3.8210  -59.5140 C   0  0  0  0  0  0  0  0  0  0  0  0
   13.7660    4.8370  -59.3890 C   0  0  0  0  0  0  0  0  0  0  0  0
   13.3950    6.1670  -59.5850 C   0  0  0  0  0  0  0  0  0  0  0  0
   12.0730    6.4870  -59.8950 C   0  0  0  0  0  0  0  0  0  0  0  0
   11.1200    5.4750  -60.0190 C   0  0  0  0  0  0  0  0  0  0  0  0
   10.0010    2.3490  -58.7850 C   0  0  0  0  0  0  0  0  0  0  0  0
   10.8860    1.8850  -57.8890 C   0  0  0  0  0  0  0  0  0  0  0  0
   10.0590    1.3180  -56.7980 C   0  0  0  0  0  0  0  0  0  0  0  0
    8.6240    1.5860  -57.1750 C   0  0  0  0  0  0  0  0  0  0  0  0
    8.6850    2.1330  -58.4230 N   0  0  0  0  0  0  0  0  0  0  0  0
    7.6770    1.2970  -56.2720 C   0  0  0  0  0  0  0  0  0  0  0  0
    6.2170    1.4770  -56.4920 C   0  0  0  0  0  0  0  0  0  0  0  0
    5.5630    1.3650  -57.8900 C   0  0  0  0  0  0  0  0  0  0  0  0
    5.6300    2.9000  -58.0080 C   0  0  0  0  0  0  0  0  0  0  0  0
    5.7300    2.9540  -56.4730 C   0  0  0  0  0  0  0  0  0  0  0  0
    8.1910    0.7540  -54.8760 C   0  0  0  0  0  0  0  0  0  0  0  0
    7.4470    0.6610  -53.7790 N   0  0  0  0  0  0  0  0  0  0  0  0
    6.0330    0.3990  -53.3810 C   0  0  0  0  0  0  0  0  0  0  0  0
    5.6720   -1.1310  -53.2950 C   0  0  0  0  0  0  0  0  0  0  0  0
    6.6220   -2.1780  -52.5620 C   0  0  1  0  0  0  0  0  0  0  0  0
    6.1880   -2.7150  -51.1790 C   0  0  0  0  0  0  0  0  0  0  0  0
    6.7530   -4.1600  -51.0280 C   0  0  2  0  0  0  0  0  0  0  0  0
    8.0100   -4.4640  -50.1310 C   0  0  0  0  0  0  0  0  0  0  0  0
    9.2540   -3.6080  -50.2880 C   0  0  0  0  0  0  0  0  0  0  0  0
   10.2720   -3.8270  -51.1500 C   0  0  0  0  0  0  0  0  0  0  0  0
   10.9760   -2.6580  -51.6990 C   0  0  0  0  0  0  0  0  0  0  0  0
   11.2380   -2.5820  -53.0210 C   0  0  0  0  0  0  0  0  0  0  0  0
   10.9990   -1.3500  -53.7820 C   0  0  0  0  0  0  0  0  0  0  0  0
    9.7550   -0.9420  -54.1410 C   0  0  0  0  0  0  0  0  0  0  0  0
    8.5110   -1.7750  -53.8900 C   0  0  1  0  0  0  0  0  0  0  0  0
    8.2810   -3.2720  -54.0960 C   0  0  0  0  0  0  0  0  0  0  0  0
    6.8930   -3.4710  -53.4150 C   0  0  1  0  0  0  0  0  0  0  0  0
    6.8740   -4.6770  -52.4670 C   0  0  0  0  0  0  0  0  0  0  0  0
    7.9940   -1.5800  -52.4750 C   0  0  0  0  0  0  0  0  0  0  0  0
    9.4800    0.2690  -54.8810 N   0  0  0  0  0  0  0  0  0  0  0  0
   10.5180    0.6980  -55.7670 N   0  0  0  0  0  0  0  0  0  0  0  0
   13.1077    2.7728  -59.3504 H   0  0  0  0  0  0  0  0  0  0  0  0
   14.8072    4.5884  -59.1357 H   0  0  0  0  0  0  0  0  0  0  0  0
   14.1463    6.9654  -59.4950 H   0  0  0  0  0  0  0  0  0  0  0  0
   11.7816    7.5375  -60.0418 H   0  0  0  0  0  0  0  0  0  0  0  0
   10.0751    5.7287  -60.2511 H   0  0  0  0  0  0  0  0  0  0  0  0
   11.9838    1.9183  -57.9509 H   0  0  0  0  0  0  0  0  0  0  0  0
    7.9640    2.7460  -58.7860 H   0  0  0  0  0  0  0  0  0  0  0  0
    5.9686    0.7128  -55.7409 H   0  0  0  0  0  0  0  0  0  0  0  0
    6.1693    0.8258  -58.6328 H   0  0  0  0  0  0  0  0  0  0  0  0
    4.6147    0.8258  -58.0313 H   0  0  0  0  0  0  0  0  0  0  0  0
    6.5158    3.2800  -58.5380 H   0  0  0  0  0  0  0  0  0  0  0  0
    4.8649    3.4696  -58.5559 H   0  0  0  0  0  0  0  0  0  0  0  0
    6.4704    3.6720  -56.0906 H   0  0  0  0  0  0  0  0  0  0  0  0
    4.8726    3.2630  -55.8570 H   0  0  0  0  0  0  0  0  0  0  0  0
    8.0430    0.8060  -52.9700 H   0  0  0  0  0  0  0  0  0  0  0  0
    5.8606    0.8524  -52.3937 H   0  0  0  0  0  0  0  0  0  0  0  0
    5.3933    0.8365  -54.1617 H   0  0  0  0  0  0  0  0  0  0  0  0
    4.6977   -1.1903  -52.7878 H   0  0  0  0  0  0  0  0  0  0  0  0
    5.7446   -1.4468  -54.3462 H   0  0  0  0  0  0  0  0  0  0  0  0
    6.5919   -2.0707  -50.3842 H   0  0  0  0  0  0  0  0  0  0  0  0
    5.0911   -2.7217  -51.0973 H   0  0  0  0  0  0  0  0  0  0  0  0
    6.0442   -4.7059  -50.3880 H   0  0  0  0  0  0  0  0  0  0  0  0
    7.6872   -4.3734  -49.0833 H   0  0  0  0  0  0  0  0  0  0  0  0
    8.3341   -5.4615  -50.4627 H   0  0  0  0  0  0  0  0  0  0  0  0
    9.3347   -2.7245  -49.6377 H   0  0  0  0  0  0  0  0  0  0  0  0
   10.5652   -4.8489  -51.4324 H   0  0  0  0  0  0  0  0  0  0  0  0
   11.2900   -1.8431  -51.0301 H   0  0  0  0  0  0  0  0  0  0  0  0
   11.6402   -3.4644  -53.5403 H   0  0  0  0  0  0  0  0  0  0  0  0
   11.8619   -0.7329  -54.0729 H   0  0  0  0  0  0  0  0  0  0  0  0
    8.0435   -1.3450  -54.7881 H   0  0  0  0  0  0  0  0  0  0  0  0
    8.2446   -3.5294  -55.1648 H   0  0  0  0  0  0  0  0  0  0  0  0
    9.0777   -3.9086  -53.6837 H   0  0  0  0  0  0  0  0  0  0  0  0
    6.1348   -3.6470  -54.1923 H   0  0  0  0  0  0  0  0  0  0  0  0
    6.0148   -5.3219  -52.7035 H   0  0  0  0  0  0  0  0  0  0  0  0
    7.7982   -5.2624  -52.5817 H   0  0  0  0  0  0  0  0  0  0  0  0
    8.6179   -2.1148  -51.7438 H   0  0  0  0  0  0  0  0  0  0  0  0
    8.0019   -0.5325  -52.1393 H   0  0  0  0  0  0  0  0  0  0  0  0
  1  2  2  0
  2  3  1  0
  3  4  2  0
  4  5  1  0
  5  6  2  0
  6  7  1  0
  7  8  2  0
  2  9  1  0
  9 10  2  0
 10 11  1  0
 11 12  1  0
 12 13  1  0
 12 14  2  0
 14 15  1  0
 15 16  1  0
 16 17  1  0
 17 18  1  0
 14 19  1  0
 19 20  2  0
 20 21  1  0
 21 22  1  0
 23 22  1  6
 23 24  1  0
 24 25  1  0
 25 26  1  0
 26 27  1  0
 27 28  2  0
 28 29  1  0
 29 30  2  0
 30 31  1  0
 31 32  2  0
 32 33  1  0
 33 34  1  0
 34 35  1  0
 35 36  1  0
 33 37  1  0
 32 38  1  0
 38 39  1  0
  8  3  1  0
 13  9  1  0
 18 15  1  0
 38 19  1  0
 39 11  2  0
 35 23  1  0
 37 23  1  0
 36 25  1  0
  4 40  1  0
  5 41  1  0
  6 42  1  0
  7 43  1  0
  8 44  1  0
 10 45  1  0
 13 46  1  0
 15 47  1  0
 16 48  1  0
 16 49  1  0
 17 50  1  0
 17 51  1  0
 18 52  1  0
 18 53  1  0
 20 54  1  0
 21 55  1  0
 21 56  1  0
 22 57  1  0
 22 58  1  0
 24 59  1  0
 24 60  1  0
 25 61  1  1
 26 62  1  0
 26 63  1  0
 27 64  1  0
 28 65  1  0
 29 66  1  0
 30 67  1  0
 31 68  1  0
 33 69  1  6
 34 70  1  0
 34 71  1  0
 35 72  1  6
 36 73  1  0
 36 74  1  0
 37 75  1  0
 37 76  1  0
M  CHG  1  20   1
M  END
>  <meeko>  (346) 
{"is_sidechain": false}

$$$$

     RDKit          3D

 76 83  0  0  0  0  0  0  0  0999 V2000
   10.4050    2.3260  -60.9110 O   0  0  0  0  0  0  0  0  0  0  0  0
   10.7150    2.8410  -59.8420 C   0  0  0  0  0  0  0  0  0  0  0  0
   11.6210    4.0140  -59.8140 C   0  0  0  0  0  0  0  0  0  0  0  0
   11.1040    5.2600  -60.1890 C   0  0  0  0  0  0  0  0  0  0  0  0
   11.9250    6.3880  -60.1740 C   0  0  0  0  0  0  0  0  0  0  0  0
   13.2640    6.2710  -59.7970 C   0  0  0  0  0  0  0  0  0  0  0  0
   13.7880    5.0280  -59.4460 C   0  0  0  0  0  0  0  0  0  0  0  0
   12.9710    3.8950  -59.4600 C   0  0  0  0  0  0  0  0  0  0  0  0
   10.1530    2.3340  -58.5590 C   0  0  0  0  0  0  0  0  0  0  0  0
   10.9080    1.6330  -57.6980 C   0  0  0  0  0  0  0  0  0  0  0  0
    9.9710    1.2080  -56.6280 C   0  0  0  0  0  0  0  0  0  0  0  0
    8.6360    1.7870  -56.9910 C   0  0  0  0  0  0  0  0  0  0  0  0
    8.8420    2.4610  -58.1540 N   0  0  0  0  0  0  0  0  0  0  0  0
    7.6160    1.5770  -56.1530 C   0  0  0  0  0  0  0  0  0  0  0  0
    6.2870    2.2270  -56.3250 C   0  0  0  0  0  0  0  0  0  0  0  0
    5.1980    1.5700  -57.2280 C   0  0  0  0  0  0  0  0  0  0  0  0
    4.7860    2.9960  -57.6400 C   0  0  0  0  0  0  0  0  0  0  0  0
    6.2480    3.3960  -57.3620 C   0  0  0  0  0  0  0  0  0  0  0  0
    7.8930    0.6760  -54.8750 C   0  0  0  0  0  0  0  0  0  0  0  0
    6.9030    0.4940  -53.9800 N   0  0  0  0  0  0  0  0  0  0  0  0
    5.5610   -0.1620  -54.2140 C   0  0  0  0  0  0  0  0  0  0  0  0
    5.1930   -1.2250  -53.1050 C   0  0  0  0  0  0  0  0  0  0  0  0
    6.1510   -2.4240  -52.7710 C   0  0  1  0  0  0  0  0  0  0  0  0
    5.8620   -3.2000  -51.4600 C   0  0  0  0  0  0  0  0  0  0  0  0
    6.5100   -4.5990  -51.6290 C   0  0  2  0  0  0  0  0  0  0  0  0
    8.0450   -4.8550  -51.4120 C   0  0  0  0  0  0  0  0  0  0  0  0
    8.8390   -4.3340  -50.2800 C   0  0  0  0  0  0  0  0  0  0  0  0
    9.8440   -3.4270  -50.2620 C   0  0  0  0  0  0  0  0  0  0  0  0
   10.2560   -2.4660  -51.2810 C   0  0  0  0  0  0  0  0  0  0  0  0
   10.5640   -2.6530  -52.5810 C   0  0  0  0  0  0  0  0  0  0  0  0
   10.4900   -1.5290  -53.5280 C   0  0  0  0  0  0  0  0  0  0  0  0
    9.3260   -1.1280  -54.0980 C   0  0  0  0  0  0  0  0  0  0  0  0
    8.0690   -1.9370  -54.0220 C   0  0  1  0  0  0  0  0  0  0  0  0
    7.7670   -3.3630  -54.4510 C   0  0  0  0  0  0  0  0  0  0  0  0
    6.3360   -3.5470  -53.8510 C   0  0  1  0  0  0  0  0  0  0  0  0
    6.1540   -4.8840  -53.1050 C   0  0  0  0  0  0  0  0  0  0  0  0
    7.5210   -1.8490  -52.6230 C   0  0  0  0  0  0  0  0  0  0  0  0
    9.1530    0.1020  -54.8160 N   0  0  0  0  0  0  0  0  0  0  0  0
   10.2820    0.4550  -55.6320 N   0  0  0  0  0  0  0  0  0  0  0  0
   10.0513    5.3495  -60.4952 H   0  0  0  0  0  0  0  0  0  0  0  0
   11.5174    7.3691  -60.4591 H   0  0  0  0  0  0  0  0  0  0  0  0
   13.9077    7.1627  -59.7769 H   0  0  0  0  0  0  0  0  0  0  0  0
   14.8458    4.9391  -59.1577 H   0  0  0  0  0  0  0  0  0  0  0  0
   13.3867    2.9120  -59.1937 H   0  0  0  0  0  0  0  0  0  0  0  0
   11.9848    1.4203  -57.7698 H   0  0  0  0  0  0  0  0  0  0  0  0
    8.1040    2.7090  -58.8040 H   0  0  0  0  0  0  0  0  0  0  0  0
    6.1244    2.3325  -55.2422 H   0  0  0  0  0  0  0  0  0  0  0  0
    5.5923    0.9506  -58.0471 H   0  0  0  0  0  0  0  0  0  0  0  0
    4.4707    0.8477  -56.8288 H   0  0  0  0  0  0  0  0  0  0  0  0
    4.4687    3.1014  -58.6880 H   0  0  0  0  0  0  0  0  0  0  0  0
    3.9358    3.5186  -57.1774 H   0  0  0  0  0  0  0  0  0  0  0  0
    6.9289    3.2754  -58.2175 H   0  0  0  0  0  0  0  0  0  0  0  0
    6.5286    4.4244  -57.0907 H   0  0  0  0  0  0  0  0  0  0  0  0
    7.2110    0.5520  -53.0190 H   0  0  0  0  0  0  0  0  0  0  0  0
    4.7859    0.6185  -54.2227 H   0  0  0  0  0  0  0  0  0  0  0  0
    5.6176   -0.6945  -55.1749 H   0  0  0  0  0  0  0  0  0  0  0  0
    5.0595   -0.6636  -52.1685 H   0  0  0  0  0  0  0  0  0  0  0  0
    4.3207   -1.7326  -53.5426 H   0  0  0  0  0  0  0  0  0  0  0  0
    6.3067   -2.6757  -50.6013 H   0  0  0  0  0  0  0  0  0  0  0  0
    4.7809   -3.2805  -51.2736 H   0  0  0  0  0  0  0  0  0  0  0  0
    6.1325   -5.2359  -50.8155 H   0  0  0  0  0  0  0  0  0  0  0  0
    8.1570   -5.9485  -51.3702 H   0  0  0  0  0  0  0  0  0  0  0  0
    8.4639   -4.2615  -52.2380 H   0  0  0  0  0  0  0  0  0  0  0  0
    8.5713   -4.7484  -49.2968 H   0  0  0  0  0  0  0  0  0  0  0  0
   10.4414   -3.4118  -49.3385 H   0  0  0  0  0  0  0  0  0  0  0  0
   10.3264   -1.4246  -50.9337 H   0  0  0  0  0  0  0  0  0  0  0  0
   10.8713   -3.6484  -52.9342 H   0  0  0  0  0  0  0  0  0  0  0  0
   11.4155   -0.9925  -53.7840 H   0  0  0  0  0  0  0  0  0  0  0  0
    7.6573   -1.4323  -54.9085 H   0  0  0  0  0  0  0  0  0  0  0  0
    7.7638   -3.4650  -55.5463 H   0  0  0  0  0  0  0  0  0  0  0  0
    8.5033   -4.1076  -54.1141 H   0  0  0  0  0  0  0  0  0  0  0  0
    5.6179   -3.5114  -54.6835 H   0  0  0  0  0  0  0  0  0  0  0  0
    5.1128   -5.2292  -53.1874 H   0  0  0  0  0  0  0  0  0  0  0  0
    6.7931   -5.6725  -53.5289 H   0  0  0  0  0  0  0  0  0  0  0  0
    8.1265   -2.4419  -51.9217 H   0  0  0  0  0  0  0  0  0  0  0  0
    7.5241   -0.8270  -52.2162 H   0  0  0  0  0  0  0  0  0  0  0  0
  1  2  2  0
  2  3  1  0
  3  4  2  0
  4  5  1  0
  5  6  2  0
  6  7  1  0
  7  8  2  0
  2  9  1  0
  9 10  2  0
 10 11  1  0
 11 12  1  0
 12 13  1  0
 12 14  2  0
 14 15  1  0
 15 16  1  0
 16 17  1  0
 17 18  1  0
 14 19  1  0
 19 20  2  0
 20 21  1  0
 21 22  1  0
 23 22  1  6
 23 24  1  0
 24 25  1  0
 25 26  1  0
 26 27  1  0
 27 28  2  0
 28 29  1  0
 29 30  2  0
 30 31  1  0
 31 32  2  0
 32 33  1  0
 33 34  1  0
 34 35  1  0
 35 36  1  0
 33 37  1  0
 32 38  1  0
 38 39  1  0
  8  3  1  0
 13  9  1  0
 18 15  1  0
 38 19  1  0
 39 11  2  0
 35 23  1  0
 37 23  1  0
 36 25  1  0
  4 40  1  0
  5 41  1  0
  6 42  1  0
  7 43  1  0
  8 44  1  0
 10 45  1  0
 13 46  1  0
 15 47  1  0
 16 48  1  0
 16 49  1  0
 17 50  1  0
 17 51  1  0
 18 52  1  0
 18 53  1  0
 20 54  1  0
 21 55  1  0
 21 56  1  0
 22 57  1  0
 22 58  1  0
 24 59  1  0
 24 60  1  0
 25 61  1  1
 26 62  1  0
 26 63  1  0
 27 64  1  0
 28 65  1  0
 29 66  1  0
 30 67  1  0
 31 68  1  0
 33 69  1  6
 34 70  1  0
 34 71  1  0
 35 72  1  6
 36 73  1  0
 36 74  1  0
 37 75  1  0
 37 76  1  0
M  CHG  1  20   1
M  END
>  <meeko>  (347) 
{"is_sidechain": false}

$$$$

     RDKit          3D

 76 83  0  0  0  0  0  0  0  0999 V2000
   10.2640    2.5690  -61.1360 O   0  0  0  0  0  0  0  0  0  0  0  0
   10.6060    2.8880  -60.0020 C   0  0  0  0  0  0  0  0  0  0  0  0
   11.5810    3.9840  -59.7980 C   0  0  0  0  0  0  0  0  0  0  0  0
   12.9190    3.7280  -59.4720 C   0  0  0  0  0  0  0  0  0  0  0  0
   13.8040    4.7920  -59.2880 C   0  0  0  0  0  0  0  0  0  0  0  0
   13.3530    6.1060  -59.4170 C   0  0  0  0  0  0  0  0  0  0  0  0
   12.0160    6.3630  -59.7200 C   0  0  0  0  0  0  0  0  0  0  0  0
   11.1270    5.3030  -59.9030 C   0  0  0  0  0  0  0  0  0  0  0  0
   10.0890    2.1530  -58.8130 C   0  0  0  0  0  0  0  0  0  0  0  0
   10.8990    1.3900  -58.0630 C   0  0  0  0  0  0  0  0  0  0  0  0
   10.0470    0.9090  -56.9490 C   0  0  0  0  0  0  0  0  0  0  0  0
    8.7030    1.5600  -57.1400 C   0  0  0  0  0  0  0  0  0  0  0  0
    8.8000    2.2250  -58.3240 N   0  0  0  0  0  0  0  0  0  0  0  0
    7.8130    1.4430  -56.1450 C   0  0  0  0  0  0  0  0  0  0  0  0
    6.5460    2.2240  -56.1180 C   0  0  0  0  0  0  0  0  0  0  0  0
    6.4110    3.3340  -57.2140 C   0  0  0  0  0  0  0  0  0  0  0  0
    4.8950    3.0680  -57.1890 C   0  0  0  0  0  0  0  0  0  0  0  0
    5.2520    1.6330  -56.7620 C   0  0  0  0  0  0  0  0  0  0  0  0
    8.1990    0.4740  -54.9500 C   0  0  0  0  0  0  0  0  0  0  0  0
    7.4310    0.3310  -53.8730 N   0  0  0  0  0  0  0  0  0  0  0  0
    5.9870    0.1240  -53.5750 C   0  0  0  0  0  0  0  0  0  0  0  0
    5.5880   -1.3740  -53.2920 C   0  0  0  0  0  0  0  0  0  0  0  0
    6.5760   -2.4070  -52.6420 C   0  0  1  0  0  0  0  0  0  0  0  0
    6.4810   -2.6400  -51.1330 C   0  0  0  0  0  0  0  0  0  0  0  0
    7.2980   -3.9310  -50.8430 C   0  0  2  0  0  0  0  0  0  0  0  0
    8.7600   -3.7520  -50.2370 C   0  0  0  0  0  0  0  0  0  0  0  0
    9.9880   -3.4530  -51.1140 C   0  0  0  0  0  0  0  0  0  0  0  0
   10.6130   -2.2570  -51.1860 C   0  0  0  0  0  0  0  0  0  0  0  0
   11.6390   -1.8250  -52.1450 C   0  0  0  0  0  0  0  0  0  0  0  0
   11.5970   -1.7790  -53.4990 C   0  0  0  0  0  0  0  0  0  0  0  0
   10.5100   -2.3090  -54.2990 C   0  0  0  0  0  0  0  0  0  0  0  0
    9.4200   -1.6130  -54.6970 C   0  0  0  0  0  0  0  0  0  0  0  0
    8.0770   -2.2550  -54.4720 C   0  0  1  0  0  0  0  0  0  0  0  0
    7.6070   -3.7260  -54.5020 C   0  0  0  0  0  0  0  0  0  0  0  0
    6.6120   -3.8310  -53.2770 C   0  0  1  0  0  0  0  0  0  0  0  0
    7.1650   -4.7600  -52.1470 C   0  0  0  0  0  0  0  0  0  0  0  0
    7.9630   -2.0310  -52.9780 C   0  0  0  0  0  0  0  0  0  0  0  0
    9.3690   -0.2400  -55.1180 N   0  0  0  0  0  0  0  0  0  0  0  0
   10.4250    0.0920  -56.0310 N   0  0  0  0  0  0  0  0  0  0  0  0
   13.2714    2.6919  -59.3613 H   0  0  0  0  0  0  0  0  0  0  0  0
   14.8575    4.5942  -59.0412 H   0  0  0  0  0  0  0  0  0  0  0  0
   14.0543    6.9422  -59.2793 H   0  0  0  0  0  0  0  0  0  0  0  0
   11.6626    7.4004  -59.8146 H   0  0  0  0  0  0  0  0  0  0  0  0
   10.0697    5.5046  -60.1297 H   0  0  0  0  0  0  0  0  0  0  0  0
   11.9626    1.1696  -58.2367 H   0  0  0  0  0  0  0  0  0  0  0  0
    8.1710    2.9580  -58.6240 H   0  0  0  0  0  0  0  0  0  0  0  0
    6.6070    2.4099  -55.0355 H   0  0  0  0  0  0  0  0  0  0  0  0
    6.7066    4.3418  -56.8868 H   0  0  0  0  0  0  0  0  0  0  0  0
    6.9913    3.3023  -58.1479 H   0  0  0  0  0  0  0  0  0  0  0  0
    4.3355    3.6481  -56.4404 H   0  0  0  0  0  0  0  0  0  0  0  0
    4.2464    3.2807  -58.0516 H   0  0  0  0  0  0  0  0  0  0  0  0
    4.5499    1.1782  -56.0477 H   0  0  0  0  0  0  0  0  0  0  0  0
    5.2903    0.8053  -57.4855 H   0  0  0  0  0  0  0  0  0  0  0  0
    8.0010    0.3850  -53.0370 H   0  0  0  0  0  0  0  0  0  0  0  0
    5.7298    0.7218  -52.6882 H   0  0  0  0  0  0  0  0  0  0  0  0
    5.4340    0.4311  -54.4749 H   0  0  0  0  0  0  0  0  0  0  0  0
    4.7096   -1.3354  -52.6310 H   0  0  0  0  0  0  0  0  0  0  0  0
    5.4857   -1.7741  -54.3115 H   0  0  0  0  0  0  0  0  0  0  0  0
    6.9096   -1.7865  -50.5873 H   0  0  0  0  0  0  0  0  0  0  0  0
    5.4354   -2.7449  -50.8079 H   0  0  0  0  0  0  0  0  0  0  0  0
    6.8884   -4.4757  -49.9796 H   0  0  0  0  0  0  0  0  0  0  0  0
    8.6920   -2.9252  -49.5147 H   0  0  0  0  0  0  0  0  0  0  0  0
    8.9812   -4.7682  -49.8787 H   0  0  0  0  0  0  0  0  0  0  0  0
   10.3870   -4.2737  -51.7281 H   0  0  0  0  0  0  0  0  0  0  0  0
   10.3163   -1.5133  -50.4318 H   0  0  0  0  0  0  0  0  0  0  0  0
   12.5848   -1.4877  -51.6959 H   0  0  0  0  0  0  0  0  0  0  0  0
   12.4416   -1.3095  -54.0246 H   0  0  0  0  0  0  0  0  0  0  0  0
   10.5769   -3.3627  -54.6075 H   0  0  0  0  0  0  0  0  0  0  0  0
    7.5329   -1.8536  -55.3396 H   0  0  0  0  0  0  0  0  0  0  0  0
    7.0907   -3.9530  -55.4464 H   0  0  0  0  0  0  0  0  0  0  0  0
    8.4411   -4.4399  -54.4341 H   0  0  0  0  0  0  0  0  0  0  0  0
    5.6466   -4.2187  -53.6344 H   0  0  0  0  0  0  0  0  0  0  0  0
    6.4712   -5.5979  -51.9839 H   0  0  0  0  0  0  0  0  0  0  0  0
    8.1471   -5.1609  -52.4383 H   0  0  0  0  0  0  0  0  0  0  0  0
    8.6784   -2.6667  -52.4357 H   0  0  0  0  0  0  0  0  0  0  0  0
    8.1899   -0.9921  -52.6967 H   0  0  0  0  0  0  0  0  0  0  0  0
  1  2  2  0
  2  3  1  0
  3  4  2  0
  4  5  1  0
  5  6  2  0
  6  7  1  0
  7  8  2  0
  2  9  1  0
  9 10  2  0
 10 11  1  0
 11 12  1  0
 12 13  1  0
 12 14  2  0
 14 15  1  0
 15 16  1  0
 16 17  1  0
 17 18  1  0
 14 19  1  0
 19 20  2  0
 20 21  1  0
 21 22  1  0
 23 22  1  6
 23 24  1  0
 24 25  1  0
 25 26  1  0
 26 27  1  0
 27 28  2  0
 28 29  1  0
 29 30  2  0
 30 31  1  0
 31 32  2  0
 32 33  1  0
 33 34  1  0
 34 35  1  0
 35 36  1  0
 33 37  1  0
 32 38  1  0
 38 39  1  0
  8  3  1  0
 13  9  1  0
 18 15  1  0
 38 19  1  0
 39 11  2  0
 35 23  1  0
 37 23  1  0
 36 25  1  0
  4 40  1  0
  5 41  1  0
  6 42  1  0
  7 43  1  0
  8 44  1  0
 10 45  1  0
 13 46  1  0
 15 47  1  0
 16 48  1  0
 16 49  1  0
 17 50  1  0
 17 51  1  0
 18 52  1  0
 18 53  1  0
 20 54  1  0
 21 55  1  0
 21 56  1  0
 22 57  1  0
 22 58  1  0
 24 59  1  0
 24 60  1  0
 25 61  1  1
 26 62  1  0
 26 63  1  0
 27 64  1  0
 28 65  1  0
 29 66  1  0
 30 67  1  0
 31 68  1  0
 33 69  1  6
 34 70  1  0
 34 71  1  0
 35 72  1  6
 36 73  1  0
 36 74  1  0
 37 75  1  0
 37 76  1  0
M  CHG  1  20   1
M  END
>  <meeko>  (348) 
{"is_sidechain": false}

$$$$

     RDKit          3D

 76 83  0  0  0  0  0  0  0  0999 V2000
    2.8130    4.0720  -59.2610 O   0  0  0  0  0  0  0  0  0  0  0  0
    3.5450    3.1710  -59.6560 C   0  0  0  0  0  0  0  0  0  0  0  0
    3.2170    2.4350  -60.9000 C   0  0  0  0  0  0  0  0  0  0  0  0
    2.8410    3.1030  -62.0730 C   0  0  0  0  0  0  0  0  0  0  0  0
    2.5390    2.3700  -63.2220 C   0  0  0  0  0  0  0  0  0  0  0  0
    2.5980    0.9760  -63.1970 C   0  0  0  0  0  0  0  0  0  0  0  0
    2.9480    0.3090  -62.0220 C   0  0  0  0  0  0  0  0  0  0  0  0
    3.2500    1.0370  -60.8710 C   0  0  0  0  0  0  0  0  0  0  0  0
    4.7490    2.7650  -58.8780 C   0  0  0  0  0  0  0  0  0  0  0  0
    4.6460    2.3190  -57.6160 C   0  0  0  0  0  0  0  0  0  0  0  0
    6.0230    1.9090  -57.2440 C   0  0  0  0  0  0  0  0  0  0  0  0
    6.8760    2.2010  -58.4230 C   0  0  0  0  0  0  0  0  0  0  0  0
    6.0410    2.7270  -59.3580 N   0  0  0  0  0  0  0  0  0  0  0  0
    8.1560    1.8360  -58.3470 C   0  0  0  0  0  0  0  0  0  0  0  0
    9.0290    1.8760  -59.5610 C   0  0  0  0  0  0  0  0  0  0  0  0
    8.2860    1.7500  -60.9340 C   0  0  0  0  0  0  0  0  0  0  0  0
    9.3520    2.6920  -61.5200 C   0  0  0  0  0  0  0  0  0  0  0  0
    9.5050    3.2620  -60.0990 C   0  0  0  0  0  0  0  0  0  0  0  0
    8.7660    1.3790  -56.8820 C   0  0  0  0  0  0  0  0  0  0  0  0
   10.1290    1.4420  -56.9130 N   0  0  0  0  0  0  0  0  0  0  0  0
   11.3790    1.2590  -56.0800 C   0  0  0  0  0  0  0  0  0  0  0  0
   11.9540   -0.1970  -56.0280 C   0  0  0  0  0  0  0  0  0  0  0  0
   11.1980   -1.2790  -55.2130 C   0  0  1  0  0  0  0  0  0  0  0  0
   11.6150   -2.7190  -55.5580 C   0  0  0  0  0  0  0  0  0  0  0  0
   11.1450   -3.5830  -54.3660 C   0  0  2  0  0  0  0  0  0  0  0  0
    9.6980   -4.1720  -54.5210 C   0  0  0  0  0  0  0  0  0  0  0  0
    8.6730   -3.9110  -53.4240 C   0  0  0  0  0  0  0  0  0  0  0  0
    7.4280   -3.3980  -53.4710 C   0  0  0  0  0  0  0  0  0  0  0  0
    6.6610   -2.8700  -54.5890 C   0  0  0  0  0  0  0  0  0  0  0  0
    6.4140   -1.5690  -54.8590 C   0  0  0  0  0  0  0  0  0  0  0  0
    7.0190   -0.4430  -54.1310 C   0  0  0  0  0  0  0  0  0  0  0  0
    7.9600    0.2880  -54.7760 C   0  0  0  0  0  0  0  0  0  0  0  0
    9.3600   -0.0050  -54.4430 C   0  0  1  0  0  0  0  0  0  0  0  0
    9.9430   -0.6000  -53.1690 C   0  0  0  0  0  0  0  0  0  0  0  0
   11.2760   -1.2070  -53.6610 C   0  0  1  0  0  0  0  0  0  0  0  0
   11.4540   -2.6590  -53.1760 C   0  0  0  0  0  0  0  0  0  0  0  0
    9.7450   -1.0600  -55.4820 C   0  0  0  0  0  0  0  0  0  0  0  0
    7.7530    1.0030  -55.9950 N   0  0  0  0  0  0  0  0  0  0  0  0
    6.3460    1.3440  -56.1420 N   0  0  0  0  0  0  0  0  0  0  0  0
    2.7840    4.2014  -62.0884 H   0  0  0  0  0  0  0  0  0  0  0  0
    2.2543    2.8916  -64.1477 H   0  0  0  0  0  0  0  0  0  0  0  0
    2.3680    0.4011  -64.1061 H   0  0  0  0  0  0  0  0  0  0  0  0
    2.9857   -0.7902  -62.0036 H   0  0  0  0  0  0  0  0  0  0  0  0
    3.5139    0.5119  -59.9411 H   0  0  0  0  0  0  0  0  0  0  0  0
    3.7400    2.2685  -56.9942 H   0  0  0  0  0  0  0  0  0  0  0  0
    6.2460    2.8020  -60.3460 H   0  0  0  0  0  0  0  0  0  0  0  0
    9.7435    1.1354  -59.1723 H   0  0  0  0  0  0  0  0  0  0  0  0
    8.2831    0.7371  -61.3629 H   0  0  0  0  0  0  0  0  0  0  0  0
    7.2108    1.9606  -61.0317 H   0  0  0  0  0  0  0  0  0  0  0  0
   10.2469    2.1880  -61.9139 H   0  0  0  0  0  0  0  0  0  0  0  0
    9.1498    3.3350  -62.3893 H   0  0  0  0  0  0  0  0  0  0  0  0
   10.5348    3.5319  -59.8220 H   0  0  0  0  0  0  0  0  0  0  0  0
    9.0134    4.1984  -59.7966 H   0  0  0  0  0  0  0  0  0  0  0  0
   10.4800    1.8290  -57.7790 H   0  0  0  0  0  0  0  0  0  0  0  0
   12.1591    1.9158  -56.4925 H   0  0  0  0  0  0  0  0  0  0  0  0
   11.0895    1.5038  -55.0474 H   0  0  0  0  0  0  0  0  0  0  0  0
   12.0113   -0.5575  -57.0657 H   0  0  0  0  0  0  0  0  0  0  0  0
   12.9077   -0.0834  -55.4917 H   0  0  0  0  0  0  0  0  0  0  0  0
   11.1269   -3.0482  -56.4872 H   0  0  0  0  0  0  0  0  0  0  0  0
   12.7001   -2.8018  -55.7186 H   0  0  0  0  0  0  0  0  0  0  0  0
   11.6578   -4.5489  -54.2475 H   0  0  0  0  0  0  0  0  0  0  0  0
    9.2823   -3.7644  -55.4543 H   0  0  0  0  0  0  0  0  0  0  0  0
    9.8510   -5.2607  -54.4856 H   0  0  0  0  0  0  0  0  0  0  0  0
    9.0091   -4.1911  -52.4148 H   0  0  0  0  0  0  0  0  0  0  0  0
    6.9047   -3.3745  -52.5038 H   0  0  0  0  0  0  0  0  0  0  0  0
    6.2379   -3.6069  -55.2876 H   0  0  0  0  0  0  0  0  0  0  0  0
    5.7152   -1.3370  -55.6762 H   0  0  0  0  0  0  0  0  0  0  0  0
    6.7184   -0.2032  -53.1004 H   0  0  0  0  0  0  0  0  0  0  0  0
    9.7332    1.0266  -54.3623 H   0  0  0  0  0  0  0  0  0  0  0  0
   10.1166    0.1776  -52.4106 H   0  0  0  0  0  0  0  0  0  0  0  0
    9.2805   -1.3326  -52.6848 H   0  0  0  0  0  0  0  0  0  0  0  0
   12.1035   -0.5889  -53.2827 H   0  0  0  0  0  0  0  0  0  0  0  0
   12.4879   -2.8175  -52.8356 H   0  0  0  0  0  0  0  0  0  0  0  0
   10.7797   -2.8723  -52.3335 H   0  0  0  0  0  0  0  0  0  0  0  0
    9.1714   -1.9871  -55.3358 H   0  0  0  0  0  0  0  0  0  0  0  0
    9.5370   -0.7474  -56.5159 H   0  0  0  0  0  0  0  0  0  0  0  0
  1  2  2  0
  2  3  1  0
  3  4  2  0
  4  5  1  0
  5  6  2  0
  6  7  1  0
  7  8  2  0
  2  9  1  0
  9 10  2  0
 10 11  1  0
 11 12  1  0
 12 13  1  0
 12 14  2  0
 14 15  1  0
 15 16  1  0
 16 17  1  0
 17 18  1  0
 14 19  1  0
 19 20  2  0
 20 21  1  0
 21 22  1  0
 23 22  1  6
 23 24  1  0
 24 25  1  0
 25 26  1  0
 26 27  1  0
 27 28  2  0
 28 29  1  0
 29 30  2  0
 30 31  1  0
 31 32  2  0
 32 33  1  0
 33 34  1  0
 34 35  1  0
 35 36  1  0
 33 37  1  0
 32 38  1  0
 38 39  1  0
  8  3  1  0
 13  9  1  0
 18 15  1  0
 38 19  1  0
 39 11  2  0
 35 23  1  0
 37 23  1  0
 36 25  1  0
  4 40  1  0
  5 41  1  0
  6 42  1  0
  7 43  1  0
  8 44  1  0
 10 45  1  0
 13 46  1  0
 15 47  1  0
 16 48  1  0
 16 49  1  0
 17 50  1  0
 17 51  1  0
 18 52  1  0
 18 53  1  0
 20 54  1  0
 21 55  1  0
 21 56  1  0
 22 57  1  0
 22 58  1  0
 24 59  1  0
 24 60  1  0
 25 61  1  1
 26 62  1  0
 26 63  1  0
 27 64  1  0
 28 65  1  0
 29 66  1  0
 30 67  1  0
 31 68  1  0
 33 69  1  6
 34 70  1  0
 34 71  1  0
 35 72  1  6
 36 73  1  0
 36 74  1  0
 37 75  1  0
 37 76  1  0
M  CHG  1  20   1
M  END
>  <meeko>  (349) 
{"is_sidechain": false}

$$$$

     RDKit          3D

 76 83  0  0  0  0  0  0  0  0999 V2000
   11.1610   -1.8490  -53.4770 O   0  0  0  0  0  0  0  0  0  0  0  0
    9.9610   -1.6030  -53.5460 C   0  0  0  0  0  0  0  0  0  0  0  0
    9.0310   -2.4060  -52.7130 C   0  0  0  0  0  0  0  0  0  0  0  0
    7.8250   -2.8910  -53.2360 C   0  0  0  0  0  0  0  0  0  0  0  0
    6.9690   -3.6370  -52.4250 C   0  0  0  0  0  0  0  0  0  0  0  0
    7.3190   -3.9070  -51.1020 C   0  0  0  0  0  0  0  0  0  0  0  0
    8.5320   -3.4440  -50.5880 C   0  0  0  0  0  0  0  0  0  0  0  0
    9.3930   -2.6990  -51.3940 C   0  0  0  0  0  0  0  0  0  0  0  0
    9.4310   -0.5440  -54.3900 C   0  0  0  0  0  0  0  0  0  0  0  0
    8.1530    0.0040  -54.3410 C   0  0  0  0  0  0  0  0  0  0  0  0
    8.0730    0.9620  -55.3600 C   0  0  0  0  0  0  0  0  0  0  0  0
    9.2760    1.0070  -56.0110 C   0  0  0  0  0  0  0  0  0  0  0  0
   10.0910    0.0670  -55.4450 N   0  0  0  0  0  0  0  0  0  0  0  0
    9.5930    1.8610  -57.1050 C   0  0  0  0  0  0  0  0  0  0  0  0
   10.8590    2.2530  -57.3660 C   0  0  0  0  0  0  0  0  0  0  0  0
   12.2160    1.9310  -56.7390 C   0  0  0  0  0  0  0  0  0  0  0  0
   12.6110    3.3260  -57.2570 C   0  0  0  0  0  0  0  0  0  0  0  0
   11.4900    3.2650  -58.3100 C   0  0  0  0  0  0  0  0  0  0  0  0
    8.2720    2.5280  -57.8380 C   0  0  0  0  0  0  0  0  0  0  0  0
    8.4190    3.1470  -59.0240 N   0  0  0  0  0  0  0  0  0  0  0  0
    8.9810    2.5360  -60.2760 C   0  0  0  0  0  0  0  0  0  0  0  0
    8.0740    2.7340  -61.5700 C   0  0  0  0  0  0  0  0  0  0  0  0
    6.5380    2.3760  -61.6090 C   0  0  1  0  0  0  0  0  0  0  0  0
    5.7930    2.9540  -62.8370 C   0  0  0  0  0  0  0  0  0  0  0  0
    4.5930    2.0250  -63.1520 C   0  0  2  0  0  0  0  0  0  0  0  0
    3.1520    2.4540  -62.6900 C   0  0  0  0  0  0  0  0  0  0  0  0
    2.7820    2.2860  -61.2390 C   0  0  0  0  0  0  0  0  0  0  0  0
    2.5540    3.3140  -60.3960 C   0  0  0  0  0  0  0  0  0  0  0  0
    2.9920    3.3060  -58.9910 C   0  0  0  0  0  0  0  0  0  0  0  0
    3.4030    2.2260  -58.2980 C   0  0  0  0  0  0  0  0  0  0  0  0
    4.6000    2.3040  -57.4540 C   0  0  0  0  0  0  0  0  0  0  0  0
    5.8470    2.1530  -57.9640 C   0  0  0  0  0  0  0  0  0  0  0  0
    6.0990    1.7480  -59.3910 C   0  0  1  0  0  0  0  0  0  0  0  0
    5.5860    0.5510  -60.1740 C   0  0  0  0  0  0  0  0  0  0  0  0
    6.1400    0.8620  -61.5920 C   0  0  1  0  0  0  0  0  0  0  0  0
    5.0840    0.6460  -62.6910 C   0  0  0  0  0  0  0  0  0  0  0  0
    5.9310    2.9170  -60.3430 C   0  0  0  0  0  0  0  0  0  0  0  0
    7.0530    2.2870  -57.2060 N   0  0  0  0  0  0  0  0  0  0  0  0
    7.0310    1.7330  -55.7420 N   0  0  0  0  0  0  0  0  0  0  0  0
    7.5541   -2.6845  -54.2819 H   0  0  0  0  0  0  0  0  0  0  0  0
    6.0174   -4.0125  -52.8293 H   0  0  0  0  0  0  0  0  0  0  0  0
    6.6375   -4.4863  -50.4617 H   0  0  0  0  0  0  0  0  0  0  0  0
    8.8087   -3.6669  -49.5470 H   0  0  0  0  0  0  0  0  0  0  0  0
   10.3537   -2.3430  -50.9935 H   0  0  0  0  0  0  0  0  0  0  0  0
    7.3544   -0.2649  -53.6340 H   0  0  0  0  0  0  0  0  0  0  0  0
   11.0240   -0.1760  -55.7550 H   0  0  0  0  0  0  0  0  0  0  0  0
   12.2145    1.8176  -55.6449 H   0  0  0  0  0  0  0  0  0  0  0  0
   12.7860    1.0172  -56.9628 H   0  0  0  0  0  0  0  0  0  0  0  0
   12.4862    4.1300  -56.5167 H   0  0  0  0  0  0  0  0  0  0  0  0
   13.6476    3.5287  -57.5640 H   0  0  0  0  0  0  0  0  0  0  0  0
   10.9226    4.1973  -58.4473 H   0  0  0  0  0  0  0  0  0  0  0  0
   11.6728    3.0646  -59.3760 H   0  0  0  0  0  0  0  0  0  0  0  0
    7.8610    3.9830  -59.1150 H   0  0  0  0  0  0  0  0  0  0  0  0
    9.9626    2.9927  -60.4709 H   0  0  0  0  0  0  0  0  0  0  0  0
    9.0398    1.4522  -60.0970 H   0  0  0  0  0  0  0  0  0  0  0  0
    8.1424    3.8014  -61.8269 H   0  0  0  0  0  0  0  0  0  0  0  0
    8.4925    1.9761  -62.2485 H   0  0  0  0  0  0  0  0  0  0  0  0
    5.4306    3.9676  -62.6104 H   0  0  0  0  0  0  0  0  0  0  0  0
    6.4698    3.0097  -63.7024 H   0  0  0  0  0  0  0  0  0  0  0  0
    4.3534    2.0606  -64.2250 H   0  0  0  0  0  0  0  0  0  0  0  0
    3.0374    3.5207  -62.9329 H   0  0  0  0  0  0  0  0  0  0  0  0
    2.4820    1.7614  -63.2205 H   0  0  0  0  0  0  0  0  0  0  0  0
    2.6924    1.2635  -60.8434 H   0  0  0  0  0  0  0  0  0  0  0  0
    2.0176    4.1964  -60.7750 H   0  0  0  0  0  0  0  0  0  0  0  0
    2.9830    4.2685  -58.4586 H   0  0  0  0  0  0  0  0  0  0  0  0
    2.8395    1.2837  -58.3654 H   0  0  0  0  0  0  0  0  0  0  0  0
    4.4825    2.4904  -56.3763 H   0  0  0  0  0  0  0  0  0  0  0  0
    7.0762    1.3480  -59.0825 H   0  0  0  0  0  0  0  0  0  0  0  0
    5.9915   -0.3927  -59.7803 H   0  0  0  0  0  0  0  0  0  0  0  0
    4.4949    0.4176  -60.1336 H   0  0  0  0  0  0  0  0  0  0  0  0
    6.9865    0.1891  -61.7937 H   0  0  0  0  0  0  0  0  0  0  0  0
    5.5318    0.1063  -63.5385 H   0  0  0  0  0  0  0  0  0  0  0  0
    4.2443    0.0505  -62.3034 H   0  0  0  0  0  0  0  0  0  0  0  0
    4.8695    3.1688  -60.4840 H   0  0  0  0  0  0  0  0  0  0  0  0
    6.3970    3.8486  -59.9895 H   0  0  0  0  0  0  0  0  0  0  0  0
    6.1020    1.4910  -55.3990 H   0  0  0  0  0  0  0  0  0  0  0  0
  1  2  2  0
  2  3  1  0
  3  4  2  0
  4  5  1  0
  5  6  2  0
  6  7  1  0
  7  8  2  0
  2  9  1  0
  9 10  2  0
 10 11  1  0
 11 12  2  0
 12 13  1  0
 12 14  1  0
 14 15  2  0
 15 16  1  0
 16 17  1  0
 17 18  1  0
 14 19  1  0
 19 20  2  0
 20 21  1  0
 21 22  1  0
 23 22  1  6
 23 24  1  0
 24 25  1  0
 25 26  1  0
 26 27  1  0
 27 28  2  0
 28 29  1  0
 29 30  2  0
 30 31  1  0
 31 32  2  0
 32 33  1  0
 33 34  1  0
 34 35  1  0
 35 36  1  0
 33 37  1  0
 32 38  1  0
 38 39  1  0
  8  3  1  0
 13  9  1  0
 18 15  1  0
 38 19  1  0
 39 11  1  0
 35 23  1  0
 37 23  1  0
 36 25  1  0
  4 40  1  0
  5 41  1  0
  6 42  1  0
  7 43  1  0
  8 44  1  0
 10 45  1  0
 13 46  1  0
 16 47  1  0
 16 48  1  0
 17 49  1  0
 17 50  1  0
 18 51  1  0
 18 52  1  0
 20 53  1  0
 21 54  1  0
 21 55  1  0
 22 56  1  0
 22 57  1  0
 24 58  1  0
 24 59  1  0
 25 60  1  6
 26 61  1  0
 26 62  1  0
 27 63  1  0
 28 64  1  0
 29 65  1  0
 30 66  1  0
 31 67  1  0
 33 68  1  1
 34 69  1  0
 34 70  1  0
 35 71  1  6
 36 72  1  0
 36 73  1  0
 37 74  1  0
 37 75  1  0
 39 76  1  0
M  CHG  1  20   1
M  END
>  <meeko>  (350) 
{"is_sidechain": false}

$$$$

     RDKit          3D

 76 83  0  0  0  0  0  0  0  0999 V2000
   11.1630   -2.5930  -53.7450 O   0  0  0  0  0  0  0  0  0  0  0  0
   10.0070   -2.2010  -53.6210 C   0  0  0  0  0  0  0  0  0  0  0  0
    9.1410   -2.8760  -52.6220 C   0  0  0  0  0  0  0  0  0  0  0  0
    8.1210   -3.7190  -53.0760 C   0  0  0  0  0  0  0  0  0  0  0  0
    7.2990   -4.3720  -52.1560 C   0  0  0  0  0  0  0  0  0  0  0  0
    7.4890   -4.1750  -50.7880 C   0  0  0  0  0  0  0  0  0  0  0  0
    8.4890   -3.3160  -50.3340 C   0  0  0  0  0  0  0  0  0  0  0  0
    9.3150   -2.6600  -51.2480 C   0  0  0  0  0  0  0  0  0  0  0  0
    9.4730   -1.0920  -54.3960 C   0  0  0  0  0  0  0  0  0  0  0  0
    8.1800   -0.5820  -54.3460 C   0  0  0  0  0  0  0  0  0  0  0  0
    8.1060    0.4500  -55.2900 C   0  0  0  0  0  0  0  0  0  0  0  0
    9.3290    0.5790  -55.8950 C   0  0  0  0  0  0  0  0  0  0  0  0
   10.1510   -0.3840  -55.3770 N   0  0  0  0  0  0  0  0  0  0  0  0
    9.6580    1.5230  -56.9090 C   0  0  0  0  0  0  0  0  0  0  0  0
   10.9240    1.9520  -57.1090 C   0  0  0  0  0  0  0  0  0  0  0  0
   12.2720    1.5990  -56.4810 C   0  0  0  0  0  0  0  0  0  0  0  0
   12.6600    3.0330  -56.8850 C   0  0  0  0  0  0  0  0  0  0  0  0
   11.5580    3.0430  -57.9590 C   0  0  0  0  0  0  0  0  0  0  0  0
    8.3450    2.2240  -57.6190 C   0  0  0  0  0  0  0  0  0  0  0  0
    8.4960    2.9500  -58.7450 N   0  0  0  0  0  0  0  0  0  0  0  0
    9.1160    2.4910  -60.0380 C   0  0  0  0  0  0  0  0  0  0  0  0
    8.2250    2.7970  -61.3160 C   0  0  0  0  0  0  0  0  0  0  0  0
    6.7230    2.3480  -61.4140 C   0  0  1  0  0  0  0  0  0  0  0  0
    5.8730    3.0170  -62.5230 C   0  0  0  0  0  0  0  0  0  0  0  0
    4.6820    2.0610  -62.7980 C   0  0  2  0  0  0  0  0  0  0  0  0
    3.4070    2.0150  -61.8840 C   0  0  0  0  0  0  0  0  0  0  0  0
    2.7060    3.2150  -61.3990 C   0  0  0  0  0  0  0  0  0  0  0  0
    2.5630    3.6890  -60.1390 C   0  0  0  0  0  0  0  0  0  0  0  0
    3.3030    3.3630  -58.9230 C   0  0  0  0  0  0  0  0  0  0  0  0
    3.5490    2.1670  -58.3520 C   0  0  0  0  0  0  0  0  0  0  0  0
    4.6840    2.0090  -57.4280 C   0  0  0  0  0  0  0  0  0  0  0  0
    5.9500    1.7940  -57.8620 C   0  0  0  0  0  0  0  0  0  0  0  0
    6.2830    1.4730  -59.2880 C   0  0  1  0  0  0  0  0  0  0  0  0
    5.8290    0.3400  -60.1930 C   0  0  0  0  0  0  0  0  0  0  0  0
    6.4130    0.8160  -61.5620 C   0  0  1  0  0  0  0  0  0  0  0  0
    5.4080    0.7000  -62.7250 C   0  0  0  0  0  0  0  0  0  0  0  0
    6.0820    2.7130  -60.1170 C   0  0  0  0  0  0  0  0  0  0  0  0
    7.1140    1.8960  -57.0460 N   0  0  0  0  0  0  0  0  0  0  0  0
    7.0550    1.2220  -55.6460 N   0  0  0  0  0  0  0  0  0  0  0  0
    7.9672   -3.8669  -54.1551 H   0  0  0  0  0  0  0  0  0  0  0  0
    6.5014   -5.0419  -52.5096 H   0  0  0  0  0  0  0  0  0  0  0  0
    6.8473   -4.6995  -50.0647 H   0  0  0  0  0  0  0  0  0  0  0  0
    8.6271   -3.1552  -49.2546 H   0  0  0  0  0  0  0  0  0  0  0  0
   10.0994   -1.9762  -50.8915 H   0  0  0  0  0  0  0  0  0  0  0  0
    7.3677   -0.9249  -53.6883 H   0  0  0  0  0  0  0  0  0  0  0  0
   11.0980   -0.5810  -55.6740 H   0  0  0  0  0  0  0  0  0  0  0  0
   12.2509    1.4038  -55.3987 H   0  0  0  0  0  0  0  0  0  0  0  0
   12.8574    0.7108  -56.7611 H   0  0  0  0  0  0  0  0  0  0  0  0
   12.5143    3.7770  -56.0880 H   0  0  0  0  0  0  0  0  0  0  0  0
   13.6994    3.2678  -57.1580 H   0  0  0  0  0  0  0  0  0  0  0  0
   10.9812    3.9768  -58.0322 H   0  0  0  0  0  0  0  0  0  0  0  0
   11.7612    2.9298  -59.0341 H   0  0  0  0  0  0  0  0  0  0  0  0
    7.9040    3.7670  -58.7810 H   0  0  0  0  0  0  0  0  0  0  0  0
   10.0837    2.9998  -60.1592 H   0  0  0  0  0  0  0  0  0  0  0  0
    9.2222    1.3980  -59.9739 H   0  0  0  0  0  0  0  0  0  0  0  0
    8.2275    3.8902  -61.4377 H   0  0  0  0  0  0  0  0  0  0  0  0
    8.7024    2.1707  -62.0840 H   0  0  0  0  0  0  0  0  0  0  0  0
    5.5045    3.9956  -62.1818 H   0  0  0  0  0  0  0  0  0  0  0  0
    6.4669    3.1867  -63.4332 H   0  0  0  0  0  0  0  0  0  0  0  0
    4.1940    2.3991  -63.7240 H   0  0  0  0  0  0  0  0  0  0  0  0
    2.6577    1.4361  -62.4439 H   0  0  0  0  0  0  0  0  0  0  0  0
    3.8311    1.6238  -60.9475 H   0  0  0  0  0  0  0  0  0  0  0  0
    2.2239    3.8200  -62.1810 H   0  0  0  0  0  0  0  0  0  0  0  0
    1.7655    4.4357  -60.0113 H   0  0  0  0  0  0  0  0  0  0  0  0
    3.7253    4.2278  -58.3902 H   0  0  0  0  0  0  0  0  0  0  0  0
    2.9004    1.3075  -58.5769 H   0  0  0  0  0  0  0  0  0  0  0  0
    4.4979    2.0676  -56.3454 H   0  0  0  0  0  0  0  0  0  0  0  0
    7.2521    1.0401  -58.9990 H   0  0  0  0  0  0  0  0  0  0  0  0
    6.2574   -0.6243  -59.8822 H   0  0  0  0  0  0  0  0  0  0  0  0
    4.7434    0.1625  -60.1951 H   0  0  0  0  0  0  0  0  0  0  0  0
    7.2866    0.1875  -61.7897 H   0  0  0  0  0  0  0  0  0  0  0  0
    5.9367    0.4978  -63.6682 H   0  0  0  0  0  0  0  0  0  0  0  0
    4.6997   -0.1262  -62.5644 H   0  0  0  0  0  0  0  0  0  0  0  0
    5.0123    2.9315  -60.2509 H   0  0  0  0  0  0  0  0  0  0  0  0
    6.5079    3.6180  -59.6591 H   0  0  0  0  0  0  0  0  0  0  0  0
    6.1200    0.9290  -55.3600 H   0  0  0  0  0  0  0  0  0  0  0  0
  1  2  2  0
  2  3  1  0
  3  4  2  0
  4  5  1  0
  5  6  2  0
  6  7  1  0
  7  8  2  0
  2  9  1  0
  9 10  2  0
 10 11  1  0
 11 12  2  0
 12 13  1  0
 12 14  1  0
 14 15  2  0
 15 16  1  0
 16 17  1  0
 17 18  1  0
 14 19  1  0
 19 20  2  0
 20 21  1  0
 21 22  1  0
 23 22  1  1
 23 24  1  0
 24 25  1  0
 25 26  1  0
 26 27  1  0
 27 28  2  0
 28 29  1  0
 29 30  2  0
 30 31  1  0
 31 32  2  0
 32 33  1  0
 33 34  1  0
 34 35  1  0
 35 36  1  0
 33 37  1  0
 32 38  1  0
 38 39  1  0
  8  3  1  0
 13  9  1  0
 18 15  1  0
 38 19  1  0
 39 11  1  0
 35 23  1  0
 37 23  1  0
 36 25  1  0
  4 40  1  0
  5 41  1  0
  6 42  1  0
  7 43  1  0
  8 44  1  0
 10 45  1  0
 13 46  1  0
 16 47  1  0
 16 48  1  0
 17 49  1  0
 17 50  1  0
 18 51  1  0
 18 52  1  0
 20 53  1  0
 21 54  1  0
 21 55  1  0
 22 56  1  0
 22 57  1  0
 24 58  1  0
 24 59  1  0
 25 60  1  6
 26 61  1  0
 26 62  1  0
 27 63  1  0
 28 64  1  0
 29 65  1  0
 30 66  1  0
 31 67  1  0
 33 68  1  1
 34 69  1  0
 34 70  1  0
 35 71  1  6
 36 72  1  0
 36 73  1  0
 37 74  1  0
 37 75  1  0
 39 76  1  0
M  CHG  1  20   1
M  END
>  <meeko>  (351) 
{"is_sidechain": false}

$$$$

     RDKit          3D

 76 83  0  0  0  0  0  0  0  0999 V2000
   10.5570    2.6990  -60.6560 O   0  0  0  0  0  0  0  0  0  0  0  0
   10.9020    2.9490  -59.5050 C   0  0  0  0  0  0  0  0  0  0  0  0
   11.7700    4.1300  -59.2790 C   0  0  0  0  0  0  0  0  0  0  0  0
   11.6280    5.2390  -60.1190 C   0  0  0  0  0  0  0  0  0  0  0  0
   12.4400    6.3580  -59.9320 C   0  0  0  0  0  0  0  0  0  0  0  0
   13.3790    6.3740  -58.8990 C   0  0  0  0  0  0  0  0  0  0  0  0
   13.5030    5.2770  -58.0450 C   0  0  0  0  0  0  0  0  0  0  0  0
   12.6970    4.1550  -58.2290 C   0  0  0  0  0  0  0  0  0  0  0  0
   10.5130    2.1200  -58.3750 C   0  0  0  0  0  0  0  0  0  0  0  0
    9.4300    2.3250  -57.5240 C   0  0  0  0  0  0  0  0  0  0  0  0
    9.4170    1.2660  -56.6070 C   0  0  0  0  0  0  0  0  0  0  0  0
   10.4540    0.4300  -56.8980 C   0  0  0  0  0  0  0  0  0  0  0  0
   11.1230    0.9400  -57.9740 N   0  0  0  0  0  0  0  0  0  0  0  0
   10.7740   -0.7380  -56.1710 C   0  0  0  0  0  0  0  0  0  0  0  0
   11.4050   -1.8030  -56.7110 C   0  0  0  0  0  0  0  0  0  0  0  0
   11.7320   -3.2040  -56.2120 C   0  0  0  0  0  0  0  0  0  0  0  0
   11.7430   -3.5740  -57.7060 C   0  0  0  0  0  0  0  0  0  0  0  0
   11.9780   -2.1010  -58.0930 C   0  0  0  0  0  0  0  0  0  0  0  0
   10.1300   -0.7750  -54.5930 C   0  0  0  0  0  0  0  0  0  0  0  0
   10.9750   -1.4610  -53.7820 N   0  0  0  0  0  0  0  0  0  0  0  0
   11.1860   -1.7820  -52.3350 C   0  0  0  0  0  0  0  0  0  0  0  0
   10.6460   -3.1580  -51.8890 C   0  0  0  0  0  0  0  0  0  0  0  0
    9.1140   -3.3160  -51.6900 C   0  0  1  0  0  0  0  0  0  0  0  0
    8.6830   -4.7800  -51.4900 C   0  0  0  0  0  0  0  0  0  0  0  0
    7.3760   -4.7450  -50.6690 C   0  0  2  0  0  0  0  0  0  0  0  0
    6.0530   -4.7600  -51.5010 C   0  0  0  0  0  0  0  0  0  0  0  0
    5.2910   -3.4780  -51.6340 C   0  0  0  0  0  0  0  0  0  0  0  0
    5.1510   -2.7550  -52.7590 C   0  0  0  0  0  0  0  0  0  0  0  0
    4.6710   -1.3950  -52.7010 C   0  0  0  0  0  0  0  0  0  0  0  0
    5.2910   -0.2950  -53.1640 C   0  0  0  0  0  0  0  0  0  0  0  0
    6.5330   -0.1210  -53.9030 C   0  0  0  0  0  0  0  0  0  0  0  0
    7.8110   -0.4750  -53.6380 C   0  0  0  0  0  0  0  0  0  0  0  0
    8.2540   -1.2600  -52.4680 C   0  0  1  0  0  0  0  0  0  0  0  0
    7.7390   -1.3360  -51.0390 C   0  0  0  0  0  0  0  0  0  0  0  0
    8.5110   -2.5520  -50.4740 C   0  0  1  0  0  0  0  0  0  0  0  0
    7.6210   -3.5590  -49.7240 C   0  0  0  0  0  0  0  0  0  0  0  0
    8.4400   -2.7090  -52.8950 C   0  0  0  0  0  0  0  0  0  0  0  0
    8.8820   -0.1430  -54.5360 N   0  0  0  0  0  0  0  0  0  0  0  0
    8.5700    1.0060  -55.5970 N   0  0  0  0  0  0  0  0  0  0  0  0
   10.8788    5.2291  -60.9243 H   0  0  0  0  0  0  0  0  0  0  0  0
   12.3404    7.2275  -60.5984 H   0  0  0  0  0  0  0  0  0  0  0  0
   14.0234    7.2542  -58.7576 H   0  0  0  0  0  0  0  0  0  0  0  0
   14.2373    5.2980  -57.2262 H   0  0  0  0  0  0  0  0  0  0  0  0
   12.7884    3.2925  -57.5524 H   0  0  0  0  0  0  0  0  0  0  0  0
    8.7177    3.1622  -57.5643 H   0  0  0  0  0  0  0  0  0  0  0  0
   11.9290    0.5270  -58.4260 H   0  0  0  0  0  0  0  0  0  0  0  0
   12.6979   -3.3054  -55.6956 H   0  0  0  0  0  0  0  0  0  0  0  0
   11.1261   -3.7349  -55.4630 H   0  0  0  0  0  0  0  0  0  0  0  0
   12.5649   -4.2466  -57.9925 H   0  0  0  0  0  0  0  0  0  0  0  0
   10.8978   -4.1278  -58.1407 H   0  0  0  0  0  0  0  0  0  0  0  0
   13.0301   -1.8146  -58.2379 H   0  0  0  0  0  0  0  0  0  0  0  0
   11.5913   -1.6495  -59.0185 H   0  0  0  0  0  0  0  0  0  0  0  0
   11.8100   -1.7530  -54.2780 H   0  0  0  0  0  0  0  0  0  0  0  0
   12.2671   -1.7576  -52.1337 H   0  0  0  0  0  0  0  0  0  0  0  0
   10.6201   -1.0294  -51.7663 H   0  0  0  0  0  0  0  0  0  0  0  0
   10.9534   -3.8910  -52.6494 H   0  0  0  0  0  0  0  0  0  0  0  0
   11.0677   -3.3033  -50.8835 H   0  0  0  0  0  0  0  0  0  0  0  0
    8.5072   -5.2606  -52.4637 H   0  0  0  0  0  0  0  0  0  0  0  0
    9.4629   -5.3565  -50.9710 H   0  0  0  0  0  0  0  0  0  0  0  0
    7.1765   -5.6698  -50.1078 H   0  0  0  0  0  0  0  0  0  0  0  0
    6.3094   -5.0949  -52.5169 H   0  0  0  0  0  0  0  0  0  0  0  0
    5.3805   -5.4216  -50.9353 H   0  0  0  0  0  0  0  0  0  0  0  0
    4.8006   -3.0922  -50.7281 H   0  0  0  0  0  0  0  0  0  0  0  0
    5.4042   -3.2034  -53.7310 H   0  0  0  0  0  0  0  0  0  0  0  0
    3.6908   -1.2414  -52.2261 H   0  0  0  0  0  0  0  0  0  0  0  0
    4.7632    0.6447  -52.9441 H   0  0  0  0  0  0  0  0  0  0  0  0
    6.4076    0.3997  -54.8638 H   0  0  0  0  0  0  0  0  0  0  0  0
    9.0527   -0.5322  -52.2621 H   0  0  0  0  0  0  0  0  0  0  0  0
    7.9770   -0.4187  -50.4806 H   0  0  0  0  0  0  0  0  0  0  0  0
    6.6459   -1.4376  -50.9698 H   0  0  0  0  0  0  0  0  0  0  0  0
    9.2558   -2.1647  -49.7632 H   0  0  0  0  0  0  0  0  0  0  0  0
    8.1292   -3.9037  -48.8114 H   0  0  0  0  0  0  0  0  0  0  0  0
    6.6692   -3.0931  -49.4291 H   0  0  0  0  0  0  0  0  0  0  0  0
    7.4725   -3.1923  -53.0957 H   0  0  0  0  0  0  0  0  0  0  0  0
    9.0156   -2.8233  -53.8254 H   0  0  0  0  0  0  0  0  0  0  0  0
    7.9210    1.7210  -55.2660 H   0  0  0  0  0  0  0  0  0  0  0  0
  1  2  2  0
  2  3  1  0
  3  4  2  0
  4  5  1  0
  5  6  2  0
  6  7  1  0
  7  8  2  0
  2  9  1  0
  9 10  2  0
 10 11  1  0
 11 12  2  0
 12 13  1  0
 12 14  1  0
 14 15  2  0
 15 16  1  0
 16 17  1  0
 17 18  1  0
 14 19  1  0
 19 20  2  0
 20 21  1  0
 21 22  1  0
 23 22  1  6
 23 24  1  0
 24 25  1  0
 25 26  1  0
 26 27  1  0
 27 28  2  0
 28 29  1  0
 29 30  2  0
 30 31  1  0
 31 32  2  0
 32 33  1  0
 33 34  1  0
 34 35  1  0
 35 36  1  0
 33 37  1  0
 32 38  1  0
 38 39  1  0
  8  3  1  0
 13  9  1  0
 18 15  1  0
 38 19  1  0
 39 11  1  0
 35 23  1  0
 37 23  1  0
 36 25  1  0
  4 40  1  0
  5 41  1  0
  6 42  1  0
  7 43  1  0
  8 44  1  0
 10 45  1  0
 13 46  1  0
 16 47  1  0
 16 48  1  0
 17 49  1  0
 17 50  1  0
 18 51  1  0
 18 52  1  0
 20 53  1  0
 21 54  1  0
 21 55  1  0
 22 56  1  0
 22 57  1  0
 24 58  1  0
 24 59  1  0
 25 60  1  1
 26 61  1  0
 26 62  1  0
 27 63  1  0
 28 64  1  0
 29 65  1  0
 30 66  1  0
 31 67  1  0
 33 68  1  1
 34 69  1  0
 34 70  1  0
 35 71  1  1
 36 72  1  0
 36 73  1  0
 37 74  1  0
 37 75  1  0
 39 76  1  0
M  CHG  1  20   1
M  END
>  <meeko>  (352) 
{"is_sidechain": false}

$$$$

     RDKit          3D

 76 83  0  0  0  0  0  0  0  0999 V2000
    9.9000    3.0660  -60.2120 O   0  0  0  0  0  0  0  0  0  0  0  0
   10.4750    3.0760  -59.1270 C   0  0  0  0  0  0  0  0  0  0  0  0
   11.5460    4.0820  -58.9120 C   0  0  0  0  0  0  0  0  0  0  0  0
   11.6990    5.1110  -59.8470 C   0  0  0  0  0  0  0  0  0  0  0  0
   12.6910    6.0740  -59.6610 C   0  0  0  0  0  0  0  0  0  0  0  0
   13.5370    6.0010  -58.5540 C   0  0  0  0  0  0  0  0  0  0  0  0
   13.4020    4.9610  -57.6330 C   0  0  0  0  0  0  0  0  0  0  0  0
   12.4100    3.9960  -57.8120 C   0  0  0  0  0  0  0  0  0  0  0  0
   10.1290    2.1600  -58.0520 C   0  0  0  0  0  0  0  0  0  0  0  0
    9.0160    2.2280  -57.2200 C   0  0  0  0  0  0  0  0  0  0  0  0
    9.1100    1.1630  -56.3150 C   0  0  0  0  0  0  0  0  0  0  0  0
   10.2460    0.4620  -56.5890 C   0  0  0  0  0  0  0  0  0  0  0  0
   10.8860    1.0790  -57.6270 N   0  0  0  0  0  0  0  0  0  0  0  0
   10.6830   -0.6780  -55.8780 C   0  0  0  0  0  0  0  0  0  0  0  0
   11.4100   -1.6620  -56.4560 C   0  0  0  0  0  0  0  0  0  0  0  0
   11.8720   -3.0450  -56.0160 C   0  0  0  0  0  0  0  0  0  0  0  0
   11.9030   -3.3530  -57.5230 C   0  0  0  0  0  0  0  0  0  0  0  0
   11.9990   -1.8530  -57.8510 C   0  0  0  0  0  0  0  0  0  0  0  0
   10.0370   -0.8200  -54.3000 C   0  0  0  0  0  0  0  0  0  0  0  0
   10.9050   -1.5430  -53.5250 N   0  0  0  0  0  0  0  0  0  0  0  0
   11.1360   -2.0850  -52.1270 C   0  0  0  0  0  0  0  0  0  0  0  0
   10.4490   -3.4270  -51.7590 C   0  0  0  0  0  0  0  0  0  0  0  0
    8.9060   -3.4570  -51.5790 C   0  0  1  0  0  0  0  0  0  0  0  0
    8.2520   -4.8430  -51.7070 C   0  0  0  0  0  0  0  0  0  0  0  0
    6.8690   -4.7420  -51.0220 C   0  0  2  0  0  0  0  0  0  0  0  0
    5.5960   -4.4750  -51.9110 C   0  0  0  0  0  0  0  0  0  0  0  0
    5.2250   -3.1010  -52.4530 C   0  0  0  0  0  0  0  0  0  0  0  0
    5.2040   -2.7680  -53.7620 C   0  0  0  0  0  0  0  0  0  0  0  0
    4.9690   -1.4590  -54.3720 C   0  0  0  0  0  0  0  0  0  0  0  0
    5.5840   -0.2770  -54.1400 C   0  0  0  0  0  0  0  0  0  0  0  0
    6.5460   -0.0660  -53.0760 C   0  0  0  0  0  0  0  0  0  0  0  0
    7.8650   -0.3570  -53.1140 C   0  0  0  0  0  0  0  0  0  0  0  0
    8.3900   -1.1810  -52.0140 C   0  0  1  0  0  0  0  0  0  0  0  0
    7.7800   -1.4430  -50.6440 C   0  0  0  0  0  0  0  0  0  0  0  0
    8.2970   -2.8490  -50.2870 C   0  0  1  0  0  0  0  0  0  0  0  0
    7.1300   -3.7720  -49.8670 C   0  0  0  0  0  0  0  0  0  0  0  0
    8.3970   -2.5710  -52.6540 C   0  0  0  0  0  0  0  0  0  0  0  0
    8.7670   -0.2100  -54.1990 N   0  0  0  0  0  0  0  0  0  0  0  0
    8.2870    0.7940  -55.3190 N   0  0  0  0  0  0  0  0  0  0  0  0
   11.0394    5.1607  -60.7259 H   0  0  0  0  0  0  0  0  0  0  0  0
   12.8063    6.8916  -60.3878 H   0  0  0  0  0  0  0  0  0  0  0  0
   14.3135    6.7661  -58.4065 H   0  0  0  0  0  0  0  0  0  0  0  0
   14.0772    4.9021  -56.7666 H   0  0  0  0  0  0  0  0  0  0  0  0
   12.3066    3.1707  -57.0922 H   0  0  0  0  0  0  0  0  0  0  0  0
    8.2124    2.9779  -57.2645 H   0  0  0  0  0  0  0  0  0  0  0  0
   11.7830    0.8150  -58.0140 H   0  0  0  0  0  0  0  0  0  0  0  0
   12.8482   -3.0754  -55.5099 H   0  0  0  0  0  0  0  0  0  0  0  0
   11.3259   -3.6597  -55.2854 H   0  0  0  0  0  0  0  0  0  0  0  0
   12.7801   -3.9358  -57.8409 H   0  0  0  0  0  0  0  0  0  0  0  0
   11.1079   -3.9642  -57.9750 H   0  0  0  0  0  0  0  0  0  0  0  0
   13.0195   -1.4658  -57.9877 H   0  0  0  0  0  0  0  0  0  0  0  0
   11.5660   -1.4034  -58.7567 H   0  0  0  0  0  0  0  0  0  0  0  0
   11.7570   -1.7380  -54.0360 H   0  0  0  0  0  0  0  0  0  0  0  0
   12.2200   -2.2240  -52.0019 H   0  0  0  0  0  0  0  0  0  0  0  0
   10.6781   -1.3417  -51.4578 H   0  0  0  0  0  0  0  0  0  0  0  0
   10.6949   -4.1445  -52.5557 H   0  0  0  0  0  0  0  0  0  0  0  0
   10.8369   -3.6563  -50.7555 H   0  0  0  0  0  0  0  0  0  0  0  0
    8.1321   -5.1100  -52.7674 H   0  0  0  0  0  0  0  0  0  0  0  0
    8.8725   -5.6202  -51.2369 H   0  0  0  0  0  0  0  0  0  0  0  0
    6.5251   -5.7305  -50.6836 H   0  0  0  0  0  0  0  0  0  0  0  0
    5.7008   -5.1273  -52.7905 H   0  0  0  0  0  0  0  0  0  0  0  0
    4.7868   -4.6464  -51.1858 H   0  0  0  0  0  0  0  0  0  0  0  0
    4.9541   -2.3223  -51.7248 H   0  0  0  0  0  0  0  0  0  0  0  0
    5.3888   -3.5935  -54.4652 H   0  0  0  0  0  0  0  0  0  0  0  0
    4.1742   -1.4323  -55.1320 H   0  0  0  0  0  0  0  0  0  0  0  0
    5.3406    0.5721  -54.7955 H   0  0  0  0  0  0  0  0  0  0  0  0
    6.1636    0.3755  -52.1439 H   0  0  0  0  0  0  0  0  0  0  0  0
    9.2590   -0.5805  -51.7070 H   0  0  0  0  0  0  0  0  0  0  0  0
    8.1245   -0.6989  -49.9108 H   0  0  0  0  0  0  0  0  0  0  0  0
    6.6821   -1.3756  -50.6424 H   0  0  0  0  0  0  0  0  0  0  0  0
    9.0224   -2.7704  -49.4638 H   0  0  0  0  0  0  0  0  0  0  0  0
    7.4025   -4.3325  -48.9606 H   0  0  0  0  0  0  0  0  0  0  0  0
    6.2289   -3.1804  -49.6480 H   0  0  0  0  0  0  0  0  0  0  0  0
    7.3820   -2.8672  -52.9573 H   0  0  0  0  0  0  0  0  0  0  0  0
    9.0110   -2.6148  -53.5656 H   0  0  0  0  0  0  0  0  0  0  0  0
    7.5150    1.3950  -55.0360 H   0  0  0  0  0  0  0  0  0  0  0  0
  1  2  2  0
  2  3  1  0
  3  4  2  0
  4  5  1  0
  5  6  2  0
  6  7  1  0
  7  8  2  0
  2  9  1  0
  9 10  2  0
 10 11  1  0
 11 12  2  0
 12 13  1  0
 12 14  1  0
 14 15  2  0
 15 16  1  0
 16 17  1  0
 17 18  1  0
 14 19  1  0
 19 20  2  0
 20 21  1  0
 21 22  1  0
 23 22  1  1
 23 24  1  0
 24 25  1  0
 25 26  1  0
 26 27  1  0
 27 28  2  0
 28 29  1  0
 29 30  2  0
 30 31  1  0
 31 32  2  0
 32 33  1  0
 33 34  1  0
 34 35  1  0
 35 36  1  0
 33 37  1  0
 32 38  1  0
 38 39  1  0
  8  3  1  0
 13  9  1  0
 18 15  1  0
 38 19  1  0
 39 11  1  0
 35 23  1  0
 37 23  1  0
 36 25  1  0
  4 40  1  0
  5 41  1  0
  6 42  1  0
  7 43  1  0
  8 44  1  0
 10 45  1  0
 13 46  1  0
 16 47  1  0
 16 48  1  0
 17 49  1  0
 17 50  1  0
 18 51  1  0
 18 52  1  0
 20 53  1  0
 21 54  1  0
 21 55  1  0
 22 56  1  0
 22 57  1  0
 24 58  1  0
 24 59  1  0
 25 60  1  1
 26 61  1  0
 26 62  1  0
 27 63  1  0
 28 64  1  0
 29 65  1  0
 30 66  1  0
 31 67  1  0
 33 68  1  1
 34 69  1  0
 34 70  1  0
 35 71  1  1
 36 72  1  0
 36 73  1  0
 37 74  1  0
 37 75  1  0
 39 76  1  0
M  CHG  1  20   1
M  END
>  <meeko>  (353) 
{"is_sidechain": false}

$$$$

     RDKit          3D

 65 69  0  0  0  0  0  0  0  0999 V2000
    3.6400    0.7980  -61.5580 N   0  0  0  0  0  0  0  0  0  0  0  0
    3.4920    1.8920  -60.5660 C   0  0  0  0  0  0  0  0  0  0  0  0
    4.6860    1.8720  -59.6200 C   0  0  0  0  0  0  0  0  0  0  0  0
    4.4470    2.6460  -58.3180 C   0  0  0  0  0  0  0  0  0  0  0  0
    5.5100    2.3670  -57.2530 C   0  0  0  0  0  0  0  0  0  0  0  0
    6.6650    1.5120  -57.8000 C   0  0  0  0  0  0  0  0  0  0  0  0
    7.8940    2.3410  -58.0350 C   0  0  0  0  0  0  0  0  0  0  0  0
    8.3590    2.7390  -59.2330 C   0  0  0  0  0  0  0  0  0  0  0  0
    7.9040    2.3030  -60.4770 N   0  0  0  0  0  0  0  0  0  0  0  0
    8.6100    2.5640  -61.6340 C   0  0  0  0  0  0  0  0  0  0  0  0
    9.6750    3.3810  -61.6530 C   0  0  0  0  0  0  0  0  0  0  0  0
   10.0620    4.0390  -60.4190 C   0  0  0  0  0  0  0  0  0  0  0  0
    9.4420    3.7420  -59.2580 C   0  0  0  0  0  0  0  0  0  0  0  0
    9.6580    4.4670  -58.1130 N   0  0  0  0  0  0  0  0  0  0  0  0
    9.1710    4.1130  -57.0120 N   0  0  0  0  0  0  0  0  0  0  0  0
    8.7380    2.8090  -56.8920 C   0  0  0  0  0  0  0  0  0  0  0  0
    9.1100    2.2070  -55.8280 N   0  0  0  0  0  0  0  0  0  0  0  0
    8.9070    0.8020  -55.5390 C   0  0  0  0  0  0  0  0  0  0  0  0
    7.9920    0.5600  -54.3340 C   0  0  0  0  0  0  0  0  0  0  0  0
    8.0170   -0.8390  -53.6600 C   0  0  2  0  0  0  0  0  0  0  0  0
    7.4220   -0.8290  -52.2300 C   0  0  0  0  0  0  0  0  0  0  0  0
    7.5410   -2.2170  -51.5730 C   0  0  1  0  0  0  0  0  0  0  0  0
    6.7780   -3.2440  -52.4280 C   0  0  0  0  0  0  0  0  0  0  0  0
    7.3730   -3.2940  -53.8440 C   0  0  2  0  0  0  0  0  0  0  0  0
    8.8530   -3.6960  -53.7560 C   0  0  0  0  0  0  0  0  0  0  0  0
    9.6240   -2.6750  -52.9040 C   0  0  2  0  0  0  0  0  0  0  0  0
    9.0190   -2.6230  -51.4940 C   0  0  0  0  0  0  0  0  0  0  0  0
    9.5040   -1.2870  -53.5530 C   0  0  0  0  0  0  0  0  0  0  0  0
    7.2570   -1.9020  -54.4950 C   0  0  0  0  0  0  0  0  0  0  0  0
    3.4980    1.1470  -62.5150 H   0  0  0  0  0  0  0  0  0  0  0  0
    4.5750    0.3720  -61.5220 H   0  0  0  0  0  0  0  0  0  0  0  0
    2.9500    0.0510  -61.4030 H   0  0  0  0  0  0  0  0  0  0  0  0
    3.4517    2.8595  -61.0879 H   0  0  0  0  0  0  0  0  0  0  0  0
    2.5634    1.7502  -59.9937 H   0  0  0  0  0  0  0  0  0  0  0  0
    4.9122    0.8257  -59.3667 H   0  0  0  0  0  0  0  0  0  0  0  0
    5.5203    2.3645  -60.1410 H   0  0  0  0  0  0  0  0  0  0  0  0
    4.4515    3.7225  -58.5442 H   0  0  0  0  0  0  0  0  0  0  0  0
    3.4795    2.3159  -57.9118 H   0  0  0  0  0  0  0  0  0  0  0  0
    5.9157    3.3254  -56.8969 H   0  0  0  0  0  0  0  0  0  0  0  0
    5.0320    1.8079  -56.4351 H   0  0  0  0  0  0  0  0  0  0  0  0
    6.9003    0.7206  -57.0731 H   0  0  0  0  0  0  0  0  0  0  0  0
    6.3506    1.0776  -58.7604 H   0  0  0  0  0  0  0  0  0  0  0  0
    7.2880    1.5000  -60.5040 H   0  0  0  0  0  0  0  0  0  0  0  0
    8.2893    2.0866  -62.5717 H   0  0  0  0  0  0  0  0  0  0  0  0
   10.2406    3.5476  -62.5816 H   0  0  0  0  0  0  0  0  0  0  0  0
   10.8684    4.7870  -60.4301 H   0  0  0  0  0  0  0  0  0  0  0  0
    8.4562    0.3250  -56.4217 H   0  0  0  0  0  0  0  0  0  0  0  0
    9.8900    0.3731  -55.2946 H   0  0  0  0  0  0  0  0  0  0  0  0
    8.2649    1.2972  -53.5645 H   0  0  0  0  0  0  0  0  0  0  0  0
    6.9748    0.6458  -54.7438 H   0  0  0  0  0  0  0  0  0  0  0  0
    7.9664   -0.0939  -51.6190 H   0  0  0  0  0  0  0  0  0  0  0  0
    6.3568   -0.5624  -52.2955 H   0  0  0  0  0  0  0  0  0  0  0  0
    7.1162   -2.1835  -50.5589 H   0  0  0  0  0  0  0  0  0  0  0  0
    6.8597   -4.2376  -51.9632 H   0  0  0  0  0  0  0  0  0  0  0  0
    5.7206   -2.9475  -52.4907 H   0  0  0  0  0  0  0  0  0  0  0  0
    6.8260   -4.0301  -54.4514 H   0  0  0  0  0  0  0  0  0  0  0  0
    8.9336   -4.6911  -53.2941 H   0  0  0  0  0  0  0  0  0  0  0  0
    9.2822   -3.7195  -54.7686 H   0  0  0  0  0  0  0  0  0  0  0  0
   10.6815   -2.9712  -52.8409 H   0  0  0  0  0  0  0  0  0  0  0  0
    9.1000   -3.6151  -51.0258 H   0  0  0  0  0  0  0  0  0  0  0  0
    9.5660   -1.8817  -50.8929 H   0  0  0  0  0  0  0  0  0  0  0  0
   10.0551   -0.5569  -52.9420 H   0  0  0  0  0  0  0  0  0  0  0  0
    9.9241   -1.3410  -54.5682 H   0  0  0  0  0  0  0  0  0  0  0  0
    7.6863   -1.9402  -55.5070 H   0  0  0  0  0  0  0  0  0  0  0  0
    6.1944   -1.6212  -54.5404 H   0  0  0  0  0  0  0  0  0  0  0  0
  1  2  1  0
  2  3  1  0
  3  4  1  0
  4  5  1  0
  5  6  1  0
  6  7  1  0
  7  8  2  0
  8  9  1  0
  9 10  1  0
 10 11  2  0
 11 12  1  0
 12 13  2  0
 13 14  1  0
 14 15  2  0
 15 16  1  0
 16 17  2  0
 17 18  1  0
 18 19  1  0
 20 19  1  6
 20 21  1  0
 21 22  1  0
 22 23  1  0
 23 24  1  0
 24 25  1  0
 25 26  1  0
 26 27  1  0
 26 28  1  0
 24 29  1  0
 16  7  1  0
 28 20  1  0
 13  8  1  0
 29 20  1  0
 27 22  1  0
  1 30  1  0
  1 31  1  0
  1 32  1  0
  2 33  1  0
  2 34  1  0
  3 35  1  0
  3 36  1  0
  4 37  1  0
  4 38  1  0
  5 39  1  0
  5 40  1  0
  6 41  1  0
  6 42  1  0
  9 43  1  0
 10 44  1  0
 11 45  1  0
 12 46  1  0
 18 47  1  0
 18 48  1  0
 19 49  1  0
 19 50  1  0
 21 51  1  0
 21 52  1  0
 22 53  1  1
 23 54  1  0
 23 55  1  0
 24 56  1  6
 25 57  1  0
 25 58  1  0
 26 59  1  1
 27 60  1  0
 27 61  1  0
 28 62  1  0
 28 63  1  0
 29 64  1  0
 29 65  1  0
M  CHG  1   1   1
M  END
>  <meeko>  (354) 
{"is_sidechain": false}

$$$$

     RDKit          3D

 65 69  0  0  0  0  0  0  0  0999 V2000
   12.9430   -5.6180  -56.3480 N   0  0  0  0  0  0  0  0  0  0  0  0
   13.2110   -4.4970  -57.2820 C   0  0  0  0  0  0  0  0  0  0  0  0
   11.9090   -3.8130  -57.6810 C   0  0  0  0  0  0  0  0  0  0  0  0
   11.5180   -2.5980  -56.8310 C   0  0  0  0  0  0  0  0  0  0  0  0
   10.7830   -2.9330  -55.5310 C   0  0  0  0  0  0  0  0  0  0  0  0
   10.9730   -1.8730  -54.4340 C   0  0  0  0  0  0  0  0  0  0  0  0
    9.6610   -1.3810  -53.8520 C   0  0  0  0  0  0  0  0  0  0  0  0
    8.9030   -0.3990  -54.5020 C   0  0  0  0  0  0  0  0  0  0  0  0
    9.3960    0.1930  -55.6900 N   0  0  0  0  0  0  0  0  0  0  0  0
    8.8460    1.5210  -56.0050 C   0  0  0  0  0  0  0  0  0  0  0  0
    9.9550    2.5050  -56.4070 C   0  0  0  0  0  0  0  0  0  0  0  0
    9.7030    3.3050  -57.7100 C   0  0  2  0  0  0  0  0  0  0  0  0
    9.5830    4.8260  -57.4450 C   0  0  0  0  0  0  0  0  0  0  0  0
    9.2780    5.5850  -58.7500 C   0  0  1  0  0  0  0  0  0  0  0  0
   10.4130    5.3350  -59.7560 C   0  0  0  0  0  0  0  0  0  0  0  0
   10.5300    3.8310  -60.0550 C   0  0  2  0  0  0  0  0  0  0  0  0
    9.2020    3.3270  -60.6420 C   0  0  0  0  0  0  0  0  0  0  0  0
    8.0620    3.5690  -59.6400 C   0  0  2  0  0  0  0  0  0  0  0  0
    7.9550    5.0730  -59.3410 C   0  0  0  0  0  0  0  0  0  0  0  0
    8.3670    2.8160  -58.3360 C   0  0  0  0  0  0  0  0  0  0  0  0
   10.8310    3.0760  -58.7480 C   0  0  0  0  0  0  0  0  0  0  0  0
    7.6950   -0.0520  -54.0200 N   0  0  0  0  0  0  0  0  0  0  0  0
    7.2100   -0.5940  -52.8650 N   0  0  0  0  0  0  0  0  0  0  0  0
    7.9260   -1.5080  -52.2010 C   0  0  0  0  0  0  0  0  0  0  0  0
    7.4400   -2.0590  -51.0240 C   0  0  0  0  0  0  0  0  0  0  0  0
    8.1670   -3.0230  -50.3350 C   0  0  0  0  0  0  0  0  0  0  0  0
    9.3780   -3.4110  -50.8670 C   0  0  0  0  0  0  0  0  0  0  0  0
    9.8830   -2.9040  -52.0130 N   0  0  0  0  0  0  0  0  0  0  0  0
    9.1730   -1.9510  -52.6680 C   0  0  0  0  0  0  0  0  0  0  0  0
   13.8040   -6.0450  -55.9870 H   0  0  0  0  0  0  0  0  0  0  0  0
   12.4010   -6.3650  -56.8030 H   0  0  0  0  0  0  0  0  0  0  0  0
   12.3980   -5.2990  -55.5360 H   0  0  0  0  0  0  0  0  0  0  0  0
   13.8686   -3.7651  -56.7901 H   0  0  0  0  0  0  0  0  0  0  0  0
   13.6959   -4.8946  -58.1858 H   0  0  0  0  0  0  0  0  0  0  0  0
   12.0065   -3.4799  -58.7248 H   0  0  0  0  0  0  0  0  0  0  0  0
   11.1151   -4.5588  -57.5277 H   0  0  0  0  0  0  0  0  0  0  0  0
   12.4368   -2.0509  -56.5732 H   0  0  0  0  0  0  0  0  0  0  0  0
   10.8170   -2.0076  -57.4393 H   0  0  0  0  0  0  0  0  0  0  0  0
    9.7085   -3.0200  -55.7500 H   0  0  0  0  0  0  0  0  0  0  0  0
   11.2064   -3.8744  -55.1509 H   0  0  0  0  0  0  0  0  0  0  0  0
   11.5738   -2.3111  -53.6234 H   0  0  0  0  0  0  0  0  0  0  0  0
   11.4736   -1.0086  -54.8946 H   0  0  0  0  0  0  0  0  0  0  0  0
   10.4110    0.2370  -55.6210 H   0  0  0  0  0  0  0  0  0  0  0  0
    8.1333    1.4251  -56.8374 H   0  0  0  0  0  0  0  0  0  0  0  0
    8.3457    1.9110  -55.1063 H   0  0  0  0  0  0  0  0  0  0  0  0
   10.0806    3.2265  -55.5863 H   0  0  0  0  0  0  0  0  0  0  0  0
   10.8463    1.8900  -56.6002 H   0  0  0  0  0  0  0  0  0  0  0  0
    8.7700    5.0039  -56.7257 H   0  0  0  0  0  0  0  0  0  0  0  0
   10.5386    5.1903  -57.0398 H   0  0  0  0  0  0  0  0  0  0  0  0
    9.1957    6.6619  -58.5412 H   0  0  0  0  0  0  0  0  0  0  0  0
   10.1982    5.8762  -60.6893 H   0  0  0  0  0  0  0  0  0  0  0  0
   11.3607    5.6923  -59.3268 H   0  0  0  0  0  0  0  0  0  0  0  0
   11.3419    3.6571  -60.7765 H   0  0  0  0  0  0  0  0  0  0  0  0
    8.9876    3.8673  -61.5759 H   0  0  0  0  0  0  0  0  0  0  0  0
    9.2821    2.2491  -60.8461 H   0  0  0  0  0  0  0  0  0  0  0  0
    7.1140    3.2088  -60.0661 H   0  0  0  0  0  0  0  0  0  0  0  0
    7.7379    5.6155  -60.2730 H   0  0  0  0  0  0  0  0  0  0  0  0
    7.1455    5.2410  -58.6153 H   0  0  0  0  0  0  0  0  0  0  0  0
    7.5497    2.9898  -57.6206 H   0  0  0  0  0  0  0  0  0  0  0  0
    8.4583    1.7437  -58.5636 H   0  0  0  0  0  0  0  0  0  0  0  0
   10.9109    2.0001  -58.9628 H   0  0  0  0  0  0  0  0  0  0  0  0
   11.7765    3.4536  -58.3315 H   0  0  0  0  0  0  0  0  0  0  0  0
    6.4671   -1.7288  -50.6311 H   0  0  0  0  0  0  0  0  0  0  0  0
    7.7895   -3.4604  -49.3990 H   0  0  0  0  0  0  0  0  0  0  0  0
    9.9633   -4.1726  -50.3309 H   0  0  0  0  0  0  0  0  0  0  0  0
  1  2  1  0
  2  3  1  0
  3  4  1  0
  4  5  1  0
  5  6  1  0
  6  7  1  0
  7  8  2  0
  8  9  1  0
  9 10  1  0
 10 11  1  0
 12 11  1  1
 12 13  1  0
 13 14  1  0
 14 15  1  0
 15 16  1  0
 16 17  1  0
 17 18  1  0
 18 19  1  0
 18 20  1  0
 16 21  1  0
  8 22  1  0
 22 23  2  0
 23 24  1  0
 24 25  2  0
 25 26  1  0
 26 27  2  0
 27 28  1  0
 28 29  2  0
 29  7  1  0
 20 12  1  0
 29 24  1  0
 21 12  1  0
 19 14  1  0
  1 30  1  0
  1 31  1  0
  1 32  1  0
  2 33  1  0
  2 34  1  0
  3 35  1  0
  3 36  1  0
  4 37  1  0
  4 38  1  0
  5 39  1  0
  5 40  1  0
  6 41  1  0
  6 42  1  0
  9 43  1  0
 10 44  1  0
 10 45  1  0
 11 46  1  0
 11 47  1  0
 13 48  1  0
 13 49  1  0
 14 50  1  1
 15 51  1  0
 15 52  1  0
 16 53  1  6
 17 54  1  0
 17 55  1  0
 18 56  1  6
 19 57  1  0
 19 58  1  0
 20 59  1  0
 20 60  1  0
 21 61  1  0
 21 62  1  0
 25 63  1  0
 26 64  1  0
 27 65  1  0
M  CHG  1   1   1
M  END
>  <meeko>  (355) 
{"is_sidechain": false}

$$$$

     RDKit          3D

 65 69  0  0  0  0  0  0  0  0999 V2000
   12.6990   -5.5400  -56.1550 N   0  0  0  0  0  0  0  0  0  0  0  0
   13.0380   -4.7270  -57.3480 C   0  0  0  0  0  0  0  0  0  0  0  0
   11.8400   -3.8630  -57.7150 C   0  0  0  0  0  0  0  0  0  0  0  0
   11.7950   -2.5560  -56.9220 C   0  0  0  0  0  0  0  0  0  0  0  0
   10.7750   -2.5780  -55.7770 C   0  0  0  0  0  0  0  0  0  0  0  0
   10.7570   -1.2690  -54.9650 C   0  0  0  0  0  0  0  0  0  0  0  0
    9.4400   -1.0240  -54.2750 C   0  0  0  0  0  0  0  0  0  0  0  0
    8.3770   -0.1300  -54.8460 C   0  0  0  0  0  0  0  0  0  0  0  0
    8.4870    0.9400  -55.5510 N   0  0  0  0  0  0  0  0  0  0  0  0
    9.7010    1.6870  -55.8150 C   0  0  0  0  0  0  0  0  0  0  0  0
   10.1260    1.5360  -57.2780 C   0  0  0  0  0  0  0  0  0  0  0  0
    9.8050    2.7100  -58.2420 C   0  0  2  0  0  0  0  0  0  0  0  0
   11.1010    3.0490  -59.0340 C   0  0  0  0  0  0  0  0  0  0  0  0
   10.8690    4.2170  -60.0050 C   0  0  1  0  0  0  0  0  0  0  0  0
    9.7620    3.8320  -60.9990 C   0  0  0  0  0  0  0  0  0  0  0  0
    8.4610    3.5280  -60.2420 C   0  0  2  0  0  0  0  0  0  0  0  0
    8.0350    4.7710  -59.4440 C   0  0  0  0  0  0  0  0  0  0  0  0
    9.1350    5.1560  -58.4420 C   0  0  2  0  0  0  0  0  0  0  0  0
   10.4340    5.4560  -59.2070 C   0  0  0  0  0  0  0  0  0  0  0  0
    9.3720    3.9850  -57.4720 C   0  0  0  0  0  0  0  0  0  0  0  0
    8.6960    2.3600  -59.2660 C   0  0  0  0  0  0  0  0  0  0  0  0
    7.0660   -0.4690  -54.5570 N   0  0  0  0  0  0  0  0  0  0  0  0
    6.6860   -1.0110  -53.3590 N   0  0  0  0  0  0  0  0  0  0  0  0
    7.6530   -1.5600  -52.6900 C   0  0  0  0  0  0  0  0  0  0  0  0
    7.3670   -2.1250  -51.3520 C   0  0  0  0  0  0  0  0  0  0  0  0
    8.3030   -2.8210  -50.7050 C   0  0  0  0  0  0  0  0  0  0  0  0
    9.5870   -3.0480  -51.3890 C   0  0  0  0  0  0  0  0  0  0  0  0
    9.9540   -2.5690  -52.5320 N   0  0  0  0  0  0  0  0  0  0  0  0
    9.0790   -1.7100  -53.1660 C   0  0  0  0  0  0  0  0  0  0  0  0
   13.5150   -5.6750  -55.5430 H   0  0  0  0  0  0  0  0  0  0  0  0
   12.3510   -6.4710  -56.4200 H   0  0  0  0  0  0  0  0  0  0  0  0
   11.9650   -5.0870  -55.5960 H   0  0  0  0  0  0  0  0  0  0  0  0
   13.9015   -4.0838  -57.1229 H   0  0  0  0  0  0  0  0  0  0  0  0
   13.2908   -5.3889  -58.1894 H   0  0  0  0  0  0  0  0  0  0  0  0
   11.8933   -3.6233  -58.7872 H   0  0  0  0  0  0  0  0  0  0  0  0
   10.9307   -4.4324  -57.4723 H   0  0  0  0  0  0  0  0  0  0  0  0
   12.7927   -2.3702  -56.4977 H   0  0  0  0  0  0  0  0  0  0  0  0
   11.4872   -1.7620  -57.6183 H   0  0  0  0  0  0  0  0  0  0  0  0
    9.7736   -2.7412  -56.2021 H   0  0  0  0  0  0  0  0  0  0  0  0
   11.0656   -3.3877  -55.0915 H   0  0  0  0  0  0  0  0  0  0  0  0
   11.5486   -1.3181  -54.2028 H   0  0  0  0  0  0  0  0  0  0  0  0
   10.9185   -0.4409  -55.6708 H   0  0  0  0  0  0  0  0  0  0  0  0
    9.5237    2.7509  -55.5991 H   0  0  0  0  0  0  0  0  0  0  0  0
   10.5030    1.2940  -55.1729 H   0  0  0  0  0  0  0  0  0  0  0  0
   11.2158    1.3875  -57.2910 H   0  0  0  0  0  0  0  0  0  0  0  0
    9.5318    0.6914  -57.6569 H   0  0  0  0  0  0  0  0  0  0  0  0
   11.8939    3.3252  -58.3234 H   0  0  0  0  0  0  0  0  0  0  0  0
   11.3943    2.1638  -59.6175 H   0  0  0  0  0  0  0  0  0  0  0  0
   11.7961    4.4393  -60.5537 H   0  0  0  0  0  0  0  0  0  0  0  0
    9.5919    4.6658  -61.6961 H   0  0  0  0  0  0  0  0  0  0  0  0
   10.0729    2.9370  -61.5578 H   0  0  0  0  0  0  0  0  0  0  0  0
    7.6736    3.2576  -60.9609 H   0  0  0  0  0  0  0  0  0  0  0  0
    7.8647    5.6080  -60.1372 H   0  0  0  0  0  0  0  0  0  0  0  0
    7.1089    4.5468  -58.8944 H   0  0  0  0  0  0  0  0  0  0  0  0
    8.8258    6.0466  -57.8753 H   0  0  0  0  0  0  0  0  0  0  0  0
   10.2646    6.2944  -59.8987 H   0  0  0  0  0  0  0  0  0  0  0  0
   11.2244    5.7202  -58.4890 H   0  0  0  0  0  0  0  0  0  0  0  0
   10.1628    4.2617  -56.7592 H   0  0  0  0  0  0  0  0  0  0  0  0
    8.4331    3.7731  -56.9395 H   0  0  0  0  0  0  0  0  0  0  0  0
    7.7613    2.1480  -58.7262 H   0  0  0  0  0  0  0  0  0  0  0  0
    9.0150    1.4790  -59.8423 H   0  0  0  0  0  0  0  0  0  0  0  0
    6.4230    0.2340  -54.9240 H   0  0  0  0  0  0  0  0  0  0  0  0
    6.3806   -1.9706  -50.8904 H   0  0  0  0  0  0  0  0  0  0  0  0
    8.1216   -3.2127  -49.6932 H   0  0  0  0  0  0  0  0  0  0  0  0
   10.3114   -3.6944  -50.8719 H   0  0  0  0  0  0  0  0  0  0  0  0
  1  2  1  0
  2  3  1  0
  3  4  1  0
  4  5  1  0
  5  6  1  0
  6  7  1  0
  7  8  1  0
  8  9  2  0
  9 10  1  0
 10 11  1  0
 12 11  1  1
 12 13  1  0
 13 14  1  0
 14 15  1  0
 15 16  1  0
 16 17  1  0
 17 18  1  0
 18 19  1  0
 18 20  1  0
 16 21  1  0
  8 22  1  0
 22 23  1  0
 23 24  2  0
 24 25  1  0
 25 26  2  0
 26 27  1  0
 27 28  2  0
 28 29  1  0
 29  7  2  0
 20 12  1  0
 29 24  1  0
 21 12  1  0
 19 14  1  0
  1 30  1  0
  1 31  1  0
  1 32  1  0
  2 33  1  0
  2 34  1  0
  3 35  1  0
  3 36  1  0
  4 37  1  0
  4 38  1  0
  5 39  1  0
  5 40  1  0
  6 41  1  0
  6 42  1  0
 10 43  1  0
 10 44  1  0
 11 45  1  0
 11 46  1  0
 13 47  1  0
 13 48  1  0
 14 49  1  6
 15 50  1  0
 15 51  1  0
 16 52  1  6
 17 53  1  0
 17 54  1  0
 18 55  1  1
 19 56  1  0
 19 57  1  0
 20 58  1  0
 20 59  1  0
 21 60  1  0
 21 61  1  0
 22 62  1  0
 25 63  1  0
 26 64  1  0
 27 65  1  0
M  CHG  1   1   1
M  END
>  <meeko>  (356) 
{"is_sidechain": false}

$$$$

     RDKit          3D

 65 69  0  0  0  0  0  0  0  0999 V2000
   12.9870   -5.6560  -56.3850 N   0  0  0  0  0  0  0  0  0  0  0  0
   13.1720   -4.5650  -57.3540 C   0  0  0  0  0  0  0  0  0  0  0  0
   11.8510   -3.8700  -57.6380 C   0  0  0  0  0  0  0  0  0  0  0  0
   11.5350   -2.6500  -56.7700 C   0  0  0  0  0  0  0  0  0  0  0  0
   10.8350   -2.9870  -55.4490 C   0  0  0  0  0  0  0  0  0  0  0  0
   10.9840   -1.9350  -54.3370 C   0  0  0  0  0  0  0  0  0  0  0  0
    9.6740   -1.4650  -53.7580 C   0  0  0  0  0  0  0  0  0  0  0  0
    8.9010   -0.3380  -54.4040 C   0  0  0  0  0  0  0  0  0  0  0  0
    9.3800    0.1880  -55.5100 N   0  0  0  0  0  0  0  0  0  0  0  0
    8.6490    1.4020  -55.9670 C   0  0  0  0  0  0  0  0  0  0  0  0
    9.6420    2.5040  -56.3420 C   0  0  0  0  0  0  0  0  0  0  0  0
    9.2990    3.3200  -57.6140 C   0  0  2  0  0  0  0  0  0  0  0  0
    9.6940    2.4760  -58.8590 C   0  0  0  0  0  0  0  0  0  0  0  0
    9.3780    3.2320  -60.1610 C   0  0  1  0  0  0  0  0  0  0  0  0
    7.8730    3.5350  -60.2150 C   0  0  0  0  0  0  0  0  0  0  0  0
    7.4670    4.3960  -59.0090 C   0  0  2  0  0  0  0  0  0  0  0  0
    8.2640    5.7120  -59.0350 C   0  0  0  0  0  0  0  0  0  0  0  0
    9.7710    5.4160  -58.9750 C   0  0  2  0  0  0  0  0  0  0  0  0
   10.1660    4.5500  -60.1810 C   0  0  0  0  0  0  0  0  0  0  0  0
   10.0860    4.6550  -57.6730 C   0  0  0  0  0  0  0  0  0  0  0  0
    7.7860    3.6370  -57.7070 C   0  0  0  0  0  0  0  0  0  0  0  0
    7.7350    0.0670  -53.7730 N   0  0  0  0  0  0  0  0  0  0  0  0
    7.2070   -0.4490  -52.6350 N   0  0  0  0  0  0  0  0  0  0  0  0
    7.8940   -1.4020  -52.0830 C   0  0  0  0  0  0  0  0  0  0  0  0
    7.3850   -2.0020  -50.8280 C   0  0  0  0  0  0  0  0  0  0  0  0
    8.0680   -2.9720  -50.2200 C   0  0  0  0  0  0  0  0  0  0  0  0
    9.3270   -3.4160  -50.8380 C   0  0  0  0  0  0  0  0  0  0  0  0
    9.8540   -2.9710  -51.9300 N   0  0  0  0  0  0  0  0  0  0  0  0
    9.1870   -1.9700  -52.6030 C   0  0  0  0  0  0  0  0  0  0  0  0
   12.6300   -5.3240  -55.4810 H   0  0  0  0  0  0  0  0  0  0  0  0
   12.3210   -6.3990  -56.6980 H   0  0  0  0  0  0  0  0  0  0  0  0
   13.8680   -6.1520  -56.2110 H   0  0  0  0  0  0  0  0  0  0  0  0
   13.8838   -3.8339  -56.9432 H   0  0  0  0  0  0  0  0  0  0  0  0
   13.5587   -4.9875  -58.2931 H   0  0  0  0  0  0  0  0  0  0  0  0
   11.8620   -3.5423  -58.6880 H   0  0  0  0  0  0  0  0  0  0  0  0
   11.0707   -4.6096  -57.4056 H   0  0  0  0  0  0  0  0  0  0  0  0
   12.4798   -2.1361  -56.5391 H   0  0  0  0  0  0  0  0  0  0  0  0
   10.8399   -2.0218  -57.3464 H   0  0  0  0  0  0  0  0  0  0  0  0
    9.7620   -3.1127  -55.6558 H   0  0  0  0  0  0  0  0  0  0  0  0
   11.3219   -3.8983  -55.0716 H   0  0  0  0  0  0  0  0  0  0  0  0
   11.5839   -2.3723  -53.5253 H   0  0  0  0  0  0  0  0  0  0  0  0
   11.4641   -1.0563  -54.7925 H   0  0  0  0  0  0  0  0  0  0  0  0
    8.0373    1.1491  -56.8456 H   0  0  0  0  0  0  0  0  0  0  0  0
    8.0033    1.7614  -55.1522 H   0  0  0  0  0  0  0  0  0  0  0  0
    9.7014    3.2059  -55.4971 H   0  0  0  0  0  0  0  0  0  0  0  0
   10.5881    1.9889  -56.5649 H   0  0  0  0  0  0  0  0  0  0  0  0
   10.7721    2.2611  -58.8205 H   0  0  0  0  0  0  0  0  0  0  0  0
    9.1139    1.5415  -58.8470 H   0  0  0  0  0  0  0  0  0  0  0  0
    9.6620    2.6187  -61.0289 H   0  0  0  0  0  0  0  0  0  0  0  0
    7.6438    4.0778  -61.1439 H   0  0  0  0  0  0  0  0  0  0  0  0
    7.3128    2.5887  -60.1881 H   0  0  0  0  0  0  0  0  0  0  0  0
    6.3894    4.6115  -59.0562 H   0  0  0  0  0  0  0  0  0  0  0  0
    8.0366    6.2571  -59.9630 H   0  0  0  0  0  0  0  0  0  0  0  0
    7.9813    6.3223  -58.1646 H   0  0  0  0  0  0  0  0  0  0  0  0
   10.3368    6.3591  -58.9980 H   0  0  0  0  0  0  0  0  0  0  0  0
    9.9415    5.0947  -61.1099 H   0  0  0  0  0  0  0  0  0  0  0  0
   11.2422    4.3284  -60.1297 H   0  0  0  0  0  0  0  0  0  0  0  0
   11.1641    4.4407  -57.6319 H   0  0  0  0  0  0  0  0  0  0  0  0
    9.7880    5.2792  -56.8177 H   0  0  0  0  0  0  0  0  0  0  0  0
    7.4936    4.2571  -56.8468 H   0  0  0  0  0  0  0  0  0  0  0  0
    7.2258    2.6904  -57.7035 H   0  0  0  0  0  0  0  0  0  0  0  0
    7.1720    0.8010  -54.1930 H   0  0  0  0  0  0  0  0  0  0  0  0
    6.4386   -1.6453  -50.3955 H   0  0  0  0  0  0  0  0  0  0  0  0
    7.7022   -3.4255  -49.2870 H   0  0  0  0  0  0  0  0  0  0  0  0
    9.8780   -4.2113  -50.3146 H   0  0  0  0  0  0  0  0  0  0  0  0
  1  2  1  0
  2  3  1  0
  3  4  1  0
  4  5  1  0
  5  6  1  0
  6  7  1  0
  7  8  1  0
  8  9  2  0
  9 10  1  0
 10 11  1  0
 12 11  1  1
 12 13  1  0
 13 14  1  0
 14 15  1  0
 15 16  1  0
 16 17  1  0
 17 18  1  0
 18 19  1  0
 18 20  1  0
 16 21  1  0
  8 22  1  0
 22 23  1  0
 23 24  2  0
 24 25  1  0
 25 26  2  0
 26 27  1  0
 27 28  2  0
 28 29  1  0
 29  7  2  0
 20 12  1  0
 29 24  1  0
 21 12  1  0
 19 14  1  0
  1 30  1  0
  1 31  1  0
  1 32  1  0
  2 33  1  0
  2 34  1  0
  3 35  1  0
  3 36  1  0
  4 37  1  0
  4 38  1  0
  5 39  1  0
  5 40  1  0
  6 41  1  0
  6 42  1  0
 10 43  1  0
 10 44  1  0
 11 45  1  0
 11 46  1  0
 13 47  1  0
 13 48  1  0
 14 49  1  6
 15 50  1  0
 15 51  1  0
 16 52  1  6
 17 53  1  0
 17 54  1  0
 18 55  1  1
 19 56  1  0
 19 57  1  0
 20 58  1  0
 20 59  1  0
 21 60  1  0
 21 61  1  0
 22 62  1  0
 25 63  1  0
 26 64  1  0
 27 65  1  0
M  CHG  1   1   1
M  END
>  <meeko>  (357) 
{"is_sidechain": false}

$$$$

     RDKit          3D

 65 69  0  0  0  0  0  0  0  0999 V2000
   12.5600   -6.0240  -56.5170 N   0  0  0  0  0  0  0  0  0  0  0  0
   11.2600   -5.4090  -56.8850 C   0  0  0  0  0  0  0  0  0  0  0  0
   11.5180   -4.1150  -57.6440 C   0  0  0  0  0  0  0  0  0  0  0  0
   11.5080   -2.8860  -56.7340 C   0  0  0  0  0  0  0  0  0  0  0  0
   10.7150   -3.0390  -55.4310 C   0  0  0  0  0  0  0  0  0  0  0  0
   10.9400   -1.8820  -54.4460 C   0  0  0  0  0  0  0  0  0  0  0  0
    9.6520   -1.4880  -53.7670 C   0  0  0  0  0  0  0  0  0  0  0  0
    9.1630   -2.0090  -52.6310 C   0  0  0  0  0  0  0  0  0  0  0  0
    9.7770   -2.9980  -51.8610 N   0  0  0  0  0  0  0  0  0  0  0  0
    9.2690   -3.4150  -50.6510 C   0  0  0  0  0  0  0  0  0  0  0  0
    8.1050   -2.9540  -50.1730 C   0  0  0  0  0  0  0  0  0  0  0  0
    7.3750   -1.9810  -50.9640 C   0  0  0  0  0  0  0  0  0  0  0  0
    7.8700   -1.5190  -52.1320 C   0  0  0  0  0  0  0  0  0  0  0  0
    7.1690   -0.6230  -52.8870 N   0  0  0  0  0  0  0  0  0  0  0  0
    7.6100   -0.1100  -53.9340 N   0  0  0  0  0  0  0  0  0  0  0  0
    8.8780   -0.3720  -54.3940 C   0  0  0  0  0  0  0  0  0  0  0  0
    9.4020    0.2990  -55.3680 N   0  0  0  0  0  0  0  0  0  0  0  0
    8.6500    1.4140  -55.9490 C   0  0  0  0  0  0  0  0  0  0  0  0
    9.5800    2.5800  -56.2970 C   0  0  0  0  0  0  0  0  0  0  0  0
    9.2940    3.3510  -57.6140 C   0  0  2  0  0  0  0  0  0  0  0  0
    9.6420    2.5280  -58.8760 C   0  0  0  0  0  0  0  0  0  0  0  0
    9.2880    3.3050  -60.1570 C   0  0  1  0  0  0  0  0  0  0  0  0
    7.7840    3.6140  -60.1660 C   0  0  0  0  0  0  0  0  0  0  0  0
    7.4160    4.4600  -58.9380 C   0  0  2  0  0  0  0  0  0  0  0  0
    8.2120    5.7740  -58.9650 C   0  0  0  0  0  0  0  0  0  0  0  0
    9.7180    5.4750  -58.9520 C   0  0  2  0  0  0  0  0  0  0  0  0
   10.0770    4.6240  -60.1810 C   0  0  0  0  0  0  0  0  0  0  0  0
   10.0730    4.6930  -57.6740 C   0  0  0  0  0  0  0  0  0  0  0  0
    7.7750    3.6810  -57.6620 C   0  0  0  0  0  0  0  0  0  0  0  0
   13.0780   -6.3540  -57.3420 H   0  0  0  0  0  0  0  0  0  0  0  0
   12.4300   -6.8300  -55.8900 H   0  0  0  0  0  0  0  0  0  0  0  0
   13.1600   -5.3510  -56.0240 H   0  0  0  0  0  0  0  0  0  0  0  0
   10.6916   -6.1026  -57.5221 H   0  0  0  0  0  0  0  0  0  0  0  0
   10.6803   -5.1954  -55.9748 H   0  0  0  0  0  0  0  0  0  0  0  0
   12.5012   -4.1834  -58.1325 H   0  0  0  0  0  0  0  0  0  0  0  0
   10.7075   -3.9924  -58.3775 H   0  0  0  0  0  0  0  0  0  0  0  0
   12.5497   -2.6496  -56.4715 H   0  0  0  0  0  0  0  0  0  0  0  0
   11.0044   -2.0912  -57.3037 H   0  0  0  0  0  0  0  0  0  0  0  0
    9.6439   -3.0853  -55.6771 H   0  0  0  0  0  0  0  0  0  0  0  0
   11.0666   -3.9587  -54.9406 H   0  0  0  0  0  0  0  0  0  0  0  0
   11.6669   -2.1964  -53.6826 H   0  0  0  0  0  0  0  0  0  0  0  0
   11.3186   -1.0147  -55.0067 H   0  0  0  0  0  0  0  0  0  0  0  0
   10.7390   -3.2330  -52.0580 H   0  0  0  0  0  0  0  0  0  0  0  0
    9.8357   -4.1486  -50.0589 H   0  0  0  0  0  0  0  0  0  0  0  0
    7.7133   -3.3040  -49.2065 H   0  0  0  0  0  0  0  0  0  0  0  0
    6.4019   -1.6136  -50.6060 H   0  0  0  0  0  0  0  0  0  0  0  0
    8.1461    1.0700  -56.8643 H   0  0  0  0  0  0  0  0  0  0  0  0
    7.9123    1.7619  -55.2110 H   0  0  0  0  0  0  0  0  0  0  0  0
    9.5244    3.3046  -55.4713 H   0  0  0  0  0  0  0  0  0  0  0  0
   10.5668    2.1182  -56.4489 H   0  0  0  0  0  0  0  0  0  0  0  0
   10.7196    2.3072  -58.8755 H   0  0  0  0  0  0  0  0  0  0  0  0
    9.0575    1.5963  -58.8587 H   0  0  0  0  0  0  0  0  0  0  0  0
    9.5453    2.7011  -61.0397 H   0  0  0  0  0  0  0  0  0  0  0  0
    7.5315    4.1702  -61.0808 H   0  0  0  0  0  0  0  0  0  0  0  0
    7.2204    2.6698  -60.1370 H   0  0  0  0  0  0  0  0  0  0  0  0
    6.3383    4.6800  -58.9520 H   0  0  0  0  0  0  0  0  0  0  0  0
    7.9596    6.3343  -59.8773 H   0  0  0  0  0  0  0  0  0  0  0  0
    7.9543    6.3710  -58.0777 H   0  0  0  0  0  0  0  0  0  0  0  0
   10.2812    6.4196  -58.9761 H   0  0  0  0  0  0  0  0  0  0  0  0
    9.8266    5.1815  -61.0956 H   0  0  0  0  0  0  0  0  0  0  0  0
   11.1539    4.4005  -60.1628 H   0  0  0  0  0  0  0  0  0  0  0  0
   11.1529    4.4837  -57.6676 H   0  0  0  0  0  0  0  0  0  0  0  0
    9.7955    5.3010  -56.8003 H   0  0  0  0  0  0  0  0  0  0  0  0
    7.5120    4.2894  -56.7841 H   0  0  0  0  0  0  0  0  0  0  0  0
    7.2127    2.7356  -57.6609 H   0  0  0  0  0  0  0  0  0  0  0  0
  1  2  1  0
  2  3  1  0
  3  4  1  0
  4  5  1  0
  5  6  1  0
  6  7  1  0
  7  8  2  0
  8  9  1  0
  9 10  1  0
 10 11  2  0
 11 12  1  0
 12 13  2  0
 13 14  1  0
 14 15  2  0
 15 16  1  0
 16 17  2  0
 17 18  1  0
 18 19  1  0
 20 19  1  1
 20 21  1  0
 21 22  1  0
 22 23  1  0
 23 24  1  0
 24 25  1  0
 25 26  1  0
 26 27  1  0
 26 28  1  0
 24 29  1  0
 16  7  1  0
 28 20  1  0
 13  8  1  0
 29 20  1  0
 27 22  1  0
  1 30  1  0
  1 31  1  0
  1 32  1  0
  2 33  1  0
  2 34  1  0
  3 35  1  0
  3 36  1  0
  4 37  1  0
  4 38  1  0
  5 39  1  0
  5 40  1  0
  6 41  1  0
  6 42  1  0
  9 43  1  0
 10 44  1  0
 11 45  1  0
 12 46  1  0
 18 47  1  0
 18 48  1  0
 19 49  1  0
 19 50  1  0
 21 51  1  0
 21 52  1  0
 22 53  1  6
 23 54  1  0
 23 55  1  0
 24 56  1  1
 25 57  1  0
 25 58  1  0
 26 59  1  6
 27 60  1  0
 27 61  1  0
 28 62  1  0
 28 63  1  0
 29 64  1  0
 29 65  1  0
M  CHG  1   1   1
M  END
>  <meeko>  (358) 
{"is_sidechain": false}

$$$$

     RDKit          3D

 74 80  0  0  0  0  0  0  0  0999 V2000
    9.9200    3.7530  -61.3480 C   0  0  0  0  0  0  0  0  0  0  0  0
   10.3870    4.2330  -60.0760 C   0  0  0  0  0  0  0  0  0  0  0  0
    9.7590    3.8940  -58.9360 C   0  0  0  0  0  0  0  0  0  0  0  0
   10.0940    4.5260  -57.7650 N   0  0  0  0  0  0  0  0  0  0  0  0
    9.6670    4.1330  -56.6570 N   0  0  0  0  0  0  0  0  0  0  0  0
    9.0740    2.8990  -56.6320 C   0  0  0  0  0  0  0  0  0  0  0  0
    9.4470    2.0900  -55.7090 N   0  0  0  0  0  0  0  0  0  0  0  0
    8.9590    0.7200  -55.6750 C   0  0  0  0  0  0  0  0  0  0  0  0
    8.0790    0.5500  -54.4330 C   0  0  0  0  0  0  0  0  0  0  0  0
    8.1490   -0.8390  -53.7530 C   0  0  2  0  0  0  0  0  0  0  0  0
    7.6420   -0.8000  -52.2890 C   0  0  0  0  0  0  0  0  0  0  0  0
    7.7720   -2.1840  -51.6280 C   0  0  1  0  0  0  0  0  0  0  0  0
    6.9390   -3.2030  -52.4230 C   0  0  0  0  0  0  0  0  0  0  0  0
    7.4470   -3.2820  -53.8710 C   0  0  2  0  0  0  0  0  0  0  0  0
    8.9220   -3.7110  -53.8690 C   0  0  0  0  0  0  0  0  0  0  0  0
    9.7630   -2.6940  -53.0810 C   0  0  2  0  0  0  0  0  0  0  0  0
    9.2470   -2.6160  -51.6360 C   0  0  0  0  0  0  0  0  0  0  0  0
    9.6300   -1.3110  -53.7390 C   0  0  0  0  0  0  0  0  0  0  0  0
    7.3210   -1.8970  -54.5300 C   0  0  0  0  0  0  0  0  0  0  0  0
    8.0570    2.6730  -57.7280 C   0  0  0  0  0  0  0  0  0  0  0  0
    6.7540    2.0560  -57.3970 C   0  0  0  0  0  0  0  0  0  0  0  0
    5.9500    2.6520  -56.2610 C   0  0  0  0  0  0  0  0  0  0  0  0
    5.4840    2.8310  -57.6700 C   0  0  0  0  0  0  0  0  0  0  0  0
    8.5710    2.9880  -58.9470 C   0  0  0  0  0  0  0  0  0  0  0  0
    8.0920    2.5920  -60.2450 N   0  0  0  0  0  0  0  0  0  0  0  0
    7.0710    1.5490  -60.4540 C   0  0  0  0  0  0  0  0  0  0  0  0
    5.8190    2.1420  -61.1390 C   0  0  0  0  0  0  0  0  0  0  0  0
    4.5410    1.4210  -60.7270 N   0  0  0  0  0  0  0  0  0  0  0  0
    4.2540    0.1800  -61.5800 C   0  0  0  0  0  0  0  0  0  0  0  0
    3.7170    0.5840  -62.9560 C   0  0  0  0  0  0  0  0  0  0  0  0
    2.5320    1.3740  -62.8190 O   0  0  0  0  0  0  0  0  0  0  0  0
    2.7750    2.5900  -62.1040 C   0  0  0  0  0  0  0  0  0  0  0  0
    3.2950    2.3080  -60.6880 C   0  0  0  0  0  0  0  0  0  0  0  0
    8.8140    2.9990  -61.3790 C   0  0  0  0  0  0  0  0  0  0  0  0
   10.4590    3.9995  -62.2747 H   0  0  0  0  0  0  0  0  0  0  0  0
   11.2706    4.8869  -60.0344 H   0  0  0  0  0  0  0  0  0  0  0  0
    8.3683    0.5136  -56.5797 H   0  0  0  0  0  0  0  0  0  0  0  0
    9.8054    0.0185  -55.6369 H   0  0  0  0  0  0  0  0  0  0  0  0
    8.3856    1.3051  -53.6942 H   0  0  0  0  0  0  0  0  0  0  0  0
    7.0414    0.6652  -54.7794 H   0  0  0  0  0  0  0  0  0  0  0  0
    8.2383   -0.0714  -51.7202 H   0  0  0  0  0  0  0  0  0  0  0  0
    6.5813   -0.5087  -52.2911 H   0  0  0  0  0  0  0  0  0  0  0  0
    7.4086   -2.1354  -50.5909 H   0  0  0  0  0  0  0  0  0  0  0  0
    7.0275   -4.1928  -51.9514 H   0  0  0  0  0  0  0  0  0  0  0  0
    5.8862   -2.8842  -52.4267 H   0  0  0  0  0  0  0  0  0  0  0  0
    6.8497   -4.0150  -54.4331 H   0  0  0  0  0  0  0  0  0  0  0  0
    9.0129   -4.7013  -53.3989 H   0  0  0  0  0  0  0  0  0  0  0  0
    9.2869   -3.7559  -54.9057 H   0  0  0  0  0  0  0  0  0  0  0  0
   10.8172   -3.0080  -53.0808 H   0  0  0  0  0  0  0  0  0  0  0  0
    9.3398   -3.6043  -51.1620 H   0  0  0  0  0  0  0  0  0  0  0  0
    9.8428   -1.8780  -51.0788 H   0  0  0  0  0  0  0  0  0  0  0  0
   10.2333   -0.5849  -53.1744 H   0  0  0  0  0  0  0  0  0  0  0  0
    9.9841   -1.3825  -54.7780 H   0  0  0  0  0  0  0  0  0  0  0  0
    7.6902   -1.9551  -55.5646 H   0  0  0  0  0  0  0  0  0  0  0  0
    6.2632   -1.5955  -54.5170 H   0  0  0  0  0  0  0  0  0  0  0  0
    7.1249    1.0541  -57.6591 H   0  0  0  0  0  0  0  0  0  0  0  0
    5.3931    1.9936  -55.5780 H   0  0  0  0  0  0  0  0  0  0  0  0
    6.1736    3.3318  -55.4256 H   0  0  0  0  0  0  0  0  0  0  0  0
    4.5846    2.3043  -58.0216 H   0  0  0  0  0  0  0  0  0  0  0  0
    5.2239    3.6971  -58.2963 H   0  0  0  0  0  0  0  0  0  0  0  0
    7.4898    0.7558  -61.0907 H   0  0  0  0  0  0  0  0  0  0  0  0
    6.7789    1.1381  -59.4763 H   0  0  0  0  0  0  0  0  0  0  0  0
    5.7324    3.2029  -60.8614 H   0  0  0  0  0  0  0  0  0  0  0  0
    5.9395    2.0209  -62.2257 H   0  0  0  0  0  0  0  0  0  0  0  0
    4.6810    1.0660  -59.7720 H   0  0  0  0  0  0  0  0  0  0  0  0
    5.1841   -0.3930  -61.7089 H   0  0  0  0  0  0  0  0  0  0  0  0
    3.4967   -0.4334  -61.0700 H   0  0  0  0  0  0  0  0  0  0  0  0
    4.4829    1.1692  -63.4860 H   0  0  0  0  0  0  0  0  0  0  0  0
    3.4743   -0.3259  -63.5245 H   0  0  0  0  0  0  0  0  0  0  0  0
    3.5237    3.1832  -62.6494 H   0  0  0  0  0  0  0  0  0  0  0  0
    1.8266    3.1413  -62.0229 H   0  0  0  0  0  0  0  0  0  0  0  0
    3.5475    3.2615  -60.2012 H   0  0  0  0  0  0  0  0  0  0  0  0
    2.5093    1.7833  -60.1246 H   0  0  0  0  0  0  0  0  0  0  0  0
    8.4443    2.6751  -62.3631 H   0  0  0  0  0  0  0  0  0  0  0  0
  1  2  1  0
  2  3  2  0
  3  4  1  0
  4  5  2  0
  5  6  1  0
  6  7  2  0
  7  8  1  0
  8  9  1  0
 10  9  1  6
 10 11  1  0
 11 12  1  0
 12 13  1  0
 13 14  1  0
 14 15  1  0
 15 16  1  0
 16 17  1  0
 16 18  1  0
 14 19  1  0
  6 20  1  0
 20 21  1  0
 21 22  1  0
 22 23  1  0
 20 24  2  0
 24 25  1  0
 25 26  1  0
 26 27  1  0
 27 28  1  0
 28 29  1  0
 29 30  1  0
 30 31  1  0
 31 32  1  0
 32 33  1  0
 25 34  1  0
 34  1  2  0
 24  3  1  0
 33 28  1  0
 18 10  1  0
 23 21  1  0
 19 10  1  0
 17 12  1  0
  1 35  1  0
  2 36  1  0
  8 37  1  0
  8 38  1  0
  9 39  1  0
  9 40  1  0
 11 41  1  0
 11 42  1  0
 12 43  1  1
 13 44  1  0
 13 45  1  0
 14 46  1  6
 15 47  1  0
 15 48  1  0
 16 49  1  1
 17 50  1  0
 17 51  1  0
 18 52  1  0
 18 53  1  0
 19 54  1  0
 19 55  1  0
 21 56  1  0
 22 57  1  0
 22 58  1  0
 23 59  1  0
 23 60  1  0
 26 61  1  0
 26 62  1  0
 27 63  1  0
 27 64  1  0
 28 65  1  0
 29 66  1  0
 29 67  1  0
 30 68  1  0
 30 69  1  0
 32 70  1  0
 32 71  1  0
 33 72  1  0
 33 73  1  0
 34 74  1  0
M  CHG  1  28   1
M  END
>  <meeko>  (359) 
{"is_sidechain": false}

$$$$

     RDKit          3D

 58 63  0  0  0  0  0  0  0  0999 V2000
   10.7500    1.1500  -56.8720 C   0  0  0  0  0  0  0  0  0  0  0  0
    9.9480    2.4210  -57.0410 C   0  0  0  0  0  0  0  0  0  0  0  0
    8.6700    2.3140  -57.8270 C   0  0  0  0  0  0  0  0  0  0  0  0
    7.3130    2.0260  -57.1800 C   0  0  0  0  0  0  0  0  0  0  0  0
    7.0450    1.4610  -56.0480 N   0  0  0  0  0  0  0  0  0  0  0  0
    8.0280    0.8530  -55.1730 C   0  0  0  0  0  0  0  0  0  0  0  0
    7.2720    0.1100  -54.0650 C   0  0  0  0  0  0  0  0  0  0  0  0
    7.9040   -1.2250  -53.5970 C   0  0  2  0  0  0  0  0  0  0  0  0
    7.2350   -2.4500  -54.2690 C   0  0  0  0  0  0  0  0  0  0  0  0
    7.9220   -3.7570  -53.8310 C   0  0  1  0  0  0  0  0  0  0  0  0
    9.4040   -3.7120  -54.2330 C   0  0  0  0  0  0  0  0  0  0  0  0
   10.0980   -2.5220  -53.5540 C   0  0  2  0  0  0  0  0  0  0  0  0
    9.9810   -2.6650  -52.0290 C   0  0  0  0  0  0  0  0  0  0  0  0
    8.5020   -2.7040  -51.6170 C   0  0  2  0  0  0  0  0  0  0  0  0
    7.8160   -3.8970  -52.3040 C   0  0  0  0  0  0  0  0  0  0  0  0
    7.8120   -1.4000  -52.0600 C   0  0  0  0  0  0  0  0  0  0  0  0
    9.4070   -1.2200  -53.9920 C   0  0  0  0  0  0  0  0  0  0  0  0
    6.1760    2.3770  -57.8800 N   0  0  0  0  0  0  0  0  0  0  0  0
    6.0900    2.4880  -59.2270 N   0  0  0  0  0  0  0  0  0  0  0  0
    7.2350    2.5350  -59.8370 C   0  0  0  0  0  0  0  0  0  0  0  0
    7.2250    2.6590  -61.3210 C   0  0  0  0  0  0  0  0  0  0  0  0
    8.3630    2.8000  -62.0100 C   0  0  0  0  0  0  0  0  0  0  0  0
    9.6450    2.8410  -61.3590 C   0  0  0  0  0  0  0  0  0  0  0  0
    9.7590    2.7020  -60.0310 C   0  0  0  0  0  0  0  0  0  0  0  0
    8.5950    2.5000  -59.1720 C   0  0  0  0  0  0  0  0  0  0  0  0
   10.7610    3.7030  -57.2450 C   0  0  0  0  0  0  0  0  0  0  0  0
   10.0370    3.4940  -55.9630 C   0  0  0  0  0  0  0  0  0  0  0  0
   10.8826    0.9399  -55.8004 H   0  0  0  0  0  0  0  0  0  0  0  0
   10.2158    0.3136  -57.3463 H   0  0  0  0  0  0  0  0  0  0  0  0
   11.7349    1.2721  -57.3463 H   0  0  0  0  0  0  0  0  0  0  0  0
    8.6489    0.1454  -55.7420 H   0  0  0  0  0  0  0  0  0  0  0  0
    8.6860    1.6214  -54.7410 H   0  0  0  0  0  0  0  0  0  0  0  0
    7.2089    0.7777  -53.1931 H   0  0  0  0  0  0  0  0  0  0  0  0
    6.2955   -0.1561  -54.4958 H   0  0  0  0  0  0  0  0  0  0  0  0
    6.1743   -2.4856  -53.9796 H   0  0  0  0  0  0  0  0  0  0  0  0
    7.3310   -2.3497  -55.3602 H   0  0  0  0  0  0  0  0  0  0  0  0
    7.4326   -4.6134  -54.3179 H   0  0  0  0  0  0  0  0  0  0  0  0
    9.8944   -4.6459  -53.9209 H   0  0  0  0  0  0  0  0  0  0  0  0
    9.4781   -3.5977  -55.3245 H   0  0  0  0  0  0  0  0  0  0  0  0
   11.1592   -2.4990  -53.8426 H   0  0  0  0  0  0  0  0  0  0  0  0
   10.4722   -3.5967  -51.7117 H   0  0  0  0  0  0  0  0  0  0  0  0
   10.4674   -1.8040  -51.5472 H   0  0  0  0  0  0  0  0  0  0  0  0
    8.4267   -2.8090  -50.5246 H   0  0  0  0  0  0  0  0  0  0  0  0
    8.3063   -4.8299  -51.9889 H   0  0  0  0  0  0  0  0  0  0  0  0
    6.7545   -3.9176  -52.0163 H   0  0  0  0  0  0  0  0  0  0  0  0
    6.7533   -1.4331  -51.7633 H   0  0  0  0  0  0  0  0  0  0  0  0
    8.3179   -0.5510  -51.5770 H   0  0  0  0  0  0  0  0  0  0  0  0
    9.9038   -0.3680  -53.5049 H   0  0  0  0  0  0  0  0  0  0  0  0
    9.4807   -1.1360  -55.0863 H   0  0  0  0  0  0  0  0  0  0  0  0
    5.3250    2.0980  -57.3950 H   0  0  0  0  0  0  0  0  0  0  0  0
    6.2661    2.6342  -61.8595 H   0  0  0  0  0  0  0  0  0  0  0  0
    8.3170    2.8871  -63.1056 H   0  0  0  0  0  0  0  0  0  0  0  0
   10.5514    2.9897  -61.9643 H   0  0  0  0  0  0  0  0  0  0  0  0
   10.7589    2.7412  -59.5742 H   0  0  0  0  0  0  0  0  0  0  0  0
   11.8598    3.6576  -57.2679 H   0  0  0  0  0  0  0  0  0  0  0  0
   10.7756    4.4978  -58.0053 H   0  0  0  0  0  0  0  0  0  0  0  0
   10.6035    3.2970  -55.0409 H   0  0  0  0  0  0  0  0  0  0  0  0
    9.2988    4.0751  -55.3908 H   0  0  0  0  0  0  0  0  0  0  0  0
  1  2  1  0
  2  3  1  0
  3  4  1  0
  4  5  2  0
  5  6  1  0
  6  7  1  0
  8  7  1  1
  8  9  1  0
  9 10  1  0
 10 11  1  0
 11 12  1  0
 12 13  1  0
 13 14  1  0
 14 15  1  0
 14 16  1  0
 12 17  1  0
  4 18  1  0
 18 19  1  0
 19 20  2  0
 20 21  1  0
 21 22  2  0
 22 23  1  0
 23 24  2  0
 24 25  1  0
  2 26  1  0
 26 27  1  0
 27  2  1  0
 25  3  2  0
 16  8  1  0
 25 20  1  0
 17  8  1  0
 15 10  1  0
  1 28  1  0
  1 29  1  0
  1 30  1  0
  6 31  1  0
  6 32  1  0
  7 33  1  0
  7 34  1  0
  9 35  1  0
  9 36  1  0
 10 37  1  6
 11 38  1  0
 11 39  1  0
 12 40  1  1
 13 41  1  0
 13 42  1  0
 14 43  1  1
 15 44  1  0
 15 45  1  0
 16 46  1  0
 16 47  1  0
 17 48  1  0
 17 49  1  0
 18 50  1  0
 21 51  1  0
 22 52  1  0
 23 53  1  0
 24 54  1  0
 26 55  1  0
 26 56  1  0
 27 57  1  0
 27 58  1  0
M  END
>  <meeko>  (360) 
{"is_sidechain": false}

$$$$

     RDKit          3D

 58 63  0  0  0  0  0  0  0  0999 V2000
    6.3410   -1.8690  -54.5900 C   0  0  0  0  0  0  0  0  0  0  0  0
    6.8680   -0.5650  -54.0360 C   0  0  0  0  0  0  0  0  0  0  0  0
    7.8280    0.1940  -54.9810 C   0  0  0  0  0  0  0  0  0  0  0  0
    9.2230   -0.0330  -54.9510 C   0  0  0  0  0  0  0  0  0  0  0  0
    9.7510   -0.9770  -54.0400 N   0  0  0  0  0  0  0  0  0  0  0  0
   10.8340   -1.8250  -54.5400 C   0  0  0  0  0  0  0  0  0  0  0  0
   10.2970   -3.2070  -54.9340 C   0  0  0  0  0  0  0  0  0  0  0  0
   11.1480   -3.9920  -55.9630 C   0  0  2  0  0  0  0  0  0  0  0  0
   12.2610   -4.8270  -55.2820 C   0  0  0  0  0  0  0  0  0  0  0  0
   13.1210   -5.5490  -56.3350 C   0  0  1  0  0  0  0  0  0  0  0  0
   12.2250   -6.4830  -57.1650 C   0  0  0  0  0  0  0  0  0  0  0  0
   11.1310   -5.6680  -57.8750 C   0  0  2  0  0  0  0  0  0  0  0  0
   11.7890   -4.6300  -58.7970 C   0  0  0  0  0  0  0  0  0  0  0  0
   12.6840   -3.6900  -57.9740 C   0  0  2  0  0  0  0  0  0  0  0  0
   13.7710   -4.5120  -57.2630 C   0  0  0  0  0  0  0  0  0  0  0  0
   11.8260   -2.9720  -56.9200 C   0  0  0  0  0  0  0  0  0  0  0  0
   10.2740   -4.9440  -56.8200 C   0  0  0  0  0  0  0  0  0  0  0  0
   10.0570    0.6590  -55.7550 N   0  0  0  0  0  0  0  0  0  0  0  0
    9.5830    1.5760  -56.6530 N   0  0  0  0  0  0  0  0  0  0  0  0
    8.2730    1.8050  -56.7600 C   0  0  0  0  0  0  0  0  0  0  0  0
    7.8310    2.7280  -57.7020 C   0  0  0  0  0  0  0  0  0  0  0  0
    6.4770    3.0050  -57.8780 C   0  0  0  0  0  0  0  0  0  0  0  0
    5.5410    2.3430  -57.1000 C   0  0  0  0  0  0  0  0  0  0  0  0
    5.9700    1.4160  -56.1480 C   0  0  0  0  0  0  0  0  0  0  0  0
    7.3430    1.1290  -55.9480 C   0  0  0  0  0  0  0  0  0  0  0  0
    5.9490    0.2420  -53.1280 C   0  0  0  0  0  0  0  0  0  0  0  0
    7.1030   -0.4940  -52.5330 C   0  0  0  0  0  0  0  0  0  0  0  0
    6.0708   -2.5377  -53.7594 H   0  0  0  0  0  0  0  0  0  0  0  0
    5.4517   -1.6726  -55.2068 H   0  0  0  0  0  0  0  0  0  0  0  0
    7.1171   -2.3456  -55.2068 H   0  0  0  0  0  0  0  0  0  0  0  0
    8.9810   -1.5230  -53.6670 H   0  0  0  0  0  0  0  0  0  0  0  0
   11.2890   -1.3489  -55.4211 H   0  0  0  0  0  0  0  0  0  0  0  0
   11.5845   -1.9486  -53.7453 H   0  0  0  0  0  0  0  0  0  0  0  0
   10.2268   -3.8150  -54.0200 H   0  0  0  0  0  0  0  0  0  0  0  0
    9.3296   -3.0232  -55.4242 H   0  0  0  0  0  0  0  0  0  0  0  0
   12.9022   -4.1584  -54.6889 H   0  0  0  0  0  0  0  0  0  0  0  0
   11.7908   -5.5802  -54.6326 H   0  0  0  0  0  0  0  0  0  0  0  0
   13.9050   -6.1349  -55.8329 H   0  0  0  0  0  0  0  0  0  0  0  0
   12.8376   -7.0027  -57.9164 H   0  0  0  0  0  0  0  0  0  0  0  0
   11.7518   -7.2175  -56.4967 H   0  0  0  0  0  0  0  0  0  0  0  0
   10.4953   -6.3393  -58.4709 H   0  0  0  0  0  0  0  0  0  0  0  0
   12.4002   -5.1477  -59.5510 H   0  0  0  0  0  0  0  0  0  0  0  0
   11.0052   -4.0396  -59.2942 H   0  0  0  0  0  0  0  0  0  0  0  0
   13.1549   -2.9519  -58.6399 H   0  0  0  0  0  0  0  0  0  0  0  0
   14.3861   -5.0296  -58.0138 H   0  0  0  0  0  0  0  0  0  0  0  0
   14.4018   -3.8373  -56.6656 H   0  0  0  0  0  0  0  0  0  0  0  0
   12.4674   -2.2989  -56.3321 H   0  0  0  0  0  0  0  0  0  0  0  0
   11.0403   -2.4020  -57.4375 H   0  0  0  0  0  0  0  0  0  0  0  0
    9.4940   -4.3583  -57.3285 H   0  0  0  0  0  0  0  0  0  0  0  0
    9.8173   -5.6955  -56.1592 H   0  0  0  0  0  0  0  0  0  0  0  0
    8.5702    3.2533  -58.3246 H   0  0  0  0  0  0  0  0  0  0  0  0
    6.1541    3.7424  -58.6276 H   0  0  0  0  0  0  0  0  0  0  0  0
    4.4679    2.5462  -57.2313 H   0  0  0  0  0  0  0  0  0  0  0  0
    5.2204    0.8935  -55.5356 H   0  0  0  0  0  0  0  0  0  0  0  0
    5.9631    1.3411  -53.1709 H   0  0  0  0  0  0  0  0  0  0  0  0
    4.8647    0.2606  -52.9435 H   0  0  0  0  0  0  0  0  0  0  0  0
    7.9648    0.0645  -52.1387 H   0  0  0  0  0  0  0  0  0  0  0  0
    7.2155   -1.2388  -51.7313 H   0  0  0  0  0  0  0  0  0  0  0  0
  1  2  1  0
  2  3  1  0
  3  4  2  0
  4  5  1  0
  5  6  1  0
  6  7  1  0
  8  7  1  1
  8  9  1  0
  9 10  1  0
 10 11  1  0
 11 12  1  0
 12 13  1  0
 13 14  1  0
 14 15  1  0
 14 16  1  0
 12 17  1  0
  4 18  1  0
 18 19  2  0
 19 20  1  0
 20 21  2  0
 21 22  1  0
 22 23  2  0
 23 24  1  0
 24 25  2  0
  2 26  1  0
 26 27  1  0
 27  2  1  0
 25  3  1  0
 16  8  1  0
 25 20  1  0
 17  8  1  0
 15 10  1  0
  1 28  1  0
  1 29  1  0
  1 30  1  0
  5 31  1  0
  6 32  1  0
  6 33  1  0
  7 34  1  0
  7 35  1  0
  9 36  1  0
  9 37  1  0
 10 38  1  1
 11 39  1  0
 11 40  1  0
 12 41  1  6
 13 42  1  0
 13 43  1  0
 14 44  1  6
 15 45  1  0
 15 46  1  0
 16 47  1  0
 16 48  1  0
 17 49  1  0
 17 50  1  0
 21 51  1  0
 22 52  1  0
 23 53  1  0
 24 54  1  0
 26 55  1  0
 26 56  1  0
 27 57  1  0
 27 58  1  0
M  END
>  <meeko>  (361) 
{"is_sidechain": false}

$$$$

     RDKit          3D

 58 63  0  0  0  0  0  0  0  0999 V2000
    6.2610   -1.7980  -54.5990 C   0  0  0  0  0  0  0  0  0  0  0  0
    6.9160   -0.5560  -54.0470 C   0  0  0  0  0  0  0  0  0  0  0  0
    7.8980    0.1160  -54.9650 C   0  0  0  0  0  0  0  0  0  0  0  0
    9.3480   -0.3670  -55.0130 C   0  0  0  0  0  0  0  0  0  0  0  0
    9.6360   -1.3950  -54.2770 N   0  0  0  0  0  0  0  0  0  0  0  0
   10.9780   -1.9690  -54.2560 C   0  0  0  0  0  0  0  0  0  0  0  0
   10.8850   -3.4910  -54.3930 C   0  0  0  0  0  0  0  0  0  0  0  0
   11.4790   -4.0900  -55.6910 C   0  0  2  0  0  0  0  0  0  0  0  0
   12.6600   -5.0230  -55.3060 C   0  0  0  0  0  0  0  0  0  0  0  0
   13.2990   -5.6490  -56.5570 C   0  0  1  0  0  0  0  0  0  0  0  0
   12.2370   -6.4680  -57.3080 C   0  0  0  0  0  0  0  0  0  0  0  0
   11.0720   -5.5570  -57.7270 C   0  0  2  0  0  0  0  0  0  0  0  0
   11.6060   -4.4380  -58.6370 C   0  0  0  0  0  0  0  0  0  0  0  0
   12.6640   -3.6100  -57.8890 C   0  0  2  0  0  0  0  0  0  0  0  0
   13.8220   -4.5290  -57.4690 C   0  0  0  0  0  0  0  0  0  0  0  0
   12.0250   -2.9870  -56.6340 C   0  0  0  0  0  0  0  0  0  0  0  0
   10.4370   -4.9300  -56.4730 C   0  0  0  0  0  0  0  0  0  0  0  0
   10.2440    0.3020  -55.8210 N   0  0  0  0  0  0  0  0  0  0  0  0
    9.9620    1.3270  -56.6590 N   0  0  0  0  0  0  0  0  0  0  0  0
    8.7190    1.6990  -56.6710 C   0  0  0  0  0  0  0  0  0  0  0  0
    8.3400    2.8180  -57.5810 C   0  0  0  0  0  0  0  0  0  0  0  0
    7.0750    3.2470  -57.6600 C   0  0  0  0  0  0  0  0  0  0  0  0
    6.0190    2.6520  -56.8840 C   0  0  0  0  0  0  0  0  0  0  0  0
    6.2630    1.6500  -56.0290 C   0  0  0  0  0  0  0  0  0  0  0  0
    7.6050    1.1100  -55.8380 C   0  0  0  0  0  0  0  0  0  0  0  0
    6.1190    0.3130  -53.0830 C   0  0  0  0  0  0  0  0  0  0  0  0
    7.2270   -0.5380  -52.5570 C   0  0  0  0  0  0  0  0  0  0  0  0
    5.9248   -2.4355  -53.7680 H   0  0  0  0  0  0  0  0  0  0  0  0
    5.3959   -1.5131  -55.2157 H   0  0  0  0  0  0  0  0  0  0  0  0
    6.9848   -2.3510  -55.2157 H   0  0  0  0  0  0  0  0  0  0  0  0
   11.5644   -1.5608  -55.0924 H   0  0  0  0  0  0  0  0  0  0  0  0
   11.4698   -1.7161  -53.3051 H   0  0  0  0  0  0  0  0  0  0  0  0
   11.4166   -3.9393  -53.5407 H   0  0  0  0  0  0  0  0  0  0  0  0
    9.8100   -3.7223  -54.4229 H   0  0  0  0  0  0  0  0  0  0  0  0
   13.4204   -4.4375  -54.7685 H   0  0  0  0  0  0  0  0  0  0  0  0
   12.2739   -5.8317  -54.6680 H   0  0  0  0  0  0  0  0  0  0  0  0
   14.1320   -6.3052  -56.2646 H   0  0  0  0  0  0  0  0  0  0  0  0
   12.6895   -6.9168  -58.2046 H   0  0  0  0  0  0  0  0  0  0  0  0
   11.8567   -7.2603  -56.6465 H   0  0  0  0  0  0  0  0  0  0  0  0
   10.3175   -6.1478  -58.2670 H   0  0  0  0  0  0  0  0  0  0  0  0
   12.0602   -4.8840  -59.5341 H   0  0  0  0  0  0  0  0  0  0  0  0
   10.7729   -3.7809  -58.9272 H   0  0  0  0  0  0  0  0  0  0  0  0
   13.0447   -2.8128  -58.5445 H   0  0  0  0  0  0  0  0  0  0  0  0
   14.2786   -4.9729  -58.3659 H   0  0  0  0  0  0  0  0  0  0  0  0
   14.5719   -3.9384  -56.9222 H   0  0  0  0  0  0  0  0  0  0  0  0
   12.7830   -2.3967  -56.0982 H   0  0  0  0  0  0  0  0  0  0  0  0
   11.1894   -2.3431  -56.9456 H   0  0  0  0  0  0  0  0  0  0  0  0
    9.6040   -4.2792  -56.7773 H   0  0  0  0  0  0  0  0  0  0  0  0
   10.0729   -5.7372  -55.8205 H   0  0  0  0  0  0  0  0  0  0  0  0
   11.2100   -0.0050  -55.8050 H   0  0  0  0  0  0  0  0  0  0  0  0
    9.1135    3.2989  -58.1978 H   0  0  0  0  0  0  0  0  0  0  0  0
    6.8351    4.0792  -58.3382 H   0  0  0  0  0  0  0  0  0  0  0  0
    4.9911    3.0275  -56.9952 H   0  0  0  0  0  0  0  0  0  0  0  0
    5.4280    1.2222  -55.4547 H   0  0  0  0  0  0  0  0  0  0  0  0
    6.2326    1.4068  -53.1088 H   0  0  0  0  0  0  0  0  0  0  0  0
    5.0510    0.4271  -52.8458 H   0  0  0  0  0  0  0  0  0  0  0  0
    8.1544   -0.0691  -52.1962 H   0  0  0  0  0  0  0  0  0  0  0  0
    7.3077   -1.3064  -51.7740 H   0  0  0  0  0  0  0  0  0  0  0  0
  1  2  1  0
  2  3  1  0
  3  4  1  0
  4  5  2  0
  5  6  1  0
  6  7  1  0
  8  7  1  1
  8  9  1  0
  9 10  1  0
 10 11  1  0
 11 12  1  0
 12 13  1  0
 13 14  1  0
 14 15  1  0
 14 16  1  0
 12 17  1  0
  4 18  1  0
 18 19  1  0
 19 20  2  0
 20 21  1  0
 21 22  2  0
 22 23  1  0
 23 24  2  0
 24 25  1  0
  2 26  1  0
 26 27  1  0
 27  2  1  0
 25  3  2  0
 16  8  1  0
 25 20  1  0
 17  8  1  0
 15 10  1  0
  1 28  1  0
  1 29  1  0
  1 30  1  0
  6 31  1  0
  6 32  1  0
  7 33  1  0
  7 34  1  0
  9 35  1  0
  9 36  1  0
 10 37  1  1
 11 38  1  0
 11 39  1  0
 12 40  1  6
 13 41  1  0
 13 42  1  0
 14 43  1  6
 15 44  1  0
 15 45  1  0
 16 46  1  0
 16 47  1  0
 17 48  1  0
 17 49  1  0
 18 50  1  0
 21 51  1  0
 22 52  1  0
 23 53  1  0
 24 54  1  0
 26 55  1  0
 26 56  1  0
 27 57  1  0
 27 58  1  0
M  END
>  <meeko>  (362) 
{"is_sidechain": false}

$$$$

     RDKit          3D

 53 56  0  0  0  0  0  0  0  0999 V2000
    9.0670    2.8800  -56.1080 C   0  0  0  0  0  0  0  0  0  0  0  0
    8.5280    1.4930  -55.8780 C   0  0  0  0  0  0  0  0  0  0  0  0
    7.5980    1.0590  -57.0160 C   0  0  0  0  0  0  0  0  0  0  0  0
    6.3500    1.7960  -56.9000 N   0  0  0  0  0  0  0  0  0  0  0  0
    5.8010    2.3680  -57.9060 C   0  0  0  0  0  0  0  0  0  0  0  0
    4.5380    2.8710  -57.6790 N   0  0  0  0  0  0  0  0  0  0  0  0
    3.6440    2.5890  -58.5140 N   0  0  0  0  0  0  0  0  0  0  0  0
    3.9570    2.1620  -59.7790 C   0  0  0  0  0  0  0  0  0  0  0  0
    3.0070    1.7600  -60.6490 C   0  0  0  0  0  0  0  0  0  0  0  0
    3.3340    1.5110  -62.0420 C   0  0  0  0  0  0  0  0  0  0  0  0
    4.5730    1.8020  -62.4660 C   0  0  0  0  0  0  0  0  0  0  0  0
    5.5430    2.2790  -61.6130 N   0  0  0  0  0  0  0  0  0  0  0  0
    5.3500    2.3420  -60.2350 C   0  0  0  0  0  0  0  0  0  0  0  0
    6.3000    2.5670  -59.3050 C   0  0  0  0  0  0  0  0  0  0  0  0
    7.7310    2.9980  -59.5450 C   0  0  0  0  0  0  0  0  0  0  0  0
    7.8360    4.5190  -59.7690 C   0  0  0  0  0  0  0  0  0  0  0  0
    9.2910    4.9850  -59.8620 C   0  0  0  0  0  0  0  0  0  0  0  0
   10.2050    4.0030  -60.5950 C   0  0  0  0  0  0  0  0  0  0  0  0
    9.4270    3.0410  -61.4800 C   0  0  0  0  0  0  0  0  0  0  0  0
    8.4440    2.2020  -60.6620 C   0  0  0  0  0  0  0  0  0  0  0  0
   10.2180    3.1860  -56.7300 C   0  0  0  0  0  0  0  0  0  0  0  0
   10.7150    4.5950  -56.9140 C   0  0  0  0  0  0  0  0  0  0  0  0
   12.1880    4.4000  -57.2510 C   0  0  0  0  0  0  0  0  0  0  0  0
   12.2060    3.0980  -58.0380 C   0  0  0  0  0  0  0  0  0  0  0  0
   11.2100    2.2080  -57.3030 C   0  0  0  0  0  0  0  0  0  0  0  0
    8.4633    3.7194  -55.7325 H   0  0  0  0  0  0  0  0  0  0  0  0
    9.3698    0.7877  -55.8150 H   0  0  0  0  0  0  0  0  0  0  0  0
    7.9510    1.4966  -54.9415 H   0  0  0  0  0  0  0  0  0  0  0  0
    8.0699    1.2790  -57.9849 H   0  0  0  0  0  0  0  0  0  0  0  0
    7.4041   -0.0219  -56.9522 H   0  0  0  0  0  0  0  0  0  0  0  0
    1.9736    1.6194  -60.2993 H   0  0  0  0  0  0  0  0  0  0  0  0
    2.5850    1.0945  -62.7316 H   0  0  0  0  0  0  0  0  0  0  0  0
    4.8216    1.6551  -63.5274 H   0  0  0  0  0  0  0  0  0  0  0  0
    6.4900    2.3260  -61.9680 H   0  0  0  0  0  0  0  0  0  0  0  0
    8.2736    2.7536  -58.6198 H   0  0  0  0  0  0  0  0  0  0  0  0
    7.3199    4.7766  -60.7056 H   0  0  0  0  0  0  0  0  0  0  0  0
    7.3720    5.0224  -58.9080 H   0  0  0  0  0  0  0  0  0  0  0  0
    9.3143    5.9462  -60.3963 H   0  0  0  0  0  0  0  0  0  0  0  0
    9.6684    5.0681  -58.8321 H   0  0  0  0  0  0  0  0  0  0  0  0
   10.9058    4.5730  -61.2226 H   0  0  0  0  0  0  0  0  0  0  0  0
   10.7366    3.4084  -59.8375 H   0  0  0  0  0  0  0  0  0  0  0  0
    8.8669    3.6182  -62.2304 H   0  0  0  0  0  0  0  0  0  0  0  0
   10.1425    2.3610  -61.9654 H   0  0  0  0  0  0  0  0  0  0  0  0
    7.6803    1.7986  -61.3432 H   0  0  0  0  0  0  0  0  0  0  0  0
    9.0274    1.4092  -60.1710 H   0  0  0  0  0  0  0  0  0  0  0  0
   10.1846    5.0966  -57.7368 H   0  0  0  0  0  0  0  0  0  0  0  0
   10.5538    5.2295  -56.0300 H   0  0  0  0  0  0  0  0  0  0  0  0
   12.5647    5.2335  -57.8621 H   0  0  0  0  0  0  0  0  0  0  0  0
   12.8300    4.3686  -56.3584 H   0  0  0  0  0  0  0  0  0  0  0  0
   11.8877    3.2652  -59.0776 H   0  0  0  0  0  0  0  0  0  0  0  0
   13.2099    2.6520  -58.0951 H   0  0  0  0  0  0  0  0  0  0  0  0
   10.7183    1.5113  -57.9979 H   0  0  0  0  0  0  0  0  0  0  0  0
   11.6839    1.5796  -56.5345 H   0  0  0  0  0  0  0  0  0  0  0  0
  1  2  1  0
  2  3  1  0
  3  4  1  0
  4  5  2  0
  5  6  1  0
  6  7  2  0
  7  8  1  0
  8  9  2  0
  9 10  1  0
 10 11  2  0
 11 12  1  0
 12 13  1  0
 13 14  2  0
 14 15  1  0
 15 16  1  0
 16 17  1  0
 17 18  1  0
 18 19  1  0
 19 20  1  0
  1 21  2  3
 21 22  1  0
 22 23  1  0
 23 24  1  0
 24 25  1  0
 14  5  1  0
 20 15  1  0
 25 21  1  0
 13  8  1  0
  1 26  1  0
  2 27  1  0
  2 28  1  0
  3 29  1  0
  3 30  1  0
  9 31  1  0
 10 32  1  0
 11 33  1  0
 12 34  1  0
 15 35  1  0
 16 36  1  0
 16 37  1  0
 17 38  1  0
 17 39  1  0
 18 40  1  0
 18 41  1  0
 19 42  1  0
 19 43  1  0
 20 44  1  0
 20 45  1  0
 22 46  1  0
 22 47  1  0
 23 48  1  0
 23 49  1  0
 24 50  1  0
 24 51  1  0
 25 52  1  0
 25 53  1  0
M  END
>  <meeko>  (363) 
{"is_sidechain": false}

$$$$

     RDKit          3D

 53 56  0  0  0  0  0  0  0  0999 V2000
    8.7560    2.8380  -56.3490 C   0  0  0  0  0  0  0  0  0  0  0  0
    8.1650    1.4550  -56.2430 C   0  0  0  0  0  0  0  0  0  0  0  0
    6.6470    1.4200  -56.4730 C   0  0  0  0  0  0  0  0  0  0  0  0
    6.1860    2.6660  -57.0940 N   0  0  0  0  0  0  0  0  0  0  0  0
    5.4060    2.4930  -58.2590 C   0  0  0  0  0  0  0  0  0  0  0  0
    4.0770    2.2970  -58.1410 N   0  0  0  0  0  0  0  0  0  0  0  0
    3.2910    2.1050  -59.2340 N   0  0  0  0  0  0  0  0  0  0  0  0
    3.8360    2.1140  -60.4530 C   0  0  0  0  0  0  0  0  0  0  0  0
    3.0280    1.9030  -61.5620 C   0  0  0  0  0  0  0  0  0  0  0  0
    3.5610    1.9020  -62.8450 C   0  0  0  0  0  0  0  0  0  0  0  0
    4.9150    2.1160  -62.9680 C   0  0  0  0  0  0  0  0  0  0  0  0
    5.7310    2.3250  -61.9130 N   0  0  0  0  0  0  0  0  0  0  0  0
    5.2090    2.3300  -60.6600 C   0  0  0  0  0  0  0  0  0  0  0  0
    6.0130    2.5440  -59.5270 C   0  0  0  0  0  0  0  0  0  0  0  0
    7.5080    2.8370  -59.6640 C   0  0  0  0  0  0  0  0  0  0  0  0
    8.2340    1.8000  -60.5410 C   0  0  0  0  0  0  0  0  0  0  0  0
    9.7370    2.0770  -60.6060 C   0  0  0  0  0  0  0  0  0  0  0  0
   10.0280    3.5060  -61.0580 C   0  0  0  0  0  0  0  0  0  0  0  0
    9.3210    4.5320  -60.1800 C   0  0  0  0  0  0  0  0  0  0  0  0
    7.8140    4.2780  -60.1170 C   0  0  0  0  0  0  0  0  0  0  0  0
    9.9980    3.1360  -56.7630 C   0  0  0  0  0  0  0  0  0  0  0  0
   11.0410    2.1590  -57.2390 C   0  0  0  0  0  0  0  0  0  0  0  0
   12.2870    3.0210  -57.4140 C   0  0  0  0  0  0  0  0  0  0  0  0
   11.7390    4.3950  -57.7700 C   0  0  0  0  0  0  0  0  0  0  0  0
   10.5280    4.5440  -56.8600 C   0  0  0  0  0  0  0  0  0  0  0  0
    8.1102    3.6805  -56.0606 H   0  0  0  0  0  0  0  0  0  0  0  0
    8.6462    0.8118  -56.9945 H   0  0  0  0  0  0  0  0  0  0  0  0
    8.3457    1.1030  -55.2166 H   0  0  0  0  0  0  0  0  0  0  0  0
    6.4016    0.5754  -57.1336 H   0  0  0  0  0  0  0  0  0  0  0  0
    6.1455    1.3037  -55.5009 H   0  0  0  0  0  0  0  0  0  0  0  0
    6.9770    3.2590  -57.3330 H   0  0  0  0  0  0  0  0  0  0  0  0
    1.9500    1.7341  -61.4229 H   0  0  0  0  0  0  0  0  0  0  0  0
    2.9259    1.7367  -63.7278 H   0  0  0  0  0  0  0  0  0  0  0  0
    5.3543    2.1168  -63.9765 H   0  0  0  0  0  0  0  0  0  0  0  0
    7.9127    2.7448  -58.6453 H   0  0  0  0  0  0  0  0  0  0  0  0
    8.0730    0.7977  -60.1173 H   0  0  0  0  0  0  0  0  0  0  0  0
    7.8263    1.8634  -61.5607 H   0  0  0  0  0  0  0  0  0  0  0  0
   10.1715    1.9234  -59.6072 H   0  0  0  0  0  0  0  0  0  0  0  0
   10.1817    1.3879  -61.3390 H   0  0  0  0  0  0  0  0  0  0  0  0
   11.1128    3.6815  -61.0078 H   0  0  0  0  0  0  0  0  0  0  0  0
    9.6561    3.6218  -62.0867 H   0  0  0  0  0  0  0  0  0  0  0  0
    9.7350    4.4764  -59.1624 H   0  0  0  0  0  0  0  0  0  0  0  0
    9.4835    5.5283  -60.6170 H   0  0  0  0  0  0  0  0  0  0  0  0
    7.3614    4.9819  -59.4031 H   0  0  0  0  0  0  0  0  0  0  0  0
    7.3950    4.4220  -61.1238 H   0  0  0  0  0  0  0  0  0  0  0  0
   11.2109    1.3705  -56.4911 H   0  0  0  0  0  0  0  0  0  0  0  0
   10.7486    1.6381  -58.1627 H   0  0  0  0  0  0  0  0  0  0  0  0
   12.8681    3.0619  -56.4809 H   0  0  0  0  0  0  0  0  0  0  0  0
   12.9697    2.6264  -58.1810 H   0  0  0  0  0  0  0  0  0  0  0  0
   12.4826    5.1794  -57.5658 H   0  0  0  0  0  0  0  0  0  0  0  0
   11.4868    4.4915  -58.8364 H   0  0  0  0  0  0  0  0  0  0  0  0
   10.8219    4.9243  -55.8706 H   0  0  0  0  0  0  0  0  0  0  0  0
    9.7856    5.2601  -57.2420 H   0  0  0  0  0  0  0  0  0  0  0  0
  1  2  1  0
  2  3  1  0
  3  4  1  0
  4  5  1  0
  5  6  1  0
  6  7  2  0
  7  8  1  0
  8  9  2  0
  9 10  1  0
 10 11  2  0
 11 12  1  0
 12 13  2  0
 13 14  1  0
 14 15  1  0
 15 16  1  0
 16 17  1  0
 17 18  1  0
 18 19  1  0
 19 20  1  0
  1 21  2  3
 21 22  1  0
 22 23  1  0
 23 24  1  0
 24 25  1  0
 14  5  2  0
 20 15  1  0
 25 21  1  0
 13  8  1  0
  1 26  1  0
  2 27  1  0
  2 28  1  0
  3 29  1  0
  3 30  1  0
  4 31  1  0
  9 32  1  0
 10 33  1  0
 11 34  1  0
 15 35  1  0
 16 36  1  0
 16 37  1  0
 17 38  1  0
 17 39  1  0
 18 40  1  0
 18 41  1  0
 19 42  1  0
 19 43  1  0
 20 44  1  0
 20 45  1  0
 22 46  1  0
 22 47  1  0
 23 48  1  0
 23 49  1  0
 24 50  1  0
 24 51  1  0
 25 52  1  0
 25 53  1  0
M  END
>  <meeko>  (364) 
{"is_sidechain": false}

$$$$

     RDKit          3D

 53 56  0  0  0  0  0  0  0  0999 V2000
    8.8540    3.2230  -56.5510 C   0  0  0  0  0  0  0  0  0  0  0  0
    8.1720    1.8970  -56.3300 C   0  0  0  0  0  0  0  0  0  0  0  0
    7.4180    1.3950  -57.5710 C   0  0  0  0  0  0  0  0  0  0  0  0
    6.1200    2.0400  -57.6300 N   0  0  0  0  0  0  0  0  0  0  0  0
    5.5080    2.3480  -58.7230 C   0  0  0  0  0  0  0  0  0  0  0  0
    4.1670    2.6320  -58.5290 N   0  0  0  0  0  0  0  0  0  0  0  0
    3.1960    2.2020  -59.3930 N   0  0  0  0  0  0  0  0  0  0  0  0
    3.6330    1.9290  -60.5860 C   0  0  0  0  0  0  0  0  0  0  0  0
    2.6680    1.4410  -61.5970 C   0  0  0  0  0  0  0  0  0  0  0  0
    3.0410    1.3020  -62.8690 C   0  0  0  0  0  0  0  0  0  0  0  0
    4.4200    1.6740  -63.2230 C   0  0  0  0  0  0  0  0  0  0  0  0
    5.3570    2.0480  -62.4170 N   0  0  0  0  0  0  0  0  0  0  0  0
    5.0570    2.0980  -61.0690 C   0  0  0  0  0  0  0  0  0  0  0  0
    6.0070    2.3720  -60.1430 C   0  0  0  0  0  0  0  0  0  0  0  0
    7.3660    2.9210  -60.5490 C   0  0  0  0  0  0  0  0  0  0  0  0
    8.4370    1.8500  -60.8230 C   0  0  0  0  0  0  0  0  0  0  0  0
    9.8600    2.3340  -60.5470 C   0  0  0  0  0  0  0  0  0  0  0  0
   10.0500    3.7780  -60.9870 C   0  0  0  0  0  0  0  0  0  0  0  0
    9.1250    4.7420  -60.2420 C   0  0  0  0  0  0  0  0  0  0  0  0
    7.8590    4.0900  -59.6780 C   0  0  0  0  0  0  0  0  0  0  0  0
   10.1260    3.3990  -56.9440 C   0  0  0  0  0  0  0  0  0  0  0  0
   11.1180    2.3140  -57.2650 C   0  0  0  0  0  0  0  0  0  0  0  0
   12.2640    3.0680  -57.9300 C   0  0  0  0  0  0  0  0  0  0  0  0
   12.2410    4.4320  -57.2570 C   0  0  0  0  0  0  0  0  0  0  0  0
   10.7560    4.7530  -57.1410 C   0  0  0  0  0  0  0  0  0  0  0  0
    8.2554    4.1288  -56.3743 H   0  0  0  0  0  0  0  0  0  0  0  0
    8.9342    1.1520  -56.0578 H   0  0  0  0  0  0  0  0  0  0  0  0
    7.4308    2.0378  -55.5295 H   0  0  0  0  0  0  0  0  0  0  0  0
    7.9930    1.6407  -58.4760 H   0  0  0  0  0  0  0  0  0  0  0  0
    7.2878    0.3044  -57.5100 H   0  0  0  0  0  0  0  0  0  0  0  0
    3.9240    2.5410  -57.5430 H   0  0  0  0  0  0  0  0  0  0  0  0
    1.6393    1.1922  -61.2973 H   0  0  0  0  0  0  0  0  0  0  0  0
    2.3417    0.9221  -63.6284 H   0  0  0  0  0  0  0  0  0  0  0  0
    4.6811    1.6285  -64.2906 H   0  0  0  0  0  0  0  0  0  0  0  0
    7.1811    3.3690  -61.5365 H   0  0  0  0  0  0  0  0  0  0  0  0
    8.2333    0.9803  -60.1811 H   0  0  0  0  0  0  0  0  0  0  0  0
    8.3800    1.5982  -61.8923 H   0  0  0  0  0  0  0  0  0  0  0  0
   10.0606    2.2592  -59.4680 H   0  0  0  0  0  0  0  0  0  0  0  0
   10.5572    1.7033  -61.1181 H   0  0  0  0  0  0  0  0  0  0  0  0
   11.0930    4.0710  -60.7962 H   0  0  0  0  0  0  0  0  0  0  0  0
    9.8037    3.8372  -62.0574 H   0  0  0  0  0  0  0  0  0  0  0  0
    9.6877    5.1826  -59.4057 H   0  0  0  0  0  0  0  0  0  0  0  0
    8.7937    5.4916  -60.9757 H   0  0  0  0  0  0  0  0  0  0  0  0
    8.0758    3.7117  -58.6681 H   0  0  0  0  0  0  0  0  0  0  0  0
    7.0671    4.8532  -59.6598 H   0  0  0  0  0  0  0  0  0  0  0  0
   11.4584    1.8085  -56.3493 H   0  0  0  0  0  0  0  0  0  0  0  0
   10.6973    1.5227  -57.9029 H   0  0  0  0  0  0  0  0  0  0  0  0
   13.2230    2.5595  -57.7519 H   0  0  0  0  0  0  0  0  0  0  0  0
   12.1538    3.1312  -59.0226 H   0  0  0  0  0  0  0  0  0  0  0  0
   12.7113    4.3872  -56.2636 H   0  0  0  0  0  0  0  0  0  0  0  0
   12.7991    5.1945  -57.8202 H   0  0  0  0  0  0  0  0  0  0  0  0
   10.5602    5.4084  -56.2795 H   0  0  0  0  0  0  0  0  0  0  0  0
   10.3608    5.2896  -58.0161 H   0  0  0  0  0  0  0  0  0  0  0  0
  1  2  1  0
  2  3  1  0
  3  4  1  0
  4  5  2  0
  5  6  1  0
  6  7  1  0
  7  8  2  0
  8  9  1  0
  9 10  2  0
 10 11  1  0
 11 12  2  0
 12 13  1  0
 13 14  2  0
 14 15  1  0
 15 16  1  0
 16 17  1  0
 17 18  1  0
 18 19  1  0
 19 20  1  0
  1 21  2  3
 21 22  1  0
 22 23  1  0
 23 24  1  0
 24 25  1  0
 14  5  1  0
 20 15  1  0
 25 21  1  0
 13  8  1  0
  1 26  1  0
  2 27  1  0
  2 28  1  0
  3 29  1  0
  3 30  1  0
  6 31  1  0
  9 32  1  0
 10 33  1  0
 11 34  1  0
 15 35  1  0
 16 36  1  0
 16 37  1  0
 17 38  1  0
 17 39  1  0
 18 40  1  0
 18 41  1  0
 19 42  1  0
 19 43  1  0
 20 44  1  0
 20 45  1  0
 22 46  1  0
 22 47  1  0
 23 48  1  0
 23 49  1  0
 24 50  1  0
 24 51  1  0
 25 52  1  0
 25 53  1  0
M  END
>  <meeko>  (365) 
{"is_sidechain": false}

$$$$

     RDKit          3D

 53 56  0  0  0  0  0  0  0  0999 V2000
   10.7950   -1.6910  -54.8660 C   0  0  0  0  0  0  0  0  0  0  0  0
    9.9860   -1.7500  -53.5970 C   0  0  0  0  0  0  0  0  0  0  0  0
    8.9000   -0.6680  -53.5290 C   0  0  0  0  0  0  0  0  0  0  0  0
    9.0890    0.3400  -54.5660 N   0  0  0  0  0  0  0  0  0  0  0  0
    8.1240    0.7430  -55.3290 C   0  0  0  0  0  0  0  0  0  0  0  0
    6.8340    0.2580  -55.2720 N   0  0  0  0  0  0  0  0  0  0  0  0
    5.7860    0.6700  -56.0200 N   0  0  0  0  0  0  0  0  0  0  0  0
    6.0610    1.6160  -56.8650 C   0  0  0  0  0  0  0  0  0  0  0  0
    4.9510    2.1110  -57.7140 C   0  0  0  0  0  0  0  0  0  0  0  0
    5.1560    3.0880  -58.5960 C   0  0  0  0  0  0  0  0  0  0  0  0
    6.5100    3.6450  -58.6860 C   0  0  0  0  0  0  0  0  0  0  0  0
    7.5450    3.2870  -58.0030 N   0  0  0  0  0  0  0  0  0  0  0  0
    7.4080    2.2760  -57.0790 C   0  0  0  0  0  0  0  0  0  0  0  0
    8.4490    1.8360  -56.3400 C   0  0  0  0  0  0  0  0  0  0  0  0
    9.9010    2.3350  -56.3280 C   0  0  0  0  0  0  0  0  0  0  0  0
   10.6990    1.7910  -57.5340 C   0  0  0  0  0  0  0  0  0  0  0  0
   10.5930    2.6680  -58.7750 C   0  0  0  0  0  0  0  0  0  0  0  0
   11.0920    4.0740  -58.4780 C   0  0  0  0  0  0  0  0  0  0  0  0
   10.2810    4.7150  -57.3620 C   0  0  0  0  0  0  0  0  0  0  0  0
   10.1920    3.8410  -56.1070 C   0  0  0  0  0  0  0  0  0  0  0  0
   10.9730   -2.7000  -55.7340 C   0  0  0  0  0  0  0  0  0  0  0  0
   10.4290   -4.0980  -55.6060 C   0  0  0  0  0  0  0  0  0  0  0  0
   11.2460   -4.8850  -56.6240 C   0  0  0  0  0  0  0  0  0  0  0  0
   11.5160   -3.8750  -57.7290 C   0  0  0  0  0  0  0  0  0  0  0  0
   11.8160   -2.5840  -56.9770 C   0  0  0  0  0  0  0  0  0  0  0  0
   11.2843   -0.7348  -55.1033 H   0  0  0  0  0  0  0  0  0  0  0  0
    9.5029   -2.7363  -53.5345 H   0  0  0  0  0  0  0  0  0  0  0  0
   10.6760   -1.5776  -52.7579 H   0  0  0  0  0  0  0  0  0  0  0  0
    7.9155   -1.1398  -53.6634 H   0  0  0  0  0  0  0  0  0  0  0  0
    8.9645   -0.1732  -52.5487 H   0  0  0  0  0  0  0  0  0  0  0  0
    6.6330   -0.4590  -54.5840 H   0  0  0  0  0  0  0  0  0  0  0  0
    3.9492    1.6676  -57.6147 H   0  0  0  0  0  0  0  0  0  0  0  0
    4.3410    3.4628  -59.2326 H   0  0  0  0  0  0  0  0  0  0  0  0
    6.6595    4.4556  -59.4145 H   0  0  0  0  0  0  0  0  0  0  0  0
   10.2552    1.9026  -55.3806 H   0  0  0  0  0  0  0  0  0  0  0  0
   11.7585    1.7193  -57.2472 H   0  0  0  0  0  0  0  0  0  0  0  0
   10.2706    0.8111  -57.7914 H   0  0  0  0  0  0  0  0  0  0  0  0
   11.2013    2.2306  -59.5804 H   0  0  0  0  0  0  0  0  0  0  0  0
    9.5384    2.7225  -59.0831 H   0  0  0  0  0  0  0  0  0  0  0  0
   12.1476    4.0242  -58.1728 H   0  0  0  0  0  0  0  0  0  0  0  0
   10.9823    4.6844  -59.3865 H   0  0  0  0  0  0  0  0  0  0  0  0
   10.7530    5.6708  -57.0905 H   0  0  0  0  0  0  0  0  0  0  0  0
    9.2569    4.8543  -57.7385 H   0  0  0  0  0  0  0  0  0  0  0  0
   11.1522    3.9208  -55.5763 H   0  0  0  0  0  0  0  0  0  0  0  0
    9.3255    4.2243  -55.5481 H   0  0  0  0  0  0  0  0  0  0  0  0
   10.5828   -4.4894  -54.5896 H   0  0  0  0  0  0  0  0  0  0  0  0
    9.3452   -4.1569  -55.7848 H   0  0  0  0  0  0  0  0  0  0  0  0
   12.1872   -5.2416  -56.1801 H   0  0  0  0  0  0  0  0  0  0  0  0
   10.7244   -5.7833  -56.9860 H   0  0  0  0  0  0  0  0  0  0  0  0
   12.3783   -4.1826  -58.3388 H   0  0  0  0  0  0  0  0  0  0  0  0
   10.6726   -3.7738  -58.4278 H   0  0  0  0  0  0  0  0  0  0  0  0
   12.8841   -2.5154  -56.7232 H   0  0  0  0  0  0  0  0  0  0  0  0
   11.5915   -1.6822  -57.5655 H   0  0  0  0  0  0  0  0  0  0  0  0
  1  2  1  0
  2  3  1  0
  3  4  1  0
  4  5  2  0
  5  6  1  0
  6  7  1  0
  7  8  2  0
  8  9  1  0
  9 10  2  0
 10 11  1  0
 11 12  2  0
 12 13  1  0
 13 14  2  0
 14 15  1  0
 15 16  1  0
 16 17  1  0
 17 18  1  0
 18 19  1  0
 19 20  1  0
  1 21  2  3
 21 22  1  0
 22 23  1  0
 23 24  1  0
 24 25  1  0
 14  5  1  0
 20 15  1  0
 25 21  1  0
 13  8  1  0
  1 26  1  0
  2 27  1  0
  2 28  1  0
  3 29  1  0
  3 30  1  0
  6 31  1  0
  9 32  1  0
 10 33  1  0
 11 34  1  0
 15 35  1  0
 16 36  1  0
 16 37  1  0
 17 38  1  0
 17 39  1  0
 18 40  1  0
 18 41  1  0
 19 42  1  0
 19 43  1  0
 20 44  1  0
 20 45  1  0
 22 46  1  0
 22 47  1  0
 23 48  1  0
 23 49  1  0
 24 50  1  0
 24 51  1  0
 25 52  1  0
 25 53  1  0
M  END
>  <meeko>  (366) 
{"is_sidechain": false}

$$$$

     RDKit          3D

 53 56  0  0  0  0  0  0  0  0999 V2000
    8.9770    1.4320  -56.7170 C   0  0  0  0  0  0  0  0  0  0  0  0
    7.7560    1.5140  -55.8430 C   0  0  0  0  0  0  0  0  0  0  0  0
    6.6200    2.2750  -56.5290 C   0  0  0  0  0  0  0  0  0  0  0  0
    6.8980    2.4130  -57.9620 N   0  0  0  0  0  0  0  0  0  0  0  0
    5.9040    2.4550  -58.7870 C   0  0  0  0  0  0  0  0  0  0  0  0
    4.6040    2.3740  -58.3390 N   0  0  0  0  0  0  0  0  0  0  0  0
    3.6690    2.0650  -59.1050 N   0  0  0  0  0  0  0  0  0  0  0  0
    3.8260    1.9130  -60.4510 C   0  0  0  0  0  0  0  0  0  0  0  0
    2.8010    1.5000  -61.2270 C   0  0  0  0  0  0  0  0  0  0  0  0
    2.9390    1.4110  -62.6690 C   0  0  0  0  0  0  0  0  0  0  0  0
    4.1000    1.7960  -63.2190 C   0  0  0  0  0  0  0  0  0  0  0  0
    5.1490    2.2480  -62.4530 N   0  0  0  0  0  0  0  0  0  0  0  0
    5.1130    2.2830  -61.0610 C   0  0  0  0  0  0  0  0  0  0  0  0
    6.1440    2.6080  -60.2570 C   0  0  0  0  0  0  0  0  0  0  0  0
    7.5410    3.0250  -60.6880 C   0  0  0  0  0  0  0  0  0  0  0  0
    8.1780    4.0280  -59.7130 C   0  0  0  0  0  0  0  0  0  0  0  0
    9.5070    4.5730  -60.2400 C   0  0  0  0  0  0  0  0  0  0  0  0
   10.3030    3.5670  -61.0730 C   0  0  0  0  0  0  0  0  0  0  0  0
    9.9490    2.1270  -60.7250 C   0  0  0  0  0  0  0  0  0  0  0  0
    8.4730    1.8280  -60.9930 C   0  0  0  0  0  0  0  0  0  0  0  0
    9.9030    2.3940  -56.8630 C   0  0  0  0  0  0  0  0  0  0  0  0
   11.1190    2.2560  -57.7400 C   0  0  0  0  0  0  0  0  0  0  0  0
   11.9930    3.4280  -57.3110 C   0  0  0  0  0  0  0  0  0  0  0  0
   10.9890    4.5070  -56.9350 C   0  0  0  0  0  0  0  0  0  0  0  0
    9.8930    3.7480  -56.2000 C   0  0  0  0  0  0  0  0  0  0  0  0
    9.1248    0.5027  -57.2867 H   0  0  0  0  0  0  0  0  0  0  0  0
    7.4137    0.4945  -55.6120 H   0  0  0  0  0  0  0  0  0  0  0  0
    8.0269    2.0561  -54.9250 H   0  0  0  0  0  0  0  0  0  0  0  0
    5.6783    1.7231  -56.3928 H   0  0  0  0  0  0  0  0  0  0  0  0
    6.5358    3.2761  -56.0810 H   0  0  0  0  0  0  0  0  0  0  0  0
    1.8445    1.2262  -60.7579 H   0  0  0  0  0  0  0  0  0  0  0  0
    2.1140    1.0380  -63.2937 H   0  0  0  0  0  0  0  0  0  0  0  0
    4.2163    1.7490  -64.3118 H   0  0  0  0  0  0  0  0  0  0  0  0
    6.0190    2.4580  -62.9240 H   0  0  0  0  0  0  0  0  0  0  0  0
    7.4110    3.5502  -61.6457 H   0  0  0  0  0  0  0  0  0  0  0  0
    7.4838    4.8680  -59.5634 H   0  0  0  0  0  0  0  0  0  0  0  0
    8.3767    3.5034  -58.7668 H   0  0  0  0  0  0  0  0  0  0  0  0
    9.2966    5.4521  -60.8668 H   0  0  0  0  0  0  0  0  0  0  0  0
   10.1223    4.8179  -59.3617 H   0  0  0  0  0  0  0  0  0  0  0  0
   10.0863    3.7380  -62.1378 H   0  0  0  0  0  0  0  0  0  0  0  0
   11.3707    3.7156  -60.8539 H   0  0  0  0  0  0  0  0  0  0  0  0
   10.5664    1.4506  -61.3344 H   0  0  0  0  0  0  0  0  0  0  0  0
   10.1408    1.9758  -59.6525 H   0  0  0  0  0  0  0  0  0  0  0  0
    8.3584    1.5575  -62.0530 H   0  0  0  0  0  0  0  0  0  0  0  0
    8.1797    1.0073  -60.3218 H   0  0  0  0  0  0  0  0  0  0  0  0
   11.6282    1.2977  -57.5602 H   0  0  0  0  0  0  0  0  0  0  0  0
   10.8798    2.2668  -58.8136 H   0  0  0  0  0  0  0  0  0  0  0  0
   12.6182    3.1559  -56.4478 H   0  0  0  0  0  0  0  0  0  0  0  0
   12.6908    3.7502  -58.0979 H   0  0  0  0  0  0  0  0  0  0  0  0
   11.4509    5.2598  -56.2793 H   0  0  0  0  0  0  0  0  0  0  0  0
   10.6107    5.0573  -57.8091 H   0  0  0  0  0  0  0  0  0  0  0  0
   10.1236    3.6633  -55.1278 H   0  0  0  0  0  0  0  0  0  0  0  0
    8.9139    4.2464  -56.2546 H   0  0  0  0  0  0  0  0  0  0  0  0
  1  2  1  0
  2  3  1  0
  3  4  1  0
  4  5  2  0
  5  6  1  0
  6  7  2  0
  7  8  1  0
  8  9  2  0
  9 10  1  0
 10 11  2  0
 11 12  1  0
 12 13  1  0
 13 14  2  0
 14 15  1  0
 15 16  1  0
 16 17  1  0
 17 18  1  0
 18 19  1  0
 19 20  1  0
  1 21  2  3
 21 22  1  0
 22 23  1  0
 23 24  1  0
 24 25  1  0
 14  5  1  0
 20 15  1  0
 25 21  1  0
 13  8  1  0
  1 26  1  0
  2 27  1  0
  2 28  1  0
  3 29  1  0
  3 30  1  0
  9 31  1  0
 10 32  1  0
 11 33  1  0
 12 34  1  0
 15 35  1  0
 16 36  1  0
 16 37  1  0
 17 38  1  0
 17 39  1  0
 18 40  1  0
 18 41  1  0
 19 42  1  0
 19 43  1  0
 20 44  1  0
 20 45  1  0
 22 46  1  0
 22 47  1  0
 23 48  1  0
 23 49  1  0
 24 50  1  0
 24 51  1  0
 25 52  1  0
 25 53  1  0
M  END
>  <meeko>  (367) 
{"is_sidechain": false}

$$$$
