
     RDKit          3D

 55 57  0  0  0  0  0  0  0  0999 V2000
    1.7071    2.1432   -0.2826 C   0  0  0  0  0  0  0  0  0  0  0  0
    0.6516    1.1840    0.1588 C   0  0  0  0  0  0  0  0  0  0  0  0
    0.8328    0.0154    0.9769 C   0  0  0  0  0  0  0  0  0  0  0  0
    2.0435   -0.5815    1.5467 C   0  0  0  0  0  0  0  0  0  0  0  0
    2.0226   -1.2091    2.5993 O   0  0  0  0  0  0  0  0  0  0  0  0
    3.1687   -0.4214    0.7670 N   0  0  0  0  0  0  0  0  0  0  0  0
    4.4778   -1.0234    1.0499 C   0  0  0  0  0  0  0  0  0  0  0  0
    5.4605   -0.5451   -0.0352 C   0  0  0  0  0  0  0  0  0  0  0  0
    4.3964   -2.5564    0.9958 C   0  0  0  0  0  0  0  0  0  0  0  0
    5.0186   -0.5693    2.4157 C   0  0  0  0  0  0  0  0  0  0  0  0
   -0.4309   -0.5005    1.1948 C   0  0  0  0  0  0  0  0  0  0  0  0
   -1.3556    0.2487    0.5118 N   0  0  0  0  0  0  0  0  0  0  0  0
   -2.8034   -0.0215    0.5033 C   0  0  2  0  0  0  0  0  0  0  0  0
   -3.4068    0.1253    1.9056 C   0  0  0  0  0  0  0  0  0  0  0  0
   -3.1000   -1.3434   -0.1976 C   0  0  0  0  0  0  0  0  0  0  0  0
   -3.2294   -1.3588   -1.5991 C   0  0  0  0  0  0  0  0  0  0  0  0
   -3.4884   -2.5486   -2.2840 C   0  0  0  0  0  0  0  0  0  0  0  0
   -3.6158   -3.7393   -1.5756 C   0  0  0  0  0  0  0  0  0  0  0  0
   -3.9336   -5.2059   -2.4168 Cl  0  0  0  0  0  0  0  0  0  0  0  0
   -3.4847   -3.7495   -0.1898 C   0  0  0  0  0  0  0  0  0  0  0  0
   -3.2264   -2.5585    0.4957 C   0  0  0  0  0  0  0  0  0  0  0  0
   -0.7088    1.2896   -0.1285 C   0  0  0  0  0  0  0  0  0  0  0  0
   -1.3898    2.3000   -0.9356 C   0  0  0  0  0  0  0  0  0  0  0  0
   -1.3951    2.1960   -2.3307 C   0  0  0  0  0  0  0  0  0  0  0  0
   -2.0485    3.1571   -3.1037 C   0  0  0  0  0  0  0  0  0  0  0  0
   -2.6936    4.2281   -2.4857 C   0  0  0  0  0  0  0  0  0  0  0  0
   -2.6831    4.3422   -1.0958 C   0  0  0  0  0  0  0  0  0  0  0  0
   -2.0305    3.3817   -0.3214 C   0  0  0  0  0  0  0  0  0  0  0  0
    2.1722    1.7943   -1.2098 H   0  0  0  0  0  0  0  0  0  0  0  0
    2.4831    2.2532    0.4813 H   0  0  0  0  0  0  0  0  0  0  0  0
    1.2940    3.1406   -0.4634 H   0  0  0  0  0  0  0  0  0  0  0  0
    2.9918   -0.1331   -0.1850 H   0  0  0  0  0  0  0  0  0  0  0  0
    6.4636   -0.9571    0.1218 H   0  0  0  0  0  0  0  0  0  0  0  0
    5.1257   -0.8495   -1.0339 H   0  0  0  0  0  0  0  0  0  0  0  0
    5.5413    0.5483   -0.0395 H   0  0  0  0  0  0  0  0  0  0  0  0
    5.3853   -3.0102    1.1267 H   0  0  0  0  0  0  0  0  0  0  0  0
    3.7455   -2.9582    1.7792 H   0  0  0  0  0  0  0  0  0  0  0  0
    3.9950   -2.8949    0.0337 H   0  0  0  0  0  0  0  0  0  0  0  0
    4.4116   -0.9443    3.2455 H   0  0  0  0  0  0  0  0  0  0  0  0
    6.0409   -0.9308    2.5755 H   0  0  0  0  0  0  0  0  0  0  0  0
    5.0330    0.5243    2.4886 H   0  0  0  0  0  0  0  0  0  0  0  0
   -0.7263   -1.3640    1.7773 H   0  0  0  0  0  0  0  0  0  0  0  0
   -3.2769    0.7626   -0.0986 H   0  0  0  0  0  0  0  0  0  0  0  0
   -4.4877   -0.0516    1.8849 H   0  0  0  0  0  0  0  0  0  0  0  0
   -3.2383    1.1377    2.2904 H   0  0  0  0  0  0  0  0  0  0  0  0
   -2.9669   -0.5696    2.6286 H   0  0  0  0  0  0  0  0  0  0  0  0
   -3.1272   -0.4371   -2.1695 H   0  0  0  0  0  0  0  0  0  0  0  0
   -3.5859   -2.5379   -3.3661 H   0  0  0  0  0  0  0  0  0  0  0  0
   -3.5763   -4.6801    0.3643 H   0  0  0  0  0  0  0  0  0  0  0  0
   -3.1147   -2.6016    1.5766 H   0  0  0  0  0  0  0  0  0  0  0  0
   -0.8901    1.3657   -2.8186 H   0  0  0  0  0  0  0  0  0  0  0  0
   -2.0510    3.0726   -4.1872 H   0  0  0  0  0  0  0  0  0  0  0  0
   -3.1999    4.9781   -3.0882 H   0  0  0  0  0  0  0  0  0  0  0  0
   -3.1788    5.1816   -0.6150 H   0  0  0  0  0  0  0  0  0  0  0  0
   -2.0182    3.4822    0.7614 H   0  0  0  0  0  0  0  0  0  0  0  0
  1  2  1  0
  2  3  1  0
  3  4  1  0
  4  5  2  0
  4  6  1  0
  6  7  1  0
  7  8  1  0
  7  9  1  0
  7 10  1  0
  3 11  2  0
 11 12  1  0
 12 13  1  0
 13 14  1  0
 13 15  1  0
 15 16  1  0
 16 17  2  0
 17 18  1  0
 18 19  1  0
 18 20  2  0
 20 21  1  0
 12 22  1  0
 22 23  1  0
 23 24  2  0
 24 25  1  0
 25 26  2  0
 26 27  1  0
 27 28  2  0
 22  2  2  0
 28 23  1  0
 21 15  2  0
  1 29  1  0
  1 30  1  0
  1 31  1  0
  6 32  1  0
  8 33  1  0
  8 34  1  0
  8 35  1  0
  9 36  1  0
  9 37  1  0
  9 38  1  0
 10 39  1  0
 10 40  1  0
 10 41  1  0
 11 42  1  0
 13 43  1  6
 14 44  1  0
 14 45  1  0
 14 46  1  0
 16 47  1  0
 17 48  1  0
 20 49  1  0
 21 50  1  0
 24 51  1  0
 25 52  1  0
 26 53  1  0
 27 54  1  0
 28 55  1  0
M  END
>  <_SMILES>  (1) 
Cc1c(C(=O)NC(C)(C)C)cn([C@H](C)c2ccc(Cl)cc2)c1-c1ccccc1

$$$$

     RDKit          3D

 70 75  0  0  0  0  0  0  0  0999 V2000
    5.0585   -4.1873    1.5061 C   0  0  0  0  0  0  0  0  0  0  0  0
    4.4563   -2.8155    1.5747 C   0  0  0  0  0  0  0  0  0  0  0  0
    4.8956   -1.8937    2.5324 C   0  0  0  0  0  0  0  0  0  0  0  0
    4.3027   -0.6342    2.6252 C   0  0  0  0  0  0  0  0  0  0  0  0
    3.2640   -0.2861    1.7620 C   0  0  0  0  0  0  0  0  0  0  0  0
    2.8189   -1.1913    0.7936 C   0  0  0  0  0  0  0  0  0  0  0  0
    1.7085   -0.8349   -0.0891 C   0  0  0  0  0  0  0  0  0  0  0  0
    0.3434   -0.9949    0.1568 C   0  0  0  0  0  0  0  0  0  0  0  0
   -0.2497   -1.6184    1.3774 C   0  0  0  0  0  0  0  0  0  0  0  0
   -0.3693   -0.4729   -0.9765 C   0  0  0  0  0  0  0  0  0  0  0  0
   -1.8060   -0.3542   -1.2413 C   0  0  0  0  0  0  0  0  0  0  0  0
   -2.2547   -0.3543   -2.3813 O   0  0  0  0  0  0  0  0  0  0  0  0
   -2.5744   -0.1907   -0.1078 N   0  0  0  0  0  0  0  0  0  0  0  0
   -3.9859    0.1987   -0.1358 C   0  0  1  0  0  0  0  0  0  0  0  0
   -4.5620    0.0628    1.2990 C   0  0  0  0  0  0  0  0  0  0  0  0
   -6.0290    0.5356    1.3562 C   0  0  2  0  0  0  0  0  0  0  0  0
   -6.8699   -0.3069    0.3874 C   0  0  0  0  0  0  0  0  0  0  0  0
   -6.3316   -0.1552   -1.0417 C   0  0  1  0  0  0  0  0  0  0  0  0
   -6.3834    1.3245   -1.4657 C   0  0  0  0  0  0  0  0  0  0  0  0
   -5.5762    2.1886   -0.4913 C   0  0  1  0  0  0  0  0  0  0  0  0
   -6.1037    2.0182    0.9394 C   0  0  0  0  0  0  0  0  0  0  0  0
   -4.1340    1.6991   -0.4786 C   0  0  0  0  0  0  0  0  0  0  0  0
   -3.1842    2.4703   -0.6048 O   0  0  0  0  0  0  0  0  0  0  0  0
   -4.8674   -0.6286   -1.0977 C   0  0  0  0  0  0  0  0  0  0  0  0
    0.5941   -0.0772   -1.8837 C   0  0  0  0  0  0  0  0  0  0  0  0
    1.8434   -0.2653   -1.3417 N   0  0  0  0  0  0  0  0  0  0  0  0
    3.0753    0.0989   -2.0698 C   0  0  2  0  0  0  0  0  0  0  0  0
    3.7967   -1.1403   -2.6099 C   0  0  0  0  0  0  0  0  0  0  0  0
    3.9176    1.1185   -1.3107 C   0  0  0  0  0  0  0  0  0  0  0  0
    5.2253    0.8513   -0.8755 C   0  0  0  0  0  0  0  0  0  0  0  0
    5.9607    1.8161   -0.1786 C   0  0  0  0  0  0  0  0  0  0  0  0
    5.4034    3.0679    0.0911 C   0  0  0  0  0  0  0  0  0  0  0  0
    6.1559    4.0504    0.8139 C   0  0  0  0  0  0  0  0  0  0  0  0
    6.7664    4.8437    1.4017 N   0  0  0  0  0  0  0  0  0  0  0  0
    4.1078    3.3536   -0.3427 C   0  0  0  0  0  0  0  0  0  0  0  0
    3.3740    2.3887   -1.0383 C   0  0  0  0  0  0  0  0  0  0  0  0
    3.4017   -2.4620    0.7216 C   0  0  0  0  0  0  0  0  0  0  0  0
    6.1068   -4.1703    1.8222 H   0  0  0  0  0  0  0  0  0  0  0  0
    5.0351   -4.5724    0.4813 H   0  0  0  0  0  0  0  0  0  0  0  0
    4.5043   -4.8722    2.1551 H   0  0  0  0  0  0  0  0  0  0  0  0
    5.6985   -2.1547    3.2185 H   0  0  0  0  0  0  0  0  0  0  0  0
    4.6462    0.0757    3.3730 H   0  0  0  0  0  0  0  0  0  0  0  0
    2.8050    0.6962    1.8428 H   0  0  0  0  0  0  0  0  0  0  0  0
    0.4497   -2.3073    1.8612 H   0  0  0  0  0  0  0  0  0  0  0  0
   -0.5217   -0.8457    2.1033 H   0  0  0  0  0  0  0  0  0  0  0  0
   -1.1441   -2.1974    1.1270 H   0  0  0  0  0  0  0  0  0  0  0  0
   -2.0414    0.1958    0.6606 H   0  0  0  0  0  0  0  0  0  0  0  0
   -4.4938   -0.9808    1.6333 H   0  0  0  0  0  0  0  0  0  0  0  0
   -3.9654    0.6543    2.0070 H   0  0  0  0  0  0  0  0  0  0  0  0
   -6.4127    0.4212    2.3762 H   0  0  0  0  0  0  0  0  0  0  0  0
   -6.8436   -1.3615    0.6877 H   0  0  0  0  0  0  0  0  0  0  0  0
   -7.9192    0.0102    0.4281 H   0  0  0  0  0  0  0  0  0  0  0  0
   -6.9374   -0.7557   -1.7298 H   0  0  0  0  0  0  0  0  0  0  0  0
   -5.9845    1.4324   -2.4821 H   0  0  0  0  0  0  0  0  0  0  0  0
   -7.4251    1.6668   -1.4905 H   0  0  0  0  0  0  0  0  0  0  0  0
   -5.6036    3.2393   -0.7972 H   0  0  0  0  0  0  0  0  0  0  0  0
   -7.1396    2.3731    1.0015 H   0  0  0  0  0  0  0  0  0  0  0  0
   -5.5117    2.6260    1.6351 H   0  0  0  0  0  0  0  0  0  0  0  0
   -4.8058   -1.6942   -0.8426 H   0  0  0  0  0  0  0  0  0  0  0  0
   -4.5344   -0.5351   -2.1357 H   0  0  0  0  0  0  0  0  0  0  0  0
    0.4694    0.3489   -2.8721 H   0  0  0  0  0  0  0  0  0  0  0  0
    2.7312    0.6353   -2.9673 H   0  0  0  0  0  0  0  0  0  0  0  0
    4.6136   -0.8507   -3.2805 H   0  0  0  0  0  0  0  0  0  0  0  0
    4.2265   -1.7578   -1.8179 H   0  0  0  0  0  0  0  0  0  0  0  0
    3.1074   -1.7739   -3.1795 H   0  0  0  0  0  0  0  0  0  0  0  0
    5.6882   -0.1178   -1.0472 H   0  0  0  0  0  0  0  0  0  0  0  0
    6.9673    1.5753    0.1585 H   0  0  0  0  0  0  0  0  0  0  0  0
    3.6566    4.3234   -0.1411 H   0  0  0  0  0  0  0  0  0  0  0  0
    2.3614    2.6313   -1.3606 H   0  0  0  0  0  0  0  0  0  0  0  0
    3.0275   -3.1809   -0.0046 H   0  0  0  0  0  0  0  0  0  0  0  0
  1  2  1  0
  2  3  2  0
  3  4  1  0
  4  5  2  0
  5  6  1  0
  6  7  1  0
  7  8  2  0
  8  9  1  0
  8 10  1  0
 10 11  1  0
 11 12  2  0
 11 13  1  0
 14 13  1  1
 14 15  1  0
 15 16  1  0
 16 17  1  0
 17 18  1  0
 18 19  1  0
 19 20  1  0
 20 21  1  0
 20 22  1  0
 22 23  2  0
 18 24  1  0
 10 25  2  0
 25 26  1  0
 26 27  1  0
 27 28  1  0
 27 29  1  0
 29 30  1  0
 30 31  2  0
 31 32  1  0
 32 33  1  0
 33 34  3  0
 32 35  2  0
 35 36  1  0
  6 37  2  0
 37  2  1  0
 26  7  1  0
 36 29  2  0
 22 14  1  0
 24 14  1  0
 21 16  1  0
  1 38  1  0
  1 39  1  0
  1 40  1  0
  3 41  1  0
  4 42  1  0
  5 43  1  0
  9 44  1  0
  9 45  1  0
  9 46  1  0
 13 47  1  0
 15 48  1  0
 15 49  1  0
 16 50  1  1
 17 51  1  0
 17 52  1  0
 18 53  1  6
 19 54  1  0
 19 55  1  0
 20 56  1  6
 21 57  1  0
 21 58  1  0
 24 59  1  0
 24 60  1  0
 25 61  1  0
 27 62  1  6
 28 63  1  0
 28 64  1  0
 28 65  1  0
 30 66  1  0
 31 67  1  0
 35 68  1  0
 36 69  1  0
 37 70  1  0
M  END
>  <_SMILES>  (2) 
Cc1cccc(-c2c(C)c(C(=O)N[C@@]34C[C@@H]5C[C@@H](C[C@@H](C5)C3=O)C4)cn2[C@H](C)c2ccc(C#N)cc2)c1

$$$$

     RDKit          3D

 65 68  0  0  0  0  0  0  0  0999 V2000
    0.0489    3.2203    0.1739 C   0  0  0  0  0  0  0  0  0  0  0  0
    0.6447    1.8850    0.4769 C   0  0  0  0  0  0  0  0  0  0  0  0
   -0.0888    0.7252    0.8955 C   0  0  0  0  0  0  0  0  0  0  0  0
   -1.5371    0.6166    1.1025 C   0  0  0  0  0  0  0  0  0  0  0  0
   -2.2641    1.5987    1.2131 O   0  0  0  0  0  0  0  0  0  0  0  0
   -2.0191   -0.6778    1.1284 N   0  0  0  0  0  0  0  0  0  0  0  0
   -3.4456   -0.9572    1.1523 C   0  0  2  0  0  0  0  0  0  0  0  0
   -3.7055   -2.3515    1.7440 C   0  0  0  0  0  0  0  0  0  0  0  0
   -5.0218   -2.9771    1.2770 C   0  0  0  0  0  0  0  0  0  0  0  0
   -6.0622   -1.9168    0.9333 C   0  0  0  0  0  0  0  0  0  0  0  0
   -5.6012   -0.9983   -0.2278 C   0  0  0  0  0  0  0  0  0  0  0  0
   -6.0555   -1.5872   -1.5769 C   0  0  0  0  0  0  0  0  0  0  0  0
   -6.2684    0.3804   -0.0609 C   0  0  0  0  0  0  0  0  0  0  0  0
   -4.0581   -0.8381   -0.2492 C   0  0  0  0  0  0  0  0  0  0  0  0
    0.8515   -0.2718    1.0923 C   0  0  0  0  0  0  0  0  0  0  0  0
    2.1000    0.2027    0.7647 N   0  0  0  0  0  0  0  0  0  0  0  0
    3.3595   -0.5591    0.8608 C   0  0  1  0  0  0  0  0  0  0  0  0
    3.3130   -1.8114    1.7491 C   0  0  0  0  0  0  0  0  0  0  0  0
    3.9789   -0.8530   -0.5036 C   0  0  0  0  0  0  0  0  0  0  0  0
    5.2727   -0.3412   -0.7506 C   0  0  0  0  0  0  0  0  0  0  0  0
    5.9175   -0.5466   -1.9718 C   0  0  0  0  0  0  0  0  0  0  0  0
    5.2838   -1.2768   -2.9680 C   0  0  0  0  0  0  0  0  0  0  0  0
    6.0718   -1.5298   -4.4756 Cl  0  0  0  0  0  0  0  0  0  0  0  0
    4.0167   -1.8068   -2.7508 C   0  0  0  0  0  0  0  0  0  0  0  0
    3.3671   -1.6011   -1.5265 C   0  0  0  0  0  0  0  0  0  0  0  0
    1.8092   -2.3285   -1.3644 Cl  0  0  0  0  0  0  0  0  0  0  0  0
    1.9910    1.5384    0.4082 C   0  0  0  0  0  0  0  0  0  0  0  0
    3.1242    2.3801    0.0265 C   0  0  0  0  0  0  0  0  0  0  0  0
    3.9065    3.0006    1.0065 C   0  0  0  0  0  0  0  0  0  0  0  0
    4.9900    3.7999    0.6380 C   0  0  0  0  0  0  0  0  0  0  0  0
    5.2914    3.9882   -0.7107 C   0  0  0  0  0  0  0  0  0  0  0  0
    4.5067    3.3841   -1.6924 C   0  0  0  0  0  0  0  0  0  0  0  0
    3.4224    2.5856   -1.3252 C   0  0  0  0  0  0  0  0  0  0  0  0
    0.7914    3.9257   -0.2106 H   0  0  0  0  0  0  0  0  0  0  0  0
   -0.7376    3.1246   -0.5818 H   0  0  0  0  0  0  0  0  0  0  0  0
   -0.3856    3.6554    1.0795 H   0  0  0  0  0  0  0  0  0  0  0  0
   -1.4014   -1.3966    0.7787 H   0  0  0  0  0  0  0  0  0  0  0  0
   -3.9141   -0.2079    1.8033 H   0  0  0  0  0  0  0  0  0  0  0  0
   -3.7046   -2.2698    2.8387 H   0  0  0  0  0  0  0  0  0  0  0  0
   -2.8892   -3.0434    1.4993 H   0  0  0  0  0  0  0  0  0  0  0  0
   -5.4057   -3.6444    2.0571 H   0  0  0  0  0  0  0  0  0  0  0  0
   -4.8353   -3.6049    0.3971 H   0  0  0  0  0  0  0  0  0  0  0  0
   -6.2531   -1.3220    1.8366 H   0  0  0  0  0  0  0  0  0  0  0  0
   -7.0145   -2.4011    0.6847 H   0  0  0  0  0  0  0  0  0  0  0  0
   -5.6399   -2.5882   -1.7356 H   0  0  0  0  0  0  0  0  0  0  0  0
   -7.1471   -1.6698   -1.6269 H   0  0  0  0  0  0  0  0  0  0  0  0
   -5.7316   -0.9554   -2.4119 H   0  0  0  0  0  0  0  0  0  0  0  0
   -5.9499    0.8680    0.8670 H   0  0  0  0  0  0  0  0  0  0  0  0
   -6.0124    1.0488   -0.8908 H   0  0  0  0  0  0  0  0  0  0  0  0
   -7.3601    0.2892   -0.0324 H   0  0  0  0  0  0  0  0  0  0  0  0
   -3.6043   -1.6085   -0.8888 H   0  0  0  0  0  0  0  0  0  0  0  0
   -3.7844    0.1192   -0.7111 H   0  0  0  0  0  0  0  0  0  0  0  0
    0.7206   -1.2870    1.4398 H   0  0  0  0  0  0  0  0  0  0  0  0
    4.0264    0.1271    1.4014 H   0  0  0  0  0  0  0  0  0  0  0  0
    2.9459   -1.5631    2.7513 H   0  0  0  0  0  0  0  0  0  0  0  0
    2.6681   -2.5973    1.3460 H   0  0  0  0  0  0  0  0  0  0  0  0
    4.3152   -2.2413    1.8599 H   0  0  0  0  0  0  0  0  0  0  0  0
    5.7863    0.2492    0.0081 H   0  0  0  0  0  0  0  0  0  0  0  0
    6.9068   -0.1271   -2.1366 H   0  0  0  0  0  0  0  0  0  0  0  0
    3.5319   -2.3823   -3.5357 H   0  0  0  0  0  0  0  0  0  0  0  0
    3.6679    2.8704    2.0593 H   0  0  0  0  0  0  0  0  0  0  0  0
    5.5923    4.2835    1.4026 H   0  0  0  0  0  0  0  0  0  0  0  0
    6.1316    4.6156   -0.9975 H   0  0  0  0  0  0  0  0  0  0  0  0
    4.7345    3.5376   -2.7439 H   0  0  0  0  0  0  0  0  0  0  0  0
    2.8119    2.1201   -2.0955 H   0  0  0  0  0  0  0  0  0  0  0  0
  1  2  1  0
  2  3  1  0
  3  4  1  0
  4  5  2  0
  4  6  1  0
  6  7  1  0
  7  8  1  0
  8  9  1  0
  9 10  1  0
 10 11  1  0
 11 12  1  0
 11 13  1  0
 11 14  1  0
  3 15  2  0
 15 16  1  0
 16 17  1  0
 17 18  1  0
 17 19  1  0
 19 20  1  0
 20 21  2  0
 21 22  1  0
 22 23  1  0
 22 24  2  0
 24 25  1  0
 25 26  1  0
 16 27  1  0
 27 28  1  0
 28 29  2  0
 29 30  1  0
 30 31  2  0
 31 32  1  0
 32 33  2  0
 27  2  2  0
 33 28  1  0
 14  7  1  0
 25 19  2  0
  1 34  1  0
  1 35  1  0
  1 36  1  0
  6 37  1  0
  7 38  1  1
  8 39  1  0
  8 40  1  0
  9 41  1  0
  9 42  1  0
 10 43  1  0
 10 44  1  0
 12 45  1  0
 12 46  1  0
 12 47  1  0
 13 48  1  0
 13 49  1  0
 13 50  1  0
 14 51  1  0
 14 52  1  0
 15 53  1  0
 17 54  1  1
 18 55  1  0
 18 56  1  0
 18 57  1  0
 20 58  1  0
 21 59  1  0
 24 60  1  0
 29 61  1  0
 30 62  1  0
 31 63  1  0
 32 64  1  0
 33 65  1  0
M  END
>  <_SMILES>  (3) 
Cc1c(C(=O)N[C@@H]2CCCC(C)(C)C2)cn([C@@H](C)c2ccc(Cl)cc2Cl)c1-c1ccccc1

$$$$

     RDKit          3D

 65 68  0  0  0  0  0  0  0  0999 V2000
   -0.6383   -2.6668    1.6608 C   0  0  0  0  0  0  0  0  0  0  0  0
   -0.9164   -1.6576    0.5942 C   0  0  0  0  0  0  0  0  0  0  0  0
    0.0761   -1.0384   -0.2402 C   0  0  0  0  0  0  0  0  0  0  0  0
    1.5251   -1.2772   -0.2178 C   0  0  0  0  0  0  0  0  0  0  0  0
    2.0319   -2.1995    0.4132 O   0  0  0  0  0  0  0  0  0  0  0  0
    2.2769   -0.3710   -0.9400 N   0  0  0  0  0  0  0  0  0  0  0  0
    3.7316   -0.3797   -0.8965 C   0  0  1  0  0  0  0  0  0  0  0  0
    4.3023    0.2900   -2.1443 C   0  0  0  0  0  0  0  0  0  0  0  0
    5.8295    0.2466   -2.1805 C   0  0  0  0  0  0  0  0  0  0  0  0
    6.4721    0.0212   -0.8107 C   0  0  0  0  0  0  0  0  0  0  0  0
    5.7324    0.7298    0.3419 C   0  0  0  0  0  0  0  0  0  0  0  0
    5.8316    2.2602    0.1759 C   0  0  0  0  0  0  0  0  0  0  0  0
    6.4147    0.3610    1.6734 C   0  0  0  0  0  0  0  0  0  0  0  0
    4.2421    0.2954    0.3913 C   0  0  0  0  0  0  0  0  0  0  0  0
   -0.6176   -0.1905   -1.0858 C   0  0  0  0  0  0  0  0  0  0  0  0
   -1.9660   -0.2565   -0.7969 N   0  0  0  0  0  0  0  0  0  0  0  0
   -2.9750    0.5279   -1.5524 C   0  0  1  0  0  0  0  0  0  0  0  0
   -3.5881   -0.3369   -2.6547 C   0  0  0  0  0  0  0  0  0  0  0  0
   -3.8303    1.4046   -0.6374 C   0  0  0  0  0  0  0  0  0  0  0  0
   -3.1263    2.3713    0.1276 C   0  0  0  0  0  0  0  0  0  0  0  0
   -3.7754    3.2321    1.0146 C   0  0  0  0  0  0  0  0  0  0  0  0
   -5.1519    3.1535    1.1560 C   0  0  0  0  0  0  0  0  0  0  0  0
   -5.9623    4.2030    2.2506 Cl  0  0  0  0  0  0  0  0  0  0  0  0
   -5.8775    2.2295    0.4141 C   0  0  0  0  0  0  0  0  0  0  0  0
   -5.2284    1.3615   -0.4791 C   0  0  0  0  0  0  0  0  0  0  0  0
   -6.2757    0.2804   -1.3235 Cl  0  0  0  0  0  0  0  0  0  0  0  0
   -2.1656   -1.1574    0.2310 C   0  0  0  0  0  0  0  0  0  0  0  0
   -3.4645   -1.4942    0.8111 C   0  0  0  0  0  0  0  0  0  0  0  0
   -3.9140   -0.8313    1.9594 C   0  0  0  0  0  0  0  0  0  0  0  0
   -5.1444   -1.1627    2.5292 C   0  0  0  0  0  0  0  0  0  0  0  0
   -5.9242   -2.1702    1.9637 C   0  0  0  0  0  0  0  0  0  0  0  0
   -5.4711   -2.8524    0.8351 C   0  0  0  0  0  0  0  0  0  0  0  0
   -4.2412   -2.5200    0.2639 C   0  0  0  0  0  0  0  0  0  0  0  0
   -0.2317   -3.5823    1.2191 H   0  0  0  0  0  0  0  0  0  0  0  0
   -1.5395   -2.9389    2.2179 H   0  0  0  0  0  0  0  0  0  0  0  0
    0.0862   -2.2715    2.3802 H   0  0  0  0  0  0  0  0  0  0  0  0
    1.8179    0.4742   -1.2433 H   0  0  0  0  0  0  0  0  0  0  0  0
    4.0515   -1.4302   -0.8887 H   0  0  0  0  0  0  0  0  0  0  0  0
    3.9039   -0.1834   -3.0505 H   0  0  0  0  0  0  0  0  0  0  0  0
    3.9655    1.3340   -2.1871 H   0  0  0  0  0  0  0  0  0  0  0  0
    6.2022    1.1792   -2.6214 H   0  0  0  0  0  0  0  0  0  0  0  0
    6.1575   -0.5549   -2.8539 H   0  0  0  0  0  0  0  0  0  0  0  0
    7.5221    0.3377   -0.8517 H   0  0  0  0  0  0  0  0  0  0  0  0
    6.4939   -1.0593   -0.6123 H   0  0  0  0  0  0  0  0  0  0  0  0
    5.3185    2.6123   -0.7239 H   0  0  0  0  0  0  0  0  0  0  0  0
    6.8772    2.5817    0.1089 H   0  0  0  0  0  0  0  0  0  0  0  0
    5.3817    2.7784    1.0307 H   0  0  0  0  0  0  0  0  0  0  0  0
    7.4643    0.6761    1.6818 H   0  0  0  0  0  0  0  0  0  0  0  0
    5.9141    0.8424    2.5213 H   0  0  0  0  0  0  0  0  0  0  0  0
    6.3922   -0.7214    1.8434 H   0  0  0  0  0  0  0  0  0  0  0  0
    4.0757   -0.4035    1.2222 H   0  0  0  0  0  0  0  0  0  0  0  0
    3.6128    1.1649    0.6265 H   0  0  0  0  0  0  0  0  0  0  0  0
   -0.2697    0.4420   -1.8913 H   0  0  0  0  0  0  0  0  0  0  0  0
   -2.3777    1.2643   -2.1144 H   0  0  0  0  0  0  0  0  0  0  0  0
   -4.2382    0.2551   -3.3069 H   0  0  0  0  0  0  0  0  0  0  0  0
   -2.8004   -0.7607   -3.2898 H   0  0  0  0  0  0  0  0  0  0  0  0
   -4.1524   -1.1857   -2.2625 H   0  0  0  0  0  0  0  0  0  0  0  0
   -2.0418    2.4489    0.0447 H   0  0  0  0  0  0  0  0  0  0  0  0
   -3.1990    3.9515    1.5905 H   0  0  0  0  0  0  0  0  0  0  0  0
   -6.9575    2.1775    0.5335 H   0  0  0  0  0  0  0  0  0  0  0  0
   -3.3063   -0.0521    2.4129 H   0  0  0  0  0  0  0  0  0  0  0  0
   -5.4906   -0.6380    3.4155 H   0  0  0  0  0  0  0  0  0  0  0  0
   -6.8818   -2.4302    2.4072 H   0  0  0  0  0  0  0  0  0  0  0  0
   -6.0734   -3.6457    0.4006 H   0  0  0  0  0  0  0  0  0  0  0  0
   -3.8894   -3.0681   -0.6065 H   0  0  0  0  0  0  0  0  0  0  0  0
  1  2  1  0
  2  3  1  0
  3  4  1  0
  4  5  2  0
  4  6  1  0
  6  7  1  0
  7  8  1  0
  8  9  1  0
  9 10  1  0
 10 11  1  0
 11 12  1  0
 11 13  1  0
 11 14  1  0
  3 15  2  0
 15 16  1  0
 16 17  1  0
 17 18  1  0
 17 19  1  0
 19 20  1  0
 20 21  2  0
 21 22  1  0
 22 23  1  0
 22 24  2  0
 24 25  1  0
 25 26  1  0
 16 27  1  0
 27 28  1  0
 28 29  2  0
 29 30  1  0
 30 31  2  0
 31 32  1  0
 32 33  2  0
 27  2  2  0
 33 28  1  0
 14  7  1  0
 25 19  2  0
  1 34  1  0
  1 35  1  0
  1 36  1  0
  6 37  1  0
  7 38  1  1
  8 39  1  0
  8 40  1  0
  9 41  1  0
  9 42  1  0
 10 43  1  0
 10 44  1  0
 12 45  1  0
 12 46  1  0
 12 47  1  0
 13 48  1  0
 13 49  1  0
 13 50  1  0
 14 51  1  0
 14 52  1  0
 15 53  1  0
 17 54  1  6
 18 55  1  0
 18 56  1  0
 18 57  1  0
 20 58  1  0
 21 59  1  0
 24 60  1  0
 29 61  1  0
 30 62  1  0
 31 63  1  0
 32 64  1  0
 33 65  1  0
M  END
>  <_SMILES>  (4) 
Cc1c(C(=O)N[C@H]2CCCC(C)(C)C2)cn([C@@H](C)c2ccc(Cl)cc2Cl)c1-c1ccccc1

$$$$

     RDKit          3D

 62 66  0  0  0  0  0  0  0  0999 V2000
    9.6419   -1.3011    1.6466 C   0  0  0  0  0  0  0  0  0  0  0  0
    9.2397   -0.4000    0.4893 C   0  0  0  0  0  0  0  0  0  0  0  0
    7.8098   -0.5832    0.0976 C   0  0  0  0  0  0  0  0  0  0  0  0
    7.3007   -1.5124   -0.8577 C   0  0  0  0  0  0  0  0  0  0  0  0
    5.9362   -1.3408   -0.9033 C   0  0  0  0  0  0  0  0  0  0  0  0
    4.8855   -1.9671   -1.6528 C   0  0  0  0  0  0  0  0  0  0  0  0
    3.6350   -1.6225   -1.5174 N   0  0  0  0  0  0  0  0  0  0  0  0
    3.3304   -0.6153   -0.6167 C   0  0  0  0  0  0  0  0  0  0  0  0
    1.9893   -0.3560   -0.5739 N   0  0  0  0  0  0  0  0  0  0  0  0
    1.2974    0.5816    0.1646 C   0  0  0  0  0  0  0  0  0  0  0  0
    1.8197    1.3926    0.9232 O   0  0  0  0  0  0  0  0  0  0  0  0
   -0.1635    0.5547   -0.0349 C   0  0  0  0  0  0  0  0  0  0  0  0
   -0.9083   -0.4318   -0.6585 C   0  0  0  0  0  0  0  0  0  0  0  0
   -2.2461   -0.0920   -0.6217 N   0  0  0  0  0  0  0  0  0  0  0  0
   -3.2918   -0.9499   -1.2171 C   0  0  2  0  0  0  0  0  0  0  0  0
   -3.8341   -0.3508   -2.5193 C   0  0  0  0  0  0  0  0  0  0  0  0
   -4.3134   -1.4234   -0.1895 C   0  0  0  0  0  0  0  0  0  0  0  0
   -3.8802   -2.2012    0.9024 C   0  0  0  0  0  0  0  0  0  0  0  0
   -4.7832   -2.6579    1.8659 C   0  0  0  0  0  0  0  0  0  0  0  0
   -6.1338   -2.3470    1.7481 C   0  0  0  0  0  0  0  0  0  0  0  0
   -7.2474   -2.9012    2.9361 Cl  0  0  0  0  0  0  0  0  0  0  0  0
   -6.5877   -1.5872    0.6744 C   0  0  0  0  0  0  0  0  0  0  0  0
   -5.6836   -1.1303   -0.2900 C   0  0  0  0  0  0  0  0  0  0  0  0
   -2.3861    1.1261    0.0145 C   0  0  0  0  0  0  0  0  0  0  0  0
   -3.6569    1.8130    0.2420 C   0  0  0  0  0  0  0  0  0  0  0  0
   -4.1285    2.7510   -0.6828 C   0  0  0  0  0  0  0  0  0  0  0  0
   -5.3302    3.4239   -0.4538 C   0  0  0  0  0  0  0  0  0  0  0  0
   -6.0594    3.1734    0.7080 C   0  0  0  0  0  0  0  0  0  0  0  0
   -5.5836    2.2580    1.6456 C   0  0  0  0  0  0  0  0  0  0  0  0
   -4.3813    1.5863    1.4173 C   0  0  0  0  0  0  0  0  0  0  0  0
   -1.1132    1.5437    0.3994 C   0  0  0  0  0  0  0  0  0  0  0  0
   -0.7774    2.8007    1.1351 C   0  0  0  0  0  0  0  0  0  0  0  0
    4.2620    0.0164    0.1217 C   0  0  0  0  0  0  0  0  0  0  0  0
    5.5861   -0.3508   -0.0234 N   0  0  0  0  0  0  0  0  0  0  0  0
    6.7198    0.1167    0.5900 C   0  0  0  0  0  0  0  0  0  0  0  0
    9.0373   -1.0959    2.5366 H   0  0  0  0  0  0  0  0  0  0  0  0
   10.6933   -1.1408    1.9051 H   0  0  0  0  0  0  0  0  0  0  0  0
    9.5119   -2.3578    1.3891 H   0  0  0  0  0  0  0  0  0  0  0  0
    9.4140    0.6466    0.7669 H   0  0  0  0  0  0  0  0  0  0  0  0
    9.8845   -0.6078   -0.3730 H   0  0  0  0  0  0  0  0  0  0  0  0
    7.8754   -2.2224   -1.4390 H   0  0  0  0  0  0  0  0  0  0  0  0
    5.1450   -2.7665   -2.3660 H   0  0  0  0  0  0  0  0  0  0  0  0
    1.4692   -0.9347   -1.2146 H   0  0  0  0  0  0  0  0  0  0  0  0
   -0.6078   -1.3656   -1.1146 H   0  0  0  0  0  0  0  0  0  0  0  0
   -2.7678   -1.8661   -1.5292 H   0  0  0  0  0  0  0  0  0  0  0  0
   -3.0144   -0.0896   -3.1982 H   0  0  0  0  0  0  0  0  0  0  0  0
   -4.4219    0.5553   -2.3544 H   0  0  0  0  0  0  0  0  0  0  0  0
   -4.4781   -1.0703   -3.0373 H   0  0  0  0  0  0  0  0  0  0  0  0
   -2.8256   -2.4484    1.0165 H   0  0  0  0  0  0  0  0  0  0  0  0
   -4.4243   -3.2493    2.7039 H   0  0  0  0  0  0  0  0  0  0  0  0
   -7.6414   -1.3374    0.5834 H   0  0  0  0  0  0  0  0  0  0  0  0
   -6.0720   -0.5232   -1.1042 H   0  0  0  0  0  0  0  0  0  0  0  0
   -3.5575    2.9637   -1.5833 H   0  0  0  0  0  0  0  0  0  0  0  0
   -5.6922    4.1492   -1.1776 H   0  0  0  0  0  0  0  0  0  0  0  0
   -6.9931    3.6997    0.8885 H   0  0  0  0  0  0  0  0  0  0  0  0
   -6.1443    2.0680    2.5569 H   0  0  0  0  0  0  0  0  0  0  0  0
   -4.0135    0.8797    2.1577 H   0  0  0  0  0  0  0  0  0  0  0  0
   -1.6514    3.4434    1.2761 H   0  0  0  0  0  0  0  0  0  0  0  0
   -0.0313    3.3796    0.5812 H   0  0  0  0  0  0  0  0  0  0  0  0
   -0.3755    2.5638    2.1254 H   0  0  0  0  0  0  0  0  0  0  0  0
    4.0571    0.8028    0.8336 H   0  0  0  0  0  0  0  0  0  0  0  0
    6.6606    0.9073    1.3266 H   0  0  0  0  0  0  0  0  0  0  0  0
  1  2  1  0
  2  3  1  0
  3  4  1  0
  4  5  2  0
  5  6  1  0
  6  7  2  0
  7  8  1  0
  8  9  1  0
  9 10  1  0
 10 11  2  0
 10 12  1  0
 12 13  2  0
 13 14  1  0
 14 15  1  0
 15 16  1  0
 15 17  1  0
 17 18  1  0
 18 19  2  0
 19 20  1  0
 20 21  1  0
 20 22  2  0
 22 23  1  0
 14 24  1  0
 24 25  1  0
 25 26  2  0
 26 27  1  0
 27 28  2  0
 28 29  1  0
 29 30  2  0
 24 31  2  0
 31 32  1  0
  8 33  2  0
 33 34  1  0
 34 35  1  0
 35  3  2  0
 34  5  1  0
 31 12  1  0
 23 17  2  0
 30 25  1  0
  1 36  1  0
  1 37  1  0
  1 38  1  0
  2 39  1  0
  2 40  1  0
  4 41  1  0
  6 42  1  0
  9 43  1  0
 13 44  1  0
 15 45  1  6
 16 46  1  0
 16 47  1  0
 16 48  1  0
 18 49  1  0
 19 50  1  0
 22 51  1  0
 23 52  1  0
 26 53  1  0
 27 54  1  0
 28 55  1  0
 29 56  1  0
 30 57  1  0
 32 58  1  0
 32 59  1  0
 32 60  1  0
 33 61  1  0
 35 62  1  0
M  END
>  <_SMILES>  (5) 
CCc1cc2cnc(NC(=O)c3cn([C@H](C)c4ccc(Cl)cc4)c(-c4ccccc4)c3C)cn2c1

$$$$

     RDKit          3D

 52 55  0  0  0  0  0  0  0  0999 V2000
   -1.3165    1.1699   -3.0431 O   0  0  0  0  0  0  0  0  0  0  0  0
   -1.6067    1.6598   -1.9573 C   0  0  0  0  0  0  0  0  0  0  0  0
   -0.7505    1.6558   -0.8790 N   0  0  0  0  0  0  0  0  0  0  0  0
    0.5382    0.9964   -0.9368 C   0  0  0  0  0  0  0  0  0  0  0  0
    0.4187   -0.5312   -0.9158 C   0  0  0  0  0  0  0  0  0  0  0  0
    1.7159   -1.1689   -0.9551 N   0  0  0  0  0  0  0  0  0  0  0  0
    2.3879   -1.6062   -2.0331 C   0  0  0  0  0  0  0  0  0  0  0  0
    3.5769   -2.0554   -1.7965 N   0  0  0  0  0  0  0  0  0  0  0  0
    3.7316   -1.8913   -0.4311 N   0  0  0  0  0  0  0  0  0  0  0  0
    4.9374   -2.2588    0.1997 C   0  0  0  0  0  0  0  0  0  0  0  0
    5.1285   -2.0940    1.5781 C   0  0  0  0  0  0  0  0  0  0  0  0
    6.3343   -2.4666    2.1853 C   0  0  0  0  0  0  0  0  0  0  0  0
    7.3607   -3.0089    1.4177 C   0  0  0  0  0  0  0  0  0  0  0  0
    8.8407   -3.4659    2.1650 Cl  0  0  0  0  0  0  0  0  0  0  0  0
    7.1924   -3.1825    0.0481 C   0  0  0  0  0  0  0  0  0  0  0  0
    5.9866   -2.8092   -0.5552 C   0  0  0  0  0  0  0  0  0  0  0  0
    2.5699   -1.3086    0.1139 C   0  0  0  0  0  0  0  0  0  0  0  0
    2.3268   -0.9605    1.2595 O   0  0  0  0  0  0  0  0  0  0  0  0
   -2.9107    2.3326   -1.7719 C   0  0  0  0  0  0  0  0  0  0  0  0
   -3.3280    3.1659   -2.8049 C   0  0  0  0  0  0  0  0  0  0  0  0
   -4.4796    3.8794   -2.7890 N   0  0  0  0  0  0  0  0  0  0  0  0
   -5.2624    3.7351   -1.7018 C   0  0  0  0  0  0  0  0  0  0  0  0
   -4.9480    2.9120   -0.6310 C   0  0  0  0  0  0  0  0  0  0  0  0
   -3.7488    2.1853   -0.6536 C   0  0  0  0  0  0  0  0  0  0  0  0
   -3.4789    1.2606    0.4676 C   0  0  0  0  0  0  0  0  0  0  0  0
   -3.4202   -0.0646    0.2393 C   0  0  0  0  0  0  0  0  0  0  0  0
   -3.1381   -1.0761    1.3128 C   0  0  0  0  0  0  0  0  0  0  0  0
   -2.6139   -0.4486    2.6046 C   0  0  0  0  0  0  0  0  0  0  0  0
   -3.4057    0.8037    2.9652 C   0  0  0  0  0  0  0  0  0  0  0  0
   -3.3273    1.8518    1.8504 C   0  0  0  0  0  0  0  0  0  0  0  0
   -1.0400    2.0754   -0.0048 H   0  0  0  0  0  0  0  0  0  0  0  0
    1.1219    1.3519   -0.0809 H   0  0  0  0  0  0  0  0  0  0  0  0
    1.0539    1.3217   -1.8480 H   0  0  0  0  0  0  0  0  0  0  0  0
   -0.0925   -0.8471    0.0006 H   0  0  0  0  0  0  0  0  0  0  0  0
   -0.1651   -0.8862   -1.7717 H   0  0  0  0  0  0  0  0  0  0  0  0
    1.9004   -1.5611   -3.0164 H   0  0  0  0  0  0  0  0  0  0  0  0
    4.3508   -1.6761    2.2112 H   0  0  0  0  0  0  0  0  0  0  0  0
    6.4600   -2.3295    3.2561 H   0  0  0  0  0  0  0  0  0  0  0  0
    7.9885   -3.6057   -0.5583 H   0  0  0  0  0  0  0  0  0  0  0  0
    5.8748   -2.9538   -1.6277 H   0  0  0  0  0  0  0  0  0  0  0  0
   -2.7243    3.2962   -3.7007 H   0  0  0  0  0  0  0  0  0  0  0  0
   -6.1865    4.3069   -1.7161 H   0  0  0  0  0  0  0  0  0  0  0  0
   -5.6484    2.8236    0.1939 H   0  0  0  0  0  0  0  0  0  0  0  0
   -3.5821   -0.4659   -0.7601 H   0  0  0  0  0  0  0  0  0  0  0  0
   -2.4041   -1.8019    0.9450 H   0  0  0  0  0  0  0  0  0  0  0  0
   -4.0625   -1.6292    1.5174 H   0  0  0  0  0  0  0  0  0  0  0  0
   -2.6709   -1.1791    3.4193 H   0  0  0  0  0  0  0  0  0  0  0  0
   -1.5546   -0.1875    2.4838 H   0  0  0  0  0  0  0  0  0  0  0  0
   -3.0265    1.2322    3.8998 H   0  0  0  0  0  0  0  0  0  0  0  0
   -4.4547    0.5330    3.1415 H   0  0  0  0  0  0  0  0  0  0  0  0
   -4.0930    2.6115    2.0439 H   0  0  0  0  0  0  0  0  0  0  0  0
   -2.3564    2.3600    1.9061 H   0  0  0  0  0  0  0  0  0  0  0  0
  1  2  2  0
  2  3  1  0
  3  4  1  0
  4  5  1  0
  5  6  1  0
  6  7  1  0
  7  8  2  0
  8  9  1  0
  9 10  1  0
 10 11  1  0
 11 12  2  0
 12 13  1  0
 13 14  1  0
 13 15  2  0
 15 16  1  0
  9 17  1  0
 17 18  2  0
  2 19  1  0
 19 20  2  0
 20 21  1  0
 21 22  2  0
 22 23  1  0
 23 24  2  0
 24 25  1  0
 25 26  2  0
 26 27  1  0
 27 28  1  0
 28 29  1  0
 29 30  1  0
 17  6  1  0
 24 19  1  0
 30 25  1  0
 16 10  2  0
  3 31  1  0
  4 32  1  0
  4 33  1  0
  5 34  1  0
  5 35  1  0
  7 36  1  0
 11 37  1  0
 12 38  1  0
 15 39  1  0
 16 40  1  0
 20 41  1  0
 22 42  1  0
 23 43  1  0
 26 44  1  0
 27 45  1  0
 27 46  1  0
 28 47  1  0
 28 48  1  0
 29 49  1  0
 29 50  1  0
 30 51  1  0
 30 52  1  0
M  END
>  <_SMILES>  (6) 
O=C(NCCn1cnn(-c2ccc(Cl)cc2)c1=O)c1cnccc1C1=CCCCC1

$$$$

     RDKit          3D

 60 65  0  0  0  0  0  0  0  0999 V2000
   -1.1728    0.8835   -2.9348 C   0  0  0  0  0  0  0  0  0  0  0  0
   -1.4510    0.3158   -1.5796 C   0  0  0  0  0  0  0  0  0  0  0  0
   -0.4541   -0.1461   -0.6633 C   0  0  0  0  0  0  0  0  0  0  0  0
    0.9962   -0.2197   -0.8847 C   0  0  0  0  0  0  0  0  0  0  0  0
    1.4832   -0.1588   -2.0067 O   0  0  0  0  0  0  0  0  0  0  0  0
    1.7429   -0.3494    0.2707 N   0  0  0  0  0  0  0  0  0  0  0  0
    3.2017   -0.2119    0.3103 C   0  0  1  0  0  0  0  0  0  0  0  0
    3.9621   -1.0379   -0.7510 C   0  0  0  0  0  0  0  0  0  0  0  0
    5.4827   -0.8364   -0.6153 C   0  0  2  0  0  0  0  0  0  0  0  0
    5.9400   -1.2742    0.7826 C   0  0  0  0  0  0  0  0  0  0  0  0
    5.2223   -0.4411    1.8533 C   0  0  1  0  0  0  0  0  0  0  0  0
    5.5609    1.0495    1.6511 C   0  0  0  0  0  0  0  0  0  0  0  0
    5.1171    1.5039    0.2545 C   0  0  1  0  0  0  0  0  0  0  0  0
    5.7981    0.6565   -0.8252 C   0  0  0  0  0  0  0  0  0  0  0  0
    3.6133    1.2729    0.1860 C   0  0  0  0  0  0  0  0  0  0  0  0
    2.8116    2.2055    0.1666 O   0  0  0  0  0  0  0  0  0  0  0  0
    3.6991   -0.6417    1.7165 C   0  0  0  0  0  0  0  0  0  0  0  0
   -1.1371   -0.5338    0.4747 C   0  0  0  0  0  0  0  0  0  0  0  0
   -2.5016   -0.3771    0.2976 N   0  0  0  0  0  0  0  0  0  0  0  0
   -3.4744   -0.7622    1.2794 C   0  0  0  0  0  0  0  0  0  0  0  0
   -4.7656   -1.1625    0.9112 C   0  0  0  0  0  0  0  0  0  0  0  0
   -5.6974   -1.5411    1.8845 C   0  0  0  0  0  0  0  0  0  0  0  0
   -5.3428   -1.5287    3.2298 C   0  0  0  0  0  0  0  0  0  0  0  0
   -6.4898   -1.9937    4.4238 Cl  0  0  0  0  0  0  0  0  0  0  0  0
   -4.0609   -1.1457    3.6122 C   0  0  0  0  0  0  0  0  0  0  0  0
   -3.1267   -0.7679    2.6414 C   0  0  0  0  0  0  0  0  0  0  0  0
   -2.7003    0.1750   -0.9709 C   0  0  0  0  0  0  0  0  0  0  0  0
   -3.9871    0.6333   -1.5078 C   0  0  0  0  0  0  0  0  0  0  0  0
   -4.6621    1.7093   -0.9176 C   0  0  0  0  0  0  0  0  0  0  0  0
   -5.8821    2.1464   -1.4374 C   0  0  0  0  0  0  0  0  0  0  0  0
   -6.4303    1.5178   -2.5547 C   0  0  0  0  0  0  0  0  0  0  0  0
   -5.7585    0.4550   -3.1571 C   0  0  0  0  0  0  0  0  0  0  0  0
   -4.5390    0.0161   -2.6383 C   0  0  0  0  0  0  0  0  0  0  0  0
   -0.9287    0.0796   -3.6363 H   0  0  0  0  0  0  0  0  0  0  0  0
   -0.3313    1.5829   -2.8961 H   0  0  0  0  0  0  0  0  0  0  0  0
   -2.0276    1.4367   -3.3341 H   0  0  0  0  0  0  0  0  0  0  0  0
    1.2624    0.0029    1.0874 H   0  0  0  0  0  0  0  0  0  0  0  0
    3.7123   -2.1018   -0.6503 H   0  0  0  0  0  0  0  0  0  0  0  0
    3.6858   -0.7459   -1.7685 H   0  0  0  0  0  0  0  0  0  0  0  0
    6.0006   -1.4315   -1.3760 H   0  0  0  0  0  0  0  0  0  0  0  0
    7.0259   -1.1513    0.8771 H   0  0  0  0  0  0  0  0  0  0  0  0
    5.7256   -2.3397    0.9303 H   0  0  0  0  0  0  0  0  0  0  0  0
    5.5471   -0.7595    2.8502 H   0  0  0  0  0  0  0  0  0  0  0  0
    6.6393    1.2085    1.7719 H   0  0  0  0  0  0  0  0  0  0  0  0
    5.0579    1.6484    2.4208 H   0  0  0  0  0  0  0  0  0  0  0  0
    5.3319    2.5662    0.1004 H   0  0  0  0  0  0  0  0  0  0  0  0
    6.8830    0.8143   -0.7921 H   0  0  0  0  0  0  0  0  0  0  0  0
    5.4570    0.9705   -1.8196 H   0  0  0  0  0  0  0  0  0  0  0  0
    3.1883   -0.0599    2.4960 H   0  0  0  0  0  0  0  0  0  0  0  0
    3.4443   -1.6941    1.8989 H   0  0  0  0  0  0  0  0  0  0  0  0
   -0.7548   -0.9905    1.3760 H   0  0  0  0  0  0  0  0  0  0  0  0
   -5.0722   -1.2343   -0.1273 H   0  0  0  0  0  0  0  0  0  0  0  0
   -6.6936   -1.8519    1.5799 H   0  0  0  0  0  0  0  0  0  0  0  0
   -3.7823   -1.1316    4.6627 H   0  0  0  0  0  0  0  0  0  0  0  0
   -2.1472   -0.4439    2.9829 H   0  0  0  0  0  0  0  0  0  0  0  0
   -4.2397    2.2142   -0.0521 H   0  0  0  0  0  0  0  0  0  0  0  0
   -6.4011    2.9806   -0.9728 H   0  0  0  0  0  0  0  0  0  0  0  0
   -7.3784    1.8614   -2.9604 H   0  0  0  0  0  0  0  0  0  0  0  0
   -6.1813   -0.0298   -4.0331 H   0  0  0  0  0  0  0  0  0  0  0  0
   -4.0204   -0.8113   -3.1174 H   0  0  0  0  0  0  0  0  0  0  0  0
  1  2  1  0
  2  3  1  0
  3  4  1  0
  4  5  2  0
  4  6  1  0
  7  6  1  1
  7  8  1  0
  8  9  1  0
  9 10  1  0
 10 11  1  0
 11 12  1  0
 12 13  1  0
 13 14  1  0
 13 15  1  0
 15 16  2  0
 11 17  1  0
  3 18  2  0
 18 19  1  0
 19 20  1  0
 20 21  1  0
 21 22  2  0
 22 23  1  0
 23 24  1  0
 23 25  2  0
 25 26  1  0
 19 27  1  0
 27 28  1  0
 28 29  2  0
 29 30  1  0
 30 31  2  0
 31 32  1  0
 32 33  2  0
 27  2  2  0
 33 28  1  0
 15  7  1  0
 26 20  2  0
 17  7  1  0
 14  9  1  0
  1 34  1  0
  1 35  1  0
  1 36  1  0
  6 37  1  0
  8 38  1  0
  8 39  1  0
  9 40  1  6
 10 41  1  0
 10 42  1  0
 11 43  1  1
 12 44  1  0
 12 45  1  0
 13 46  1  6
 14 47  1  0
 14 48  1  0
 17 49  1  0
 17 50  1  0
 18 51  1  0
 21 52  1  0
 22 53  1  0
 25 54  1  0
 26 55  1  0
 29 56  1  0
 30 57  1  0
 31 58  1  0
 32 59  1  0
 33 60  1  0
M  END
>  <_SMILES>  (7) 
Cc1c(C(=O)N[C@@]23C[C@@H]4C[C@@H](C[C@@H](C4)C2=O)C3)cn(-c2ccc(Cl)cc2)c1-c1ccccc1

$$$$

     RDKit          3D

 66 71  0  0  0  0  0  0  0  0999 V2000
   -0.5872   -1.9986    2.7340 C   0  0  0  0  0  0  0  0  0  0  0  0
   -0.9145   -1.4998    1.3652 C   0  0  0  0  0  0  0  0  0  0  0  0
    0.0349   -0.9927    0.4142 C   0  0  0  0  0  0  0  0  0  0  0  0
    1.4909   -0.8851    0.5850 C   0  0  0  0  0  0  0  0  0  0  0  0
    2.0829   -1.4617    1.4893 O   0  0  0  0  0  0  0  0  0  0  0  0
    2.1161   -0.0775   -0.3462 N   0  0  0  0  0  0  0  0  0  0  0  0
    3.5117    0.3559   -0.2373 C   0  0  1  0  0  0  0  0  0  0  0  0
    3.9193    1.0410   -1.5695 C   0  0  0  0  0  0  0  0  0  0  0  0
    5.3560    1.5969   -1.4930 C   0  0  2  0  0  0  0  0  0  0  0  0
    6.3275    0.4470   -1.1940 C   0  0  0  0  0  0  0  0  0  0  0  0
    5.9572   -0.2184    0.1383 C   0  0  1  0  0  0  0  0  0  0  0  0
    6.0183    0.8182    1.2757 C   0  0  0  0  0  0  0  0  0  0  0  0
    5.0791    1.9921    0.9803 C   0  0  1  0  0  0  0  0  0  0  0  0
    5.4397    2.6418   -0.3621 C   0  0  0  0  0  0  0  0  0  0  0  0
    3.6588    1.4625    0.8320 C   0  0  0  0  0  0  0  0  0  0  0  0
    2.7088    1.9760    1.4206 O   0  0  0  0  0  0  0  0  0  0  0  0
    4.5231   -0.7734    0.0608 C   0  0  0  0  0  0  0  0  0  0  0  0
   -0.6973   -0.6464   -0.7100 C   0  0  0  0  0  0  0  0  0  0  0  0
   -2.0294   -0.9076   -0.4855 N   0  0  0  0  0  0  0  0  0  0  0  0
   -3.1197   -0.6978   -1.4549 C   0  0  2  0  0  0  0  0  0  0  0  0
   -2.6983   -0.8609   -2.9215 C   0  0  0  0  0  0  0  0  0  0  0  0
   -3.8172    0.6373   -1.2289 C   0  0  0  0  0  0  0  0  0  0  0  0
   -5.2038    0.6649   -0.9987 C   0  0  0  0  0  0  0  0  0  0  0  0
   -5.8715    1.8745   -0.7938 C   0  0  0  0  0  0  0  0  0  0  0  0
   -5.1588    3.0698   -0.8222 C   0  0  0  0  0  0  0  0  0  0  0  0
   -6.0603    4.7072   -0.5424 Br  0  0  0  0  0  0  0  0  0  0  0  0
   -3.7860    3.0666   -1.0546 C   0  0  0  0  0  0  0  0  0  0  0  0
   -3.1191    1.8560   -1.2597 C   0  0  0  0  0  0  0  0  0  0  0  0
   -2.1781   -1.4326    0.7868 C   0  0  0  0  0  0  0  0  0  0  0  0
   -3.4654   -1.8177    1.3624 C   0  0  0  0  0  0  0  0  0  0  0  0
   -4.2401   -0.8756    2.0472 C   0  0  0  0  0  0  0  0  0  0  0  0
   -5.4726   -1.2409    2.5907 C   0  0  0  0  0  0  0  0  0  0  0  0
   -5.9319   -2.5509    2.4588 C   0  0  0  0  0  0  0  0  0  0  0  0
   -5.1584   -3.4977    1.7874 C   0  0  0  0  0  0  0  0  0  0  0  0
   -3.9261   -3.1331    1.2422 C   0  0  0  0  0  0  0  0  0  0  0  0
   -0.0097   -1.2501    3.2861 H   0  0  0  0  0  0  0  0  0  0  0  0
   -1.4862   -2.2157    3.3185 H   0  0  0  0  0  0  0  0  0  0  0  0
    0.0011   -2.9196    2.6706 H   0  0  0  0  0  0  0  0  0  0  0  0
    1.4899    0.6078   -0.7459 H   0  0  0  0  0  0  0  0  0  0  0  0
    3.8407    0.3253   -2.3985 H   0  0  0  0  0  0  0  0  0  0  0  0
    3.2279    1.8624   -1.8030 H   0  0  0  0  0  0  0  0  0  0  0  0
    5.6199    2.0665   -2.4472 H   0  0  0  0  0  0  0  0  0  0  0  0
    7.3558    0.8263   -1.1503 H   0  0  0  0  0  0  0  0  0  0  0  0
    6.2944   -0.2921   -2.0038 H   0  0  0  0  0  0  0  0  0  0  0  0
    6.6558   -1.0360    0.3489 H   0  0  0  0  0  0  0  0  0  0  0  0
    7.0461    1.1841    1.3890 H   0  0  0  0  0  0  0  0  0  0  0  0
    5.7390    0.3435    2.2246 H   0  0  0  0  0  0  0  0  0  0  0  0
    5.1138    2.7246    1.7930 H   0  0  0  0  0  0  0  0  0  0  0  0
    6.4513    3.0628   -0.3151 H   0  0  0  0  0  0  0  0  0  0  0  0
    4.7541    3.4712   -0.5766 H   0  0  0  0  0  0  0  0  0  0  0  0
    4.4603   -1.5493   -0.7128 H   0  0  0  0  0  0  0  0  0  0  0  0
    4.3141   -1.2647    1.0157 H   0  0  0  0  0  0  0  0  0  0  0  0
   -0.3674   -0.2488   -1.6592 H   0  0  0  0  0  0  0  0  0  0  0  0
   -3.8322   -1.5102   -1.2633 H   0  0  0  0  0  0  0  0  0  0  0  0
   -3.5750   -0.8288   -3.5786 H   0  0  0  0  0  0  0  0  0  0  0  0
   -2.0197   -0.0671   -3.2522 H   0  0  0  0  0  0  0  0  0  0  0  0
   -2.1958   -1.8216   -3.0792 H   0  0  0  0  0  0  0  0  0  0  0  0
   -5.7750   -0.2614   -0.9627 H   0  0  0  0  0  0  0  0  0  0  0  0
   -6.9425    1.8707   -0.6094 H   0  0  0  0  0  0  0  0  0  0  0  0
   -3.2249    3.9972   -1.0738 H   0  0  0  0  0  0  0  0  0  0  0  0
   -2.0458    1.8759   -1.4338 H   0  0  0  0  0  0  0  0  0  0  0  0
   -3.8854    0.1471    2.1563 H   0  0  0  0  0  0  0  0  0  0  0  0
   -6.0698   -0.5036    3.1206 H   0  0  0  0  0  0  0  0  0  0  0  0
   -6.8892   -2.8363    2.8874 H   0  0  0  0  0  0  0  0  0  0  0  0
   -5.5111   -4.5214    1.6942 H   0  0  0  0  0  0  0  0  0  0  0  0
   -3.3232   -3.8779    0.7283 H   0  0  0  0  0  0  0  0  0  0  0  0
  1  2  1  0
  2  3  1  0
  3  4  1  0
  4  5  2  0
  4  6  1  0
  7  6  1  6
  7  8  1  0
  8  9  1  0
  9 10  1  0
 10 11  1  0
 11 12  1  0
 12 13  1  0
 13 14  1  0
 13 15  1  0
 15 16  2  0
 11 17  1  0
  3 18  2  0
 18 19  1  0
 19 20  1  0
 20 21  1  0
 20 22  1  0
 22 23  1  0
 23 24  2  0
 24 25  1  0
 25 26  1  0
 25 27  2  0
 27 28  1  0
 19 29  1  0
 29 30  1  0
 30 31  2  0
 31 32  1  0
 32 33  2  0
 33 34  1  0
 34 35  2  0
 29  2  2  0
 35 30  1  0
 15  7  1  0
 28 22  2  0
 17  7  1  0
 14  9  1  0
  1 36  1  0
  1 37  1  0
  1 38  1  0
  6 39  1  0
  8 40  1  0
  8 41  1  0
  9 42  1  6
 10 43  1  0
 10 44  1  0
 11 45  1  1
 12 46  1  0
 12 47  1  0
 13 48  1  1
 14 49  1  0
 14 50  1  0
 17 51  1  0
 17 52  1  0
 18 53  1  0
 20 54  1  1
 21 55  1  0
 21 56  1  0
 21 57  1  0
 23 58  1  0
 24 59  1  0
 27 60  1  0
 28 61  1  0
 31 62  1  0
 32 63  1  0
 33 64  1  0
 34 65  1  0
 35 66  1  0
M  END
>  <_SMILES>  (8) 
Cc1c(C(=O)N[C@@]23C[C@@H]4C[C@@H](C[C@@H](C4)C2=O)C3)cn([C@H](C)c2ccc(Br)cc2)c1-c1ccccc1

$$$$

     RDKit          3D

 60 65  0  0  0  0  0  0  0  0999 V2000
   -1.2772   -2.8388   -0.7332 C   0  0  0  0  0  0  0  0  0  0  0  0
   -1.4939   -1.3837   -0.4774 C   0  0  0  0  0  0  0  0  0  0  0  0
   -0.4616   -0.4275   -0.1760 C   0  0  0  0  0  0  0  0  0  0  0  0
    0.9788   -0.6897   -0.0414 C   0  0  0  0  0  0  0  0  0  0  0  0
    1.4277   -1.8275    0.0304 O   0  0  0  0  0  0  0  0  0  0  0  0
    1.7673    0.4449   -0.0170 N   0  0  0  0  0  0  0  0  0  0  0  0
    3.2289    0.4205   -0.1134 C   0  0  1  0  0  0  0  0  0  0  0  0
    3.9264   -0.5710    0.8446 C   0  0  0  0  0  0  0  0  0  0  0  0
    5.4560   -0.5083    0.6799 C   0  0  2  0  0  0  0  0  0  0  0  0
    5.9512    0.9124    0.9820 C   0  0  0  0  0  0  0  0  0  0  0  0
    5.2976    1.9111    0.0173 C   0  0  1  0  0  0  0  0  0  0  0  0
    5.6716    1.5395   -1.4317 C   0  0  0  0  0  0  0  0  0  0  0  0
    5.1902    0.1179   -1.7497 C   0  0  1  0  0  0  0  0  0  0  0  0
    5.8066   -0.8871   -0.7711 C   0  0  0  0  0  0  0  0  0  0  0  0
    3.6786    0.1248   -1.5627 C   0  0  0  0  0  0  0  0  0  0  0  0
    2.9062    0.0337   -2.5155 O   0  0  0  0  0  0  0  0  0  0  0  0
    3.7653    1.8473    0.1813 C   0  0  0  0  0  0  0  0  0  0  0  0
   -1.1047    0.7886   -0.0142 C   0  0  0  0  0  0  0  0  0  0  0  0
   -2.4564    0.6108   -0.1949 N   0  0  0  0  0  0  0  0  0  0  0  0
   -3.4323    1.6986   -0.1235 C   0  0  0  0  0  0  0  0  0  0  0  0
   -4.0332    1.8217    1.2437 C   0  0  0  0  0  0  0  0  0  0  0  0
   -5.2607    1.3623    1.6828 C   0  0  0  0  0  0  0  0  0  0  0  0
   -5.5008    1.6726    3.0520 C   0  0  0  0  0  0  0  0  0  0  0  0
   -4.4560    2.3717    3.6120 C   0  0  0  0  0  0  0  0  0  0  0  0
   -3.1986    2.6552    2.4899 S   0  0  0  0  0  0  0  0  0  0  0  0
   -2.7133   -0.7117   -0.4911 C   0  0  0  0  0  0  0  0  0  0  0  0
   -4.0509   -1.2476   -0.7325 C   0  0  0  0  0  0  0  0  0  0  0  0
   -4.7324   -1.9164    0.2902 C   0  0  0  0  0  0  0  0  0  0  0  0
   -6.0104   -2.4303    0.0648 C   0  0  0  0  0  0  0  0  0  0  0  0
   -6.6097   -2.2841   -1.1857 C   0  0  0  0  0  0  0  0  0  0  0  0
   -5.9305   -1.6296   -2.2131 C   0  0  0  0  0  0  0  0  0  0  0  0
   -4.6522   -1.1154   -1.9887 C   0  0  0  0  0  0  0  0  0  0  0  0
   -0.9469   -3.3391    0.1827 H   0  0  0  0  0  0  0  0  0  0  0  0
   -2.1894   -3.3357   -1.0768 H   0  0  0  0  0  0  0  0  0  0  0  0
   -0.5159   -2.9828   -1.5068 H   0  0  0  0  0  0  0  0  0  0  0  0
    1.3236    1.2397   -0.4555 H   0  0  0  0  0  0  0  0  0  0  0  0
    3.6218   -1.6042    0.6527 H   0  0  0  0  0  0  0  0  0  0  0  0
    3.6497   -0.3493    1.8831 H   0  0  0  0  0  0  0  0  0  0  0  0
    5.9282   -1.2178    1.3688 H   0  0  0  0  0  0  0  0  0  0  0  0
    5.7115    1.1802    2.0183 H   0  0  0  0  0  0  0  0  0  0  0  0
    7.0429    0.9571    0.8854 H   0  0  0  0  0  0  0  0  0  0  0  0
    5.6493    2.9250    0.2388 H   0  0  0  0  0  0  0  0  0  0  0  0
    6.7579    1.6065   -1.5672 H   0  0  0  0  0  0  0  0  0  0  0  0
    5.2147    2.2570   -2.1248 H   0  0  0  0  0  0  0  0  0  0  0  0
    5.4302   -0.1560   -2.7821 H   0  0  0  0  0  0  0  0  0  0  0  0
    6.8961   -0.9072   -0.8961 H   0  0  0  0  0  0  0  0  0  0  0  0
    5.4386   -1.8975   -0.9891 H   0  0  0  0  0  0  0  0  0  0  0  0
    3.4871    2.1496    1.1995 H   0  0  0  0  0  0  0  0  0  0  0  0
    3.3005    2.5768   -0.4961 H   0  0  0  0  0  0  0  0  0  0  0  0
   -0.7190    1.7658    0.2443 H   0  0  0  0  0  0  0  0  0  0  0  0
   -4.2022    1.5180   -0.8804 H   0  0  0  0  0  0  0  0  0  0  0  0
   -2.9182    2.6224   -0.4160 H   0  0  0  0  0  0  0  0  0  0  0  0
   -5.9544    0.8187    1.0513 H   0  0  0  0  0  0  0  0  0  0  0  0
   -6.3947    1.3968    3.5977 H   0  0  0  0  0  0  0  0  0  0  0  0
   -4.3700    2.7333    4.6275 H   0  0  0  0  0  0  0  0  0  0  0  0
   -4.2677   -2.0359    1.2665 H   0  0  0  0  0  0  0  0  0  0  0  0
   -6.5341   -2.9489    0.8635 H   0  0  0  0  0  0  0  0  0  0  0  0
   -7.6027   -2.6894   -1.3628 H   0  0  0  0  0  0  0  0  0  0  0  0
   -6.3921   -1.5275   -3.1917 H   0  0  0  0  0  0  0  0  0  0  0  0
   -4.1223   -0.6204   -2.7990 H   0  0  0  0  0  0  0  0  0  0  0  0
  1  2  1  0
  2  3  1  0
  3  4  1  0
  4  5  2  0
  4  6  1  0
  7  6  1  6
  7  8  1  0
  8  9  1  0
  9 10  1  0
 10 11  1  0
 11 12  1  0
 12 13  1  0
 13 14  1  0
 13 15  1  0
 15 16  2  0
 11 17  1  0
  3 18  2  0
 18 19  1  0
 19 20  1  0
 20 21  1  0
 21 22  2  0
 22 23  1  0
 23 24  2  0
 24 25  1  0
 19 26  1  0
 26 27  1  0
 27 28  2  0
 28 29  1  0
 29 30  2  0
 30 31  1  0
 31 32  2  0
 26  2  2  0
 32 27  1  0
 15  7  1  0
 25 21  1  0
 17  7  1  0
 14  9  1  0
  1 33  1  0
  1 34  1  0
  1 35  1  0
  6 36  1  0
  8 37  1  0
  8 38  1  0
  9 39  1  1
 10 40  1  0
 10 41  1  0
 11 42  1  1
 12 43  1  0
 12 44  1  0
 13 45  1  6
 14 46  1  0
 14 47  1  0
 17 48  1  0
 17 49  1  0
 18 50  1  0
 20 51  1  0
 20 52  1  0
 22 53  1  0
 23 54  1  0
 24 55  1  0
 28 56  1  0
 29 57  1  0
 30 58  1  0
 31 59  1  0
 32 60  1  0
M  END
>  <_SMILES>  (9) 
Cc1c(C(=O)N[C@@]23C[C@@H]4C[C@@H](C[C@@H](C4)C2=O)C3)cn(Cc2cccs2)c1-c1ccccc1

$$$$

     RDKit          3D

 64 69  0  0  0  0  0  0  0  0999 V2000
   -4.2148   -0.5332    1.7915 C   0  0  0  0  0  0  0  0  0  0  0  0
   -3.8141    0.1192    0.4617 C   0  0  2  0  0  0  0  0  0  0  0  0
   -4.4565   -0.5848   -0.7272 C   0  0  0  0  0  0  0  0  0  0  0  0
   -5.4113    0.0923   -1.5042 C   0  0  0  0  0  0  0  0  0  0  0  0
   -6.0132   -0.5307   -2.6009 C   0  0  0  0  0  0  0  0  0  0  0  0
   -5.6722   -1.8433   -2.9363 C   0  0  0  0  0  0  0  0  0  0  0  0
   -6.2870   -2.4812   -4.0631 C   0  0  0  0  0  0  0  0  0  0  0  0
   -6.7868   -2.9947   -4.9762 N   0  0  0  0  0  0  0  0  0  0  0  0
   -4.7275   -2.5293   -2.1690 C   0  0  0  0  0  0  0  0  0  0  0  0
   -4.1255   -1.9052   -1.0725 C   0  0  0  0  0  0  0  0  0  0  0  0
   -2.3606    0.2566    0.2718 N   0  0  0  0  0  0  0  0  0  0  0  0
   -1.4066   -0.6108    0.7482 C   0  0  0  0  0  0  0  0  0  0  0  0
   -0.1485   -0.1614    0.3867 C   0  0  0  0  0  0  0  0  0  0  0  0
    1.0971   -0.8514    0.7287 C   0  0  0  0  0  0  0  0  0  0  0  0
    1.0976   -1.9723    1.2235 O   0  0  0  0  0  0  0  0  0  0  0  0
    2.2397   -0.1269    0.4549 N   0  0  0  0  0  0  0  0  0  0  0  0
    3.5751   -0.5141    0.9179 C   0  0  1  0  0  0  0  0  0  0  0  0
    4.6206    0.4045    0.2304 C   0  0  0  0  0  0  0  0  0  0  0  0
    6.0456    0.1026    0.7370 C   0  0  2  0  0  0  0  0  0  0  0  0
    6.3861   -1.3650    0.4437 C   0  0  0  0  0  0  0  0  0  0  0  0
    5.3799   -2.2865    1.1461 C   0  0  1  0  0  0  0  0  0  0  0  0
    5.4189   -2.0413    2.6661 C   0  0  0  0  0  0  0  0  0  0  0  0
    5.1135   -0.5727    2.9787 C   0  0  1  0  0  0  0  0  0  0  0  0
    6.1084    0.3465    2.2582 C   0  0  0  0  0  0  0  0  0  0  0  0
    3.7350   -0.2294    2.4291 C   0  0  0  0  0  0  0  0  0  0  0  0
    2.8855    0.3391    3.1130 O   0  0  0  0  0  0  0  0  0  0  0  0
    3.9576   -1.9848    0.6390 C   0  0  0  0  0  0  0  0  0  0  0  0
   -0.3685    1.0317   -0.3584 C   0  0  0  0  0  0  0  0  0  0  0  0
   -1.7298    1.2804   -0.4148 C   0  0  0  0  0  0  0  0  0  0  0  0
   -2.4166    2.3782   -1.0858 C   0  0  0  0  0  0  0  0  0  0  0  0
   -2.7367    2.2805   -2.4440 C   0  0  0  0  0  0  0  0  0  0  0  0
   -3.4004    3.3269   -3.0866 C   0  0  0  0  0  0  0  0  0  0  0  0
   -3.7403    4.4775   -2.3759 C   0  0  0  0  0  0  0  0  0  0  0  0
   -3.4144    4.5849   -1.0241 C   0  0  0  0  0  0  0  0  0  0  0  0
   -2.7512    3.5387   -0.3802 C   0  0  0  0  0  0  0  0  0  0  0  0
   -5.3016   -0.4909    1.9272 H   0  0  0  0  0  0  0  0  0  0  0  0
   -3.9243   -1.5878    1.8466 H   0  0  0  0  0  0  0  0  0  0  0  0
   -3.7500   -0.0128    2.6363 H   0  0  0  0  0  0  0  0  0  0  0  0
   -4.1961    1.1464    0.5158 H   0  0  0  0  0  0  0  0  0  0  0  0
   -5.6859    1.1196   -1.2680 H   0  0  0  0  0  0  0  0  0  0  0  0
   -6.7453    0.0183   -3.1904 H   0  0  0  0  0  0  0  0  0  0  0  0
   -4.4488   -3.5516   -2.4188 H   0  0  0  0  0  0  0  0  0  0  0  0
   -3.3871   -2.4599   -0.4958 H   0  0  0  0  0  0  0  0  0  0  0  0
   -1.6741   -1.4939    1.3143 H   0  0  0  0  0  0  0  0  0  0  0  0
    2.0768    0.8698    0.4121 H   0  0  0  0  0  0  0  0  0  0  0  0
    4.5770    0.2727   -0.8588 H   0  0  0  0  0  0  0  0  0  0  0  0
    4.3863    1.4603    0.4241 H   0  0  0  0  0  0  0  0  0  0  0  0
    6.7627    0.7579    0.2301 H   0  0  0  0  0  0  0  0  0  0  0  0
    6.3674   -1.5453   -0.6381 H   0  0  0  0  0  0  0  0  0  0  0  0
    7.4033   -1.5899    0.7871 H   0  0  0  0  0  0  0  0  0  0  0  0
    5.6295   -3.3329    0.9366 H   0  0  0  0  0  0  0  0  0  0  0  0
    4.6887   -2.6910    3.1646 H   0  0  0  0  0  0  0  0  0  0  0  0
    6.4077   -2.3070    3.0593 H   0  0  0  0  0  0  0  0  0  0  0  0
    5.1305   -0.3991    4.0593 H   0  0  0  0  0  0  0  0  0  0  0  0
    7.1247    0.1601    2.6258 H   0  0  0  0  0  0  0  0  0  0  0  0
    5.8751    1.3971    2.4720 H   0  0  0  0  0  0  0  0  0  0  0  0
    3.8883   -2.1947   -0.4360 H   0  0  0  0  0  0  0  0  0  0  0  0
    3.2796   -2.6828    1.1392 H   0  0  0  0  0  0  0  0  0  0  0  0
    0.3815    1.6547   -0.8283 H   0  0  0  0  0  0  0  0  0  0  0  0
   -2.4757    1.3852   -3.0040 H   0  0  0  0  0  0  0  0  0  0  0  0
   -3.6486    3.2445   -4.1416 H   0  0  0  0  0  0  0  0  0  0  0  0
   -4.2536    5.2940   -2.8777 H   0  0  0  0  0  0  0  0  0  0  0  0
   -3.6718    5.4854   -0.4724 H   0  0  0  0  0  0  0  0  0  0  0  0
   -2.4943    3.6329    0.6723 H   0  0  0  0  0  0  0  0  0  0  0  0
  1  2  1  0
  2  3  1  0
  3  4  1  0
  4  5  2  0
  5  6  1  0
  6  7  1  0
  7  8  3  0
  6  9  2  0
  9 10  1  0
  2 11  1  0
 11 12  1  0
 12 13  2  0
 13 14  1  0
 14 15  2  0
 14 16  1  0
 17 16  1  6
 17 18  1  0
 18 19  1  0
 19 20  1  0
 20 21  1  0
 21 22  1  0
 22 23  1  0
 23 24  1  0
 23 25  1  0
 25 26  2  0
 21 27  1  0
 13 28  1  0
 28 29  2  0
 29 30  1  0
 30 31  2  0
 31 32  1  0
 32 33  2  0
 33 34  1  0
 34 35  2  0
 10  3  2  0
 29 11  1  0
 35 30  1  0
 25 17  1  0
 27 17  1  0
 24 19  1  0
  1 36  1  0
  1 37  1  0
  1 38  1  0
  2 39  1  1
  4 40  1  0
  5 41  1  0
  9 42  1  0
 10 43  1  0
 12 44  1  0
 16 45  1  0
 18 46  1  0
 18 47  1  0
 19 48  1  6
 20 49  1  0
 20 50  1  0
 21 51  1  1
 22 52  1  0
 22 53  1  0
 23 54  1  1
 24 55  1  0
 24 56  1  0
 27 57  1  0
 27 58  1  0
 28 59  1  0
 31 60  1  0
 32 61  1  0
 33 62  1  0
 34 63  1  0
 35 64  1  0
M  END
>  <_SMILES>  (10) 
C[C@H](c1ccc(C#N)cc1)n1cc(C(=O)N[C@@]23C[C@@H]4C[C@@H](C[C@@H](C4)C2=O)C3)cc1-c1ccccc1

$$$$

     RDKit          3D

 66 71  0  0  0  0  0  0  0  0999 V2000
   -1.0840    2.3540   -0.0262 C   0  0  0  0  0  0  0  0  0  0  0  0
   -0.2322    1.1307   -0.1268 C   0  0  0  0  0  0  0  0  0  0  0  0
   -0.6343   -0.2210    0.1403 C   0  0  0  0  0  0  0  0  0  0  0  0
   -1.9334   -0.7780    0.5136 C   0  0  0  0  0  0  0  0  0  0  0  0
   -2.0439   -1.6951    1.3199 O   0  0  0  0  0  0  0  0  0  0  0  0
   -3.0039   -0.2191   -0.1482 N   0  0  0  0  0  0  0  0  0  0  0  0
   -4.3649   -0.4559    0.2516 C   0  0  1  0  0  0  0  0  0  0  0  0
   -5.4083    0.0995   -0.7407 C   0  0  0  0  0  0  0  0  0  0  0  0
   -6.6670   -0.6866   -0.3273 C   0  0  2  0  0  0  0  0  0  0  0  0
   -7.0852   -0.3326    1.1384 C   0  0  0  0  0  0  0  0  0  0  0  0
   -5.9128   -0.5361    2.1346 C   0  0  1  0  0  0  0  0  0  0  0  0
   -5.2968   -1.9294    1.9821 C   0  0  0  0  0  0  0  0  0  0  0  0
   -4.8382   -1.9337    0.5100 C   0  0  1  0  0  0  0  0  0  0  0  0
   -6.0939   -2.1014   -0.3608 C   0  0  0  0  0  0  0  0  0  0  0  0
   -4.7634    0.2402    1.5545 C   0  0  0  0  0  0  0  0  0  0  0  0
   -4.3291    1.3017    1.9759 O   0  0  0  0  0  0  0  0  0  0  0  0
    0.5054   -0.9907    0.0168 C   0  0  0  0  0  0  0  0  0  0  0  0
    1.5587   -0.1956   -0.3679 N   0  0  0  0  0  0  0  0  0  0  0  0
    2.9039   -0.7459   -0.5932 C   0  0  1  0  0  0  0  0  0  0  0  0
    3.3525   -0.6165   -2.0514 C   0  0  0  0  0  0  0  0  0  0  0  0
    3.9369   -0.2037    0.4128 C   0  0  0  0  0  0  0  0  0  0  0  0
    5.1521   -1.0931    0.5508 C   0  0  0  0  0  0  0  0  0  0  0  0
    5.0957   -2.2521    1.3371 C   0  0  0  0  0  0  0  0  0  0  0  0
    6.2117   -3.0816    1.4540 C   0  0  0  0  0  0  0  0  0  0  0  0
    7.3926   -2.7613    0.7870 C   0  0  0  0  0  0  0  0  0  0  0  0
    7.4593   -1.6108    0.0034 C   0  0  0  0  0  0  0  0  0  0  0  0
    6.3446   -0.7795   -0.1149 C   0  0  0  0  0  0  0  0  0  0  0  0
    1.1213    1.1110   -0.4705 C   0  0  0  0  0  0  0  0  0  0  0  0
    1.9553    2.2532   -0.8412 C   0  0  0  0  0  0  0  0  0  0  0  0
    2.0616    2.6426   -2.1808 C   0  0  0  0  0  0  0  0  0  0  0  0
    2.8335    3.7514   -2.5326 C   0  0  0  0  0  0  0  0  0  0  0  0
    3.4902    4.4855   -1.5456 C   0  0  0  0  0  0  0  0  0  0  0  0
    3.3697    4.1173   -0.2062 C   0  0  0  0  0  0  0  0  0  0  0  0
    2.5981    3.0087    0.1460 C   0  0  0  0  0  0  0  0  0  0  0  0
   -1.8482    2.2384    0.7484 H   0  0  0  0  0  0  0  0  0  0  0  0
   -0.4933    3.2361    0.2393 H   0  0  0  0  0  0  0  0  0  0  0  0
   -1.5788    2.5497   -0.9825 H   0  0  0  0  0  0  0  0  0  0  0  0
   -2.8147    0.6134   -0.6862 H   0  0  0  0  0  0  0  0  0  0  0  0
   -5.1285   -0.1236   -1.7780 H   0  0  0  0  0  0  0  0  0  0  0  0
   -5.5545    1.1827   -0.6570 H   0  0  0  0  0  0  0  0  0  0  0  0
   -7.4966   -0.5475   -1.0256 H   0  0  0  0  0  0  0  0  0  0  0  0
   -7.9309   -0.9630    1.4372 H   0  0  0  0  0  0  0  0  0  0  0  0
   -7.4186    0.7118    1.1705 H   0  0  0  0  0  0  0  0  0  0  0  0
   -6.1406   -0.2621    3.1654 H   0  0  0  0  0  0  0  0  0  0  0  0
   -4.4344   -2.0486    2.6497 H   0  0  0  0  0  0  0  0  0  0  0  0
   -6.0119   -2.7274    2.2068 H   0  0  0  0  0  0  0  0  0  0  0  0
   -4.1040   -2.7147    0.2983 H   0  0  0  0  0  0  0  0  0  0  0  0
   -5.8170   -2.3876   -1.3827 H   0  0  0  0  0  0  0  0  0  0  0  0
   -6.7908   -2.8530    0.0238 H   0  0  0  0  0  0  0  0  0  0  0  0
    0.6321   -2.0562    0.1655 H   0  0  0  0  0  0  0  0  0  0  0  0
    2.7942   -1.8245   -0.4105 H   0  0  0  0  0  0  0  0  0  0  0  0
    3.6989    0.3931   -2.2860 H   0  0  0  0  0  0  0  0  0  0  0  0
    2.5388   -0.8667   -2.7408 H   0  0  0  0  0  0  0  0  0  0  0  0
    4.1834   -1.2985   -2.2609 H   0  0  0  0  0  0  0  0  0  0  0  0
    3.4816   -0.0944    1.4065 H   0  0  0  0  0  0  0  0  0  0  0  0
    4.2676    0.8004    0.1267 H   0  0  0  0  0  0  0  0  0  0  0  0
    4.1818   -2.5144    1.8663 H   0  0  0  0  0  0  0  0  0  0  0  0
    6.1600   -3.9775    2.0674 H   0  0  0  0  0  0  0  0  0  0  0  0
    8.2616   -3.4074    0.8796 H   0  0  0  0  0  0  0  0  0  0  0  0
    8.3808   -1.3600   -0.5154 H   0  0  0  0  0  0  0  0  0  0  0  0
    6.4132    0.1148   -0.7306 H   0  0  0  0  0  0  0  0  0  0  0  0
    1.5436    2.0817   -2.9549 H   0  0  0  0  0  0  0  0  0  0  0  0
    2.9175    4.0451   -3.5756 H   0  0  0  0  0  0  0  0  0  0  0  0
    4.0886    5.3508   -1.8192 H   0  0  0  0  0  0  0  0  0  0  0  0
    3.8705    4.6964    0.5653 H   0  0  0  0  0  0  0  0  0  0  0  0
    2.4971    2.7361    1.1942 H   0  0  0  0  0  0  0  0  0  0  0  0
  1  2  1  0
  2  3  1  0
  3  4  1  0
  4  5  2  0
  4  6  1  0
  7  6  1  6
  7  8  1  0
  8  9  1  0
  9 10  1  0
 10 11  1  0
 11 12  1  0
 12 13  1  0
 13 14  1  0
 11 15  1  0
 15 16  2  0
  3 17  2  0
 17 18  1  0
 18 19  1  0
 19 20  1  0
 19 21  1  0
 21 22  1  0
 22 23  2  0
 23 24  1  0
 24 25  2  0
 25 26  1  0
 26 27  2  0
 18 28  1  0
 28 29  1  0
 29 30  2  0
 30 31  1  0
 31 32  2  0
 32 33  1  0
 33 34  2  0
 28  2  2  0
 34 29  1  0
 13  7  1  0
 27 22  1  0
 15  7  1  0
 14  9  1  0
  1 35  1  0
  1 36  1  0
  1 37  1  0
  6 38  1  0
  8 39  1  0
  8 40  1  0
  9 41  1  6
 10 42  1  0
 10 43  1  0
 11 44  1  1
 12 45  1  0
 12 46  1  0
 13 47  1  1
 14 48  1  0
 14 49  1  0
 17 50  1  0
 19 51  1  1
 20 52  1  0
 20 53  1  0
 20 54  1  0
 21 55  1  0
 21 56  1  0
 23 57  1  0
 24 58  1  0
 25 59  1  0
 26 60  1  0
 27 61  1  0
 30 62  1  0
 31 63  1  0
 32 64  1  0
 33 65  1  0
 34 66  1  0
M  END
>  <_SMILES>  (11) 
Cc1c(C(=O)N[C@@]23C[C@@H]4C[C@@H](C[C@H]2C4)C3=O)cn([C@@H](C)Cc2ccccc2)c1-c1ccccc1

$$$$

     RDKit          3D

 59 64  0  0  0  0  0  0  0  0999 V2000
    8.2154    1.2095    0.3978 C   0  0  0  0  0  0  0  0  0  0  0  0
    7.2317    0.2143    0.6454 O   0  0  0  0  0  0  0  0  0  0  0  0
    5.9008    0.6784    0.3700 C   0  0  1  0  0  0  0  0  0  0  0  0
    5.8049    0.9716   -1.0444 O   0  0  0  0  0  0  0  0  0  0  0  0
    4.5336    1.0675   -1.6895 C   0  0  1  0  0  0  0  0  0  0  0  0
    4.0431   -0.3230   -2.1503 C   0  0  0  0  0  0  0  0  0  0  0  0
    3.6014   -0.8489   -0.8115 C   0  0  0  0  0  0  0  0  0  0  0  0
    4.5671   -1.4353   -0.0721 C   0  0  0  0  0  0  0  0  0  0  0  0
    4.9332   -0.4113    0.9843 C   0  0  2  0  0  0  0  0  0  0  0  0
    3.5544    0.1799    1.3245 C   0  0  0  0  0  0  0  0  0  0  0  0
    2.8798    0.2413   -0.0353 C   0  0  2  0  0  0  0  0  0  0  0  0
    1.4521    0.1383   -0.0850 N   0  0  0  0  0  0  0  0  0  0  0  0
    0.7050   -0.8957    0.4277 C   0  0  0  0  0  0  0  0  0  0  0  0
    1.1931   -1.9032    0.9279 O   0  0  0  0  0  0  0  0  0  0  0  0
   -0.7266   -0.6512    0.3153 C   0  0  0  0  0  0  0  0  0  0  0  0
   -1.2145    0.4583   -0.2149 N   0  0  0  0  0  0  0  0  0  0  0  0
   -2.5837    0.3223   -0.1870 C   0  0  0  0  0  0  0  0  0  0  0  0
   -3.4581    1.3691   -0.6960 C   0  0  0  0  0  0  0  0  0  0  0  0
   -3.0862    2.7110   -0.5205 C   0  0  0  0  0  0  0  0  0  0  0  0
   -3.8952    3.7458   -0.9991 C   0  0  0  0  0  0  0  0  0  0  0  0
   -5.0798    3.4432   -1.6650 C   0  0  0  0  0  0  0  0  0  0  0  0
   -6.0790    4.7134   -2.2545 Cl  0  0  0  0  0  0  0  0  0  0  0  0
   -5.4575    2.1170   -1.8614 C   0  0  0  0  0  0  0  0  0  0  0  0
   -4.6458    1.0831   -1.3827 C   0  0  0  0  0  0  0  0  0  0  0  0
   -2.9518   -0.8859    0.3923 C   0  0  0  0  0  0  0  0  0  0  0  0
   -4.2613   -1.4600    0.6882 C   0  0  0  0  0  0  0  0  0  0  0  0
   -5.0952   -0.8600    1.6387 C   0  0  0  0  0  0  0  0  0  0  0  0
   -6.3512   -1.4026    1.9162 C   0  0  0  0  0  0  0  0  0  0  0  0
   -6.7815   -2.5461    1.2446 C   0  0  0  0  0  0  0  0  0  0  0  0
   -5.9587   -3.1473    0.2933 C   0  0  0  0  0  0  0  0  0  0  0  0
   -4.7027   -2.6057    0.0140 C   0  0  0  0  0  0  0  0  0  0  0  0
   -1.7475   -1.4787    0.7274 N   0  0  0  0  0  0  0  0  0  0  0  0
   -1.5561   -2.7293    1.4281 C   0  0  0  0  0  0  0  0  0  0  0  0
    3.3815    1.4669   -0.7900 C   0  0  0  0  0  0  0  0  0  0  0  0
    2.9544    2.6070   -0.6515 O   0  0  0  0  0  0  0  0  0  0  0  0
    8.2502    1.4704   -0.6639 H   0  0  0  0  0  0  0  0  0  0  0  0
    8.0233    2.1020    1.0011 H   0  0  0  0  0  0  0  0  0  0  0  0
    9.1900    0.8034    0.6824 H   0  0  0  0  0  0  0  0  0  0  0  0
    5.7545    1.6194    0.9158 H   0  0  0  0  0  0  0  0  0  0  0  0
    4.6162    1.7416   -2.5465 H   0  0  0  0  0  0  0  0  0  0  0  0
    4.8441   -0.9137   -2.6059 H   0  0  0  0  0  0  0  0  0  0  0  0
    3.1909   -0.2619   -2.8354 H   0  0  0  0  0  0  0  0  0  0  0  0
    5.3676   -2.0360   -0.4964 H   0  0  0  0  0  0  0  0  0  0  0  0
    5.3729   -0.8807    1.8706 H   0  0  0  0  0  0  0  0  0  0  0  0
    3.6306    1.1579    1.8129 H   0  0  0  0  0  0  0  0  0  0  0  0
    3.0268   -0.4861    2.0182 H   0  0  0  0  0  0  0  0  0  0  0  0
    0.9110    0.9529   -0.3733 H   0  0  0  0  0  0  0  0  0  0  0  0
   -2.1587    2.9554   -0.0056 H   0  0  0  0  0  0  0  0  0  0  0  0
   -3.5920    4.7785   -0.8505 H   0  0  0  0  0  0  0  0  0  0  0  0
   -6.3769    1.8777   -2.3888 H   0  0  0  0  0  0  0  0  0  0  0  0
   -4.9503    0.0561   -1.5663 H   0  0  0  0  0  0  0  0  0  0  0  0
   -4.7728    0.0352    2.1660 H   0  0  0  0  0  0  0  0  0  0  0  0
   -6.9944   -0.9305    2.6546 H   0  0  0  0  0  0  0  0  0  0  0  0
   -7.7606   -2.9664    1.4606 H   0  0  0  0  0  0  0  0  0  0  0  0
   -6.2972   -4.0355   -0.2341 H   0  0  0  0  0  0  0  0  0  0  0  0
   -4.0751   -3.0773   -0.7386 H   0  0  0  0  0  0  0  0  0  0  0  0
   -2.5072   -3.1145    1.7987 H   0  0  0  0  0  0  0  0  0  0  0  0
   -1.1124   -3.4473    0.7339 H   0  0  0  0  0  0  0  0  0  0  0  0
   -0.8997   -2.5545    2.2846 H   0  0  0  0  0  0  0  0  0  0  0  0
  1  2  1  0
  2  3  1  0
  3  4  1  0
  4  5  1  0
  5  6  1  0
  6  7  1  0
  7  8  2  0
  8  9  1  0
  9 10  1  0
 10 11  1  0
 11 12  1  1
 12 13  1  0
 13 14  2  0
 13 15  1  0
 15 16  2  0
 16 17  1  0
 17 18  1  0
 18 19  1  0
 19 20  2  0
 20 21  1  0
 21 22  1  0
 21 23  2  0
 23 24  1  0
 17 25  2  0
 25 26  1  0
 26 27  2  0
 27 28  1  0
 28 29  2  0
 29 30  1  0
 30 31  2  0
 25 32  1  0
 32 33  1  0
 11 34  1  0
 34 35  2  0
  9  3  1  0
 32 15  1  0
 34  5  1  0
 11  7  1  0
 24 18  2  0
 31 26  1  0
  1 36  1  0
  1 37  1  0
  1 38  1  0
  3 39  1  1
  5 40  1  6
  6 41  1  0
  6 42  1  0
  8 43  1  0
  9 44  1  1
 10 45  1  0
 10 46  1  0
 12 47  1  0
 19 48  1  0
 20 49  1  0
 23 50  1  0
 24 51  1  0
 27 52  1  0
 28 53  1  0
 29 54  1  0
 30 55  1  0
 31 56  1  0
 33 57  1  0
 33 58  1  0
 33 59  1  0
M  END
>  <_SMILES>  (12) 
CO[C@H]1O[C@H]2CC3=C[C@@H]1C[C@@]3(NC(=O)c1nc(-c3ccc(Cl)cc3)c(-c3ccccc3)n1C)C2=O

$$$$

     RDKit          3D

 60 65  0  0  0  0  0  0  0  0999 V2000
    8.2863    0.6556   -0.1413 C   0  0  0  0  0  0  0  0  0  0  0  0
    7.0045    1.1666    0.2042 O   0  0  0  0  0  0  0  0  0  0  0  0
    6.0179    0.8959   -0.7976 C   0  0  1  0  0  0  0  0  0  0  0  0
    5.8295   -0.5207   -0.9435 O   0  0  0  0  0  0  0  0  0  0  0  0
    4.7929   -1.2564   -0.2902 C   0  0  1  0  0  0  0  0  0  0  0  0
    4.3640   -0.8062    1.1175 C   0  0  0  0  0  0  0  0  0  0  0  0
    3.5614    0.4459    0.7945 C   0  0  0  0  0  0  0  0  0  0  0  0
    4.2684    1.5848    0.8935 C   0  0  0  0  0  0  0  0  0  0  0  0
    4.7768    1.8266   -0.5167 C   0  0  2  0  0  0  0  0  0  0  0  0
    3.5378    1.4702   -1.3457 C   0  0  0  0  0  0  0  0  0  0  0  0
    2.9161    0.2978   -0.5725 C   0  0  2  0  0  0  0  0  0  0  0  0
    1.4680    0.3359   -0.5225 N   0  0  0  0  0  0  0  0  0  0  0  0
    0.7507   -0.6489    0.1436 C   0  0  0  0  0  0  0  0  0  0  0  0
    1.2619   -1.6145    0.6991 O   0  0  0  0  0  0  0  0  0  0  0  0
   -0.6626   -0.4629    0.1417 C   0  0  0  0  0  0  0  0  0  0  0  0
   -1.3620    0.2572   -0.7528 N   0  0  0  0  0  0  0  0  0  0  0  0
   -2.7321    0.1203   -0.5884 C   0  0  0  0  0  0  0  0  0  0  0  0
   -3.7756    0.6464   -1.6483 C   0  0  0  0  0  0  0  0  0  0  0  0
   -5.0512    0.0885   -1.7692 C   0  0  0  0  0  0  0  0  0  0  0  0
   -5.9383    0.5668   -2.7399 C   0  0  0  0  0  0  0  0  0  0  0  0
   -5.5471    1.5916   -3.5973 C   0  0  0  0  0  0  0  0  0  0  0  0
   -6.6385    2.1775   -4.7873 Cl  0  0  0  0  0  0  0  0  0  0  0  0
   -4.2697    2.1371   -3.4987 C   0  0  0  0  0  0  0  0  0  0  0  0
   -3.3795    1.6602   -2.5309 C   0  0  0  0  0  0  0  0  0  0  0  0
   -2.8905   -0.6127    0.5882 C   0  0  0  0  0  0  0  0  0  0  0  0
   -4.2251   -0.9512    1.3602 C   0  0  0  0  0  0  0  0  0  0  0  0
   -5.2534   -0.0059    1.4377 C   0  0  0  0  0  0  0  0  0  0  0  0
   -6.4237   -0.3043    2.1379 C   0  0  0  0  0  0  0  0  0  0  0  0
   -6.5680   -1.5414    2.7625 C   0  0  0  0  0  0  0  0  0  0  0  0
   -5.5423   -2.4820    2.6919 C   0  0  0  0  0  0  0  0  0  0  0  0
   -4.3684   -2.1875    1.9959 C   0  0  0  0  0  0  0  0  0  0  0  0
   -1.5840   -0.9525    1.0050 N   0  0  0  0  0  0  0  0  0  0  0  0
   -1.2122   -1.6433    2.2456 C   0  0  0  0  0  0  0  0  0  0  0  0
    3.5340   -0.9920   -1.0754 C   0  0  0  0  0  0  0  0  0  0  0  0
    3.1015   -1.6499   -2.0137 O   0  0  0  0  0  0  0  0  0  0  0  0
    8.9895    0.9396    0.6464 H   0  0  0  0  0  0  0  0  0  0  0  0
    8.6321    1.0859   -1.0860 H   0  0  0  0  0  0  0  0  0  0  0  0
    8.2660   -0.4361   -0.2064 H   0  0  0  0  0  0  0  0  0  0  0  0
    6.4237    1.2298   -1.7613 H   0  0  0  0  0  0  0  0  0  0  0  0
    5.0396   -2.3213   -0.3122 H   0  0  0  0  0  0  0  0  0  0  0  0
    3.7201   -1.5442    1.6060 H   0  0  0  0  0  0  0  0  0  0  0  0
    5.2315   -0.6133    1.7572 H   0  0  0  0  0  0  0  0  0  0  0  0
    4.9698    1.7788    1.7049 H   0  0  0  0  0  0  0  0  0  0  0  0
    5.0587    2.8786   -0.6334 H   0  0  0  0  0  0  0  0  0  0  0  0
    2.8563    2.3312   -1.3758 H   0  0  0  0  0  0  0  0  0  0  0  0
    3.7945    1.2212   -2.3817 H   0  0  0  0  0  0  0  0  0  0  0  0
    1.0526    1.2553   -0.5901 H   0  0  0  0  0  0  0  0  0  0  0  0
   -0.9283    0.6588   -1.5769 H   0  0  0  0  0  0  0  0  0  0  0  0
   -5.3798   -0.7493   -1.1606 H   0  0  0  0  0  0  0  0  0  0  0  0
   -6.9294    0.1262   -2.8311 H   0  0  0  0  0  0  0  0  0  0  0  0
   -3.9653    2.9359   -4.1722 H   0  0  0  0  0  0  0  0  0  0  0  0
   -2.3992    2.1231   -2.4713 H   0  0  0  0  0  0  0  0  0  0  0  0
   -5.1596    0.9823    0.9941 H   0  0  0  0  0  0  0  0  0  0  0  0
   -7.2238    0.4307    2.2058 H   0  0  0  0  0  0  0  0  0  0  0  0
   -7.4819   -1.7727    3.3068 H   0  0  0  0  0  0  0  0  0  0  0  0
   -5.6649   -3.4497    3.1749 H   0  0  0  0  0  0  0  0  0  0  0  0
   -3.6051   -2.9569    1.9260 H   0  0  0  0  0  0  0  0  0  0  0  0
   -0.2712   -1.2422    2.6308 H   0  0  0  0  0  0  0  0  0  0  0  0
   -1.9642   -1.4737    3.0188 H   0  0  0  0  0  0  0  0  0  0  0  0
   -1.1091   -2.7114    2.0400 H   0  0  0  0  0  0  0  0  0  0  0  0
  1  2  1  0
  2  3  1  0
  3  4  1  0
  4  5  1  0
  5  6  1  0
  6  7  1  0
  7  8  2  0
  8  9  1  0
  9 10  1  0
 10 11  1  0
 11 12  1  1
 12 13  1  0
 13 14  2  0
 13 15  1  0
 15 16  2  0
 16 17  1  0
 17 18  1  0
 18 19  1  0
 19 20  2  0
 20 21  1  0
 21 22  1  0
 21 23  2  0
 23 24  1  0
 17 25  2  0
 25 26  1  0
 26 27  2  0
 27 28  1  0
 28 29  2  0
 29 30  1  0
 30 31  2  0
 25 32  1  0
 32 33  1  0
 11 34  1  0
 34 35  2  0
  9  3  1  0
 32 15  1  0
 34  5  1  0
 11  7  1  0
 24 18  2  0
 31 26  1  0
  1 36  1  0
  1 37  1  0
  1 38  1  0
  3 39  1  6
  5 40  1  1
  6 41  1  0
  6 42  1  0
  8 43  1  0
  9 44  1  1
 10 45  1  0
 10 46  1  0
 12 47  1  0
 16 48  1  0
 19 49  1  0
 20 50  1  0
 23 51  1  0
 24 52  1  0
 27 53  1  0
 28 54  1  0
 29 55  1  0
 30 56  1  0
 31 57  1  0
 33 58  1  0
 33 59  1  0
 33 60  1  0
M  CHG  1  16   1
M  END
>  <_SMILES>  (13) 
CO[C@H]1O[C@H]2CC3=C[C@@H]1C[C@@]3(NC(=O)c1[nH+]c(-c3ccc(Cl)cc3)c(-c3ccccc3)n1C)C2=O

$$$$

     RDKit          3D

 66 71  0  0  0  0  0  0  0  0999 V2000
   -0.1064   -2.4337   -0.4176 C   0  0  0  0  0  0  0  0  0  0  0  0
   -0.8230   -1.1388   -0.2222 C   0  0  0  0  0  0  0  0  0  0  0  0
   -0.2499    0.1072    0.2113 C   0  0  0  0  0  0  0  0  0  0  0  0
    1.1342    0.4701    0.5321 C   0  0  0  0  0  0  0  0  0  0  0  0
    1.4026    1.3677    1.3214 O   0  0  0  0  0  0  0  0  0  0  0  0
    2.0801   -0.2538   -0.1637 N   0  0  0  0  0  0  0  0  0  0  0  0
    3.5047    0.0856   -0.1896 C   0  0  1  0  0  0  0  0  0  0  0  0
    4.2752   -1.0819   -0.8626 C   0  0  0  0  0  0  0  0  0  0  0  0
    5.7765   -0.7541   -0.9956 C   0  0  2  0  0  0  0  0  0  0  0  0
    6.3626   -0.4940    0.3988 C   0  0  0  0  0  0  0  0  0  0  0  0
    5.6323    0.6809    1.0631 C   0  0  1  0  0  0  0  0  0  0  0  0
    5.7795    1.9458    0.1970 C   0  0  0  0  0  0  0  0  0  0  0  0
    5.2299    1.6964   -1.2113 C   0  0  1  0  0  0  0  0  0  0  0  0
    5.9485    0.5083   -1.8642 C   0  0  0  0  0  0  0  0  0  0  0  0
    3.7621    1.3035   -1.1061 C   0  0  0  0  0  0  0  0  0  0  0  0
    2.8965    1.8327   -1.8013 O   0  0  0  0  0  0  0  0  0  0  0  0
    4.1339    0.3524    1.1960 C   0  0  0  0  0  0  0  0  0  0  0  0
   -1.3009    0.9997    0.3097 C   0  0  0  0  0  0  0  0  0  0  0  0
   -2.4643    0.3839   -0.0735 N   0  0  0  0  0  0  0  0  0  0  0  0
   -3.7837    1.0442   -0.1241 C   0  0  2  0  0  0  0  0  0  0  0  0
   -3.8643    2.0255   -1.2972 C   0  0  0  0  0  0  0  0  0  0  0  0
   -4.2239    1.5027    1.2655 C   0  0  0  0  0  0  0  0  0  0  0  0
   -4.8096    0.5120    2.0921 C   0  0  0  0  0  0  0  0  0  0  0  0
   -5.2479    0.7920    3.3876 C   0  0  0  0  0  0  0  0  0  0  0  0
   -5.1090    2.0734    3.8999 C   0  0  0  0  0  0  0  0  0  0  0  0
   -4.5291    3.0664    3.1143 C   0  0  0  0  0  0  0  0  0  0  0  0
   -4.0861    2.7907    1.8104 C   0  0  0  0  0  0  0  0  0  0  0  0
   -3.3757    4.1242    0.9764 Cl  0  0  0  0  0  0  0  0  0  0  0  0
   -2.1867   -0.9266   -0.4225 C   0  0  0  0  0  0  0  0  0  0  0  0
   -3.1942   -1.8760   -0.8923 C   0  0  0  0  0  0  0  0  0  0  0  0
   -3.5872   -1.8791   -2.2351 C   0  0  0  0  0  0  0  0  0  0  0  0
   -4.5544   -2.7812   -2.6811 C   0  0  0  0  0  0  0  0  0  0  0  0
   -5.1283   -3.6865   -1.7887 C   0  0  0  0  0  0  0  0  0  0  0  0
   -4.7338   -3.6943   -0.4511 C   0  0  0  0  0  0  0  0  0  0  0  0
   -3.7669   -2.7927   -0.0038 C   0  0  0  0  0  0  0  0  0  0  0  0
   -0.7840   -3.2893   -0.3400 H   0  0  0  0  0  0  0  0  0  0  0  0
    0.6683   -2.5712    0.3434 H   0  0  0  0  0  0  0  0  0  0  0  0
    0.3616   -2.4623   -1.4066 H   0  0  0  0  0  0  0  0  0  0  0  0
    1.7138   -0.6129   -1.0358 H   0  0  0  0  0  0  0  0  0  0  0  0
    4.1454   -2.0027   -0.2787 H   0  0  0  0  0  0  0  0  0  0  0  0
    3.8618   -1.2869   -1.8597 H   0  0  0  0  0  0  0  0  0  0  0  0
    6.2966   -1.5966   -1.4652 H   0  0  0  0  0  0  0  0  0  0  0  0
    6.2674   -1.3934    1.0194 H   0  0  0  0  0  0  0  0  0  0  0  0
    7.4341   -0.2728    0.3201 H   0  0  0  0  0  0  0  0  0  0  0  0
    6.0568    0.8648    2.0566 H   0  0  0  0  0  0  0  0  0  0  0  0
    6.8362    2.2336    0.1378 H   0  0  0  0  0  0  0  0  0  0  0  0
    5.2441    2.7803    0.6666 H   0  0  0  0  0  0  0  0  0  0  0  0
    5.3245    2.5980   -1.8248 H   0  0  0  0  0  0  0  0  0  0  0  0
    7.0143    0.7364   -1.9869 H   0  0  0  0  0  0  0  0  0  0  0  0
    5.5402    0.3238   -2.8658 H   0  0  0  0  0  0  0  0  0  0  0  0
    3.6597    1.1991    1.7012 H   0  0  0  0  0  0  0  0  0  0  0  0
    3.9956   -0.5202    1.8470 H   0  0  0  0  0  0  0  0  0  0  0  0
   -1.2862    2.0379    0.6151 H   0  0  0  0  0  0  0  0  0  0  0  0
   -4.5048    0.2637   -0.3991 H   0  0  0  0  0  0  0  0  0  0  0  0
   -3.8077    1.4794   -2.2467 H   0  0  0  0  0  0  0  0  0  0  0  0
   -4.8097    2.5776   -1.2903 H   0  0  0  0  0  0  0  0  0  0  0  0
   -3.0349    2.7379   -1.3151 H   0  0  0  0  0  0  0  0  0  0  0  0
   -4.9263   -0.5064    1.7228 H   0  0  0  0  0  0  0  0  0  0  0  0
   -5.6915    0.0062    3.9939 H   0  0  0  0  0  0  0  0  0  0  0  0
   -5.4426    2.3005    4.9088 H   0  0  0  0  0  0  0  0  0  0  0  0
   -4.4159    4.0660    3.5292 H   0  0  0  0  0  0  0  0  0  0  0  0
   -3.1389   -1.1809   -2.9380 H   0  0  0  0  0  0  0  0  0  0  0  0
   -4.8571   -2.7800   -3.7250 H   0  0  0  0  0  0  0  0  0  0  0  0
   -5.8798   -4.3904   -2.1375 H   0  0  0  0  0  0  0  0  0  0  0  0
   -5.1758   -4.4048    0.2425 H   0  0  0  0  0  0  0  0  0  0  0  0
   -3.4583   -2.8074    1.0390 H   0  0  0  0  0  0  0  0  0  0  0  0
  1  2  1  0
  2  3  1  0
  3  4  1  0
  4  5  2  0
  4  6  1  0
  7  6  1  1
  7  8  1  0
  8  9  1  0
  9 10  1  0
 10 11  1  0
 11 12  1  0
 12 13  1  0
 13 14  1  0
 13 15  1  0
 15 16  2  0
 11 17  1  0
  3 18  2  0
 18 19  1  0
 19 20  1  0
 20 21  1  0
 20 22  1  0
 22 23  2  0
 23 24  1  0
 24 25  2  0
 25 26  1  0
 26 27  2  0
 27 28  1  0
 19 29  1  0
 29 30  1  0
 30 31  2  0
 31 32  1  0
 32 33  2  0
 33 34  1  0
 34 35  2  0
 29  2  2  0
 35 30  1  0
 15  7  1  0
 27 22  1  0
 17  7  1  0
 14  9  1  0
  1 36  1  0
  1 37  1  0
  1 38  1  0
  6 39  1  0
  8 40  1  0
  8 41  1  0
  9 42  1  6
 10 43  1  0
 10 44  1  0
 11 45  1  1
 12 46  1  0
 12 47  1  0
 13 48  1  6
 14 49  1  0
 14 50  1  0
 17 51  1  0
 17 52  1  0
 18 53  1  0
 20 54  1  6
 21 55  1  0
 21 56  1  0
 21 57  1  0
 23 58  1  0
 24 59  1  0
 25 60  1  0
 26 61  1  0
 31 62  1  0
 32 63  1  0
 33 64  1  0
 34 65  1  0
 35 66  1  0
M  END
>  <_SMILES>  (14) 
Cc1c(C(=O)N[C@@]23C[C@@H]4C[C@@H](C[C@@H](C4)C2=O)C3)cn([C@H](C)c2ccccc2Cl)c1-c1ccccc1

$$$$

     RDKit          3D

 66 71  0  0  0  0  0  0  0  0999 V2000
    0.1262   -2.3032   -0.4333 C   0  0  0  0  0  0  0  0  0  0  0  0
   -0.6614   -1.0423   -0.2834 C   0  0  0  0  0  0  0  0  0  0  0  0
   -0.1557    0.2765   -0.0048 C   0  0  0  0  0  0  0  0  0  0  0  0
    1.2066    0.7948    0.1732 C   0  0  0  0  0  0  0  0  0  0  0  0
    1.4180    1.7669    0.8894 O   0  0  0  0  0  0  0  0  0  0  0  0
    2.1786    0.1538   -0.5602 N   0  0  0  0  0  0  0  0  0  0  0  0
    3.6178    0.2788   -0.3076 C   0  0  1  0  0  0  0  0  0  0  0  0
    4.1340    1.7264   -0.1576 C   0  0  0  0  0  0  0  0  0  0  0  0
    5.6542    1.7416    0.0926 C   0  0  2  0  0  0  0  0  0  0  0  0
    6.3790    1.0650   -1.0787 C   0  0  0  0  0  0  0  0  0  0  0  0
    5.9054   -0.3881   -1.2195 C   0  0  1  0  0  0  0  0  0  0  0  0
    6.2131   -1.1554    0.0816 C   0  0  0  0  0  0  0  0  0  0  0  0
    5.5039   -0.4872    1.2663 C   0  0  1  0  0  0  0  0  0  0  0  0
    5.9438    0.9750    1.3973 C   0  0  0  0  0  0  0  0  0  0  0  0
    4.0129   -0.5196    0.9567 C   0  0  0  0  0  0  0  0  0  0  0  0
    3.2249   -1.2050    1.6066 O   0  0  0  0  0  0  0  0  0  0  0  0
    4.3846   -0.4041   -1.4705 C   0  0  0  0  0  0  0  0  0  0  0  0
   -1.2681    1.0869    0.1469 C   0  0  0  0  0  0  0  0  0  0  0  0
   -2.3993    0.3500   -0.0613 N   0  0  0  0  0  0  0  0  0  0  0  0
   -3.7581    0.8730    0.0707 C   0  0  0  0  0  0  0  0  0  0  0  0
   -4.0771    1.2213    1.5317 C   0  0  0  0  0  0  0  0  0  0  0  0
   -5.4925    1.7501    1.6664 C   0  0  0  0  0  0  0  0  0  0  0  0
   -5.6776    2.9077    0.7409 N   0  0  0  0  0  0  0  0  0  0  0  0
   -5.4329    2.5835   -0.6962 C   0  0  0  0  0  0  0  0  0  0  0  0
   -4.0150    2.0667   -0.8608 C   0  0  0  0  0  0  0  0  0  0  0  0
   -2.0519   -0.9524   -0.3472 C   0  0  0  0  0  0  0  0  0  0  0  0
   -3.0265   -2.0108   -0.6028 C   0  0  0  0  0  0  0  0  0  0  0  0
   -3.5189   -2.7848    0.4539 C   0  0  0  0  0  0  0  0  0  0  0  0
   -4.4628   -3.7835    0.2102 C   0  0  0  0  0  0  0  0  0  0  0  0
   -4.9150   -4.0135   -1.0889 C   0  0  0  0  0  0  0  0  0  0  0  0
   -4.4204   -3.2508   -2.1467 C   0  0  0  0  0  0  0  0  0  0  0  0
   -3.4760   -2.2518   -1.9056 C   0  0  0  0  0  0  0  0  0  0  0  0
    0.9679   -2.3237    0.2653 H   0  0  0  0  0  0  0  0  0  0  0  0
   -0.4817   -3.1888   -0.2240 H   0  0  0  0  0  0  0  0  0  0  0  0
    0.5090   -2.3916   -1.4549 H   0  0  0  0  0  0  0  0  0  0  0  0
    1.8882   -0.6972   -1.0136 H   0  0  0  0  0  0  0  0  0  0  0  0
    3.6613    2.2387    0.6861 H   0  0  0  0  0  0  0  0  0  0  0  0
    3.8935    2.3080   -1.0565 H   0  0  0  0  0  0  0  0  0  0  0  0
    5.9989    2.7772    0.1914 H   0  0  0  0  0  0  0  0  0  0  0  0
    7.4631    1.0917   -0.9140 H   0  0  0  0  0  0  0  0  0  0  0  0
    6.1839    1.6148   -2.0076 H   0  0  0  0  0  0  0  0  0  0  0  0
    6.4219   -0.8667   -2.0590 H   0  0  0  0  0  0  0  0  0  0  0  0
    5.8817   -2.1966   -0.0182 H   0  0  0  0  0  0  0  0  0  0  0  0
    7.2956   -1.1764    0.2566 H   0  0  0  0  0  0  0  0  0  0  0  0
    5.6970   -1.0316    2.1962 H   0  0  0  0  0  0  0  0  0  0  0  0
    7.0157    1.0220    1.6251 H   0  0  0  0  0  0  0  0  0  0  0  0
    5.4158    1.4528    2.2320 H   0  0  0  0  0  0  0  0  0  0  0  0
    4.1580    0.1030   -2.4176 H   0  0  0  0  0  0  0  0  0  0  0  0
    4.0508   -1.4442   -1.5884 H   0  0  0  0  0  0  0  0  0  0  0  0
   -1.3039    2.1389    0.4004 H   0  0  0  0  0  0  0  0  0  0  0  0
   -4.4452    0.0761   -0.2362 H   0  0  0  0  0  0  0  0  0  0  0  0
   -3.3722    1.9733    1.9093 H   0  0  0  0  0  0  0  0  0  0  0  0
   -3.9562    0.3352    2.1667 H   0  0  0  0  0  0  0  0  0  0  0  0
   -6.2425    0.9975    1.4017 H   0  0  0  0  0  0  0  0  0  0  0  0
   -5.6906    2.1158    2.6782 H   0  0  0  0  0  0  0  0  0  0  0  0
   -5.0670    3.6861    1.0326 H   0  0  0  0  0  0  0  0  0  0  0  0
   -6.6378    3.2672    0.8446 H   0  0  0  0  0  0  0  0  0  0  0  0
   -5.5927    3.5055   -1.2628 H   0  0  0  0  0  0  0  0  0  0  0  0
   -6.1811    1.8422   -0.9957 H   0  0  0  0  0  0  0  0  0  0  0  0
   -3.8498    1.7724   -1.9043 H   0  0  0  0  0  0  0  0  0  0  0  0
   -3.3109    2.8816   -0.6510 H   0  0  0  0  0  0  0  0  0  0  0  0
   -3.1545   -2.6271    1.4666 H   0  0  0  0  0  0  0  0  0  0  0  0
   -4.8319   -4.3959    1.0296 H   0  0  0  0  0  0  0  0  0  0  0  0
   -5.6389   -4.8027   -1.2802 H   0  0  0  0  0  0  0  0  0  0  0  0
   -4.7583   -3.4476   -3.1615 H   0  0  0  0  0  0  0  0  0  0  0  0
   -3.0813   -1.6754   -2.7389 H   0  0  0  0  0  0  0  0  0  0  0  0
  1  2  1  0
  2  3  1  0
  3  4  1  0
  4  5  2  0
  4  6  1  0
  7  6  1  6
  7  8  1  0
  8  9  1  0
  9 10  1  0
 10 11  1  0
 11 12  1  0
 12 13  1  0
 13 14  1  0
 13 15  1  0
 15 16  2  0
 11 17  1  0
  3 18  2  0
 18 19  1  0
 19 20  1  0
 20 21  1  0
 21 22  1  0
 22 23  1  0
 23 24  1  0
 24 25  1  0
 19 26  1  0
 26 27  1  0
 27 28  2  0
 28 29  1  0
 29 30  2  0
 30 31  1  0
 31 32  2  0
 26  2  2  0
 32 27  1  0
 15  7  1  0
 25 20  1  0
 17  7  1  0
 14  9  1  0
  1 33  1  0
  1 34  1  0
  1 35  1  0
  6 36  1  0
  8 37  1  0
  8 38  1  0
  9 39  1  1
 10 40  1  0
 10 41  1  0
 11 42  1  6
 12 43  1  0
 12 44  1  0
 13 45  1  1
 14 46  1  0
 14 47  1  0
 17 48  1  0
 17 49  1  0
 18 50  1  0
 20 51  1  0
 21 52  1  0
 21 53  1  0
 22 54  1  0
 22 55  1  0
 23 56  1  0
 23 57  1  0
 24 58  1  0
 24 59  1  0
 25 60  1  0
 25 61  1  0
 28 62  1  0
 29 63  1  0
 30 64  1  0
 31 65  1  0
 32 66  1  0
M  CHG  1  23   1
M  END
>  <_SMILES>  (15) 
Cc1c(C(=O)N[C@@]23C[C@@H]4C[C@@H](C[C@@H](C4)C2=O)C3)cn(C2CC[NH2+]CC2)c1-c1ccccc1

$$$$

     RDKit          3D

 64 69  0  0  0  0  0  0  0  0999 V2000
   -0.5337   -3.2526   -0.0379 C   0  0  0  0  0  0  0  0  0  0  0  0
   -0.8621   -1.8268   -0.3368 C   0  0  0  0  0  0  0  0  0  0  0  0
    0.0953   -0.7889   -0.6005 C   0  0  0  0  0  0  0  0  0  0  0  0
    1.5574   -0.9246   -0.6438 C   0  0  0  0  0  0  0  0  0  0  0  0
    2.1109   -2.0166   -0.7102 O   0  0  0  0  0  0  0  0  0  0  0  0
    2.2484    0.2688   -0.5776 N   0  0  0  0  0  0  0  0  0  0  0  0
    3.6909    0.3483   -0.4720 C   0  0  2  0  0  0  0  0  0  0  0  0
    4.2449   -0.2237    0.8766 C   0  0  0  0  0  0  0  0  0  0  0  0
    5.7907   -0.0676    0.9750 C   0  0  2  0  0  0  0  0  0  0  0  0
    6.1780    1.3955    0.7546 C   0  0  0  0  0  0  0  0  0  0  0  0
    5.6964    1.6076   -0.6872 C   0  0  2  0  0  0  0  0  0  0  0  0
    4.1759    1.8015   -0.6322 C   0  0  0  0  0  0  0  0  0  0  0  0
    5.8831    0.2093   -1.3716 C   0  0  1  0  0  0  0  0  0  0  0  0
    6.4506   -0.6853   -0.2595 C   0  0  0  0  0  0  0  0  0  0  0  0
    4.4525   -0.2718   -1.6564 C   0  0  0  0  0  0  0  0  0  0  0  0
   -0.6417    0.3617   -0.8297 C   0  0  0  0  0  0  0  0  0  0  0  0
   -1.9830    0.0754   -0.7154 N   0  0  0  0  0  0  0  0  0  0  0  0
   -3.0835    1.0324   -0.9280 C   0  0  2  0  0  0  0  0  0  0  0  0
   -2.7942    2.0902   -2.0018 C   0  0  0  0  0  0  0  0  0  0  0  0
   -3.5220    1.6711    0.3836 C   0  0  0  0  0  0  0  0  0  0  0  0
   -2.6495    2.4549    1.1571 C   0  0  0  0  0  0  0  0  0  0  0  0
   -3.0804    3.0321    2.3547 C   0  0  0  0  0  0  0  0  0  0  0  0
   -4.3883    2.8343    2.7888 C   0  0  0  0  0  0  0  0  0  0  0  0
   -4.9168    3.5440    4.2640 Cl  0  0  0  0  0  0  0  0  0  0  0  0
   -5.2704    2.0655    2.0354 C   0  0  0  0  0  0  0  0  0  0  0  0
   -4.8400    1.4890    0.8379 C   0  0  0  0  0  0  0  0  0  0  0  0
   -2.1331   -1.2649   -0.4040 C   0  0  0  0  0  0  0  0  0  0  0  0
   -3.4266   -1.9121   -0.1934 C   0  0  0  0  0  0  0  0  0  0  0  0
   -4.0930   -2.5209   -1.2622 C   0  0  0  0  0  0  0  0  0  0  0  0
   -5.3307   -3.1338   -1.0598 C   0  0  0  0  0  0  0  0  0  0  0  0
   -5.9039   -3.1458    0.2117 C   0  0  0  0  0  0  0  0  0  0  0  0
   -5.2388   -2.5502    1.2829 C   0  0  0  0  0  0  0  0  0  0  0  0
   -4.0008   -1.9377    1.0819 C   0  0  0  0  0  0  0  0  0  0  0  0
   -0.0944   -3.7323   -0.9183 H   0  0  0  0  0  0  0  0  0  0  0  0
   -1.4193   -3.8273    0.2490 H   0  0  0  0  0  0  0  0  0  0  0  0
    0.1805   -3.3154    0.7896 H   0  0  0  0  0  0  0  0  0  0  0  0
    1.7177    1.0778   -0.2918 H   0  0  0  0  0  0  0  0  0  0  0  0
    3.7713    0.2961    1.7191 H   0  0  0  0  0  0  0  0  0  0  0  0
    3.9889   -1.2854    0.9722 H   0  0  0  0  0  0  0  0  0  0  0  0
    6.1809   -0.4727    1.9123 H   0  0  0  0  0  0  0  0  0  0  0  0
    7.2644    1.5292    0.8226 H   0  0  0  0  0  0  0  0  0  0  0  0
    5.7085    2.0730    1.4750 H   0  0  0  0  0  0  0  0  0  0  0  0
    6.2108    2.4303   -1.1896 H   0  0  0  0  0  0  0  0  0  0  0  0
    3.8083    2.2435   -1.5676 H   0  0  0  0  0  0  0  0  0  0  0  0
    3.8485    2.4525    0.1861 H   0  0  0  0  0  0  0  0  0  0  0  0
    6.5109    0.2231   -2.2659 H   0  0  0  0  0  0  0  0  0  0  0  0
    7.5422   -0.5922   -0.2091 H   0  0  0  0  0  0  0  0  0  0  0  0
    6.2076   -1.7452   -0.3861 H   0  0  0  0  0  0  0  0  0  0  0  0
    4.3752   -1.3625   -1.7057 H   0  0  0  0  0  0  0  0  0  0  0  0
    4.0920    0.1260   -2.6138 H   0  0  0  0  0  0  0  0  0  0  0  0
   -0.3145    1.3584   -1.0890 H   0  0  0  0  0  0  0  0  0  0  0  0
   -3.9131    0.4358   -1.3277 H   0  0  0  0  0  0  0  0  0  0  0  0
   -2.4827    1.6181   -2.9401 H   0  0  0  0  0  0  0  0  0  0  0  0
   -3.6923    2.6843   -2.2063 H   0  0  0  0  0  0  0  0  0  0  0  0
   -2.0074    2.7902   -1.7009 H   0  0  0  0  0  0  0  0  0  0  0  0
   -1.6227    2.6194    0.8395 H   0  0  0  0  0  0  0  0  0  0  0  0
   -2.3906    3.6310    2.9434 H   0  0  0  0  0  0  0  0  0  0  0  0
   -6.2911    1.9074    2.3730 H   0  0  0  0  0  0  0  0  0  0  0  0
   -5.5420    0.8836    0.2661 H   0  0  0  0  0  0  0  0  0  0  0  0
   -3.6466   -2.5240   -2.2538 H   0  0  0  0  0  0  0  0  0  0  0  0
   -5.8437   -3.6081   -1.8923 H   0  0  0  0  0  0  0  0  0  0  0  0
   -6.8653   -3.6278    0.3698 H   0  0  0  0  0  0  0  0  0  0  0  0
   -5.6798   -2.5666    2.2761 H   0  0  0  0  0  0  0  0  0  0  0  0
   -3.4849   -1.4783    1.9221 H   0  0  0  0  0  0  0  0  0  0  0  0
  1  2  1  0
  2  3  1  0
  3  4  1  0
  4  5  2  0
  4  6  1  0
  7  6  1  6
  7  8  1  0
  8  9  1  0
  9 10  1  0
 10 11  1  0
 11 12  1  0
 11 13  1  0
 13 14  1  0
 13 15  1  0
  3 16  2  0
 16 17  1  0
 17 18  1  0
 18 19  1  0
 18 20  1  0
 20 21  1  0
 21 22  2  0
 22 23  1  0
 23 24  1  0
 23 25  2  0
 25 26  1  0
 17 27  1  0
 27 28  1  0
 28 29  2  0
 29 30  1  0
 30 31  2  0
 31 32  1  0
 32 33  2  0
 27  2  2  0
 33 28  1  0
 12  7  1  0
 26 20  2  0
 15  7  1  0
 14  9  1  0
  1 34  1  0
  1 35  1  0
  1 36  1  0
  6 37  1  0
  8 38  1  0
  8 39  1  0
  9 40  1  1
 10 41  1  0
 10 42  1  0
 11 43  1  6
 12 44  1  0
 12 45  1  0
 13 46  1  6
 14 47  1  0
 14 48  1  0
 15 49  1  0
 15 50  1  0
 16 51  1  0
 18 52  1  6
 19 53  1  0
 19 54  1  0
 19 55  1  0
 21 56  1  0
 22 57  1  0
 25 58  1  0
 26 59  1  0
 29 60  1  0
 30 61  1  0
 31 62  1  0
 32 63  1  0
 33 64  1  0
M  END
>  <_SMILES>  (16) 
Cc1c(C(=O)N[C@]23C[C@@H]4C[C@H](C2)[C@@H](C4)C3)cn([C@H](C)c2ccc(Cl)cc2)c1-c1ccccc1

$$$$

     RDKit          3D

 54 59  0  0  0  0  0  0  0  0999 V2000
   -1.2140    0.1054    2.6135 O   0  0  0  0  0  0  0  0  0  0  0  0
   -0.5286    0.3415    1.6241 C   0  0  0  0  0  0  0  0  0  0  0  0
   -1.0097    0.2436    0.3440 N   0  0  0  0  0  0  0  0  0  0  0  0
   -2.3306   -0.2513   -0.0186 C   0  0  1  0  0  0  0  0  0  0  0  0
   -3.4766    0.6323    0.5122 C   0  0  0  0  0  0  0  0  0  0  0  0
   -4.8347    0.1161   -0.0055 C   0  0  2  0  0  0  0  0  0  0  0  0
   -5.0288   -1.3442    0.4369 C   0  0  0  0  0  0  0  0  0  0  0  0
   -3.9068   -2.2286   -0.1326 C   0  0  1  0  0  0  0  0  0  0  0  0
   -3.9199   -2.1491   -1.6708 C   0  0  0  0  0  0  0  0  0  0  0  0
   -3.7425   -0.6965   -2.1259 C   0  0  1  0  0  0  0  0  0  0  0  0
   -4.8491    0.1906   -1.5443 C   0  0  0  0  0  0  0  0  0  0  0  0
   -2.4220   -0.1979   -1.5610 C   0  0  0  0  0  0  0  0  0  0  0  0
   -1.5144    0.2257   -2.2770 O   0  0  0  0  0  0  0  0  0  0  0  0
   -2.5449   -1.7242    0.3829 C   0  0  0  0  0  0  0  0  0  0  0  0
    0.8514    0.8163    1.7467 C   0  0  0  0  0  0  0  0  0  0  0  0
    1.3132    1.6398    2.8074 C   0  0  0  0  0  0  0  0  0  0  0  0
    2.6314    1.9337    2.5700 C   0  0  0  0  0  0  0  0  0  0  0  0
    3.0561    1.2606    1.4376 N   0  0  0  0  0  0  0  0  0  0  0  0
    4.4098    1.2971    0.9666 C   0  0  0  0  0  0  0  0  0  0  0  0
    4.9827    0.2090    0.2958 C   0  0  0  0  0  0  0  0  0  0  0  0
    6.3083    0.2679   -0.1493 C   0  0  0  0  0  0  0  0  0  0  0  0
    7.0704    1.4094    0.0806 C   0  0  0  0  0  0  0  0  0  0  0  0
    8.6983    1.4786   -0.4692 Cl  0  0  0  0  0  0  0  0  0  0  0  0
    6.5213    2.4925    0.7600 C   0  0  0  0  0  0  0  0  0  0  0  0
    5.1972    2.4362    1.2079 C   0  0  0  0  0  0  0  0  0  0  0  0
    1.9506    0.5759    0.9134 C   0  0  0  0  0  0  0  0  0  0  0  0
    1.9626   -0.1808   -0.3122 C   0  0  0  0  0  0  0  0  0  0  0  0
    2.1696    0.3047   -1.5902 C   0  0  0  0  0  0  0  0  0  0  0  0
    2.0548   -0.7169   -2.5813 C   0  0  0  0  0  0  0  0  0  0  0  0
    1.7667   -1.9302   -2.0109 C   0  0  0  0  0  0  0  0  0  0  0  0
    1.5161   -3.5356   -3.0158 Br  0  0  0  0  0  0  0  0  0  0  0  0
    1.6470   -1.8687   -0.3233 S   0  0  0  0  0  0  0  0  0  0  0  0
   -0.4186    0.5322   -0.4290 H   0  0  0  0  0  0  0  0  0  0  0  0
   -3.3333    1.6738    0.1951 H   0  0  0  0  0  0  0  0  0  0  0  0
   -3.4888    0.6391    1.6083 H   0  0  0  0  0  0  0  0  0  0  0  0
   -5.6418    0.7367    0.3997 H   0  0  0  0  0  0  0  0  0  0  0  0
   -6.0036   -1.7114    0.0929 H   0  0  0  0  0  0  0  0  0  0  0  0
   -5.0335   -1.4055    1.5321 H   0  0  0  0  0  0  0  0  0  0  0  0
   -4.0569   -3.2672    0.1827 H   0  0  0  0  0  0  0  0  0  0  0  0
   -4.8653   -2.5487   -2.0572 H   0  0  0  0  0  0  0  0  0  0  0  0
   -3.1146   -2.7726   -2.0791 H   0  0  0  0  0  0  0  0  0  0  0  0
   -3.7245   -0.6311   -3.2183 H   0  0  0  0  0  0  0  0  0  0  0  0
   -4.7056    1.2304   -1.8640 H   0  0  0  0  0  0  0  0  0  0  0  0
   -5.8256   -0.1323   -1.9249 H   0  0  0  0  0  0  0  0  0  0  0  0
   -2.5050   -1.8395    1.4726 H   0  0  0  0  0  0  0  0  0  0  0  0
   -1.7431   -2.3523   -0.0268 H   0  0  0  0  0  0  0  0  0  0  0  0
    0.7234    1.9957    3.6440 H   0  0  0  0  0  0  0  0  0  0  0  0
    3.3164    2.5199    3.1669 H   0  0  0  0  0  0  0  0  0  0  0  0
    4.4479   -0.7228    0.1458 H   0  0  0  0  0  0  0  0  0  0  0  0
    6.7403   -0.5875   -0.6628 H   0  0  0  0  0  0  0  0  0  0  0  0
    7.1140    3.3855    0.9415 H   0  0  0  0  0  0  0  0  0  0  0  0
    4.7946    3.3128    1.7100 H   0  0  0  0  0  0  0  0  0  0  0  0
    2.3752    1.3456   -1.8117 H   0  0  0  0  0  0  0  0  0  0  0  0
    2.1634   -0.5538   -3.6464 H   0  0  0  0  0  0  0  0  0  0  0  0
  1  2  2  0
  2  3  1  0
  4  3  1  6
  4  5  1  0
  5  6  1  0
  6  7  1  0
  7  8  1  0
  8  9  1  0
  9 10  1  0
 10 11  1  0
 10 12  1  0
 12 13  2  0
  8 14  1  0
  2 15  1  0
 15 16  1  0
 16 17  2  0
 17 18  1  0
 18 19  1  0
 19 20  1  0
 20 21  2  0
 21 22  1  0
 22 23  1  0
 22 24  2  0
 24 25  1  0
 18 26  1  0
 26 27  1  0
 27 28  2  0
 28 29  1  0
 29 30  2  0
 30 31  1  0
 30 32  1  0
 12  4  1  0
 26 15  2  0
 32 27  1  0
 14  4  1  0
 25 19  2  0
 11  6  1  0
  3 33  1  0
  5 34  1  0
  5 35  1  0
  6 36  1  1
  7 37  1  0
  7 38  1  0
  8 39  1  6
  9 40  1  0
  9 41  1  0
 10 42  1  6
 11 43  1  0
 11 44  1  0
 14 45  1  0
 14 46  1  0
 16 47  1  0
 17 48  1  0
 20 49  1  0
 21 50  1  0
 24 51  1  0
 25 52  1  0
 28 53  1  0
 29 54  1  0
M  END
>  <_SMILES>  (17) 
O=C(N[C@@]12C[C@@H]3C[C@@H](C[C@@H](C3)C1=O)C2)c1ccn(-c2ccc(Cl)cc2)c1-c1ccc(Br)s1

$$$$

     RDKit          3D

 64 69  0  0  0  0  0  0  0  0999 V2000
   -0.7616    2.3153   -1.9178 C   0  0  0  0  0  0  0  0  0  0  0  0
   -1.0898    1.3657   -0.8125 C   0  0  0  0  0  0  0  0  0  0  0  0
   -0.1540    0.4782   -0.1750 C   0  0  0  0  0  0  0  0  0  0  0  0
    1.2698    0.3124   -0.4969 C   0  0  0  0  0  0  0  0  0  0  0  0
    1.7431    0.6960   -1.5602 O   0  0  0  0  0  0  0  0  0  0  0  0
    2.0146   -0.2831    0.5007 N   0  0  0  0  0  0  0  0  0  0  0  0
    3.4673   -0.4698    0.4610 C   0  0  2  0  0  0  0  0  0  0  0  0
    4.2152    0.8849    0.4035 C   0  0  0  0  0  0  0  0  0  0  0  0
    5.7381    0.6634    0.4215 C   0  0  1  0  0  0  0  0  0  0  0  0
    6.1305   -0.0640    1.7172 C   0  0  0  0  0  0  0  0  0  0  0  0
    5.4195   -1.4243    1.7917 C   0  0  2  0  0  0  0  0  0  0  0  0
    5.8267   -2.2788    0.5817 C   0  0  0  0  0  0  0  0  0  0  0  0
    5.4315   -1.5649   -0.7201 C   0  0  2  0  0  0  0  0  0  0  0  0
    6.1391   -0.2006   -0.7864 C   0  0  0  0  0  0  0  0  0  0  0  0
    3.9081   -1.3462   -0.7391 C   0  0  0  0  0  0  0  0  0  0  0  0
    3.8993   -1.2007    1.7618 C   0  0  0  0  0  0  0  0  0  0  0  0
   -0.8732   -0.2099    0.7879 C   0  0  0  0  0  0  0  0  0  0  0  0
   -2.1822    0.2072    0.7519 N   0  0  0  0  0  0  0  0  0  0  0  0
   -3.2305   -0.3436    1.6144 C   0  0  0  0  0  0  0  0  0  0  0  0
   -4.2539   -1.1407    0.8462 C   0  0  0  0  0  0  0  0  0  0  0  0
   -3.8834   -2.1918   -0.0092 C   0  0  0  0  0  0  0  0  0  0  0  0
   -4.8582   -2.9095   -0.7054 C   0  0  0  0  0  0  0  0  0  0  0  0
   -6.2011   -2.5863   -0.5415 C   0  0  0  0  0  0  0  0  0  0  0  0
   -7.1310   -3.2778   -1.2127 F   0  0  0  0  0  0  0  0  0  0  0  0
   -6.5919   -1.5630    0.3085 C   0  0  0  0  0  0  0  0  0  0  0  0
   -5.6162   -0.8535    0.9979 C   0  0  0  0  0  0  0  0  0  0  0  0
   -6.0016    0.1295    1.8239 F   0  0  0  0  0  0  0  0  0  0  0  0
   -2.3327    1.1872   -0.2093 C   0  0  0  0  0  0  0  0  0  0  0  0
   -3.6080    1.8387   -0.5163 C   0  0  0  0  0  0  0  0  0  0  0  0
   -4.2534    1.5625   -1.7301 C   0  0  0  0  0  0  0  0  0  0  0  0
   -5.4753    2.1687   -2.0289 C   0  0  0  0  0  0  0  0  0  0  0  0
   -6.0463    3.0518   -1.1176 C   0  0  0  0  0  0  0  0  0  0  0  0
   -7.2196    3.6284   -1.4083 F   0  0  0  0  0  0  0  0  0  0  0  0
   -5.4216    3.3445    0.0864 C   0  0  0  0  0  0  0  0  0  0  0  0
   -4.2055    2.7372    0.3783 C   0  0  0  0  0  0  0  0  0  0  0  0
   -3.6142    3.0194    1.5497 F   0  0  0  0  0  0  0  0  0  0  0  0
   -1.5628    3.0416   -2.0840 H   0  0  0  0  0  0  0  0  0  0  0  0
   -0.6012    1.7669   -2.8515 H   0  0  0  0  0  0  0  0  0  0  0  0
    0.1450    2.8823   -1.6829 H   0  0  0  0  0  0  0  0  0  0  0  0
    1.5667   -0.3537    1.4027 H   0  0  0  0  0  0  0  0  0  0  0  0
    3.9450    1.4427   -0.5011 H   0  0  0  0  0  0  0  0  0  0  0  0
    3.9197    1.5155    1.2523 H   0  0  0  0  0  0  0  0  0  0  0  0
    6.2516    1.6300    0.3710 H   0  0  0  0  0  0  0  0  0  0  0  0
    7.2176   -0.2070    1.7523 H   0  0  0  0  0  0  0  0  0  0  0  0
    5.8618    0.5480    2.5869 H   0  0  0  0  0  0  0  0  0  0  0  0
    5.7000   -1.9378    2.7181 H   0  0  0  0  0  0  0  0  0  0  0  0
    5.3393   -3.2602    0.6341 H   0  0  0  0  0  0  0  0  0  0  0  0
    6.9085   -2.4594    0.5970 H   0  0  0  0  0  0  0  0  0  0  0  0
    5.7267   -2.1763   -1.5802 H   0  0  0  0  0  0  0  0  0  0  0  0
    7.2265   -0.3441   -0.7984 H   0  0  0  0  0  0  0  0  0  0  0  0
    5.8756    0.3134   -1.7189 H   0  0  0  0  0  0  0  0  0  0  0  0
    3.3908   -2.3141   -0.7092 H   0  0  0  0  0  0  0  0  0  0  0  0
    3.6312   -0.8804   -1.6916 H   0  0  0  0  0  0  0  0  0  0  0  0
    3.3805   -2.1655    1.8422 H   0  0  0  0  0  0  0  0  0  0  0  0
    3.5962   -0.6167    2.6413 H   0  0  0  0  0  0  0  0  0  0  0  0
   -0.5690   -0.9878    1.4756 H   0  0  0  0  0  0  0  0  0  0  0  0
   -3.6705    0.4997    2.1559 H   0  0  0  0  0  0  0  0  0  0  0  0
   -2.7543   -0.9914    2.3600 H   0  0  0  0  0  0  0  0  0  0  0  0
   -2.8353   -2.4504   -0.1495 H   0  0  0  0  0  0  0  0  0  0  0  0
   -4.5787   -3.7167   -1.3761 H   0  0  0  0  0  0  0  0  0  0  0  0
   -7.6406   -1.3208    0.4333 H   0  0  0  0  0  0  0  0  0  0  0  0
   -3.8089    0.8694   -2.4414 H   0  0  0  0  0  0  0  0  0  0  0  0
   -5.9840    1.9574   -2.9645 H   0  0  0  0  0  0  0  0  0  0  0  0
   -5.8749    4.0327    0.7895 H   0  0  0  0  0  0  0  0  0  0  0  0
  1  2  1  0
  2  3  1  0
  3  4  1  0
  4  5  2  0
  4  6  1  0
  7  6  1  1
  7  8  1  0
  8  9  1  0
  9 10  1  0
 10 11  1  0
 11 12  1  0
 12 13  1  0
 13 14  1  0
 13 15  1  0
 11 16  1  0
  3 17  2  0
 17 18  1  0
 18 19  1  0
 19 20  1  0
 20 21  1  0
 21 22  2  0
 22 23  1  0
 23 24  1  0
 23 25  2  0
 25 26  1  0
 26 27  1  0
 18 28  1  0
 28 29  1  0
 29 30  1  0
 30 31  2  0
 31 32  1  0
 32 33  1  0
 32 34  2  0
 34 35  1  0
 35 36  1  0
 28  2  2  0
 35 29  2  0
 15  7  1  0
 26 20  2  0
 16  7  1  0
 14  9  1  0
  1 37  1  0
  1 38  1  0
  1 39  1  0
  6 40  1  0
  8 41  1  0
  8 42  1  0
  9 43  1  6
 10 44  1  0
 10 45  1  0
 11 46  1  1
 12 47  1  0
 12 48  1  0
 13 49  1  6
 14 50  1  0
 14 51  1  0
 15 52  1  0
 15 53  1  0
 16 54  1  0
 16 55  1  0
 17 56  1  0
 19 57  1  0
 19 58  1  0
 21 59  1  0
 22 60  1  0
 25 61  1  0
 30 62  1  0
 31 63  1  0
 34 64  1  0
M  END
>  <_SMILES>  (18) 
Cc1c(C(=O)N[C@]23C[C@H]4C[C@H](C[C@H](C4)C2)C3)cn(Cc2ccc(F)cc2F)c1-c1ccc(F)cc1F

$$$$

     RDKit          3D

 54 58  0  0  0  0  0  0  0  0999 V2000
   -1.9504   -3.2571    1.3028 C   0  0  0  0  0  0  0  0  0  0  0  0
   -2.2580   -1.9075    0.7423 C   0  0  0  0  0  0  0  0  0  0  0  0
   -1.2991   -0.9971    0.1948 C   0  0  0  0  0  0  0  0  0  0  0  0
    0.1503   -1.1995    0.0705 C   0  0  0  0  0  0  0  0  0  0  0  0
    0.6591   -2.3114    0.1511 O   0  0  0  0  0  0  0  0  0  0  0  0
    0.8756   -0.0399   -0.1153 N   0  0  0  0  0  0  0  0  0  0  0  0
    2.3382    0.0303   -0.1732 C   0  0  2  0  0  0  0  0  0  0  0  0
    2.9155   -0.8182   -1.3348 C   0  0  0  0  0  0  0  0  0  0  0  0
    4.4470   -0.6796   -1.3985 C   0  0  1  0  0  0  0  0  0  0  0  0
    4.8150    0.7932   -1.6353 C   0  0  0  0  0  0  0  0  0  0  0  0
    4.2723    1.6593   -0.4884 C   0  0  2  0  0  0  0  0  0  0  0  0
    4.8825    1.1860    0.8402 C   0  0  0  0  0  0  0  0  0  0  0  0
    4.5159   -0.2851    1.0920 C   0  0  2  0  0  0  0  0  0  0  0  0
    5.0530   -1.1464   -0.0638 C   0  0  0  0  0  0  0  0  0  0  0  0
    2.9846   -0.4237    1.1588 C   0  0  0  0  0  0  0  0  0  0  0  0
    2.7442    1.5088   -0.4231 C   0  0  0  0  0  0  0  0  0  0  0  0
   -2.0235    0.1033   -0.2293 C   0  0  0  0  0  0  0  0  0  0  0  0
   -3.3604   -0.0498    0.0936 N   0  0  0  0  0  0  0  0  0  0  0  0
   -4.3449    0.9564   -0.1295 C   0  0  0  0  0  0  0  0  0  0  0  0
   -4.2282    1.8036   -1.2458 C   0  0  0  0  0  0  0  0  0  0  0  0
   -5.1839    2.7972   -1.4750 C   0  0  0  0  0  0  0  0  0  0  0  0
   -6.2414    2.9539   -0.5867 C   0  0  0  0  0  0  0  0  0  0  0  0
   -7.1520    3.9100   -0.8090 F   0  0  0  0  0  0  0  0  0  0  0  0
   -6.3603    2.1425    0.5314 C   0  0  0  0  0  0  0  0  0  0  0  0
   -5.4091    1.1512    0.7585 C   0  0  0  0  0  0  0  0  0  0  0  0
   -5.5098    0.4536    1.8975 F   0  0  0  0  0  0  0  0  0  0  0  0
   -3.5179   -1.3276    0.6163 C   0  0  0  0  0  0  0  0  0  0  0  0
   -4.8370   -1.9719    0.8974 C   0  0  0  0  0  0  0  0  0  0  0  0
   -1.7149   -3.9579    0.4957 H   0  0  0  0  0  0  0  0  0  0  0  0
   -1.0963   -3.2069    1.9858 H   0  0  0  0  0  0  0  0  0  0  0  0
   -2.7941   -3.6609    1.8707 H   0  0  0  0  0  0  0  0  0  0  0  0
    0.3820    0.8238    0.0554 H   0  0  0  0  0  0  0  0  0  0  0  0
    2.4714   -0.5038   -2.2884 H   0  0  0  0  0  0  0  0  0  0  0  0
    2.6627   -1.8777   -1.2141 H   0  0  0  0  0  0  0  0  0  0  0  0
    4.8389   -1.2938   -2.2170 H   0  0  0  0  0  0  0  0  0  0  0  0
    4.4004    1.1342   -2.5919 H   0  0  0  0  0  0  0  0  0  0  0  0
    5.9044    0.9013   -1.7039 H   0  0  0  0  0  0  0  0  0  0  0  0
    4.5338    2.7090   -0.6622 H   0  0  0  0  0  0  0  0  0  0  0  0
    5.9731    1.3013    0.8138 H   0  0  0  0  0  0  0  0  0  0  0  0
    4.5164    1.8101    1.6647 H   0  0  0  0  0  0  0  0  0  0  0  0
    4.9576   -0.6188    2.0376 H   0  0  0  0  0  0  0  0  0  0  0  0
    4.8087   -2.2015    0.1101 H   0  0  0  0  0  0  0  0  0  0  0  0
    6.1469   -1.0757   -0.1053 H   0  0  0  0  0  0  0  0  0  0  0  0
    2.5916    0.1739    1.9918 H   0  0  0  0  0  0  0  0  0  0  0  0
    2.7287   -1.4662    1.3823 H   0  0  0  0  0  0  0  0  0  0  0  0
    2.3454    2.1497    0.3748 H   0  0  0  0  0  0  0  0  0  0  0  0
    2.2954    1.8701   -1.3581 H   0  0  0  0  0  0  0  0  0  0  0  0
   -1.6798    1.0125   -0.7013 H   0  0  0  0  0  0  0  0  0  0  0  0
   -3.4283    1.6815   -1.9727 H   0  0  0  0  0  0  0  0  0  0  0  0
   -5.1130    3.4453   -2.3437 H   0  0  0  0  0  0  0  0  0  0  0  0
   -7.1749    2.2897    1.2314 H   0  0  0  0  0  0  0  0  0  0  0  0
   -4.7951   -3.0417    0.6648 H   0  0  0  0  0  0  0  0  0  0  0  0
   -5.6426   -1.5583    0.2846 H   0  0  0  0  0  0  0  0  0  0  0  0
   -5.0957   -1.8738    1.9557 H   0  0  0  0  0  0  0  0  0  0  0  0
  1  2  1  0
  2  3  1  0
  3  4  1  0
  4  5  2  0
  4  6  1  0
  7  6  1  1
  7  8  1  0
  8  9  1  0
  9 10  1  0
 10 11  1  0
 11 12  1  0
 12 13  1  0
 13 14  1  0
 13 15  1  0
 11 16  1  0
  3 17  2  0
 17 18  1  0
 18 19  1  0
 19 20  1  0
 20 21  2  0
 21 22  1  0
 22 23  1  0
 22 24  2  0
 24 25  1  0
 25 26  1  0
 18 27  1  0
 27 28  1  0
 27  2  2  0
 15  7  1  0
 25 19  2  0
 16  7  1  0
 14  9  1  0
  1 29  1  0
  1 30  1  0
  1 31  1  0
  6 32  1  0
  8 33  1  0
  8 34  1  0
  9 35  1  6
 10 36  1  0
 10 37  1  0
 11 38  1  6
 12 39  1  0
 12 40  1  0
 13 41  1  1
 14 42  1  0
 14 43  1  0
 15 44  1  0
 15 45  1  0
 16 46  1  0
 16 47  1  0
 17 48  1  0
 20 49  1  0
 21 50  1  0
 24 51  1  0
 28 52  1  0
 28 53  1  0
 28 54  1  0
M  END
>  <_SMILES>  (19) 
Cc1c(C(=O)N[C@]23C[C@H]4C[C@H](C[C@H](C4)C2)C3)cn(-c2ccc(F)cc2F)c1C

$$$$

     RDKit          3D

 47 50  0  0  0  0  0  0  0  0999 V2000
    0.7424    1.6814   -1.1552 C   0  0  0  0  0  0  0  0  0  0  0  0
    0.1587    0.4406   -0.5601 C   0  0  0  0  0  0  0  0  0  0  0  0
    0.8803   -0.7443   -0.2016 C   0  0  0  0  0  0  0  0  0  0  0  0
    2.3085   -1.0681   -0.3057 C   0  0  0  0  0  0  0  0  0  0  0  0
    2.6790   -2.2135   -0.5248 O   0  0  0  0  0  0  0  0  0  0  0  0
    3.1233    0.0084   -0.0296 N   0  0  0  0  0  0  0  0  0  0  0  0
    4.5337    0.0587   -0.1006 C   0  0  0  0  0  0  0  0  0  0  0  0
    5.1613    1.0934    0.6044 C   0  0  0  0  0  0  0  0  0  0  0  0
    4.4115    1.9668    1.2969 F   0  0  0  0  0  0  0  0  0  0  0  0
    6.5471    1.2436    0.6199 C   0  0  0  0  0  0  0  0  0  0  0  0
    7.3419    0.3532   -0.0962 C   0  0  0  0  0  0  0  0  0  0  0  0
    6.7377   -0.6659   -0.8317 C   0  0  0  0  0  0  0  0  0  0  0  0
    5.3463   -0.8047   -0.8388 C   0  0  0  0  0  0  0  0  0  0  0  0
    4.8331   -1.7423   -1.6446 F   0  0  0  0  0  0  0  0  0  0  0  0
   -0.0560   -1.6299    0.2917 C   0  0  0  0  0  0  0  0  0  0  0  0
   -1.3128   -1.0655    0.2795 N   0  0  0  0  0  0  0  0  0  0  0  0
   -2.5009   -1.7524    0.6782 C   0  0  0  0  0  0  0  0  0  0  0  0
   -3.7262   -1.5042    0.0408 C   0  0  0  0  0  0  0  0  0  0  0  0
   -4.8766   -2.1945    0.4348 C   0  0  0  0  0  0  0  0  0  0  0  0
   -4.8031   -3.1337    1.4564 C   0  0  0  0  0  0  0  0  0  0  0  0
   -5.9089   -3.7909    1.8280 F   0  0  0  0  0  0  0  0  0  0  0  0
   -3.6010   -3.4025    2.0914 C   0  0  0  0  0  0  0  0  0  0  0  0
   -2.4559   -2.7150    1.6982 C   0  0  0  0  0  0  0  0  0  0  0  0
   -1.3253   -2.9689    2.3730 F   0  0  0  0  0  0  0  0  0  0  0  0
   -1.1840    0.2340   -0.2258 C   0  0  0  0  0  0  0  0  0  0  0  0
   -2.2623    1.2326   -0.2514 C   0  0  0  0  0  0  0  0  0  0  0  0
   -2.7431    1.7232   -1.4745 C   0  0  0  0  0  0  0  0  0  0  0  0
   -3.7635    2.6767   -1.4955 C   0  0  0  0  0  0  0  0  0  0  0  0
   -4.2979    3.1409   -0.2971 C   0  0  0  0  0  0  0  0  0  0  0  0
   -5.2766    4.0543   -0.3249 F   0  0  0  0  0  0  0  0  0  0  0  0
   -3.8338    2.6742    0.9243 C   0  0  0  0  0  0  0  0  0  0  0  0
   -2.8176    1.7256    0.9395 C   0  0  0  0  0  0  0  0  0  0  0  0
   -2.3731    1.2843    2.1260 F   0  0  0  0  0  0  0  0  0  0  0  0
    1.5854    1.4433   -1.8114 H   0  0  0  0  0  0  0  0  0  0  0  0
    1.0929    2.3506   -0.3630 H   0  0  0  0  0  0  0  0  0  0  0  0
    0.0153    2.2256   -1.7634 H   0  0  0  0  0  0  0  0  0  0  0  0
    2.6851    0.7788    0.4625 H   0  0  0  0  0  0  0  0  0  0  0  0
    6.9937    2.0526    1.1900 H   0  0  0  0  0  0  0  0  0  0  0  0
    8.4240    0.4582   -0.0942 H   0  0  0  0  0  0  0  0  0  0  0  0
    7.3390   -1.3541   -1.4197 H   0  0  0  0  0  0  0  0  0  0  0  0
    0.0971   -2.6487    0.6254 H   0  0  0  0  0  0  0  0  0  0  0  0
   -3.8100   -0.8210   -0.7979 H   0  0  0  0  0  0  0  0  0  0  0  0
   -5.8271   -2.0135   -0.0586 H   0  0  0  0  0  0  0  0  0  0  0  0
   -3.5532   -4.1327    2.8909 H   0  0  0  0  0  0  0  0  0  0  0  0
   -2.3295    1.3605   -2.4134 H   0  0  0  0  0  0  0  0  0  0  0  0
   -4.1442    3.0608   -2.4373 H   0  0  0  0  0  0  0  0  0  0  0  0
   -4.2546    3.0436    1.8519 H   0  0  0  0  0  0  0  0  0  0  0  0
  1  2  1  0
  2  3  1  0
  3  4  1  0
  4  5  2  0
  4  6  1  0
  6  7  1  0
  7  8  2  0
  8  9  1  0
  8 10  1  0
 10 11  2  0
 11 12  1  0
 12 13  2  0
 13 14  1  0
  3 15  2  0
 15 16  1  0
 16 17  1  0
 17 18  1  0
 18 19  2  0
 19 20  1  0
 20 21  1  0
 20 22  2  0
 22 23  1  0
 23 24  1  0
 16 25  1  0
 25 26  1  0
 26 27  1  0
 27 28  2  0
 28 29  1  0
 29 30  1  0
 29 31  2  0
 31 32  1  0
 32 33  1  0
 25  2  2  0
 32 26  2  0
 13  7  1  0
 23 17  2  0
  1 34  1  0
  1 35  1  0
  1 36  1  0
  6 37  1  0
 10 38  1  0
 11 39  1  0
 12 40  1  0
 15 41  1  0
 18 42  1  0
 19 43  1  0
 22 44  1  0
 27 45  1  0
 28 46  1  0
 31 47  1  0
M  END
>  <_SMILES>  (20) 
Cc1c(C(=O)Nc2c(F)cccc2F)cn(-c2ccc(F)cc2F)c1-c1ccc(F)cc1F

$$$$

     RDKit          3D

 35 38  0  0  0  0  0  0  0  0999 V2000
    1.7146   -2.7023   -0.9513 O   0  0  0  0  0  0  0  0  0  0  0  0
    2.3374   -1.7360   -0.5448 C   0  0  0  0  0  0  0  0  0  0  0  0
    3.7017   -1.6431   -0.6408 O   0  0  0  0  0  0  0  0  0  0  0  0
    4.1099   -0.4458    0.0194 C   0  0  0  0  0  0  0  0  0  0  0  0
    2.8652    0.4002    0.0591 C   0  0  0  0  0  0  0  0  0  0  0  0
    1.8213   -0.5845    0.0304 N   0  0  0  0  0  0  0  0  0  0  0  0
    0.3825   -0.2361    0.0386 C   0  0  2  0  0  0  0  0  0  0  0  0
    0.1244    1.1047    0.7894 C   0  0  0  0  0  0  0  0  0  0  0  0
   -1.3708    1.4628    0.8005 C   0  0  1  0  0  0  0  0  0  0  0  0
   -1.8671    1.5940   -0.6477 C   0  0  0  0  0  0  0  0  0  0  0  0
   -1.6592    0.2681   -1.3957 C   0  0  2  0  0  0  0  0  0  0  0  0
   -2.4369   -0.8461   -0.6760 C   0  0  0  0  0  0  0  0  0  0  0  0
   -1.9445   -0.9820    0.7744 C   0  0  2  0  0  0  0  0  0  0  0  0
   -2.1527    0.3489    1.5100 C   0  0  0  0  0  0  0  0  0  0  0  0
   -0.4463   -1.3318    0.7680 C   0  0  0  0  0  0  0  0  0  0  0  0
   -0.1608   -0.0830   -1.4067 C   0  0  0  0  0  0  0  0  0  0  0  0
    4.9224    0.0355   -0.5321 H   0  0  0  0  0  0  0  0  0  0  0  0
    4.4650   -0.7092    1.0216 H   0  0  0  0  0  0  0  0  0  0  0  0
    2.8232    1.0260    0.9537 H   0  0  0  0  0  0  0  0  0  0  0  0
    2.7821    1.0204   -0.8399 H   0  0  0  0  0  0  0  0  0  0  0  0
    0.6766    1.9247    0.3126 H   0  0  0  0  0  0  0  0  0  0  0  0
    0.4951    1.0361    1.8207 H   0  0  0  0  0  0  0  0  0  0  0  0
   -1.5192    2.4114    1.3286 H   0  0  0  0  0  0  0  0  0  0  0  0
   -2.9297    1.8666   -0.6563 H   0  0  0  0  0  0  0  0  0  0  0  0
   -1.3276    2.4012   -1.1581 H   0  0  0  0  0  0  0  0  0  0  0  0
   -2.0216    0.3651   -2.4253 H   0  0  0  0  0  0  0  0  0  0  0  0
   -2.3073   -1.7971   -1.2070 H   0  0  0  0  0  0  0  0  0  0  0  0
   -3.5102   -0.6197   -0.6865 H   0  0  0  0  0  0  0  0  0  0  0  0
   -2.5056   -1.7748    1.2817 H   0  0  0  0  0  0  0  0  0  0  0  0
   -3.2203    0.5991    1.5389 H   0  0  0  0  0  0  0  0  0  0  0  0
   -1.8184    0.2592    2.5508 H   0  0  0  0  0  0  0  0  0  0  0  0
   -0.3233   -2.3085    0.2878 H   0  0  0  0  0  0  0  0  0  0  0  0
   -0.0851   -1.4499    1.7981 H   0  0  0  0  0  0  0  0  0  0  0  0
   -0.0140   -1.0083   -1.9770 H   0  0  0  0  0  0  0  0  0  0  0  0
    0.3993    0.6969   -1.9389 H   0  0  0  0  0  0  0  0  0  0  0  0
  1  2  2  0
  2  3  1  0
  3  4  1  0
  4  5  1  0
  5  6  1  0
  7  6  1  6
  7  8  1  0
  8  9  1  0
  9 10  1  0
 10 11  1  0
 11 12  1  0
 12 13  1  0
 13 14  1  0
 13 15  1  0
 11 16  1  0
  6  2  1  0
 15  7  1  0
 16  7  1  0
 14  9  1  0
  4 17  1  0
  4 18  1  0
  5 19  1  0
  5 20  1  0
  8 21  1  0
  8 22  1  0
  9 23  1  1
 10 24  1  0
 10 25  1  0
 11 26  1  6
 12 27  1  0
 12 28  1  0
 13 29  1  1
 14 30  1  0
 14 31  1  0
 15 32  1  0
 15 33  1  0
 16 34  1  0
 16 35  1  0
M  END
>  <_SMILES>  (21) 
O=C1OCCN1[C@]12C[C@H]3C[C@H](C[C@H](C3)C1)C2

$$$$

     RDKit          3D

 64 69  0  0  0  0  0  0  0  0999 V2000
    0.7929   -2.4105   -2.1333 O   0  0  0  0  0  0  0  0  0  0  0  0
    0.5963   -1.5616   -1.2696 C   0  0  0  0  0  0  0  0  0  0  0  0
    1.5949   -0.7435   -0.7817 N   0  0  0  0  0  0  0  0  0  0  0  0
    2.9191   -0.7611   -1.3674 C   0  0  0  0  0  0  0  0  0  0  0  0
    4.0010   -0.1021   -0.4869 C   0  0  2  0  0  0  0  0  0  0  0  0
    4.0890   -0.7811    0.9038 C   0  0  0  0  0  0  0  0  0  0  0  0
    5.2046   -0.1418    1.7498 C   0  0  1  0  0  0  0  0  0  0  0  0
    6.5500   -0.3072    1.0254 C   0  0  0  0  0  0  0  0  0  0  0  0
    6.4960    0.3815   -0.3475 C   0  0  2  0  0  0  0  0  0  0  0  0
    6.1948    1.8761   -0.1560 C   0  0  0  0  0  0  0  0  0  0  0  0
    4.8476    2.0522    0.5620 C   0  0  2  0  0  0  0  0  0  0  0  0
    4.9074    1.3559    1.9317 C   0  0  0  0  0  0  0  0  0  0  0  0
    3.7320    1.4115   -0.2833 C   0  0  0  0  0  0  0  0  0  0  0  0
    5.3775   -0.2553   -1.1887 C   0  0  0  0  0  0  0  0  0  0  0  0
   -0.7320   -1.3288   -0.7015 C   0  0  0  0  0  0  0  0  0  0  0  0
   -1.9413   -1.9528   -1.1257 C   0  0  0  0  0  0  0  0  0  0  0  0
   -2.9899   -1.4985   -0.3434 C   0  0  0  0  0  0  0  0  0  0  0  0
   -4.4054   -1.8535   -0.4324 C   0  0  0  0  0  0  0  0  0  0  0  0
   -5.1298   -1.5213   -1.5860 C   0  0  0  0  0  0  0  0  0  0  0  0
   -6.4833   -1.8510   -1.6866 C   0  0  0  0  0  0  0  0  0  0  0  0
   -7.1082   -2.5186   -0.6384 C   0  0  0  0  0  0  0  0  0  0  0  0
   -8.4068   -2.8305   -0.7377 F   0  0  0  0  0  0  0  0  0  0  0  0
   -6.4092   -2.8656    0.5089 C   0  0  0  0  0  0  0  0  0  0  0  0
   -5.0624   -2.5320    0.6033 C   0  0  0  0  0  0  0  0  0  0  0  0
   -4.4006   -2.8665    1.7220 F   0  0  0  0  0  0  0  0  0  0  0  0
   -2.4534   -0.5816    0.5396 N   0  0  0  0  0  0  0  0  0  0  0  0
   -3.1748    0.1933    1.5506 C   0  0  0  0  0  0  0  0  0  0  0  0
   -4.1194    1.2055    0.9479 C   0  0  0  0  0  0  0  0  0  0  0  0
   -3.6600    2.1873    0.0564 C   0  0  0  0  0  0  0  0  0  0  0  0
   -4.5433    3.1207   -0.4886 C   0  0  0  0  0  0  0  0  0  0  0  0
   -5.8927    3.0894   -0.1439 C   0  0  0  0  0  0  0  0  0  0  0  0
   -6.3603    2.1274    0.7485 C   0  0  0  0  0  0  0  0  0  0  0  0
   -5.4789    1.1936    1.2955 C   0  0  0  0  0  0  0  0  0  0  0  0
   -1.0907   -0.4942    0.3437 C   0  0  0  0  0  0  0  0  0  0  0  0
    1.3031    0.0739   -0.2695 H   0  0  0  0  0  0  0  0  0  0  0  0
    2.8476   -0.2500   -2.3352 H   0  0  0  0  0  0  0  0  0  0  0  0
    3.1875   -1.8043   -1.5757 H   0  0  0  0  0  0  0  0  0  0  0  0
    4.2834   -1.8552    0.7881 H   0  0  0  0  0  0  0  0  0  0  0  0
    3.1355   -0.6891    1.4389 H   0  0  0  0  0  0  0  0  0  0  0  0
    5.2503   -0.6309    2.7293 H   0  0  0  0  0  0  0  0  0  0  0  0
    6.7810   -1.3724    0.9020 H   0  0  0  0  0  0  0  0  0  0  0  0
    7.3566    0.1255    1.6299 H   0  0  0  0  0  0  0  0  0  0  0  0
    7.4574    0.2611   -0.8593 H   0  0  0  0  0  0  0  0  0  0  0  0
    6.9949    2.3478    0.4276 H   0  0  0  0  0  0  0  0  0  0  0  0
    6.1701    2.3818   -1.1291 H   0  0  0  0  0  0  0  0  0  0  0  0
    4.6394    3.1192    0.6990 H   0  0  0  0  0  0  0  0  0  0  0  0
    3.9559    1.4877    2.4613 H   0  0  0  0  0  0  0  0  0  0  0  0
    5.6841    1.8186    2.5530 H   0  0  0  0  0  0  0  0  0  0  0  0
    3.6684    1.9179   -1.2550 H   0  0  0  0  0  0  0  0  0  0  0  0
    2.7708    1.5723    0.2191 H   0  0  0  0  0  0  0  0  0  0  0  0
    5.6027   -1.3174   -1.3517 H   0  0  0  0  0  0  0  0  0  0  0  0
    5.3503    0.2153   -2.1801 H   0  0  0  0  0  0  0  0  0  0  0  0
   -2.0243   -2.6786   -1.9267 H   0  0  0  0  0  0  0  0  0  0  0  0
   -4.6446   -0.9929   -2.4041 H   0  0  0  0  0  0  0  0  0  0  0  0
   -7.0514   -1.5894   -2.5739 H   0  0  0  0  0  0  0  0  0  0  0  0
   -6.9041   -3.3891    1.3179 H   0  0  0  0  0  0  0  0  0  0  0  0
   -3.6924   -0.5227    2.1968 H   0  0  0  0  0  0  0  0  0  0  0  0
   -2.4384    0.7138    2.1743 H   0  0  0  0  0  0  0  0  0  0  0  0
   -2.6109    2.2267   -0.2288 H   0  0  0  0  0  0  0  0  0  0  0  0
   -4.1782    3.8716   -1.1846 H   0  0  0  0  0  0  0  0  0  0  0  0
   -6.5801    3.8153   -0.5704 H   0  0  0  0  0  0  0  0  0  0  0  0
   -7.4132    2.1032    1.0182 H   0  0  0  0  0  0  0  0  0  0  0  0
   -5.8653    0.4503    1.9898 H   0  0  0  0  0  0  0  0  0  0  0  0
   -0.4967    0.1550    0.9725 H   0  0  0  0  0  0  0  0  0  0  0  0
  1  2  2  0
  2  3  1  0
  3  4  1  0
  5  4  1  6
  5  6  1  0
  6  7  1  0
  7  8  1  0
  8  9  1  0
  9 10  1  0
 10 11  1  0
 11 12  1  0
 11 13  1  0
  9 14  1  0
  2 15  1  0
 15 16  1  0
 16 17  2  0
 17 18  1  0
 18 19  1  0
 19 20  2  0
 20 21  1  0
 21 22  1  0
 21 23  2  0
 23 24  1  0
 24 25  1  0
 17 26  1  0
 26 27  1  0
 27 28  1  0
 28 29  2  0
 29 30  1  0
 30 31  2  0
 31 32  1  0
 32 33  2  0
 26 34  1  0
 13  5  1  0
 34 15  2  0
 14  5  1  0
 24 18  2  0
 33 28  1  0
 12  7  1  0
  3 35  1  0
  4 36  1  0
  4 37  1  0
  6 38  1  0
  6 39  1  0
  7 40  1  1
  8 41  1  0
  8 42  1  0
  9 43  1  6
 10 44  1  0
 10 45  1  0
 11 46  1  1
 12 47  1  0
 12 48  1  0
 13 49  1  0
 13 50  1  0
 14 51  1  0
 14 52  1  0
 16 53  1  0
 19 54  1  0
 20 55  1  0
 23 56  1  0
 27 57  1  0
 27 58  1  0
 29 59  1  0
 30 60  1  0
 31 61  1  0
 32 62  1  0
 33 63  1  0
 34 64  1  0
M  END
>  <_SMILES>  (22) 
O=C(NC[C@]12C[C@H]3C[C@H](C[C@H](C3)C1)C2)c1cc(-c2ccc(F)cc2F)n(Cc2ccccc2)c1

$$$$

     RDKit          3D

 55 60  0  0  0  0  0  0  0  0999 V2000
   -0.1507   -1.6681   -0.6119 O   0  0  0  0  0  0  0  0  0  0  0  0
    0.2239   -0.9917    0.3354 C   0  0  0  0  0  0  0  0  0  0  0  0
   -0.5033    0.0426    0.8816 N   0  0  0  0  0  0  0  0  0  0  0  0
   -1.8472    0.4374    0.4441 C   0  0  2  0  0  0  0  0  0  0  0  0
   -2.2921    1.6632    1.2874 C   0  0  0  0  0  0  0  0  0  0  0  0
   -3.6996    2.1298    0.8836 C   0  0  1  0  0  0  0  0  0  0  0  0
   -3.6929    2.5233   -0.6015 C   0  0  0  0  0  0  0  0  0  0  0  0
   -3.2777    1.3189   -1.4604 C   0  0  2  0  0  0  0  0  0  0  0  0
   -4.2709    0.1663   -1.2332 C   0  0  0  0  0  0  0  0  0  0  0  0
   -4.2857   -0.2359    0.2516 C   0  0  2  0  0  0  0  0  0  0  0  0
   -4.6940    0.9783    1.1010 C   0  0  0  0  0  0  0  0  0  0  0  0
   -2.8772   -0.6967    0.6665 C   0  0  0  0  0  0  0  0  0  0  0  0
   -1.8679    0.8605   -1.0471 C   0  0  0  0  0  0  0  0  0  0  0  0
    1.4680   -1.2222    1.0092 C   0  0  0  0  0  0  0  0  0  0  0  0
    1.9397   -2.3572    1.6202 C   0  0  0  0  0  0  0  0  0  0  0  0
    1.2945   -3.5836    1.7356 C   0  0  0  0  0  0  0  0  0  0  0  0
    1.9966   -4.5245    2.4446 N   0  0  0  0  0  0  0  0  0  0  0  0
    3.2428   -4.2250    2.9717 C   0  0  0  0  0  0  0  0  0  0  0  0
    3.9465   -3.0157    2.8908 C   0  0  0  0  0  0  0  0  0  0  0  0
    3.2288   -2.0550    2.1718 C   0  0  0  0  0  0  0  0  0  0  0  0
    3.5429   -0.7832    1.8789 N   0  0  0  0  0  0  0  0  0  0  0  0
    2.5187   -0.3370    1.1100 N   0  0  0  0  0  0  0  0  0  0  0  0
    2.6394    0.9722    0.4737 C   0  0  0  0  0  0  0  0  0  0  0  0
    3.3344    0.8774   -0.8588 C   0  0  0  0  0  0  0  0  0  0  0  0
    2.6570    0.4417   -2.0097 C   0  0  0  0  0  0  0  0  0  0  0  0
    3.3338    0.3430   -3.2275 C   0  0  0  0  0  0  0  0  0  0  0  0
    4.6818    0.6790   -3.2979 C   0  0  0  0  0  0  0  0  0  0  0  0
    5.3235    0.5845   -4.4695 F   0  0  0  0  0  0  0  0  0  0  0  0
    5.3696    1.1140   -2.1752 C   0  0  0  0  0  0  0  0  0  0  0  0
    4.6909    1.2086   -0.9663 C   0  0  0  0  0  0  0  0  0  0  0  0
    5.3575    1.6459    0.1110 F   0  0  0  0  0  0  0  0  0  0  0  0
   -0.2243    0.3394    1.8092 H   0  0  0  0  0  0  0  0  0  0  0  0
   -1.5771    2.4873    1.1612 H   0  0  0  0  0  0  0  0  0  0  0  0
   -2.2812    1.4102    2.3562 H   0  0  0  0  0  0  0  0  0  0  0  0
   -3.9931    2.9917    1.4931 H   0  0  0  0  0  0  0  0  0  0  0  0
   -4.6885    2.8726   -0.9015 H   0  0  0  0  0  0  0  0  0  0  0  0
   -2.9999    3.3576   -0.7655 H   0  0  0  0  0  0  0  0  0  0  0  0
   -3.2774    1.6033   -2.5186 H   0  0  0  0  0  0  0  0  0  0  0  0
   -3.9928   -0.6956   -1.8521 H   0  0  0  0  0  0  0  0  0  0  0  0
   -5.2764    0.4724   -1.5473 H   0  0  0  0  0  0  0  0  0  0  0  0
   -5.0007   -1.0516    0.4063 H   0  0  0  0  0  0  0  0  0  0  0  0
   -4.7212    0.7014    2.1620 H   0  0  0  0  0  0  0  0  0  0  0  0
   -5.7066    1.3015    0.8303 H   0  0  0  0  0  0  0  0  0  0  0  0
   -2.6072   -1.5890    0.0891 H   0  0  0  0  0  0  0  0  0  0  0  0
   -2.8796   -1.0028    1.7209 H   0  0  0  0  0  0  0  0  0  0  0  0
   -1.5620    0.0331   -1.6973 H   0  0  0  0  0  0  0  0  0  0  0  0
   -1.1452    1.6689   -1.2198 H   0  0  0  0  0  0  0  0  0  0  0  0
    0.3284   -3.8584    1.3353 H   0  0  0  0  0  0  0  0  0  0  0  0
    3.6916   -5.0625    3.5060 H   0  0  0  0  0  0  0  0  0  0  0  0
    4.9179   -2.8473    3.3267 H   0  0  0  0  0  0  0  0  0  0  0  0
    3.1791    1.6256    1.1694 H   0  0  0  0  0  0  0  0  0  0  0  0
    1.6431    1.4064    0.3527 H   0  0  0  0  0  0  0  0  0  0  0  0
    1.6038    0.1688   -1.9728 H   0  0  0  0  0  0  0  0  0  0  0  0
    2.8188    0.0009   -4.1207 H   0  0  0  0  0  0  0  0  0  0  0  0
    6.4192    1.3751   -2.2389 H   0  0  0  0  0  0  0  0  0  0  0  0
  1  2  2  0
  2  3  1  0
  4  3  1  1
  4  5  1  0
  5  6  1  0
  6  7  1  0
  7  8  1  0
  8  9  1  0
  9 10  1  0
 10 11  1  0
 10 12  1  0
  8 13  1  0
  2 14  1  0
 14 15  2  0
 15 16  1  0
 16 17  2  0
 17 18  1  0
 18 19  2  0
 19 20  1  0
 20 21  2  0
 21 22  1  0
 22 23  1  0
 23 24  1  0
 24 25  1  0
 25 26  2  0
 26 27  1  0
 27 28  1  0
 27 29  2  0
 29 30  1  0
 30 31  1  0
 12  4  1  0
 22 14  1  0
 30 24  2  0
 13  4  1  0
 20 15  1  0
 11  6  1  0
  3 32  1  0
  5 33  1  0
  5 34  1  0
  6 35  1  1
  7 36  1  0
  7 37  1  0
  8 38  1  6
  9 39  1  0
  9 40  1  0
 10 41  1  6
 11 42  1  0
 11 43  1  0
 12 44  1  0
 12 45  1  0
 13 46  1  0
 13 47  1  0
 16 48  1  0
 18 49  1  0
 19 50  1  0
 23 51  1  0
 23 52  1  0
 25 53  1  0
 26 54  1  0
 29 55  1  0
M  END
>  <_SMILES>  (23) 
O=C(N[C@]12C[C@H]3C[C@H](C[C@H](C3)C1)C2)c1c2cnccc2nn1Cc1ccc(F)cc1F

$$$$

     RDKit          3D

 49 53  0  0  0  0  0  0  0  0999 V2000
    0.9171    0.6307   -2.9181 C   0  0  0  0  0  0  0  0  0  0  0  0
    1.7826    0.5224   -1.7067 C   0  0  0  0  0  0  0  0  0  0  0  0
    1.3568    0.5951   -0.3383 C   0  0  0  0  0  0  0  0  0  0  0  0
    0.0228    0.7555    0.2531 C   0  0  0  0  0  0  0  0  0  0  0  0
   -0.1254    1.3096    1.3342 O   0  0  0  0  0  0  0  0  0  0  0  0
   -0.9857    0.1977   -0.4963 N   0  0  0  0  0  0  0  0  0  0  0  0
   -2.3359   -0.0136   -0.0198 C   0  0  1  0  0  0  0  0  0  0  0  0
   -3.2103   -0.4460   -1.2222 C   0  0  0  0  0  0  0  0  0  0  0  0
   -4.6092   -0.8400   -0.7312 C   0  0  2  0  0  0  0  0  0  0  0  0
   -5.2604    0.3661   -0.0329 C   0  0  0  0  0  0  0  0  0  0  0  0
   -4.3907    0.8332    1.1469 C   0  0  1  0  0  0  0  0  0  0  0  0
   -4.2109   -0.3207    2.1438 C   0  0  0  0  0  0  0  0  0  0  0  0
   -3.5501   -1.5018    1.4254 C   0  0  1  0  0  0  0  0  0  0  0  0
   -4.4398   -1.9850    0.2759 C   0  0  0  0  0  0  0  0  0  0  0  0
   -2.2695   -1.1091    0.9018 O   0  0  0  0  0  0  0  0  0  0  0  0
   -2.9937    1.2174    0.6381 C   0  0  0  0  0  0  0  0  0  0  0  0
    2.5044    0.5025    0.4299 C   0  0  0  0  0  0  0  0  0  0  0  0
    3.6158    0.3748   -0.3765 N   0  0  0  0  0  0  0  0  0  0  0  0
    4.9565    0.3183    0.1129 C   0  0  0  0  0  0  0  0  0  0  0  0
    6.0309    0.8011   -0.6500 C   0  0  0  0  0  0  0  0  0  0  0  0
    7.3371    0.7475   -0.1494 C   0  0  0  0  0  0  0  0  0  0  0  0
    7.5701    0.2216    1.1149 C   0  0  0  0  0  0  0  0  0  0  0  0
    8.8226    0.1735    1.5878 F   0  0  0  0  0  0  0  0  0  0  0  0
    6.5115   -0.2406    1.8840 C   0  0  0  0  0  0  0  0  0  0  0  0
    6.7365   -0.7463    3.1045 F   0  0  0  0  0  0  0  0  0  0  0  0
    5.2064   -0.1902    1.3985 C   0  0  0  0  0  0  0  0  0  0  0  0
    3.1560    0.3162   -1.6823 C   0  0  0  0  0  0  0  0  0  0  0  0
    4.1512   -0.1406   -3.2661 Br  0  0  0  0  0  0  0  0  0  0  0  0
    0.5581   -0.3586   -3.2187 H   0  0  0  0  0  0  0  0  0  0  0  0
    1.4567    1.0745   -3.7604 H   0  0  0  0  0  0  0  0  0  0  0  0
    0.0526    1.2752   -2.7311 H   0  0  0  0  0  0  0  0  0  0  0  0
   -0.6629   -0.5196   -1.1266 H   0  0  0  0  0  0  0  0  0  0  0  0
   -3.2743    0.3597   -1.9646 H   0  0  0  0  0  0  0  0  0  0  0  0
   -2.7581   -1.3097   -1.7283 H   0  0  0  0  0  0  0  0  0  0  0  0
   -5.2285   -1.1660   -1.5737 H   0  0  0  0  0  0  0  0  0  0  0  0
   -5.3890    1.1870   -0.7489 H   0  0  0  0  0  0  0  0  0  0  0  0
   -6.2607    0.0941    0.3258 H   0  0  0  0  0  0  0  0  0  0  0  0
   -4.8604    1.6901    1.6420 H   0  0  0  0  0  0  0  0  0  0  0  0
   -3.5759    0.0101    2.9746 H   0  0  0  0  0  0  0  0  0  0  0  0
   -5.1785   -0.6187    2.5638 H   0  0  0  0  0  0  0  0  0  0  0  0
   -3.3804   -2.3200    2.1328 H   0  0  0  0  0  0  0  0  0  0  0  0
   -3.9695   -2.8414   -0.2226 H   0  0  0  0  0  0  0  0  0  0  0  0
   -5.4147   -2.3141    0.6534 H   0  0  0  0  0  0  0  0  0  0  0  0
   -2.4209    1.5700    1.5009 H   0  0  0  0  0  0  0  0  0  0  0  0
   -3.0530    2.0520   -0.0711 H   0  0  0  0  0  0  0  0  0  0  0  0
    2.5918    0.5683    1.5069 H   0  0  0  0  0  0  0  0  0  0  0  0
    5.8825    1.2783   -1.6140 H   0  0  0  0  0  0  0  0  0  0  0  0
    8.1699    1.1263   -0.7344 H   0  0  0  0  0  0  0  0  0  0  0  0
    4.4187   -0.5865    2.0322 H   0  0  0  0  0  0  0  0  0  0  0  0
  1  2  1  0
  2  3  1  0
  3  4  1  0
  4  5  2  0
  4  6  1  0
  7  6  1  6
  7  8  1  0
  8  9  1  0
  9 10  1  0
 10 11  1  0
 11 12  1  0
 12 13  1  0
 13 14  1  0
 13 15  1  0
 11 16  1  0
  3 17  2  0
 17 18  1  0
 18 19  1  0
 19 20  1  0
 20 21  2  0
 21 22  1  0
 22 23  1  0
 22 24  2  0
 24 25  1  0
 24 26  1  0
 18 27  1  0
 27 28  1  0
 27  2  2  0
 15  7  1  0
 26 19  2  0
 16  7  1  0
 14  9  1  0
  1 29  1  0
  1 30  1  0
  1 31  1  0
  6 32  1  0
  8 33  1  0
  8 34  1  0
  9 35  1  6
 10 36  1  0
 10 37  1  0
 11 38  1  1
 12 39  1  0
 12 40  1  0
 13 41  1  1
 14 42  1  0
 14 43  1  0
 16 44  1  0
 16 45  1  0
 17 46  1  0
 20 47  1  0
 21 48  1  0
 26 49  1  0
M  END
>  <_SMILES>  (24) 
Cc1c(C(=O)N[C@@]23C[C@@H]4C[C@@H](C[C@@H](C4)O2)C3)cn(-c2ccc(F)c(F)c2)c1Br

$$$$

     RDKit          3D

 81 87  0  0  0  0  0  0  0  0999 V2000
   -2.4514    2.5076    0.7874 C   0  0  0  0  0  0  0  0  0  0  0  0
   -1.3438    1.5317    0.5643 C   0  0  0  0  0  0  0  0  0  0  0  0
   -1.4559    0.0987    0.5138 C   0  0  0  0  0  0  0  0  0  0  0  0
   -2.6258   -0.7772    0.6160 C   0  0  0  0  0  0  0  0  0  0  0  0
   -2.5504   -1.9072    1.0845 O   0  0  0  0  0  0  0  0  0  0  0  0
   -3.7774   -0.2368    0.0866 N   0  0  0  0  0  0  0  0  0  0  0  0
   -5.0519   -0.9459   -0.0418 C   0  0  2  0  0  0  0  0  0  0  0  0
   -4.9345   -2.1635   -0.9910 C   0  0  0  0  0  0  0  0  0  0  0  0
   -6.2996   -2.8549   -1.1548 C   0  0  1  0  0  0  0  0  0  0  0  0
   -6.8012   -3.3199    0.2231 C   0  0  0  0  0  0  0  0  0  0  0  0
   -6.9581   -2.1135    1.1646 C   0  0  2  0  0  0  0  0  0  0  0  0
   -7.9613   -1.1218    0.5558 C   0  0  0  0  0  0  0  0  0  0  0  0
   -7.4604   -0.6465   -0.8166 C   0  0  2  0  0  0  0  0  0  0  0  0
   -7.3063   -1.8576   -1.7501 C   0  0  0  0  0  0  0  0  0  0  0  0
   -6.0937    0.0351   -0.6456 C   0  0  0  0  0  0  0  0  0  0  0  0
   -5.5938   -1.4207    1.3306 C   0  0  0  0  0  0  0  0  0  0  0  0
   -0.1693   -0.3828    0.3619 C   0  0  0  0  0  0  0  0  0  0  0  0
    0.7032    0.6694    0.2685 N   0  0  0  0  0  0  0  0  0  0  0  0
    2.1524    0.5260    0.0837 C   0  0  1  0  0  0  0  0  0  0  0  0
    2.8165   -0.3157    1.1951 C   0  0  0  0  0  0  0  0  0  0  0  0
    3.2729   -1.6871    0.6981 C   0  0  0  0  0  0  0  0  0  0  0  0
    4.2625   -1.5736   -0.4698 C   0  0  2  0  0  0  0  0  0  0  0  0
    5.5709   -1.3580    0.0979 O   0  0  0  0  0  0  0  0  0  0  0  0
    6.6271   -1.6648   -0.6904 C   0  0  0  0  0  0  0  0  0  0  0  0
    6.5728   -2.1372   -1.8150 O   0  0  0  0  0  0  0  0  0  0  0  0
    7.9001   -1.4077    0.0147 C   0  0  0  0  0  0  0  0  0  0  0  0
    9.0291   -2.1474   -0.3674 C   0  0  0  0  0  0  0  0  0  0  0  0
   10.2558   -1.9378    0.2677 C   0  0  0  0  0  0  0  0  0  0  0  0
   10.3637   -0.9846    1.2804 C   0  0  0  0  0  0  0  0  0  0  0  0
    9.2471   -0.2366    1.6537 C   0  0  0  0  0  0  0  0  0  0  0  0
    8.0232   -0.4469    1.0192 C   0  0  0  0  0  0  0  0  0  0  0  0
    6.9871    0.3210    1.3873 F   0  0  0  0  0  0  0  0  0  0  0  0
    3.9358   -0.4158   -1.4263 C   0  0  0  0  0  0  0  0  0  0  0  0
    2.4802    0.0228   -1.3332 C   0  0  0  0  0  0  0  0  0  0  0  0
    0.0004    1.8540    0.3780 C   0  0  0  0  0  0  0  0  0  0  0  0
    0.6213    3.1779    0.3234 C   0  0  0  0  0  0  0  0  0  0  0  0
    0.9038    3.8664    1.5093 C   0  0  0  0  0  0  0  0  0  0  0  0
    1.4964    5.1305    1.4621 C   0  0  0  0  0  0  0  0  0  0  0  0
    1.8049    5.7056    0.2327 C   0  0  0  0  0  0  0  0  0  0  0  0
    2.3826    6.9404    0.2392 O   0  0  0  0  0  0  0  0  0  0  0  0
    1.5317    5.0391   -0.9555 C   0  0  0  0  0  0  0  0  0  0  0  0
    0.9404    3.7791   -0.9006 C   0  0  0  0  0  0  0  0  0  0  0  0
    0.6887    3.1420   -2.0549 F   0  0  0  0  0  0  0  0  0  0  0  0
   -3.2019    2.1004    1.4721 H   0  0  0  0  0  0  0  0  0  0  0  0
   -2.0871    3.4389    1.2314 H   0  0  0  0  0  0  0  0  0  0  0  0
   -2.9372    2.7524   -0.1623 H   0  0  0  0  0  0  0  0  0  0  0  0
   -3.6373    0.5680   -0.5081 H   0  0  0  0  0  0  0  0  0  0  0  0
   -4.5584   -1.8429   -1.9714 H   0  0  0  0  0  0  0  0  0  0  0  0
   -4.2082   -2.8897   -0.6068 H   0  0  0  0  0  0  0  0  0  0  0  0
   -6.1976   -3.7185   -1.8215 H   0  0  0  0  0  0  0  0  0  0  0  0
   -6.0972   -4.0425    0.6538 H   0  0  0  0  0  0  0  0  0  0  0  0
   -7.7624   -3.8373    0.1156 H   0  0  0  0  0  0  0  0  0  0  0  0
   -7.3208   -2.4520    2.1415 H   0  0  0  0  0  0  0  0  0  0  0  0
   -8.0930   -0.2629    1.2253 H   0  0  0  0  0  0  0  0  0  0  0  0
   -8.9439   -1.5983    0.4521 H   0  0  0  0  0  0  0  0  0  0  0  0
   -8.1767    0.0626   -1.2463 H   0  0  0  0  0  0  0  0  0  0  0  0
   -6.9668   -1.5278   -2.7396 H   0  0  0  0  0  0  0  0  0  0  0  0
   -8.2778   -2.3463   -1.8934 H   0  0  0  0  0  0  0  0  0  0  0  0
   -5.7436    0.4059   -1.6184 H   0  0  0  0  0  0  0  0  0  0  0  0
   -6.1971    0.9187   -0.0014 H   0  0  0  0  0  0  0  0  0  0  0  0
   -4.8993   -2.1206    1.8090 H   0  0  0  0  0  0  0  0  0  0  0  0
   -5.6884   -0.5669    2.0144 H   0  0  0  0  0  0  0  0  0  0  0  0
    0.1736   -1.4076    0.3008 H   0  0  0  0  0  0  0  0  0  0  0  0
    2.5772    1.5319    0.1804 H   0  0  0  0  0  0  0  0  0  0  0  0
    3.6990    0.2255    1.5622 H   0  0  0  0  0  0  0  0  0  0  0  0
    2.1554   -0.4335    2.0620 H   0  0  0  0  0  0  0  0  0  0  0  0
    2.3974   -2.2635    0.3777 H   0  0  0  0  0  0  0  0  0  0  0  0
    3.7319   -2.2352    1.5296 H   0  0  0  0  0  0  0  0  0  0  0  0
    4.2548   -2.5315   -1.0058 H   0  0  0  0  0  0  0  0  0  0  0  0
    8.9544   -2.8908   -1.1596 H   0  0  0  0  0  0  0  0  0  0  0  0
   11.1270   -2.5174   -0.0300 H   0  0  0  0  0  0  0  0  0  0  0  0
   11.3189   -0.8201    1.7739 H   0  0  0  0  0  0  0  0  0  0  0  0
    9.3223    0.5164    2.4328 H   0  0  0  0  0  0  0  0  0  0  0  0
    4.1585   -0.7253   -2.4545 H   0  0  0  0  0  0  0  0  0  0  0  0
    4.5866    0.4451   -1.2250 H   0  0  0  0  0  0  0  0  0  0  0  0
    2.2844    0.8195   -2.0612 H   0  0  0  0  0  0  0  0  0  0  0  0
    1.8324   -0.8160   -1.6183 H   0  0  0  0  0  0  0  0  0  0  0  0
    0.6638    3.4211    2.4723 H   0  0  0  0  0  0  0  0  0  0  0  0
    1.7162    5.6648    2.3827 H   0  0  0  0  0  0  0  0  0  0  0  0
    2.5406    7.2215   -0.6775 H   0  0  0  0  0  0  0  0  0  0  0  0
    1.7645    5.4681   -1.9228 H   0  0  0  0  0  0  0  0  0  0  0  0
  1  2  1  0
  2  3  1  0
  3  4  1  0
  4  5  2  0
  4  6  1  0
  7  6  1  1
  7  8  1  0
  8  9  1  0
  9 10  1  0
 10 11  1  0
 11 12  1  0
 12 13  1  0
 13 14  1  0
 13 15  1  0
 11 16  1  0
  3 17  2  0
 17 18  1  0
 18 19  1  0
 19 20  1  0
 20 21  1  0
 21 22  1  0
 22 23  1  0
 23 24  1  0
 24 25  2  0
 24 26  1  0
 26 27  2  0
 27 28  1  0
 28 29  2  0
 29 30  1  0
 30 31  2  0
 31 32  1  0
 22 33  1  0
 33 34  1  0
 18 35  1  0
 35 36  1  0
 36 37  1  0
 37 38  2  0
 38 39  1  0
 39 40  1  0
 39 41  2  0
 41 42  1  0
 42 43  1  0
 35  2  2  0
 42 36  2  0
 15  7  1  0
 34 19  1  0
 16  7  1  0
 31 26  1  0
 14  9  1  0
  1 44  1  0
  1 45  1  0
  1 46  1  0
  6 47  1  0
  8 48  1  0
  8 49  1  0
  9 50  1  6
 10 51  1  0
 10 52  1  0
 11 53  1  1
 12 54  1  0
 12 55  1  0
 13 56  1  6
 14 57  1  0
 14 58  1  0
 15 59  1  0
 15 60  1  0
 16 61  1  0
 16 62  1  0
 17 63  1  0
 19 64  1  6
 20 65  1  0
 20 66  1  0
 21 67  1  0
 21 68  1  0
 22 69  1  6
 27 70  1  0
 28 71  1  0
 29 72  1  0
 30 73  1  0
 33 74  1  0
 33 75  1  0
 34 76  1  0
 34 77  1  0
 37 78  1  0
 38 79  1  0
 40 80  1  0
 41 81  1  0
M  END
>  <_SMILES>  (25) 
Cc1c(C(=O)N[C@]23C[C@H]4C[C@H](C[C@H](C4)C2)C3)cn([C@H]2CC[C@H](OC(=O)c3ccccc3F)CC2)c1-c1ccc(O)cc1F

$$$$

     RDKit          3D

 67 72  0  0  0  0  0  0  0  0999 V2000
   -0.1366   -2.5605    0.2837 C   0  0  0  0  0  0  0  0  0  0  0  0
   -0.9302   -1.3085    0.0877 C   0  0  0  0  0  0  0  0  0  0  0  0
   -0.4241   -0.0071   -0.2388 C   0  0  0  0  0  0  0  0  0  0  0  0
    0.9372    0.5087   -0.4304 C   0  0  0  0  0  0  0  0  0  0  0  0
    1.1316    1.5271   -1.0857 O   0  0  0  0  0  0  0  0  0  0  0  0
    1.9241   -0.1923    0.2198 N   0  0  0  0  0  0  0  0  0  0  0  0
    3.3438    0.1757    0.2370 C   0  0  2  0  0  0  0  0  0  0  0  0
    3.5705    1.5398    0.9333 C   0  0  0  0  0  0  0  0  0  0  0  0
    5.0714    1.8755    0.9888 C   0  0  1  0  0  0  0  0  0  0  0  0
    5.8071    0.7850    1.7836 C   0  0  0  0  0  0  0  0  0  0  0  0
    5.6176   -0.5795    1.1024 C   0  0  2  0  0  0  0  0  0  0  0  0
    6.1812   -0.5185   -0.3256 C   0  0  0  0  0  0  0  0  0  0  0  0
    5.4471    0.5634   -1.1326 C   0  0  2  0  0  0  0  0  0  0  0  0
    5.6329    1.9256   -0.4424 C   0  0  0  0  0  0  0  0  0  0  0  0
    3.9466    0.2259   -1.1899 C   0  0  0  0  0  0  0  0  0  0  0  0
    4.1174   -0.9068    1.0383 C   0  0  0  0  0  0  0  0  0  0  0  0
   -1.5348    0.7978   -0.4190 C   0  0  0  0  0  0  0  0  0  0  0  0
   -2.6733    0.0818   -0.1886 N   0  0  0  0  0  0  0  0  0  0  0  0
   -4.0388    0.6048   -0.3095 C   0  0  0  0  0  0  0  0  0  0  0  0
   -4.3190    1.8428    0.5608 C   0  0  0  0  0  0  0  0  0  0  0  0
   -3.9472    3.1712   -0.0775 C   0  0  0  0  0  0  0  0  0  0  0  0
   -4.4694    3.2389   -1.4710 N   0  0  0  0  0  0  0  0  0  0  0  0
   -4.0117    2.1299   -2.3575 C   0  0  0  0  0  0  0  0  0  0  0  0
   -4.4600    0.8038   -1.7734 C   0  0  0  0  0  0  0  0  0  0  0  0
   -2.3232   -1.2154    0.1478 C   0  0  0  0  0  0  0  0  0  0  0  0
   -3.2786   -2.2817    0.4717 C   0  0  0  0  0  0  0  0  0  0  0  0
   -3.3467   -2.7759    1.7818 C   0  0  0  0  0  0  0  0  0  0  0  0
   -4.2370   -3.8050    2.0977 C   0  0  0  0  0  0  0  0  0  0  0  0
   -5.0522   -4.3405    1.1050 C   0  0  0  0  0  0  0  0  0  0  0  0
   -5.9064   -5.3232    1.4150 F   0  0  0  0  0  0  0  0  0  0  0  0
   -4.9980   -3.8702   -0.1992 C   0  0  0  0  0  0  0  0  0  0  0  0
   -4.1103   -2.8458   -0.5072 C   0  0  0  0  0  0  0  0  0  0  0  0
   -4.0768   -2.3847   -1.7669 F   0  0  0  0  0  0  0  0  0  0  0  0
    0.7192   -2.5934   -0.3977 H   0  0  0  0  0  0  0  0  0  0  0  0
    0.2273   -2.6209    1.3141 H   0  0  0  0  0  0  0  0  0  0  0  0
   -0.7359   -3.4538    0.0814 H   0  0  0  0  0  0  0  0  0  0  0  0
    1.6196   -0.8509    0.9209 H   0  0  0  0  0  0  0  0  0  0  0  0
    3.1548    1.5186    1.9493 H   0  0  0  0  0  0  0  0  0  0  0  0
    3.0431    2.3417    0.4031 H   0  0  0  0  0  0  0  0  0  0  0  0
    5.2140    2.8467    1.4759 H   0  0  0  0  0  0  0  0  0  0  0  0
    5.4250    0.7477    2.8111 H   0  0  0  0  0  0  0  0  0  0  0  0
    6.8753    1.0256    1.8498 H   0  0  0  0  0  0  0  0  0  0  0  0
    6.1414   -1.3539    1.6738 H   0  0  0  0  0  0  0  0  0  0  0  0
    6.0681   -1.4933   -0.8157 H   0  0  0  0  0  0  0  0  0  0  0  0
    7.2557   -0.2999   -0.2957 H   0  0  0  0  0  0  0  0  0  0  0  0
    5.8545    0.6055   -2.1489 H   0  0  0  0  0  0  0  0  0  0  0  0
    5.1246    2.7095   -1.0172 H   0  0  0  0  0  0  0  0  0  0  0  0
    6.6974    2.1893   -0.4171 H   0  0  0  0  0  0  0  0  0  0  0  0
    3.4392    0.9768   -1.8063 H   0  0  0  0  0  0  0  0  0  0  0  0
    3.7987   -0.7372   -1.6959 H   0  0  0  0  0  0  0  0  0  0  0  0
    3.7136   -0.9829    2.0570 H   0  0  0  0  0  0  0  0  0  0  0  0
    3.9716   -1.8930    0.5775 H   0  0  0  0  0  0  0  0  0  0  0  0
   -1.5346    1.8364   -0.7071 H   0  0  0  0  0  0  0  0  0  0  0  0
   -4.6853   -0.1802    0.0988 H   0  0  0  0  0  0  0  0  0  0  0  0
   -3.8249    1.7516    1.5357 H   0  0  0  0  0  0  0  0  0  0  0  0
   -5.3980    1.8668    0.7672 H   0  0  0  0  0  0  0  0  0  0  0  0
   -4.4017    4.0049    0.4675 H   0  0  0  0  0  0  0  0  0  0  0  0
   -2.8708    3.3468   -0.1200 H   0  0  0  0  0  0  0  0  0  0  0  0
   -5.4988    3.2789   -1.4627 H   0  0  0  0  0  0  0  0  0  0  0  0
   -4.1703    4.1324   -1.8896 H   0  0  0  0  0  0  0  0  0  0  0  0
   -4.4700    2.3024   -3.3363 H   0  0  0  0  0  0  0  0  0  0  0  0
   -2.9274    2.2138   -2.4639 H   0  0  0  0  0  0  0  0  0  0  0  0
   -4.0871   -0.0108   -2.4043 H   0  0  0  0  0  0  0  0  0  0  0  0
   -5.5562    0.7580   -1.8243 H   0  0  0  0  0  0  0  0  0  0  0  0
   -2.7046   -2.3686    2.5601 H   0  0  0  0  0  0  0  0  0  0  0  0
   -4.2963   -4.1977    3.1091 H   0  0  0  0  0  0  0  0  0  0  0  0
   -5.6352   -4.2994   -0.9637 H   0  0  0  0  0  0  0  0  0  0  0  0
  1  2  1  0
  2  3  1  0
  3  4  1  0
  4  5  2  0
  4  6  1  0
  7  6  1  6
  7  8  1  0
  8  9  1  0
  9 10  1  0
 10 11  1  0
 11 12  1  0
 12 13  1  0
 13 14  1  0
 13 15  1  0
 11 16  1  0
  3 17  2  0
 17 18  1  0
 18 19  1  0
 19 20  1  0
 20 21  1  0
 21 22  1  0
 22 23  1  0
 23 24  1  0
 18 25  1  0
 25 26  1  0
 26 27  1  0
 27 28  2  0
 28 29  1  0
 29 30  1  0
 29 31  2  0
 31 32  1  0
 32 33  1  0
 25  2  2  0
 32 26  2  0
 15  7  1  0
 24 19  1  0
 16  7  1  0
 14  9  1  0
  1 34  1  0
  1 35  1  0
  1 36  1  0
  6 37  1  0
  8 38  1  0
  8 39  1  0
  9 40  1  1
 10 41  1  0
 10 42  1  0
 11 43  1  1
 12 44  1  0
 12 45  1  0
 13 46  1  6
 14 47  1  0
 14 48  1  0
 15 49  1  0
 15 50  1  0
 16 51  1  0
 16 52  1  0
 17 53  1  0
 19 54  1  0
 20 55  1  0
 20 56  1  0
 21 57  1  0
 21 58  1  0
 22 59  1  0
 22 60  1  0
 23 61  1  0
 23 62  1  0
 24 63  1  0
 24 64  1  0
 27 65  1  0
 28 66  1  0
 31 67  1  0
M  CHG  1  22   1
M  END
>  <_SMILES>  (26) 
Cc1c(C(=O)N[C@]23C[C@H]4C[C@H](C[C@H](C4)C2)C3)cn(C2CC[NH2+]CC2)c1-c1ccc(F)cc1F

$$$$

     RDKit          3D

 58 63  0  0  0  0  0  0  0  0999 V2000
    1.1593   -2.0086    0.6010 O   0  0  0  0  0  0  0  0  0  0  0  0
    0.7932   -0.9159    0.1837 C   0  0  0  0  0  0  0  0  0  0  0  0
    1.6534    0.0852   -0.2125 N   0  0  0  0  0  0  0  0  0  0  0  0
    3.1152    0.0105   -0.1367 C   0  0  2  0  0  0  0  0  0  0  0  0
    3.7010    1.3323   -0.7049 C   0  0  0  0  0  0  0  0  0  0  0  0
    5.2368    1.3252   -0.6498 C   0  0  1  0  0  0  0  0  0  0  0  0
    5.6880    1.1602    0.8099 C   0  0  0  0  0  0  0  0  0  0  0  0
    5.1418   -0.1573    1.3825 C   0  0  2  0  0  0  0  0  0  0  0  0
    5.6659   -1.3324    0.5396 C   0  0  0  0  0  0  0  0  0  0  0  0
    5.2187   -1.1757   -0.9239 C   0  0  2  0  0  0  0  0  0  0  0  0
    5.7652    0.1472   -1.4825 C   0  0  0  0  0  0  0  0  0  0  0  0
    3.6809   -1.1575   -0.9839 C   0  0  0  0  0  0  0  0  0  0  0  0
    3.6040   -0.1382    1.3253 C   0  0  0  0  0  0  0  0  0  0  0  0
   -0.6251   -0.5682    0.0890 C   0  0  0  0  0  0  0  0  0  0  0  0
   -1.2696    0.5273   -0.5403 C   0  0  0  0  0  0  0  0  0  0  0  0
   -2.6441    0.4020   -0.3801 C   0  0  0  0  0  0  0  0  0  0  0  0
   -3.6693    1.2225   -1.0383 C   0  0  0  0  0  0  0  0  0  0  0  0
   -4.6492    0.6263   -1.8479 C   0  0  0  0  0  0  0  0  0  0  0  0
   -5.6119    1.4137   -2.4845 C   0  0  0  0  0  0  0  0  0  0  0  0
   -5.5888    2.7953   -2.3228 C   0  0  0  0  0  0  0  0  0  0  0  0
   -6.5133    3.5444   -2.9372 F   0  0  0  0  0  0  0  0  0  0  0  0
   -4.6195    3.4095   -1.5439 C   0  0  0  0  0  0  0  0  0  0  0  0
   -3.6636    2.6208   -0.9123 C   0  0  0  0  0  0  0  0  0  0  0  0
   -2.7259    3.2311   -0.1705 F   0  0  0  0  0  0  0  0  0  0  0  0
   -2.8663   -0.7158    0.4268 N   0  0  0  0  0  0  0  0  0  0  0  0
   -4.0919   -1.2003    0.9723 C   0  0  0  0  0  0  0  0  0  0  0  0
   -4.2786   -2.5846    1.1330 C   0  0  0  0  0  0  0  0  0  0  0  0
   -5.4777   -3.0735    1.6587 C   0  0  0  0  0  0  0  0  0  0  0  0
   -6.4779   -2.1853    2.0361 C   0  0  0  0  0  0  0  0  0  0  0  0
   -7.6240   -2.6593    2.5406 F   0  0  0  0  0  0  0  0  0  0  0  0
   -6.3013   -0.8158    1.9089 C   0  0  0  0  0  0  0  0  0  0  0  0
   -5.1071   -0.3284    1.3847 C   0  0  0  0  0  0  0  0  0  0  0  0
   -4.9407    1.0005    1.3729 F   0  0  0  0  0  0  0  0  0  0  0  0
   -1.6449   -1.3335    0.6233 C   0  0  0  0  0  0  0  0  0  0  0  0
    1.2489    0.9971   -0.3673 H   0  0  0  0  0  0  0  0  0  0  0  0
    3.3676    1.4776   -1.7412 H   0  0  0  0  0  0  0  0  0  0  0  0
    3.3164    2.1903   -0.1371 H   0  0  0  0  0  0  0  0  0  0  0  0
    5.6261    2.2668   -1.0528 H   0  0  0  0  0  0  0  0  0  0  0  0
    6.7834    1.1680    0.8668 H   0  0  0  0  0  0  0  0  0  0  0  0
    5.3321    2.0062    1.4106 H   0  0  0  0  0  0  0  0  0  0  0  0
    5.4704   -0.2723    2.4215 H   0  0  0  0  0  0  0  0  0  0  0  0
    6.7609   -1.3716    0.5934 H   0  0  0  0  0  0  0  0  0  0  0  0
    5.2933   -2.2807    0.9460 H   0  0  0  0  0  0  0  0  0  0  0  0
    5.6009   -2.0129   -1.5186 H   0  0  0  0  0  0  0  0  0  0  0  0
    6.8619    0.1374   -1.4646 H   0  0  0  0  0  0  0  0  0  0  0  0
    5.4649    0.2641   -2.5310 H   0  0  0  0  0  0  0  0  0  0  0  0
    3.3027   -2.1226   -0.6282 H   0  0  0  0  0  0  0  0  0  0  0  0
    3.3484   -1.0631   -2.0260 H   0  0  0  0  0  0  0  0  0  0  0  0
    3.2177    0.6869    1.9380 H   0  0  0  0  0  0  0  0  0  0  0  0
    3.2176   -1.0606    1.7749 H   0  0  0  0  0  0  0  0  0  0  0  0
   -0.7985    1.3124   -1.1186 H   0  0  0  0  0  0  0  0  0  0  0  0
   -4.6662   -0.4514   -1.9943 H   0  0  0  0  0  0  0  0  0  0  0  0
   -6.3757    0.9590   -3.1081 H   0  0  0  0  0  0  0  0  0  0  0  0
   -4.6056    4.4866   -1.4288 H   0  0  0  0  0  0  0  0  0  0  0  0
   -3.5225   -3.3030    0.8232 H   0  0  0  0  0  0  0  0  0  0  0  0
   -5.6377   -4.1418    1.7733 H   0  0  0  0  0  0  0  0  0  0  0  0
   -7.0762   -0.1306    2.2328 H   0  0  0  0  0  0  0  0  0  0  0  0
   -1.5633   -2.2453    1.2012 H   0  0  0  0  0  0  0  0  0  0  0  0
  1  2  2  0
  2  3  1  0
  4  3  1  1
  4  5  1  0
  5  6  1  0
  6  7  1  0
  7  8  1  0
  8  9  1  0
  9 10  1  0
 10 11  1  0
 10 12  1  0
  8 13  1  0
  2 14  1  0
 14 15  1  0
 15 16  2  0
 16 17  1  0
 17 18  1  0
 18 19  2  0
 19 20  1  0
 20 21  1  0
 20 22  2  0
 22 23  1  0
 23 24  1  0
 16 25  1  0
 25 26  1  0
 26 27  1  0
 27 28  2  0
 28 29  1  0
 29 30  1  0
 29 31  2  0
 31 32  1  0
 32 33  1  0
 25 34  1  0
 12  4  1  0
 34 14  2  0
 13  4  1  0
 23 17  2  0
 32 26  2  0
 11  6  1  0
  3 35  1  0
  5 36  1  0
  5 37  1  0
  6 38  1  6
  7 39  1  0
  7 40  1  0
  8 41  1  1
  9 42  1  0
  9 43  1  0
 10 44  1  6
 11 45  1  0
 11 46  1  0
 12 47  1  0
 12 48  1  0
 13 49  1  0
 13 50  1  0
 15 51  1  0
 18 52  1  0
 19 53  1  0
 22 54  1  0
 27 55  1  0
 28 56  1  0
 31 57  1  0
 34 58  1  0
M  END
>  <_SMILES>  (27) 
O=C(N[C@]12C[C@H]3C[C@H](C[C@H](C3)C1)C2)c1cc(-c2ccc(F)cc2F)n(-c2ccc(F)cc2F)c1

$$$$

     RDKit          3D

 53 55  0  0  0  0  0  0  0  0999 V2000
    5.5162   -1.5843    1.0195 C   0  0  0  0  0  0  0  0  0  0  0  0
    5.1176   -0.1381    0.7698 C   0  0  0  0  0  0  0  0  0  0  0  0
    3.7426    0.0205    0.2994 N   0  0  0  0  0  0  0  0  0  0  0  0
    3.4958   -0.0513   -1.1442 C   0  0  0  0  0  0  0  0  0  0  0  0
    3.1824   -1.4555   -1.6384 C   0  0  0  0  0  0  0  0  0  0  0  0
    2.7279    0.0005    1.2675 C   0  0  0  0  0  0  0  0  0  0  0  0
    2.9599   -0.1847    2.4605 O   0  0  0  0  0  0  0  0  0  0  0  0
    1.3574    0.2140    0.8120 C   0  0  0  0  0  0  0  0  0  0  0  0
    0.3650   -0.7429    0.8628 C   0  0  0  0  0  0  0  0  0  0  0  0
   -0.8004   -0.2037    0.3737 N   0  0  0  0  0  0  0  0  0  0  0  0
   -2.0587   -0.9464    0.2622 C   0  0  2  0  0  0  0  0  0  0  0  0
   -2.7468   -1.1372    1.6242 C   0  0  0  0  0  0  0  0  0  0  0  0
   -3.5556   -2.4334    1.6981 C   0  0  0  0  0  0  0  0  0  0  0  0
   -4.0973   -2.8116    0.3341 C   0  0  0  0  0  0  0  0  0  0  0  0
   -4.7852   -3.9742    0.4085 F   0  0  0  0  0  0  0  0  0  0  0  0
   -4.9835   -1.8565   -0.0584 F   0  0  0  0  0  0  0  0  0  0  0  0
   -2.9810   -2.9131   -0.7082 C   0  0  0  0  0  0  0  0  0  0  0  0
   -1.7761   -2.2247   -0.3317 O   0  0  0  0  0  0  0  0  0  0  0  0
   -0.5841    1.1175    0.0238 C   0  0  0  0  0  0  0  0  0  0  0  0
   -1.6069    2.0036   -0.5348 C   0  0  0  0  0  0  0  0  0  0  0  0
   -1.5243    2.3954   -1.8780 C   0  0  0  0  0  0  0  0  0  0  0  0
   -2.4870    3.2499   -2.4200 C   0  0  0  0  0  0  0  0  0  0  0  0
   -3.5261    3.7131   -1.6185 C   0  0  0  0  0  0  0  0  0  0  0  0
   -4.4464    4.5316   -2.1439 F   0  0  0  0  0  0  0  0  0  0  0  0
   -3.6247    3.3408   -0.2854 C   0  0  0  0  0  0  0  0  0  0  0  0
   -2.6629    2.4903    0.2481 C   0  0  0  0  0  0  0  0  0  0  0  0
   -2.7704    2.1322    1.5363 F   0  0  0  0  0  0  0  0  0  0  0  0
    0.7480    1.4110    0.3128 C   0  0  0  0  0  0  0  0  0  0  0  0
    1.4170    2.7345    0.1531 C   0  0  0  0  0  0  0  0  0  0  0  0
    5.5458   -2.1565    0.0891 H   0  0  0  0  0  0  0  0  0  0  0  0
    6.5154   -1.6265    1.4645 H   0  0  0  0  0  0  0  0  0  0  0  0
    4.8188   -2.0829    1.6996 H   0  0  0  0  0  0  0  0  0  0  0  0
    5.2279    0.4212    1.7067 H   0  0  0  0  0  0  0  0  0  0  0  0
    5.7974    0.3270    0.0476 H   0  0  0  0  0  0  0  0  0  0  0  0
    2.6634    0.6048   -1.4071 H   0  0  0  0  0  0  0  0  0  0  0  0
    4.3718    0.3445   -1.6700 H   0  0  0  0  0  0  0  0  0  0  0  0
    4.0397   -2.1222   -1.5199 H   0  0  0  0  0  0  0  0  0  0  0  0
    2.9293   -1.4298   -2.7031 H   0  0  0  0  0  0  0  0  0  0  0  0
    2.3395   -1.8975   -1.1000 H   0  0  0  0  0  0  0  0  0  0  0  0
    0.4019   -1.7708    1.2015 H   0  0  0  0  0  0  0  0  0  0  0  0
   -2.7086   -0.3962   -0.4276 H   0  0  0  0  0  0  0  0  0  0  0  0
   -3.4029   -0.2788    1.8112 H   0  0  0  0  0  0  0  0  0  0  0  0
   -2.0218   -1.1380    2.4475 H   0  0  0  0  0  0  0  0  0  0  0  0
   -2.9218   -3.2464    2.0733 H   0  0  0  0  0  0  0  0  0  0  0  0
   -4.3738   -2.3199    2.4179 H   0  0  0  0  0  0  0  0  0  0  0  0
   -3.3178   -2.5143   -1.6713 H   0  0  0  0  0  0  0  0  0  0  0  0
   -2.7066   -3.9614   -0.8635 H   0  0  0  0  0  0  0  0  0  0  0  0
   -0.7110    2.0358   -2.5049 H   0  0  0  0  0  0  0  0  0  0  0  0
   -2.4320    3.5583   -3.4597 H   0  0  0  0  0  0  0  0  0  0  0  0
   -4.4366    3.7085    0.3307 H   0  0  0  0  0  0  0  0  0  0  0  0
    0.7831    3.5387    0.5406 H   0  0  0  0  0  0  0  0  0  0  0  0
    2.3663    2.7733    0.6962 H   0  0  0  0  0  0  0  0  0  0  0  0
    1.6205    2.9317   -0.9041 H   0  0  0  0  0  0  0  0  0  0  0  0
  1  2  1  0
  2  3  1  0
  3  4  1  0
  4  5  1  0
  3  6  1  0
  6  7  2  0
  6  8  1  0
  8  9  2  0
  9 10  1  0
 10 11  1  0
 11 12  1  0
 12 13  1  0
 13 14  1  0
 14 15  1  0
 14 16  1  0
 14 17  1  0
 17 18  1  0
 10 19  1  0
 19 20  1  0
 20 21  1  0
 21 22  2  0
 22 23  1  0
 23 24  1  0
 23 25  2  0
 25 26  1  0
 26 27  1  0
 19 28  2  0
 28 29  1  0
 28  8  1  0
 18 11  1  0
 26 20  2  0
  1 30  1  0
  1 31  1  0
  1 32  1  0
  2 33  1  0
  2 34  1  0
  4 35  1  0
  4 36  1  0
  5 37  1  0
  5 38  1  0
  5 39  1  0
  9 40  1  0
 11 41  1  6
 12 42  1  0
 12 43  1  0
 13 44  1  0
 13 45  1  0
 17 46  1  0
 17 47  1  0
 21 48  1  0
 22 49  1  0
 25 50  1  0
 29 51  1  0
 29 52  1  0
 29 53  1  0
M  END
>  <_SMILES>  (28) 
CCN(CC)C(=O)c1cn([C@@H]2CCC(F)(F)CO2)c(-c2ccc(F)cc2F)c1C

$$$$

     RDKit          3D

 53 55  0  0  0  0  0  0  0  0999 V2000
    3.4925    0.0736    1.9499 C   0  0  0  0  0  0  0  0  0  0  0  0
    3.1594    1.2574    1.0544 C   0  0  0  0  0  0  0  0  0  0  0  0
    3.5326    1.0083   -0.3395 N   0  0  0  0  0  0  0  0  0  0  0  0
    4.8898    1.3775   -0.7358 C   0  0  0  0  0  0  0  0  0  0  0  0
    4.9247    2.7631   -1.3602 C   0  0  0  0  0  0  0  0  0  0  0  0
    2.7559    0.2952   -1.2617 C   0  0  0  0  0  0  0  0  0  0  0  0
    3.1973   -0.0576   -2.3542 O   0  0  0  0  0  0  0  0  0  0  0  0
    1.3883   -0.0566   -0.8842 C   0  0  0  0  0  0  0  0  0  0  0  0
    0.3666    0.8312   -0.6098 C   0  0  0  0  0  0  0  0  0  0  0  0
   -0.7823    0.1236   -0.3478 N   0  0  0  0  0  0  0  0  0  0  0  0
   -2.0682    0.7413   -0.0091 C   0  0  1  0  0  0  0  0  0  0  0  0
   -2.1338    1.1665    1.4670 C   0  0  0  0  0  0  0  0  0  0  0  0
   -3.0235    2.3917    1.6870 C   0  0  0  0  0  0  0  0  0  0  0  0
   -4.1451    2.4369    0.6677 C   0  0  0  0  0  0  0  0  0  0  0  0
   -4.9564    1.3643    0.8728 F   0  0  0  0  0  0  0  0  0  0  0  0
   -4.9032    3.5414    0.8559 F   0  0  0  0  0  0  0  0  0  0  0  0
   -3.6069    2.3898   -0.7644 C   0  0  0  0  0  0  0  0  0  0  0  0
   -2.2626    1.8872   -0.8547 O   0  0  0  0  0  0  0  0  0  0  0  0
   -0.5264   -1.2302   -0.4732 C   0  0  0  0  0  0  0  0  0  0  0  0
   -1.5324   -2.2789   -0.3008 C   0  0  0  0  0  0  0  0  0  0  0  0
   -2.0187   -2.9639   -1.4227 C   0  0  0  0  0  0  0  0  0  0  0  0
   -2.9713   -3.9735   -1.2692 C   0  0  0  0  0  0  0  0  0  0  0  0
   -3.4314   -4.2979    0.0035 C   0  0  0  0  0  0  0  0  0  0  0  0
   -4.3453   -5.2664    0.1451 F   0  0  0  0  0  0  0  0  0  0  0  0
   -2.9597   -3.6352    1.1279 C   0  0  0  0  0  0  0  0  0  0  0  0
   -2.0110   -2.6316    0.9682 C   0  0  0  0  0  0  0  0  0  0  0  0
   -1.5631   -1.9943    2.0608 F   0  0  0  0  0  0  0  0  0  0  0  0
    0.8144   -1.3677   -0.8264 C   0  0  0  0  0  0  0  0  0  0  0  0
    1.5422   -2.6402   -1.1018 C   0  0  0  0  0  0  0  0  0  0  0  0
    3.2159    0.2923    2.9859 H   0  0  0  0  0  0  0  0  0  0  0  0
    2.9550   -0.8268    1.6364 H   0  0  0  0  0  0  0  0  0  0  0  0
    4.5633   -0.1523    1.9232 H   0  0  0  0  0  0  0  0  0  0  0  0
    3.6892    2.1523    1.4009 H   0  0  0  0  0  0  0  0  0  0  0  0
    2.0952    1.4813    1.1372 H   0  0  0  0  0  0  0  0  0  0  0  0
    5.5439    1.3405    0.1425 H   0  0  0  0  0  0  0  0  0  0  0  0
    5.2824    0.6488   -1.4534 H   0  0  0  0  0  0  0  0  0  0  0  0
    5.9472    3.0255   -1.6484 H   0  0  0  0  0  0  0  0  0  0  0  0
    4.2941    2.8077   -2.2543 H   0  0  0  0  0  0  0  0  0  0  0  0
    4.5613    3.5202   -0.6577 H   0  0  0  0  0  0  0  0  0  0  0  0
    0.3618    1.9139   -0.6009 H   0  0  0  0  0  0  0  0  0  0  0  0
   -2.8552    0.0153   -0.2435 H   0  0  0  0  0  0  0  0  0  0  0  0
   -1.1366    1.3898    1.8665 H   0  0  0  0  0  0  0  0  0  0  0  0
   -2.5085    0.3249    2.0613 H   0  0  0  0  0  0  0  0  0  0  0  0
   -3.4301    2.3771    2.7043 H   0  0  0  0  0  0  0  0  0  0  0  0
   -2.4235    3.3064    1.6050 H   0  0  0  0  0  0  0  0  0  0  0  0
   -4.2503    1.7685   -1.3970 H   0  0  0  0  0  0  0  0  0  0  0  0
   -3.5941    3.3965   -1.1942 H   0  0  0  0  0  0  0  0  0  0  0  0
   -1.6554   -2.7130   -2.4177 H   0  0  0  0  0  0  0  0  0  0  0  0
   -3.3538   -4.5096   -2.1326 H   0  0  0  0  0  0  0  0  0  0  0  0
   -3.3230   -3.8978    2.1143 H   0  0  0  0  0  0  0  0  0  0  0  0
    1.4663   -2.8945   -2.1637 H   0  0  0  0  0  0  0  0  0  0  0  0
    2.6021   -2.5532   -0.8421 H   0  0  0  0  0  0  0  0  0  0  0  0
    1.1306   -3.4687   -0.5167 H   0  0  0  0  0  0  0  0  0  0  0  0
  1  2  1  0
  2  3  1  0
  3  4  1  0
  4  5  1  0
  3  6  1  0
  6  7  2  0
  6  8  1  0
  8  9  2  0
  9 10  1  0
 10 11  1  0
 11 12  1  0
 12 13  1  0
 13 14  1  0
 14 15  1  0
 14 16  1  0
 14 17  1  0
 17 18  1  0
 10 19  1  0
 19 20  1  0
 20 21  1  0
 21 22  2  0
 22 23  1  0
 23 24  1  0
 23 25  2  0
 25 26  1  0
 26 27  1  0
 19 28  2  0
 28 29  1  0
 28  8  1  0
 18 11  1  0
 26 20  2  0
  1 30  1  0
  1 31  1  0
  1 32  1  0
  2 33  1  0
  2 34  1  0
  4 35  1  0
  4 36  1  0
  5 37  1  0
  5 38  1  0
  5 39  1  0
  9 40  1  0
 11 41  1  1
 12 42  1  0
 12 43  1  0
 13 44  1  0
 13 45  1  0
 17 46  1  0
 17 47  1  0
 21 48  1  0
 22 49  1  0
 25 50  1  0
 29 51  1  0
 29 52  1  0
 29 53  1  0
M  END
>  <_SMILES>  (29) 
CCN(CC)C(=O)c1cn([C@H]2CCC(F)(F)CO2)c(-c2ccc(F)cc2F)c1C

$$$$

     RDKit          3D

 66 69  0  0  0  0  0  0  0  0999 V2000
   -1.6036    2.6588   -1.8788 C   0  0  0  0  0  0  0  0  0  0  0  0
   -1.7680    1.6721   -0.7697 C   0  0  0  0  0  0  0  0  0  0  0  0
   -0.6994    0.9421   -0.1362 C   0  0  0  0  0  0  0  0  0  0  0  0
    0.7330    1.0229   -0.4536 C   0  0  0  0  0  0  0  0  0  0  0  0
    1.1634    1.6971   -1.3846 O   0  0  0  0  0  0  0  0  0  0  0  0
    1.5569    0.3007    0.3719 N   0  0  0  0  0  0  0  0  0  0  0  0
    2.9822    0.3069    0.2414 C   0  0  1  0  0  0  0  0  0  0  0  0
    3.4568    0.1291    1.5700 O   0  0  0  0  0  0  0  0  0  0  0  0
    4.8620    0.3731    1.6790 C   0  0  0  0  0  0  0  0  0  0  0  0
    5.6671   -0.1781    0.4842 C   0  0  1  0  0  0  0  0  0  0  0  0
    7.1314   -0.5101    0.8709 C   0  0  0  0  0  0  0  0  0  0  0  0
    8.0194   -0.6365   -0.3723 C   0  0  0  0  0  0  0  0  0  0  0  0
    7.2779   -1.7714    1.7274 C   0  0  0  0  0  0  0  0  0  0  0  0
    4.8890   -1.3298   -0.1665 C   0  0  0  0  0  0  0  0  0  0  0  0
    3.4941   -0.8588   -0.6326 C   0  0  2  0  0  0  0  0  0  0  0  0
    3.5101   -0.4841   -2.1161 C   0  0  0  0  0  0  0  0  0  0  0  0
   -1.3017    0.1429    0.8221 C   0  0  0  0  0  0  0  0  0  0  0  0
   -2.6601    0.3490    0.7900 N   0  0  0  0  0  0  0  0  0  0  0  0
   -3.6046   -0.3272    1.6825 C   0  0  0  0  0  0  0  0  0  0  0  0
   -4.5153   -1.2863    0.9610 C   0  0  0  0  0  0  0  0  0  0  0  0
   -4.0214   -2.2615    0.0792 C   0  0  0  0  0  0  0  0  0  0  0  0
   -4.8987   -3.1357   -0.5664 C   0  0  0  0  0  0  0  0  0  0  0  0
   -6.2652   -3.0458   -0.3239 C   0  0  0  0  0  0  0  0  0  0  0  0
   -7.1012   -3.8878   -0.9450 F   0  0  0  0  0  0  0  0  0  0  0  0
   -6.7749   -2.1022    0.5548 C   0  0  0  0  0  0  0  0  0  0  0  0
   -5.8958   -1.2352    1.1921 C   0  0  0  0  0  0  0  0  0  0  0  0
   -6.3940   -0.3292    2.0457 F   0  0  0  0  0  0  0  0  0  0  0  0
   -2.9645    1.2949   -0.1668 C   0  0  0  0  0  0  0  0  0  0  0  0
   -4.3257    1.7438   -0.4595 C   0  0  0  0  0  0  0  0  0  0  0  0
   -4.9299    2.7173    0.3468 C   0  0  0  0  0  0  0  0  0  0  0  0
   -6.2334    3.1387    0.0754 C   0  0  0  0  0  0  0  0  0  0  0  0
   -6.9249    2.5909   -1.0014 C   0  0  0  0  0  0  0  0  0  0  0  0
   -8.1753    2.9982   -1.2545 F   0  0  0  0  0  0  0  0  0  0  0  0
   -6.3409    1.6326   -1.8174 C   0  0  0  0  0  0  0  0  0  0  0  0
   -5.0430    1.2172   -1.5433 C   0  0  0  0  0  0  0  0  0  0  0  0
   -4.4904    0.2847   -2.3343 F   0  0  0  0  0  0  0  0  0  0  0  0
   -0.9146    3.4560   -1.5818 H   0  0  0  0  0  0  0  0  0  0  0  0
   -1.2069    2.1641   -2.7711 H   0  0  0  0  0  0  0  0  0  0  0  0
   -2.5520    3.1304   -2.1530 H   0  0  0  0  0  0  0  0  0  0  0  0
    1.1979   -0.1378    1.2017 H   0  0  0  0  0  0  0  0  0  0  0  0
    3.3074    1.2838   -0.1388 H   0  0  0  0  0  0  0  0  0  0  0  0
    5.1788   -0.0745    2.6249 H   0  0  0  0  0  0  0  0  0  0  0  0
    5.0227    1.4537    1.7734 H   0  0  0  0  0  0  0  0  0  0  0  0
    5.7146    0.6338   -0.2565 H   0  0  0  0  0  0  0  0  0  0  0  0
    7.5197    0.3351    1.4552 H   0  0  0  0  0  0  0  0  0  0  0  0
    7.7386   -1.4966   -0.9882 H   0  0  0  0  0  0  0  0  0  0  0  0
    7.9540    0.2636   -0.9925 H   0  0  0  0  0  0  0  0  0  0  0  0
    9.0687   -0.7630   -0.0839 H   0  0  0  0  0  0  0  0  0  0  0  0
    6.6670   -1.7213    2.6328 H   0  0  0  0  0  0  0  0  0  0  0  0
    8.3194   -1.8974    2.0437 H   0  0  0  0  0  0  0  0  0  0  0  0
    6.9935   -2.6719    1.1734 H   0  0  0  0  0  0  0  0  0  0  0  0
    4.7491   -2.1310    0.5710 H   0  0  0  0  0  0  0  0  0  0  0  0
    5.4458   -1.7703   -1.0001 H   0  0  0  0  0  0  0  0  0  0  0  0
    2.8196   -1.7200   -0.5268 H   0  0  0  0  0  0  0  0  0  0  0  0
    2.5022   -0.2637   -2.4787 H   0  0  0  0  0  0  0  0  0  0  0  0
    4.1410    0.3916   -2.3001 H   0  0  0  0  0  0  0  0  0  0  0  0
    3.8965   -1.3112   -2.7215 H   0  0  0  0  0  0  0  0  0  0  0  0
   -0.8813   -0.5695    1.5189 H   0  0  0  0  0  0  0  0  0  0  0  0
   -3.0292   -0.8743    2.4385 H   0  0  0  0  0  0  0  0  0  0  0  0
   -4.1566    0.4628    2.2035 H   0  0  0  0  0  0  0  0  0  0  0  0
   -2.9552   -2.3365   -0.1268 H   0  0  0  0  0  0  0  0  0  0  0  0
   -4.5247   -3.8819   -1.2613 H   0  0  0  0  0  0  0  0  0  0  0  0
   -7.8405   -2.0422    0.7407 H   0  0  0  0  0  0  0  0  0  0  0  0
   -4.3878    3.1510    1.1840 H   0  0  0  0  0  0  0  0  0  0  0  0
   -6.7128    3.8906    0.6948 H   0  0  0  0  0  0  0  0  0  0  0  0
   -6.8862    1.2134   -2.6542 H   0  0  0  0  0  0  0  0  0  0  0  0
  1  2  1  0
  2  3  1  0
  3  4  1  0
  4  5  2  0
  4  6  1  0
  6  7  1  0
  7  8  1  0
  8  9  1  0
  9 10  1  0
 10 11  1  0
 11 12  1  0
 11 13  1  0
 10 14  1  0
 14 15  1  0
 15 16  1  0
  3 17  2  0
 17 18  1  0
 18 19  1  0
 19 20  1  0
 20 21  1  0
 21 22  2  0
 22 23  1  0
 23 24  1  0
 23 25  2  0
 25 26  1  0
 26 27  1  0
 18 28  1  0
 28 29  1  0
 29 30  1  0
 30 31  2  0
 31 32  1  0
 32 33  1  0
 32 34  2  0
 34 35  1  0
 35 36  1  0
 28  2  2  0
 35 29  2  0
 15  7  1  0
 26 20  2  0
  1 37  1  0
  1 38  1  0
  1 39  1  0
  6 40  1  0
  7 41  1  6
  9 42  1  0
  9 43  1  0
 10 44  1  6
 11 45  1  0
 12 46  1  0
 12 47  1  0
 12 48  1  0
 13 49  1  0
 13 50  1  0
 13 51  1  0
 14 52  1  0
 14 53  1  0
 15 54  1  6
 16 55  1  0
 16 56  1  0
 16 57  1  0
 17 58  1  0
 19 59  1  0
 19 60  1  0
 21 61  1  0
 22 62  1  0
 25 63  1  0
 30 64  1  0
 31 65  1  0
 34 66  1  0
M  END
>  <_SMILES>  (30) 
Cc1c(C(=O)N[C@H]2OC[C@@H](C(C)C)C[C@@H]2C)cn(Cc2ccc(F)cc2F)c1-c1ccc(F)cc1F

$$$$

     RDKit          3D

 66 69  0  0  0  0  0  0  0  0999 V2000
   -0.9165   -2.2008    0.1677 C   0  0  0  0  0  0  0  0  0  0  0  0
   -1.5640   -0.8914    0.4778 C   0  0  0  0  0  0  0  0  0  0  0  0
   -0.9489    0.4103    0.4410 C   0  0  0  0  0  0  0  0  0  0  0  0
    0.4257    0.8214    0.1496 C   0  0  0  0  0  0  0  0  0  0  0  0
    0.7014    1.9353   -0.2865 O   0  0  0  0  0  0  0  0  0  0  0  0
    1.3828   -0.1125    0.4494 N   0  0  0  0  0  0  0  0  0  0  0  0
    2.7758    0.1808    0.3386 C   0  0  1  0  0  0  0  0  0  0  0  0
    3.4331   -0.8389    1.0771 O   0  0  0  0  0  0  0  0  0  0  0  0
    4.8006   -0.5129    1.3506 C   0  0  0  0  0  0  0  0  0  0  0  0
    5.4805    0.3068    0.2323 C   0  0  1  0  0  0  0  0  0  0  0  0
    7.0265    0.1954    0.2849 C   0  0  0  0  0  0  0  0  0  0  0  0
    7.6917    1.3078   -0.5341 C   0  0  0  0  0  0  0  0  0  0  0  0
    7.5726   -1.1613   -0.1701 C   0  0  0  0  0  0  0  0  0  0  0  0
    4.8466   -0.0537   -1.1171 C   0  0  0  0  0  0  0  0  0  0  0  0
    3.3215    0.1996   -1.1064 C   0  0  1  0  0  0  0  0  0  0  0  0
    2.6460   -0.8166   -2.0364 C   0  0  0  0  0  0  0  0  0  0  0  0
   -1.9532    1.3165    0.7284 C   0  0  0  0  0  0  0  0  0  0  0  0
   -3.1248    0.6408    0.9509 N   0  0  0  0  0  0  0  0  0  0  0  0
   -4.3809    1.2993    1.3154 C   0  0  0  0  0  0  0  0  0  0  0  0
   -4.9288    2.1911    0.2283 C   0  0  0  0  0  0  0  0  0  0  0  0
   -4.9189    1.8271   -1.1282 C   0  0  0  0  0  0  0  0  0  0  0  0
   -5.4726    2.6739   -2.0916 C   0  0  0  0  0  0  0  0  0  0  0  0
   -6.0490    3.8777   -1.7025 C   0  0  0  0  0  0  0  0  0  0  0  0
   -6.5818    4.6839   -2.6297 F   0  0  0  0  0  0  0  0  0  0  0  0
   -6.0875    4.2523   -0.3683 C   0  0  0  0  0  0  0  0  0  0  0  0
   -5.5331    3.4042    0.5833 C   0  0  0  0  0  0  0  0  0  0  0  0
   -5.5893    3.7647    1.8737 F   0  0  0  0  0  0  0  0  0  0  0  0
   -2.8998   -0.7162    0.8404 C   0  0  0  0  0  0  0  0  0  0  0  0
   -3.9233   -1.7360    1.0711 C   0  0  0  0  0  0  0  0  0  0  0  0
   -3.9990   -2.3667    2.3205 C   0  0  0  0  0  0  0  0  0  0  0  0
   -4.9669   -3.3463    2.5525 C   0  0  0  0  0  0  0  0  0  0  0  0
   -5.8516   -3.6946    1.5360 C   0  0  0  0  0  0  0  0  0  0  0  0
   -6.7776   -4.6345    1.7646 F   0  0  0  0  0  0  0  0  0  0  0  0
   -5.7896   -3.0859    0.2904 C   0  0  0  0  0  0  0  0  0  0  0  0
   -4.8237   -2.1117    0.0650 C   0  0  0  0  0  0  0  0  0  0  0  0
   -4.7710   -1.5324   -1.1436 F   0  0  0  0  0  0  0  0  0  0  0  0
   -0.3988   -2.5869    1.0512 H   0  0  0  0  0  0  0  0  0  0  0  0
   -0.1959   -2.0989   -0.6495 H   0  0  0  0  0  0  0  0  0  0  0  0
   -1.6514   -2.9482   -0.1477 H   0  0  0  0  0  0  0  0  0  0  0  0
    1.1469   -0.8992    1.0304 H   0  0  0  0  0  0  0  0  0  0  0  0
    2.9473    1.1491    0.8279 H   0  0  0  0  0  0  0  0  0  0  0  0
    4.8389    0.0432    2.2947 H   0  0  0  0  0  0  0  0  0  0  0  0
    5.3113   -1.4638    1.5247 H   0  0  0  0  0  0  0  0  0  0  0  0
    5.2364    1.3620    0.4253 H   0  0  0  0  0  0  0  0  0  0  0  0
    7.3329    0.3421    1.3294 H   0  0  0  0  0  0  0  0  0  0  0  0
    7.3389    2.2936   -0.2136 H   0  0  0  0  0  0  0  0  0  0  0  0
    8.7787    1.2866   -0.3996 H   0  0  0  0  0  0  0  0  0  0  0  0
    7.4876    1.2031   -1.6043 H   0  0  0  0  0  0  0  0  0  0  0  0
    8.6574   -1.2035   -0.0214 H   0  0  0  0  0  0  0  0  0  0  0  0
    7.3822   -1.3385   -1.2336 H   0  0  0  0  0  0  0  0  0  0  0  0
    7.1354   -1.9872    0.3972 H   0  0  0  0  0  0  0  0  0  0  0  0
    5.2957    0.5243   -1.9324 H   0  0  0  0  0  0  0  0  0  0  0  0
    5.0453   -1.1105   -1.3358 H   0  0  0  0  0  0  0  0  0  0  0  0
    3.1261    1.1957   -1.5250 H   0  0  0  0  0  0  0  0  0  0  0  0
    2.7183   -1.8334   -1.6355 H   0  0  0  0  0  0  0  0  0  0  0  0
    1.5869   -0.5816   -2.1816 H   0  0  0  0  0  0  0  0  0  0  0  0
    3.1170   -0.8071   -3.0255 H   0  0  0  0  0  0  0  0  0  0  0  0
   -1.9128    2.3981    0.7853 H   0  0  0  0  0  0  0  0  0  0  0  0
   -5.1278    0.5439    1.5752 H   0  0  0  0  0  0  0  0  0  0  0  0
   -4.1550    1.8708    2.2239 H   0  0  0  0  0  0  0  0  0  0  0  0
   -4.4725    0.8881   -1.4508 H   0  0  0  0  0  0  0  0  0  0  0  0
   -5.4566    2.3997   -3.1423 H   0  0  0  0  0  0  0  0  0  0  0  0
   -6.5450    5.1887   -0.0727 H   0  0  0  0  0  0  0  0  0  0  0  0
   -3.3042   -2.0984    3.1137 H   0  0  0  0  0  0  0  0  0  0  0  0
   -5.0349   -3.8410    3.5168 H   0  0  0  0  0  0  0  0  0  0  0  0
   -6.4809   -3.3670   -0.4951 H   0  0  0  0  0  0  0  0  0  0  0  0
  1  2  1  0
  2  3  1  0
  3  4  1  0
  4  5  2  0
  4  6  1  0
  6  7  1  0
  7  8  1  0
  8  9  1  0
  9 10  1  0
 10 11  1  0
 11 12  1  0
 11 13  1  0
 10 14  1  0
 14 15  1  0
 15 16  1  0
  3 17  2  0
 17 18  1  0
 18 19  1  0
 19 20  1  0
 20 21  1  0
 21 22  2  0
 22 23  1  0
 23 24  1  0
 23 25  2  0
 25 26  1  0
 26 27  1  0
 18 28  1  0
 28 29  1  0
 29 30  1  0
 30 31  2  0
 31 32  1  0
 32 33  1  0
 32 34  2  0
 34 35  1  0
 35 36  1  0
 28  2  2  0
 35 29  2  0
 15  7  1  0
 26 20  2  0
  1 37  1  0
  1 38  1  0
  1 39  1  0
  6 40  1  0
  7 41  1  1
  9 42  1  0
  9 43  1  0
 10 44  1  1
 11 45  1  0
 12 46  1  0
 12 47  1  0
 12 48  1  0
 13 49  1  0
 13 50  1  0
 13 51  1  0
 14 52  1  0
 14 53  1  0
 15 54  1  6
 16 55  1  0
 16 56  1  0
 16 57  1  0
 17 58  1  0
 19 59  1  0
 19 60  1  0
 21 61  1  0
 22 62  1  0
 25 63  1  0
 30 64  1  0
 31 65  1  0
 34 66  1  0
M  END
>  <_SMILES>  (31) 
Cc1c(C(=O)N[C@H]2OC[C@@H](C(C)C)C[C@H]2C)cn(Cc2ccc(F)cc2F)c1-c1ccc(F)cc1F

$$$$

     RDKit          3D

 62 67  0  0  0  0  0  0  0  0999 V2000
   -1.0807    1.4772    1.6529 C   0  0  0  0  0  0  0  0  0  0  0  0
   -1.5964    0.1466    1.1210 C   0  0  0  0  0  0  0  0  0  0  0  0
   -2.7914   -0.0029    0.4891 C   0  0  0  0  0  0  0  0  0  0  0  0
   -3.5852    1.2366    0.2404 C   0  0  0  0  0  0  0  0  0  0  0  0
   -4.7294    1.4946    1.0083 C   0  0  0  0  0  0  0  0  0  0  0  0
   -5.4877    2.6452    0.7757 C   0  0  0  0  0  0  0  0  0  0  0  0
   -5.1137    3.5432   -0.2256 C   0  0  0  0  0  0  0  0  0  0  0  0
   -3.9810    3.2921   -0.9988 C   0  0  0  0  0  0  0  0  0  0  0  0
   -3.2274    2.1452   -0.7646 C   0  0  0  0  0  0  0  0  0  0  0  0
   -2.1466    1.9181   -1.5273 F   0  0  0  0  0  0  0  0  0  0  0  0
   -3.3375   -1.3358    0.0594 C   0  0  0  0  0  0  0  0  0  0  0  0
   -4.1119   -1.3740   -1.1183 C   0  0  0  0  0  0  0  0  0  0  0  0
   -4.7768   -2.5314   -1.5066 C   0  0  0  0  0  0  0  0  0  0  0  0
   -4.6686   -3.6382   -0.6965 C   0  0  0  0  0  0  0  0  0  0  0  0
   -3.9325   -3.6635    0.4310 N   0  0  0  0  0  0  0  0  0  0  0  0
   -3.2437   -2.5338    0.7984 C   0  0  0  0  0  0  0  0  0  0  0  0
   -2.3884   -2.6584    1.9485 N   0  0  0  0  0  0  0  0  0  0  0  0
   -2.5036   -3.8995    2.6437 N   0  0  0  0  0  0  0  0  0  0  0  0
   -1.1005   -2.1540    1.8817 C   0  0  0  0  0  0  0  0  0  0  0  0
   -0.6877   -0.9591    1.4335 C   0  0  0  0  0  0  0  0  0  0  0  0
    0.8009   -0.7791    1.3903 C   0  0  0  0  0  0  0  0  0  0  0  0
    1.5262   -1.1222    2.3143 O   0  0  0  0  0  0  0  0  0  0  0  0
    1.2336   -0.2236    0.2066 N   0  0  0  0  0  0  0  0  0  0  0  0
    2.6302    0.0634   -0.1258 C   0  0  2  0  0  0  0  0  0  0  0  0
    3.2584    1.0721    0.8681 C   0  0  0  0  0  0  0  0  0  0  0  0
    4.7085    1.3952    0.4670 C   0  0  1  0  0  0  0  0  0  0  0  0
    5.5323    0.0961    0.4570 C   0  0  0  0  0  0  0  0  0  0  0  0
    4.9389   -0.8998   -0.5541 C   0  0  2  0  0  0  0  0  0  0  0  0
    4.9496   -0.2671   -1.9546 C   0  0  0  0  0  0  0  0  0  0  0  0
    4.1207    1.0268   -1.9523 C   0  0  2  0  0  0  0  0  0  0  0  0
    4.7208    2.0143   -0.9394 C   0  0  0  0  0  0  0  0  0  0  0  0
    2.6764    0.6993   -1.5415 C   0  0  0  0  0  0  0  0  0  0  0  0
    3.4889   -1.2250   -0.1536 C   0  0  0  0  0  0  0  0  0  0  0  0
   -1.8785    2.1939    1.8680 H   0  0  0  0  0  0  0  0  0  0  0  0
   -0.3935    1.9394    0.9366 H   0  0  0  0  0  0  0  0  0  0  0  0
   -0.5518    1.3447    2.6046 H   0  0  0  0  0  0  0  0  0  0  0  0
   -5.0313    0.8037    1.7931 H   0  0  0  0  0  0  0  0  0  0  0  0
   -6.3717    2.8412    1.3787 H   0  0  0  0  0  0  0  0  0  0  0  0
   -5.7061    4.4378   -0.4023 H   0  0  0  0  0  0  0  0  0  0  0  0
   -3.6807    3.9811   -1.7819 H   0  0  0  0  0  0  0  0  0  0  0  0
   -4.2149   -0.4923   -1.7470 H   0  0  0  0  0  0  0  0  0  0  0  0
   -5.3756   -2.5576   -2.4099 H   0  0  0  0  0  0  0  0  0  0  0  0
   -5.1791   -4.5654   -0.9398 H   0  0  0  0  0  0  0  0  0  0  0  0
   -2.5396   -4.6335    1.9270 H   0  0  0  0  0  0  0  0  0  0  0  0
   -3.4449   -3.9313    3.0420 H   0  0  0  0  0  0  0  0  0  0  0  0
   -0.3629   -2.8754    2.2334 H   0  0  0  0  0  0  0  0  0  0  0  0
    0.5329   -0.0346   -0.5004 H   0  0  0  0  0  0  0  0  0  0  0  0
    3.2519    0.6727    1.8891 H   0  0  0  0  0  0  0  0  0  0  0  0
    2.6636    1.9945    0.8960 H   0  0  0  0  0  0  0  0  0  0  0  0
    5.1409    2.1013    1.1847 H   0  0  0  0  0  0  0  0  0  0  0  0
    5.5426   -0.3490    1.4595 H   0  0  0  0  0  0  0  0  0  0  0  0
    6.5747    0.3168    0.1961 H   0  0  0  0  0  0  0  0  0  0  0  0
    5.5346   -1.8194   -0.5602 H   0  0  0  0  0  0  0  0  0  0  0  0
    4.5412   -0.9731   -2.6881 H   0  0  0  0  0  0  0  0  0  0  0  0
    5.9807   -0.0512   -2.2605 H   0  0  0  0  0  0  0  0  0  0  0  0
    4.1289    1.4730   -2.9530 H   0  0  0  0  0  0  0  0  0  0  0  0
    4.1478    2.9496   -0.9424 H   0  0  0  0  0  0  0  0  0  0  0  0
    5.7480    2.2693   -1.2278 H   0  0  0  0  0  0  0  0  0  0  0  0
    2.0685    1.6138   -1.5643 H   0  0  0  0  0  0  0  0  0  0  0  0
    2.2291    0.0166   -2.2765 H   0  0  0  0  0  0  0  0  0  0  0  0
    3.4910   -1.7159    0.8267 H   0  0  0  0  0  0  0  0  0  0  0  0
    3.0599   -1.9493   -0.8584 H   0  0  0  0  0  0  0  0  0  0  0  0
  1  2  1  0
  2  3  2  0
  3  4  1  0
  4  5  2  0
  5  6  1  0
  6  7  2  0
  7  8  1  0
  8  9  2  0
  9 10  1  0
  3 11  1  0
 11 12  1  0
 12 13  2  0
 13 14  1  0
 14 15  2  0
 15 16  1  0
 16 17  1  0
 17 18  1  0
 17 19  1  0
 19 20  2  0
 20 21  1  0
 21 22  2  0
 21 23  1  0
 24 23  1  1
 24 25  1  0
 25 26  1  0
 26 27  1  0
 27 28  1  0
 28 29  1  0
 29 30  1  0
 30 31  1  0
 30 32  1  0
 28 33  1  0
 20  2  1  0
 32 24  1  0
  9  4  1  0
 16 11  2  0
 33 24  1  0
 31 26  1  0
  1 34  1  0
  1 35  1  0
  1 36  1  0
  5 37  1  0
  6 38  1  0
  7 39  1  0
  8 40  1  0
 12 41  1  0
 13 42  1  0
 14 43  1  0
 18 44  1  0
 18 45  1  0
 19 46  1  0
 23 47  1  0
 25 48  1  0
 25 49  1  0
 26 50  1  1
 27 51  1  0
 27 52  1  0
 28 53  1  6
 29 54  1  0
 29 55  1  0
 30 56  1  6
 31 57  1  0
 31 58  1  0
 32 59  1  0
 32 60  1  0
 33 61  1  0
 33 62  1  0
M  END
>  <_SMILES>  (32) 
CC1=C(c2ccccc2F)c2cccnc2N(N)C=C1C(=O)N[C@]12C[C@H]3C[C@H](C[C@H](C3)C1)C2

$$$$

     RDKit          3D

 63 67  0  0  0  0  0  0  0  0999 V2000
    0.2114    2.8737    1.6255 C   0  0  0  0  0  0  0  0  0  0  0  0
    1.6576    2.2623    2.4699 S   0  0  0  0  0  0  0  0  0  0  0  0
    1.3044    1.0095    3.1049 O   0  0  0  0  0  0  0  0  0  0  0  0
    2.2190    3.3576    3.2303 O   0  0  0  0  0  0  0  0  0  0  0  0
    2.7156    1.9147    1.2053 N   0  0  0  0  0  0  0  0  0  0  0  0
    3.2727    3.0400    0.4027 C   0  0  0  0  0  0  0  0  0  0  0  0
    2.7056    3.0546   -1.0226 C   0  0  0  0  0  0  0  0  0  0  0  0
    2.8150    1.7690   -1.7169 N   0  0  0  0  0  0  0  0  0  0  0  0
    2.1530    1.6626   -2.9375 C   0  0  0  0  0  0  0  0  0  0  0  0
    1.5481    2.6150   -3.4288 O   0  0  0  0  0  0  0  0  0  0  0  0
    2.2149    0.3946   -3.5125 N   0  0  0  0  0  0  0  0  0  0  0  0
    1.5125    0.1276   -4.6680 N   0  0  0  0  0  0  0  0  0  0  0  0
    0.2119    0.1692   -4.5920 C   0  0  0  0  0  0  0  0  0  0  0  0
   -0.6094    0.2685   -3.3671 C   0  0  0  0  0  0  0  0  0  0  0  0
   -1.5105    1.3850   -3.2715 C   0  0  0  0  0  0  0  0  0  0  0  0
   -2.3206    1.6382   -2.1423 C   0  0  0  0  0  0  0  0  0  0  0  0
   -2.1171    0.6673   -1.1706 C   0  0  0  0  0  0  0  0  0  0  0  0
   -2.7327    0.6179    0.0473 C   0  0  0  0  0  0  0  0  0  0  0  0
   -2.2114   -0.4630    0.7516 N   0  0  0  0  0  0  0  0  0  0  0  0
   -2.4672   -0.7082    2.1342 C   0  0  0  0  0  0  0  0  0  0  0  0
   -1.4590   -1.2317    2.9580 C   0  0  0  0  0  0  0  0  0  0  0  0
   -1.7045   -1.4394    4.3182 C   0  0  0  0  0  0  0  0  0  0  0  0
   -2.9485   -1.1241    4.8518 C   0  0  0  0  0  0  0  0  0  0  0  0
   -3.1789   -1.3280    6.1548 F   0  0  0  0  0  0  0  0  0  0  0  0
   -3.9532   -0.5958    4.0552 C   0  0  0  0  0  0  0  0  0  0  0  0
   -3.7064   -0.3834    2.7021 C   0  0  0  0  0  0  0  0  0  0  0  0
   -4.7150    0.0881    1.9550 F   0  0  0  0  0  0  0  0  0  0  0  0
   -1.3672   -1.2014   -0.1092 C   0  0  0  0  0  0  0  0  0  0  0  0
   -0.8856   -2.5658    0.1669 C   0  0  0  0  0  0  0  0  0  0  0  0
   -1.8127   -3.5887    0.4284 C   0  0  0  0  0  0  0  0  0  0  0  0
   -1.3774   -4.8909    0.6863 C   0  0  0  0  0  0  0  0  0  0  0  0
   -0.0168   -5.1759    0.6748 C   0  0  0  0  0  0  0  0  0  0  0  0
    0.3966   -6.4252    0.9216 F   0  0  0  0  0  0  0  0  0  0  0  0
    0.9182   -4.1876    0.4067 C   0  0  0  0  0  0  0  0  0  0  0  0
    0.4776   -2.8931    0.1507 C   0  0  0  0  0  0  0  0  0  0  0  0
    1.3983   -1.9544   -0.1098 F   0  0  0  0  0  0  0  0  0  0  0  0
   -1.2409   -0.4464   -1.2644 C   0  0  0  0  0  0  0  0  0  0  0  0
   -0.4497   -0.7319   -2.3757 C   0  0  0  0  0  0  0  0  0  0  0  0
    3.2132    0.6253   -0.8858 C   0  0  0  0  0  0  0  0  0  0  0  0
    2.4731    0.6487    0.4571 C   0  0  0  0  0  0  0  0  0  0  0  0
    0.4600    3.8040    1.1132 H   0  0  0  0  0  0  0  0  0  0  0  0
   -0.5564    3.0652    2.3787 H   0  0  0  0  0  0  0  0  0  0  0  0
   -0.1455    2.1200    0.9249 H   0  0  0  0  0  0  0  0  0  0  0  0
    3.0818    4.0050    0.8825 H   0  0  0  0  0  0  0  0  0  0  0  0
    4.3622    2.9170    0.3740 H   0  0  0  0  0  0  0  0  0  0  0  0
    3.2114    3.8141   -1.6294 H   0  0  0  0  0  0  0  0  0  0  0  0
    1.6422    3.3211   -0.9859 H   0  0  0  0  0  0  0  0  0  0  0  0
    3.1721    0.0643   -3.5714 H   0  0  0  0  0  0  0  0  0  0  0  0
   -0.3551    0.0971   -5.5357 H   0  0  0  0  0  0  0  0  0  0  0  0
   -1.5415    2.0976   -4.0970 H   0  0  0  0  0  0  0  0  0  0  0  0
   -2.9867    2.4859   -2.0649 H   0  0  0  0  0  0  0  0  0  0  0  0
   -3.4419    1.2951    0.5036 H   0  0  0  0  0  0  0  0  0  0  0  0
   -0.4557   -1.4273    2.5877 H   0  0  0  0  0  0  0  0  0  0  0  0
   -0.9231   -1.8259    4.9667 H   0  0  0  0  0  0  0  0  0  0  0  0
   -4.9205   -0.3557    4.4814 H   0  0  0  0  0  0  0  0  0  0  0  0
   -2.8812   -3.3807    0.4266 H   0  0  0  0  0  0  0  0  0  0  0  0
   -2.0910   -5.6835    0.8916 H   0  0  0  0  0  0  0  0  0  0  0  0
    1.9761   -4.4220    0.3959 H   0  0  0  0  0  0  0  0  0  0  0  0
    0.2222   -1.5705   -2.4869 H   0  0  0  0  0  0  0  0  0  0  0  0
    3.0249   -0.3268   -1.3874 H   0  0  0  0  0  0  0  0  0  0  0  0
    4.2949    0.7067   -0.7274 H   0  0  0  0  0  0  0  0  0  0  0  0
    2.8163   -0.1888    1.0735 H   0  0  0  0  0  0  0  0  0  0  0  0
    1.4007    0.5333    0.2718 H   0  0  0  0  0  0  0  0  0  0  0  0
  1  2  1  0
  2  3  2  0
  2  4  2  0
  2  5  1  0
  5  6  1  0
  6  7  1  0
  7  8  1  0
  8  9  1  0
  9 10  2  0
  9 11  1  0
 11 12  1  0
 12 13  2  0
 13 14  1  0
 14 15  1  0
 15 16  2  0
 16 17  1  0
 17 18  2  0
 18 19  1  0
 19 20  1  0
 20 21  1  0
 21 22  2  0
 22 23  1  0
 23 24  1  0
 23 25  2  0
 25 26  1  0
 26 27  1  0
 19 28  1  0
 28 29  1  0
 29 30  1  0
 30 31  2  0
 31 32  1  0
 32 33  1  0
 32 34  2  0
 34 35  1  0
 35 36  1  0
 28 37  2  0
 37 38  1  0
  8 39  1  0
 39 40  1  0
 40  5  1  0
 38 14  2  0
 37 17  1  0
 26 20  2  0
 35 29  2  0
  1 41  1  0
  1 42  1  0
  1 43  1  0
  6 44  1  0
  6 45  1  0
  7 46  1  0
  7 47  1  0
 11 48  1  0
 13 49  1  0
 15 50  1  0
 16 51  1  0
 18 52  1  0
 21 53  1  0
 22 54  1  0
 25 55  1  0
 30 56  1  0
 31 57  1  0
 34 58  1  0
 38 59  1  0
 39 60  1  0
 39 61  1  0
 40 62  1  0
 40 63  1  0
M  END
>  <_SMILES>  (33) 
CS(=O)(=O)N1CCN(C(=O)N/N=C\c2ccc3cn(-c4ccc(F)cc4F)c(-c4ccc(F)cc4F)c3c2)CC1

$$$$

     RDKit          3D

 63 67  0  0  0  0  0  0  0  0999 V2000
   -8.2969    2.5729   -0.4175 C   0  0  0  0  0  0  0  0  0  0  0  0
   -9.1091    0.9978   -0.2274 S   0  0  0  0  0  0  0  0  0  0  0  0
   -9.7312    0.9801    1.0787 O   0  0  0  0  0  0  0  0  0  0  0  0
   -9.8705    0.7444   -1.4308 O   0  0  0  0  0  0  0  0  0  0  0  0
   -7.8160   -0.0771   -0.1967 N   0  0  0  0  0  0  0  0  0  0  0  0
   -7.1654   -0.4223   -1.4889 C   0  0  0  0  0  0  0  0  0  0  0  0
   -5.9118   -1.2785   -1.2794 C   0  0  0  0  0  0  0  0  0  0  0  0
   -4.9382   -0.6198   -0.4043 N   0  0  0  0  0  0  0  0  0  0  0  0
   -3.5913   -0.9371   -0.5584 C   0  0  0  0  0  0  0  0  0  0  0  0
   -3.2180   -1.7960   -1.3547 O   0  0  0  0  0  0  0  0  0  0  0  0
   -2.7422   -0.2050    0.2669 N   0  0  0  0  0  0  0  0  0  0  0  0
   -1.3706   -0.3144    0.2444 N   0  0  0  0  0  0  0  0  0  0  0  0
   -0.8773   -1.5130    0.1934 C   0  0  0  0  0  0  0  0  0  0  0  0
    0.5821   -1.7567    0.1294 C   0  0  0  0  0  0  0  0  0  0  0  0
    1.0105   -3.1332    0.0699 C   0  0  0  0  0  0  0  0  0  0  0  0
    2.3648   -3.5374    0.0178 C   0  0  0  0  0  0  0  0  0  0  0  0
    3.2004   -2.4296    0.0257 C   0  0  0  0  0  0  0  0  0  0  0  0
    4.5655   -2.4574    0.0101 C   0  0  0  0  0  0  0  0  0  0  0  0
    5.0319   -1.1447    0.0011 N   0  0  0  0  0  0  0  0  0  0  0  0
    6.4132   -0.7943   -0.1118 C   0  0  0  0  0  0  0  0  0  0  0  0
    6.8056    0.3602   -0.8060 C   0  0  0  0  0  0  0  0  0  0  0  0
    8.1608    0.6842   -0.9219 C   0  0  0  0  0  0  0  0  0  0  0  0
    9.1203   -0.1448   -0.3533 C   0  0  0  0  0  0  0  0  0  0  0  0
   10.4162    0.1715   -0.4676 F   0  0  0  0  0  0  0  0  0  0  0  0
    8.7545   -1.2964    0.3259 C   0  0  0  0  0  0  0  0  0  0  0  0
    7.4049   -1.6186    0.4400 C   0  0  0  0  0  0  0  0  0  0  0  0
    7.0916   -2.7129    1.1488 F   0  0  0  0  0  0  0  0  0  0  0  0
    3.9232   -0.2732    0.0854 C   0  0  0  0  0  0  0  0  0  0  0  0
    3.9992    1.1780    0.2953 C   0  0  0  0  0  0  0  0  0  0  0  0
    4.5136    1.6862    1.4976 C   0  0  0  0  0  0  0  0  0  0  0  0
    4.5703    3.0657    1.7088 C   0  0  0  0  0  0  0  0  0  0  0  0
    4.1077    3.9334    0.7241 C   0  0  0  0  0  0  0  0  0  0  0  0
    4.1652    5.2549    0.9327 F   0  0  0  0  0  0  0  0  0  0  0  0
    3.5881    3.4528   -0.4692 C   0  0  0  0  0  0  0  0  0  0  0  0
    3.5345    2.0787   -0.6745 C   0  0  0  0  0  0  0  0  0  0  0  0
    3.0467    1.6261   -1.8392 F   0  0  0  0  0  0  0  0  0  0  0  0
    2.7926   -1.0734    0.0697 C   0  0  0  0  0  0  0  0  0  0  0  0
    1.4657   -0.6485    0.1357 C   0  0  0  0  0  0  0  0  0  0  0  0
   -5.4868    0.1909    0.6885 C   0  0  0  0  0  0  0  0  0  0  0  0
   -6.9522   -0.1349    1.0100 C   0  0  0  0  0  0  0  0  0  0  0  0
   -7.6315    2.7394    0.4310 H   0  0  0  0  0  0  0  0  0  0  0  0
   -7.7469    2.5869   -1.3593 H   0  0  0  0  0  0  0  0  0  0  0  0
   -9.0696    3.3450   -0.4338 H   0  0  0  0  0  0  0  0  0  0  0  0
   -6.8854    0.4979   -2.0131 H   0  0  0  0  0  0  0  0  0  0  0  0
   -7.8757   -0.9771   -2.1108 H   0  0  0  0  0  0  0  0  0  0  0  0
   -6.1742   -2.2328   -0.8066 H   0  0  0  0  0  0  0  0  0  0  0  0
   -5.4534   -1.5043   -2.2483 H   0  0  0  0  0  0  0  0  0  0  0  0
   -3.0319    0.7548    0.4046 H   0  0  0  0  0  0  0  0  0  0  0  0
   -1.5171   -2.4128    0.2212 H   0  0  0  0  0  0  0  0  0  0  0  0
    0.2522   -3.9173    0.0643 H   0  0  0  0  0  0  0  0  0  0  0  0
    2.6804   -4.5702   -0.0186 H   0  0  0  0  0  0  0  0  0  0  0  0
    5.2491   -3.2935   -0.0456 H   0  0  0  0  0  0  0  0  0  0  0  0
    6.0878    0.9968   -1.3142 H   0  0  0  0  0  0  0  0  0  0  0  0
    8.4729    1.5716   -1.4652 H   0  0  0  0  0  0  0  0  0  0  0  0
    9.5099   -1.9345    0.7700 H   0  0  0  0  0  0  0  0  0  0  0  0
    4.8637    1.0120    2.2767 H   0  0  0  0  0  0  0  0  0  0  0  0
    4.9668    3.4681    2.6363 H   0  0  0  0  0  0  0  0  0  0  0  0
    3.2299    4.1363   -1.2297 H   0  0  0  0  0  0  0  0  0  0  0  0
    1.1318    0.3783    0.1808 H   0  0  0  0  0  0  0  0  0  0  0  0
   -5.3993    1.2372    0.3729 H   0  0  0  0  0  0  0  0  0  0  0  0
   -4.8784    0.0593    1.5894 H   0  0  0  0  0  0  0  0  0  0  0  0
   -7.0275   -1.1491    1.4204 H   0  0  0  0  0  0  0  0  0  0  0  0
   -7.3055    0.5492    1.7879 H   0  0  0  0  0  0  0  0  0  0  0  0
  1  2  1  0
  2  3  2  0
  2  4  2  0
  2  5  1  0
  5  6  1  0
  6  7  1  0
  7  8  1  0
  8  9  1  0
  9 10  2  0
  9 11  1  0
 11 12  1  0
 12 13  2  0
 13 14  1  0
 14 15  1  0
 15 16  2  0
 16 17  1  0
 17 18  2  0
 18 19  1  0
 19 20  1  0
 20 21  1  0
 21 22  2  0
 22 23  1  0
 23 24  1  0
 23 25  2  0
 25 26  1  0
 26 27  1  0
 19 28  1  0
 28 29  1  0
 29 30  1  0
 30 31  2  0
 31 32  1  0
 32 33  1  0
 32 34  2  0
 34 35  1  0
 35 36  1  0
 28 37  2  0
 37 38  1  0
  8 39  1  0
 39 40  1  0
 40  5  1  0
 38 14  2  0
 37 17  1  0
 26 20  2  0
 35 29  2  0
  1 41  1  0
  1 42  1  0
  1 43  1  0
  6 44  1  0
  6 45  1  0
  7 46  1  0
  7 47  1  0
 11 48  1  0
 13 49  1  0
 15 50  1  0
 16 51  1  0
 18 52  1  0
 21 53  1  0
 22 54  1  0
 25 55  1  0
 30 56  1  0
 31 57  1  0
 34 58  1  0
 38 59  1  0
 39 60  1  0
 39 61  1  0
 40 62  1  0
 40 63  1  0
M  END
>  <_SMILES>  (34) 
CS(=O)(=O)N1CCN(C(=O)N/N=C/c2ccc3cn(-c4ccc(F)cc4F)c(-c4ccc(F)cc4F)c3c2)CC1

$$$$

     RDKit          3D

 69 73  0  0  0  0  0  0  0  0999 V2000
   -1.5512   -0.1068   -3.8356 C   0  0  0  0  0  0  0  0  0  0  0  0
   -1.6452   -0.4962   -2.3971 C   0  0  0  0  0  0  0  0  0  0  0  0
   -0.5612   -1.0084   -1.6038 C   0  0  0  0  0  0  0  0  0  0  0  0
    0.8235   -1.2489   -2.0328 C   0  0  0  0  0  0  0  0  0  0  0  0
    1.1286   -1.3333   -3.2197 O   0  0  0  0  0  0  0  0  0  0  0  0
    1.7335   -1.3431   -0.9979 N   0  0  0  0  0  0  0  0  0  0  0  0
    3.1750   -1.5565   -1.1883 C   0  0  0  0  0  0  0  0  0  0  0  0
    4.2190   -1.6615   -0.3390 C   0  0  0  0  0  0  0  0  0  0  0  0
    4.4367   -1.6709    1.2188 C   0  0  1  0  0  0  0  0  0  0  0  0
    5.8126   -1.0919    1.5615 C   0  0  0  0  0  0  0  0  0  0  0  0
    3.3068   -1.1213    2.1046 C   0  0  0  0  0  0  0  0  0  0  0  0
    2.7722    0.3138    1.9438 C   0  0  1  0  0  0  0  0  0  0  0  0
    3.7196    1.3515    1.3296 C   0  0  0  0  0  0  0  0  0  0  0  0
    3.0834    2.6393    1.2582 O   0  0  0  0  0  0  0  0  0  0  0  0
    1.8852    2.5489    0.4755 C   0  0  0  0  0  0  0  0  0  0  0  0
    0.9266    1.5456    1.1074 C   0  0  0  0  0  0  0  0  0  0  0  0
    1.5363    0.2462    1.1941 O   0  0  0  0  0  0  0  0  0  0  0  0
    5.2181   -1.8722   -1.4708 C   0  0  0  0  0  0  0  0  0  0  0  0
    4.0277   -1.7598   -2.4265 C   0  0  0  0  0  0  0  0  0  0  0  0
   -1.0937   -1.2644   -0.3526 C   0  0  0  0  0  0  0  0  0  0  0  0
   -2.4110   -0.8749   -0.3333 N   0  0  0  0  0  0  0  0  0  0  0  0
   -3.2696   -0.9995    0.8436 C   0  0  0  0  0  0  0  0  0  0  0  0
   -2.8181   -0.0990    1.9646 C   0  0  0  0  0  0  0  0  0  0  0  0
   -3.0945    1.2768    1.9493 C   0  0  0  0  0  0  0  0  0  0  0  0
   -2.6523    2.0946    2.9913 C   0  0  0  0  0  0  0  0  0  0  0  0
   -1.9334    1.5404    4.0454 C   0  0  0  0  0  0  0  0  0  0  0  0
   -1.5083    2.3305    5.0394 F   0  0  0  0  0  0  0  0  0  0  0  0
   -1.6455    0.1844    4.0802 C   0  0  0  0  0  0  0  0  0  0  0  0
   -2.0899   -0.6225    3.0400 C   0  0  0  0  0  0  0  0  0  0  0  0
   -1.8066   -1.9323    3.0762 F   0  0  0  0  0  0  0  0  0  0  0  0
   -2.7780   -0.4349   -1.5885 C   0  0  0  0  0  0  0  0  0  0  0  0
   -4.1321   -0.0188   -1.9494 C   0  0  0  0  0  0  0  0  0  0  0  0
   -5.0279   -0.9597   -2.4753 C   0  0  0  0  0  0  0  0  0  0  0  0
   -6.3203   -0.5708   -2.8339 C   0  0  0  0  0  0  0  0  0  0  0  0
   -6.7104    0.7553   -2.6706 C   0  0  0  0  0  0  0  0  0  0  0  0
   -7.9514    1.1223   -3.0145 F   0  0  0  0  0  0  0  0  0  0  0  0
   -5.8359    1.7032   -2.1578 C   0  0  0  0  0  0  0  0  0  0  0  0
   -4.5504    1.3103   -1.8030 C   0  0  0  0  0  0  0  0  0  0  0  0
   -3.7144    2.2335   -1.3037 F   0  0  0  0  0  0  0  0  0  0  0  0
   -1.3919   -0.9932   -4.4579 H   0  0  0  0  0  0  0  0  0  0  0  0
   -2.4608    0.3903   -4.1858 H   0  0  0  0  0  0  0  0  0  0  0  0
   -0.7182    0.5863   -3.9914 H   0  0  0  0  0  0  0  0  0  0  0  0
    1.4215   -1.1133   -0.0576 H   0  0  0  0  0  0  0  0  0  0  0  0
    4.5034   -2.7379    1.4810 H   0  0  0  0  0  0  0  0  0  0  0  0
    5.9574   -1.0181    2.6441 H   0  0  0  0  0  0  0  0  0  0  0  0
    6.6049   -1.7416    1.1707 H   0  0  0  0  0  0  0  0  0  0  0  0
    5.9759   -0.1064    1.1182 H   0  0  0  0  0  0  0  0  0  0  0  0
    2.4565   -1.8130    2.0236 H   0  0  0  0  0  0  0  0  0  0  0  0
    3.6519   -1.2152    3.1441 H   0  0  0  0  0  0  0  0  0  0  0  0
    2.4840    0.6628    2.9453 H   0  0  0  0  0  0  0  0  0  0  0  0
    4.6090    1.4738    1.9534 H   0  0  0  0  0  0  0  0  0  0  0  0
    4.0300    1.0810    0.3160 H   0  0  0  0  0  0  0  0  0  0  0  0
    1.4289    3.5423    0.4384 H   0  0  0  0  0  0  0  0  0  0  0  0
    2.1518    2.2516   -0.5454 H   0  0  0  0  0  0  0  0  0  0  0  0
    0.6419    1.8610    2.1171 H   0  0  0  0  0  0  0  0  0  0  0  0
    0.0184    1.4569    0.5057 H   0  0  0  0  0  0  0  0  0  0  0  0
    5.9733   -1.0882   -1.5966 H   0  0  0  0  0  0  0  0  0  0  0  0
    5.7236   -2.8441   -1.4886 H   0  0  0  0  0  0  0  0  0  0  0  0
    3.8262   -2.6675   -3.0061 H   0  0  0  0  0  0  0  0  0  0  0  0
    4.0825   -0.9117   -3.1179 H   0  0  0  0  0  0  0  0  0  0  0  0
   -0.6387   -1.6863    0.5350 H   0  0  0  0  0  0  0  0  0  0  0  0
   -3.2510   -2.0557    1.1373 H   0  0  0  0  0  0  0  0  0  0  0  0
   -4.3035   -0.7665    0.5717 H   0  0  0  0  0  0  0  0  0  0  0  0
   -3.6489    1.7212    1.1258 H   0  0  0  0  0  0  0  0  0  0  0  0
   -2.8610    3.1605    2.9854 H   0  0  0  0  0  0  0  0  0  0  0  0
   -1.0817   -0.2381    4.9033 H   0  0  0  0  0  0  0  0  0  0  0  0
   -4.7182   -1.9936   -2.6144 H   0  0  0  0  0  0  0  0  0  0  0  0
   -7.0218   -1.2910   -3.2443 H   0  0  0  0  0  0  0  0  0  0  0  0
   -6.1490    2.7337   -2.0394 H   0  0  0  0  0  0  0  0  0  0  0  0
  1  2  1  0
  2  3  1  0
  3  4  1  0
  4  5  2  0
  4  6  1  0
  6  7  1  0
  7  8  2  0
  8  9  1  0
  9 10  1  0
  9 11  1  0
 11 12  1  0
 12 13  1  0
 13 14  1  0
 14 15  1  0
 15 16  1  0
 16 17  1  0
  8 18  1  0
 18 19  1  0
  3 20  2  0
 20 21  1  0
 21 22  1  0
 22 23  1  0
 23 24  1  0
 24 25  2  0
 25 26  1  0
 26 27  1  0
 26 28  2  0
 28 29  1  0
 29 30  1  0
 21 31  1  0
 31 32  1  0
 32 33  1  0
 33 34  2  0
 34 35  1  0
 35 36  1  0
 35 37  2  0
 37 38  1  0
 38 39  1  0
 31  2  2  0
 38 32  2  0
 19  7  1  0
 29 23  2  0
 17 12  1  0
  1 40  1  0
  1 41  1  0
  1 42  1  0
  6 43  1  0
  9 44  1  1
 10 45  1  0
 10 46  1  0
 10 47  1  0
 11 48  1  0
 11 49  1  0
 12 50  1  1
 13 51  1  0
 13 52  1  0
 15 53  1  0
 15 54  1  0
 16 55  1  0
 16 56  1  0
 18 57  1  0
 18 58  1  0
 19 59  1  0
 19 60  1  0
 20 61  1  0
 22 62  1  0
 22 63  1  0
 24 64  1  0
 25 65  1  0
 28 66  1  0
 33 67  1  0
 34 68  1  0
 37 69  1  0
M  END
>  <_SMILES>  (35) 
Cc1c(C(=O)NC2=C([C@@H](C)C[C@H]3COCCO3)CC2)cn(Cc2ccc(F)cc2F)c1-c1ccc(F)cc1F

$$$$

     RDKit          3D

 69 73  0  0  0  0  0  0  0  0999 V2000
   -2.2706   -2.7063   -0.7957 C   0  0  0  0  0  0  0  0  0  0  0  0
   -2.1767   -1.3273   -0.2303 C   0  0  0  0  0  0  0  0  0  0  0  0
   -1.0166   -0.4742   -0.2158 C   0  0  0  0  0  0  0  0  0  0  0  0
    0.3594   -0.7010   -0.6720 C   0  0  0  0  0  0  0  0  0  0  0  0
    1.0526    0.2130   -1.1086 O   0  0  0  0  0  0  0  0  0  0  0  0
    0.7989   -2.0004   -0.5204 N   0  0  0  0  0  0  0  0  0  0  0  0
    2.1368   -2.4799   -0.9064 C   0  0  0  0  0  0  0  0  0  0  0  0
    2.6910   -3.7065   -0.8723 C   0  0  0  0  0  0  0  0  0  0  0  0
    3.9769   -3.2657   -1.5291 C   0  0  0  0  0  0  0  0  0  0  0  0
    3.3955   -1.8271   -1.4794 C   0  0  2  0  0  0  0  0  0  0  0  0
    4.1229   -0.7587   -0.6243 C   0  0  1  0  0  0  0  0  0  0  0  0
    4.3641   -1.2178    0.8153 C   0  0  0  0  0  0  0  0  0  0  0  0
    5.4261   -0.3613   -1.3594 C   0  0  0  0  0  0  0  0  0  0  0  0
    6.2430    0.7942   -0.7640 C   0  0  1  0  0  0  0  0  0  0  0  0
    5.4270    2.0654   -0.4833 C   0  0  0  0  0  0  0  0  0  0  0  0
    6.2677    3.1613   -0.0809 O   0  0  0  0  0  0  0  0  0  0  0  0
    7.4516    2.7316    0.6059 C   0  0  0  0  0  0  0  0  0  0  0  0
    7.2592    1.3943    1.3185 C   0  0  0  0  0  0  0  0  0  0  0  0
    6.9380    0.3315    0.4089 O   0  0  0  0  0  0  0  0  0  0  0  0
   -1.4353    0.7313    0.3163 C   0  0  0  0  0  0  0  0  0  0  0  0
   -2.7588    0.6435    0.6594 N   0  0  0  0  0  0  0  0  0  0  0  0
   -3.4987    1.7348    1.2939 C   0  0  0  0  0  0  0  0  0  0  0  0
   -4.4177    2.4475    0.3387 C   0  0  0  0  0  0  0  0  0  0  0  0
   -5.8113    2.3031    0.4302 C   0  0  0  0  0  0  0  0  0  0  0  0
   -6.6478    2.9619   -0.4733 C   0  0  0  0  0  0  0  0  0  0  0  0
   -6.0951    3.7709   -1.4609 C   0  0  0  0  0  0  0  0  0  0  0  0
   -6.9036    4.4023   -2.3219 F   0  0  0  0  0  0  0  0  0  0  0  0
   -4.7228    3.9415   -1.5605 C   0  0  0  0  0  0  0  0  0  0  0  0
   -3.8969    3.2819   -0.6583 C   0  0  0  0  0  0  0  0  0  0  0  0
   -2.5736    3.4764   -0.7394 F   0  0  0  0  0  0  0  0  0  0  0  0
   -3.2253   -0.6223    0.3629 C   0  0  0  0  0  0  0  0  0  0  0  0
   -4.5988   -1.0633    0.6078 C   0  0  0  0  0  0  0  0  0  0  0  0
   -4.9807   -1.4758    1.8916 C   0  0  0  0  0  0  0  0  0  0  0  0
   -6.2898   -1.9002    2.1293 C   0  0  0  0  0  0  0  0  0  0  0  0
   -7.2094   -1.9174    1.0843 C   0  0  0  0  0  0  0  0  0  0  0  0
   -8.4636   -2.3224    1.3205 F   0  0  0  0  0  0  0  0  0  0  0  0
   -6.8488   -1.5227   -0.1960 C   0  0  0  0  0  0  0  0  0  0  0  0
   -5.5443   -1.1012   -0.4273 C   0  0  0  0  0  0  0  0  0  0  0  0
   -5.2073   -0.7202   -1.6685 F   0  0  0  0  0  0  0  0  0  0  0  0
   -1.9811   -3.4448   -0.0416 H   0  0  0  0  0  0  0  0  0  0  0  0
   -3.2870   -2.9402   -1.1263 H   0  0  0  0  0  0  0  0  0  0  0  0
   -1.6196   -2.8185   -1.6683 H   0  0  0  0  0  0  0  0  0  0  0  0
    0.1757   -2.6700   -0.0947 H   0  0  0  0  0  0  0  0  0  0  0  0
    2.3375   -4.6835   -0.5577 H   0  0  0  0  0  0  0  0  0  0  0  0
    4.8921   -3.4380   -0.9541 H   0  0  0  0  0  0  0  0  0  0  0  0
    4.1457   -3.6439   -2.5444 H   0  0  0  0  0  0  0  0  0  0  0  0
    3.2362   -1.4197   -2.4901 H   0  0  0  0  0  0  0  0  0  0  0  0
    3.4790    0.1258   -0.5830 H   0  0  0  0  0  0  0  0  0  0  0  0
    4.7236   -0.3925    1.4359 H   0  0  0  0  0  0  0  0  0  0  0  0
    3.4428   -1.5760    1.2851 H   0  0  0  0  0  0  0  0  0  0  0  0
    5.1023   -2.0239    0.8670 H   0  0  0  0  0  0  0  0  0  0  0  0
    6.0736   -1.2450   -1.4311 H   0  0  0  0  0  0  0  0  0  0  0  0
    5.1654   -0.0857   -2.3900 H   0  0  0  0  0  0  0  0  0  0  0  0
    7.0293    1.0417   -1.4896 H   0  0  0  0  0  0  0  0  0  0  0  0
    4.7068    1.9072    0.3265 H   0  0  0  0  0  0  0  0  0  0  0  0
    4.8743    2.3842   -1.3725 H   0  0  0  0  0  0  0  0  0  0  0  0
    8.2533    2.6576   -0.1373 H   0  0  0  0  0  0  0  0  0  0  0  0
    7.7257    3.5144    1.3196 H   0  0  0  0  0  0  0  0  0  0  0  0
    6.4431    1.4626    2.0465 H   0  0  0  0  0  0  0  0  0  0  0  0
    8.1676    1.1084    1.8570 H   0  0  0  0  0  0  0  0  0  0  0  0
   -0.8779    1.6485    0.4677 H   0  0  0  0  0  0  0  0  0  0  0  0
   -2.7722    2.4416    1.7135 H   0  0  0  0  0  0  0  0  0  0  0  0
   -4.0450    1.3124    2.1445 H   0  0  0  0  0  0  0  0  0  0  0  0
   -6.2552    1.6736    1.1985 H   0  0  0  0  0  0  0  0  0  0  0  0
   -7.7263    2.8492   -0.4153 H   0  0  0  0  0  0  0  0  0  0  0  0
   -4.3003    4.5802   -2.3269 H   0  0  0  0  0  0  0  0  0  0  0  0
   -4.2597   -1.4743    2.7062 H   0  0  0  0  0  0  0  0  0  0  0  0
   -6.5971   -2.2228    3.1197 H   0  0  0  0  0  0  0  0  0  0  0  0
   -7.5701   -1.5428   -1.0043 H   0  0  0  0  0  0  0  0  0  0  0  0
  1  2  1  0
  2  3  1  0
  3  4  1  0
  4  5  2  0
  4  6  1  0
  6  7  1  0
  7  8  2  0
  8  9  1  0
  9 10  1  0
 10 11  1  0
 11 12  1  0
 11 13  1  0
 13 14  1  0
 14 15  1  0
 15 16  1  0
 16 17  1  0
 17 18  1  0
 18 19  1  0
  3 20  2  0
 20 21  1  0
 21 22  1  0
 22 23  1  0
 23 24  1  0
 24 25  2  0
 25 26  1  0
 26 27  1  0
 26 28  2  0
 28 29  1  0
 29 30  1  0
 21 31  1  0
 31 32  1  0
 32 33  1  0
 33 34  2  0
 34 35  1  0
 35 36  1  0
 35 37  2  0
 37 38  1  0
 38 39  1  0
 31  2  2  0
 38 32  2  0
 10  7  1  0
 19 14  1  0
 29 23  2  0
  1 40  1  0
  1 41  1  0
  1 42  1  0
  6 43  1  0
  8 44  1  0
  9 45  1  0
  9 46  1  0
 10 47  1  6
 11 48  1  1
 12 49  1  0
 12 50  1  0
 12 51  1  0
 13 52  1  0
 13 53  1  0
 14 54  1  6
 15 55  1  0
 15 56  1  0
 17 57  1  0
 17 58  1  0
 18 59  1  0
 18 60  1  0
 20 61  1  0
 22 62  1  0
 22 63  1  0
 24 64  1  0
 25 65  1  0
 28 66  1  0
 33 67  1  0
 34 68  1  0
 37 69  1  0
M  END
>  <_SMILES>  (36) 
Cc1c(C(=O)NC2=CC[C@@H]2[C@@H](C)C[C@H]2COCCO2)cn(Cc2ccc(F)cc2F)c1-c1ccc(F)cc1F

$$$$

     RDKit          3D

 69 73  0  0  0  0  0  0  0  0999 V2000
   -0.1615   -0.0600    1.0491 C   0  0  0  0  0  0  0  0  0  0  0  0
   -1.2839   -0.4668    0.1522 C   0  0  0  0  0  0  0  0  0  0  0  0
   -1.2794   -0.4894   -1.2878 C   0  0  0  0  0  0  0  0  0  0  0  0
   -0.2152   -0.1864   -2.2515 C   0  0  0  0  0  0  0  0  0  0  0  0
   -0.4606    0.3150   -3.3439 O   0  0  0  0  0  0  0  0  0  0  0  0
    1.0430   -0.5628   -1.8230 N   0  0  0  0  0  0  0  0  0  0  0  0
    2.2967   -0.3365   -2.5651 C   0  0  0  0  0  0  0  0  0  0  0  0
    2.6058    0.2521   -3.7349 C   0  0  0  0  0  0  0  0  0  0  0  0
    4.0881    0.0034   -3.6075 C   0  0  0  0  0  0  0  0  0  0  0  0
    3.7502   -0.7017   -2.2675 C   0  0  1  0  0  0  0  0  0  0  0  0
    4.3483   -0.1913   -0.9346 C   0  0  1  0  0  0  0  0  0  0  0  0
    5.8347   -0.5593   -0.9086 C   0  0  0  0  0  0  0  0  0  0  0  0
    4.1004    1.3201   -0.7123 C   0  0  0  0  0  0  0  0  0  0  0  0
    4.5440    1.9093    0.6363 C   0  0  1  0  0  0  0  0  0  0  0  0
    3.9988    1.1525    1.8560 C   0  0  0  0  0  0  0  0  0  0  0  0
    4.3005    1.8258    3.0886 O   0  0  0  0  0  0  0  0  0  0  0  0
    5.5038    2.6053    3.0158 C   0  0  0  0  0  0  0  0  0  0  0  0
    6.5022    2.0382    2.0076 C   0  0  0  0  0  0  0  0  0  0  0  0
    5.9782    2.0066    0.6712 O   0  0  0  0  0  0  0  0  0  0  0  0
   -2.5595   -0.8441   -1.6711 C   0  0  0  0  0  0  0  0  0  0  0  0
   -3.3241   -1.0566   -0.5535 N   0  0  0  0  0  0  0  0  0  0  0  0
   -4.7287   -1.4679   -0.6010 C   0  0  0  0  0  0  0  0  0  0  0  0
   -5.6399   -0.4177   -1.1869 C   0  0  0  0  0  0  0  0  0  0  0  0
   -5.5265    0.9458   -0.8699 C   0  0  0  0  0  0  0  0  0  0  0  0
   -6.4192    1.8740   -1.4117 C   0  0  0  0  0  0  0  0  0  0  0  0
   -7.4340    1.4424   -2.2584 C   0  0  0  0  0  0  0  0  0  0  0  0
   -8.2895    2.3359   -2.7714 F   0  0  0  0  0  0  0  0  0  0  0  0
   -7.5782    0.0999   -2.5730 C   0  0  0  0  0  0  0  0  0  0  0  0
   -6.6848   -0.8164   -2.0306 C   0  0  0  0  0  0  0  0  0  0  0  0
   -6.8410   -2.1153   -2.3249 F   0  0  0  0  0  0  0  0  0  0  0  0
   -2.5499   -0.8726    0.5744 C   0  0  0  0  0  0  0  0  0  0  0  0
   -3.0391   -1.0634    1.9397 C   0  0  0  0  0  0  0  0  0  0  0  0
   -2.8825   -2.3093    2.5620 C   0  0  0  0  0  0  0  0  0  0  0  0
   -3.3413   -2.5016    3.8670 C   0  0  0  0  0  0  0  0  0  0  0  0
   -3.9500   -1.4496    4.5454 C   0  0  0  0  0  0  0  0  0  0  0  0
   -4.3878   -1.6407    5.7963 F   0  0  0  0  0  0  0  0  0  0  0  0
   -4.1097   -0.2070    3.9485 C   0  0  0  0  0  0  0  0  0  0  0  0
   -3.6510   -0.0211    2.6493 C   0  0  0  0  0  0  0  0  0  0  0  0
   -3.8078    1.1844    2.0824 F   0  0  0  0  0  0  0  0  0  0  0  0
    0.4816   -0.9187    1.2654 H   0  0  0  0  0  0  0  0  0  0  0  0
   -0.5308    0.3371    1.9999 H   0  0  0  0  0  0  0  0  0  0  0  0
    0.4445    0.7265    0.5885 H   0  0  0  0  0  0  0  0  0  0  0  0
    1.1068   -1.0843   -0.9609 H   0  0  0  0  0  0  0  0  0  0  0  0
    2.0059    0.7449   -4.4962 H   0  0  0  0  0  0  0  0  0  0  0  0
    4.5277   -0.6595   -4.3617 H   0  0  0  0  0  0  0  0  0  0  0  0
    4.7192    0.8948   -3.5386 H   0  0  0  0  0  0  0  0  0  0  0  0
    3.9288   -1.7873   -2.3311 H   0  0  0  0  0  0  0  0  0  0  0  0
    3.8533   -0.7488   -0.1294 H   0  0  0  0  0  0  0  0  0  0  0  0
    5.9833   -1.6107   -1.1790 H   0  0  0  0  0  0  0  0  0  0  0  0
    6.4069    0.0469   -1.6188 H   0  0  0  0  0  0  0  0  0  0  0  0
    6.2634   -0.4242    0.0877 H   0  0  0  0  0  0  0  0  0  0  0  0
    3.0271    1.5223   -0.8102 H   0  0  0  0  0  0  0  0  0  0  0  0
    4.5989    1.8857   -1.5088 H   0  0  0  0  0  0  0  0  0  0  0  0
    4.1762    2.9433    0.6748 H   0  0  0  0  0  0  0  0  0  0  0  0
    4.4376    0.1517    1.9304 H   0  0  0  0  0  0  0  0  0  0  0  0
    2.9114    1.0427    1.7989 H   0  0  0  0  0  0  0  0  0  0  0  0
    5.9416    2.6369    4.0180 H   0  0  0  0  0  0  0  0  0  0  0  0
    5.2181    3.6267    2.7406 H   0  0  0  0  0  0  0  0  0  0  0  0
    7.4190    2.6350    1.9922 H   0  0  0  0  0  0  0  0  0  0  0  0
    6.7726    1.0109    2.2763 H   0  0  0  0  0  0  0  0  0  0  0  0
   -2.9791   -0.9526   -2.6647 H   0  0  0  0  0  0  0  0  0  0  0  0
   -4.7417   -2.3875   -1.1987 H   0  0  0  0  0  0  0  0  0  0  0  0
   -5.0693   -1.7223    0.4066 H   0  0  0  0  0  0  0  0  0  0  0  0
   -4.7385    1.3019   -0.2088 H   0  0  0  0  0  0  0  0  0  0  0  0
   -6.3270    2.9305   -1.1774 H   0  0  0  0  0  0  0  0  0  0  0  0
   -8.3760   -0.2289   -3.2280 H   0  0  0  0  0  0  0  0  0  0  0  0
   -2.4027   -3.1308    2.0343 H   0  0  0  0  0  0  0  0  0  0  0  0
   -3.2263   -3.4627    4.3594 H   0  0  0  0  0  0  0  0  0  0  0  0
   -4.5822    0.6062    4.4866 H   0  0  0  0  0  0  0  0  0  0  0  0
  1  2  1  0
  2  3  1  0
  3  4  1  0
  4  5  2  0
  4  6  1  0
  6  7  1  0
  7  8  2  0
  8  9  1  0
  9 10  1  0
 10 11  1  0
 11 12  1  0
 11 13  1  0
 13 14  1  0
 14 15  1  0
 15 16  1  0
 16 17  1  0
 17 18  1  0
 18 19  1  0
  3 20  2  0
 20 21  1  0
 21 22  1  0
 22 23  1  0
 23 24  1  0
 24 25  2  0
 25 26  1  0
 26 27  1  0
 26 28  2  0
 28 29  1  0
 29 30  1  0
 21 31  1  0
 31 32  1  0
 32 33  1  0
 33 34  2  0
 34 35  1  0
 35 36  1  0
 35 37  2  0
 37 38  1  0
 38 39  1  0
 31  2  2  0
 38 32  2  0
 10  7  1  0
 19 14  1  0
 29 23  2  0
  1 40  1  0
  1 41  1  0
  1 42  1  0
  6 43  1  0
  8 44  1  0
  9 45  1  0
  9 46  1  0
 10 47  1  6
 11 48  1  1
 12 49  1  0
 12 50  1  0
 12 51  1  0
 13 52  1  0
 13 53  1  0
 14 54  1  1
 15 55  1  0
 15 56  1  0
 17 57  1  0
 17 58  1  0
 18 59  1  0
 18 60  1  0
 20 61  1  0
 22 62  1  0
 22 63  1  0
 24 64  1  0
 25 65  1  0
 28 66  1  0
 33 67  1  0
 34 68  1  0
 37 69  1  0
M  END
>  <_SMILES>  (37) 
Cc1c(C(=O)NC2=CC[C@H]2[C@@H](C)C[C@H]2COCCO2)cn(Cc2ccc(F)cc2F)c1-c1ccc(F)cc1F

$$$$

     RDKit          3D

 64 69  0  0  0  0  0  0  0  0999 V2000
   -0.3516    2.3356    0.4665 C   0  0  0  0  0  0  0  0  0  0  0  0
   -1.0696    1.0895    0.0653 C   0  0  0  0  0  0  0  0  0  0  0  0
   -0.5185   -0.2362   -0.0321 C   0  0  0  0  0  0  0  0  0  0  0  0
    0.8450   -0.7346    0.1734 C   0  0  0  0  0  0  0  0  0  0  0  0
    1.0650   -1.8870    0.5284 O   0  0  0  0  0  0  0  0  0  0  0  0
    1.8321    0.1780   -0.1275 N   0  0  0  0  0  0  0  0  0  0  0  0
    3.2689   -0.1048   -0.1056 C   0  0  2  0  0  0  0  0  0  0  0  0
    3.7502   -0.5596    1.2958 C   0  0  0  0  0  0  0  0  0  0  0  0
    5.2711   -0.7960    1.2962 C   0  0  1  0  0  0  0  0  0  0  0  0
    5.6155   -1.8738    0.2540 C   0  0  0  0  0  0  0  0  0  0  0  0
    5.1759   -1.4157   -1.1471 C   0  0  2  0  0  0  0  0  0  0  0  0
    5.8938   -0.1030   -1.4991 C   0  0  0  0  0  0  0  0  0  0  0  0
    5.5463    0.9794   -0.4650 C   0  0  2  0  0  0  0  0  0  0  0  0
    5.9892    0.5120    0.9299 C   0  0  0  0  0  0  0  0  0  0  0  0
    4.0260    1.2038   -0.4618 C   0  0  0  0  0  0  0  0  0  0  0  0
    3.6550   -1.1805   -1.1500 C   0  0  0  0  0  0  0  0  0  0  0  0
   -1.5739   -1.0660   -0.3636 C   0  0  0  0  0  0  0  0  0  0  0  0
   -2.7196   -0.3224   -0.4837 N   0  0  0  0  0  0  0  0  0  0  0  0
   -4.0185   -0.8805   -0.8602 C   0  0  0  0  0  0  0  0  0  0  0  0
   -4.5215   -1.8938    0.1359 C   0  0  0  0  0  0  0  0  0  0  0  0
   -4.3397   -3.2703   -0.0777 C   0  0  0  0  0  0  0  0  0  0  0  0
   -4.7982   -4.1953    0.8627 C   0  0  0  0  0  0  0  0  0  0  0  0
   -5.4382   -3.7481    2.0138 C   0  0  0  0  0  0  0  0  0  0  0  0
   -5.8787   -4.6398    2.9107 F   0  0  0  0  0  0  0  0  0  0  0  0
   -5.6306   -2.3945    2.2449 C   0  0  0  0  0  0  0  0  0  0  0  0
   -5.1703   -1.4798    1.3050 C   0  0  0  0  0  0  0  0  0  0  0  0
   -5.3735   -0.1751    1.5297 F   0  0  0  0  0  0  0  0  0  0  0  0
   -2.4197    1.0091   -0.2757 C   0  0  0  0  0  0  0  0  0  0  0  0
   -3.3936    2.0921   -0.3904 C   0  0  0  0  0  0  0  0  0  0  0  0
   -4.1142    2.5177    0.7322 C   0  0  0  0  0  0  0  0  0  0  0  0
   -5.0399    3.5560    0.6185 C   0  0  0  0  0  0  0  0  0  0  0  0
   -5.2350    4.1672   -0.6147 C   0  0  0  0  0  0  0  0  0  0  0  0
   -6.1228    5.1641   -0.7238 F   0  0  0  0  0  0  0  0  0  0  0  0
   -4.5216    3.7614   -1.7372 C   0  0  0  0  0  0  0  0  0  0  0  0
   -3.5966    2.7222   -1.6254 C   0  0  0  0  0  0  0  0  0  0  0  0
    0.4078    2.1244    1.2258 H   0  0  0  0  0  0  0  0  0  0  0  0
   -1.0352    3.0739    0.8971 H   0  0  0  0  0  0  0  0  0  0  0  0
    0.1345    2.7897   -0.4026 H   0  0  0  0  0  0  0  0  0  0  0  0
    1.5304    0.9802   -0.6613 H   0  0  0  0  0  0  0  0  0  0  0  0
    3.4888    0.1963    2.0480 H   0  0  0  0  0  0  0  0  0  0  0  0
    3.2499   -1.4844    1.6045 H   0  0  0  0  0  0  0  0  0  0  0  0
    5.5923   -1.1271    2.2901 H   0  0  0  0  0  0  0  0  0  0  0  0
    5.1194   -2.8173    0.5126 H   0  0  0  0  0  0  0  0  0  0  0  0
    6.6949   -2.0693    0.2616 H   0  0  0  0  0  0  0  0  0  0  0  0
    5.4312   -2.1850   -1.8844 H   0  0  0  0  0  0  0  0  0  0  0  0
    6.9786   -0.2639   -1.5231 H   0  0  0  0  0  0  0  0  0  0  0  0
    5.5989    0.2281   -2.5024 H   0  0  0  0  0  0  0  0  0  0  0  0
    6.0580    1.9137   -0.7215 H   0  0  0  0  0  0  0  0  0  0  0  0
    5.7629    1.2853    1.6742 H   0  0  0  0  0  0  0  0  0  0  0  0
    7.0755    0.3612    0.9476 H   0  0  0  0  0  0  0  0  0  0  0  0
    3.7687    1.9953    0.2549 H   0  0  0  0  0  0  0  0  0  0  0  0
    3.7062    1.5686   -1.4473 H   0  0  0  0  0  0  0  0  0  0  0  0
    3.3272   -0.8697   -2.1507 H   0  0  0  0  0  0  0  0  0  0  0  0
    3.1451   -2.1286   -0.9414 H   0  0  0  0  0  0  0  0  0  0  0  0
   -1.5797   -2.1380   -0.5161 H   0  0  0  0  0  0  0  0  0  0  0  0
   -4.7486   -0.0746   -0.9786 H   0  0  0  0  0  0  0  0  0  0  0  0
   -3.8866   -1.3349   -1.8499 H   0  0  0  0  0  0  0  0  0  0  0  0
   -3.8329   -3.6303   -0.9711 H   0  0  0  0  0  0  0  0  0  0  0  0
   -4.6566   -5.2609    0.7079 H   0  0  0  0  0  0  0  0  0  0  0  0
   -6.1316   -2.0554    3.1436 H   0  0  0  0  0  0  0  0  0  0  0  0
   -3.9597    2.0376    1.6961 H   0  0  0  0  0  0  0  0  0  0  0  0
   -5.6070    3.8888    1.4817 H   0  0  0  0  0  0  0  0  0  0  0  0
   -4.6880    4.2572   -2.6879 H   0  0  0  0  0  0  0  0  0  0  0  0
   -3.0328    2.4079   -2.5004 H   0  0  0  0  0  0  0  0  0  0  0  0
  1  2  1  0
  2  3  1  0
  3  4  1  0
  4  5  2  0
  4  6  1  0
  7  6  1  1
  7  8  1  0
  8  9  1  0
  9 10  1  0
 10 11  1  0
 11 12  1  0
 12 13  1  0
 13 14  1  0
 13 15  1  0
 11 16  1  0
  3 17  2  0
 17 18  1  0
 18 19  1  0
 19 20  1  0
 20 21  1  0
 21 22  2  0
 22 23  1  0
 23 24  1  0
 23 25  2  0
 25 26  1  0
 26 27  1  0
 18 28  1  0
 28 29  1  0
 29 30  1  0
 30 31  2  0
 31 32  1  0
 32 33  1  0
 32 34  2  0
 34 35  1  0
 28  2  2  0
 35 29  2  0
 15  7  1  0
 26 20  2  0
 16  7  1  0
 14  9  1  0
  1 36  1  0
  1 37  1  0
  1 38  1  0
  6 39  1  0
  8 40  1  0
  8 41  1  0
  9 42  1  1
 10 43  1  0
 10 44  1  0
 11 45  1  6
 12 46  1  0
 12 47  1  0
 13 48  1  6
 14 49  1  0
 14 50  1  0
 15 51  1  0
 15 52  1  0
 16 53  1  0
 16 54  1  0
 17 55  1  0
 19 56  1  0
 19 57  1  0
 21 58  1  0
 22 59  1  0
 25 60  1  0
 30 61  1  0
 31 62  1  0
 34 63  1  0
 35 64  1  0
M  END
>  <_SMILES>  (38) 
Cc1c(C(=O)N[C@]23C[C@H]4C[C@H](C[C@H](C4)C2)C3)cn(Cc2ccc(F)cc2F)c1-c1ccc(F)cc1

$$$$

     RDKit          3D

 53 56  0  0  0  0  0  0  0  0999 V2000
    1.5021    1.8215   -0.5971 C   0  0  0  0  0  0  0  0  0  0  0  0
    0.5229    0.7655   -0.9867 C   0  0  0  0  0  0  0  0  0  0  0  0
    0.8190   -0.4663   -1.6634 C   0  0  0  0  0  0  0  0  0  0  0  0
    2.1036   -0.9954   -2.1232 C   0  0  0  0  0  0  0  0  0  0  0  0
    2.2286   -1.4119   -3.2736 O   0  0  0  0  0  0  0  0  0  0  0  0
    3.1668   -0.9927   -1.2064 N   0  0  0  0  0  0  0  0  0  0  0  0
    2.9323   -1.2663    0.2139 C   0  0  0  0  0  0  0  0  0  0  0  0
    4.0649   -0.7351    1.0867 C   0  0  0  0  0  0  0  0  0  0  0  0
    5.4192   -1.2453    0.6043 C   0  0  0  0  0  0  0  0  0  0  0  0
    5.6167   -0.9170   -0.8720 C   0  0  0  0  0  0  0  0  0  0  0  0
    4.4591   -1.4381   -1.7182 C   0  0  0  0  0  0  0  0  0  0  0  0
   -0.3932   -1.0900   -1.8907 C   0  0  0  0  0  0  0  0  0  0  0  0
   -1.3907   -0.3418   -1.3205 N   0  0  0  0  0  0  0  0  0  0  0  0
   -2.8046   -0.7205   -1.3506 C   0  0  0  0  0  0  0  0  0  0  0  0
   -3.3450   -1.0594    0.0144 C   0  0  0  0  0  0  0  0  0  0  0  0
   -2.7289   -2.0173    0.8363 C   0  0  0  0  0  0  0  0  0  0  0  0
   -3.2568   -2.3074    2.0961 C   0  0  0  0  0  0  0  0  0  0  0  0
   -4.4031   -1.6509    2.5314 C   0  0  0  0  0  0  0  0  0  0  0  0
   -4.9046   -1.9335    3.7406 F   0  0  0  0  0  0  0  0  0  0  0  0
   -5.0374   -0.7125    1.7314 C   0  0  0  0  0  0  0  0  0  0  0  0
   -4.5058   -0.4290    0.4794 C   0  0  0  0  0  0  0  0  0  0  0  0
   -5.1270    0.4751   -0.2916 F   0  0  0  0  0  0  0  0  0  0  0  0
   -0.8522    0.8043   -0.7684 C   0  0  0  0  0  0  0  0  0  0  0  0
   -1.6398    1.8274   -0.0814 C   0  0  0  0  0  0  0  0  0  0  0  0
   -2.3887    2.7527   -0.8200 C   0  0  0  0  0  0  0  0  0  0  0  0
   -3.1477    3.7223   -0.1610 C   0  0  0  0  0  0  0  0  0  0  0  0
   -3.1508    3.7672    1.2302 C   0  0  0  0  0  0  0  0  0  0  0  0
   -3.8818    4.6987    1.8559 F   0  0  0  0  0  0  0  0  0  0  0  0
   -2.4074    2.8666    1.9797 C   0  0  0  0  0  0  0  0  0  0  0  0
   -1.6533    1.9040    1.3187 C   0  0  0  0  0  0  0  0  0  0  0  0
   -0.9410    1.0348    2.0527 F   0  0  0  0  0  0  0  0  0  0  0  0
    1.0836    2.8205   -0.7578 H   0  0  0  0  0  0  0  0  0  0  0  0
    1.7636    1.7246    0.4612 H   0  0  0  0  0  0  0  0  0  0  0  0
    2.4200    1.7561   -1.1887 H   0  0  0  0  0  0  0  0  0  0  0  0
    1.9836   -0.8525    0.5598 H   0  0  0  0  0  0  0  0  0  0  0  0
    2.8498   -2.3555    0.3208 H   0  0  0  0  0  0  0  0  0  0  0  0
    4.0623    0.3616    1.0593 H   0  0  0  0  0  0  0  0  0  0  0  0
    3.9037   -1.0336    2.1284 H   0  0  0  0  0  0  0  0  0  0  0  0
    6.2212   -0.7927    1.1978 H   0  0  0  0  0  0  0  0  0  0  0  0
    5.4792   -2.3303    0.7524 H   0  0  0  0  0  0  0  0  0  0  0  0
    5.6899    0.1715   -0.9899 H   0  0  0  0  0  0  0  0  0  0  0  0
    6.5604   -1.3446   -1.2278 H   0  0  0  0  0  0  0  0  0  0  0  0
    4.5874   -1.0969   -2.7518 H   0  0  0  0  0  0  0  0  0  0  0  0
    4.4532   -2.5351   -1.7329 H   0  0  0  0  0  0  0  0  0  0  0  0
   -0.6076   -2.0186   -2.4051 H   0  0  0  0  0  0  0  0  0  0  0  0
   -2.9129   -1.5903   -2.0094 H   0  0  0  0  0  0  0  0  0  0  0  0
   -3.3409    0.1104   -1.8214 H   0  0  0  0  0  0  0  0  0  0  0  0
   -1.8280   -2.5325    0.5078 H   0  0  0  0  0  0  0  0  0  0  0  0
   -2.7792   -3.0383    2.7418 H   0  0  0  0  0  0  0  0  0  0  0  0
   -5.9324   -0.2093    2.0771 H   0  0  0  0  0  0  0  0  0  0  0  0
   -2.3820    2.7227   -1.9073 H   0  0  0  0  0  0  0  0  0  0  0  0
   -3.7353    4.4419   -0.7230 H   0  0  0  0  0  0  0  0  0  0  0  0
   -2.4149    2.9112    3.0619 H   0  0  0  0  0  0  0  0  0  0  0  0
  1  2  1  0
  2  3  1  0
  3  4  1  0
  4  5  2  0
  4  6  1  0
  6  7  1  0
  7  8  1  0
  8  9  1  0
  9 10  1  0
 10 11  1  0
  3 12  2  0
 12 13  1  0
 13 14  1  0
 14 15  1  0
 15 16  1  0
 16 17  2  0
 17 18  1  0
 18 19  1  0
 18 20  2  0
 20 21  1  0
 21 22  1  0
 13 23  1  0
 23 24  1  0
 24 25  1  0
 25 26  2  0
 26 27  1  0
 27 28  1  0
 27 29  2  0
 29 30  1  0
 30 31  1  0
 23  2  2  0
 30 24  2  0
 11  6  1  0
 21 15  2  0
  1 32  1  0
  1 33  1  0
  1 34  1  0
  7 35  1  0
  7 36  1  0
  8 37  1  0
  8 38  1  0
  9 39  1  0
  9 40  1  0
 10 41  1  0
 10 42  1  0
 11 43  1  0
 11 44  1  0
 12 45  1  0
 14 46  1  0
 14 47  1  0
 16 48  1  0
 17 49  1  0
 20 50  1  0
 25 51  1  0
 26 52  1  0
 29 53  1  0
M  END
>  <_SMILES>  (39) 
Cc1c(C(=O)N2CCCCC2)cn(Cc2ccc(F)cc2F)c1-c1ccc(F)cc1F

$$$$

     RDKit          3D

 37 39  0  0  0  0  0  0  0  0999 V2000
   -2.2986    2.8567   -0.5922 C   0  0  0  0  0  0  0  0  0  0  0  0
   -1.2706    2.3308    0.3517 C   0  0  0  0  0  0  0  0  0  0  0  0
   -0.5023    3.0929    1.2792 C   0  0  0  0  0  0  0  0  0  0  0  0
   -0.5569    4.5048    1.5111 C   0  0  0  0  0  0  0  0  0  0  0  0
   -0.6042    5.6488    1.7026 N   0  0  0  0  0  0  0  0  0  0  0  0
    0.3364    2.2243    1.9410 C   0  0  0  0  0  0  0  0  0  0  0  0
    0.1277    0.9614    1.4404 N   0  0  0  0  0  0  0  0  0  0  0  0
    0.8479   -0.2248    1.9100 C   0  0  0  0  0  0  0  0  0  0  0  0
    1.7461   -0.8299    0.8595 C   0  0  0  0  0  0  0  0  0  0  0  0
    2.7284   -0.0646    0.2129 C   0  0  0  0  0  0  0  0  0  0  0  0
    3.5566   -0.6412   -0.7515 C   0  0  0  0  0  0  0  0  0  0  0  0
    3.4205   -1.9896   -1.0739 C   0  0  0  0  0  0  0  0  0  0  0  0
    2.4584   -2.7645   -0.4306 C   0  0  0  0  0  0  0  0  0  0  0  0
    1.6289   -2.1903    0.5340 C   0  0  0  0  0  0  0  0  0  0  0  0
   -0.8684    1.0025    0.4804 C   0  0  0  0  0  0  0  0  0  0  0  0
   -1.3278   -0.1691   -0.2663 C   0  0  0  0  0  0  0  0  0  0  0  0
   -2.1820   -1.0994    0.3410 C   0  0  0  0  0  0  0  0  0  0  0  0
   -2.6077   -2.2243   -0.3687 C   0  0  0  0  0  0  0  0  0  0  0  0
   -2.1836   -2.4126   -1.6813 C   0  0  0  0  0  0  0  0  0  0  0  0
   -2.5934   -3.4957   -2.3540 F   0  0  0  0  0  0  0  0  0  0  0  0
   -1.3485   -1.4968   -2.3048 C   0  0  0  0  0  0  0  0  0  0  0  0
   -0.9293   -0.3777   -1.5948 C   0  0  0  0  0  0  0  0  0  0  0  0
   -0.1270    0.5054   -2.2090 F   0  0  0  0  0  0  0  0  0  0  0  0
   -2.7203    3.8027   -0.2385 H   0  0  0  0  0  0  0  0  0  0  0  0
   -1.8525    3.0265   -1.5773 H   0  0  0  0  0  0  0  0  0  0  0  0
   -3.1278    2.1507   -0.7043 H   0  0  0  0  0  0  0  0  0  0  0  0
    1.0726    2.4055    2.7145 H   0  0  0  0  0  0  0  0  0  0  0  0
    0.0892   -0.9337    2.2601 H   0  0  0  0  0  0  0  0  0  0  0  0
    1.4498    0.0617    2.7805 H   0  0  0  0  0  0  0  0  0  0  0  0
    2.8493    0.9917    0.4448 H   0  0  0  0  0  0  0  0  0  0  0  0
    4.3058   -0.0353   -1.2548 H   0  0  0  0  0  0  0  0  0  0  0  0
    4.0643   -2.4355   -1.8275 H   0  0  0  0  0  0  0  0  0  0  0  0
    2.3529   -3.8167   -0.6820 H   0  0  0  0  0  0  0  0  0  0  0  0
    0.8829   -2.8139    1.0219 H   0  0  0  0  0  0  0  0  0  0  0  0
   -2.5218   -0.9489    1.3631 H   0  0  0  0  0  0  0  0  0  0  0  0
   -3.2692   -2.9526    0.0906 H   0  0  0  0  0  0  0  0  0  0  0  0
   -1.0259   -1.6494   -3.3276 H   0  0  0  0  0  0  0  0  0  0  0  0
  1  2  1  0
  2  3  1  0
  3  4  1  0
  4  5  3  0
  3  6  2  0
  6  7  1  0
  7  8  1  0
  8  9  1  0
  9 10  2  0
 10 11  1  0
 11 12  2  0
 12 13  1  0
 13 14  2  0
  7 15  1  0
 15 16  1  0
 16 17  1  0
 17 18  2  0
 18 19  1  0
 19 20  1  0
 19 21  2  0
 21 22  1  0
 22 23  1  0
 15  2  2  0
 22 16  2  0
 14  9  1  0
  1 24  1  0
  1 25  1  0
  1 26  1  0
  6 27  1  0
  8 28  1  0
  8 29  1  0
 10 30  1  0
 11 31  1  0
 12 32  1  0
 13 33  1  0
 14 34  1  0
 17 35  1  0
 18 36  1  0
 21 37  1  0
M  END
>  <_SMILES>  (40) 
Cc1c(C#N)cn(Cc2ccccc2)c1-c1ccc(F)cc1F

$$$$

     RDKit          3D

 65 70  0  0  0  0  0  0  0  0999 V2000
    1.0831   -2.5426    1.5845 C   0  0  0  0  0  0  0  0  0  0  0  0
    1.2056   -1.4590    0.5640 C   0  0  0  0  0  0  0  0  0  0  0  0
    0.1440   -0.5790    0.1477 C   0  0  0  0  0  0  0  0  0  0  0  0
   -1.2399   -0.5694    0.6458 C   0  0  0  0  0  0  0  0  0  0  0  0
   -1.5797   -1.2154    1.6308 O   0  0  0  0  0  0  0  0  0  0  0  0
   -2.1161    0.1995   -0.0932 N   0  0  0  0  0  0  0  0  0  0  0  0
   -3.5541    0.3131    0.1632 C   0  0  2  0  0  0  0  0  0  0  0  0
   -4.2720   -1.0502    0.0064 C   0  0  0  0  0  0  0  0  0  0  0  0
   -5.7873   -0.8923    0.2245 C   0  0  1  0  0  0  0  0  0  0  0  0
   -6.0408   -0.3328    1.6348 C   0  0  0  0  0  0  0  0  0  0  0  0
   -5.3645    1.0401    1.7897 C   0  0  2  0  0  0  0  0  0  0  0  0
   -5.9318    2.0067    0.7387 C   0  0  0  0  0  0  0  0  0  0  0  0
   -5.6725    1.4570   -0.6722 C   0  0  2  0  0  0  0  0  0  0  0  0
   -6.3515    0.0861   -0.8177 C   0  0  0  0  0  0  0  0  0  0  0  0
   -4.1584    1.2939   -0.8790 C   0  0  0  0  0  0  0  0  0  0  0  0
   -3.8486    0.8848    1.5733 C   0  0  0  0  0  0  0  0  0  0  0  0
    0.7004    0.2651   -0.8002 C   0  0  0  0  0  0  0  0  0  0  0  0
    2.0285   -0.0532   -0.9611 N   0  0  0  0  0  0  0  0  0  0  0  0
    2.9197    0.6280   -1.8998 C   0  0  0  0  0  0  0  0  0  0  0  0
    3.8095    1.6414   -1.2233 C   0  0  0  0  0  0  0  0  0  0  0  0
    5.2033    1.4649   -1.2091 C   0  0  0  0  0  0  0  0  0  0  0  0
    6.0374    2.3996   -0.5891 C   0  0  0  0  0  0  0  0  0  0  0  0
    5.4887    3.5268    0.0172 C   0  0  0  0  0  0  0  0  0  0  0  0
    4.1117    3.7089   -0.0003 C   0  0  0  0  0  0  0  0  0  0  0  0
    3.5830    4.7949    0.5787 F   0  0  0  0  0  0  0  0  0  0  0  0
    3.2714    2.7835   -0.6121 C   0  0  0  0  0  0  0  0  0  0  0  0
    2.3506   -1.1215   -0.1514 C   0  0  0  0  0  0  0  0  0  0  0  0
    3.6820   -1.7184   -0.0881 C   0  0  0  0  0  0  0  0  0  0  0  0
    4.0462   -2.7277   -0.9877 C   0  0  0  0  0  0  0  0  0  0  0  0
    5.3217   -3.2947   -0.9319 C   0  0  0  0  0  0  0  0  0  0  0  0
    6.2255   -2.8496    0.0283 C   0  0  0  0  0  0  0  0  0  0  0  0
    7.4816   -3.3723    0.1163 O   0  0  0  0  0  0  0  0  0  0  0  0
    5.8740   -1.8549    0.9335 C   0  0  0  0  0  0  0  0  0  0  0  0
    4.5982   -1.2919    0.8796 C   0  0  0  0  0  0  0  0  0  0  0  0
    0.8843   -2.1130    2.5715 H   0  0  0  0  0  0  0  0  0  0  0  0
    1.9954   -3.1419    1.6588 H   0  0  0  0  0  0  0  0  0  0  0  0
    0.2647   -3.2219    1.3247 H   0  0  0  0  0  0  0  0  0  0  0  0
   -1.7752    0.5527   -0.9738 H   0  0  0  0  0  0  0  0  0  0  0  0
   -3.8821   -1.7827    0.7230 H   0  0  0  0  0  0  0  0  0  0  0  0
   -4.0797   -1.4653   -0.9917 H   0  0  0  0  0  0  0  0  0  0  0  0
   -6.2781   -1.8663    0.1197 H   0  0  0  0  0  0  0  0  0  0  0  0
   -5.6537   -1.0286    2.3893 H   0  0  0  0  0  0  0  0  0  0  0  0
   -7.1195   -0.2398    1.8114 H   0  0  0  0  0  0  0  0  0  0  0  0
   -5.5548    1.4345    2.7942 H   0  0  0  0  0  0  0  0  0  0  0  0
   -5.4673    2.9944    0.8480 H   0  0  0  0  0  0  0  0  0  0  0  0
   -7.0089    2.1422    0.8964 H   0  0  0  0  0  0  0  0  0  0  0  0
   -6.0756    2.1503   -1.4189 H   0  0  0  0  0  0  0  0  0  0  0  0
   -6.1890   -0.3078   -1.8284 H   0  0  0  0  0  0  0  0  0  0  0  0
   -7.4357    0.1891   -0.6867 H   0  0  0  0  0  0  0  0  0  0  0  0
   -3.6664    2.2731   -0.8047 H   0  0  0  0  0  0  0  0  0  0  0  0
   -3.9630    0.9304   -1.8969 H   0  0  0  0  0  0  0  0  0  0  0  0
   -3.4456    0.2322    2.3561 H   0  0  0  0  0  0  0  0  0  0  0  0
   -3.3516    1.8559    1.6978 H   0  0  0  0  0  0  0  0  0  0  0  0
    0.2735    1.0875   -1.3576 H   0  0  0  0  0  0  0  0  0  0  0  0
    2.3000    1.1268   -2.6549 H   0  0  0  0  0  0  0  0  0  0  0  0
    3.4975   -0.1396   -2.4263 H   0  0  0  0  0  0  0  0  0  0  0  0
    5.6521    0.5850   -1.6684 H   0  0  0  0  0  0  0  0  0  0  0  0
    7.1133    2.2432   -0.5765 H   0  0  0  0  0  0  0  0  0  0  0  0
    6.1224    4.2610    0.5037 H   0  0  0  0  0  0  0  0  0  0  0  0
    2.2007    2.9641   -0.5971 H   0  0  0  0  0  0  0  0  0  0  0  0
    3.3334   -3.0789   -1.7299 H   0  0  0  0  0  0  0  0  0  0  0  0
    5.5865   -4.0762   -1.6366 H   0  0  0  0  0  0  0  0  0  0  0  0
    7.5631   -4.0949   -0.5273 H   0  0  0  0  0  0  0  0  0  0  0  0
    6.5869   -1.5203    1.6814 H   0  0  0  0  0  0  0  0  0  0  0  0
    4.3232   -0.5146    1.5891 H   0  0  0  0  0  0  0  0  0  0  0  0
  1  2  1  0
  2  3  1  0
  3  4  1  0
  4  5  2  0
  4  6  1  0
  7  6  1  6
  7  8  1  0
  8  9  1  0
  9 10  1  0
 10 11  1  0
 11 12  1  0
 12 13  1  0
 13 14  1  0
 13 15  1  0
 11 16  1  0
  3 17  2  0
 17 18  1  0
 18 19  1  0
 19 20  1  0
 20 21  2  0
 21 22  1  0
 22 23  2  0
 23 24  1  0
 24 25  1  0
 24 26  2  0
 18 27  1  0
 27 28  1  0
 28 29  1  0
 29 30  2  0
 30 31  1  0
 31 32  1  0
 31 33  2  0
 33 34  1  0
 27  2  2  0
 34 28  2  0
 15  7  1  0
 26 20  1  0
 16  7  1  0
 14  9  1  0
  1 35  1  0
  1 36  1  0
  1 37  1  0
  6 38  1  0
  8 39  1  0
  8 40  1  0
  9 41  1  1
 10 42  1  0
 10 43  1  0
 11 44  1  1
 12 45  1  0
 12 46  1  0
 13 47  1  6
 14 48  1  0
 14 49  1  0
 15 50  1  0
 15 51  1  0
 16 52  1  0
 16 53  1  0
 17 54  1  0
 19 55  1  0
 19 56  1  0
 21 57  1  0
 22 58  1  0
 23 59  1  0
 26 60  1  0
 29 61  1  0
 30 62  1  0
 32 63  1  0
 33 64  1  0
 34 65  1  0
M  END
>  <_SMILES>  (41) 
Cc1c(C(=O)N[C@]23C[C@H]4C[C@H](C[C@H](C4)C2)C3)cn(Cc2cccc(F)c2)c1-c1ccc(O)cc1

$$$$

     RDKit          3D

 66 71  0  0  0  0  0  0  0  0999 V2000
   -0.3009   -3.5698    1.2345 C   0  0  0  0  0  0  0  0  0  0  0  0
   -0.6800   -2.1650    0.9340 C   0  0  0  0  0  0  0  0  0  0  0  0
    0.2014   -1.1025    0.5691 C   0  0  0  0  0  0  0  0  0  0  0  0
    1.6692   -1.1562    0.4084 C   0  0  0  0  0  0  0  0  0  0  0  0
    2.3238   -2.1792    0.5770 O   0  0  0  0  0  0  0  0  0  0  0  0
    2.2052    0.0622    0.0514 N   0  0  0  0  0  0  0  0  0  0  0  0
    3.6158    0.3521   -0.1802 C   0  0  2  0  0  0  0  0  0  0  0  0
    4.1876   -0.4910   -1.3468 C   0  0  0  0  0  0  0  0  0  0  0  0
    5.6622   -0.1322   -1.6020 C   0  0  1  0  0  0  0  0  0  0  0  0
    5.7668    1.3568   -1.9679 C   0  0  0  0  0  0  0  0  0  0  0  0
    5.2247    2.2192   -0.8173 C   0  0  2  0  0  0  0  0  0  0  0  0
    6.0433    1.9447    0.4540 C   0  0  0  0  0  0  0  0  0  0  0  0
    5.9403    0.4591    0.8340 C   0  0  2  0  0  0  0  0  0  0  0  0
    6.4764   -0.3992   -0.3245 C   0  0  0  0  0  0  0  0  0  0  0  0
    4.4658    0.1004    1.0898 C   0  0  0  0  0  0  0  0  0  0  0  0
    3.7550    1.8503   -0.5599 C   0  0  0  0  0  0  0  0  0  0  0  0
   -0.4776    0.0457    0.3638 N   0  0  0  0  0  0  0  0  0  0  0  0
   -1.7627   -0.2823    0.5993 N   0  0  0  0  0  0  0  0  0  0  0  0
   -2.7834    0.7411    0.4447 C   0  0  0  0  0  0  0  0  0  0  0  0
   -3.3267    0.7812   -0.9799 C   0  0  0  0  0  0  0  0  0  0  0  0
   -4.4666    1.7603   -1.1048 C   0  0  0  0  0  0  0  0  0  0  0  0
   -5.7765    1.3611   -0.8048 C   0  0  0  0  0  0  0  0  0  0  0  0
   -6.8299    2.2715   -0.8969 C   0  0  0  0  0  0  0  0  0  0  0  0
   -6.5835    3.5872   -1.2850 C   0  0  0  0  0  0  0  0  0  0  0  0
   -5.2836    3.9944   -1.5802 C   0  0  0  0  0  0  0  0  0  0  0  0
   -4.2280    3.0861   -1.4887 C   0  0  0  0  0  0  0  0  0  0  0  0
   -1.9456   -1.5992    0.9443 C   0  0  0  0  0  0  0  0  0  0  0  0
   -3.2436   -2.2003    1.2233 C   0  0  0  0  0  0  0  0  0  0  0  0
   -3.9167   -2.9132    0.2252 C   0  0  0  0  0  0  0  0  0  0  0  0
   -5.1665   -3.4774    0.4860 C   0  0  0  0  0  0  0  0  0  0  0  0
   -5.7458   -3.3366    1.7464 C   0  0  0  0  0  0  0  0  0  0  0  0
   -5.0753   -2.6360    2.7484 C   0  0  0  0  0  0  0  0  0  0  0  0
   -3.8255   -2.0708    2.4890 C   0  0  0  0  0  0  0  0  0  0  0  0
    0.4112   -3.6045    2.0652 H   0  0  0  0  0  0  0  0  0  0  0  0
   -1.1679   -4.1751    1.5161 H   0  0  0  0  0  0  0  0  0  0  0  0
    0.1614   -4.0359    0.3585 H   0  0  0  0  0  0  0  0  0  0  0  0
    1.5104    0.8008   -0.0393 H   0  0  0  0  0  0  0  0  0  0  0  0
    3.5990   -0.3225   -2.2582 H   0  0  0  0  0  0  0  0  0  0  0  0
    4.1132   -1.5629   -1.1280 H   0  0  0  0  0  0  0  0  0  0  0  0
    6.0533   -0.7425   -2.4237 H   0  0  0  0  0  0  0  0  0  0  0  0
    6.8117    1.6198   -2.1734 H   0  0  0  0  0  0  0  0  0  0  0  0
    5.2014    1.5579   -2.8861 H   0  0  0  0  0  0  0  0  0  0  0  0
    5.2992    3.2796   -1.0832 H   0  0  0  0  0  0  0  0  0  0  0  0
    5.6768    2.5688    1.2783 H   0  0  0  0  0  0  0  0  0  0  0  0
    7.0930    2.2179    0.2902 H   0  0  0  0  0  0  0  0  0  0  0  0
    6.5285    0.2679    1.7384 H   0  0  0  0  0  0  0  0  0  0  0  0
    6.4210   -1.4623   -0.0601 H   0  0  0  0  0  0  0  0  0  0  0  0
    7.5345   -0.1698   -0.5010 H   0  0  0  0  0  0  0  0  0  0  0  0
    4.0771    0.6937    1.9279 H   0  0  0  0  0  0  0  0  0  0  0  0
    4.4018   -0.9489    1.4015 H   0  0  0  0  0  0  0  0  0  0  0  0
    3.1563    2.0702   -1.4541 H   0  0  0  0  0  0  0  0  0  0  0  0
    3.3500    2.4821    0.2420 H   0  0  0  0  0  0  0  0  0  0  0  0
   -3.5744    0.5457    1.1764 H   0  0  0  0  0  0  0  0  0  0  0  0
   -2.3307    1.7017    0.7206 H   0  0  0  0  0  0  0  0  0  0  0  0
   -3.6714   -0.2113   -1.2962 H   0  0  0  0  0  0  0  0  0  0  0  0
   -2.5283    1.0490   -1.6842 H   0  0  0  0  0  0  0  0  0  0  0  0
   -5.9843    0.3379   -0.4974 H   0  0  0  0  0  0  0  0  0  0  0  0
   -7.8434    1.9543   -0.6655 H   0  0  0  0  0  0  0  0  0  0  0  0
   -7.4046    4.2956   -1.3572 H   0  0  0  0  0  0  0  0  0  0  0  0
   -5.0918    5.0208   -1.8820 H   0  0  0  0  0  0  0  0  0  0  0  0
   -3.2189    3.4202   -1.7204 H   0  0  0  0  0  0  0  0  0  0  0  0
   -3.4705   -3.0333   -0.7595 H   0  0  0  0  0  0  0  0  0  0  0  0
   -5.6853   -4.0309   -0.2926 H   0  0  0  0  0  0  0  0  0  0  0  0
   -6.7174   -3.7797    1.9504 H   0  0  0  0  0  0  0  0  0  0  0  0
   -5.5232   -2.5338    3.7336 H   0  0  0  0  0  0  0  0  0  0  0  0
   -3.3072   -1.5329    3.2796 H   0  0  0  0  0  0  0  0  0  0  0  0
  1  2  1  0
  2  3  1  0
  3  4  1  0
  4  5  2  0
  4  6  1  0
  7  6  1  1
  7  8  1  0
  8  9  1  0
  9 10  1  0
 10 11  1  0
 11 12  1  0
 12 13  1  0
 13 14  1  0
 13 15  1  0
 11 16  1  0
  3 17  2  0
 17 18  1  0
 18 19  1  0
 19 20  1  0
 20 21  1  0
 21 22  2  0
 22 23  1  0
 23 24  2  0
 24 25  1  0
 25 26  2  0
 18 27  1  0
 27 28  1  0
 28 29  2  0
 29 30  1  0
 30 31  2  0
 31 32  1  0
 32 33  2  0
 27  2  2  0
 33 28  1  0
 15  7  1  0
 26 21  1  0
 16  7  1  0
 14  9  1  0
  1 34  1  0
  1 35  1  0
  1 36  1  0
  6 37  1  0
  8 38  1  0
  8 39  1  0
  9 40  1  6
 10 41  1  0
 10 42  1  0
 11 43  1  6
 12 44  1  0
 12 45  1  0
 13 46  1  1
 14 47  1  0
 14 48  1  0
 15 49  1  0
 15 50  1  0
 16 51  1  0
 16 52  1  0
 19 53  1  0
 19 54  1  0
 20 55  1  0
 20 56  1  0
 22 57  1  0
 23 58  1  0
 24 59  1  0
 25 60  1  0
 26 61  1  0
 29 62  1  0
 30 63  1  0
 31 64  1  0
 32 65  1  0
 33 66  1  0
M  END
>  <_SMILES>  (42) 
Cc1c(C(=O)N[C@]23C[C@H]4C[C@H](C[C@H](C4)C2)C3)nn(CCc2ccccc2)c1-c1ccccc1

$$$$

     RDKit          3D

 66 72  0  0  0  0  0  0  0  0999 V2000
   -0.3685    2.6389    0.1805 C   0  0  0  0  0  0  0  0  0  0  0  0
    0.5859    1.6046    0.6584 C   0  0  0  0  0  0  0  0  0  0  0  0
    0.2833    0.3828    1.3436 C   0  0  0  0  0  0  0  0  0  0  0  0
   -1.0432   -0.1656    1.6935 C   0  0  0  0  0  0  0  0  0  0  0  0
   -1.2806   -0.6987    2.7724 O   0  0  0  0  0  0  0  0  0  0  0  0
   -1.9765   -0.0451    0.6764 N   0  0  0  0  0  0  0  0  0  0  0  0
   -3.3284   -0.6071    0.7166 C   0  0  2  0  0  0  0  0  0  0  0  0
   -4.1608   -0.0369    1.8932 C   0  0  0  0  0  0  0  0  0  0  0  0
   -5.5904   -0.6069    1.8723 C   0  0  1  0  0  0  0  0  0  0  0  0
   -6.2739   -0.2176    0.5525 C   0  0  0  0  0  0  0  0  0  0  0  0
   -5.4813   -0.7853   -0.6347 C   0  0  2  0  0  0  0  0  0  0  0  0
   -5.4207   -2.3167   -0.5214 C   0  0  0  0  0  0  0  0  0  0  0  0
   -4.7329   -2.7194    0.7928 C   0  0  2  0  0  0  0  0  0  0  0  0
   -5.5248   -2.1402    1.9775 C   0  0  0  0  0  0  0  0  0  0  0  0
   -3.3023   -2.1522    0.8129 C   0  0  0  0  0  0  0  0  0  0  0  0
   -4.0523   -0.2206   -0.6023 C   0  0  0  0  0  0  0  0  0  0  0  0
    1.4088   -0.2784    1.6605 N   0  0  0  0  0  0  0  0  0  0  0  0
    2.4069    0.4793    1.1670 N   0  0  0  0  0  0  0  0  0  0  0  0
    3.7850    0.0331    1.3512 C   0  0  0  0  0  0  0  0  0  0  0  0
    4.3578   -0.5816    0.0951 C   0  0  0  0  0  0  0  0  0  0  0  0
    5.4437    0.0364   -0.5696 C   0  0  0  0  0  0  0  0  0  0  0  0
    5.9850   -0.5165   -1.7345 C   0  0  0  0  0  0  0  0  0  0  0  0
    5.4293   -1.6843   -2.2081 C   0  0  0  0  0  0  0  0  0  0  0  0
    4.3786   -2.2974   -1.5685 C   0  0  0  0  0  0  0  0  0  0  0  0
    3.8231   -1.7764   -0.4191 C   0  0  0  0  0  0  0  0  0  0  0  0
    3.9808   -3.4350   -2.1983 O   0  0  0  0  0  0  0  0  0  0  0  0
    4.9075   -3.4719   -3.3026 C   0  0  0  0  0  0  0  0  0  0  0  0
    5.8247   -2.3582   -3.3210 O   0  0  0  0  0  0  0  0  0  0  0  0
    1.9692    1.6325    0.5600 C   0  0  0  0  0  0  0  0  0  0  0  0
    2.8464    2.6283   -0.0406 C   0  0  0  0  0  0  0  0  0  0  0  0
    3.1143    2.5922   -1.4131 C   0  0  0  0  0  0  0  0  0  0  0  0
    3.9615    3.5406   -1.9884 C   0  0  0  0  0  0  0  0  0  0  0  0
    4.5378    4.5327   -1.1962 C   0  0  0  0  0  0  0  0  0  0  0  0
    4.2665    4.5797    0.1709 C   0  0  0  0  0  0  0  0  0  0  0  0
    3.4209    3.6308    0.7482 C   0  0  0  0  0  0  0  0  0  0  0  0
   -0.7376    2.3822   -0.8174 H   0  0  0  0  0  0  0  0  0  0  0  0
    0.1037    3.6249    0.1256 H   0  0  0  0  0  0  0  0  0  0  0  0
   -1.2246    2.7267    0.8569 H   0  0  0  0  0  0  0  0  0  0  0  0
   -1.5926    0.1657   -0.2353 H   0  0  0  0  0  0  0  0  0  0  0  0
   -3.7001   -0.2786    2.8576 H   0  0  0  0  0  0  0  0  0  0  0  0
   -4.1939    1.0590    1.8353 H   0  0  0  0  0  0  0  0  0  0  0  0
   -6.1607   -0.2028    2.7161 H   0  0  0  0  0  0  0  0  0  0  0  0
   -7.3016   -0.6008    0.5350 H   0  0  0  0  0  0  0  0  0  0  0  0
   -6.3398    0.8744    0.4722 H   0  0  0  0  0  0  0  0  0  0  0  0
   -5.9697   -0.5031   -1.5740 H   0  0  0  0  0  0  0  0  0  0  0  0
   -4.8727   -2.7347   -1.3748 H   0  0  0  0  0  0  0  0  0  0  0  0
   -6.4339   -2.7355   -0.5577 H   0  0  0  0  0  0  0  0  0  0  0  0
   -4.6972   -3.8118    0.8708 H   0  0  0  0  0  0  0  0  0  0  0  0
   -6.5392   -2.5576    1.9884 H   0  0  0  0  0  0  0  0  0  0  0  0
   -5.0509   -2.4312    2.9231 H   0  0  0  0  0  0  0  0  0  0  0  0
   -2.7223   -2.5725   -0.0191 H   0  0  0  0  0  0  0  0  0  0  0  0
   -2.8003   -2.4780    1.7317 H   0  0  0  0  0  0  0  0  0  0  0  0
   -4.0821    0.8721   -0.7098 H   0  0  0  0  0  0  0  0  0  0  0  0
   -3.4888   -0.5972   -1.4666 H   0  0  0  0  0  0  0  0  0  0  0  0
    3.8014   -0.7003    2.1665 H   0  0  0  0  0  0  0  0  0  0  0  0
    4.3693    0.8968    1.6868 H   0  0  0  0  0  0  0  0  0  0  0  0
    5.8656    0.9637   -0.1847 H   0  0  0  0  0  0  0  0  0  0  0  0
    6.8129   -0.0428   -2.2495 H   0  0  0  0  0  0  0  0  0  0  0  0
    2.9914   -2.2796    0.0665 H   0  0  0  0  0  0  0  0  0  0  0  0
    5.4858   -4.4014   -3.2446 H   0  0  0  0  0  0  0  0  0  0  0  0
    4.3372   -3.4710   -4.2387 H   0  0  0  0  0  0  0  0  0  0  0  0
    2.6744    1.8183   -2.0383 H   0  0  0  0  0  0  0  0  0  0  0  0
    4.1714    3.5039   -3.0543 H   0  0  0  0  0  0  0  0  0  0  0  0
    5.1955    5.2727   -1.6455 H   0  0  0  0  0  0  0  0  0  0  0  0
    4.7100    5.3579    0.7868 H   0  0  0  0  0  0  0  0  0  0  0  0
    3.2091    3.6807    1.8139 H   0  0  0  0  0  0  0  0  0  0  0  0
  1  2  1  0
  2  3  1  0
  3  4  1  0
  4  5  2  0
  4  6  1  0
  7  6  1  6
  7  8  1  0
  8  9  1  0
  9 10  1  0
 10 11  1  0
 11 12  1  0
 12 13  1  0
 13 14  1  0
 13 15  1  0
 11 16  1  0
  3 17  2  0
 17 18  1  0
 18 19  1  0
 19 20  1  0
 20 21  1  0
 21 22  2  0
 22 23  1  0
 23 24  2  0
 24 25  1  0
 24 26  1  0
 26 27  1  0
 27 28  1  0
 18 29  1  0
 29 30  1  0
 30 31  2  0
 31 32  1  0
 32 33  2  0
 33 34  1  0
 34 35  2  0
 29  2  2  0
 35 30  1  0
 15  7  1  0
 25 20  2  0
 16  7  1  0
 28 23  1  0
 14  9  1  0
  1 36  1  0
  1 37  1  0
  1 38  1  0
  6 39  1  0
  8 40  1  0
  8 41  1  0
  9 42  1  1
 10 43  1  0
 10 44  1  0
 11 45  1  6
 12 46  1  0
 12 47  1  0
 13 48  1  1
 14 49  1  0
 14 50  1  0
 15 51  1  0
 15 52  1  0
 16 53  1  0
 16 54  1  0
 19 55  1  0
 19 56  1  0
 21 57  1  0
 22 58  1  0
 25 59  1  0
 27 60  1  0
 27 61  1  0
 31 62  1  0
 32 63  1  0
 33 64  1  0
 34 65  1  0
 35 66  1  0
M  END
>  <_SMILES>  (43) 
Cc1c(C(=O)N[C@]23C[C@H]4C[C@H](C[C@H](C4)C2)C3)nn(Cc2ccc3c(c2)OCO3)c1-c1ccccc1

$$$$

     RDKit          3D

 44 46  0  0  0  0  0  0  0  0999 V2000
    0.5159    2.9214    1.2452 C   0  0  0  0  0  0  0  0  0  0  0  0
    0.3297    1.5608    0.6706 C   0  0  0  0  0  0  0  0  0  0  0  0
    1.3207    0.7836    0.0165 C   0  0  0  0  0  0  0  0  0  0  0  0
    2.7407    1.1272   -0.2082 C   0  0  0  0  0  0  0  0  0  0  0  0
    3.2408    2.1761    0.1882 O   0  0  0  0  0  0  0  0  0  0  0  0
    3.4105    0.1291   -0.9043 N   0  0  0  0  0  0  0  0  0  0  0  0
    4.7767    0.2365   -1.2175 N   0  0  0  0  0  0  0  0  0  0  0  0
    5.5387   -0.8431   -0.5929 C   0  0  0  0  0  0  0  0  0  0  0  0
    4.9762    0.2574   -2.6653 C   0  0  0  0  0  0  0  0  0  0  0  0
    0.8099   -0.3742   -0.4349 N   0  0  0  0  0  0  0  0  0  0  0  0
   -0.4863   -0.3991   -0.0115 N   0  0  0  0  0  0  0  0  0  0  0  0
   -1.2491   -1.5908   -0.2530 C   0  0  0  0  0  0  0  0  0  0  0  0
   -2.4705   -1.8522    0.3804 C   0  0  0  0  0  0  0  0  0  0  0  0
   -3.1742   -3.0335    0.1099 C   0  0  0  0  0  0  0  0  0  0  0  0
   -2.6597   -3.9655   -0.7864 C   0  0  0  0  0  0  0  0  0  0  0  0
   -3.5293   -5.4127   -1.1124 Cl  0  0  0  0  0  0  0  0  0  0  0  0
   -1.4406   -3.7325   -1.4126 C   0  0  0  0  0  0  0  0  0  0  0  0
   -0.7362   -2.5543   -1.1439 C   0  0  0  0  0  0  0  0  0  0  0  0
   -0.8323    0.7988    0.6163 C   0  0  0  0  0  0  0  0  0  0  0  0
   -2.1681    1.1998    1.0517 C   0  0  0  0  0  0  0  0  0  0  0  0
   -2.4631    1.3051    2.4173 C   0  0  0  0  0  0  0  0  0  0  0  0
   -3.7355    1.7004    2.8335 C   0  0  0  0  0  0  0  0  0  0  0  0
   -4.7163    2.0013    1.8892 C   0  0  0  0  0  0  0  0  0  0  0  0
   -4.4257    1.9133    0.5283 C   0  0  0  0  0  0  0  0  0  0  0  0
   -3.1540    1.5187    0.1091 C   0  0  0  0  0  0  0  0  0  0  0  0
   -0.4228    3.3497    1.6076 H   0  0  0  0  0  0  0  0  0  0  0  0
    0.9157    3.6049    0.4891 H   0  0  0  0  0  0  0  0  0  0  0  0
    1.2142    2.8850    2.0875 H   0  0  0  0  0  0  0  0  0  0  0  0
    2.8646   -0.6922   -1.1608 H   0  0  0  0  0  0  0  0  0  0  0  0
    6.6097   -0.7247   -0.7909 H   0  0  0  0  0  0  0  0  0  0  0  0
    5.2254   -1.8299   -0.9533 H   0  0  0  0  0  0  0  0  0  0  0  0
    5.4123   -0.8205    0.4955 H   0  0  0  0  0  0  0  0  0  0  0  0
    6.0354    0.3983   -2.9072 H   0  0  0  0  0  0  0  0  0  0  0  0
    4.4333    1.0970   -3.1141 H   0  0  0  0  0  0  0  0  0  0  0  0
    4.6306   -0.6673   -3.1417 H   0  0  0  0  0  0  0  0  0  0  0  0
   -2.9031   -1.1872    1.1179 H   0  0  0  0  0  0  0  0  0  0  0  0
   -4.1204   -3.2197    0.6124 H   0  0  0  0  0  0  0  0  0  0  0  0
   -1.0303   -4.4585   -2.1095 H   0  0  0  0  0  0  0  0  0  0  0  0
    0.2127   -2.3983   -1.6541 H   0  0  0  0  0  0  0  0  0  0  0  0
   -1.7044    1.0784    3.1631 H   0  0  0  0  0  0  0  0  0  0  0  0
   -3.9602    1.7783    3.8943 H   0  0  0  0  0  0  0  0  0  0  0  0
   -5.7061    2.3125    2.2141 H   0  0  0  0  0  0  0  0  0  0  0  0
   -5.1880    2.1578   -0.2073 H   0  0  0  0  0  0  0  0  0  0  0  0
   -2.9376    1.4648   -0.9556 H   0  0  0  0  0  0  0  0  0  0  0  0
  1  2  1  0
  2  3  1  0
  3  4  1  0
  4  5  2  0
  4  6  1  0
  6  7  1  0
  7  8  1  0
  7  9  1  0
  3 10  2  0
 10 11  1  0
 11 12  1  0
 12 13  1  0
 13 14  2  0
 14 15  1  0
 15 16  1  0
 15 17  2  0
 17 18  1  0
 11 19  1  0
 19 20  1  0
 20 21  2  0
 21 22  1  0
 22 23  2  0
 23 24  1  0
 24 25  2  0
 19  2  2  0
 25 20  1  0
 18 12  2  0
  1 26  1  0
  1 27  1  0
  1 28  1  0
  6 29  1  0
  8 30  1  0
  8 31  1  0
  8 32  1  0
  9 33  1  0
  9 34  1  0
  9 35  1  0
 13 36  1  0
 14 37  1  0
 17 38  1  0
 18 39  1  0
 21 40  1  0
 22 41  1  0
 23 42  1  0
 24 43  1  0
 25 44  1  0
M  END
>  <_SMILES>  (44) 
Cc1c(C(=O)NN(C)C)nn(-c2ccc(Cl)cc2)c1-c1ccccc1

$$$$

     RDKit          3D

 64 67  0  0  0  0  0  0  0  0999 V2000
    7.6494    2.1769   -0.1721 C   0  0  0  0  0  0  0  0  0  0  0  0
    6.2852    1.7276   -0.6786 C   0  0  0  0  0  0  0  0  0  0  0  0
    6.0225    0.2209   -0.4872 C   0  0  1  0  0  0  0  0  0  0  0  0
    5.8596   -0.1832    0.9933 C   0  0  0  0  0  0  0  0  0  0  0  0
    4.3956   -0.2471    1.4158 C   0  0  0  0  0  0  0  0  0  0  0  0
    3.6116   -1.2957    0.6095 C   0  0  1  0  0  0  0  0  0  0  0  0
    2.2018   -0.9356    0.5715 N   0  0  0  0  0  0  0  0  0  0  0  0
    1.2023   -1.8811    0.4145 C   0  0  0  0  0  0  0  0  0  0  0  0
    1.4291   -3.0879    0.3986 O   0  0  0  0  0  0  0  0  0  0  0  0
   -0.1496   -1.3070    0.2755 C   0  0  0  0  0  0  0  0  0  0  0  0
   -1.1885   -1.8190    0.9507 N   0  0  0  0  0  0  0  0  0  0  0  0
   -2.2492   -1.0602    0.6088 N   0  0  0  0  0  0  0  0  0  0  0  0
   -3.5371   -1.4240    1.2019 C   0  0  0  0  0  0  0  0  0  0  0  0
   -4.4910   -2.0785    0.1914 C   0  0  0  0  0  0  0  0  0  0  0  0
   -5.8451   -2.3587    0.8340 C   0  0  0  0  0  0  0  0  0  0  0  0
   -6.5122   -1.0984    1.3882 C   0  0  0  0  0  0  0  0  0  0  0  0
   -5.5686    0.0949    1.5265 C   0  0  0  0  0  0  0  0  0  0  0  0
   -4.1918   -0.3115    2.0439 C   0  0  0  0  0  0  0  0  0  0  0  0
   -1.9250   -0.0543   -0.2748 C   0  0  0  0  0  0  0  0  0  0  0  0
   -2.8419    0.9351   -0.8286 C   0  0  0  0  0  0  0  0  0  0  0  0
   -2.9916    2.1810   -0.2086 C   0  0  0  0  0  0  0  0  0  0  0  0
   -3.8409    3.1440   -0.7569 C   0  0  0  0  0  0  0  0  0  0  0  0
   -4.5331    2.8727   -1.9362 C   0  0  0  0  0  0  0  0  0  0  0  0
   -4.3703    1.6432   -2.5729 C   0  0  0  0  0  0  0  0  0  0  0  0
   -3.5206    0.6803   -2.0253 C   0  0  0  0  0  0  0  0  0  0  0  0
   -0.5660   -0.2004   -0.5271 C   0  0  0  0  0  0  0  0  0  0  0  0
    0.2646    0.6099   -1.4571 C   0  0  0  0  0  0  0  0  0  0  0  0
    4.1671   -1.4817   -0.8138 C   0  0  0  0  0  0  0  0  0  0  0  0
    4.8029   -0.1976   -1.3356 C   0  0  0  0  0  0  0  0  0  0  0  0
    8.4516    1.5995   -0.6424 H   0  0  0  0  0  0  0  0  0  0  0  0
    7.8082    3.2328   -0.4143 H   0  0  0  0  0  0  0  0  0  0  0  0
    7.7385    2.0714    0.9123 H   0  0  0  0  0  0  0  0  0  0  0  0
    6.2298    1.9690   -1.7476 H   0  0  0  0  0  0  0  0  0  0  0  0
    5.5028    2.3132   -0.1810 H   0  0  0  0  0  0  0  0  0  0  0  0
    6.8979   -0.3188   -0.8743 H   0  0  0  0  0  0  0  0  0  0  0  0
    6.4029    0.4931    1.6597 H   0  0  0  0  0  0  0  0  0  0  0  0
    6.3074   -1.1750    1.1404 H   0  0  0  0  0  0  0  0  0  0  0  0
    3.9509    0.7499    1.2982 H   0  0  0  0  0  0  0  0  0  0  0  0
    4.3231   -0.4851    2.4841 H   0  0  0  0  0  0  0  0  0  0  0  0
    3.6873   -2.2632    1.1221 H   0  0  0  0  0  0  0  0  0  0  0  0
    1.9378    0.0392    0.5915 H   0  0  0  0  0  0  0  0  0  0  0  0
   -3.2848   -2.2140    1.9272 H   0  0  0  0  0  0  0  0  0  0  0  0
   -4.6397   -1.4462   -0.6882 H   0  0  0  0  0  0  0  0  0  0  0  0
   -4.0557   -3.0159   -0.1763 H   0  0  0  0  0  0  0  0  0  0  0  0
   -5.7098   -3.0794    1.6506 H   0  0  0  0  0  0  0  0  0  0  0  0
   -6.5116   -2.8403    0.1092 H   0  0  0  0  0  0  0  0  0  0  0  0
   -7.3498   -0.8106    0.7411 H   0  0  0  0  0  0  0  0  0  0  0  0
   -6.9529   -1.3339    2.3648 H   0  0  0  0  0  0  0  0  0  0  0  0
   -6.0147    0.8382    2.1972 H   0  0  0  0  0  0  0  0  0  0  0  0
   -5.4683    0.5827    0.5513 H   0  0  0  0  0  0  0  0  0  0  0  0
   -3.5465    0.5682    2.1346 H   0  0  0  0  0  0  0  0  0  0  0  0
   -4.3171   -0.6851    3.0696 H   0  0  0  0  0  0  0  0  0  0  0  0
   -2.4476    2.4079    0.7053 H   0  0  0  0  0  0  0  0  0  0  0  0
   -3.9591    4.1066   -0.2661 H   0  0  0  0  0  0  0  0  0  0  0  0
   -5.1934    3.6229   -2.3640 H   0  0  0  0  0  0  0  0  0  0  0  0
   -4.8999    1.4356   -3.4991 H   0  0  0  0  0  0  0  0  0  0  0  0
   -3.3881   -0.2693   -2.5393 H   0  0  0  0  0  0  0  0  0  0  0  0
   -0.3308    1.0040   -2.2867 H   0  0  0  0  0  0  0  0  0  0  0  0
    0.7121    1.4560   -0.9261 H   0  0  0  0  0  0  0  0  0  0  0  0
    1.0684    0.0093   -1.8944 H   0  0  0  0  0  0  0  0  0  0  0  0
    3.3853   -1.8181   -1.5048 H   0  0  0  0  0  0  0  0  0  0  0  0
    4.9314   -2.2696   -0.8014 H   0  0  0  0  0  0  0  0  0  0  0  0
    5.1189   -0.3374   -2.3764 H   0  0  0  0  0  0  0  0  0  0  0  0
    4.0466    0.5980   -1.3449 H   0  0  0  0  0  0  0  0  0  0  0  0
  1  2  1  0
  2  3  1  0
  3  4  1  0
  4  5  1  0
  5  6  1  0
  6  7  1  0
  7  8  1  0
  8  9  2  0
  8 10  1  0
 10 11  2  0
 11 12  1  0
 12 13  1  0
 13 14  1  0
 14 15  1  0
 15 16  1  0
 16 17  1  0
 17 18  1  0
 12 19  1  0
 19 20  1  0
 20 21  2  0
 21 22  1  0
 22 23  2  0
 23 24  1  0
 24 25  2  0
 19 26  2  0
 26 27  1  0
  6 28  1  0
 28 29  1  0
 29  3  1  0
 26 10  1  0
 18 13  1  0
 25 20  1  0
  1 30  1  0
  1 31  1  0
  1 32  1  0
  2 33  1  0
  2 34  1  0
  3 35  1  6
  4 36  1  0
  4 37  1  0
  5 38  1  0
  5 39  1  0
  6 40  1  1
  7 41  1  0
 13 42  1  0
 14 43  1  0
 14 44  1  0
 15 45  1  0
 15 46  1  0
 16 47  1  0
 16 48  1  0
 17 49  1  0
 17 50  1  0
 18 51  1  0
 18 52  1  0
 21 53  1  0
 22 54  1  0
 23 55  1  0
 24 56  1  0
 25 57  1  0
 27 58  1  0
 27 59  1  0
 27 60  1  0
 28 61  1  0
 28 62  1  0
 29 63  1  0
 29 64  1  0
M  END
>  <_SMILES>  (45) 
CC[C@H]1CC[C@@H](NC(=O)c2nn(C3CCCCC3)c(-c3ccccc3)c2C)CC1

$$$$

     RDKit          3D

 64 67  0  0  0  0  0  0  0  0999 V2000
    7.4508   -1.3801   -1.6719 C   0  0  0  0  0  0  0  0  0  0  0  0
    6.2781   -0.5899   -2.2363 C   0  0  0  0  0  0  0  0  0  0  0  0
    4.9779   -0.7597   -1.4258 C   0  0  1  0  0  0  0  0  0  0  0  0
    5.1549   -0.2990    0.0346 C   0  0  0  0  0  0  0  0  0  0  0  0
    3.8220    0.0691    0.6751 C   0  0  0  0  0  0  0  0  0  0  0  0
    3.1533    1.2542   -0.0428 C   0  0  2  0  0  0  0  0  0  0  0  0
    1.7122    1.1794    0.1099 N   0  0  0  0  0  0  0  0  0  0  0  0
    1.0585    1.5371    1.2711 C   0  0  0  0  0  0  0  0  0  0  0  0
    1.6039    2.1026    2.2137 O   0  0  0  0  0  0  0  0  0  0  0  0
   -0.3650    1.1480    1.2661 C   0  0  0  0  0  0  0  0  0  0  0  0
   -0.8896    0.4626    0.2306 N   0  0  0  0  0  0  0  0  0  0  0  0
   -2.1808    0.2705    0.5714 N   0  0  0  0  0  0  0  0  0  0  0  0
   -3.0546   -0.4671   -0.3452 C   0  0  0  0  0  0  0  0  0  0  0  0
   -2.4712   -1.8417   -0.7382 C   0  0  0  0  0  0  0  0  0  0  0  0
   -1.8183   -1.8224   -2.1168 C   0  0  0  0  0  0  0  0  0  0  0  0
   -2.8018   -1.4077   -3.2128 C   0  0  0  0  0  0  0  0  0  0  0  0
   -3.8931   -0.4505   -2.7309 C   0  0  0  0  0  0  0  0  0  0  0  0
   -3.4232    0.4034   -1.5605 C   0  0  0  0  0  0  0  0  0  0  0  0
   -2.5141    0.8252    1.7854 C   0  0  0  0  0  0  0  0  0  0  0  0
   -3.8448    0.7758    2.3770 C   0  0  0  0  0  0  0  0  0  0  0  0
   -4.8261    1.6924    1.9836 C   0  0  0  0  0  0  0  0  0  0  0  0
   -6.1022    1.6391    2.5468 C   0  0  0  0  0  0  0  0  0  0  0  0
   -6.4012    0.6731    3.5070 C   0  0  0  0  0  0  0  0  0  0  0  0
   -5.4248   -0.2382    3.9082 C   0  0  0  0  0  0  0  0  0  0  0  0
   -4.1481   -0.1865    3.3462 C   0  0  0  0  0  0  0  0  0  0  0  0
   -1.3470    1.3969    2.2695 C   0  0  0  0  0  0  0  0  0  0  0  0
   -1.1433    2.1242    3.5490 C   0  0  0  0  0  0  0  0  0  0  0  0
    3.5329    1.3366   -1.5296 C   0  0  0  0  0  0  0  0  0  0  0  0
    3.8006   -0.0440   -2.1224 C   0  0  0  0  0  0  0  0  0  0  0  0
    7.7460   -1.0122   -0.6848 H   0  0  0  0  0  0  0  0  0  0  0  0
    8.3184   -1.2874   -2.3330 H   0  0  0  0  0  0  0  0  0  0  0  0
    7.2027   -2.4427   -1.5860 H   0  0  0  0  0  0  0  0  0  0  0  0
    6.5519    0.4707   -2.2909 H   0  0  0  0  0  0  0  0  0  0  0  0
    6.1066   -0.9251   -3.2668 H   0  0  0  0  0  0  0  0  0  0  0  0
    4.7366   -1.8318   -1.4181 H   0  0  0  0  0  0  0  0  0  0  0  0
    5.8253    0.5685    0.0864 H   0  0  0  0  0  0  0  0  0  0  0  0
    5.6304   -1.0979    0.6159 H   0  0  0  0  0  0  0  0  0  0  0  0
    3.1660   -0.8117    0.6597 H   0  0  0  0  0  0  0  0  0  0  0  0
    3.9706    0.3185    1.7327 H   0  0  0  0  0  0  0  0  0  0  0  0
    3.4785    2.1853    0.4388 H   0  0  0  0  0  0  0  0  0  0  0  0
    1.1540    0.6009   -0.5143 H   0  0  0  0  0  0  0  0  0  0  0  0
   -3.9752   -0.6790    0.2115 H   0  0  0  0  0  0  0  0  0  0  0  0
   -1.7578   -2.2028    0.0122 H   0  0  0  0  0  0  0  0  0  0  0  0
   -3.2880   -2.5756   -0.7596 H   0  0  0  0  0  0  0  0  0  0  0  0
   -0.9698   -1.1276   -2.1103 H   0  0  0  0  0  0  0  0  0  0  0  0
   -1.4051   -2.8100   -2.3519 H   0  0  0  0  0  0  0  0  0  0  0  0
   -3.2798   -2.2982   -3.6387 H   0  0  0  0  0  0  0  0  0  0  0  0
   -2.2380   -0.9447   -4.0318 H   0  0  0  0  0  0  0  0  0  0  0  0
   -4.7736   -1.0287   -2.4228 H   0  0  0  0  0  0  0  0  0  0  0  0
   -4.2156    0.1873   -3.5616 H   0  0  0  0  0  0  0  0  0  0  0  0
   -2.5692    1.0117   -1.8855 H   0  0  0  0  0  0  0  0  0  0  0  0
   -4.2103    1.1125   -1.2765 H   0  0  0  0  0  0  0  0  0  0  0  0
   -4.5995    2.4556    1.2427 H   0  0  0  0  0  0  0  0  0  0  0  0
   -6.8611    2.3545    2.2405 H   0  0  0  0  0  0  0  0  0  0  0  0
   -7.3942    0.6343    3.9478 H   0  0  0  0  0  0  0  0  0  0  0  0
   -5.6561   -0.9868    4.6616 H   0  0  0  0  0  0  0  0  0  0  0  0
   -3.3914   -0.8980    3.6685 H   0  0  0  0  0  0  0  0  0  0  0  0
   -0.4242    1.5916    4.1796 H   0  0  0  0  0  0  0  0  0  0  0  0
   -2.0744    2.2241    4.1150 H   0  0  0  0  0  0  0  0  0  0  0  0
   -0.7614    3.1326    3.3596 H   0  0  0  0  0  0  0  0  0  0  0  0
    2.7493    1.8452   -2.1040 H   0  0  0  0  0  0  0  0  0  0  0  0
    4.4405    1.9447   -1.6363 H   0  0  0  0  0  0  0  0  0  0  0  0
    2.8959   -0.6560   -2.0105 H   0  0  0  0  0  0  0  0  0  0  0  0
    3.9764    0.0411   -3.2011 H   0  0  0  0  0  0  0  0  0  0  0  0
  1  2  1  0
  2  3  1  0
  3  4  1  0
  4  5  1  0
  5  6  1  0
  6  7  1  0
  7  8  1  0
  8  9  2  0
  8 10  1  0
 10 11  2  0
 11 12  1  0
 12 13  1  0
 13 14  1  0
 14 15  1  0
 15 16  1  0
 16 17  1  0
 17 18  1  0
 12 19  1  0
 19 20  1  0
 20 21  2  0
 21 22  1  0
 22 23  2  0
 23 24  1  0
 24 25  2  0
 19 26  2  0
 26 27  1  0
  6 28  1  0
 28 29  1  0
 29  3  1  0
 26 10  1  0
 18 13  1  0
 25 20  1  0
  1 30  1  0
  1 31  1  0
  1 32  1  0
  2 33  1  0
  2 34  1  0
  3 35  1  1
  4 36  1  0
  4 37  1  0
  5 38  1  0
  5 39  1  0
  6 40  1  1
  7 41  1  0
 13 42  1  0
 14 43  1  0
 14 44  1  0
 15 45  1  0
 15 46  1  0
 16 47  1  0
 16 48  1  0
 17 49  1  0
 17 50  1  0
 18 51  1  0
 18 52  1  0
 21 53  1  0
 22 54  1  0
 23 55  1  0
 24 56  1  0
 25 57  1  0
 27 58  1  0
 27 59  1  0
 27 60  1  0
 28 61  1  0
 28 62  1  0
 29 63  1  0
 29 64  1  0
M  END
>  <_SMILES>  (46) 
CC[C@H]1CC[C@H](NC(=O)c2nn(C3CCCCC3)c(-c3ccccc3)c2C)CC1

$$$$

     RDKit          3D

 60 64  0  0  0  0  0  0  0  0999 V2000
   -0.7820    2.2773    0.2834 C   0  0  0  0  0  0  0  0  0  0  0  0
   -1.4407    1.0748   -0.2918 C   0  0  0  0  0  0  0  0  0  0  0  0
   -0.8206   -0.0159   -0.9849 C   0  0  0  0  0  0  0  0  0  0  0  0
    0.6164   -0.2390   -1.2503 C   0  0  0  0  0  0  0  0  0  0  0  0
    1.0361   -0.6845   -2.3132 O   0  0  0  0  0  0  0  0  0  0  0  0
    1.4345    0.0728   -0.1761 N   0  0  0  0  0  0  0  0  0  0  0  0
    2.8809   -0.1570   -0.1375 C   0  0  2  0  0  0  0  0  0  0  0  0
    3.4163    0.3595    1.2262 C   0  0  0  0  0  0  0  0  0  0  0  0
    4.9334    0.1440    1.3421 C   0  0  1  0  0  0  0  0  0  0  0  0
    5.2406   -1.3563    1.2140 C   0  0  0  0  0  0  0  0  0  0  0  0
    4.7437   -1.8802   -0.1428 C   0  0  2  0  0  0  0  0  0  0  0  0
    5.4449   -1.1066   -1.2724 C   0  0  0  0  0  0  0  0  0  0  0  0
    5.1427    0.3969   -1.1521 C   0  0  2  0  0  0  0  0  0  0  0  0
    5.6382    0.9067    0.2100 C   0  0  0  0  0  0  0  0  0  0  0  0
    3.6230    0.6173   -1.2565 C   0  0  0  0  0  0  0  0  0  0  0  0
    3.2237   -1.6629   -0.2465 C   0  0  0  0  0  0  0  0  0  0  0  0
   -1.7433   -0.8991   -1.3998 N   0  0  0  0  0  0  0  0  0  0  0  0
   -2.9189   -0.3957   -0.9905 N   0  0  0  0  0  0  0  0  0  0  0  0
   -4.1311   -1.1336   -1.2930 C   0  0  0  0  0  0  0  0  0  0  0  0
   -4.5795   -2.0511   -0.1536 C   0  0  2  0  0  0  0  0  0  0  0  0
   -3.6889   -3.2782    0.0047 C   0  0  0  0  0  0  0  0  0  0  0  0
   -5.9161   -2.4899   -0.4248 O   0  0  0  0  0  0  0  0  0  0  0  0
   -2.7989    0.7885   -0.3035 C   0  0  0  0  0  0  0  0  0  0  0  0
   -3.9156    1.5363    0.2618 C   0  0  0  0  0  0  0  0  0  0  0  0
   -4.7554    2.2941   -0.5656 C   0  0  0  0  0  0  0  0  0  0  0  0
   -5.8215    3.0155   -0.0215 C   0  0  0  0  0  0  0  0  0  0  0  0
   -6.0483    2.9873    1.3532 C   0  0  0  0  0  0  0  0  0  0  0  0
   -5.2060    2.2423    2.1707 C   0  0  0  0  0  0  0  0  0  0  0  0
   -5.4221    2.2192    3.4925 F   0  0  0  0  0  0  0  0  0  0  0  0
   -4.1422    1.5202    1.6409 C   0  0  0  0  0  0  0  0  0  0  0  0
    0.0787    2.5817   -0.3205 H   0  0  0  0  0  0  0  0  0  0  0  0
   -0.4385    2.0711    1.3019 H   0  0  0  0  0  0  0  0  0  0  0  0
   -1.4681    3.1295    0.3212 H   0  0  0  0  0  0  0  0  0  0  0  0
    0.9617    0.1764    0.7114 H   0  0  0  0  0  0  0  0  0  0  0  0
    3.1825    1.4263    1.3434 H   0  0  0  0  0  0  0  0  0  0  0  0
    2.9077   -0.1570    2.0515 H   0  0  0  0  0  0  0  0  0  0  0  0
    5.2867    0.5123    2.3117 H   0  0  0  0  0  0  0  0  0  0  0  0
    4.7576   -1.9091    2.0291 H   0  0  0  0  0  0  0  0  0  0  0  0
    6.3200   -1.5273    1.3093 H   0  0  0  0  0  0  0  0  0  0  0  0
    4.9700   -2.9487   -0.2309 H   0  0  0  0  0  0  0  0  0  0  0  0
    5.1081   -1.4798   -2.2474 H   0  0  0  0  0  0  0  0  0  0  0  0
    6.5278   -1.2749   -1.2241 H   0  0  0  0  0  0  0  0  0  0  0  0
    5.6502    0.9413   -1.9563 H   0  0  0  0  0  0  0  0  0  0  0  0
    5.4412    1.9818    0.3023 H   0  0  0  0  0  0  0  0  0  0  0  0
    6.7243    0.7741    0.2877 H   0  0  0  0  0  0  0  0  0  0  0  0
    3.3947    1.6891   -1.1885 H   0  0  0  0  0  0  0  0  0  0  0  0
    3.2885    0.2956   -2.2491 H   0  0  0  0  0  0  0  0  0  0  0  0
    2.8663   -2.0774   -1.1966 H   0  0  0  0  0  0  0  0  0  0  0  0
    2.7113   -2.2249    0.5454 H   0  0  0  0  0  0  0  0  0  0  0  0
   -4.9165   -0.4100   -1.5369 H   0  0  0  0  0  0  0  0  0  0  0  0
   -3.9625   -1.7055   -2.2143 H   0  0  0  0  0  0  0  0  0  0  0  0
   -4.6089   -1.5000    0.7927 H   0  0  0  0  0  0  0  0  0  0  0  0
   -2.6659   -3.0049    0.2775 H   0  0  0  0  0  0  0  0  0  0  0  0
   -4.0840   -3.9396    0.7836 H   0  0  0  0  0  0  0  0  0  0  0  0
   -3.6635   -3.8649   -0.9200 H   0  0  0  0  0  0  0  0  0  0  0  0
   -6.1854   -3.0809    0.3003 H   0  0  0  0  0  0  0  0  0  0  0  0
   -4.5809    2.3303   -1.6395 H   0  0  0  0  0  0  0  0  0  0  0  0
   -6.4706    3.5992   -0.6697 H   0  0  0  0  0  0  0  0  0  0  0  0
   -6.8716    3.5421    1.7920 H   0  0  0  0  0  0  0  0  0  0  0  0
   -3.5036    0.9516    2.3095 H   0  0  0  0  0  0  0  0  0  0  0  0
  1  2  1  0
  2  3  1  0
  3  4  1  0
  4  5  2  0
  4  6  1  0
  7  6  1  1
  7  8  1  0
  8  9  1  0
  9 10  1  0
 10 11  1  0
 11 12  1  0
 12 13  1  0
 13 14  1  0
 13 15  1  0
 11 16  1  0
  3 17  2  0
 17 18  1  0
 18 19  1  0
 19 20  1  0
 20 21  1  0
 20 22  1  0
 18 23  1  0
 23 24  1  0
 24 25  2  0
 25 26  1  0
 26 27  2  0
 27 28  1  0
 28 29  1  0
 28 30  2  0
 23  2  2  0
 30 24  1  0
 15  7  1  0
 16  7  1  0
 14  9  1  0
  1 31  1  0
  1 32  1  0
  1 33  1  0
  6 34  1  0
  8 35  1  0
  8 36  1  0
  9 37  1  1
 10 38  1  0
 10 39  1  0
 11 40  1  6
 12 41  1  0
 12 42  1  0
 13 43  1  6
 14 44  1  0
 14 45  1  0
 15 46  1  0
 15 47  1  0
 16 48  1  0
 16 49  1  0
 19 50  1  0
 19 51  1  0
 20 52  1  1
 21 53  1  0
 21 54  1  0
 21 55  1  0
 22 56  1  0
 25 57  1  0
 26 58  1  0
 27 59  1  0
 30 60  1  0
M  END
>  <_SMILES>  (47) 
Cc1c(C(=O)N[C@]23C[C@H]4C[C@H](C[C@H](C4)C2)C3)nn(C[C@H](C)O)c1-c1cccc(F)c1

$$$$

     RDKit          3D

 61 66  0  0  0  0  0  0  0  0999 V2000
    1.4495    2.8989    0.7307 C   0  0  0  0  0  0  0  0  0  0  0  0
    1.6146    1.4861    0.2672 C   0  0  0  0  0  0  0  0  0  0  0  0
    0.5704    0.5052    0.2528 C   0  0  0  0  0  0  0  0  0  0  0  0
   -0.8328    0.6941    0.6475 C   0  0  0  0  0  0  0  0  0  0  0  0
   -1.1983    1.6743    1.2853 O   0  0  0  0  0  0  0  0  0  0  0  0
   -1.6900   -0.2988    0.2190 N   0  0  0  0  0  0  0  0  0  0  0  0
   -3.1430   -0.2895    0.4131 C   0  0  2  0  0  0  0  0  0  0  0  0
   -3.7222   -1.5993   -0.1886 C   0  0  0  0  0  0  0  0  0  0  0  0
   -5.2495   -1.6545   -0.0264 C   0  0  1  0  0  0  0  0  0  0  0  0
   -5.5995   -1.5956    1.4683 C   0  0  0  0  0  0  0  0  0  0  0  0
   -5.0579   -0.2954    2.0820 C   0  0  2  0  0  0  0  0  0  0  0  0
   -5.6818    0.9080    1.3548 C   0  0  0  0  0  0  0  0  0  0  0  0
   -5.3372    0.8586   -0.1435 C   0  0  2  0  0  0  0  0  0  0  0  0
   -5.8764   -0.4492   -0.7444 C   0  0  0  0  0  0  0  0  0  0  0  0
   -3.8084    0.9048   -0.3143 C   0  0  0  0  0  0  0  0  0  0  0  0
   -3.5286   -0.2510    1.9139 C   0  0  0  0  0  0  0  0  0  0  0  0
    1.1628   -0.6696   -0.1722 C   0  0  0  0  0  0  0  0  0  0  0  0
    2.4949   -0.4556   -0.4799 N   0  0  0  0  0  0  0  0  0  0  0  0
    3.3562   -1.4687   -1.0151 C   0  0  0  0  0  0  0  0  0  0  0  0
    4.4184   -1.1443   -1.8695 C   0  0  0  0  0  0  0  0  0  0  0  0
    5.2444   -2.1483   -2.3872 C   0  0  0  0  0  0  0  0  0  0  0  0
    5.0097   -3.4804   -2.0599 C   0  0  0  0  0  0  0  0  0  0  0  0
    6.0271   -4.7118   -2.6967 Cl  0  0  0  0  0  0  0  0  0  0  0  0
    3.9508   -3.8200   -1.2232 C   0  0  0  0  0  0  0  0  0  0  0  0
    3.1216   -2.8192   -0.7055 C   0  0  0  0  0  0  0  0  0  0  0  0
    2.7884    0.8787   -0.1845 C   0  0  0  0  0  0  0  0  0  0  0  0
    4.1280    1.4766   -0.2096 C   0  0  0  0  0  0  0  0  0  0  0  0
    5.1114    1.0488    0.6903 C   0  0  0  0  0  0  0  0  0  0  0  0
    6.3832    1.6264    0.6724 C   0  0  0  0  0  0  0  0  0  0  0  0
    6.6804    2.6423   -0.2401 C   0  0  0  0  0  0  0  0  0  0  0  0
    8.2739    3.3082   -0.2104 Cl  0  0  0  0  0  0  0  0  0  0  0  0
    5.6985    3.0830   -1.1343 C   0  0  0  0  0  0  0  0  0  0  0  0
    5.9923    4.3339   -2.2896 Cl  0  0  0  0  0  0  0  0  0  0  0  0
    4.4257    2.5032   -1.1153 C   0  0  0  0  0  0  0  0  0  0  0  0
    2.3720    3.4788    0.6434 H   0  0  0  0  0  0  0  0  0  0  0  0
    0.6826    3.4060    0.1362 H   0  0  0  0  0  0  0  0  0  0  0  0
    1.1494    2.9198    1.7834 H   0  0  0  0  0  0  0  0  0  0  0  0
   -1.3262   -0.9388   -0.4711 H   0  0  0  0  0  0  0  0  0  0  0  0
   -3.4627   -1.6726   -1.2534 H   0  0  0  0  0  0  0  0  0  0  0  0
   -3.2656   -2.4718    0.2978 H   0  0  0  0  0  0  0  0  0  0  0  0
   -5.6345   -2.5843   -0.4598 H   0  0  0  0  0  0  0  0  0  0  0  0
   -5.1727   -2.4621    1.9883 H   0  0  0  0  0  0  0  0  0  0  0  0
   -6.6871   -1.6486    1.6012 H   0  0  0  0  0  0  0  0  0  0  0  0
   -5.3128   -0.2562    3.1470 H   0  0  0  0  0  0  0  0  0  0  0  0
   -5.3131    1.8434    1.7935 H   0  0  0  0  0  0  0  0  0  0  0  0
   -6.7706    0.9016    1.4882 H   0  0  0  0  0  0  0  0  0  0  0  0
   -5.7911    1.7145   -0.6555 H   0  0  0  0  0  0  0  0  0  0  0  0
   -6.9687   -0.4829   -0.6494 H   0  0  0  0  0  0  0  0  0  0  0  0
   -5.6488   -0.4910   -1.8166 H   0  0  0  0  0  0  0  0  0  0  0  0
   -3.4333    1.8585    0.0756 H   0  0  0  0  0  0  0  0  0  0  0  0
   -3.5512    0.8873   -1.3815 H   0  0  0  0  0  0  0  0  0  0  0  0
   -3.0694   -1.0964    2.4429 H   0  0  0  0  0  0  0  0  0  0  0  0
   -3.1475    0.6558    2.3968 H   0  0  0  0  0  0  0  0  0  0  0  0
    0.7240   -1.6462   -0.3147 H   0  0  0  0  0  0  0  0  0  0  0  0
    4.6052   -0.1264   -2.1948 H   0  0  0  0  0  0  0  0  0  0  0  0
    6.0611   -1.8816   -3.0535 H   0  0  0  0  0  0  0  0  0  0  0  0
    3.7677   -4.8597   -0.9637 H   0  0  0  0  0  0  0  0  0  0  0  0
    2.3260   -3.1218   -0.0292 H   0  0  0  0  0  0  0  0  0  0  0  0
    4.8920    0.2651    1.4133 H   0  0  0  0  0  0  0  0  0  0  0  0
    7.1368    1.2805    1.3761 H   0  0  0  0  0  0  0  0  0  0  0  0
    3.6621    2.8491   -1.8091 H   0  0  0  0  0  0  0  0  0  0  0  0
  1  2  1  0
  2  3  1  0
  3  4  1  0
  4  5  2  0
  4  6  1  0
  7  6  1  1
  7  8  1  0
  8  9  1  0
  9 10  1  0
 10 11  1  0
 11 12  1  0
 12 13  1  0
 13 14  1  0
 13 15  1  0
 11 16  1  0
  3 17  2  0
 17 18  1  0
 18 19  1  0
 19 20  1  0
 20 21  2  0
 21 22  1  0
 22 23  1  0
 22 24  2  0
 24 25  1  0
 18 26  1  0
 26 27  1  0
 27 28  1  0
 28 29  2  0
 29 30  1  0
 30 31  1  0
 30 32  2  0
 32 33  1  0
 32 34  1  0
 26  2  2  0
 34 27  2  0
 15  7  1  0
 25 19  2  0
 16  7  1  0
 14  9  1  0
  1 35  1  0
  1 36  1  0
  1 37  1  0
  6 38  1  0
  8 39  1  0
  8 40  1  0
  9 41  1  6
 10 42  1  0
 10 43  1  0
 11 44  1  1
 12 45  1  0
 12 46  1  0
 13 47  1  6
 14 48  1  0
 14 49  1  0
 15 50  1  0
 15 51  1  0
 16 52  1  0
 16 53  1  0
 17 54  1  0
 20 55  1  0
 21 56  1  0
 24 57  1  0
 25 58  1  0
 28 59  1  0
 29 60  1  0
 34 61  1  0
M  END
>  <_SMILES>  (48) 
Cc1c(C(=O)N[C@]23C[C@H]4C[C@H](C[C@H](C4)C2)C3)cn(-c2ccc(Cl)cc2)c1-c1ccc(Cl)c(Cl)c1

$$$$

     RDKit          3D

 54 56  0  0  0  0  0  0  0  0999 V2000
   -0.2672   -1.4708   -1.4619 C   0  0  0  0  0  0  0  0  0  0  0  0
   -0.9083   -0.3393   -0.7408 C   0  0  0  0  0  0  0  0  0  0  0  0
   -0.3112    0.8961   -0.4000 C   0  0  0  0  0  0  0  0  0  0  0  0
    1.1159    1.3555   -0.6643 C   0  0  1  0  0  0  0  0  0  0  0  0
    1.3261    2.6676   -0.1505 O   0  0  0  0  0  0  0  0  0  0  0  0
    2.1439    0.5171   -0.0786 N   0  0  0  0  0  0  0  0  0  0  0  0
    3.3960    0.3261   -0.6103 C   0  0  0  0  0  0  0  0  0  0  0  0
    4.4625   -0.1302    0.0588 C   0  0  0  0  0  0  0  0  0  0  0  0
    5.8677   -0.3584   -0.4805 C   0  0  0  0  0  0  0  0  0  0  0  0
    6.0361   -0.0102   -1.9711 C   0  0  0  0  0  0  0  0  0  0  0  0
    6.2247   -1.8423   -0.2823 C   0  0  0  0  0  0  0  0  0  0  0  0
    6.8436    0.5072    0.3363 C   0  0  0  0  0  0  0  0  0  0  0  0
   -1.1759    1.7156    0.2131 N   0  0  0  0  0  0  0  0  0  0  0  0
   -2.3230    0.9898    0.3622 N   0  0  0  0  0  0  0  0  0  0  0  0
   -3.3945    1.5690    1.1199 C   0  0  0  0  0  0  0  0  0  0  0  0
   -4.4796    0.8201    1.5923 C   0  0  0  0  0  0  0  0  0  0  0  0
   -5.4998    1.4344    2.3307 C   0  0  0  0  0  0  0  0  0  0  0  0
   -5.4385    2.7963    2.6111 C   0  0  0  0  0  0  0  0  0  0  0  0
   -6.6947    3.5421    3.5182 Cl  0  0  0  0  0  0  0  0  0  0  0  0
   -4.3600    3.5529    2.1669 C   0  0  0  0  0  0  0  0  0  0  0  0
   -3.3402    2.9420    1.4298 C   0  0  0  0  0  0  0  0  0  0  0  0
   -2.2164   -0.2483   -0.2777 C   0  0  0  0  0  0  0  0  0  0  0  0
   -3.2873   -1.2217   -0.4815 C   0  0  0  0  0  0  0  0  0  0  0  0
   -3.2400   -2.4666    0.1589 C   0  0  0  0  0  0  0  0  0  0  0  0
   -4.2543   -3.4032   -0.0476 C   0  0  0  0  0  0  0  0  0  0  0  0
   -5.3153   -3.1056   -0.9018 C   0  0  0  0  0  0  0  0  0  0  0  0
   -5.3617   -1.8746   -1.5549 C   0  0  0  0  0  0  0  0  0  0  0  0
   -4.3485   -0.9363   -1.3504 C   0  0  0  0  0  0  0  0  0  0  0  0
    0.1380   -2.1927   -0.7460 H   0  0  0  0  0  0  0  0  0  0  0  0
    0.5514   -1.1234   -2.0999 H   0  0  0  0  0  0  0  0  0  0  0  0
   -0.9837   -1.9885   -2.1074 H   0  0  0  0  0  0  0  0  0  0  0  0
    1.2415    1.4116   -1.7526 H   0  0  0  0  0  0  0  0  0  0  0  0
    0.4497    2.9160    0.2042 H   0  0  0  0  0  0  0  0  0  0  0  0
    2.1306    0.5748    0.9347 H   0  0  0  0  0  0  0  0  0  0  0  0
    3.4574    0.5827   -1.6652 H   0  0  0  0  0  0  0  0  0  0  0  0
    4.3301   -0.3725    1.1130 H   0  0  0  0  0  0  0  0  0  0  0  0
    5.3775   -0.6174   -2.6028 H   0  0  0  0  0  0  0  0  0  0  0  0
    7.0647   -0.1931   -2.3036 H   0  0  0  0  0  0  0  0  0  0  0  0
    5.8146    1.0456   -2.1650 H   0  0  0  0  0  0  0  0  0  0  0  0
    7.2457   -2.0526   -0.6215 H   0  0  0  0  0  0  0  0  0  0  0  0
    5.5464   -2.4929   -0.8470 H   0  0  0  0  0  0  0  0  0  0  0  0
    6.1625   -2.1343    0.7728 H   0  0  0  0  0  0  0  0  0  0  0  0
    6.6177    1.5742    0.2238 H   0  0  0  0  0  0  0  0  0  0  0  0
    6.7955    0.2690    1.4055 H   0  0  0  0  0  0  0  0  0  0  0  0
    7.8787    0.3508    0.0114 H   0  0  0  0  0  0  0  0  0  0  0  0
   -4.5616   -0.2500    1.4440 H   0  0  0  0  0  0  0  0  0  0  0  0
   -6.3341    0.8372    2.6907 H   0  0  0  0  0  0  0  0  0  0  0  0
   -4.3017    4.6154    2.3880 H   0  0  0  0  0  0  0  0  0  0  0  0
   -2.5104    3.5611    1.0925 H   0  0  0  0  0  0  0  0  0  0  0  0
   -2.4154   -2.7117    0.8248 H   0  0  0  0  0  0  0  0  0  0  0  0
   -4.2148   -4.3663    0.4551 H   0  0  0  0  0  0  0  0  0  0  0  0
   -6.1037   -3.8366   -1.0640 H   0  0  0  0  0  0  0  0  0  0  0  0
   -6.1847   -1.6467   -2.2276 H   0  0  0  0  0  0  0  0  0  0  0  0
   -4.3920    0.0160   -1.8743 H   0  0  0  0  0  0  0  0  0  0  0  0
  1  2  1  0
  2  3  1  0
  3  4  1  0
  4  5  1  0
  4  6  1  0
  6  7  1  0
  7  8  2  0
  8  9  1  0
  9 10  1  0
  9 11  1  0
  9 12  1  0
  3 13  2  0
 13 14  1  0
 14 15  1  0
 15 16  1  0
 16 17  2  0
 17 18  1  0
 18 19  1  0
 18 20  2  0
 20 21  1  0
 14 22  1  0
 22 23  1  0
 23 24  2  0
 24 25  1  0
 25 26  2  0
 26 27  1  0
 27 28  2  0
 22  2  2  0
 28 23  1  0
 21 15  2  0
  1 29  1  0
  1 30  1  0
  1 31  1  0
  4 32  1  6
  5 33  1  0
  6 34  1  0
  7 35  1  0
  8 36  1  0
 10 37  1  0
 10 38  1  0
 10 39  1  0
 11 40  1  0
 11 41  1  0
 11 42  1  0
 12 43  1  0
 12 44  1  0
 12 45  1  0
 16 46  1  0
 17 47  1  0
 20 48  1  0
 21 49  1  0
 24 50  1  0
 25 51  1  0
 26 52  1  0
 27 53  1  0
 28 54  1  0
M  END
>  <_SMILES>  (49) 
Cc1c([C@@H](O)N/C=C/C(C)(C)C)nn(-c2ccc(Cl)cc2)c1-c1ccccc1

$$$$

     RDKit          3D

 54 56  0  0  0  0  0  0  0  0999 V2000
   -1.3712   -1.7023    1.9454 C   0  0  0  0  0  0  0  0  0  0  0  0
   -1.3610   -0.9047    0.6914 C   0  0  0  0  0  0  0  0  0  0  0  0
   -0.4611   -1.0336   -0.3923 C   0  0  0  0  0  0  0  0  0  0  0  0
    0.7104   -1.9912   -0.5445 C   0  0  1  0  0  0  0  0  0  0  0  0
    1.2665   -1.8928   -1.8597 O   0  0  0  0  0  0  0  0  0  0  0  0
    1.6624   -1.7415    0.5450 N   0  0  0  0  0  0  0  0  0  0  0  0
    2.7841   -2.3515    0.3814 C   0  0  0  0  0  0  0  0  0  0  0  0
    3.8959   -2.1825    1.3873 C   0  0  0  0  0  0  0  0  0  0  0  0
    5.0702   -1.3223    0.8672 C   0  0  0  0  0  0  0  0  0  0  0  0
    5.7304   -1.9668   -0.3633 C   0  0  0  0  0  0  0  0  0  0  0  0
    6.1223   -1.2171    1.9876 C   0  0  0  0  0  0  0  0  0  0  0  0
    4.5941    0.0954    0.5070 C   0  0  0  0  0  0  0  0  0  0  0  0
   -0.7602   -0.1900   -1.3898 N   0  0  0  0  0  0  0  0  0  0  0  0
   -1.7895    0.5745   -0.9235 N   0  0  0  0  0  0  0  0  0  0  0  0
   -2.2272    1.6799   -1.7264 C   0  0  0  0  0  0  0  0  0  0  0  0
   -1.7877    1.7629   -3.0620 C   0  0  0  0  0  0  0  0  0  0  0  0
   -2.1861    2.8216   -3.8848 C   0  0  0  0  0  0  0  0  0  0  0  0
   -3.0183    3.8134   -3.3781 C   0  0  0  0  0  0  0  0  0  0  0  0
   -3.5110    5.1176   -4.3851 Cl  0  0  0  0  0  0  0  0  0  0  0  0
   -3.4472    3.7583   -2.0551 C   0  0  0  0  0  0  0  0  0  0  0  0
   -3.0496    2.6986   -1.2290 C   0  0  0  0  0  0  0  0  0  0  0  0
   -2.2356    0.1095    0.3165 C   0  0  0  0  0  0  0  0  0  0  0  0
   -3.4240    0.5546    1.0412 C   0  0  0  0  0  0  0  0  0  0  0  0
   -4.7036    0.2737    0.5451 C   0  0  0  0  0  0  0  0  0  0  0  0
   -5.8369    0.6870    1.2478 C   0  0  0  0  0  0  0  0  0  0  0  0
   -5.6987    1.3732    2.4537 C   0  0  0  0  0  0  0  0  0  0  0  0
   -4.4287    1.6430    2.9619 C   0  0  0  0  0  0  0  0  0  0  0  0
   -3.2940    1.2311    2.2610 C   0  0  0  0  0  0  0  0  0  0  0  0
   -0.8511   -1.1603    2.7416 H   0  0  0  0  0  0  0  0  0  0  0  0
   -0.8756   -2.6685    1.8091 H   0  0  0  0  0  0  0  0  0  0  0  0
   -2.3943   -1.9065    2.2768 H   0  0  0  0  0  0  0  0  0  0  0  0
    0.3152   -3.0101   -0.4452 H   0  0  0  0  0  0  0  0  0  0  0  0
    0.8313   -1.0932   -2.2215 H   0  0  0  0  0  0  0  0  0  0  0  0
    2.9955   -3.0043   -0.4851 H   0  0  0  0  0  0  0  0  0  0  0  0
    4.2482   -3.1881    1.6471 H   0  0  0  0  0  0  0  0  0  0  0  0
    3.4767   -1.7370    2.2982 H   0  0  0  0  0  0  0  0  0  0  0  0
    6.6167   -1.4024   -0.6754 H   0  0  0  0  0  0  0  0  0  0  0  0
    6.0488   -2.9930   -0.1487 H   0  0  0  0  0  0  0  0  0  0  0  0
    5.0486   -1.9979   -1.2196 H   0  0  0  0  0  0  0  0  0  0  0  0
    6.9809   -0.6138    1.6716 H   0  0  0  0  0  0  0  0  0  0  0  0
    5.7003   -0.7497    2.8845 H   0  0  0  0  0  0  0  0  0  0  0  0
    6.4977   -2.2067    2.2717 H   0  0  0  0  0  0  0  0  0  0  0  0
    5.4372    0.7316    0.2143 H   0  0  0  0  0  0  0  0  0  0  0  0
    4.0971    0.5735    1.3586 H   0  0  0  0  0  0  0  0  0  0  0  0
    3.8885    0.0847   -0.3307 H   0  0  0  0  0  0  0  0  0  0  0  0
   -1.1383    0.9989   -3.4867 H   0  0  0  0  0  0  0  0  0  0  0  0
   -1.8412    2.8616   -4.9145 H   0  0  0  0  0  0  0  0  0  0  0  0
   -4.0844    4.5413   -1.6516 H   0  0  0  0  0  0  0  0  0  0  0  0
   -3.3783    2.7335   -0.1973 H   0  0  0  0  0  0  0  0  0  0  0  0
   -4.8253   -0.2696   -0.3894 H   0  0  0  0  0  0  0  0  0  0  0  0
   -6.8273    0.4693    0.8562 H   0  0  0  0  0  0  0  0  0  0  0  0
   -6.5821    1.6925    3.0012 H   0  0  0  0  0  0  0  0  0  0  0  0
   -4.3215    2.1716    3.9057 H   0  0  0  0  0  0  0  0  0  0  0  0
   -2.3079    1.4443    2.6682 H   0  0  0  0  0  0  0  0  0  0  0  0
  1  2  1  0
  2  3  1  0
  3  4  1  0
  4  5  1  0
  4  6  1  0
  6  7  2  0
  7  8  1  0
  8  9  1  0
  9 10  1  0
  9 11  1  0
  9 12  1  0
  3 13  2  0
 13 14  1  0
 14 15  1  0
 15 16  1  0
 16 17  2  0
 17 18  1  0
 18 19  1  0
 18 20  2  0
 20 21  1  0
 14 22  1  0
 22 23  1  0
 23 24  2  0
 24 25  1  0
 25 26  2  0
 26 27  1  0
 27 28  2  0
 22  2  2  0
 28 23  1  0
 21 15  2  0
  1 29  1  0
  1 30  1  0
  1 31  1  0
  4 32  1  1
  5 33  1  0
  7 34  1  0
  8 35  1  0
  8 36  1  0
 10 37  1  0
 10 38  1  0
 10 39  1  0
 11 40  1  0
 11 41  1  0
 11 42  1  0
 12 43  1  0
 12 44  1  0
 12 45  1  0
 16 46  1  0
 17 47  1  0
 20 48  1  0
 21 49  1  0
 24 50  1  0
 25 51  1  0
 26 52  1  0
 27 53  1  0
 28 54  1  0
M  END
>  <_SMILES>  (50) 
Cc1c([C@@H](O)/N=C/CC(C)(C)C)nn(-c2ccc(Cl)cc2)c1-c1ccccc1

$$$$

     RDKit          3D

 54 56  0  0  0  0  0  0  0  0999 V2000
   -0.7727   -2.6131    0.5248 C   0  0  0  0  0  0  0  0  0  0  0  0
   -1.0269   -1.2084    0.1120 C   0  0  0  0  0  0  0  0  0  0  0  0
   -0.0718   -0.2611   -0.3260 C   0  0  0  0  0  0  0  0  0  0  0  0
    1.4348   -0.4301   -0.4709 C   0  0  1  0  0  0  0  0  0  0  0  0
    1.9936    0.6974   -1.1443 O   0  0  0  0  0  0  0  0  0  0  0  0
    1.9955   -0.6757    0.8532 N   0  0  0  0  0  0  0  0  0  0  0  0
    3.2437   -0.9717    0.9705 C   0  0  0  0  0  0  0  0  0  0  0  0
    4.2829   -1.1398   -0.1172 C   0  0  0  0  0  0  0  0  0  0  0  0
    5.5039   -0.1982    0.0312 C   0  0  0  0  0  0  0  0  0  0  0  0
    5.0775    1.2774   -0.0270 C   0  0  0  0  0  0  0  0  0  0  0  0
    6.2574   -0.4575    1.3475 C   0  0  0  0  0  0  0  0  0  0  0  0
    6.4681   -0.4753   -1.1393 C   0  0  0  0  0  0  0  0  0  0  0  0
   -0.6450    0.9023   -0.6637 N   0  0  0  0  0  0  0  0  0  0  0  0
   -1.9655    0.7623   -0.3528 N   0  0  0  0  0  0  0  0  0  0  0  0
   -2.8131    1.9135   -0.4731 C   0  0  0  0  0  0  0  0  0  0  0  0
   -4.0932    1.9745    0.0919 C   0  0  0  0  0  0  0  0  0  0  0  0
   -4.8803    3.1246   -0.0535 C   0  0  0  0  0  0  0  0  0  0  0  0
   -4.3914    4.2237   -0.7537 C   0  0  0  0  0  0  0  0  0  0  0  0
   -5.3643    5.6312   -0.9273 Cl  0  0  0  0  0  0  0  0  0  0  0  0
   -3.1158    4.1894   -1.3056 C   0  0  0  0  0  0  0  0  0  0  0  0
   -2.3281    3.0425   -1.1616 C   0  0  0  0  0  0  0  0  0  0  0  0
   -2.2480   -0.5456    0.0505 C   0  0  0  0  0  0  0  0  0  0  0  0
   -3.5697   -1.1204    0.2917 C   0  0  0  0  0  0  0  0  0  0  0  0
   -4.4574   -1.3272   -0.7721 C   0  0  0  0  0  0  0  0  0  0  0  0
   -5.7133   -1.8911   -0.5406 C   0  0  0  0  0  0  0  0  0  0  0  0
   -6.0852   -2.2606    0.7514 C   0  0  0  0  0  0  0  0  0  0  0  0
   -5.2013   -2.0721    1.8131 C   0  0  0  0  0  0  0  0  0  0  0  0
   -3.9450   -1.5082    1.5843 C   0  0  0  0  0  0  0  0  0  0  0  0
    0.1819   -2.9799    0.1354 H   0  0  0  0  0  0  0  0  0  0  0  0
   -1.5549   -3.2817    0.1513 H   0  0  0  0  0  0  0  0  0  0  0  0
   -0.7462   -2.6868    1.6166 H   0  0  0  0  0  0  0  0  0  0  0  0
    1.5941   -1.3038   -1.1153 H   0  0  0  0  0  0  0  0  0  0  0  0
    1.2879    1.3710   -1.0643 H   0  0  0  0  0  0  0  0  0  0  0  0
    3.6004   -1.1538    1.9985 H   0  0  0  0  0  0  0  0  0  0  0  0
    4.6210   -2.1823   -0.0526 H   0  0  0  0  0  0  0  0  0  0  0  0
    3.8401   -1.0211   -1.1088 H   0  0  0  0  0  0  0  0  0  0  0  0
    4.5765    1.5075   -0.9732 H   0  0  0  0  0  0  0  0  0  0  0  0
    4.3937    1.5334    0.7893 H   0  0  0  0  0  0  0  0  0  0  0  0
    5.9460    1.9413    0.0537 H   0  0  0  0  0  0  0  0  0  0  0  0
    6.5296   -1.5142    1.4459 H   0  0  0  0  0  0  0  0  0  0  0  0
    7.1827    0.1286    1.3934 H   0  0  0  0  0  0  0  0  0  0  0  0
    5.6585   -0.1799    2.2209 H   0  0  0  0  0  0  0  0  0  0  0  0
    7.3534    0.1686   -1.0864 H   0  0  0  0  0  0  0  0  0  0  0  0
    5.9825   -0.2923   -2.1045 H   0  0  0  0  0  0  0  0  0  0  0  0
    6.8121   -1.5157   -1.1303 H   0  0  0  0  0  0  0  0  0  0  0  0
   -4.5099    1.1691    0.6846 H   0  0  0  0  0  0  0  0  0  0  0  0
   -5.8711    3.1549    0.3933 H   0  0  0  0  0  0  0  0  0  0  0  0
   -2.7241    5.0461   -1.8474 H   0  0  0  0  0  0  0  0  0  0  0  0
   -1.3343    3.0429   -1.6069 H   0  0  0  0  0  0  0  0  0  0  0  0
   -4.1758   -1.0522   -1.7862 H   0  0  0  0  0  0  0  0  0  0  0  0
   -6.3996   -2.0458   -1.3694 H   0  0  0  0  0  0  0  0  0  0  0  0
   -7.0628   -2.7017    0.9300 H   0  0  0  0  0  0  0  0  0  0  0  0
   -5.4889   -2.3667    2.8192 H   0  0  0  0  0  0  0  0  0  0  0  0
   -3.2623   -1.3679    2.4196 H   0  0  0  0  0  0  0  0  0  0  0  0
  1  2  1  0
  2  3  1  0
  3  4  1  0
  4  5  1  0
  4  6  1  0
  6  7  2  0
  7  8  1  0
  8  9  1  0
  9 10  1  0
  9 11  1  0
  9 12  1  0
  3 13  2  0
 13 14  1  0
 14 15  1  0
 15 16  1  0
 16 17  2  0
 17 18  1  0
 18 19  1  0
 18 20  2  0
 20 21  1  0
 14 22  1  0
 22 23  1  0
 23 24  2  0
 24 25  1  0
 25 26  2  0
 26 27  1  0
 27 28  2  0
 22  2  2  0
 28 23  1  0
 21 15  2  0
  1 29  1  0
  1 30  1  0
  1 31  1  0
  4 32  1  6
  5 33  1  0
  7 34  1  0
  8 35  1  0
  8 36  1  0
 10 37  1  0
 10 38  1  0
 10 39  1  0
 11 40  1  0
 11 41  1  0
 11 42  1  0
 12 43  1  0
 12 44  1  0
 12 45  1  0
 16 46  1  0
 17 47  1  0
 20 48  1  0
 21 49  1  0
 24 50  1  0
 25 51  1  0
 26 52  1  0
 27 53  1  0
 28 54  1  0
M  END
>  <_SMILES>  (51) 
Cc1c([C@@H](O)/N=C\CC(C)(C)C)nn(-c2ccc(Cl)cc2)c1-c1ccccc1

$$$$

     RDKit          3D

 54 56  0  0  0  0  0  0  0  0999 V2000
    0.2476    2.5307   -0.1486 C   0  0  0  0  0  0  0  0  0  0  0  0
    0.6509    1.1870   -0.6403 C   0  0  0  0  0  0  0  0  0  0  0  0
   -0.1659    0.2419   -1.3028 C   0  0  0  0  0  0  0  0  0  0  0  0
   -1.6433    0.3564   -1.6495 C   0  0  1  0  0  0  0  0  0  0  0  0
   -2.0767   -0.7320   -2.4587 O   0  0  0  0  0  0  0  0  0  0  0  0
   -2.5930    0.4610   -0.5540 N   0  0  0  0  0  0  0  0  0  0  0  0
   -2.6014   -0.3348    0.5658 C   0  0  0  0  0  0  0  0  0  0  0  0
   -3.5891   -0.5394    1.4481 C   0  0  0  0  0  0  0  0  0  0  0  0
   -4.9801    0.0777    1.5074 C   0  0  0  0  0  0  0  0  0  0  0  0
   -5.5782   -0.2083    2.9023 C   0  0  0  0  0  0  0  0  0  0  0  0
   -4.9652    1.6058    1.3167 C   0  0  0  0  0  0  0  0  0  0  0  0
   -5.8867   -0.5735    0.4503 C   0  0  0  0  0  0  0  0  0  0  0  0
    0.5168   -0.8634   -1.6308 N   0  0  0  0  0  0  0  0  0  0  0  0
    1.7703   -0.6837   -1.1218 N   0  0  0  0  0  0  0  0  0  0  0  0
    2.6971   -1.7749   -1.2109 C   0  0  0  0  0  0  0  0  0  0  0  0
    3.8843   -1.8236   -0.4697 C   0  0  0  0  0  0  0  0  0  0  0  0
    4.7545   -2.9151   -0.5921 C   0  0  0  0  0  0  0  0  0  0  0  0
    4.4409   -3.9683   -1.4463 C   0  0  0  0  0  0  0  0  0  0  0  0
    5.5145   -5.3039   -1.5902 Cl  0  0  0  0  0  0  0  0  0  0  0  0
    3.2581   -3.9467   -2.1768 C   0  0  0  0  0  0  0  0  0  0  0  0
    2.3877   -2.8585   -2.0561 C   0  0  0  0  0  0  0  0  0  0  0  0
    1.9062    0.5929   -0.5693 C   0  0  0  0  0  0  0  0  0  0  0  0
    3.1379    1.2068   -0.0782 C   0  0  0  0  0  0  0  0  0  0  0  0
    3.2913    1.4868    1.2858 C   0  0  0  0  0  0  0  0  0  0  0  0
    4.4610    2.0883    1.7535 C   0  0  0  0  0  0  0  0  0  0  0  0
    5.4789    2.4220    0.8610 C   0  0  0  0  0  0  0  0  0  0  0  0
    5.3275    2.1606   -0.5002 C   0  0  0  0  0  0  0  0  0  0  0  0
    4.1586    1.5595   -0.9706 C   0  0  0  0  0  0  0  0  0  0  0  0
   -0.6645    2.8816   -0.6410 H   0  0  0  0  0  0  0  0  0  0  0  0
    0.0612    2.4975    0.9295 H   0  0  0  0  0  0  0  0  0  0  0  0
    1.0291    3.2723   -0.3429 H   0  0  0  0  0  0  0  0  0  0  0  0
   -1.7563    1.2542   -2.2685 H   0  0  0  0  0  0  0  0  0  0  0  0
   -1.3758   -1.3981   -2.3183 H   0  0  0  0  0  0  0  0  0  0  0  0
   -3.5249    0.6246   -0.9193 H   0  0  0  0  0  0  0  0  0  0  0  0
   -1.6633   -0.8700    0.7176 H   0  0  0  0  0  0  0  0  0  0  0  0
   -3.3654   -1.2567    2.2390 H   0  0  0  0  0  0  0  0  0  0  0  0
   -5.6468   -1.2853    3.0970 H   0  0  0  0  0  0  0  0  0  0  0  0
   -6.5897    0.2047    2.9931 H   0  0  0  0  0  0  0  0  0  0  0  0
   -4.9662    0.2355    3.6967 H   0  0  0  0  0  0  0  0  0  0  0  0
   -4.2496    2.0841    1.9955 H   0  0  0  0  0  0  0  0  0  0  0  0
   -4.7069    1.8989    0.2952 H   0  0  0  0  0  0  0  0  0  0  0  0
   -5.9528    2.0355    1.5232 H   0  0  0  0  0  0  0  0  0  0  0  0
   -5.9331   -1.6613    0.5794 H   0  0  0  0  0  0  0  0  0  0  0  0
   -6.9107   -0.1882    0.5185 H   0  0  0  0  0  0  0  0  0  0  0  0
   -5.5310   -0.3767   -0.5669 H   0  0  0  0  0  0  0  0  0  0  0  0
    4.1617   -1.0563    0.2430 H   0  0  0  0  0  0  0  0  0  0  0  0
    5.6712   -2.9369   -0.0077 H   0  0  0  0  0  0  0  0  0  0  0  0
    3.0032   -4.7684   -2.8407 H   0  0  0  0  0  0  0  0  0  0  0  0
    1.4709   -2.8676   -2.6437 H   0  0  0  0  0  0  0  0  0  0  0  0
    2.5027    1.2341    1.9912 H   0  0  0  0  0  0  0  0  0  0  0  0
    4.5766    2.2995    2.8136 H   0  0  0  0  0  0  0  0  0  0  0  0
    6.3887    2.8926    1.2257 H   0  0  0  0  0  0  0  0  0  0  0  0
    6.1178    2.4290   -1.1967 H   0  0  0  0  0  0  0  0  0  0  0  0
    4.0493    1.3703   -2.0363 H   0  0  0  0  0  0  0  0  0  0  0  0
  1  2  1  0
  2  3  1  0
  3  4  1  0
  4  5  1  0
  4  6  1  0
  6  7  1  0
  7  8  2  0
  8  9  1  0
  9 10  1  0
  9 11  1  0
  9 12  1  0
  3 13  2  0
 13 14  1  0
 14 15  1  0
 15 16  1  0
 16 17  2  0
 17 18  1  0
 18 19  1  0
 18 20  2  0
 20 21  1  0
 14 22  1  0
 22 23  1  0
 23 24  2  0
 24 25  1  0
 25 26  2  0
 26 27  1  0
 27 28  2  0
 22  2  2  0
 28 23  1  0
 21 15  2  0
  1 29  1  0
  1 30  1  0
  1 31  1  0
  4 32  1  6
  5 33  1  0
  6 34  1  0
  7 35  1  0
  8 36  1  0
 10 37  1  0
 10 38  1  0
 10 39  1  0
 11 40  1  0
 11 41  1  0
 11 42  1  0
 12 43  1  0
 12 44  1  0
 12 45  1  0
 16 46  1  0
 17 47  1  0
 20 48  1  0
 21 49  1  0
 24 50  1  0
 25 51  1  0
 26 52  1  0
 27 53  1  0
 28 54  1  0
M  END
>  <_SMILES>  (52) 
Cc1c([C@@H](O)N/C=C\C(C)(C)C)nn(-c2ccc(Cl)cc2)c1-c1ccccc1

$$$$

     RDKit          3D

 68 72  0  0  0  0  0  0  0  0999 V2000
   -2.8116    1.7409    1.0698 C   0  0  0  0  0  0  0  0  0  0  0  0
   -3.3336    0.4066    0.6701 C   0  0  0  0  0  0  0  0  0  0  0  0
   -2.5973   -0.8074    0.5496 C   0  0  0  0  0  0  0  0  0  0  0  0
   -1.1508   -1.0164    0.7484 C   0  0  0  0  0  0  0  0  0  0  0  0
   -0.6993   -1.9003    1.4722 O   0  0  0  0  0  0  0  0  0  0  0  0
   -0.3821   -0.1098    0.0228 N   0  0  0  0  0  0  0  0  0  0  0  0
    0.9798   -0.1347    0.0991 N   0  0  0  0  0  0  0  0  0  0  0  0
    1.5999    0.6938   -0.6781 C   0  0  0  0  0  0  0  0  0  0  0  0
    3.0741    0.7785   -0.7041 C   0  0  0  0  0  0  0  0  0  0  0  0
    3.6782    1.7126   -1.5671 C   0  0  0  0  0  0  0  0  0  0  0  0
    5.0696    1.8278   -1.6232 C   0  0  0  0  0  0  0  0  0  0  0  0
    5.8317    1.0000   -0.8093 C   0  0  0  0  0  0  0  0  0  0  0  0
    5.2244    0.0621    0.0561 C   0  0  0  0  0  0  0  0  0  0  0  0
    3.8454   -0.0553    0.1150 C   0  0  0  0  0  0  0  0  0  0  0  0
    6.2553   -0.6557    0.7747 C   0  0  0  0  0  0  0  0  0  0  0  0
    6.1529   -1.6616    1.7222 C   0  0  0  0  0  0  0  0  0  0  0  0
    7.3283   -2.1885    2.2655 C   0  0  0  0  0  0  0  0  0  0  0  0
    8.5851   -1.7102    1.8612 C   0  0  0  0  0  0  0  0  0  0  0  0
    8.6899   -0.6968    0.9064 C   0  0  0  0  0  0  0  0  0  0  0  0
    7.5204   -0.1764    0.3692 C   0  0  0  0  0  0  0  0  0  0  0  0
    7.3568    0.9251   -0.6805 C   0  0  0  0  0  0  0  0  0  0  0  0
    8.0004    0.5168   -2.0105 C   0  0  0  0  0  0  0  0  0  0  0  0
    7.9307    2.2542   -0.1766 C   0  0  0  0  0  0  0  0  0  0  0  0
   -3.3998   -1.8117    0.1765 N   0  0  0  0  0  0  0  0  0  0  0  0
   -4.6445   -1.2881    0.1101 N   0  0  0  0  0  0  0  0  0  0  0  0
   -5.7523   -2.1998   -0.2599 C   0  0  0  0  0  0  0  0  0  0  0  0
   -5.3769   -3.6772    0.0399 C   0  0  0  0  0  0  0  0  0  0  0  0
   -6.0267   -2.0853   -1.7700 C   0  0  0  0  0  0  0  0  0  0  0  0
   -7.0476   -1.9227    0.5288 C   0  0  0  0  0  0  0  0  0  0  0  0
   -4.6432    0.0772    0.3395 C   0  0  0  0  0  0  0  0  0  0  0  0
   -5.7920    0.9734    0.2719 C   0  0  0  0  0  0  0  0  0  0  0  0
   -6.1782    1.5389   -0.9481 C   0  0  0  0  0  0  0  0  0  0  0  0
   -7.2592    2.4208   -1.0043 C   0  0  0  0  0  0  0  0  0  0  0  0
   -7.9502    2.7530    0.1603 C   0  0  0  0  0  0  0  0  0  0  0  0
   -7.5580    2.2102    1.3830 C   0  0  0  0  0  0  0  0  0  0  0  0
   -6.4778    1.3280    1.4404 C   0  0  0  0  0  0  0  0  0  0  0  0
   -1.9587    1.6439    1.7491 H   0  0  0  0  0  0  0  0  0  0  0  0
   -2.4881    2.2998    0.1860 H   0  0  0  0  0  0  0  0  0  0  0  0
   -3.5723    2.3315    1.5894 H   0  0  0  0  0  0  0  0  0  0  0  0
   -0.8377    0.4992   -0.6452 H   0  0  0  0  0  0  0  0  0  0  0  0
    1.0524    1.3740   -1.3551 H   0  0  0  0  0  0  0  0  0  0  0  0
    3.0706    2.3547   -2.1997 H   0  0  0  0  0  0  0  0  0  0  0  0
    5.5378    2.5470   -2.2879 H   0  0  0  0  0  0  0  0  0  0  0  0
    3.3732   -0.7752    0.7773 H   0  0  0  0  0  0  0  0  0  0  0  0
    5.1867   -2.0393    2.0414 H   0  0  0  0  0  0  0  0  0  0  0  0
    7.2681   -2.9789    3.0102 H   0  0  0  0  0  0  0  0  0  0  0  0
    9.4857   -2.1358    2.2978 H   0  0  0  0  0  0  0  0  0  0  0  0
    9.6637   -0.3316    0.5975 H   0  0  0  0  0  0  0  0  0  0  0  0
    7.5962   -0.4333   -2.3808 H   0  0  0  0  0  0  0  0  0  0  0  0
    7.8259    1.2711   -2.7865 H   0  0  0  0  0  0  0  0  0  0  0  0
    9.0847    0.3932   -1.9078 H   0  0  0  0  0  0  0  0  0  0  0  0
    9.0128    2.1860   -0.0154 H   0  0  0  0  0  0  0  0  0  0  0  0
    7.4764    2.5564    0.7750 H   0  0  0  0  0  0  0  0  0  0  0  0
    7.7540    3.0631   -0.8949 H   0  0  0  0  0  0  0  0  0  0  0  0
   -6.2048   -4.3545   -0.2011 H   0  0  0  0  0  0  0  0  0  0  0  0
   -5.1317   -3.8161    1.0996 H   0  0  0  0  0  0  0  0  0  0  0  0
   -4.5152   -4.0089   -0.5516 H   0  0  0  0  0  0  0  0  0  0  0  0
   -6.3738   -1.0860   -2.0469 H   0  0  0  0  0  0  0  0  0  0  0  0
   -6.7980   -2.7967   -2.0866 H   0  0  0  0  0  0  0  0  0  0  0  0
   -5.1223   -2.2904   -2.3548 H   0  0  0  0  0  0  0  0  0  0  0  0
   -6.8489   -1.8315    1.6026 H   0  0  0  0  0  0  0  0  0  0  0  0
   -7.7737   -2.7336    0.3945 H   0  0  0  0  0  0  0  0  0  0  0  0
   -7.5528   -1.0146    0.1908 H   0  0  0  0  0  0  0  0  0  0  0  0
   -5.6373    1.2996   -1.8605 H   0  0  0  0  0  0  0  0  0  0  0  0
   -7.5589    2.8527   -1.9557 H   0  0  0  0  0  0  0  0  0  0  0  0
   -8.7909    3.4410    0.1162 H   0  0  0  0  0  0  0  0  0  0  0  0
   -8.0907    2.4757    2.2926 H   0  0  0  0  0  0  0  0  0  0  0  0
   -6.1746    0.9152    2.4002 H   0  0  0  0  0  0  0  0  0  0  0  0
  1  2  1  0
  2  3  1  0
  3  4  1  0
  4  5  2  0
  4  6  1  0
  6  7  1  0
  7  8  2  0
  8  9  1  0
  9 10  2  0
 10 11  1  0
 11 12  2  0
 12 13  1  0
 13 14  2  0
 13 15  1  0
 15 16  2  0
 16 17  1  0
 17 18  2  0
 18 19  1  0
 19 20  2  0
 20 21  1  0
 21 22  1  0
 21 23  1  0
  3 24  2  0
 24 25  1  0
 25 26  1  0
 26 27  1  0
 26 28  1  0
 26 29  1  0
 25 30  1  0
 30 31  1  0
 31 32  2  0
 32 33  1  0
 33 34  2  0
 34 35  1  0
 35 36  2  0
 30  2  2  0
 36 31  1  0
 14  9  1  0
 20 15  1  0
 21 12  1  0
  1 37  1  0
  1 38  1  0
  1 39  1  0
  6 40  1  0
  8 41  1  0
 10 42  1  0
 11 43  1  0
 14 44  1  0
 16 45  1  0
 17 46  1  0
 18 47  1  0
 19 48  1  0
 22 49  1  0
 22 50  1  0
 22 51  1  0
 23 52  1  0
 23 53  1  0
 23 54  1  0
 27 55  1  0
 27 56  1  0
 27 57  1  0
 28 58  1  0
 28 59  1  0
 28 60  1  0
 29 61  1  0
 29 62  1  0
 29 63  1  0
 32 64  1  0
 33 65  1  0
 34 66  1  0
 35 67  1  0
 36 68  1  0
M  END
>  <_SMILES>  (53) 
Cc1c(C(=O)N/N=C/c2ccc3c(c2)-c2ccccc2C3(C)C)nn(C(C)(C)C)c1-c1ccccc1

$$$$

     RDKit          3D

 68 72  0  0  0  0  0  0  0  0999 V2000
   -1.9601    2.0627   -0.7281 C   0  0  0  0  0  0  0  0  0  0  0  0
   -2.3618    0.6332   -0.6337 C   0  0  0  0  0  0  0  0  0  0  0  0
   -1.7322   -0.4936   -1.2443 C   0  0  0  0  0  0  0  0  0  0  0  0
   -0.5685   -0.5336   -2.1588 C   0  0  0  0  0  0  0  0  0  0  0  0
    0.2456   -1.4558   -2.1596 O   0  0  0  0  0  0  0  0  0  0  0  0
   -0.5234    0.5557   -3.0432 N   0  0  0  0  0  0  0  0  0  0  0  0
    0.3147    0.5488   -4.1338 N   0  0  0  0  0  0  0  0  0  0  0  0
    1.6019    0.4924   -3.9396 C   0  0  0  0  0  0  0  0  0  0  0  0
    2.3653    0.6827   -2.6903 C   0  0  0  0  0  0  0  0  0  0  0  0
    2.0548    1.7436   -1.8197 C   0  0  0  0  0  0  0  0  0  0  0  0
    2.8063    1.9517   -0.6618 C   0  0  0  0  0  0  0  0  0  0  0  0
    3.8687    1.0946   -0.4071 C   0  0  0  0  0  0  0  0  0  0  0  0
    4.1908    0.0403   -1.2927 C   0  0  0  0  0  0  0  0  0  0  0  0
    3.4481   -0.1678   -2.4436 C   0  0  0  0  0  0  0  0  0  0  0  0
    5.3365   -0.6777   -0.7757 C   0  0  0  0  0  0  0  0  0  0  0  0
    6.0103   -1.7772   -1.2830 C   0  0  0  0  0  0  0  0  0  0  0  0
    7.1038   -2.2778   -0.5699 C   0  0  0  0  0  0  0  0  0  0  0  0
    7.5115   -1.6813    0.6340 C   0  0  0  0  0  0  0  0  0  0  0  0
    6.8326   -0.5747    1.1477 C   0  0  0  0  0  0  0  0  0  0  0  0
    5.7473   -0.0810    0.4368 C   0  0  0  0  0  0  0  0  0  0  0  0
    4.8393    1.1028    0.7781 C   0  0  0  0  0  0  0  0  0  0  0  0
    5.6367    2.4110    0.8262 C   0  0  0  0  0  0  0  0  0  0  0  0
    4.0955    0.8627    2.0968 C   0  0  0  0  0  0  0  0  0  0  0  0
   -2.3470   -1.6254   -0.8762 N   0  0  0  0  0  0  0  0  0  0  0  0
   -3.3750   -1.2580   -0.0821 N   0  0  0  0  0  0  0  0  0  0  0  0
   -4.2171   -2.3345    0.4904 C   0  0  0  0  0  0  0  0  0  0  0  0
   -4.0908   -3.6402   -0.3423 C   0  0  0  0  0  0  0  0  0  0  0  0
   -3.7443   -2.6480    1.9211 C   0  0  0  0  0  0  0  0  0  0  0  0
   -5.7178   -1.9815    0.5009 C   0  0  0  0  0  0  0  0  0  0  0  0
   -3.4168    0.1112    0.1074 C   0  0  0  0  0  0  0  0  0  0  0  0
   -4.3651    0.8463    0.9370 C   0  0  0  0  0  0  0  0  0  0  0  0
   -4.1224    1.0253    2.3032 C   0  0  0  0  0  0  0  0  0  0  0  0
   -5.0158    1.7583    3.0866 C   0  0  0  0  0  0  0  0  0  0  0  0
   -6.1479    2.3283    2.5057 C   0  0  0  0  0  0  0  0  0  0  0  0
   -6.3848    2.1732    1.1405 C   0  0  0  0  0  0  0  0  0  0  0  0
   -5.4923    1.4404    0.3561 C   0  0  0  0  0  0  0  0  0  0  0  0
   -2.3694    2.6566    0.0948 H   0  0  0  0  0  0  0  0  0  0  0  0
   -2.3167    2.4976   -1.6668 H   0  0  0  0  0  0  0  0  0  0  0  0
   -0.8719    2.1636   -0.6843 H   0  0  0  0  0  0  0  0  0  0  0  0
   -1.4411    0.9319   -3.2611 H   0  0  0  0  0  0  0  0  0  0  0  0
    2.2229    0.3182   -4.8357 H   0  0  0  0  0  0  0  0  0  0  0  0
    1.2362    2.4180   -2.0553 H   0  0  0  0  0  0  0  0  0  0  0  0
    2.5655    2.7662    0.0134 H   0  0  0  0  0  0  0  0  0  0  0  0
    3.6812   -0.9821   -3.1210 H   0  0  0  0  0  0  0  0  0  0  0  0
    5.7014   -2.2495   -2.2094 H   0  0  0  0  0  0  0  0  0  0  0  0
    7.6438   -3.1416   -0.9506 H   0  0  0  0  0  0  0  0  0  0  0  0
    8.3638   -2.0891    1.1724 H   0  0  0  0  0  0  0  0  0  0  0  0
    7.1497   -0.1196    2.0801 H   0  0  0  0  0  0  0  0  0  0  0  0
    4.9811    3.2719    1.0012 H   0  0  0  0  0  0  0  0  0  0  0  0
    6.1724    2.5932   -0.1135 H   0  0  0  0  0  0  0  0  0  0  0  0
    6.3820    2.3947    1.6298 H   0  0  0  0  0  0  0  0  0  0  0  0
    3.5207   -0.0714    2.0731 H   0  0  0  0  0  0  0  0  0  0  0  0
    3.3911    1.6747    2.3112 H   0  0  0  0  0  0  0  0  0  0  0  0
    4.7913    0.7973    2.9412 H   0  0  0  0  0  0  0  0  0  0  0  0
   -4.3808   -3.4735   -1.3866 H   0  0  0  0  0  0  0  0  0  0  0  0
   -3.0671   -4.0328   -0.3352 H   0  0  0  0  0  0  0  0  0  0  0  0
   -4.7354   -4.4314    0.0589 H   0  0  0  0  0  0  0  0  0  0  0  0
   -3.8788   -1.7950    2.5917 H   0  0  0  0  0  0  0  0  0  0  0  0
   -2.6805   -2.9126    1.9388 H   0  0  0  0  0  0  0  0  0  0  0  0
   -4.3048   -3.4879    2.3475 H   0  0  0  0  0  0  0  0  0  0  0  0
   -6.3299   -2.8630    0.7267 H   0  0  0  0  0  0  0  0  0  0  0  0
   -5.9655   -1.2449    1.2692 H   0  0  0  0  0  0  0  0  0  0  0  0
   -6.0429   -1.5933   -0.4709 H   0  0  0  0  0  0  0  0  0  0  0  0
   -3.2330    0.6007    2.7632 H   0  0  0  0  0  0  0  0  0  0  0  0
   -4.8248    1.8894    4.1486 H   0  0  0  0  0  0  0  0  0  0  0  0
   -6.8422    2.9003    3.1162 H   0  0  0  0  0  0  0  0  0  0  0  0
   -7.2626    2.6253    0.6860 H   0  0  0  0  0  0  0  0  0  0  0  0
   -5.6825    1.3309   -0.7091 H   0  0  0  0  0  0  0  0  0  0  0  0
  1  2  1  0
  2  3  1  0
  3  4  1  0
  4  5  2  0
  4  6  1  0
  6  7  1  0
  7  8  2  0
  8  9  1  0
  9 10  2  0
 10 11  1  0
 11 12  2  0
 12 13  1  0
 13 14  2  0
 13 15  1  0
 15 16  2  0
 16 17  1  0
 17 18  2  0
 18 19  1  0
 19 20  2  0
 20 21  1  0
 21 22  1  0
 21 23  1  0
  3 24  2  0
 24 25  1  0
 25 26  1  0
 26 27  1  0
 26 28  1  0
 26 29  1  0
 25 30  1  0
 30 31  1  0
 31 32  2  0
 32 33  1  0
 33 34  2  0
 34 35  1  0
 35 36  2  0
 30  2  2  0
 36 31  1  0
 14  9  1  0
 20 15  1  0
 21 12  1  0
  1 37  1  0
  1 38  1  0
  1 39  1  0
  6 40  1  0
  8 41  1  0
 10 42  1  0
 11 43  1  0
 14 44  1  0
 16 45  1  0
 17 46  1  0
 18 47  1  0
 19 48  1  0
 22 49  1  0
 22 50  1  0
 22 51  1  0
 23 52  1  0
 23 53  1  0
 23 54  1  0
 27 55  1  0
 27 56  1  0
 27 57  1  0
 28 58  1  0
 28 59  1  0
 28 60  1  0
 29 61  1  0
 29 62  1  0
 29 63  1  0
 32 64  1  0
 33 65  1  0
 34 66  1  0
 35 67  1  0
 36 68  1  0
M  END
>  <_SMILES>  (54) 
Cc1c(C(=O)N/N=C\c2ccc3c(c2)-c2ccccc2C3(C)C)nn(C(C)(C)C)c1-c1ccccc1

$$$$

     RDKit          3D

 63 68  0  0  0  0  0  0  0  0999 V2000
   -0.9060   -3.3512    0.4967 C   0  0  0  0  0  0  0  0  0  0  0  0
   -1.1991   -1.9754    0.0182 C   0  0  0  0  0  0  0  0  0  0  0  0
   -0.2514   -0.9365   -0.2249 C   0  0  0  0  0  0  0  0  0  0  0  0
    1.2159   -0.9909   -0.0588 C   0  0  0  0  0  0  0  0  0  0  0  0
    1.8097   -1.9921    0.3265 O   0  0  0  0  0  0  0  0  0  0  0  0
    1.8276    0.2004   -0.3849 N   0  0  0  0  0  0  0  0  0  0  0  0
    3.2583    0.4799   -0.3354 C   0  0  2  0  0  0  0  0  0  0  0  0
    4.0534   -0.4443   -1.2904 C   0  0  0  0  0  0  0  0  0  0  0  0
    5.5523   -0.0974   -1.2558 C   0  0  1  0  0  0  0  0  0  0  0  0
    5.7467    1.3609   -1.7002 C   0  0  0  0  0  0  0  0  0  0  0  0
    4.9842    2.3034   -0.7559 C   0  0  2  0  0  0  0  0  0  0  0  0
    5.5148    2.1284    0.6757 C   0  0  0  0  0  0  0  0  0  0  0  0
    5.3191    0.6746    1.1339 C   0  0  2  0  0  0  0  0  0  0  0  0
    6.0774   -0.2644    0.1803 C   0  0  0  0  0  0  0  0  0  0  0  0
    3.8201    0.3279    1.0999 C   0  0  0  0  0  0  0  0  0  0  0  0
    3.4895    1.9467   -0.7865 C   0  0  0  0  0  0  0  0  0  0  0  0
   -0.8584    0.1877   -0.6593 N   0  0  0  0  0  0  0  0  0  0  0  0
   -2.1743   -0.1244   -0.6651 N   0  0  0  0  0  0  0  0  0  0  0  0
   -3.1368    0.8807   -1.1102 C   0  0  0  0  0  0  0  0  0  0  0  0
   -3.8336    1.5617    0.0428 C   0  0  0  0  0  0  0  0  0  0  0  0
   -3.1081    2.3186    0.9756 C   0  0  0  0  0  0  0  0  0  0  0  0
   -3.7585    2.9518    2.0356 C   0  0  0  0  0  0  0  0  0  0  0  0
   -5.1405    2.8409    2.1728 C   0  0  0  0  0  0  0  0  0  0  0  0
   -5.8739    2.0981    1.2499 C   0  0  0  0  0  0  0  0  0  0  0  0
   -5.2256    1.4643    0.1885 C   0  0  0  0  0  0  0  0  0  0  0  0
   -2.4324   -1.4218   -0.2887 C   0  0  0  0  0  0  0  0  0  0  0  0
   -3.7640   -2.0100   -0.2353 C   0  0  0  0  0  0  0  0  0  0  0  0
   -4.2885   -2.6686   -1.3526 C   0  0  0  0  0  0  0  0  0  0  0  0
   -5.5672   -3.2264   -1.3021 C   0  0  0  0  0  0  0  0  0  0  0  0
   -6.3242   -3.1320   -0.1348 C   0  0  0  0  0  0  0  0  0  0  0  0
   -5.8028   -2.4843    0.9845 C   0  0  0  0  0  0  0  0  0  0  0  0
   -4.5239   -1.9274    0.9361 C   0  0  0  0  0  0  0  0  0  0  0  0
   -0.4151   -3.3189    1.4747 H   0  0  0  0  0  0  0  0  0  0  0  0
   -1.8162   -3.9496    0.6014 H   0  0  0  0  0  0  0  0  0  0  0  0
   -0.2471   -3.8684   -0.2080 H   0  0  0  0  0  0  0  0  0  0  0  0
    1.1768    0.9204   -0.6922 H   0  0  0  0  0  0  0  0  0  0  0  0
    3.9235   -1.4973   -1.0136 H   0  0  0  0  0  0  0  0  0  0  0  0
    3.6711   -0.3470   -2.3151 H   0  0  0  0  0  0  0  0  0  0  0  0
    6.1009   -0.7648   -1.9298 H   0  0  0  0  0  0  0  0  0  0  0  0
    5.3887    1.4902   -2.7290 H   0  0  0  0  0  0  0  0  0  0  0  0
    6.8142    1.6136   -1.7005 H   0  0  0  0  0  0  0  0  0  0  0  0
    5.1237    3.3415   -1.0776 H   0  0  0  0  0  0  0  0  0  0  0  0
    4.9900    2.8100    1.3563 H   0  0  0  0  0  0  0  0  0  0  0  0
    6.5783    2.3943    0.7164 H   0  0  0  0  0  0  0  0  0  0  0  0
    5.7023    0.5542    2.1533 H   0  0  0  0  0  0  0  0  0  0  0  0
    7.1513   -0.0431    0.2137 H   0  0  0  0  0  0  0  0  0  0  0  0
    5.9569   -1.3053    0.5048 H   0  0  0  0  0  0  0  0  0  0  0  0
    3.2702    0.9797    1.7915 H   0  0  0  0  0  0  0  0  0  0  0  0
    3.6815   -0.6956    1.4678 H   0  0  0  0  0  0  0  0  0  0  0  0
    2.9317    2.6339   -0.1362 H   0  0  0  0  0  0  0  0  0  0  0  0
    3.0941    2.0966   -1.8002 H   0  0  0  0  0  0  0  0  0  0  0  0
   -2.5983    1.6239   -1.7107 H   0  0  0  0  0  0  0  0  0  0  0  0
   -3.8460    0.3822   -1.7801 H   0  0  0  0  0  0  0  0  0  0  0  0
   -2.0271    2.4133    0.8843 H   0  0  0  0  0  0  0  0  0  0  0  0
   -3.1851    3.5306    2.7552 H   0  0  0  0  0  0  0  0  0  0  0  0
   -5.6458    3.3333    2.9994 H   0  0  0  0  0  0  0  0  0  0  0  0
   -6.9519    2.0103    1.3574 H   0  0  0  0  0  0  0  0  0  0  0  0
   -5.8161    0.8830   -0.5172 H   0  0  0  0  0  0  0  0  0  0  0  0
   -3.7021   -2.7551   -2.2644 H   0  0  0  0  0  0  0  0  0  0  0  0
   -5.9703   -3.7395   -2.1715 H   0  0  0  0  0  0  0  0  0  0  0  0
   -7.3186   -3.5693   -0.0948 H   0  0  0  0  0  0  0  0  0  0  0  0
   -6.3895   -2.4137    1.8967 H   0  0  0  0  0  0  0  0  0  0  0  0
   -4.1258   -1.4224    1.8140 H   0  0  0  0  0  0  0  0  0  0  0  0
  1  2  1  0
  2  3  1  0
  3  4  1  0
  4  5  2  0
  4  6  1  0
  7  6  1  1
  7  8  1  0
  8  9  1  0
  9 10  1  0
 10 11  1  0
 11 12  1  0
 12 13  1  0
 13 14  1  0
 13 15  1  0
 11 16  1  0
  3 17  2  0
 17 18  1  0
 18 19  1  0
 19 20  1  0
 20 21  2  0
 21 22  1  0
 22 23  2  0
 23 24  1  0
 24 25  2  0
 18 26  1  0
 26 27  1  0
 27 28  2  0
 28 29  1  0
 29 30  2  0
 30 31  1  0
 31 32  2  0
 26  2  2  0
 32 27  1  0
 15  7  1  0
 25 20  1  0
 16  7  1  0
 14  9  1  0
  1 33  1  0
  1 34  1  0
  1 35  1  0
  6 36  1  0
  8 37  1  0
  8 38  1  0
  9 39  1  6
 10 40  1  0
 10 41  1  0
 11 42  1  6
 12 43  1  0
 12 44  1  0
 13 45  1  1
 14 46  1  0
 14 47  1  0
 15 48  1  0
 15 49  1  0
 16 50  1  0
 16 51  1  0
 19 52  1  0
 19 53  1  0
 21 54  1  0
 22 55  1  0
 23 56  1  0
 24 57  1  0
 25 58  1  0
 28 59  1  0
 29 60  1  0
 30 61  1  0
 31 62  1  0
 32 63  1  0
M  END
>  <_SMILES>  (55) 
Cc1c(C(=O)N[C@]23C[C@H]4C[C@H](C[C@H](C4)C2)C3)nn(Cc2ccccc2)c1-c1ccccc1

$$$$

     RDKit          3D

 63 68  0  0  0  0  0  0  0  0999 V2000
   -1.3062   -3.0667   -1.0203 C   0  0  0  0  0  0  0  0  0  0  0  0
   -1.4121   -1.7943   -0.2601 C   0  0  0  0  0  0  0  0  0  0  0  0
   -0.3391   -0.9267    0.1048 C   0  0  0  0  0  0  0  0  0  0  0  0
    1.1001   -1.0932   -0.1868 C   0  0  0  0  0  0  0  0  0  0  0  0
    1.5506   -2.0481   -0.8099 O   0  0  0  0  0  0  0  0  0  0  0  0
    1.8631   -0.0626    0.3185 N   0  0  0  0  0  0  0  0  0  0  0  0
    3.3115    0.0737    0.2111 C   0  0  2  0  0  0  0  0  0  0  0  0
    3.7684    0.1628   -1.2660 C   0  0  0  0  0  0  0  0  0  0  0  0
    5.2931    0.3543   -1.3504 C   0  0  1  0  0  0  0  0  0  0  0  0
    5.6822    1.6555   -0.6312 C   0  0  0  0  0  0  0  0  0  0  0  0
    5.2587    1.5864    0.8444 C   0  0  2  0  0  0  0  0  0  0  0  0
    5.9597    0.3975    1.5201 C   0  0  0  0  0  0  0  0  0  0  0  0
    5.5722   -0.9110    0.8134 C   0  0  2  0  0  0  0  0  0  0  0  0
    5.9909   -0.8327   -0.6646 C   0  0  0  0  0  0  0  0  0  0  0  0
    4.0476   -1.1029    0.8983 C   0  0  0  0  0  0  0  0  0  0  0  0
    3.7369    1.3854    0.9230 C   0  0  0  0  0  0  0  0  0  0  0  0
   -0.7877    0.1415    0.7969 N   0  0  0  0  0  0  0  0  0  0  0  0
   -2.1270   -0.0340    0.8497 N   0  0  0  0  0  0  0  0  0  0  0  0
   -2.9417    0.9589    1.5453 C   0  0  0  0  0  0  0  0  0  0  0  0
   -3.6308    1.9051    0.5900 C   0  0  0  0  0  0  0  0  0  0  0  0
   -2.8822    2.7740   -0.2224 C   0  0  0  0  0  0  0  0  0  0  0  0
   -3.5226    3.6475   -1.1023 C   0  0  0  0  0  0  0  0  0  0  0  0
   -4.9100    3.6576   -1.1694 C   0  0  0  0  0  0  0  0  0  0  0  0
   -5.5241    4.4950   -2.0153 F   0  0  0  0  0  0  0  0  0  0  0  0
   -5.6705    2.8113   -0.3721 C   0  0  0  0  0  0  0  0  0  0  0  0
   -5.0330    1.9370    0.5094 C   0  0  0  0  0  0  0  0  0  0  0  0
   -2.5539   -1.1944    0.2479 C   0  0  0  0  0  0  0  0  0  0  0  0
   -3.9462   -1.6178    0.1803 C   0  0  0  0  0  0  0  0  0  0  0  0
   -4.5170   -2.3391    1.2343 C   0  0  0  0  0  0  0  0  0  0  0  0
   -5.8544   -2.7343    1.1708 C   0  0  0  0  0  0  0  0  0  0  0  0
   -6.6244   -2.4145    0.0529 C   0  0  0  0  0  0  0  0  0  0  0  0
   -6.0578   -1.7041   -1.0046 C   0  0  0  0  0  0  0  0  0  0  0  0
   -4.7205   -1.3094   -0.9433 C   0  0  0  0  0  0  0  0  0  0  0  0
   -2.2809   -3.5466   -1.1507 H   0  0  0  0  0  0  0  0  0  0  0  0
   -0.6562   -3.7733   -0.4945 H   0  0  0  0  0  0  0  0  0  0  0  0
   -0.8894   -2.8829   -2.0158 H   0  0  0  0  0  0  0  0  0  0  0  0
    1.3200    0.6399    0.8159 H   0  0  0  0  0  0  0  0  0  0  0  0
    3.4912   -0.7439   -1.8167 H   0  0  0  0  0  0  0  0  0  0  0  0
    3.2590    0.9951   -1.7692 H   0  0  0  0  0  0  0  0  0  0  0  0
    5.6005    0.4071   -2.4008 H   0  0  0  0  0  0  0  0  0  0  0  0
    5.2018    2.5121   -1.1198 H   0  0  0  0  0  0  0  0  0  0  0  0
    6.7653    1.8142   -0.7032 H   0  0  0  0  0  0  0  0  0  0  0  0
    5.5359    2.5167    1.3526 H   0  0  0  0  0  0  0  0  0  0  0  0
    7.0475    0.5346    1.4851 H   0  0  0  0  0  0  0  0  0  0  0  0
    5.6788    0.3490    2.5794 H   0  0  0  0  0  0  0  0  0  0  0  0
    6.0774   -1.7549    1.2964 H   0  0  0  0  0  0  0  0  0  0  0  0
    7.0795   -0.7199   -0.7391 H   0  0  0  0  0  0  0  0  0  0  0  0
    5.7319   -1.7670   -1.1776 H   0  0  0  0  0  0  0  0  0  0  0  0
    3.7387   -1.1793    1.9492 H   0  0  0  0  0  0  0  0  0  0  0  0
    3.7807   -2.0579    0.4303 H   0  0  0  0  0  0  0  0  0  0  0  0
    3.2261    2.2446    0.4678 H   0  0  0  0  0  0  0  0  0  0  0  0
    3.4206    1.3638    1.9746 H   0  0  0  0  0  0  0  0  0  0  0  0
   -3.6577    0.4178    2.1733 H   0  0  0  0  0  0  0  0  0  0  0  0
   -2.2874    1.5231    2.2209 H   0  0  0  0  0  0  0  0  0  0  0  0
   -1.7939    2.7673   -0.1780 H   0  0  0  0  0  0  0  0  0  0  0  0
   -2.9485    4.3163   -1.7356 H   0  0  0  0  0  0  0  0  0  0  0  0
   -6.7532    2.8352   -0.4437 H   0  0  0  0  0  0  0  0  0  0  0  0
   -5.6386    1.2719    1.1227 H   0  0  0  0  0  0  0  0  0  0  0  0
   -3.9221   -2.6029    2.1056 H   0  0  0  0  0  0  0  0  0  0  0  0
   -6.2937   -3.2977    1.9901 H   0  0  0  0  0  0  0  0  0  0  0  0
   -7.6647   -2.7260    0.0021 H   0  0  0  0  0  0  0  0  0  0  0  0
   -6.6552   -1.4593   -1.8792 H   0  0  0  0  0  0  0  0  0  0  0  0
   -4.2871   -0.7546   -1.7729 H   0  0  0  0  0  0  0  0  0  0  0  0
  1  2  1  0
  2  3  1  0
  3  4  1  0
  4  5  2  0
  4  6  1  0
  7  6  1  6
  7  8  1  0
  8  9  1  0
  9 10  1  0
 10 11  1  0
 11 12  1  0
 12 13  1  0
 13 14  1  0
 13 15  1  0
 11 16  1  0
  3 17  2  0
 17 18  1  0
 18 19  1  0
 19 20  1  0
 20 21  1  0
 21 22  2  0
 22 23  1  0
 23 24  1  0
 23 25  2  0
 25 26  1  0
 18 27  1  0
 27 28  1  0
 28 29  2  0
 29 30  1  0
 30 31  2  0
 31 32  1  0
 32 33  2  0
 27  2  2  0
 33 28  1  0
 15  7  1  0
 26 20  2  0
 16  7  1  0
 14  9  1  0
  1 34  1  0
  1 35  1  0
  1 36  1  0
  6 37  1  0
  8 38  1  0
  8 39  1  0
  9 40  1  6
 10 41  1  0
 10 42  1  0
 11 43  1  1
 12 44  1  0
 12 45  1  0
 13 46  1  1
 14 47  1  0
 14 48  1  0
 15 49  1  0
 15 50  1  0
 16 51  1  0
 16 52  1  0
 19 53  1  0
 19 54  1  0
 21 55  1  0
 22 56  1  0
 25 57  1  0
 26 58  1  0
 29 59  1  0
 30 60  1  0
 31 61  1  0
 32 62  1  0
 33 63  1  0
M  END
>  <_SMILES>  (56) 
Cc1c(C(=O)N[C@]23C[C@H]4C[C@H](C[C@H](C4)C2)C3)nn(Cc2ccc(F)cc2)c1-c1ccccc1

$$$$

     RDKit          3D

 60 65  0  0  0  0  0  0  0  0999 V2000
    0.4959    2.0485   -1.0518 C   0  0  0  0  0  0  0  0  0  0  0  0
    1.2394    0.8324   -0.6227 C   0  0  0  0  0  0  0  0  0  0  0  0
    0.7216   -0.4830   -0.4565 C   0  0  0  0  0  0  0  0  0  0  0  0
   -0.6743   -0.9473   -0.5949 C   0  0  0  0  0  0  0  0  0  0  0  0
   -0.9705   -2.0111   -1.1285 O   0  0  0  0  0  0  0  0  0  0  0  0
   -1.6048   -0.0845   -0.0386 N   0  0  0  0  0  0  0  0  0  0  0  0
   -3.0413   -0.3580    0.0542 C   0  0  2  0  0  0  0  0  0  0  0  0
   -3.6853   -0.5639   -1.3405 C   0  0  0  0  0  0  0  0  0  0  0  0
   -5.2015   -0.7940   -1.2089 C   0  0  1  0  0  0  0  0  0  0  0  0
   -5.4505   -2.0341   -0.3335 C   0  0  0  0  0  0  0  0  0  0  0  0
   -4.8483   -1.8243    1.0664 C   0  0  2  0  0  0  0  0  0  0  0  0
   -5.4945   -0.5902    1.7159 C   0  0  0  0  0  0  0  0  0  0  0  0
   -5.2412    0.6529    0.8486 C   0  0  2  0  0  0  0  0  0  0  0  0
   -5.8464    0.4329   -0.5461 C   0  0  0  0  0  0  0  0  0  0  0  0
   -3.7263    0.8716    0.7115 C   0  0  0  0  0  0  0  0  0  0  0  0
   -3.3318   -1.5960    0.9373 C   0  0  0  0  0  0  0  0  0  0  0  0
    1.6998   -1.3434   -0.1542 N   0  0  0  0  0  0  0  0  0  0  0  0
    2.8375   -0.6116   -0.0408 N   0  0  0  0  0  0  0  0  0  0  0  0
    4.0302   -1.2834    0.3893 C   0  0  0  0  0  0  0  0  0  0  0  0
    4.0384   -2.6920    0.4161 C   0  0  0  0  0  0  0  0  0  0  0  0
    5.1737   -3.3978    0.8267 C   0  0  0  0  0  0  0  0  0  0  0  0
    6.3096   -2.7021    1.2244 C   0  0  0  0  0  0  0  0  0  0  0  0
    7.8473   -3.6482    1.7816 Br  0  0  0  0  0  0  0  0  0  0  0  0
    6.3158   -1.3100    1.2213 C   0  0  0  0  0  0  0  0  0  0  0  0
    5.1788   -0.6018    0.8099 C   0  0  0  0  0  0  0  0  0  0  0  0
    2.6030    0.7259   -0.3658 C   0  0  0  0  0  0  0  0  0  0  0  0
    3.6056    1.7782   -0.5130 C   0  0  0  0  0  0  0  0  0  0  0  0
    3.6610    2.8330    0.4071 C   0  0  0  0  0  0  0  0  0  0  0  0
    4.6064    3.8489    0.2556 C   0  0  0  0  0  0  0  0  0  0  0  0
    5.4935    3.8218   -0.8198 C   0  0  0  0  0  0  0  0  0  0  0  0
    5.4343    2.7830   -1.7480 C   0  0  0  0  0  0  0  0  0  0  0  0
    4.4900    1.7659   -1.5992 C   0  0  0  0  0  0  0  0  0  0  0  0
    1.1431    2.7467   -1.5919 H   0  0  0  0  0  0  0  0  0  0  0  0
    0.0848    2.5673   -0.1802 H   0  0  0  0  0  0  0  0  0  0  0  0
   -0.3284    1.7911   -1.7244 H   0  0  0  0  0  0  0  0  0  0  0  0
   -1.2292    0.6143    0.5883 H   0  0  0  0  0  0  0  0  0  0  0  0
   -3.4931    0.3097   -1.9773 H   0  0  0  0  0  0  0  0  0  0  0  0
   -3.2429   -1.4228   -1.8577 H   0  0  0  0  0  0  0  0  0  0  0  0
   -5.6383   -0.9489   -2.2019 H   0  0  0  0  0  0  0  0  0  0  0  0
   -6.5279   -2.2235   -0.2520 H   0  0  0  0  0  0  0  0  0  0  0  0
   -5.0064   -2.9202   -0.8035 H   0  0  0  0  0  0  0  0  0  0  0  0
   -5.0364   -2.7083    1.6859 H   0  0  0  0  0  0  0  0  0  0  0  0
   -5.0829   -0.4368    2.7210 H   0  0  0  0  0  0  0  0  0  0  0  0
   -6.5731   -0.7508    1.8347 H   0  0  0  0  0  0  0  0  0  0  0  0
   -5.7011    1.5303    1.3169 H   0  0  0  0  0  0  0  0  0  0  0  0
   -5.6880    1.3221   -1.1686 H   0  0  0  0  0  0  0  0  0  0  0  0
   -6.9309    0.2893   -0.4661 H   0  0  0  0  0  0  0  0  0  0  0  0
   -3.2912    1.0614    1.7020 H   0  0  0  0  0  0  0  0  0  0  0  0
   -3.5336    1.7738    0.1155 H   0  0  0  0  0  0  0  0  0  0  0  0
   -2.8687   -2.4954    0.5143 H   0  0  0  0  0  0  0  0  0  0  0  0
   -2.8884   -1.4620    1.9327 H   0  0  0  0  0  0  0  0  0  0  0  0
    3.1630   -3.2627    0.1062 H   0  0  0  0  0  0  0  0  0  0  0  0
    5.1543   -4.4844    0.8303 H   0  0  0  0  0  0  0  0  0  0  0  0
    7.1967   -0.7609    1.5449 H   0  0  0  0  0  0  0  0  0  0  0  0
    5.2317    0.4781    0.8679 H   0  0  0  0  0  0  0  0  0  0  0  0
    2.9733    2.8661    1.2489 H   0  0  0  0  0  0  0  0  0  0  0  0
    4.6500    4.6627    0.9751 H   0  0  0  0  0  0  0  0  0  0  0  0
    6.2287    4.6141   -0.9382 H   0  0  0  0  0  0  0  0  0  0  0  0
    6.1213    2.7662   -2.5905 H   0  0  0  0  0  0  0  0  0  0  0  0
    4.4485    0.9656   -2.3352 H   0  0  0  0  0  0  0  0  0  0  0  0
  1  2  1  0
  2  3  1  0
  3  4  1  0
  4  5  2  0
  4  6  1  0
  7  6  1  6
  7  8  1  0
  8  9  1  0
  9 10  1  0
 10 11  1  0
 11 12  1  0
 12 13  1  0
 13 14  1  0
 13 15  1  0
 11 16  1  0
  3 17  2  0
 17 18  1  0
 18 19  1  0
 19 20  1  0
 20 21  2  0
 21 22  1  0
 22 23  1  0
 22 24  2  0
 24 25  1  0
 18 26  1  0
 26 27  1  0
 27 28  2  0
 28 29  1  0
 29 30  2  0
 30 31  1  0
 31 32  2  0
 26  2  2  0
 32 27  1  0
 15  7  1  0
 25 19  2  0
 16  7  1  0
 14  9  1  0
  1 33  1  0
  1 34  1  0
  1 35  1  0
  6 36  1  0
  8 37  1  0
  8 38  1  0
  9 39  1  6
 10 40  1  0
 10 41  1  0
 11 42  1  1
 12 43  1  0
 12 44  1  0
 13 45  1  1
 14 46  1  0
 14 47  1  0
 15 48  1  0
 15 49  1  0
 16 50  1  0
 16 51  1  0
 20 52  1  0
 21 53  1  0
 24 54  1  0
 25 55  1  0
 28 56  1  0
 29 57  1  0
 30 58  1  0
 31 59  1  0
 32 60  1  0
M  END
>  <_SMILES>  (57) 
Cc1c(C(=O)N[C@]23C[C@H]4C[C@H](C[C@H](C4)C2)C3)nn(-c2ccc(Br)cc2)c1-c1ccccc1

$$$$

     RDKit          3D

 47 51  0  0  0  0  0  0  0  0999 V2000
   -0.5371   -2.4741   -0.6174 O   0  0  0  0  0  0  0  0  0  0  0  0
    0.0941   -1.4504   -0.3717 C   0  0  0  0  0  0  0  0  0  0  0  0
   -0.5201   -0.2505   -0.0430 N   0  0  0  0  0  0  0  0  0  0  0  0
   -1.9711   -0.0393   -0.0126 C   0  0  2  0  0  0  0  0  0  0  0  0
   -2.6082   -0.2413   -1.4096 C   0  0  0  0  0  0  0  0  0  0  0  0
   -4.1197    0.0446   -1.3616 C   0  0  1  0  0  0  0  0  0  0  0  0
   -4.7831   -0.9031   -0.3477 C   0  0  0  0  0  0  0  0  0  0  0  0
   -4.1854   -0.6835    1.0527 C   0  0  2  0  0  0  0  0  0  0  0  0
   -4.4144    0.7746    1.4792 C   0  0  0  0  0  0  0  0  0  0  0  0
   -3.7450    1.7249    0.4748 C   0  0  2  0  0  0  0  0  0  0  0  0
   -4.3481    1.4989   -0.9204 C   0  0  0  0  0  0  0  0  0  0  0  0
   -2.2381    1.4270    0.4268 C   0  0  0  0  0  0  0  0  0  0  0  0
   -2.6738   -0.9701    1.0084 C   0  0  0  0  0  0  0  0  0  0  0  0
    1.5730   -1.3881   -0.4184 C   0  0  0  0  0  0  0  0  0  0  0  0
    2.4381   -0.4009    0.1378 C   0  0  0  0  0  0  0  0  0  0  0  0
    3.7284   -0.7969   -0.1574 C   0  0  0  0  0  0  0  0  0  0  0  0
    5.0243   -0.1957    0.1473 C   0  0  0  0  0  0  0  0  0  0  0  0
    6.1564   -0.9896    0.3808 C   0  0  0  0  0  0  0  0  0  0  0  0
    7.3916   -0.4026    0.6701 C   0  0  0  0  0  0  0  0  0  0  0  0
    7.5094    0.9838    0.7304 C   0  0  0  0  0  0  0  0  0  0  0  0
    6.3926    1.7846    0.5056 C   0  0  0  0  0  0  0  0  0  0  0  0
    5.1571    1.1980    0.2180 C   0  0  0  0  0  0  0  0  0  0  0  0
    3.5724   -1.9577   -0.8669 N   0  0  0  0  0  0  0  0  0  0  0  0
    2.2998   -2.3385   -1.0332 N   0  0  0  0  0  0  0  0  0  0  0  0
    0.0594    0.5754   -0.0677 H   0  0  0  0  0  0  0  0  0  0  0  0
   -2.4492   -1.2651   -1.7682 H   0  0  0  0  0  0  0  0  0  0  0  0
   -2.1264    0.4186   -2.1429 H   0  0  0  0  0  0  0  0  0  0  0  0
   -4.5560   -0.1125   -2.3544 H   0  0  0  0  0  0  0  0  0  0  0  0
   -4.6380   -1.9451   -0.6580 H   0  0  0  0  0  0  0  0  0  0  0  0
   -5.8654   -0.7260   -0.3237 H   0  0  0  0  0  0  0  0  0  0  0  0
   -4.6674   -1.3574    1.7698 H   0  0  0  0  0  0  0  0  0  0  0  0
   -4.0049    0.9404    2.4832 H   0  0  0  0  0  0  0  0  0  0  0  0
   -5.4896    0.9847    1.5352 H   0  0  0  0  0  0  0  0  0  0  0  0
   -3.9074    2.7635    0.7839 H   0  0  0  0  0  0  0  0  0  0  0  0
   -5.4221    1.7216   -0.9050 H   0  0  0  0  0  0  0  0  0  0  0  0
   -3.8908    2.1861   -1.6427 H   0  0  0  0  0  0  0  0  0  0  0  0
   -1.7917    1.6122    1.4131 H   0  0  0  0  0  0  0  0  0  0  0  0
   -1.7476    2.1239   -0.2662 H   0  0  0  0  0  0  0  0  0  0  0  0
   -2.2376   -0.8325    2.0065 H   0  0  0  0  0  0  0  0  0  0  0  0
   -2.5234   -2.0247    0.7515 H   0  0  0  0  0  0  0  0  0  0  0  0
    2.1593    0.4710    0.7116 H   0  0  0  0  0  0  0  0  0  0  0  0
    6.0930   -2.0748    0.3639 H   0  0  0  0  0  0  0  0  0  0  0  0
    8.2607   -1.0294    0.8546 H   0  0  0  0  0  0  0  0  0  0  0  0
    8.4701    1.4397    0.9561 H   0  0  0  0  0  0  0  0  0  0  0  0
    6.4817    2.8669    0.5524 H   0  0  0  0  0  0  0  0  0  0  0  0
    4.3023    1.8451    0.0372 H   0  0  0  0  0  0  0  0  0  0  0  0
    4.2980   -2.5356   -1.2760 H   0  0  0  0  0  0  0  0  0  0  0  0
  1  2  2  0
  2  3  1  0
  4  3  1  6
  4  5  1  0
  5  6  1  0
  6  7  1  0
  7  8  1  0
  8  9  1  0
  9 10  1  0
 10 11  1  0
 10 12  1  0
  8 13  1  0
  2 14  1  0
 14 15  1  0
 15 16  2  0
 16 17  1  0
 17 18  2  0
 18 19  1  0
 19 20  2  0
 20 21  1  0
 21 22  2  0
 16 23  1  0
 23 24  1  0
 12  4  1  0
 24 14  2  0
 13  4  1  0
 22 17  1  0
 11  6  1  0
  3 25  1  0
  5 26  1  0
  5 27  1  0
  6 28  1  6
  7 29  1  0
  7 30  1  0
  8 31  1  1
  9 32  1  0
  9 33  1  0
 10 34  1  1
 11 35  1  0
 11 36  1  0
 12 37  1  0
 12 38  1  0
 13 39  1  0
 13 40  1  0
 15 41  1  0
 18 42  1  0
 19 43  1  0
 20 44  1  0
 21 45  1  0
 22 46  1  0
 23 47  1  0
M  END
>  <_SMILES>  (58) 
O=C(N[C@]12C[C@H]3C[C@H](C[C@H](C3)C1)C2)c1cc(-c2ccccc2)[nH]n1

$$$$

     RDKit          3D

 47 51  0  0  0  0  0  0  0  0999 V2000
   -0.4438   -1.9475   -1.4988 O   0  0  0  0  0  0  0  0  0  0  0  0
    0.1447   -1.1088   -0.8261 C   0  0  0  0  0  0  0  0  0  0  0  0
   -0.4941   -0.1152   -0.1204 N   0  0  0  0  0  0  0  0  0  0  0  0
   -1.9462    0.0837   -0.0698 C   0  0  2  0  0  0  0  0  0  0  0  0
   -2.6727   -1.1409    0.5407 C   0  0  0  0  0  0  0  0  0  0  0  0
   -4.1874   -0.8833    0.6294 C   0  0  1  0  0  0  0  0  0  0  0  0
   -4.4436    0.3392    1.5245 C   0  0  0  0  0  0  0  0  0  0  0  0
   -3.7513    1.5767    0.9327 C   0  0  2  0  0  0  0  0  0  0  0  0
   -4.3066    1.8469   -0.4742 C   0  0  0  0  0  0  0  0  0  0  0  0
   -4.0496    0.6335   -1.3814 C   0  0  2  0  0  0  0  0  0  0  0  0
   -4.7370   -0.6043   -0.7800 C   0  0  0  0  0  0  0  0  0  0  0  0
   -2.5347    0.3777   -1.4724 C   0  0  0  0  0  0  0  0  0  0  0  0
   -2.2407    1.3109    0.8357 C   0  0  0  0  0  0  0  0  0  0  0  0
    1.5804   -1.1031   -0.7237 C   0  0  0  0  0  0  0  0  0  0  0  0
    2.4973   -0.3097   -0.0624 C   0  0  0  0  0  0  0  0  0  0  0  0
    3.7848   -0.8378   -0.3729 C   0  0  0  0  0  0  0  0  0  0  0  0
    5.1011   -0.3620    0.0759 C   0  0  0  0  0  0  0  0  0  0  0  0
    6.2722   -1.0145   -0.3428 C   0  0  0  0  0  0  0  0  0  0  0  0
    7.5311   -0.5741    0.0753 C   0  0  0  0  0  0  0  0  0  0  0  0
    7.6382    0.5272    0.9198 C   0  0  0  0  0  0  0  0  0  0  0  0
    6.4883    1.1874    1.3458 C   0  0  0  0  0  0  0  0  0  0  0  0
    5.2281    0.7464    0.9272 C   0  0  0  0  0  0  0  0  0  0  0  0
    3.6597   -1.9011   -1.1839 N   0  0  0  0  0  0  0  0  0  0  0  0
    2.3402   -2.0339   -1.3741 N   0  0  0  0  0  0  0  0  0  0  0  0
    0.0781    0.5291    0.4041 H   0  0  0  0  0  0  0  0  0  0  0  0
   -2.2714   -1.3582    1.5393 H   0  0  0  0  0  0  0  0  0  0  0  0
   -2.4998   -2.0406   -0.0612 H   0  0  0  0  0  0  0  0  0  0  0  0
   -4.6864   -1.7619    1.0533 H   0  0  0  0  0  0  0  0  0  0  0  0
   -4.0683    0.1476    2.5373 H   0  0  0  0  0  0  0  0  0  0  0  0
   -5.5219    0.5195    1.6134 H   0  0  0  0  0  0  0  0  0  0  0  0
   -3.9339    2.4452    1.5753 H   0  0  0  0  0  0  0  0  0  0  0  0
   -5.3827    2.0529   -0.4194 H   0  0  0  0  0  0  0  0  0  0  0  0
   -3.8328    2.7401   -0.8996 H   0  0  0  0  0  0  0  0  0  0  0  0
   -4.4510    0.8294   -2.3820 H   0  0  0  0  0  0  0  0  0  0  0  0
   -4.5720   -1.4755   -1.4259 H   0  0  0  0  0  0  0  0  0  0  0  0
   -5.8211   -0.4437   -0.7332 H   0  0  0  0  0  0  0  0  0  0  0  0
   -2.3562   -0.4598   -2.1569 H   0  0  0  0  0  0  0  0  0  0  0  0
   -2.0347    1.2485   -1.9164 H   0  0  0  0  0  0  0  0  0  0  0  0
   -1.7334    2.2014    0.4407 H   0  0  0  0  0  0  0  0  0  0  0  0
   -1.8293    1.1454    1.8406 H   0  0  0  0  0  0  0  0  0  0  0  0
    2.2809    0.5414    0.5649 H   0  0  0  0  0  0  0  0  0  0  0  0
    6.2100   -1.8778   -1.0032 H   0  0  0  0  0  0  0  0  0  0  0  0
    8.4241   -1.0943   -0.2611 H   0  0  0  0  0  0  0  0  0  0  0  0
    8.6169    0.8701    1.2451 H   0  0  0  0  0  0  0  0  0  0  0  0
    6.5707    2.0476    2.0053 H   0  0  0  0  0  0  0  0  0  0  0  0
    4.3555    1.2868    1.2807 H   0  0  0  0  0  0  0  0  0  0  0  0
    2.0004   -2.7867   -1.9653 H   0  0  0  0  0  0  0  0  0  0  0  0
  1  2  2  0
  2  3  1  0
  4  3  1  6
  4  5  1  0
  5  6  1  0
  6  7  1  0
  7  8  1  0
  8  9  1  0
  9 10  1  0
 10 11  1  0
 10 12  1  0
  8 13  1  0
  2 14  1  0
 14 15  2  0
 15 16  1  0
 16 17  1  0
 17 18  2  0
 18 19  1  0
 19 20  2  0
 20 21  1  0
 21 22  2  0
 16 23  2  0
 23 24  1  0
 12  4  1  0
 24 14  1  0
 13  4  1  0
 22 17  1  0
 11  6  1  0
  3 25  1  0
  5 26  1  0
  5 27  1  0
  6 28  1  1
  7 29  1  0
  7 30  1  0
  8 31  1  1
  9 32  1  0
  9 33  1  0
 10 34  1  6
 11 35  1  0
 11 36  1  0
 12 37  1  0
 12 38  1  0
 13 39  1  0
 13 40  1  0
 15 41  1  0
 18 42  1  0
 19 43  1  0
 20 44  1  0
 21 45  1  0
 22 46  1  0
 24 47  1  0
M  END
>  <_SMILES>  (59) 
O=C(N[C@]12C[C@H]3C[C@H](C[C@H](C3)C1)C2)c1cc(-c2ccccc2)n[nH]1

$$$$

     RDKit          3D

 53 57  0  0  0  0  0  0  0  0999 V2000
    1.7292   -1.0951   -1.1646 C   0  0  0  0  0  0  0  0  0  0  0  0
    2.1094    0.1230   -0.4025 C   0  0  0  0  0  0  0  0  0  0  0  0
    1.2610    1.2089   -0.0047 C   0  0  0  0  0  0  0  0  0  0  0  0
   -0.1960    1.3546   -0.2047 C   0  0  0  0  0  0  0  0  0  0  0  0
   -0.7234    2.4160   -0.5214 O   0  0  0  0  0  0  0  0  0  0  0  0
   -0.9062    0.1876    0.0284 N   0  0  0  0  0  0  0  0  0  0  0  0
   -2.3671    0.0842    0.0090 C   0  0  2  0  0  0  0  0  0  0  0  0
   -2.9593    0.4706   -1.3704 C   0  0  0  0  0  0  0  0  0  0  0  0
   -4.4887    0.2979   -1.3714 C   0  0  1  0  0  0  0  0  0  0  0  0
   -4.8349   -1.1707   -1.0818 C   0  0  0  0  0  0  0  0  0  0  0  0
   -4.2766   -1.5794    0.2898 C   0  0  2  0  0  0  0  0  0  0  0  0
   -4.8911   -0.6841    1.3773 C   0  0  0  0  0  0  0  0  0  0  0  0
   -4.5463    0.7882    1.1024 C   0  0  2  0  0  0  0  0  0  0  0  0
   -5.0988    1.1892   -0.2761 C   0  0  0  0  0  0  0  0  0  0  0  0
   -3.0171    0.9620    1.1062 C   0  0  0  0  0  0  0  0  0  0  0  0
   -2.7509   -1.3949    0.2878 C   0  0  0  0  0  0  0  0  0  0  0  0
    1.9700    2.1597    0.6265 N   0  0  0  0  0  0  0  0  0  0  0  0
    3.2290    1.6965    0.6427 N   0  0  0  0  0  0  0  0  0  0  0  0
    4.2565    2.4932    1.2743 C   0  0  0  0  0  0  0  0  0  0  0  0
    3.3772    0.4722    0.0411 C   0  0  0  0  0  0  0  0  0  0  0  0
    4.6463   -0.2360   -0.0767 C   0  0  0  0  0  0  0  0  0  0  0  0
    5.6332    0.2190   -0.9587 C   0  0  0  0  0  0  0  0  0  0  0  0
    6.8469   -0.4621   -1.0683 C   0  0  0  0  0  0  0  0  0  0  0  0
    7.0790   -1.6020   -0.2998 C   0  0  0  0  0  0  0  0  0  0  0  0
    6.0978   -2.0644    0.5762 C   0  0  0  0  0  0  0  0  0  0  0  0
    4.8832   -1.3848    0.6863 C   0  0  0  0  0  0  0  0  0  0  0  0
    2.5783   -1.4958   -1.7276 H   0  0  0  0  0  0  0  0  0  0  0  0
    0.9365   -0.8764   -1.8870 H   0  0  0  0  0  0  0  0  0  0  0  0
    1.3744   -1.8741   -0.4826 H   0  0  0  0  0  0  0  0  0  0  0  0
   -0.4000   -0.5306    0.5289 H   0  0  0  0  0  0  0  0  0  0  0  0
   -2.5122   -0.1484   -2.1593 H   0  0  0  0  0  0  0  0  0  0  0  0
   -2.7226    1.5096   -1.6256 H   0  0  0  0  0  0  0  0  0  0  0  0
   -4.8915    0.5858   -2.3489 H   0  0  0  0  0  0  0  0  0  0  0  0
   -5.9227   -1.3105   -1.1008 H   0  0  0  0  0  0  0  0  0  0  0  0
   -4.4173   -1.8159   -1.8645 H   0  0  0  0  0  0  0  0  0  0  0  0
   -4.5226   -2.6279    0.4915 H   0  0  0  0  0  0  0  0  0  0  0  0
   -4.5137   -0.9796    2.3640 H   0  0  0  0  0  0  0  0  0  0  0  0
   -5.9798   -0.8161    1.4004 H   0  0  0  0  0  0  0  0  0  0  0  0
   -4.9911    1.4222    1.8775 H   0  0  0  0  0  0  0  0  0  0  0  0
   -4.8702    2.2426   -0.4795 H   0  0  0  0  0  0  0  0  0  0  0  0
   -6.1916    1.0938   -0.2826 H   0  0  0  0  0  0  0  0  0  0  0  0
   -2.7763    2.0208    0.9535 H   0  0  0  0  0  0  0  0  0  0  0  0
   -2.6135    0.6948    2.0917 H   0  0  0  0  0  0  0  0  0  0  0  0
   -2.2984   -2.0508   -0.4682 H   0  0  0  0  0  0  0  0  0  0  0  0
   -2.3408   -1.7155    1.2550 H   0  0  0  0  0  0  0  0  0  0  0  0
    4.8904    1.8430    1.8820 H   0  0  0  0  0  0  0  0  0  0  0  0
    4.8388    2.9825    0.4900 H   0  0  0  0  0  0  0  0  0  0  0  0
    3.7888    3.2440    1.9171 H   0  0  0  0  0  0  0  0  0  0  0  0
    5.4586    1.0998   -1.5727 H   0  0  0  0  0  0  0  0  0  0  0  0
    7.6090   -0.1058   -1.7567 H   0  0  0  0  0  0  0  0  0  0  0  0
    8.0239   -2.1327   -0.3867 H   0  0  0  0  0  0  0  0  0  0  0  0
    6.2779   -2.9548    1.1731 H   0  0  0  0  0  0  0  0  0  0  0  0
    4.1254   -1.7535    1.3734 H   0  0  0  0  0  0  0  0  0  0  0  0
  1  2  1  0
  2  3  1  0
  3  4  1  0
  4  5  2  0
  4  6  1  0
  7  6  1  6
  7  8  1  0
  8  9  1  0
  9 10  1  0
 10 11  1  0
 11 12  1  0
 12 13  1  0
 13 14  1  0
 13 15  1  0
 11 16  1  0
  3 17  2  0
 17 18  1  0
 18 19  1  0
 18 20  1  0
 20 21  1  0
 21 22  2  0
 22 23  1  0
 23 24  2  0
 24 25  1  0
 25 26  2  0
 20  2  2  0
 26 21  1  0
 15  7  1  0
 16  7  1  0
 14  9  1  0
  1 27  1  0
  1 28  1  0
  1 29  1  0
  6 30  1  0
  8 31  1  0
  8 32  1  0
  9 33  1  6
 10 34  1  0
 10 35  1  0
 11 36  1  1
 12 37  1  0
 12 38  1  0
 13 39  1  1
 14 40  1  0
 14 41  1  0
 15 42  1  0
 15 43  1  0
 16 44  1  0
 16 45  1  0
 19 46  1  0
 19 47  1  0
 19 48  1  0
 22 49  1  0
 23 50  1  0
 24 51  1  0
 25 52  1  0
 26 53  1  0
M  END
>  <_SMILES>  (60) 
Cc1c(C(=O)N[C@]23C[C@H]4C[C@H](C[C@H](C4)C2)C3)nn(C)c1-c1ccccc1

$$$$

     RDKit          3D

 46 49  0  0  0  0  0  0  0  0999 V2000
    0.6723   -0.7115    2.3661 O   0  0  0  0  0  0  0  0  0  0  0  0
    1.1186   -0.3964    1.2673 C   0  0  0  0  0  0  0  0  0  0  0  0
    0.3357   -0.0484    0.1884 N   0  0  0  0  0  0  0  0  0  0  0  0
   -1.1291    0.0247    0.2021 C   0  0  2  0  0  0  0  0  0  0  0  0
   -1.7716   -1.3439    0.5408 C   0  0  0  0  0  0  0  0  0  0  0  0
   -3.3070   -1.2470    0.4972 C   0  0  1  0  0  0  0  0  0  0  0  0
   -3.7762   -0.1887    1.5103 C   0  0  0  0  0  0  0  0  0  0  0  0
   -3.1740    1.1830    1.1611 C   0  0  2  0  0  0  0  0  0  0  0  0
   -3.6177    1.5857   -0.2541 C   0  0  0  0  0  0  0  0  0  0  0  0
   -3.1438    0.5358   -1.2713 C   0  0  2  0  0  0  0  0  0  0  0  0
   -3.7503   -0.8299   -0.9137 C   0  0  0  0  0  0  0  0  0  0  0  0
   -1.6111    0.4364   -1.2159 C   0  0  0  0  0  0  0  0  0  0  0  0
   -1.6385    1.0887    1.2055 C   0  0  0  0  0  0  0  0  0  0  0  0
    2.6225   -0.3603    1.0091 C   0  0  0  0  0  0  0  0  0  0  0  0
    3.1192    1.0710    0.7408 C   0  0  0  0  0  0  0  0  0  0  0  0
    4.2920    1.1327   -0.2399 C   0  0  0  0  0  0  0  0  0  0  0  0
    5.2366   -0.0477   -0.0546 C   0  0  0  0  0  0  0  0  0  0  0  0
    4.5397   -1.3894   -0.2889 C   0  0  0  0  0  0  0  0  0  0  0  0
    3.0222   -1.3301   -0.1073 C   0  0  0  0  0  0  0  0  0  0  0  0
    0.8063    0.2833   -0.6429 H   0  0  0  0  0  0  0  0  0  0  0  0
   -1.4665   -1.6867    1.5361 H   0  0  0  0  0  0  0  0  0  0  0  0
   -1.4249   -2.1087   -0.1666 H   0  0  0  0  0  0  0  0  0  0  0  0
   -3.7450   -2.2193    0.7490 H   0  0  0  0  0  0  0  0  0  0  0  0
   -4.8714   -0.1277    1.5066 H   0  0  0  0  0  0  0  0  0  0  0  0
   -3.4773   -0.4821    2.5242 H   0  0  0  0  0  0  0  0  0  0  0  0
   -3.5182    1.9322    1.8827 H   0  0  0  0  0  0  0  0  0  0  0  0
   -3.2056    2.5694   -0.5106 H   0  0  0  0  0  0  0  0  0  0  0  0
   -4.7100    1.6783   -0.2924 H   0  0  0  0  0  0  0  0  0  0  0  0
   -3.4597    0.8282   -2.2789 H   0  0  0  0  0  0  0  0  0  0  0  0
   -4.8449   -0.7785   -0.9631 H   0  0  0  0  0  0  0  0  0  0  0  0
   -3.4337   -1.5841   -1.6446 H   0  0  0  0  0  0  0  0  0  0  0  0
   -1.2600   -0.2915   -1.9596 H   0  0  0  0  0  0  0  0  0  0  0  0
   -1.1686    1.4008   -1.4995 H   0  0  0  0  0  0  0  0  0  0  0  0
   -1.1971    2.0671    0.9744 H   0  0  0  0  0  0  0  0  0  0  0  0
   -1.3252    0.8452    2.2275 H   0  0  0  0  0  0  0  0  0  0  0  0
    3.0996   -0.7131    1.9349 H   0  0  0  0  0  0  0  0  0  0  0  0
    2.3201    1.7270    0.3766 H   0  0  0  0  0  0  0  0  0  0  0  0
    3.4341    1.5052    1.6991 H   0  0  0  0  0  0  0  0  0  0  0  0
    4.8344    2.0751   -0.1030 H   0  0  0  0  0  0  0  0  0  0  0  0
    3.9105    1.1364   -1.2685 H   0  0  0  0  0  0  0  0  0  0  0  0
    6.0949    0.0437   -0.7299 H   0  0  0  0  0  0  0  0  0  0  0  0
    5.6409   -0.0248    0.9654 H   0  0  0  0  0  0  0  0  0  0  0  0
    4.7579   -1.7481   -1.3021 H   0  0  0  0  0  0  0  0  0  0  0  0
    4.9668   -2.1327    0.3953 H   0  0  0  0  0  0  0  0  0  0  0  0
    2.5665   -1.0232   -1.0575 H   0  0  0  0  0  0  0  0  0  0  0  0
    2.6366   -2.3361    0.0986 H   0  0  0  0  0  0  0  0  0  0  0  0
  1  2  2  0
  2  3  1  0
  4  3  1  6
  4  5  1  0
  5  6  1  0
  6  7  1  0
  7  8  1  0
  8  9  1  0
  9 10  1  0
 10 11  1  0
 10 12  1  0
  8 13  1  0
  2 14  1  0
 14 15  1  0
 15 16  1  0
 16 17  1  0
 17 18  1  0
 18 19  1  0
 12  4  1  0
 19 14  1  0
 13  4  1  0
 11  6  1  0
  3 20  1  0
  5 21  1  0
  5 22  1  0
  6 23  1  1
  7 24  1  0
  7 25  1  0
  8 26  1  1
  9 27  1  0
  9 28  1  0
 10 29  1  6
 11 30  1  0
 11 31  1  0
 12 32  1  0
 12 33  1  0
 13 34  1  0
 13 35  1  0
 14 36  1  0
 15 37  1  0
 15 38  1  0
 16 39  1  0
 16 40  1  0
 17 41  1  0
 17 42  1  0
 18 43  1  0
 18 44  1  0
 19 45  1  0
 19 46  1  0
M  END
>  <_SMILES>  (61) 
O=C(N[C@]12C[C@H]3C[C@H](C[C@H](C3)C1)C2)C1CCCCC1

$$$$

     RDKit          3D

 60 65  0  0  0  0  0  0  0  0999 V2000
   -1.4999   -1.4233    1.9567 O   0  0  0  0  0  0  0  0  0  0  0  0
   -1.0486   -0.9452    0.9220 C   0  0  0  0  0  0  0  0  0  0  0  0
   -1.7907   -0.2673   -0.0203 N   0  0  0  0  0  0  0  0  0  0  0  0
   -3.2128    0.0455    0.0623 C   0  0  2  0  0  0  0  0  0  0  0  0
   -3.6236    0.8141   -1.2218 C   0  0  0  0  0  0  0  0  0  0  0  0
   -5.1170    1.1764   -1.1929 C   0  0  1  0  0  0  0  0  0  0  0  0
   -5.9465   -0.1134   -1.0935 C   0  0  0  0  0  0  0  0  0  0  0  0
   -5.5738   -0.8795    0.1855 C   0  0  2  0  0  0  0  0  0  0  0  0
   -5.8497    0.0109    1.4090 C   0  0  0  0  0  0  0  0  0  0  0  0
   -5.0226    1.3047    1.3195 C   0  0  2  0  0  0  0  0  0  0  0  0
   -5.3982    2.0584    0.0338 C   0  0  0  0  0  0  0  0  0  0  0  0
   -3.5262    0.9478    1.2811 C   0  0  0  0  0  0  0  0  0  0  0  0
   -4.0774   -1.2369    0.1468 C   0  0  0  0  0  0  0  0  0  0  0  0
    0.3764   -1.0340    0.5624 C   0  0  0  0  0  0  0  0  0  0  0  0
    1.4111   -1.6411    1.3114 C   0  0  0  0  0  0  0  0  0  0  0  0
    2.5670   -1.4742    0.5754 C   0  0  0  0  0  0  0  0  0  0  0  0
    3.9241   -1.9033    0.8805 C   0  0  0  0  0  0  0  0  0  0  0  0
    4.6337   -1.2939    1.9215 C   0  0  0  0  0  0  0  0  0  0  0  0
    5.9378   -1.6963    2.2153 C   0  0  0  0  0  0  0  0  0  0  0  0
    6.5362   -2.7157    1.4763 C   0  0  0  0  0  0  0  0  0  0  0  0
    5.8304   -3.3375    0.4472 C   0  0  0  0  0  0  0  0  0  0  0  0
    4.5263   -2.9354    0.1519 C   0  0  0  0  0  0  0  0  0  0  0  0
    2.1862   -0.7486   -0.5326 N   0  0  0  0  0  0  0  0  0  0  0  0
    3.0290   -0.2644   -1.6226 C   0  0  0  0  0  0  0  0  0  0  0  0
    3.7243    1.0233   -1.2737 C   0  0  0  0  0  0  0  0  0  0  0  0
    5.0606    1.0365   -0.8463 C   0  0  0  0  0  0  0  0  0  0  0  0
    5.6847    2.2401   -0.5075 C   0  0  0  0  0  0  0  0  0  0  0  0
    4.9845    3.4429   -0.5953 C   0  0  0  0  0  0  0  0  0  0  0  0
    3.6594    3.4426   -1.0251 C   0  0  0  0  0  0  0  0  0  0  0  0
    3.0425    2.2404   -1.3598 C   0  0  0  0  0  0  0  0  0  0  0  0
    1.7733    2.2687   -1.7893 F   0  0  0  0  0  0  0  0  0  0  0  0
    0.8539   -0.5130   -0.5852 N   0  0  0  0  0  0  0  0  0  0  0  0
   -1.2332    0.0985   -0.7905 H   0  0  0  0  0  0  0  0  0  0  0  0
   -3.4068    0.2068   -2.1108 H   0  0  0  0  0  0  0  0  0  0  0  0
   -3.0235    1.7285   -1.3226 H   0  0  0  0  0  0  0  0  0  0  0  0
   -5.3842    1.7183   -2.1070 H   0  0  0  0  0  0  0  0  0  0  0  0
   -7.0164    0.1285   -1.0873 H   0  0  0  0  0  0  0  0  0  0  0  0
   -5.7676   -0.7433   -1.9735 H   0  0  0  0  0  0  0  0  0  0  0  0
   -6.1702   -1.7962    0.2535 H   0  0  0  0  0  0  0  0  0  0  0  0
   -5.6006   -0.5301    2.3302 H   0  0  0  0  0  0  0  0  0  0  0  0
   -6.9182    0.2534    1.4614 H   0  0  0  0  0  0  0  0  0  0  0  0
   -5.2288    1.9362    2.1910 H   0  0  0  0  0  0  0  0  0  0  0  0
   -4.8248    2.9909   -0.0353 H   0  0  0  0  0  0  0  0  0  0  0  0
   -6.4586    2.3378    0.0593 H   0  0  0  0  0  0  0  0  0  0  0  0
   -3.2526    0.4471    2.2177 H   0  0  0  0  0  0  0  0  0  0  0  0
   -2.9245    1.8651    1.2364 H   0  0  0  0  0  0  0  0  0  0  0  0
   -3.8270   -1.8201    1.0409 H   0  0  0  0  0  0  0  0  0  0  0  0
   -3.8710   -1.8887   -0.7124 H   0  0  0  0  0  0  0  0  0  0  0  0
    1.3125   -2.1432    2.2645 H   0  0  0  0  0  0  0  0  0  0  0  0
    4.1766   -0.4967    2.5042 H   0  0  0  0  0  0  0  0  0  0  0  0
    6.4837   -1.2167    3.0238 H   0  0  0  0  0  0  0  0  0  0  0  0
    7.5496   -3.0329    1.7097 H   0  0  0  0  0  0  0  0  0  0  0  0
    6.2920   -4.1426   -0.1190 H   0  0  0  0  0  0  0  0  0  0  0  0
    3.9802   -3.4412   -0.6411 H   0  0  0  0  0  0  0  0  0  0  0  0
    2.3940   -0.1321   -2.5073 H   0  0  0  0  0  0  0  0  0  0  0  0
    3.7462   -1.0525   -1.8741 H   0  0  0  0  0  0  0  0  0  0  0  0
    5.6266    0.1100   -0.7673 H   0  0  0  0  0  0  0  0  0  0  0  0
    6.7194    2.2376   -0.1720 H   0  0  0  0  0  0  0  0  0  0  0  0
    5.4711    4.3781   -0.3304 H   0  0  0  0  0  0  0  0  0  0  0  0
    3.1012    4.3703   -1.1028 H   0  0  0  0  0  0  0  0  0  0  0  0
  1  2  2  0
  2  3  1  0
  4  3  1  6
  4  5  1  0
  5  6  1  0
  6  7  1  0
  7  8  1  0
  8  9  1  0
  9 10  1  0
 10 11  1  0
 10 12  1  0
  8 13  1  0
  2 14  1  0
 14 15  1  0
 15 16  2  0
 16 17  1  0
 17 18  2  0
 18 19  1  0
 19 20  2  0
 20 21  1  0
 21 22  2  0
 16 23  1  0
 23 24  1  0
 24 25  1  0
 25 26  2  0
 26 27  1  0
 27 28  2  0
 28 29  1  0
 29 30  2  0
 30 31  1  0
 23 32  1  0
 12  4  1  0
 32 14  2  0
 13  4  1  0
 22 17  1  0
 30 25  1  0
 11  6  1  0
  3 33  1  0
  5 34  1  0
  5 35  1  0
  6 36  1  6
  7 37  1  0
  7 38  1  0
  8 39  1  1
  9 40  1  0
  9 41  1  0
 10 42  1  1
 11 43  1  0
 11 44  1  0
 12 45  1  0
 12 46  1  0
 13 47  1  0
 13 48  1  0
 15 49  1  0
 18 50  1  0
 19 51  1  0
 20 52  1  0
 21 53  1  0
 22 54  1  0
 24 55  1  0
 24 56  1  0
 26 57  1  0
 27 58  1  0
 28 59  1  0
 29 60  1  0
M  END
>  <_SMILES>  (62) 
O=C(N[C@]12C[C@H]3C[C@H](C[C@H](C3)C1)C2)c1cc(-c2ccccc2)n(Cc2ccccc2F)n1

$$$$

     RDKit          3D

 64 69  0  0  0  0  0  0  0  0999 V2000
   -7.5747    2.7716   -2.2311 C   0  0  0  0  0  0  0  0  0  0  0  0
   -6.2767    2.1913   -2.2728 O   0  0  0  0  0  0  0  0  0  0  0  0
   -5.5522    2.2138   -1.1128 C   0  0  0  0  0  0  0  0  0  0  0  0
   -6.0007    2.6747    0.1254 C   0  0  0  0  0  0  0  0  0  0  0  0
   -5.1533    2.6376    1.2360 C   0  0  0  0  0  0  0  0  0  0  0  0
   -3.8580    2.1347    1.1148 C   0  0  0  0  0  0  0  0  0  0  0  0
   -3.4024    1.6590   -0.1176 C   0  0  0  0  0  0  0  0  0  0  0  0
   -2.0567    1.1159   -0.2366 C   0  0  0  0  0  0  0  0  0  0  0  0
   -0.8379    1.7583   -0.1633 C   0  0  0  0  0  0  0  0  0  0  0  0
    0.1469    0.7547   -0.3246 C   0  0  0  0  0  0  0  0  0  0  0  0
    1.6080    0.9402   -0.3306 C   0  0  0  0  0  0  0  0  0  0  0  0
    2.1348    2.0373   -0.1845 O   0  0  0  0  0  0  0  0  0  0  0  0
    2.2922   -0.2412   -0.5162 N   0  0  0  0  0  0  0  0  0  0  0  0
    3.7412   -0.3971   -0.5850 C   0  0  2  0  0  0  0  0  0  0  0  0
    4.4271    0.0542    0.7283 C   0  0  0  0  0  0  0  0  0  0  0  0
    5.9482   -0.1650    0.6476 C   0  0  1  0  0  0  0  0  0  0  0  0
    6.2353   -1.6584    0.4256 C   0  0  0  0  0  0  0  0  0  0  0  0
    5.5829   -2.1291   -0.8836 C   0  0  2  0  0  0  0  0  0  0  0  0
    6.1530   -1.3172   -2.0572 C   0  0  0  0  0  0  0  0  0  0  0  0
    5.8656    0.1782   -1.8497 C   0  0  2  0  0  0  0  0  0  0  0  0
    6.5137    0.6415   -0.5339 C   0  0  0  0  0  0  0  0  0  0  0  0
    4.3444    0.3975   -1.7696 C   0  0  0  0  0  0  0  0  0  0  0  0
    4.0654   -1.8992   -0.8017 C   0  0  0  0  0  0  0  0  0  0  0  0
   -0.4199   -0.4597   -0.4812 N   0  0  0  0  0  0  0  0  0  0  0  0
   -1.7510   -0.2169   -0.3993 N   0  0  0  0  0  0  0  0  0  0  0  0
   -2.6792   -1.3411   -0.4892 C   0  0  0  0  0  0  0  0  0  0  0  0
   -3.2724   -1.6972    0.8537 C   0  0  0  0  0  0  0  0  0  0  0  0
   -2.4613   -2.2064    1.8805 C   0  0  0  0  0  0  0  0  0  0  0  0
   -3.0093   -2.5283    3.1241 C   0  0  0  0  0  0  0  0  0  0  0  0
   -4.3717   -2.3456    3.3481 C   0  0  0  0  0  0  0  0  0  0  0  0
   -5.0468   -2.7379    4.8811 Cl  0  0  0  0  0  0  0  0  0  0  0  0
   -5.1913   -1.8458    2.3389 C   0  0  0  0  0  0  0  0  0  0  0  0
   -4.6443   -1.5246    1.0945 C   0  0  0  0  0  0  0  0  0  0  0  0
   -4.2525    1.7109   -1.2281 C   0  0  0  0  0  0  0  0  0  0  0  0
   -7.5269    3.8296   -1.9529 H   0  0  0  0  0  0  0  0  0  0  0  0
   -8.2330    2.2139   -1.5570 H   0  0  0  0  0  0  0  0  0  0  0  0
   -8.0003    2.7107   -3.2374 H   0  0  0  0  0  0  0  0  0  0  0  0
   -7.0016    3.0706    0.2615 H   0  0  0  0  0  0  0  0  0  0  0  0
   -5.5037    3.0003    2.1993 H   0  0  0  0  0  0  0  0  0  0  0  0
   -3.2114    2.1049    1.9894 H   0  0  0  0  0  0  0  0  0  0  0  0
   -0.6672    2.8170   -0.0202 H   0  0  0  0  0  0  0  0  0  0  0  0
    1.6872   -1.0509   -0.6334 H   0  0  0  0  0  0  0  0  0  0  0  0
    4.2290    1.1138    0.9291 H   0  0  0  0  0  0  0  0  0  0  0  0
    4.0142   -0.5019    1.5802 H   0  0  0  0  0  0  0  0  0  0  0  0
    6.4185    0.1666    1.5801 H   0  0  0  0  0  0  0  0  0  0  0  0
    7.3180   -1.8304    0.3879 H   0  0  0  0  0  0  0  0  0  0  0  0
    5.8491   -2.2438    1.2690 H   0  0  0  0  0  0  0  0  0  0  0  0
    5.7881   -3.1945   -1.0368 H   0  0  0  0  0  0  0  0  0  0  0  0
    7.2343   -1.4834   -2.1377 H   0  0  0  0  0  0  0  0  0  0  0  0
    5.7076   -1.6573   -3.0002 H   0  0  0  0  0  0  0  0  0  0  0  0
    6.2773    0.7528   -2.6869 H   0  0  0  0  0  0  0  0  0  0  0  0
    6.3273    1.7116   -0.3807 H   0  0  0  0  0  0  0  0  0  0  0  0
    7.6018    0.5126   -0.5876 H   0  0  0  0  0  0  0  0  0  0  0  0
    3.8724    0.0878   -2.7113 H   0  0  0  0  0  0  0  0  0  0  0  0
    4.1426    1.4701   -1.6639 H   0  0  0  0  0  0  0  0  0  0  0  0
    3.5865   -2.2597   -1.7221 H   0  0  0  0  0  0  0  0  0  0  0  0
    3.6440   -2.4981    0.0168 H   0  0  0  0  0  0  0  0  0  0  0  0
   -2.1343   -2.2021   -0.8949 H   0  0  0  0  0  0  0  0  0  0  0  0
   -3.4486   -1.0773   -1.2222 H   0  0  0  0  0  0  0  0  0  0  0  0
   -1.3931   -2.3464    1.7184 H   0  0  0  0  0  0  0  0  0  0  0  0
   -2.3683   -2.9164    3.9112 H   0  0  0  0  0  0  0  0  0  0  0  0
   -6.2539   -1.7002    2.5140 H   0  0  0  0  0  0  0  0  0  0  0  0
   -5.2971   -1.1261    0.3197 H   0  0  0  0  0  0  0  0  0  0  0  0
   -3.9052    1.3659   -2.1996 H   0  0  0  0  0  0  0  0  0  0  0  0
  1  2  1  0
  2  3  1  0
  3  4  1  0
  4  5  2  0
  5  6  1  0
  6  7  2  0
  7  8  1  0
  8  9  2  0
  9 10  1  0
 10 11  1  0
 11 12  2  0
 11 13  1  0
 14 13  1  1
 14 15  1  0
 15 16  1  0
 16 17  1  0
 17 18  1  0
 18 19  1  0
 19 20  1  0
 20 21  1  0
 20 22  1  0
 18 23  1  0
 10 24  2  0
 24 25  1  0
 25 26  1  0
 26 27  1  0
 27 28  1  0
 28 29  2  0
 29 30  1  0
 30 31  1  0
 30 32  2  0
 32 33  1  0
  7 34  1  0
 34  3  2  0
 25  8  1  0
 33 27  2  0
 22 14  1  0
 23 14  1  0
 21 16  1  0
  1 35  1  0
  1 36  1  0
  1 37  1  0
  4 38  1  0
  5 39  1  0
  6 40  1  0
  9 41  1  0
 13 42  1  0
 15 43  1  0
 15 44  1  0
 16 45  1  1
 17 46  1  0
 17 47  1  0
 18 48  1  6
 19 49  1  0
 19 50  1  0
 20 51  1  6
 21 52  1  0
 21 53  1  0
 22 54  1  0
 22 55  1  0
 23 56  1  0
 23 57  1  0
 26 58  1  0
 26 59  1  0
 28 60  1  0
 29 61  1  0
 32 62  1  0
 33 63  1  0
 34 64  1  0
M  END
>  <_SMILES>  (63) 
COc1cccc(-c2cc(C(=O)N[C@]34C[C@H]5C[C@H](C[C@H](C5)C3)C4)nn2Cc2ccc(Cl)cc2)c1

$$$$

     RDKit          3D

 63 68  0  0  0  0  0  0  0  0999 V2000
   -0.1877   -2.4133    0.0279 C   0  0  0  0  0  0  0  0  0  0  0  0
   -0.9373   -1.2351   -0.4817 C   0  0  0  0  0  0  0  0  0  0  0  0
   -0.4038   -0.0357   -1.0576 C   0  0  0  0  0  0  0  0  0  0  0  0
    1.0130    0.3456   -1.2385 C   0  0  0  0  0  0  0  0  0  0  0  0
    1.4239    0.9275   -2.2373 O   0  0  0  0  0  0  0  0  0  0  0  0
    1.8197    0.0146   -0.1615 N   0  0  0  0  0  0  0  0  0  0  0  0
    3.2340    0.3752   -0.0381 C   0  0  2  0  0  0  0  0  0  0  0  0
    3.7685   -0.2134    1.2963 C   0  0  0  0  0  0  0  0  0  0  0  0
    5.2522    0.1327    1.4984 C   0  0  1  0  0  0  0  0  0  0  0  0
    6.0682   -0.4510    0.3350 C   0  0  0  0  0  0  0  0  0  0  0  0
    5.5739    0.1347   -0.9967 C   0  0  2  0  0  0  0  0  0  0  0  0
    5.7312    1.6647   -0.9684 C   0  0  0  0  0  0  0  0  0  0  0  0
    4.9177    2.2597    0.1937 C   0  0  2  0  0  0  0  0  0  0  0  0
    5.4150    1.6607    1.5189 C   0  0  0  0  0  0  0  0  0  0  0  0
    3.4310    1.9103    0.0034 C   0  0  0  0  0  0  0  0  0  0  0  0
    4.0879   -0.2176   -1.1879 C   0  0  0  0  0  0  0  0  0  0  0  0
   -1.3926    0.7868   -1.4464 N   0  0  0  0  0  0  0  0  0  0  0  0
   -2.5298    0.1438   -1.1178 N   0  0  0  0  0  0  0  0  0  0  0  0
   -3.8127    0.7717   -1.4384 C   0  0  0  0  0  0  0  0  0  0  0  0
   -4.4795    1.3702   -0.2204 C   0  0  0  0  0  0  0  0  0  0  0  0
   -3.7797    2.3242    0.5460 C   0  0  0  0  0  0  0  0  0  0  0  0
   -4.3547    2.9055    1.6773 C   0  0  0  0  0  0  0  0  0  0  0  0
   -5.6447    2.5538    2.0594 C   0  0  0  0  0  0  0  0  0  0  0  0
   -6.3616    1.6277    1.3037 C   0  0  0  0  0  0  0  0  0  0  0  0
   -5.7888    1.0439    0.1677 C   0  0  0  0  0  0  0  0  0  0  0  0
   -6.7690   -0.0660   -0.7227 Cl  0  0  0  0  0  0  0  0  0  0  0  0
   -2.3146   -1.0765   -0.5234 C   0  0  0  0  0  0  0  0  0  0  0  0
   -3.3739   -1.9654   -0.0666 C   0  0  0  0  0  0  0  0  0  0  0  0
   -3.8157   -1.9070    1.2596 C   0  0  0  0  0  0  0  0  0  0  0  0
   -4.8337   -2.7550    1.6982 C   0  0  0  0  0  0  0  0  0  0  0  0
   -5.4089   -3.6682    0.8156 C   0  0  0  0  0  0  0  0  0  0  0  0
   -4.9662   -3.7368   -0.5050 C   0  0  0  0  0  0  0  0  0  0  0  0
   -3.9490   -2.8887   -0.9459 C   0  0  0  0  0  0  0  0  0  0  0  0
    0.1003   -2.2573    1.0722 H   0  0  0  0  0  0  0  0  0  0  0  0
    0.7177   -2.5887   -0.5616 H   0  0  0  0  0  0  0  0  0  0  0  0
   -0.7904   -3.3255   -0.0258 H   0  0  0  0  0  0  0  0  0  0  0  0
    1.3279   -0.2186    0.6907 H   0  0  0  0  0  0  0  0  0  0  0  0
    3.6365   -1.3037    1.3071 H   0  0  0  0  0  0  0  0  0  0  0  0
    3.1826    0.1734    2.1411 H   0  0  0  0  0  0  0  0  0  0  0  0
    5.6051   -0.2895    2.4459 H   0  0  0  0  0  0  0  0  0  0  0  0
    5.9745   -1.5438    0.3218 H   0  0  0  0  0  0  0  0  0  0  0  0
    7.1326   -0.2242    0.4724 H   0  0  0  0  0  0  0  0  0  0  0  0
    6.1607   -0.2819   -1.8230 H   0  0  0  0  0  0  0  0  0  0  0  0
    5.3943    2.0938   -1.9201 H   0  0  0  0  0  0  0  0  0  0  0  0
    6.7900    1.9292   -0.8572 H   0  0  0  0  0  0  0  0  0  0  0  0
    5.0410    3.3483    0.2116 H   0  0  0  0  0  0  0  0  0  0  0  0
    4.8513    2.0869    2.3578 H   0  0  0  0  0  0  0  0  0  0  0  0
    6.4682    1.9232    1.6770 H   0  0  0  0  0  0  0  0  0  0  0  0
    3.0687    2.3761   -0.9208 H   0  0  0  0  0  0  0  0  0  0  0  0
    2.8380    2.3450    0.8188 H   0  0  0  0  0  0  0  0  0  0  0  0
    3.7588    0.1625   -2.1615 H   0  0  0  0  0  0  0  0  0  0  0  0
    3.9636   -1.3078   -1.2263 H   0  0  0  0  0  0  0  0  0  0  0  0
   -4.4090    0.0075   -1.9430 H   0  0  0  0  0  0  0  0  0  0  0  0
   -3.6251    1.5628   -2.1750 H   0  0  0  0  0  0  0  0  0  0  0  0
   -2.7698    2.6214    0.2608 H   0  0  0  0  0  0  0  0  0  0  0  0
   -3.7937    3.6358    2.2557 H   0  0  0  0  0  0  0  0  0  0  0  0
   -6.0961    3.0063    2.9386 H   0  0  0  0  0  0  0  0  0  0  0  0
   -7.3743    1.3670    1.6021 H   0  0  0  0  0  0  0  0  0  0  0  0
   -3.3771   -1.1943    1.9541 H   0  0  0  0  0  0  0  0  0  0  0  0
   -5.1802   -2.7003    2.7268 H   0  0  0  0  0  0  0  0  0  0  0  0
   -6.2041   -4.3264    1.1564 H   0  0  0  0  0  0  0  0  0  0  0  0
   -5.4148   -4.4494   -1.1924 H   0  0  0  0  0  0  0  0  0  0  0  0
   -3.6095   -2.9520   -1.9771 H   0  0  0  0  0  0  0  0  0  0  0  0
  1  2  1  0
  2  3  1  0
  3  4  1  0
  4  5  2  0
  4  6  1  0
  7  6  1  6
  7  8  1  0
  8  9  1  0
  9 10  1  0
 10 11  1  0
 11 12  1  0
 12 13  1  0
 13 14  1  0
 13 15  1  0
 11 16  1  0
  3 17  2  0
 17 18  1  0
 18 19  1  0
 19 20  1  0
 20 21  2  0
 21 22  1  0
 22 23  2  0
 23 24  1  0
 24 25  2  0
 25 26  1  0
 18 27  1  0
 27 28  1  0
 28 29  2  0
 29 30  1  0
 30 31  2  0
 31 32  1  0
 32 33  2  0
 27  2  2  0
 33 28  1  0
 15  7  1  0
 25 20  1  0
 16  7  1  0
 14  9  1  0
  1 34  1  0
  1 35  1  0
  1 36  1  0
  6 37  1  0
  8 38  1  0
  8 39  1  0
  9 40  1  1
 10 41  1  0
 10 42  1  0
 11 43  1  6
 12 44  1  0
 12 45  1  0
 13 46  1  1
 14 47  1  0
 14 48  1  0
 15 49  1  0
 15 50  1  0
 16 51  1  0
 16 52  1  0
 19 53  1  0
 19 54  1  0
 21 55  1  0
 22 56  1  0
 23 57  1  0
 24 58  1  0
 29 59  1  0
 30 60  1  0
 31 61  1  0
 32 62  1  0
 33 63  1  0
M  END
>  <_SMILES>  (64) 
Cc1c(C(=O)N[C@]23C[C@H]4C[C@H](C[C@H](C4)C2)C3)nn(Cc2ccccc2Cl)c1-c1ccccc1

$$$$

     RDKit          3D

 66 71  0  0  0  0  0  0  0  0999 V2000
   -0.0263   -0.0829   -2.3994 C   0  0  0  0  0  0  0  0  0  0  0  0
   -0.7281   -0.0715   -1.0891 C   0  0  0  0  0  0  0  0  0  0  0  0
   -0.1716    0.2310    0.1964 C   0  0  0  0  0  0  0  0  0  0  0  0
    1.2284    0.5606    0.5341 C   0  0  0  0  0  0  0  0  0  0  0  0
    1.5325    1.4418    1.3315 O   0  0  0  0  0  0  0  0  0  0  0  0
    2.1563   -0.2388   -0.1142 N   0  0  0  0  0  0  0  0  0  0  0  0
    3.6008   -0.1985    0.1245 C   0  0  2  0  0  0  0  0  0  0  0  0
    4.2765   -1.2270   -0.8234 C   0  0  0  0  0  0  0  0  0  0  0  0
    5.8001   -1.2458   -0.6231 C   0  0  1  0  0  0  0  0  0  0  0  0
    6.3643    0.1515   -0.9220 C   0  0  0  0  0  0  0  0  0  0  0  0
    5.7283    1.1852    0.0200 C   0  0  2  0  0  0  0  0  0  0  0  0
    6.0366    0.8018    1.4776 C   0  0  0  0  0  0  0  0  0  0  0  0
    5.4757   -0.5966    1.7876 C   0  0  2  0  0  0  0  0  0  0  0  0
    6.1123   -1.6203    0.8343 C   0  0  0  0  0  0  0  0  0  0  0  0
    3.9506   -0.5888    1.5813 C   0  0  0  0  0  0  0  0  0  0  0  0
    4.2035    1.1947   -0.1888 C   0  0  0  0  0  0  0  0  0  0  0  0
   -1.1142    0.1651    1.1503 N   0  0  0  0  0  0  0  0  0  0  0  0
   -2.2477   -0.1447    0.4981 N   0  0  0  0  0  0  0  0  0  0  0  0
   -3.4765   -0.2574    1.2696 C   0  0  0  0  0  0  0  0  0  0  0  0
   -3.9498    1.0793    1.8660 C   0  0  0  0  0  0  0  0  0  0  0  0
   -5.1985    0.8933    2.7307 C   0  0  0  0  0  0  0  0  0  0  0  0
   -6.3670    0.9013    1.7491 C   0  0  0  0  0  0  0  0  0  0  0  0
   -5.8762    1.6511    0.5112 C   0  0  0  0  0  0  0  0  0  0  0  0
   -4.4450    2.0786    0.8191 C   0  0  0  0  0  0  0  0  0  0  0  0
   -2.0683   -0.3431   -0.8498 C   0  0  0  0  0  0  0  0  0  0  0  0
   -3.1261   -0.7243   -1.7778 C   0  0  0  0  0  0  0  0  0  0  0  0
   -3.5532   -2.0549   -1.8526 C   0  0  0  0  0  0  0  0  0  0  0  0
   -4.5694   -2.4183   -2.7382 C   0  0  0  0  0  0  0  0  0  0  0  0
   -5.1596   -1.4552   -3.5557 C   0  0  0  0  0  0  0  0  0  0  0  0
   -4.7328   -0.1295   -3.4921 C   0  0  0  0  0  0  0  0  0  0  0  0
   -3.7165    0.2351   -2.6075 C   0  0  0  0  0  0  0  0  0  0  0  0
    0.7452    0.6927   -2.4385 H   0  0  0  0  0  0  0  0  0  0  0  0
   -0.7157    0.1051   -3.2281 H   0  0  0  0  0  0  0  0  0  0  0  0
    0.4483   -1.0549   -2.5667 H   0  0  0  0  0  0  0  0  0  0  0  0
    1.7810   -1.0810   -0.5297 H   0  0  0  0  0  0  0  0  0  0  0  0
    4.0421   -0.9867   -1.8691 H   0  0  0  0  0  0  0  0  0  0  0  0
    3.8697   -2.2312   -0.6424 H   0  0  0  0  0  0  0  0  0  0  0  0
    6.2533   -1.9797   -1.2987 H   0  0  0  0  0  0  0  0  0  0  0  0
    7.4541    0.1506   -0.7971 H   0  0  0  0  0  0  0  0  0  0  0  0
    6.1636    0.4219   -1.9659 H   0  0  0  0  0  0  0  0  0  0  0  0
    6.1359    2.1795   -0.1945 H   0  0  0  0  0  0  0  0  0  0  0  0
    7.1205    0.8154    1.6461 H   0  0  0  0  0  0  0  0  0  0  0  0
    5.5992    1.5408    2.1601 H   0  0  0  0  0  0  0  0  0  0  0  0
    5.7058   -0.8654    2.8247 H   0  0  0  0  0  0  0  0  0  0  0  0
    7.1978   -1.6519    0.9888 H   0  0  0  0  0  0  0  0  0  0  0  0
    5.7303   -2.6249    1.0536 H   0  0  0  0  0  0  0  0  0  0  0  0
    3.4961    0.1105    2.2932 H   0  0  0  0  0  0  0  0  0  0  0  0
    3.5370   -1.5782    1.8168 H   0  0  0  0  0  0  0  0  0  0  0  0
    3.7657    1.9684    0.4519 H   0  0  0  0  0  0  0  0  0  0  0  0
    3.9689    1.4833   -1.2219 H   0  0  0  0  0  0  0  0  0  0  0  0
   -3.2630   -0.9735    2.0733 H   0  0  0  0  0  0  0  0  0  0  0  0
   -4.2471   -0.7113    0.6405 H   0  0  0  0  0  0  0  0  0  0  0  0
   -3.1412    1.5209    2.4602 H   0  0  0  0  0  0  0  0  0  0  0  0
   -5.2981    1.7433    3.4175 H   0  0  0  0  0  0  0  0  0  0  0  0
   -5.1744   -0.0179    3.3364 H   0  0  0  0  0  0  0  0  0  0  0  0
   -7.2501    1.3765    2.1883 H   0  0  0  0  0  0  0  0  0  0  0  0
   -6.6480   -0.1227    1.4776 H   0  0  0  0  0  0  0  0  0  0  0  0
   -5.9010    0.9864   -0.3595 H   0  0  0  0  0  0  0  0  0  0  0  0
   -6.5087    2.5142    0.2806 H   0  0  0  0  0  0  0  0  0  0  0  0
   -4.4581    3.0851    1.2565 H   0  0  0  0  0  0  0  0  0  0  0  0
   -3.8232    2.1255   -0.0783 H   0  0  0  0  0  0  0  0  0  0  0  0
   -3.0956   -2.8152   -1.2239 H   0  0  0  0  0  0  0  0  0  0  0  0
   -4.8987   -3.4527   -2.7922 H   0  0  0  0  0  0  0  0  0  0  0  0
   -5.9505   -1.7386   -4.2457 H   0  0  0  0  0  0  0  0  0  0  0  0
   -5.1903    0.6210   -4.1317 H   0  0  0  0  0  0  0  0  0  0  0  0
   -3.3902    1.2719   -2.5659 H   0  0  0  0  0  0  0  0  0  0  0  0
  1  2  1  0
  2  3  1  0
  3  4  1  0
  4  5  2  0
  4  6  1  0
  7  6  1  1
  7  8  1  0
  8  9  1  0
  9 10  1  0
 10 11  1  0
 11 12  1  0
 12 13  1  0
 13 14  1  0
 13 15  1  0
 11 16  1  0
  3 17  2  0
 17 18  1  0
 18 19  1  0
 19 20  1  0
 20 21  1  0
 21 22  1  0
 22 23  1  0
 23 24  1  0
 18 25  1  0
 25 26  1  0
 26 27  2  0
 27 28  1  0
 28 29  2  0
 29 30  1  0
 30 31  2  0
 25  2  2  0
 31 26  1  0
 15  7  1  0
 24 20  1  0
 16  7  1  0
 14  9  1  0
  1 32  1  0
  1 33  1  0
  1 34  1  0
  6 35  1  0
  8 36  1  0
  8 37  1  0
  9 38  1  6
 10 39  1  0
 10 40  1  0
 11 41  1  6
 12 42  1  0
 12 43  1  0
 13 44  1  1
 14 45  1  0
 14 46  1  0
 15 47  1  0
 15 48  1  0
 16 49  1  0
 16 50  1  0
 19 51  1  0
 19 52  1  0
 20 53  1  0
 21 54  1  0
 21 55  1  0
 22 56  1  0
 22 57  1  0
 23 58  1  0
 23 59  1  0
 24 60  1  0
 24 61  1  0
 27 62  1  0
 28 63  1  0
 29 64  1  0
 30 65  1  0
 31 66  1  0
M  END
>  <_SMILES>  (65) 
Cc1c(C(=O)N[C@]23C[C@H]4C[C@H](C[C@H](C4)C2)C3)nn(CC2CCCC2)c1-c1ccccc1

$$$$

     RDKit          3D

 69 74  0  0  0  0  0  0  0  0999 V2000
    0.6090   -3.9491    0.0482 C   0  0  0  0  0  0  0  0  0  0  0  0
    0.0389   -2.5843    0.1909 C   0  0  0  0  0  0  0  0  0  0  0  0
    0.7580   -1.3511    0.1578 C   0  0  0  0  0  0  0  0  0  0  0  0
    2.2110   -1.1534   -0.0241 C   0  0  0  0  0  0  0  0  0  0  0  0
    2.9980   -2.0806   -0.1795 O   0  0  0  0  0  0  0  0  0  0  0  0
    2.5694    0.1772    0.0014 N   0  0  0  0  0  0  0  0  0  0  0  0
    3.9192    0.7119   -0.1394 C   0  0  2  0  0  0  0  0  0  0  0  0
    4.8520    0.2102    0.9905 C   0  0  0  0  0  0  0  0  0  0  0  0
    6.2551    0.8258    0.8473 C   0  0  1  0  0  0  0  0  0  0  0  0
    6.8426    0.4341   -0.5193 C   0  0  0  0  0  0  0  0  0  0  0  0
    5.9430    0.9574   -1.6519 C   0  0  2  0  0  0  0  0  0  0  0  0
    5.8393    2.4874   -1.5511 C   0  0  0  0  0  0  0  0  0  0  0  0
    5.2449    2.8846   -0.1908 C   0  0  2  0  0  0  0  0  0  0  0  0
    6.1496    2.3565    0.9337 C   0  0  0  0  0  0  0  0  0  0  0  0
    3.8479    2.2595   -0.0493 C   0  0  0  0  0  0  0  0  0  0  0  0
    4.5397    0.3419   -1.5094 C   0  0  0  0  0  0  0  0  0  0  0  0
   -0.0717   -0.2984    0.3158 N   0  0  0  0  0  0  0  0  0  0  0  0
   -1.2906   -0.8548    0.4525 N   0  0  0  0  0  0  0  0  0  0  0  0
   -2.4404    0.0179    0.6223 C   0  0  0  0  0  0  0  0  0  0  0  0
   -3.0566    0.4018   -0.7192 C   0  0  0  0  0  0  0  0  0  0  0  0
   -4.3250    1.1973   -0.5348 C   0  0  0  0  0  0  0  0  0  0  0  0
   -5.5499    0.5406   -0.3607 C   0  0  0  0  0  0  0  0  0  0  0  0
   -6.7233    1.2728   -0.1681 C   0  0  0  0  0  0  0  0  0  0  0  0
   -6.6941    2.6750   -0.1489 C   0  0  0  0  0  0  0  0  0  0  0  0
   -7.9583    3.4654    0.0814 C   0  0  0  0  0  0  0  0  0  0  0  0
   -8.1942    3.6901    1.4035 F   0  0  0  0  0  0  0  0  0  0  0  0
   -7.9379    4.6935   -0.5086 F   0  0  0  0  0  0  0  0  0  0  0  0
   -9.0730    2.8439   -0.3965 F   0  0  0  0  0  0  0  0  0  0  0  0
   -5.4630    3.3282   -0.3091 C   0  0  0  0  0  0  0  0  0  0  0  0
   -4.2892    2.5961   -0.5015 C   0  0  0  0  0  0  0  0  0  0  0  0
   -1.2866   -2.2265    0.3831 C   0  0  0  0  0  0  0  0  0  0  0  0
   -2.4823   -3.0547    0.4763 C   0  0  0  0  0  0  0  0  0  0  0  0
   -3.0996   -3.5301   -0.6859 C   0  0  0  0  0  0  0  0  0  0  0  0
   -4.2537   -4.3104   -0.5997 C   0  0  0  0  0  0  0  0  0  0  0  0
   -4.7922   -4.6235    0.6478 C   0  0  0  0  0  0  0  0  0  0  0  0
   -4.1755   -4.1615    1.8100 C   0  0  0  0  0  0  0  0  0  0  0  0
   -3.0213   -3.3808    1.7254 C   0  0  0  0  0  0  0  0  0  0  0  0
    1.3613   -4.1322    0.8221 H   0  0  0  0  0  0  0  0  0  0  0  0
    1.0817   -4.0643   -0.9325 H   0  0  0  0  0  0  0  0  0  0  0  0
   -0.1581   -4.7236    0.1422 H   0  0  0  0  0  0  0  0  0  0  0  0
    1.7834    0.8072    0.1479 H   0  0  0  0  0  0  0  0  0  0  0  0
    4.4296    0.4673    1.9708 H   0  0  0  0  0  0  0  0  0  0  0  0
    4.9372   -0.8829    0.9707 H   0  0  0  0  0  0  0  0  0  0  0  0
    6.9040    0.4548    1.6485 H   0  0  0  0  0  0  0  0  0  0  0  0
    6.9360   -0.6567   -0.5884 H   0  0  0  0  0  0  0  0  0  0  0  0
    7.8534    0.8473   -0.6238 H   0  0  0  0  0  0  0  0  0  0  0  0
    6.3707    0.6797   -2.6218 H   0  0  0  0  0  0  0  0  0  0  0  0
    5.2111    2.8749   -2.3626 H   0  0  0  0  0  0  0  0  0  0  0  0
    6.8314    2.9392   -1.6730 H   0  0  0  0  0  0  0  0  0  0  0  0
    5.1708    3.9757   -0.1240 H   0  0  0  0  0  0  0  0  0  0  0  0
    7.1470    2.8061    0.8546 H   0  0  0  0  0  0  0  0  0  0  0  0
    5.7446    2.6499    1.9100 H   0  0  0  0  0  0  0  0  0  0  0  0
    3.1855    2.6530   -0.8320 H   0  0  0  0  0  0  0  0  0  0  0  0
    3.4028    2.5617    0.9083 H   0  0  0  0  0  0  0  0  0  0  0  0
    4.6134   -0.7461   -1.6245 H   0  0  0  0  0  0  0  0  0  0  0  0
    3.8931    0.6935   -2.3241 H   0  0  0  0  0  0  0  0  0  0  0  0
   -2.1015    0.9072    1.1684 H   0  0  0  0  0  0  0  0  0  0  0  0
   -3.1612   -0.4917    1.2703 H   0  0  0  0  0  0  0  0  0  0  0  0
   -2.3389    0.9802   -1.3156 H   0  0  0  0  0  0  0  0  0  0  0  0
   -3.2786   -0.4902   -1.3184 H   0  0  0  0  0  0  0  0  0  0  0  0
   -5.5983   -0.5473   -0.3729 H   0  0  0  0  0  0  0  0  0  0  0  0
   -7.6654    0.7428   -0.0342 H   0  0  0  0  0  0  0  0  0  0  0  0
   -5.4137    4.4162   -0.2864 H   0  0  0  0  0  0  0  0  0  0  0  0
   -3.3467    3.1264   -0.6254 H   0  0  0  0  0  0  0  0  0  0  0  0
   -2.6836   -3.2966   -1.6634 H   0  0  0  0  0  0  0  0  0  0  0  0
   -4.7290   -4.6788   -1.5053 H   0  0  0  0  0  0  0  0  0  0  0  0
   -5.6883   -5.2356    0.7148 H   0  0  0  0  0  0  0  0  0  0  0  0
   -4.5898   -4.4142    2.7827 H   0  0  0  0  0  0  0  0  0  0  0  0
   -2.5431   -3.0329    2.6383 H   0  0  0  0  0  0  0  0  0  0  0  0
  1  2  1  0
  2  3  1  0
  3  4  1  0
  4  5  2  0
  4  6  1  0
  7  6  1  1
  7  8  1  0
  8  9  1  0
  9 10  1  0
 10 11  1  0
 11 12  1  0
 12 13  1  0
 13 14  1  0
 13 15  1  0
 11 16  1  0
  3 17  2  0
 17 18  1  0
 18 19  1  0
 19 20  1  0
 20 21  1  0
 21 22  1  0
 22 23  2  0
 23 24  1  0
 24 25  1  0
 25 26  1  0
 25 27  1  0
 25 28  1  0
 24 29  2  0
 29 30  1  0
 18 31  1  0
 31 32  1  0
 32 33  2  0
 33 34  1  0
 34 35  2  0
 35 36  1  0
 36 37  2  0
 31  2  2  0
 37 32  1  0
 15  7  1  0
 30 21  2  0
 16  7  1  0
 14  9  1  0
  1 38  1  0
  1 39  1  0
  1 40  1  0
  6 41  1  0
  8 42  1  0
  8 43  1  0
  9 44  1  1
 10 45  1  0
 10 46  1  0
 11 47  1  6
 12 48  1  0
 12 49  1  0
 13 50  1  6
 14 51  1  0
 14 52  1  0
 15 53  1  0
 15 54  1  0
 16 55  1  0
 16 56  1  0
 19 57  1  0
 19 58  1  0
 20 59  1  0
 20 60  1  0
 22 61  1  0
 23 62  1  0
 29 63  1  0
 30 64  1  0
 33 65  1  0
 34 66  1  0
 35 67  1  0
 36 68  1  0
 37 69  1  0
M  END
>  <_SMILES>  (66) 
Cc1c(C(=O)N[C@]23C[C@H]4C[C@H](C[C@H](C4)C2)C3)nn(CCc2ccc(C(F)(F)F)cc2)c1-c1ccccc1

$$$$

     RDKit          3D

 44 47  0  0  0  0  0  0  0  0999 V2000
    0.6695   -0.3815   -1.8796 O   0  0  0  0  0  0  0  0  0  0  0  0
    0.9004   -0.1947   -0.6960 C   0  0  0  0  0  0  0  0  0  0  0  0
   -0.0174    0.0541    0.2766 N   0  0  0  0  0  0  0  0  0  0  0  0
   -1.4632    0.1459    0.0903 C   0  0  2  0  0  0  0  0  0  0  0  0
   -1.8414    1.2943   -0.8780 C   0  0  0  0  0  0  0  0  0  0  0  0
   -3.3700    1.4006   -1.0211 C   0  0  1  0  0  0  0  0  0  0  0  0
   -3.9216    0.0694   -1.5593 C   0  0  0  0  0  0  0  0  0  0  0  0
   -3.5829   -1.0750   -0.5889 C   0  0  2  0  0  0  0  0  0  0  0  0
   -4.2022   -0.7744    0.7852 C   0  0  0  0  0  0  0  0  0  0  0  0
   -3.6484    0.5507    1.3319 C   0  0  2  0  0  0  0  0  0  0  0  0
   -3.9905    1.6869    0.3554 C   0  0  0  0  0  0  0  0  0  0  0  0
   -2.1209    0.4424    1.4643 C   0  0  0  0  0  0  0  0  0  0  0  0
   -2.0544   -1.1817   -0.4456 C   0  0  0  0  0  0  0  0  0  0  0  0
    2.1307   -0.2022   -0.1330 O   0  0  0  0  0  0  0  0  0  0  0  0
    3.1840   -0.4554   -1.0645 C   0  0  0  0  0  0  0  0  0  0  0  0
    4.4865   -0.4351   -0.3065 C   0  0  0  0  0  0  0  0  0  0  0  0
    5.1933    0.7640   -0.1385 C   0  0  0  0  0  0  0  0  0  0  0  0
    6.3906    0.7852    0.5789 C   0  0  0  0  0  0  0  0  0  0  0  0
    6.8879   -0.3888    1.1418 C   0  0  0  0  0  0  0  0  0  0  0  0
    6.1868   -1.5840    0.9925 C   0  0  0  0  0  0  0  0  0  0  0  0
    4.9894   -1.6073    0.2755 C   0  0  0  0  0  0  0  0  0  0  0  0
    0.3788    0.1810    1.1982 H   0  0  0  0  0  0  0  0  0  0  0  0
   -1.4335    2.2460   -0.5125 H   0  0  0  0  0  0  0  0  0  0  0  0
   -1.3997    1.1316   -1.8684 H   0  0  0  0  0  0  0  0  0  0  0  0
   -3.6199    2.2114   -1.7145 H   0  0  0  0  0  0  0  0  0  0  0  0
   -5.0086    0.1403   -1.6886 H   0  0  0  0  0  0  0  0  0  0  0  0
   -3.4965   -0.1399   -2.5486 H   0  0  0  0  0  0  0  0  0  0  0  0
   -3.9837   -2.0185   -0.9759 H   0  0  0  0  0  0  0  0  0  0  0  0
   -3.9797   -1.5907    1.4834 H   0  0  0  0  0  0  0  0  0  0  0  0
   -5.2943   -0.7174    0.6997 H   0  0  0  0  0  0  0  0  0  0  0  0
   -4.0910    0.7599    2.3122 H   0  0  0  0  0  0  0  0  0  0  0  0
   -5.0790    1.7864    0.2626 H   0  0  0  0  0  0  0  0  0  0  0  0
   -3.6156    2.6416    0.7444 H   0  0  0  0  0  0  0  0  0  0  0  0
   -1.7188    1.3753    1.8818 H   0  0  0  0  0  0  0  0  0  0  0  0
   -1.8671   -0.3485    2.1828 H   0  0  0  0  0  0  0  0  0  0  0  0
   -1.7995   -2.0085    0.2304 H   0  0  0  0  0  0  0  0  0  0  0  0
   -1.6207   -1.4374   -1.4198 H   0  0  0  0  0  0  0  0  0  0  0  0
    3.0444   -1.4341   -1.5405 H   0  0  0  0  0  0  0  0  0  0  0  0
    3.1948    0.3147   -1.8459 H   0  0  0  0  0  0  0  0  0  0  0  0
    4.8120    1.6894   -0.5645 H   0  0  0  0  0  0  0  0  0  0  0  0
    6.9335    1.7187    0.7013 H   0  0  0  0  0  0  0  0  0  0  0  0
    7.8194   -0.3712    1.7013 H   0  0  0  0  0  0  0  0  0  0  0  0
    6.5708   -2.4982    1.4375 H   0  0  0  0  0  0  0  0  0  0  0  0
    4.4478   -2.5453    0.1747 H   0  0  0  0  0  0  0  0  0  0  0  0
  1  2  2  0
  2  3  1  0
  4  3  1  1
  4  5  1  0
  5  6  1  0
  6  7  1  0
  7  8  1  0
  8  9  1  0
  9 10  1  0
 10 11  1  0
 10 12  1  0
  8 13  1  0
  2 14  1  0
 14 15  1  0
 15 16  1  0
 16 17  2  0
 17 18  1  0
 18 19  2  0
 19 20  1  0
 20 21  2  0
 12  4  1  0
 21 16  1  0
 13  4  1  0
 11  6  1  0
  3 22  1  0
  5 23  1  0
  5 24  1  0
  6 25  1  6
  7 26  1  0
  7 27  1  0
  8 28  1  6
  9 29  1  0
  9 30  1  0
 10 31  1  1
 11 32  1  0
 11 33  1  0
 12 34  1  0
 12 35  1  0
 13 36  1  0
 13 37  1  0
 15 38  1  0
 15 39  1  0
 17 40  1  0
 18 41  1  0
 19 42  1  0
 20 43  1  0
 21 44  1  0
M  END
>  <_SMILES>  (67) 
O=C(N[C@]12C[C@H]3C[C@H](C[C@H](C3)C1)C2)OCc1ccccc1

$$$$

     RDKit          3D

 72 76  0  0  0  0  0  0  0  0999 V2000
   -0.9090    3.6812    0.2897 C   0  0  0  0  0  0  0  0  0  0  0  0
   -1.3130    2.3176    0.7465 C   0  0  0  0  0  0  0  0  0  0  0  0
   -0.4307    1.3408    1.3298 C   0  0  0  0  0  0  0  0  0  0  0  0
    1.0116    1.4854    1.5689 C   0  0  0  0  0  0  0  0  0  0  0  0
    1.6010    2.5509    1.4153 O   0  0  0  0  0  0  0  0  0  0  0  0
    1.6600    0.3295    1.9511 N   0  0  0  0  0  0  0  0  0  0  0  0
    3.0940    0.2649    2.1410 C   0  0  0  0  0  0  0  0  0  0  0  0
    3.8586   -0.3109    0.9276 C   0  0  2  0  0  0  0  0  0  0  0  0
    3.3831   -1.7480    0.5890 C   0  0  0  0  0  0  0  0  0  0  0  0
    4.1913   -2.3254   -0.5867 C   0  0  1  0  0  0  0  0  0  0  0  0
    4.0049   -1.4256   -1.8194 C   0  0  0  0  0  0  0  0  0  0  0  0
    4.4996   -0.0024   -1.5125 C   0  0  2  0  0  0  0  0  0  0  0  0
    5.9872   -0.0536   -1.1308 C   0  0  0  0  0  0  0  0  0  0  0  0
    6.1818   -0.9471    0.1041 C   0  0  2  0  0  0  0  0  0  0  0  0
    5.6804   -2.3657   -0.2091 C   0  0  0  0  0  0  0  0  0  0  0  0
    5.3703   -0.3719    1.2764 C   0  0  0  0  0  0  0  0  0  0  0  0
    3.6904    0.5714   -0.3357 C   0  0  0  0  0  0  0  0  0  0  0  0
   -1.2250    0.2472    1.6318 C   0  0  0  0  0  0  0  0  0  0  0  0
   -2.5096    0.4919    1.2085 N   0  0  0  0  0  0  0  0  0  0  0  0
   -3.5997   -0.4536    1.3786 C   0  0  0  0  0  0  0  0  0  0  0  0
   -4.1839   -1.0737    0.1009 C   0  0  0  0  0  0  0  0  0  0  0  0
   -3.3126   -2.0678   -0.7172 C   0  0  0  0  0  0  0  0  0  0  0  0
   -2.1803   -1.3556   -1.4746 C   0  0  0  0  0  0  0  0  0  0  0  0
   -4.2282   -2.7345   -1.7679 C   0  0  0  0  0  0  0  0  0  0  0  0
   -2.7189   -3.1698    0.1735 C   0  0  0  0  0  0  0  0  0  0  0  0
   -2.5934    1.7709    0.7000 C   0  0  0  0  0  0  0  0  0  0  0  0
   -3.8294    2.3780    0.2074 C   0  0  0  0  0  0  0  0  0  0  0  0
   -4.0419    2.5223   -1.1685 C   0  0  0  0  0  0  0  0  0  0  0  0
   -5.2195    3.1029   -1.6426 C   0  0  0  0  0  0  0  0  0  0  0  0
   -6.1872    3.5497   -0.7438 C   0  0  0  0  0  0  0  0  0  0  0  0
   -5.9769    3.4211    0.6287 C   0  0  0  0  0  0  0  0  0  0  0  0
   -4.7996    2.8399    1.1035 C   0  0  0  0  0  0  0  0  0  0  0  0
   -1.7517    4.2474   -0.1175 H   0  0  0  0  0  0  0  0  0  0  0  0
   -0.1476    3.6094   -0.4936 H   0  0  0  0  0  0  0  0  0  0  0  0
   -0.5003    4.2570    1.1263 H   0  0  0  0  0  0  0  0  0  0  0  0
    1.1356   -0.5303    1.9829 H   0  0  0  0  0  0  0  0  0  0  0  0
    3.2559   -0.3693    3.0205 H   0  0  0  0  0  0  0  0  0  0  0  0
    3.4722    1.2638    2.3878 H   0  0  0  0  0  0  0  0  0  0  0  0
    2.3181   -1.7498    0.3253 H   0  0  0  0  0  0  0  0  0  0  0  0
    3.4924   -2.3986    1.4662 H   0  0  0  0  0  0  0  0  0  0  0  0
    3.8403   -3.3385   -0.8127 H   0  0  0  0  0  0  0  0  0  0  0  0
    2.9472   -1.4007   -2.1091 H   0  0  0  0  0  0  0  0  0  0  0  0
    4.5585   -1.8387   -2.6716 H   0  0  0  0  0  0  0  0  0  0  0  0
    4.3668    0.6328   -2.3954 H   0  0  0  0  0  0  0  0  0  0  0  0
    6.3563    0.9584   -0.9238 H   0  0  0  0  0  0  0  0  0  0  0  0
    6.5764   -0.4418   -1.9706 H   0  0  0  0  0  0  0  0  0  0  0  0
    7.2438   -0.9814    0.3716 H   0  0  0  0  0  0  0  0  0  0  0  0
    5.8292   -3.0170    0.6610 H   0  0  0  0  0  0  0  0  0  0  0  0
    6.2641   -2.7960   -1.0322 H   0  0  0  0  0  0  0  0  0  0  0  0
    5.5274   -0.9914    2.1690 H   0  0  0  0  0  0  0  0  0  0  0  0
    5.7418    0.6317    1.5217 H   0  0  0  0  0  0  0  0  0  0  0  0
    4.0201    1.5972   -0.1271 H   0  0  0  0  0  0  0  0  0  0  0  0
    2.6351    0.6300   -0.6283 H   0  0  0  0  0  0  0  0  0  0  0  0
   -0.9864   -0.6957    2.1036 H   0  0  0  0  0  0  0  0  0  0  0  0
   -4.3928    0.0829    1.9132 H   0  0  0  0  0  0  0  0  0  0  0  0
   -3.2646   -1.2378    2.0666 H   0  0  0  0  0  0  0  0  0  0  0  0
   -4.5366   -0.2809   -0.5683 H   0  0  0  0  0  0  0  0  0  0  0  0
   -5.0912   -1.6086    0.4168 H   0  0  0  0  0  0  0  0  0  0  0  0
   -1.3958   -0.9984   -0.8051 H   0  0  0  0  0  0  0  0  0  0  0  0
   -2.5597   -0.5004   -2.0443 H   0  0  0  0  0  0  0  0  0  0  0  0
   -1.6959   -2.0356   -2.1855 H   0  0  0  0  0  0  0  0  0  0  0  0
   -5.0463   -3.2849   -1.2896 H   0  0  0  0  0  0  0  0  0  0  0  0
   -4.6723   -1.9873   -2.4355 H   0  0  0  0  0  0  0  0  0  0  0  0
   -3.6714   -3.4460   -2.3884 H   0  0  0  0  0  0  0  0  0  0  0  0
   -1.9814   -2.7707    0.8768 H   0  0  0  0  0  0  0  0  0  0  0  0
   -3.5009   -3.6731    0.7528 H   0  0  0  0  0  0  0  0  0  0  0  0
   -2.2095   -3.9312   -0.4284 H   0  0  0  0  0  0  0  0  0  0  0  0
   -3.2892    2.1803   -1.8749 H   0  0  0  0  0  0  0  0  0  0  0  0
   -5.3785    3.2102   -2.7123 H   0  0  0  0  0  0  0  0  0  0  0  0
   -7.1022    4.0058   -1.1130 H   0  0  0  0  0  0  0  0  0  0  0  0
   -6.7257    3.7800    1.3298 H   0  0  0  0  0  0  0  0  0  0  0  0
   -4.6367    2.7575    2.1753 H   0  0  0  0  0  0  0  0  0  0  0  0
  1  2  1  0
  2  3  1  0
  3  4  1  0
  4  5  2  0
  4  6  1  0
  6  7  1  0
  8  7  1  1
  8  9  1  0
  9 10  1  0
 10 11  1  0
 11 12  1  0
 12 13  1  0
 13 14  1  0
 14 15  1  0
 14 16  1  0
 12 17  1  0
  3 18  2  0
 18 19  1  0
 19 20  1  0
 20 21  1  0
 21 22  1  0
 22 23  1  0
 22 24  1  0
 22 25  1  0
 19 26  1  0
 26 27  1  0
 27 28  2  0
 28 29  1  0
 29 30  2  0
 30 31  1  0
 31 32  2  0
 26  2  2  0
 32 27  1  0
 16  8  1  0
 17  8  1  0
 15 10  1  0
  1 33  1  0
  1 34  1  0
  1 35  1  0
  6 36  1  0
  7 37  1  0
  7 38  1  0
  9 39  1  0
  9 40  1  0
 10 41  1  6
 11 42  1  0
 11 43  1  0
 12 44  1  6
 13 45  1  0
 13 46  1  0
 14 47  1  1
 15 48  1  0
 15 49  1  0
 16 50  1  0
 16 51  1  0
 17 52  1  0
 17 53  1  0
 18 54  1  0
 20 55  1  0
 20 56  1  0
 21 57  1  0
 21 58  1  0
 23 59  1  0
 23 60  1  0
 23 61  1  0
 24 62  1  0
 24 63  1  0
 24 64  1  0
 25 65  1  0
 25 66  1  0
 25 67  1  0
 28 68  1  0
 29 69  1  0
 30 70  1  0
 31 71  1  0
 32 72  1  0
M  END
>  <_SMILES>  (68) 
Cc1c(C(=O)NC[C@]23C[C@H]4C[C@H](C[C@H](C4)C2)C3)cn(CCC(C)(C)C)c1-c1ccccc1

$$$$

     RDKit          3D

 67 72  0  0  0  0  0  0  0  0999 V2000
   -0.2763    2.3275   -1.0573 C   0  0  0  0  0  0  0  0  0  0  0  0
    0.4290    1.2970   -0.2397 C   0  0  0  0  0  0  0  0  0  0  0  0
   -0.1709    0.3113    0.6232 C   0  0  0  0  0  0  0  0  0  0  0  0
   -1.5767    0.0042    0.9021 C   0  0  0  0  0  0  0  0  0  0  0  0
   -1.9359   -0.4695    1.9740 O   0  0  0  0  0  0  0  0  0  0  0  0
   -2.4248    0.2366   -0.1586 N   0  0  0  0  0  0  0  0  0  0  0  0
   -3.8527   -0.0873   -0.1756 C   0  0  2  0  0  0  0  0  0  0  0  0
   -4.4388    0.3765   -1.5371 C   0  0  0  0  0  0  0  0  0  0  0  0
   -5.9399    0.0605   -1.6290 C   0  0  1  0  0  0  0  0  0  0  0  0
   -6.1459   -1.4552   -1.4802 C   0  0  0  0  0  0  0  0  0  0  0  0
   -5.5976   -1.9292   -0.1248 C   0  0  2  0  0  0  0  0  0  0  0  0
   -6.3332   -1.1900    1.0060 C   0  0  0  0  0  0  0  0  0  0  0  0
   -6.1321    0.3285    0.8651 C   0  0  2  0  0  0  0  0  0  0  0  0
   -6.6781    0.7886   -0.4954 C   0  0  0  0  0  0  0  0  0  0  0  0
   -4.6290    0.6494    0.9457 C   0  0  0  0  0  0  0  0  0  0  0  0
   -4.0940   -1.6110   -0.0447 C   0  0  0  0  0  0  0  0  0  0  0  0
    0.8770   -0.3529    1.2354 C   0  0  0  0  0  0  0  0  0  0  0  0
    2.0597    0.1366    0.7544 N   0  0  0  0  0  0  0  0  0  0  0  0
    3.3665   -0.3559    1.1680 C   0  0  0  0  0  0  0  0  0  0  0  0
    3.8911   -1.4414    0.2310 C   0  0  0  0  0  0  0  0  0  0  0  0
    5.2911   -1.8598    0.6031 C   0  0  0  0  0  0  0  0  0  0  0  0
    6.3925   -1.1305    0.1337 C   0  0  0  0  0  0  0  0  0  0  0  0
    7.6889   -1.5005    0.4933 C   0  0  0  0  0  0  0  0  0  0  0  0
    7.8954   -2.5982    1.3267 C   0  0  0  0  0  0  0  0  0  0  0  0
    6.8061   -3.3262    1.8024 C   0  0  0  0  0  0  0  0  0  0  0  0
    5.5083   -2.9583    1.4445 C   0  0  0  0  0  0  0  0  0  0  0  0
    1.8119    1.1432   -0.1539 C   0  0  0  0  0  0  0  0  0  0  0  0
    2.8638    1.8809   -0.8514 C   0  0  0  0  0  0  0  0  0  0  0  0
    3.5214    2.9424   -0.2203 C   0  0  0  0  0  0  0  0  0  0  0  0
    4.5308    3.6395   -0.8865 C   0  0  0  0  0  0  0  0  0  0  0  0
    4.8834    3.2823   -2.1875 C   0  0  0  0  0  0  0  0  0  0  0  0
    4.2249    2.2317   -2.8255 C   0  0  0  0  0  0  0  0  0  0  0  0
    3.2149    1.5344   -2.1604 C   0  0  0  0  0  0  0  0  0  0  0  0
   -0.5587    1.9120   -2.0296 H   0  0  0  0  0  0  0  0  0  0  0  0
   -1.1787    2.6824   -0.5497 H   0  0  0  0  0  0  0  0  0  0  0  0
    0.3563    3.2034   -1.2329 H   0  0  0  0  0  0  0  0  0  0  0  0
   -1.9716    0.3645   -1.0520 H   0  0  0  0  0  0  0  0  0  0  0  0
   -4.2773    1.4548   -1.6694 H   0  0  0  0  0  0  0  0  0  0  0  0
   -3.9083   -0.1153   -2.3637 H   0  0  0  0  0  0  0  0  0  0  0  0
   -6.3297    0.3932   -2.5975 H   0  0  0  0  0  0  0  0  0  0  0  0
   -5.6384   -1.9847   -2.2958 H   0  0  0  0  0  0  0  0  0  0  0  0
   -7.2128   -1.6978   -1.5584 H   0  0  0  0  0  0  0  0  0  0  0  0
   -5.7517   -3.0091   -0.0218 H   0  0  0  0  0  0  0  0  0  0  0  0
   -5.9597   -1.5288    1.9802 H   0  0  0  0  0  0  0  0  0  0  0  0
   -7.4033   -1.4296    0.9747 H   0  0  0  0  0  0  0  0  0  0  0  0
   -6.6636    0.8479    1.6704 H   0  0  0  0  0  0  0  0  0  0  0  0
   -7.7541    0.5841   -0.5564 H   0  0  0  0  0  0  0  0  0  0  0  0
   -6.5535    1.8732   -0.6022 H   0  0  0  0  0  0  0  0  0  0  0  0
   -4.2600    0.3614    1.9365 H   0  0  0  0  0  0  0  0  0  0  0  0
   -4.4727    1.7330    0.8632 H   0  0  0  0  0  0  0  0  0  0  0  0
   -3.6974   -1.9893    0.9050 H   0  0  0  0  0  0  0  0  0  0  0  0
   -3.5562   -2.1477   -0.8373 H   0  0  0  0  0  0  0  0  0  0  0  0
    0.8547   -1.1481    1.9708 H   0  0  0  0  0  0  0  0  0  0  0  0
    4.0486    0.4989    1.2267 H   0  0  0  0  0  0  0  0  0  0  0  0
    3.2645   -0.7418    2.1902 H   0  0  0  0  0  0  0  0  0  0  0  0
    3.8868   -1.0987   -0.8109 H   0  0  0  0  0  0  0  0  0  0  0  0
    3.2245   -2.3135    0.2517 H   0  0  0  0  0  0  0  0  0  0  0  0
    6.2456   -0.2686   -0.5148 H   0  0  0  0  0  0  0  0  0  0  0  0
    8.5378   -0.9313    0.1237 H   0  0  0  0  0  0  0  0  0  0  0  0
    8.9054   -2.8860    1.6063 H   0  0  0  0  0  0  0  0  0  0  0  0
    6.9677   -4.1814    2.4535 H   0  0  0  0  0  0  0  0  0  0  0  0
    4.6691   -3.5355    1.8264 H   0  0  0  0  0  0  0  0  0  0  0  0
    3.2477    3.2301    0.7922 H   0  0  0  0  0  0  0  0  0  0  0  0
    5.0390    4.4627   -0.3910 H   0  0  0  0  0  0  0  0  0  0  0  0
    5.6682    3.8269   -2.7064 H   0  0  0  0  0  0  0  0  0  0  0  0
    4.4959    1.9566   -3.8415 H   0  0  0  0  0  0  0  0  0  0  0  0
    2.7050    0.7173   -2.6649 H   0  0  0  0  0  0  0  0  0  0  0  0
  1  2  1  0
  2  3  1  0
  3  4  1  0
  4  5  2  0
  4  6  1  0
  7  6  1  6
  7  8  1  0
  8  9  1  0
  9 10  1  0
 10 11  1  0
 11 12  1  0
 12 13  1  0
 13 14  1  0
 13 15  1  0
 11 16  1  0
  3 17  2  0
 17 18  1  0
 18 19  1  0
 19 20  1  0
 20 21  1  0
 21 22  2  0
 22 23  1  0
 23 24  2  0
 24 25  1  0
 25 26  2  0
 18 27  1  0
 27 28  1  0
 28 29  2  0
 29 30  1  0
 30 31  2  0
 31 32  1  0
 32 33  2  0
 27  2  2  0
 33 28  1  0
 15  7  1  0
 26 21  1  0
 16  7  1  0
 14  9  1  0
  1 34  1  0
  1 35  1  0
  1 36  1  0
  6 37  1  0
  8 38  1  0
  8 39  1  0
  9 40  1  6
 10 41  1  0
 10 42  1  0
 11 43  1  1
 12 44  1  0
 12 45  1  0
 13 46  1  1
 14 47  1  0
 14 48  1  0
 15 49  1  0
 15 50  1  0
 16 51  1  0
 16 52  1  0
 17 53  1  0
 19 54  1  0
 19 55  1  0
 20 56  1  0
 20 57  1  0
 22 58  1  0
 23 59  1  0
 24 60  1  0
 25 61  1  0
 26 62  1  0
 29 63  1  0
 30 64  1  0
 31 65  1  0
 32 66  1  0
 33 67  1  0
M  END
>  <_SMILES>  (69) 
Cc1c(C(=O)N[C@]23C[C@H]4C[C@H](C[C@H](C4)C2)C3)cn(CCc2ccccc2)c1-c1ccccc1

$$$$

     RDKit          3D

 74 79  0  0  0  0  0  0  0  0999 V2000
   -0.0543   -3.8071   -0.7048 C   0  0  0  0  0  0  0  0  0  0  0  0
   -0.6783   -2.4756   -0.9663 C   0  0  0  0  0  0  0  0  0  0  0  0
    0.0107   -1.3166   -1.4739 C   0  0  0  0  0  0  0  0  0  0  0  0
    1.4351   -1.2204   -1.8209 C   0  0  0  0  0  0  0  0  0  0  0  0
    2.1728   -2.2007   -1.8499 O   0  0  0  0  0  0  0  0  0  0  0  0
    1.8880    0.0547   -2.0885 N   0  0  0  0  0  0  0  0  0  0  0  0
    3.2772    0.3457   -2.3754 C   0  0  0  0  0  0  0  0  0  0  0  0
    4.0707    0.8702   -1.1575 C   0  0  2  0  0  0  0  0  0  0  0  0
    4.1386   -0.1755   -0.0153 C   0  0  0  0  0  0  0  0  0  0  0  0
    4.9733    0.3580    1.1627 C   0  0  1  0  0  0  0  0  0  0  0  0
    6.3989    0.6655    0.6788 C   0  0  0  0  0  0  0  0  0  0  0  0
    6.3584    1.7225   -0.4358 C   0  0  2  0  0  0  0  0  0  0  0  0
    5.7082    3.0066    0.1028 C   0  0  0  0  0  0  0  0  0  0  0  0
    4.2792    2.7101    0.5841 C   0  0  2  0  0  0  0  0  0  0  0  0
    4.3285    1.6484    1.6952 C   0  0  0  0  0  0  0  0  0  0  0  0
    3.4461    2.1731   -0.5934 C   0  0  0  0  0  0  0  0  0  0  0  0
    5.5221    1.1867   -1.6094 C   0  0  0  0  0  0  0  0  0  0  0  0
   -0.9477   -0.3217   -1.5786 C   0  0  0  0  0  0  0  0  0  0  0  0
   -2.1518   -0.8110   -1.1358 N   0  0  0  0  0  0  0  0  0  0  0  0
   -3.3802   -0.0272   -1.1052 C   0  0  0  0  0  0  0  0  0  0  0  0
   -3.7376    0.5232    0.2871 C   0  0  1  0  0  0  0  0  0  0  0  0
   -2.7652    1.6113    0.7606 C   0  0  0  0  0  0  0  0  0  0  0  0
   -3.0853    2.0988    2.1771 C   0  0  0  0  0  0  0  0  0  0  0  0
   -4.5439    1.8879    2.5868 C   0  0  1  0  0  0  0  0  0  0  0  0
   -4.8716    2.8268    3.6044 O   0  0  0  0  0  0  0  0  0  0  0  0
   -5.4814    2.0573    1.3987 C   0  0  0  0  0  0  0  0  0  0  0  0
   -5.1829    1.0602    0.2780 C   0  0  0  0  0  0  0  0  0  0  0  0
   -2.0136   -2.1329   -0.7722 C   0  0  0  0  0  0  0  0  0  0  0  0
   -3.1109   -2.9586   -0.2704 C   0  0  0  0  0  0  0  0  0  0  0  0
   -3.2390   -3.1990    1.1022 C   0  0  0  0  0  0  0  0  0  0  0  0
   -4.2873   -3.9846    1.5844 C   0  0  0  0  0  0  0  0  0  0  0  0
   -5.2080   -4.5395    0.6963 C   0  0  0  0  0  0  0  0  0  0  0  0
   -5.0791   -4.3143   -0.6738 C   0  0  0  0  0  0  0  0  0  0  0  0
   -4.0312   -3.5284   -1.1568 C   0  0  0  0  0  0  0  0  0  0  0  0
    0.7630   -3.7093    0.0170 H   0  0  0  0  0  0  0  0  0  0  0  0
   -0.7715   -4.5256   -0.2975 H   0  0  0  0  0  0  0  0  0  0  0  0
    0.3443   -4.2288   -1.6331 H   0  0  0  0  0  0  0  0  0  0  0  0
    1.2528    0.8281   -1.9711 H   0  0  0  0  0  0  0  0  0  0  0  0
    3.7583   -0.5512   -2.7829 H   0  0  0  0  0  0  0  0  0  0  0  0
    3.2716    1.0999   -3.1711 H   0  0  0  0  0  0  0  0  0  0  0  0
    3.1321   -0.4183    0.3463 H   0  0  0  0  0  0  0  0  0  0  0  0
    4.5781   -1.1108   -0.3846 H   0  0  0  0  0  0  0  0  0  0  0  0
    5.0080   -0.3932    1.9597 H   0  0  0  0  0  0  0  0  0  0  0  0
    6.8756   -0.2509    0.3100 H   0  0  0  0  0  0  0  0  0  0  0  0
    7.0089    1.0270    1.5158 H   0  0  0  0  0  0  0  0  0  0  0  0
    7.3770    1.9391   -0.7766 H   0  0  0  0  0  0  0  0  0  0  0  0
    5.6884    3.7743   -0.6805 H   0  0  0  0  0  0  0  0  0  0  0  0
    6.3057    3.4107    0.9293 H   0  0  0  0  0  0  0  0  0  0  0  0
    3.8220    3.6279    0.9706 H   0  0  0  0  0  0  0  0  0  0  0  0
    3.3150    1.4389    2.0590 H   0  0  0  0  0  0  0  0  0  0  0  0
    4.9013    2.0278    2.5503 H   0  0  0  0  0  0  0  0  0  0  0  0
    2.4195    1.9919   -0.2515 H   0  0  0  0  0  0  0  0  0  0  0  0
    3.3869    2.9354   -1.3808 H   0  0  0  0  0  0  0  0  0  0  0  0
    5.9965    0.2836   -2.0151 H   0  0  0  0  0  0  0  0  0  0  0  0
    5.5125    1.9271   -2.4198 H   0  0  0  0  0  0  0  0  0  0  0  0
   -0.8799    0.6982   -1.9310 H   0  0  0  0  0  0  0  0  0  0  0  0
   -4.1814   -0.6683   -1.4893 H   0  0  0  0  0  0  0  0  0  0  0  0
   -3.2672    0.7923   -1.8261 H   0  0  0  0  0  0  0  0  0  0  0  0
   -3.6915   -0.2979    1.0135 H   0  0  0  0  0  0  0  0  0  0  0  0
   -1.7294    1.2557    0.7408 H   0  0  0  0  0  0  0  0  0  0  0  0
   -2.8135    2.4638    0.0705 H   0  0  0  0  0  0  0  0  0  0  0  0
   -2.8034    3.1558    2.2663 H   0  0  0  0  0  0  0  0  0  0  0  0
   -2.4472    1.5721    2.8986 H   0  0  0  0  0  0  0  0  0  0  0  0
   -4.6637    0.8847    3.0134 H   0  0  0  0  0  0  0  0  0  0  0  0
   -5.7894    2.6563    3.8771 H   0  0  0  0  0  0  0  0  0  0  0  0
   -5.3893    3.0814    1.0125 H   0  0  0  0  0  0  0  0  0  0  0  0
   -6.5274    1.9648    1.7151 H   0  0  0  0  0  0  0  0  0  0  0  0
   -5.4126    1.5410   -0.6813 H   0  0  0  0  0  0  0  0  0  0  0  0
   -5.8686    0.2070    0.3601 H   0  0  0  0  0  0  0  0  0  0  0  0
   -2.5199   -2.7752    1.7992 H   0  0  0  0  0  0  0  0  0  0  0  0
   -4.3806   -4.1685    2.6514 H   0  0  0  0  0  0  0  0  0  0  0  0
   -6.0209   -5.1560    1.0714 H   0  0  0  0  0  0  0  0  0  0  0  0
   -5.7894   -4.7567   -1.3673 H   0  0  0  0  0  0  0  0  0  0  0  0
   -3.9293   -3.3679   -2.2274 H   0  0  0  0  0  0  0  0  0  0  0  0
  1  2  1  0
  2  3  1  0
  3  4  1  0
  4  5  2  0
  4  6  1  0
  6  7  1  0
  8  7  1  6
  8  9  1  0
  9 10  1  0
 10 11  1  0
 11 12  1  0
 12 13  1  0
 13 14  1  0
 14 15  1  0
 14 16  1  0
 12 17  1  0
  3 18  2  0
 18 19  1  0
 19 20  1  0
 20 21  1  0
 21 22  1  0
 22 23  1  0
 23 24  1  0
 24 25  1  0
 24 26  1  0
 26 27  1  0
 19 28  1  0
 28 29  1  0
 29 30  2  0
 30 31  1  0
 31 32  2  0
 32 33  1  0
 33 34  2  0
 28  2  2  0
 34 29  1  0
 16  8  1  0
 27 21  1  0
 17  8  1  0
 15 10  1  0
  1 35  1  0
  1 36  1  0
  1 37  1  0
  6 38  1  0
  7 39  1  0
  7 40  1  0
  9 41  1  0
  9 42  1  0
 10 43  1  1
 11 44  1  0
 11 45  1  0
 12 46  1  6
 13 47  1  0
 13 48  1  0
 14 49  1  1
 15 50  1  0
 15 51  1  0
 16 52  1  0
 16 53  1  0
 17 54  1  0
 17 55  1  0
 18 56  1  0
 20 57  1  0
 20 58  1  0
 21 59  1  1
 22 60  1  0
 22 61  1  0
 23 62  1  0
 23 63  1  0
 24 64  1  1
 25 65  1  0
 26 66  1  0
 26 67  1  0
 27 68  1  0
 27 69  1  0
 30 70  1  0
 31 71  1  0
 32 72  1  0
 33 73  1  0
 34 74  1  0
M  END
>  <_SMILES>  (70) 
Cc1c(C(=O)NC[C@]23C[C@H]4C[C@H](C[C@H](C4)C2)C3)cn(C[C@H]2CC[C@@H](O)CC2)c1-c1ccccc1

$$$$

     RDKit          3D

 70 75  0  0  0  0  0  0  0  0999 V2000
    1.3241    2.6906   -1.0493 O   0  0  0  0  0  0  0  0  0  0  0  0
    0.9629    2.0521   -0.0687 C   0  0  0  0  0  0  0  0  0  0  0  0
    1.8372    1.5717    0.8802 N   0  0  0  0  0  0  0  0  0  0  0  0
    3.2716    1.7467    0.7798 C   0  0  0  0  0  0  0  0  0  0  0  0
    4.0128    0.4880    0.2776 C   0  0  2  0  0  0  0  0  0  0  0  0
    3.7655   -0.7249    1.2119 C   0  0  0  0  0  0  0  0  0  0  0  0
    4.5503   -1.9557    0.7240 C   0  0  1  0  0  0  0  0  0  0  0  0
    4.0978   -2.3122   -0.7016 C   0  0  0  0  0  0  0  0  0  0  0  0
    4.3634   -1.1311   -1.6497 C   0  0  2  0  0  0  0  0  0  0  0  0
    5.8658   -0.8086   -1.6501 C   0  0  0  0  0  0  0  0  0  0  0  0
    6.3254   -0.4458   -0.2293 C   0  0  2  0  0  0  0  0  0  0  0  0
    6.0521   -1.6292    0.7123 C   0  0  0  0  0  0  0  0  0  0  0  0
    5.5372    0.7809    0.2586 C   0  0  0  0  0  0  0  0  0  0  0  0
    3.5782    0.0982   -1.1585 C   0  0  0  0  0  0  0  0  0  0  0  0
   -0.4480    1.7412    0.1746 C   0  0  0  0  0  0  0  0  0  0  0  0
   -0.9555    0.7732    1.0241 C   0  0  0  0  0  0  0  0  0  0  0  0
   -2.3234    0.7645    0.9193 N   0  0  0  0  0  0  0  0  0  0  0  0
   -3.1823   -0.1552    1.6565 C   0  0  0  0  0  0  0  0  0  0  0  0
   -3.5580   -1.4015    0.8561 C   0  0  0  0  0  0  0  0  0  0  0  0
   -2.3929   -2.3561    0.5963 C   0  0  0  0  0  0  0  0  0  0  0  0
   -3.0611   -3.6852    0.2560 C   0  0  0  0  0  0  0  0  0  0  0  0
   -4.4600   -3.6292    0.8699 C   0  0  0  0  0  0  0  0  0  0  0  0
   -4.5417   -2.2972    1.6059 C   0  0  0  0  0  0  0  0  0  0  0  0
   -2.7305    1.7382    0.0324 C   0  0  0  0  0  0  0  0  0  0  0  0
   -4.1308    1.9853   -0.3051 C   0  0  0  0  0  0  0  0  0  0  0  0
   -4.6758    1.4507   -1.4776 C   0  0  0  0  0  0  0  0  0  0  0  0
   -6.0143    1.6822   -1.7991 C   0  0  0  0  0  0  0  0  0  0  0  0
   -6.8115    2.4532   -0.9541 C   0  0  0  0  0  0  0  0  0  0  0  0
   -6.2714    2.9972    0.2107 C   0  0  0  0  0  0  0  0  0  0  0  0
   -4.9331    2.7663    0.5340 C   0  0  0  0  0  0  0  0  0  0  0  0
   -1.5836    2.3684   -0.4559 C   0  0  0  0  0  0  0  0  0  0  0  0
   -1.5014    3.4926   -1.4481 C   0  0  0  0  0  0  0  0  0  0  0  0
   -1.0077    3.0825   -2.6441 F   0  0  0  0  0  0  0  0  0  0  0  0
   -2.7136    4.0514   -1.7127 F   0  0  0  0  0  0  0  0  0  0  0  0
   -0.7204    4.5110   -1.0024 F   0  0  0  0  0  0  0  0  0  0  0  0
    1.4682    1.1018    1.6925 H   0  0  0  0  0  0  0  0  0  0  0  0
    3.6185    2.0109    1.7856 H   0  0  0  0  0  0  0  0  0  0  0  0
    3.4898    2.6002    0.1275 H   0  0  0  0  0  0  0  0  0  0  0  0
    4.0667   -0.4788    2.2383 H   0  0  0  0  0  0  0  0  0  0  0  0
    2.6972   -0.9728    1.2475 H   0  0  0  0  0  0  0  0  0  0  0  0
    4.3618   -2.8022    1.3937 H   0  0  0  0  0  0  0  0  0  0  0  0
    4.6343   -3.2021   -1.0530 H   0  0  0  0  0  0  0  0  0  0  0  0
    3.0298   -2.5627   -0.7045 H   0  0  0  0  0  0  0  0  0  0  0  0
    4.0417   -1.3925   -2.6641 H   0  0  0  0  0  0  0  0  0  0  0  0
    6.0706    0.0235   -2.3349 H   0  0  0  0  0  0  0  0  0  0  0  0
    6.4341   -1.6714   -2.0188 H   0  0  0  0  0  0  0  0  0  0  0  0
    7.3972   -0.2179   -0.2347 H   0  0  0  0  0  0  0  0  0  0  0  0
    6.3912   -1.3873    1.7271 H   0  0  0  0  0  0  0  0  0  0  0  0
    6.6237   -2.5068    0.3865 H   0  0  0  0  0  0  0  0  0  0  0  0
    5.8807    1.0609    1.2629 H   0  0  0  0  0  0  0  0  0  0  0  0
    5.7491    1.6366   -0.3956 H   0  0  0  0  0  0  0  0  0  0  0  0
    3.7423    0.9390   -1.8445 H   0  0  0  0  0  0  0  0  0  0  0  0
    2.5060   -0.1312   -1.1887 H   0  0  0  0  0  0  0  0  0  0  0  0
   -0.4578    0.0599    1.6677 H   0  0  0  0  0  0  0  0  0  0  0  0
   -2.6547   -0.4244    2.5801 H   0  0  0  0  0  0  0  0  0  0  0  0
   -4.0776    0.3967    1.9617 H   0  0  0  0  0  0  0  0  0  0  0  0
   -4.0013   -1.1153   -0.1062 H   0  0  0  0  0  0  0  0  0  0  0  0
   -1.7418   -2.0127   -0.2135 H   0  0  0  0  0  0  0  0  0  0  0  0
   -1.7768   -2.4743    1.4963 H   0  0  0  0  0  0  0  0  0  0  0  0
   -2.4813   -4.5291    0.6435 H   0  0  0  0  0  0  0  0  0  0  0  0
   -3.1361   -3.8104   -0.8303 H   0  0  0  0  0  0  0  0  0  0  0  0
   -4.6461   -4.4721    1.5428 H   0  0  0  0  0  0  0  0  0  0  0  0
   -5.2141   -3.6701    0.0752 H   0  0  0  0  0  0  0  0  0  0  0  0
   -4.2312   -2.4303    2.6496 H   0  0  0  0  0  0  0  0  0  0  0  0
   -5.5580   -1.8911    1.6060 H   0  0  0  0  0  0  0  0  0  0  0  0
   -4.0611    0.8535   -2.1470 H   0  0  0  0  0  0  0  0  0  0  0  0
   -6.4322    1.2671   -2.7126 H   0  0  0  0  0  0  0  0  0  0  0  0
   -7.8519    2.6386   -1.2088 H   0  0  0  0  0  0  0  0  0  0  0  0
   -6.8899    3.6082    0.8628 H   0  0  0  0  0  0  0  0  0  0  0  0
   -4.5185    3.2045    1.4385 H   0  0  0  0  0  0  0  0  0  0  0  0
  1  2  2  0
  2  3  1  0
  3  4  1  0
  5  4  1  1
  5  6  1  0
  6  7  1  0
  7  8  1  0
  8  9  1  0
  9 10  1  0
 10 11  1  0
 11 12  1  0
 11 13  1  0
  9 14  1  0
  2 15  1  0
 15 16  2  0
 16 17  1  0
 17 18  1  0
 18 19  1  0
 19 20  1  0
 20 21  1  0
 21 22  1  0
 22 23  1  0
 17 24  1  0
 24 25  1  0
 25 26  2  0
 26 27  1  0
 27 28  2  0
 28 29  1  0
 29 30  2  0
 24 31  2  0
 31 32  1  0
 32 33  1  0
 32 34  1  0
 32 35  1  0
 13  5  1  0
 31 15  1  0
 14  5  1  0
 23 19  1  0
 30 25  1  0
 12  7  1  0
  3 36  1  0
  4 37  1  0
  4 38  1  0
  6 39  1  0
  6 40  1  0
  7 41  1  1
  8 42  1  0
  8 43  1  0
  9 44  1  6
 10 45  1  0
 10 46  1  0
 11 47  1  6
 12 48  1  0
 12 49  1  0
 13 50  1  0
 13 51  1  0
 14 52  1  0
 14 53  1  0
 16 54  1  0
 18 55  1  0
 18 56  1  0
 19 57  1  0
 20 58  1  0
 20 59  1  0
 21 60  1  0
 21 61  1  0
 22 62  1  0
 22 63  1  0
 23 64  1  0
 23 65  1  0
 26 66  1  0
 27 67  1  0
 28 68  1  0
 29 69  1  0
 30 70  1  0
M  END
>  <_SMILES>  (71) 
O=C(NC[C@]12C[C@H]3C[C@H](C[C@H](C3)C1)C2)c1cn(CC2CCCC2)c(-c2ccccc2)c1C(F)(F)F

$$$$

     RDKit          3D

 62 65  0  0  0  0  0  0  0  0999 V2000
    1.2093    1.5994   -2.7610 C   0  0  0  0  0  0  0  0  0  0  0  0
    1.1673    1.2479   -1.3104 C   0  0  0  0  0  0  0  0  0  0  0  0
    0.1949    0.4254   -0.6433 C   0  0  0  0  0  0  0  0  0  0  0  0
   -1.0009   -0.2376   -1.1420 C   0  0  0  0  0  0  0  0  0  0  0  0
   -1.4330   -1.2918   -0.6814 O   0  0  0  0  0  0  0  0  0  0  0  0
   -1.7016    0.4447   -2.1069 N   0  0  0  0  0  0  0  0  0  0  0  0
   -2.8885   -0.0940   -2.7489 C   0  0  0  0  0  0  0  0  0  0  0  0
   -4.1187   -0.2158   -1.8248 C   0  0  0  0  0  0  0  0  0  0  0  0
   -4.0465   -1.3839   -0.8832 N   0  0  2  0  0  0  0  0  0  0  0  0
   -4.1425   -2.7492   -1.5096 C   0  0  0  0  0  0  0  0  0  0  0  0
   -4.5721   -3.6313   -0.3601 C   0  0  0  0  0  0  0  0  0  0  0  0
   -5.5814   -2.7683    0.3719 C   0  0  0  0  0  0  0  0  0  0  0  0
   -5.0447   -1.3369    0.2781 C   0  0  1  0  0  0  0  0  0  0  0  0
   -4.3139   -0.8651    1.5473 C   0  0  0  0  0  0  0  0  0  0  0  0
   -3.1515   -1.6597    1.7433 O   0  0  0  0  0  0  0  0  0  0  0  0
    0.6092    0.3251    0.6709 C   0  0  0  0  0  0  0  0  0  0  0  0
    1.7521    1.0654    0.8438 N   0  0  0  0  0  0  0  0  0  0  0  0
    2.4297    1.2174    2.1304 C   0  0  0  0  0  0  0  0  0  0  0  0
    3.0716   -0.0705    2.5787 C   0  0  0  0  0  0  0  0  0  0  0  0
    4.3167   -0.4527    2.0816 C   0  0  0  0  0  0  0  0  0  0  0  0
    4.8780   -1.6489    2.5188 C   0  0  0  0  0  0  0  0  0  0  0  0
    4.1880   -2.4305    3.4365 C   0  0  0  0  0  0  0  0  0  0  0  0
    2.9570   -1.9819    3.8820 C   0  0  0  0  0  0  0  0  0  0  0  0
    2.3838   -0.8268    3.4755 N   0  0  0  0  0  0  0  0  0  0  0  0
    2.0998    1.6530   -0.3552 C   0  0  0  0  0  0  0  0  0  0  0  0
    3.2740    2.5058   -0.5288 C   0  0  0  0  0  0  0  0  0  0  0  0
    3.2186    3.8615   -0.1871 C   0  0  0  0  0  0  0  0  0  0  0  0
    4.3435    4.6721   -0.3486 C   0  0  0  0  0  0  0  0  0  0  0  0
    5.5250    4.1331   -0.8568 C   0  0  0  0  0  0  0  0  0  0  0  0
    5.5833    2.7849   -1.2079 C   0  0  0  0  0  0  0  0  0  0  0  0
    4.4597    1.9729   -1.0468 C   0  0  0  0  0  0  0  0  0  0  0  0
    0.8074    0.7861   -3.3734 H   0  0  0  0  0  0  0  0  0  0  0  0
    0.6208    2.5032   -2.9474 H   0  0  0  0  0  0  0  0  0  0  0  0
    2.2320    1.7819   -3.1044 H   0  0  0  0  0  0  0  0  0  0  0  0
   -1.3426    1.3449   -2.4029 H   0  0  0  0  0  0  0  0  0  0  0  0
   -3.1288    0.5969   -3.5643 H   0  0  0  0  0  0  0  0  0  0  0  0
   -2.6298   -1.0595   -3.1954 H   0  0  0  0  0  0  0  0  0  0  0  0
   -5.0326   -0.3419   -2.4150 H   0  0  0  0  0  0  0  0  0  0  0  0
   -4.2144    0.6861   -1.2099 H   0  0  0  0  0  0  0  0  0  0  0  0
   -3.0957   -1.3878   -0.4362 H   0  0  0  0  0  0  0  0  0  0  0  0
   -3.1709   -3.0242   -1.9278 H   0  0  0  0  0  0  0  0  0  0  0  0
   -4.9046   -2.7070   -2.2950 H   0  0  0  0  0  0  0  0  0  0  0  0
   -5.0033   -4.5765   -0.7020 H   0  0  0  0  0  0  0  0  0  0  0  0
   -3.7192   -3.8634    0.2876 H   0  0  0  0  0  0  0  0  0  0  0  0
   -6.5486   -2.8247   -0.1435 H   0  0  0  0  0  0  0  0  0  0  0  0
   -5.7430   -3.1023    1.4015 H   0  0  0  0  0  0  0  0  0  0  0  0
   -5.8535   -0.6444    0.0181 H   0  0  0  0  0  0  0  0  0  0  0  0
   -4.9608   -0.9532    2.4254 H   0  0  0  0  0  0  0  0  0  0  0  0
   -4.0010    0.1785    1.4399 H   0  0  0  0  0  0  0  0  0  0  0  0
   -2.6964   -1.3432    2.5471 H   0  0  0  0  0  0  0  0  0  0  0  0
    0.1816   -0.2236    1.5022 H   0  0  0  0  0  0  0  0  0  0  0  0
    3.1720    2.0179    2.0717 H   0  0  0  0  0  0  0  0  0  0  0  0
    1.6666    1.5367    2.8507 H   0  0  0  0  0  0  0  0  0  0  0  0
    4.8497    0.1690    1.3696 H   0  0  0  0  0  0  0  0  0  0  0  0
    5.8488   -1.9669    2.1482 H   0  0  0  0  0  0  0  0  0  0  0  0
    4.6013   -3.3656    3.7980 H   0  0  0  0  0  0  0  0  0  0  0  0
    2.3819   -2.5574    4.6019 H   0  0  0  0  0  0  0  0  0  0  0  0
    2.3013    4.2937    0.2046 H   0  0  0  0  0  0  0  0  0  0  0  0
    4.2992    5.7250   -0.0812 H   0  0  0  0  0  0  0  0  0  0  0  0
    6.4003    4.7659   -0.9841 H   0  0  0  0  0  0  0  0  0  0  0  0
    6.5032    2.3683   -1.6106 H   0  0  0  0  0  0  0  0  0  0  0  0
    4.5127    0.9241   -1.3295 H   0  0  0  0  0  0  0  0  0  0  0  0
  1  2  1  0
  2  3  1  0
  3  4  1  0
  4  5  2  0
  4  6  1  0
  6  7  1  0
  7  8  1  0
  8  9  1  0
  9 10  1  0
 10 11  1  0
 11 12  1  0
 12 13  1  0
 13 14  1  0
 14 15  1  0
  3 16  2  0
 16 17  1  0
 17 18  1  0
 18 19  1  0
 19 20  2  0
 20 21  1  0
 21 22  2  0
 22 23  1  0
 23 24  2  0
 17 25  1  0
 25 26  1  0
 26 27  2  0
 27 28  1  0
 28 29  2  0
 29 30  1  0
 30 31  2  0
 25  2  2  0
 31 26  1  0
 13  9  1  0
 24 19  1  0
  1 32  1  0
  1 33  1  0
  1 34  1  0
  6 35  1  0
  7 36  1  0
  7 37  1  0
  8 38  1  0
  8 39  1  0
  9 40  1  1
 10 41  1  0
 10 42  1  0
 11 43  1  0
 11 44  1  0
 12 45  1  0
 12 46  1  0
 13 47  1  6
 14 48  1  0
 14 49  1  0
 15 50  1  0
 16 51  1  0
 18 52  1  0
 18 53  1  0
 20 54  1  0
 21 55  1  0
 22 56  1  0
 23 57  1  0
 27 58  1  0
 28 59  1  0
 29 60  1  0
 30 61  1  0
 31 62  1  0
M  CHG  1   9   1
M  END
>  <_SMILES>  (72) 
Cc1c(C(=O)NCC[N@@H+]2CCC[C@H]2CO)cn(Cc2ccccn2)c1-c1ccccc1

$$$$

     RDKit          3D

 62 65  0  0  0  0  0  0  0  0999 V2000
   -0.7901   -2.7358   -0.9083 C   0  0  0  0  0  0  0  0  0  0  0  0
   -1.2514   -1.5570   -0.1159 C   0  0  0  0  0  0  0  0  0  0  0  0
   -0.4478   -0.6800    0.6949 C   0  0  0  0  0  0  0  0  0  0  0  0
    0.9757   -0.6898    1.0056 C   0  0  0  0  0  0  0  0  0  0  0  0
    1.6082    0.3232    1.3044 O   0  0  0  0  0  0  0  0  0  0  0  0
    1.5935   -1.9196    0.9753 N   0  0  0  0  0  0  0  0  0  0  0  0
    2.9453   -2.1441    1.4706 C   0  0  0  0  0  0  0  0  0  0  0  0
    4.0581   -1.3846    0.7125 C   0  0  0  0  0  0  0  0  0  0  0  0
    4.1371    0.0637    1.1047 N   0  0  1  0  0  0  0  0  0  0  0  0
    4.6450    0.3798    2.4906 C   0  0  0  0  0  0  0  0  0  0  0  0
    5.3390    1.7292    2.3668 C   0  0  0  0  0  0  0  0  0  0  0  0
    4.9327    2.2731    1.0074 C   0  0  0  0  0  0  0  0  0  0  0  0
    4.8006    1.0249    0.1397 C   0  0  1  0  0  0  0  0  0  0  0  0
    6.1522    0.5025   -0.3897 C   0  0  0  0  0  0  0  0  0  0  0  0
    6.7614    1.4888   -1.2096 O   0  0  0  0  0  0  0  0  0  0  0  0
   -1.3024    0.2988    1.1653 C   0  0  0  0  0  0  0  0  0  0  0  0
   -2.5750    0.0453    0.7191 N   0  0  0  0  0  0  0  0  0  0  0  0
   -3.7336    0.8609    1.0792 C   0  0  0  0  0  0  0  0  0  0  0  0
   -3.8854    2.0488    0.1646 C   0  0  0  0  0  0  0  0  0  0  0  0
   -4.7828    2.0123   -0.9015 C   0  0  0  0  0  0  0  0  0  0  0  0
   -4.9029    3.1309   -1.7213 C   0  0  0  0  0  0  0  0  0  0  0  0
   -4.1319    4.2554   -1.4573 C   0  0  0  0  0  0  0  0  0  0  0  0
   -3.2677    4.2155   -0.3775 C   0  0  0  0  0  0  0  0  0  0  0  0
   -3.1272    3.1443    0.4350 N   0  0  0  0  0  0  0  0  0  0  0  0
   -2.5671   -1.0967   -0.0546 C   0  0  0  0  0  0  0  0  0  0  0  0
   -3.7579   -1.6432   -0.7024 C   0  0  0  0  0  0  0  0  0  0  0  0
   -4.0210   -1.3548   -2.0464 C   0  0  0  0  0  0  0  0  0  0  0  0
   -5.1583   -1.8739   -2.6670 C   0  0  0  0  0  0  0  0  0  0  0  0
   -6.0340   -2.6870   -1.9487 C   0  0  0  0  0  0  0  0  0  0  0  0
   -5.7724   -2.9855   -0.6119 C   0  0  0  0  0  0  0  0  0  0  0  0
   -4.6350   -2.4677    0.0102 C   0  0  0  0  0  0  0  0  0  0  0  0
   -0.7354   -3.6227   -0.2693 H   0  0  0  0  0  0  0  0  0  0  0  0
   -1.4662   -2.9592   -1.7390 H   0  0  0  0  0  0  0  0  0  0  0  0
    0.1976   -2.5522   -1.3427 H   0  0  0  0  0  0  0  0  0  0  0  0
    0.9618   -2.7133    0.9862 H   0  0  0  0  0  0  0  0  0  0  0  0
    2.9592   -1.9080    2.5397 H   0  0  0  0  0  0  0  0  0  0  0  0
    3.1255   -3.2192    1.3623 H   0  0  0  0  0  0  0  0  0  0  0  0
    3.8669   -1.4185   -0.3656 H   0  0  0  0  0  0  0  0  0  0  0  0
    5.0375   -1.8263    0.9227 H   0  0  0  0  0  0  0  0  0  0  0  0
    3.1429    0.3864    1.1229 H   0  0  0  0  0  0  0  0  0  0  0  0
    3.7807    0.4109    3.1606 H   0  0  0  0  0  0  0  0  0  0  0  0
    5.3398   -0.4063    2.8017 H   0  0  0  0  0  0  0  0  0  0  0  0
    5.0619    2.4070    3.1801 H   0  0  0  0  0  0  0  0  0  0  0  0
    6.4259    1.5945    2.4149 H   0  0  0  0  0  0  0  0  0  0  0  0
    5.6497    3.0036    0.6220 H   0  0  0  0  0  0  0  0  0  0  0  0
    3.9598    2.7741    1.0883 H   0  0  0  0  0  0  0  0  0  0  0  0
    4.1089    1.2024   -0.6918 H   0  0  0  0  0  0  0  0  0  0  0  0
    6.0049   -0.3941   -0.9996 H   0  0  0  0  0  0  0  0  0  0  0  0
    6.8406    0.2554    0.4246 H   0  0  0  0  0  0  0  0  0  0  0  0
    7.6043    1.1321   -1.5471 H   0  0  0  0  0  0  0  0  0  0  0  0
   -1.1040    1.1670    1.7837 H   0  0  0  0  0  0  0  0  0  0  0  0
   -3.5830    1.2016    2.1109 H   0  0  0  0  0  0  0  0  0  0  0  0
   -4.6295    0.2331    1.0832 H   0  0  0  0  0  0  0  0  0  0  0  0
   -5.3897    1.1328   -1.0938 H   0  0  0  0  0  0  0  0  0  0  0  0
   -5.5978    3.1259   -2.5567 H   0  0  0  0  0  0  0  0  0  0  0  0
   -4.2066    5.1433   -2.0752 H   0  0  0  0  0  0  0  0  0  0  0  0
   -2.6475    5.0716   -0.1276 H   0  0  0  0  0  0  0  0  0  0  0  0
   -3.3430   -0.7214   -2.6142 H   0  0  0  0  0  0  0  0  0  0  0  0
   -5.3604   -1.6467   -3.7108 H   0  0  0  0  0  0  0  0  0  0  0  0
   -6.9192   -3.0932   -2.4328 H   0  0  0  0  0  0  0  0  0  0  0  0
   -6.4533   -3.6253   -0.0557 H   0  0  0  0  0  0  0  0  0  0  0  0
   -4.4372   -2.7128    1.0508 H   0  0  0  0  0  0  0  0  0  0  0  0
  1  2  1  0
  2  3  1  0
  3  4  1  0
  4  5  2  0
  4  6  1  0
  6  7  1  0
  7  8  1  0
  8  9  1  0
  9 10  1  0
 10 11  1  0
 11 12  1  0
 12 13  1  0
 13 14  1  0
 14 15  1  0
  3 16  2  0
 16 17  1  0
 17 18  1  0
 18 19  1  0
 19 20  2  0
 20 21  1  0
 21 22  2  0
 22 23  1  0
 23 24  2  0
 17 25  1  0
 25 26  1  0
 26 27  2  0
 27 28  1  0
 28 29  2  0
 29 30  1  0
 30 31  2  0
 25  2  2  0
 31 26  1  0
 13  9  1  0
 24 19  1  0
  1 32  1  0
  1 33  1  0
  1 34  1  0
  6 35  1  0
  7 36  1  0
  7 37  1  0
  8 38  1  0
  8 39  1  0
  9 40  1  1
 10 41  1  0
 10 42  1  0
 11 43  1  0
 11 44  1  0
 12 45  1  0
 12 46  1  0
 13 47  1  6
 14 48  1  0
 14 49  1  0
 15 50  1  0
 16 51  1  0
 18 52  1  0
 18 53  1  0
 20 54  1  0
 21 55  1  0
 22 56  1  0
 23 57  1  0
 27 58  1  0
 28 59  1  0
 29 60  1  0
 30 61  1  0
 31 62  1  0
M  CHG  1   9   1
M  END
>  <_SMILES>  (73) 
Cc1c(C(=O)NCC[N@H+]2CCC[C@H]2CO)cn(Cc2ccccn2)c1-c1ccccc1

$$$$

     RDKit          3D

 76 80  0  0  0  0  0  0  0  0999 V2000
   -2.5183   -3.3914   -1.3620 C   0  0  0  0  0  0  0  0  0  0  0  0
   -1.9710   -1.9727   -1.5167 C   0  0  1  0  0  0  0  0  0  0  0  0
   -2.8961   -0.9931   -0.8470 N   0  0  0  0  0  0  0  0  0  0  0  0
   -4.1787   -0.7097   -1.5667 C   0  0  0  0  0  0  0  0  0  0  0  0
   -5.0213    0.3739   -0.8601 C   0  0  2  0  0  0  0  0  0  0  0  0
   -6.3297    0.5700   -1.6760 C   0  0  0  0  0  0  0  0  0  0  0  0
   -7.2283    1.6380   -1.0327 C   0  0  1  0  0  0  0  0  0  0  0  0
   -7.5893    1.1992    0.3947 C   0  0  0  0  0  0  0  0  0  0  0  0
   -6.3113    1.0310    1.2309 C   0  0  2  0  0  0  0  0  0  0  0  0
   -5.5545    2.3689    1.2744 C   0  0  0  0  0  0  0  0  0  0  0  0
   -5.1844    2.8112   -0.1510 C   0  0  2  0  0  0  0  0  0  0  0  0
   -6.4674    2.9716   -0.9808 C   0  0  0  0  0  0  0  0  0  0  0  0
   -4.2874    1.7391   -0.7968 C   0  0  0  0  0  0  0  0  0  0  0  0
   -5.4126   -0.0382    0.5830 C   0  0  0  0  0  0  0  0  0  0  0  0
   -0.5612   -1.8555   -0.9596 C   0  0  0  0  0  0  0  0  0  0  0  0
    0.5128   -1.5673   -1.8159 C   0  0  0  0  0  0  0  0  0  0  0  0
    1.8330   -1.5323   -1.3383 C   0  0  0  0  0  0  0  0  0  0  0  0
    2.1211   -1.7894    0.0056 C   0  0  0  0  0  0  0  0  0  0  0  0
    3.4528   -1.8327    0.5062 N   0  0  0  0  0  0  0  0  0  0  0  0
    3.8641   -2.8328    1.4786 C   0  0  0  0  0  0  0  0  0  0  0  0
    5.2741   -2.7622    0.9080 C   0  0  0  0  0  0  0  0  0  0  0  0
    4.6630   -2.0201   -0.2861 C   0  0  2  0  0  0  0  0  0  0  0  0
    5.2924   -0.6926   -0.7090 C   0  0  0  0  0  0  0  0  0  0  0  0
    4.9659    0.4825    0.1818 N   0  0  0  0  0  0  0  0  0  0  0  0
    5.7987    0.6797    1.4252 C   0  0  0  0  0  0  0  0  0  0  0  0
    7.2977    0.7777    1.1329 C   0  0  0  0  0  0  0  0  0  0  0  0
    7.9224   -0.2729    0.9674 O   0  0  0  0  0  0  0  0  0  0  0  0
    7.8721    2.0293    0.9572 N   0  0  0  0  0  0  0  0  0  0  0  0
    9.3233    2.0858    0.7956 C   0  0  0  0  0  0  0  0  0  0  0  0
    7.2418    3.2869    1.3377 C   0  0  0  0  0  0  0  0  0  0  0  0
    1.0406   -2.0257    0.8681 C   0  0  0  0  0  0  0  0  0  0  0  0
   -0.2791   -2.0672    0.3970 C   0  0  0  0  0  0  0  0  0  0  0  0
   -2.6695   -3.6611   -0.3108 H   0  0  0  0  0  0  0  0  0  0  0  0
   -1.8262   -4.1229   -1.7947 H   0  0  0  0  0  0  0  0  0  0  0  0
   -3.4764   -3.5088   -1.8779 H   0  0  0  0  0  0  0  0  0  0  0  0
   -1.9602   -1.6996   -2.5788 H   0  0  0  0  0  0  0  0  0  0  0  0
   -2.3746   -0.1158   -0.7365 H   0  0  0  0  0  0  0  0  0  0  0  0
   -3.0964   -1.3249    0.1034 H   0  0  0  0  0  0  0  0  0  0  0  0
   -4.7330   -1.6519   -1.6203 H   0  0  0  0  0  0  0  0  0  0  0  0
   -3.9102   -0.3939   -2.5811 H   0  0  0  0  0  0  0  0  0  0  0  0
   -6.8792   -0.3783   -1.7413 H   0  0  0  0  0  0  0  0  0  0  0  0
   -6.0910    0.8653   -2.7062 H   0  0  0  0  0  0  0  0  0  0  0  0
   -8.1425    1.7572   -1.6248 H   0  0  0  0  0  0  0  0  0  0  0  0
   -8.1468    0.2549    0.3677 H   0  0  0  0  0  0  0  0  0  0  0  0
   -8.2466    1.9437    0.8605 H   0  0  0  0  0  0  0  0  0  0  0  0
   -6.5746    0.7228    2.2490 H   0  0  0  0  0  0  0  0  0  0  0  0
   -4.6476    2.2672    1.8831 H   0  0  0  0  0  0  0  0  0  0  0  0
   -6.1757    3.1349    1.7548 H   0  0  0  0  0  0  0  0  0  0  0  0
   -4.6479    3.7660   -0.1133 H   0  0  0  0  0  0  0  0  0  0  0  0
   -6.2182    3.3016   -1.9968 H   0  0  0  0  0  0  0  0  0  0  0  0
   -7.1037    3.7491   -0.5406 H   0  0  0  0  0  0  0  0  0  0  0  0
   -3.3633    1.6590   -0.2123 H   0  0  0  0  0  0  0  0  0  0  0  0
   -3.9976    2.0590   -1.8058 H   0  0  0  0  0  0  0  0  0  0  0  0
   -4.5198   -0.1697    1.2058 H   0  0  0  0  0  0  0  0  0  0  0  0
   -5.9360   -1.0028    0.5713 H   0  0  0  0  0  0  0  0  0  0  0  0
    0.3486   -1.4041   -2.8816 H   0  0  0  0  0  0  0  0  0  0  0  0
    2.6257   -1.3479   -2.0578 H   0  0  0  0  0  0  0  0  0  0  0  0
    3.3694   -3.7994    1.3353 H   0  0  0  0  0  0  0  0  0  0  0  0
    3.7521   -2.4875    2.5092 H   0  0  0  0  0  0  0  0  0  0  0  0
    5.7194   -3.7323    0.6658 H   0  0  0  0  0  0  0  0  0  0  0  0
    5.9854   -2.2048    1.5206 H   0  0  0  0  0  0  0  0  0  0  0  0
    4.5003   -2.6946   -1.1380 H   0  0  0  0  0  0  0  0  0  0  0  0
    4.8786   -0.4076   -1.6832 H   0  0  0  0  0  0  0  0  0  0  0  0
    6.3738   -0.7639   -0.8426 H   0  0  0  0  0  0  0  0  0  0  0  0
    5.0177    1.3409   -0.3778 H   0  0  0  0  0  0  0  0  0  0  0  0
    3.9856    0.3477    0.4700 H   0  0  0  0  0  0  0  0  0  0  0  0
    5.6089   -0.1638    2.0928 H   0  0  0  0  0  0  0  0  0  0  0  0
    5.4073    1.5657    1.9274 H   0  0  0  0  0  0  0  0  0  0  0  0
    9.7218    1.1532    0.3873 H   0  0  0  0  0  0  0  0  0  0  0  0
    9.5779    2.9011    0.1121 H   0  0  0  0  0  0  0  0  0  0  0  0
    9.7763    2.2677    1.7748 H   0  0  0  0  0  0  0  0  0  0  0  0
    6.1940    3.2995    1.0303 H   0  0  0  0  0  0  0  0  0  0  0  0
    7.3062    3.3971    2.4238 H   0  0  0  0  0  0  0  0  0  0  0  0
    7.7494    4.1223    0.8467 H   0  0  0  0  0  0  0  0  0  0  0  0
    1.2184   -2.2199    1.9254 H   0  0  0  0  0  0  0  0  0  0  0  0
   -1.0649   -2.3093    1.1109 H   0  0  0  0  0  0  0  0  0  0  0  0
  1  2  1  0
  2  3  1  0
  3  4  1  0
  5  4  1  6
  5  6  1  0
  6  7  1  0
  7  8  1  0
  8  9  1  0
  9 10  1  0
 10 11  1  0
 11 12  1  0
 11 13  1  0
  9 14  1  0
  2 15  1  0
 15 16  1  0
 16 17  2  0
 17 18  1  0
 18 19  1  0
 19 20  1  0
 20 21  1  0
 21 22  1  0
 22 23  1  0
 23 24  1  0
 24 25  1  0
 25 26  1  0
 26 27  2  0
 26 28  1  0
 28 29  1  0
 28 30  1  0
 18 31  2  0
 31 32  1  0
 13  5  1  0
 32 15  2  0
 14  5  1  0
 22 19  1  0
 12  7  1  0
  1 33  1  0
  1 34  1  0
  1 35  1  0
  2 36  1  6
  3 37  1  0
  3 38  1  0
  4 39  1  0
  4 40  1  0
  6 41  1  0
  6 42  1  0
  7 43  1  6
  8 44  1  0
  8 45  1  0
  9 46  1  1
 10 47  1  0
 10 48  1  0
 11 49  1  1
 12 50  1  0
 12 51  1  0
 13 52  1  0
 13 53  1  0
 14 54  1  0
 14 55  1  0
 16 56  1  0
 17 57  1  0
 20 58  1  0
 20 59  1  0
 21 60  1  0
 21 61  1  0
 22 62  1  6
 23 63  1  0
 23 64  1  0
 24 65  1  0
 24 66  1  0
 25 67  1  0
 25 68  1  0
 29 69  1  0
 29 70  1  0
 29 71  1  0
 30 72  1  0
 30 73  1  0
 30 74  1  0
 31 75  1  0
 32 76  1  0
M  CHG  2   3   1  24   1
M  END
>  <_SMILES>  (74) 
C[C@@H]([NH2+]C[C@]12C[C@H]3C[C@H](C[C@H](C3)C1)C2)c1ccc(N2CC[C@@H]2C[NH2+]CC(=O)N(C)C)cc1

$$$$

     RDKit          3D

 76 80  0  0  0  0  0  0  0  0999 V2000
   -2.3656    3.1983    2.5776 C   0  0  0  0  0  0  0  0  0  0  0  0
   -2.2075    1.6863    2.4044 C   0  0  1  0  0  0  0  0  0  0  0  0
   -2.9777    1.2807    1.1757 N   0  0  0  0  0  0  0  0  0  0  0  0
   -3.1910   -0.1916    1.0200 C   0  0  0  0  0  0  0  0  0  0  0  0
   -3.9967   -0.5386   -0.2499 C   0  0  2  0  0  0  0  0  0  0  0  0
   -4.1593   -2.0835   -0.3059 C   0  0  0  0  0  0  0  0  0  0  0  0
   -4.9527   -2.5116   -1.5504 C   0  0  1  0  0  0  0  0  0  0  0  0
   -6.3449   -1.8633   -1.5076 C   0  0  0  0  0  0  0  0  0  0  0  0
   -6.2103   -0.3329   -1.4850 C   0  0  2  0  0  0  0  0  0  0  0  0
   -5.4609    0.1287   -2.7459 C   0  0  0  0  0  0  0  0  0  0  0  0
   -4.0636   -0.5116   -2.7923 C   0  0  2  0  0  0  0  0  0  0  0  0
   -4.2078   -2.0411   -2.8090 C   0  0  0  0  0  0  0  0  0  0  0  0
   -3.2700   -0.0859   -1.5434 C   0  0  0  0  0  0  0  0  0  0  0  0
   -5.4132    0.0926   -0.2381 C   0  0  0  0  0  0  0  0  0  0  0  0
   -0.7499    1.2676    2.3556 C   0  0  0  0  0  0  0  0  0  0  0  0
   -0.2564    0.3549    3.2975 C   0  0  0  0  0  0  0  0  0  0  0  0
    1.1031    0.0170    3.3252 C   0  0  0  0  0  0  0  0  0  0  0  0
    2.0189    0.5834    2.4262 C   0  0  0  0  0  0  0  0  0  0  0  0
    3.4065    0.2770    2.5592 N   0  0  0  0  0  0  0  0  0  0  0  0
    4.0651    0.4099    3.8576 C   0  0  0  0  0  0  0  0  0  0  0  0
    4.8780    1.5609    3.2628 C   0  0  0  0  0  0  0  0  0  0  0  0
    4.5144    0.9660    1.8957 C   0  0  1  0  0  0  0  0  0  0  0  0
    5.5335   -0.0181    1.3085 C   0  0  0  0  0  0  0  0  0  0  0  0
    4.9118   -1.1756    0.5712 N   0  0  0  0  0  0  0  0  0  0  0  0
    4.1553   -0.8450   -0.6884 C   0  0  0  0  0  0  0  0  0  0  0  0
    4.9320    0.0631   -1.6411 C   0  0  0  0  0  0  0  0  0  0  0  0
    4.8480    1.2815   -1.4645 O   0  0  0  0  0  0  0  0  0  0  0  0
    5.7700   -0.5086   -2.5859 N   0  0  0  0  0  0  0  0  0  0  0  0
    6.4214    0.3802   -3.5453 C   0  0  0  0  0  0  0  0  0  0  0  0
    5.7749   -1.9209   -2.9474 C   0  0  0  0  0  0  0  0  0  0  0  0
    1.5128    1.4433    1.4458 C   0  0  0  0  0  0  0  0  0  0  0  0
    0.1505    1.7870    1.4128 C   0  0  0  0  0  0  0  0  0  0  0  0
   -1.8256    3.5469    3.4651 H   0  0  0  0  0  0  0  0  0  0  0  0
   -1.9840    3.7550    1.7146 H   0  0  0  0  0  0  0  0  0  0  0  0
   -3.4203    3.4668    2.7044 H   0  0  0  0  0  0  0  0  0  0  0  0
   -2.7135    1.1978    3.2465 H   0  0  0  0  0  0  0  0  0  0  0  0
   -2.5013    1.6612    0.3511 H   0  0  0  0  0  0  0  0  0  0  0  0
   -3.8948    1.7436    1.2132 H   0  0  0  0  0  0  0  0  0  0  0  0
   -2.2020   -0.6608    0.9845 H   0  0  0  0  0  0  0  0  0  0  0  0
   -3.7147   -0.5318    1.9205 H   0  0  0  0  0  0  0  0  0  0  0  0
   -3.1733   -2.5663   -0.3173 H   0  0  0  0  0  0  0  0  0  0  0  0
   -4.6729   -2.4414    0.5961 H   0  0  0  0  0  0  0  0  0  0  0  0
   -5.0537   -3.6025   -1.5671 H   0  0  0  0  0  0  0  0  0  0  0  0
   -6.8912   -2.2049   -0.6200 H   0  0  0  0  0  0  0  0  0  0  0  0
   -6.9303   -2.1751   -2.3813 H   0  0  0  0  0  0  0  0  0  0  0  0
   -7.2057    0.1244   -1.4593 H   0  0  0  0  0  0  0  0  0  0  0  0
   -5.3729    1.2221   -2.7508 H   0  0  0  0  0  0  0  0  0  0  0  0
   -6.0297   -0.1485   -3.6420 H   0  0  0  0  0  0  0  0  0  0  0  0
   -3.5361   -0.1810   -3.6940 H   0  0  0  0  0  0  0  0  0  0  0  0
   -4.7533   -2.3563   -3.7069 H   0  0  0  0  0  0  0  0  0  0  0  0
   -3.2176   -2.5107   -2.8570 H   0  0  0  0  0  0  0  0  0  0  0  0
   -3.1477    1.0036   -1.5607 H   0  0  0  0  0  0  0  0  0  0  0  0
   -2.2620   -0.5184   -1.5812 H   0  0  0  0  0  0  0  0  0  0  0  0
   -5.9542   -0.2106    0.6674 H   0  0  0  0  0  0  0  0  0  0  0  0
   -5.3521    1.1872   -0.2191 H   0  0  0  0  0  0  0  0  0  0  0  0
   -0.9085   -0.0837    4.0529 H   0  0  0  0  0  0  0  0  0  0  0  0
    1.4491   -0.6763    4.0911 H   0  0  0  0  0  0  0  0  0  0  0  0
    3.4182    0.6881    4.6933 H   0  0  0  0  0  0  0  0  0  0  0  0
    4.6314   -0.4933    4.1072 H   0  0  0  0  0  0  0  0  0  0  0  0
    5.9390    1.5790    3.5251 H   0  0  0  0  0  0  0  0  0  0  0  0
    4.4483    2.5526    3.4462 H   0  0  0  0  0  0  0  0  0  0  0  0
    4.2113    1.7166    1.1621 H   0  0  0  0  0  0  0  0  0  0  0  0
    6.2426    0.4783    0.6392 H   0  0  0  0  0  0  0  0  0  0  0  0
    6.1231   -0.4900    2.1032 H   0  0  0  0  0  0  0  0  0  0  0  0
    4.2569   -1.6176    1.2319 H   0  0  0  0  0  0  0  0  0  0  0  0
    5.6475   -1.8597    0.3588 H   0  0  0  0  0  0  0  0  0  0  0  0
    3.8604   -1.7898   -1.1488 H   0  0  0  0  0  0  0  0  0  0  0  0
    3.2351   -0.3345   -0.3888 H   0  0  0  0  0  0  0  0  0  0  0  0
    5.8404    0.3775   -4.4725 H   0  0  0  0  0  0  0  0  0  0  0  0
    7.4338    0.0157   -3.7422 H   0  0  0  0  0  0  0  0  0  0  0  0
    6.4869    1.4050   -3.1704 H   0  0  0  0  0  0  0  0  0  0  0  0
    5.6272   -2.5498   -2.0674 H   0  0  0  0  0  0  0  0  0  0  0  0
    4.9675   -2.1006   -3.6628 H   0  0  0  0  0  0  0  0  0  0  0  0
    6.7366   -2.1843   -3.3972 H   0  0  0  0  0  0  0  0  0  0  0  0
    2.1646    1.9104    0.7122 H   0  0  0  0  0  0  0  0  0  0  0  0
   -0.1715    2.5058    0.6606 H   0  0  0  0  0  0  0  0  0  0  0  0
  1  2  1  0
  2  3  1  0
  3  4  1  0
  5  4  1  1
  5  6  1  0
  6  7  1  0
  7  8  1  0
  8  9  1  0
  9 10  1  0
 10 11  1  0
 11 12  1  0
 11 13  1  0
  9 14  1  0
  2 15  1  0
 15 16  1  0
 16 17  2  0
 17 18  1  0
 18 19  1  0
 19 20  1  0
 20 21  1  0
 21 22  1  0
 22 23  1  0
 23 24  1  0
 24 25  1  0
 25 26  1  0
 26 27  2  0
 26 28  1  0
 28 29  1  0
 28 30  1  0
 18 31  2  0
 31 32  1  0
 13  5  1  0
 32 15  2  0
 14  5  1  0
 22 19  1  0
 12  7  1  0
  1 33  1  0
  1 34  1  0
  1 35  1  0
  2 36  1  1
  3 37  1  0
  3 38  1  0
  4 39  1  0
  4 40  1  0
  6 41  1  0
  6 42  1  0
  7 43  1  6
  8 44  1  0
  8 45  1  0
  9 46  1  1
 10 47  1  0
 10 48  1  0
 11 49  1  6
 12 50  1  0
 12 51  1  0
 13 52  1  0
 13 53  1  0
 14 54  1  0
 14 55  1  0
 16 56  1  0
 17 57  1  0
 20 58  1  0
 20 59  1  0
 21 60  1  0
 21 61  1  0
 22 62  1  6
 23 63  1  0
 23 64  1  0
 24 65  1  0
 24 66  1  0
 25 67  1  0
 25 68  1  0
 29 69  1  0
 29 70  1  0
 29 71  1  0
 30 72  1  0
 30 73  1  0
 30 74  1  0
 31 75  1  0
 32 76  1  0
M  CHG  2   3   1  24   1
M  END
>  <_SMILES>  (75) 
C[C@@H]([NH2+]C[C@]12C[C@H]3C[C@H](C[C@H](C3)C1)C2)c1ccc(N2CC[C@H]2C[NH2+]CC(=O)N(C)C)cc1

$$$$

     RDKit          3D

 67 72  0  0  0  0  0  0  0  0999 V2000
    2.3048   -3.4610    0.7928 C   0  0  0  0  0  0  0  0  0  0  0  0
    2.0575   -2.1803    0.0666 C   0  0  0  0  0  0  0  0  0  0  0  0
    0.7783   -1.5396   -0.0837 C   0  0  0  0  0  0  0  0  0  0  0  0
   -0.5148   -2.0116    0.4255 C   0  0  0  0  0  0  0  0  0  0  0  0
   -0.6848   -3.1519    0.8453 O   0  0  0  0  0  0  0  0  0  0  0  0
   -1.5175   -1.0612    0.4223 N   0  0  0  0  0  0  0  0  0  0  0  0
   -2.7943   -1.3328    1.0487 C   0  0  0  0  0  0  0  0  0  0  0  0
   -3.9116   -0.3517    0.6377 C   0  0  2  0  0  0  0  0  0  0  0  0
   -3.5996    1.0975    1.0929 C   0  0  0  0  0  0  0  0  0  0  0  0
   -4.7487    2.0467    0.7080 C   0  0  1  0  0  0  0  0  0  0  0  0
   -4.9361    2.0208   -0.8181 C   0  0  0  0  0  0  0  0  0  0  0  0
   -5.2770    0.5955   -1.2837 C   0  0  2  0  0  0  0  0  0  0  0  0
   -6.5709    0.1332   -0.5949 C   0  0  0  0  0  0  0  0  0  0  0  0
   -6.3894    0.1509    0.9311 C   0  0  2  0  0  0  0  0  0  0  0  0
   -6.0452    1.5776    1.3865 C   0  0  0  0  0  0  0  0  0  0  0  0
   -5.2376   -0.7931    1.3140 C   0  0  0  0  0  0  0  0  0  0  0  0
   -4.1279   -0.3527   -0.8973 C   0  0  0  0  0  0  0  0  0  0  0  0
    1.0079   -0.3980   -0.8343 C   0  0  0  0  0  0  0  0  0  0  0  0
    2.3507   -0.3087   -1.1153 N   0  0  0  0  0  0  0  0  0  0  0  0
    2.9414    0.7498   -1.9342 C   0  0  0  0  0  0  0  0  0  0  0  0
    3.5941    1.8295   -1.1062 C   0  0  0  0  0  0  0  0  0  0  0  0
    4.9767    2.0503   -1.1983 C   0  0  0  0  0  0  0  0  0  0  0  0
    5.5891    3.0528   -0.4444 C   0  0  0  0  0  0  0  0  0  0  0  0
    4.8268    3.8510    0.4053 C   0  0  0  0  0  0  0  0  0  0  0  0
    3.4520    3.6479    0.5019 C   0  0  0  0  0  0  0  0  0  0  0  0
    2.8379    2.6450   -0.2506 C   0  0  0  0  0  0  0  0  0  0  0  0
    3.0078   -1.3985   -0.5838 C   0  0  0  0  0  0  0  0  0  0  0  0
    4.4444   -1.6247   -0.7206 C   0  0  0  0  0  0  0  0  0  0  0  0
    4.9432   -2.3514   -1.8069 C   0  0  0  0  0  0  0  0  0  0  0  0
    6.3166   -2.5650   -1.9376 C   0  0  0  0  0  0  0  0  0  0  0  0
    7.1956   -2.0578   -0.9810 C   0  0  0  0  0  0  0  0  0  0  0  0
    6.7031   -1.3409    0.1090 C   0  0  0  0  0  0  0  0  0  0  0  0
    5.3300   -1.1278    0.2412 C   0  0  0  0  0  0  0  0  0  0  0  0
    1.9084   -3.4054    1.8119 H   0  0  0  0  0  0  0  0  0  0  0  0
    3.3716   -3.6917    0.8674 H   0  0  0  0  0  0  0  0  0  0  0  0
    1.8185   -4.2918    0.2717 H   0  0  0  0  0  0  0  0  0  0  0  0
   -1.2160   -0.1022    0.3401 H   0  0  0  0  0  0  0  0  0  0  0  0
   -3.0861   -2.3607    0.8001 H   0  0  0  0  0  0  0  0  0  0  0  0
   -2.6328   -1.2994    2.1331 H   0  0  0  0  0  0  0  0  0  0  0  0
   -3.4446    1.1271    2.1791 H   0  0  0  0  0  0  0  0  0  0  0  0
   -2.6726    1.4594    0.6325 H   0  0  0  0  0  0  0  0  0  0  0  0
   -4.5098    3.0654    1.0334 H   0  0  0  0  0  0  0  0  0  0  0  0
   -4.0218    2.3688   -1.3142 H   0  0  0  0  0  0  0  0  0  0  0  0
   -5.7379    2.7110   -1.1082 H   0  0  0  0  0  0  0  0  0  0  0  0
   -5.4136    0.5850   -2.3709 H   0  0  0  0  0  0  0  0  0  0  0  0
   -7.4023    0.7891   -0.8808 H   0  0  0  0  0  0  0  0  0  0  0  0
   -6.8334   -0.8778   -0.9299 H   0  0  0  0  0  0  0  0  0  0  0  0
   -7.3145   -0.1789    1.4170 H   0  0  0  0  0  0  0  0  0  0  0  0
   -5.9294    1.6059    2.4769 H   0  0  0  0  0  0  0  0  0  0  0  0
   -6.8672    2.2594    1.1360 H   0  0  0  0  0  0  0  0  0  0  0  0
   -5.1194   -0.8042    2.4054 H   0  0  0  0  0  0  0  0  0  0  0  0
   -5.4914   -1.8186    1.0154 H   0  0  0  0  0  0  0  0  0  0  0  0
   -4.3547   -1.3683   -1.2462 H   0  0  0  0  0  0  0  0  0  0  0  0
   -3.2134   -0.0381   -1.4156 H   0  0  0  0  0  0  0  0  0  0  0  0
    0.3247    0.3525   -1.2087 H   0  0  0  0  0  0  0  0  0  0  0  0
    2.1448    1.1874   -2.5482 H   0  0  0  0  0  0  0  0  0  0  0  0
    3.6478    0.2797   -2.6272 H   0  0  0  0  0  0  0  0  0  0  0  0
    5.5914    1.4315   -1.8497 H   0  0  0  0  0  0  0  0  0  0  0  0
    6.6623    3.2076   -0.5187 H   0  0  0  0  0  0  0  0  0  0  0  0
    5.3045    4.6301    0.9934 H   0  0  0  0  0  0  0  0  0  0  0  0
    2.8572    4.2697    1.1660 H   0  0  0  0  0  0  0  0  0  0  0  0
    1.7638    2.5023   -0.1593 H   0  0  0  0  0  0  0  0  0  0  0  0
    4.2622   -2.7584   -2.5504 H   0  0  0  0  0  0  0  0  0  0  0  0
    6.6991   -3.1326   -2.7817 H   0  0  0  0  0  0  0  0  0  0  0  0
    8.2646   -2.2276   -1.0809 H   0  0  0  0  0  0  0  0  0  0  0  0
    7.3856   -0.9494    0.8585 H   0  0  0  0  0  0  0  0  0  0  0  0
    4.9517   -0.5669    1.0930 H   0  0  0  0  0  0  0  0  0  0  0  0
  1  2  1  0
  2  3  1  0
  3  4  1  0
  4  5  2  0
  4  6  1  0
  6  7  1  0
  8  7  1  6
  8  9  1  0
  9 10  1  0
 10 11  1  0
 11 12  1  0
 12 13  1  0
 13 14  1  0
 14 15  1  0
 14 16  1  0
 12 17  1  0
  3 18  2  0
 18 19  1  0
 19 20  1  0
 20 21  1  0
 21 22  2  0
 22 23  1  0
 23 24  2  0
 24 25  1  0
 25 26  2  0
 19 27  1  0
 27 28  1  0
 28 29  2  0
 29 30  1  0
 30 31  2  0
 31 32  1  0
 32 33  2  0
 27  2  2  0
 33 28  1  0
 16  8  1  0
 26 21  1  0
 17  8  1  0
 15 10  1  0
  1 34  1  0
  1 35  1  0
  1 36  1  0
  6 37  1  0
  7 38  1  0
  7 39  1  0
  9 40  1  0
  9 41  1  0
 10 42  1  1
 11 43  1  0
 11 44  1  0
 12 45  1  6
 13 46  1  0
 13 47  1  0
 14 48  1  1
 15 49  1  0
 15 50  1  0
 16 51  1  0
 16 52  1  0
 17 53  1  0
 17 54  1  0
 18 55  1  0
 20 56  1  0
 20 57  1  0
 22 58  1  0
 23 59  1  0
 24 60  1  0
 25 61  1  0
 26 62  1  0
 29 63  1  0
 30 64  1  0
 31 65  1  0
 32 66  1  0
 33 67  1  0
M  END
>  <_SMILES>  (76) 
Cc1c(C(=O)NC[C@]23C[C@H]4C[C@H](C[C@H](C4)C2)C3)cn(Cc2ccccc2)c1-c1ccccc1

$$$$

     RDKit          3D

 67 72  0  0  0  0  0  0  0  0999 V2000
   -0.2477    1.3575   -0.4519 C   0  0  0  0  0  0  0  0  0  0  0  0
   -1.0950    0.1315   -0.5269 C   0  0  0  0  0  0  0  0  0  0  0  0
   -0.6752   -1.2272   -0.3045 C   0  0  0  0  0  0  0  0  0  0  0  0
    0.6208   -1.7788    0.0932 C   0  0  0  0  0  0  0  0  0  0  0  0
    1.0031   -2.8835   -0.2786 O   0  0  0  0  0  0  0  0  0  0  0  0
    1.3396   -0.9805    0.9538 N   0  0  0  0  0  0  0  0  0  0  0  0
    2.6291   -1.3674    1.4871 C   0  0  0  0  0  0  0  0  0  0  0  0
    3.8050   -0.5710    0.8822 C   0  0  2  0  0  0  0  0  0  0  0  0
    5.1299   -1.0713    1.5176 C   0  0  0  0  0  0  0  0  0  0  0  0
    6.3347   -0.3038    0.9483 C   0  0  1  0  0  0  0  0  0  0  0  0
    6.3947   -0.5143   -0.5728 C   0  0  0  0  0  0  0  0  0  0  0  0
    5.1025    0.0009   -1.2260 C   0  0  2  0  0  0  0  0  0  0  0  0
    4.9383    1.4980   -0.9158 C   0  0  0  0  0  0  0  0  0  0  0  0
    4.8737    1.7176    0.6047 C   0  0  2  0  0  0  0  0  0  0  0  0
    6.1674    1.1941    1.2484 C   0  0  0  0  0  0  0  0  0  0  0  0
    3.6722    0.9454    1.1777 C   0  0  0  0  0  0  0  0  0  0  0  0
    3.9000   -0.7691   -0.6524 C   0  0  0  0  0  0  0  0  0  0  0  0
   -1.7734   -2.0202   -0.5834 C   0  0  0  0  0  0  0  0  0  0  0  0
   -2.8428   -1.2187   -0.8855 N   0  0  0  0  0  0  0  0  0  0  0  0
   -4.1689   -1.7304   -1.2267 C   0  0  0  0  0  0  0  0  0  0  0  0
   -5.1421   -1.6169   -0.0769 C   0  0  0  0  0  0  0  0  0  0  0  0
   -6.2572   -0.7678   -0.1750 C   0  0  0  0  0  0  0  0  0  0  0  0
   -7.1605   -0.6595    0.8833 C   0  0  0  0  0  0  0  0  0  0  0  0
   -6.9553   -1.4029    2.0385 C   0  0  0  0  0  0  0  0  0  0  0  0
   -7.8223   -1.2971    3.0540 F   0  0  0  0  0  0  0  0  0  0  0  0
   -5.8637   -2.2541    2.1560 C   0  0  0  0  0  0  0  0  0  0  0  0
   -4.9581   -2.3633    1.0995 C   0  0  0  0  0  0  0  0  0  0  0  0
   -2.4462    0.1026   -0.8687 C   0  0  0  0  0  0  0  0  0  0  0  0
   -3.3370    1.2195   -1.1755 C   0  0  0  0  0  0  0  0  0  0  0  0
   -3.5653    1.5985   -2.5027 C   0  0  0  0  0  0  0  0  0  0  0  0
   -4.4188    2.6647   -2.7915 C   0  0  0  0  0  0  0  0  0  0  0  0
   -5.0433    3.3589   -1.7555 C   0  0  0  0  0  0  0  0  0  0  0  0
   -4.8123    2.9913   -0.4303 C   0  0  0  0  0  0  0  0  0  0  0  0
   -3.9580    1.9262   -0.1403 C   0  0  0  0  0  0  0  0  0  0  0  0
   -0.1867    1.7150    0.5806 H   0  0  0  0  0  0  0  0  0  0  0  0
   -0.6528    2.1667   -1.0675 H   0  0  0  0  0  0  0  0  0  0  0  0
    0.7640    1.1551   -0.8168 H   0  0  0  0  0  0  0  0  0  0  0  0
    0.8852   -0.1629    1.3330 H   0  0  0  0  0  0  0  0  0  0  0  0
    2.5778   -1.2010    2.5695 H   0  0  0  0  0  0  0  0  0  0  0  0
    2.7827   -2.4417    1.3335 H   0  0  0  0  0  0  0  0  0  0  0  0
    5.0971   -0.9460    2.6077 H   0  0  0  0  0  0  0  0  0  0  0  0
    5.2576   -2.1452    1.3288 H   0  0  0  0  0  0  0  0  0  0  0  0
    7.2583   -0.6719    1.4089 H   0  0  0  0  0  0  0  0  0  0  0  0
    6.5307   -1.5789   -0.7993 H   0  0  0  0  0  0  0  0  0  0  0  0
    7.2613    0.0131   -0.9901 H   0  0  0  0  0  0  0  0  0  0  0  0
    5.1522   -0.1481   -2.3104 H   0  0  0  0  0  0  0  0  0  0  0  0
    5.7780    2.0623   -1.3399 H   0  0  0  0  0  0  0  0  0  0  0  0
    4.0259    1.8813   -1.3890 H   0  0  0  0  0  0  0  0  0  0  0  0
    4.7611    2.7863    0.8190 H   0  0  0  0  0  0  0  0  0  0  0  0
    6.1402    1.3589    2.3326 H   0  0  0  0  0  0  0  0  0  0  0  0
    7.0298    1.7520    0.8633 H   0  0  0  0  0  0  0  0  0  0  0  0
    3.6075    1.1152    2.2602 H   0  0  0  0  0  0  0  0  0  0  0  0
    2.7491    1.3448    0.7412 H   0  0  0  0  0  0  0  0  0  0  0  0
    2.9850   -0.4176   -1.1449 H   0  0  0  0  0  0  0  0  0  0  0  0
    3.9972   -1.8361   -0.8902 H   0  0  0  0  0  0  0  0  0  0  0  0
   -1.8670   -3.0992   -0.5661 H   0  0  0  0  0  0  0  0  0  0  0  0
   -4.0642   -2.7824   -1.5188 H   0  0  0  0  0  0  0  0  0  0  0  0
   -4.5166   -1.1912   -2.1145 H   0  0  0  0  0  0  0  0  0  0  0  0
   -6.4212   -0.1733   -1.0722 H   0  0  0  0  0  0  0  0  0  0  0  0
   -8.0186    0.0012    0.8142 H   0  0  0  0  0  0  0  0  0  0  0  0
   -5.7231   -2.8250    3.0681 H   0  0  0  0  0  0  0  0  0  0  0  0
   -4.1041   -3.0301    1.2021 H   0  0  0  0  0  0  0  0  0  0  0  0
   -3.0743    1.0679   -3.3150 H   0  0  0  0  0  0  0  0  0  0  0  0
   -4.5920    2.9569   -3.8240 H   0  0  0  0  0  0  0  0  0  0  0  0
   -5.7061    4.1906   -1.9806 H   0  0  0  0  0  0  0  0  0  0  0  0
   -5.2961    3.5330    0.3782 H   0  0  0  0  0  0  0  0  0  0  0  0
   -3.7861    1.6414    0.8952 H   0  0  0  0  0  0  0  0  0  0  0  0
  1  2  1  0
  2  3  1  0
  3  4  1  0
  4  5  2  0
  4  6  1  0
  6  7  1  0
  8  7  1  1
  8  9  1  0
  9 10  1  0
 10 11  1  0
 11 12  1  0
 12 13  1  0
 13 14  1  0
 14 15  1  0
 14 16  1  0
 12 17  1  0
  3 18  2  0
 18 19  1  0
 19 20  1  0
 20 21  1  0
 21 22  1  0
 22 23  2  0
 23 24  1  0
 24 25  1  0
 24 26  2  0
 26 27  1  0
 19 28  1  0
 28 29  1  0
 29 30  2  0
 30 31  1  0
 31 32  2  0
 32 33  1  0
 33 34  2  0
 28  2  2  0
 34 29  1  0
 16  8  1  0
 27 21  2  0
 17  8  1  0
 15 10  1  0
  1 35  1  0
  1 36  1  0
  1 37  1  0
  6 38  1  0
  7 39  1  0
  7 40  1  0
  9 41  1  0
  9 42  1  0
 10 43  1  1
 11 44  1  0
 11 45  1  0
 12 46  1  6
 13 47  1  0
 13 48  1  0
 14 49  1  6
 15 50  1  0
 15 51  1  0
 16 52  1  0
 16 53  1  0
 17 54  1  0
 17 55  1  0
 18 56  1  0
 20 57  1  0
 20 58  1  0
 22 59  1  0
 23 60  1  0
 26 61  1  0
 27 62  1  0
 30 63  1  0
 31 64  1  0
 32 65  1  0
 33 66  1  0
 34 67  1  0
M  END
>  <_SMILES>  (77) 
Cc1c(C(=O)NC[C@]23C[C@H]4C[C@H](C[C@H](C4)C2)C3)cn(Cc2ccc(F)cc2)c1-c1ccccc1

$$$$

     RDKit          3D

 47 51  0  0  0  0  0  0  0  0999 V2000
    1.1402   -0.0900    2.4974 O   0  0  0  0  0  0  0  0  0  0  0  0
    1.4396   -0.5293    1.3923 C   0  0  0  0  0  0  0  0  0  0  0  0
    0.5751   -1.3028    0.6441 N   0  0  0  0  0  0  0  0  0  0  0  0
   -0.7641   -1.6215    1.1028 C   0  0  0  0  0  0  0  0  0  0  0  0
   -1.8654   -0.6932    0.5408 C   0  0  2  0  0  0  0  0  0  0  0  0
   -1.9101   -0.7405   -1.0088 C   0  0  0  0  0  0  0  0  0  0  0  0
   -3.0490    0.1436   -1.5479 C   0  0  1  0  0  0  0  0  0  0  0  0
   -4.3905   -0.3599   -0.9925 C   0  0  0  0  0  0  0  0  0  0  0  0
   -4.3807   -0.2957    0.5429 C   0  0  2  0  0  0  0  0  0  0  0  0
   -4.1495    1.1557    0.9911 C   0  0  0  0  0  0  0  0  0  0  0  0
   -2.8070    1.6660    0.4449 C   0  0  2  0  0  0  0  0  0  0  0  0
   -2.8236    1.5942   -1.0909 C   0  0  0  0  0  0  0  0  0  0  0  0
   -1.6680    0.7797    0.9805 C   0  0  0  0  0  0  0  0  0  0  0  0
   -3.2401   -1.1768    1.0778 C   0  0  0  0  0  0  0  0  0  0  0  0
    2.7098   -0.2551    0.7549 C   0  0  0  0  0  0  0  0  0  0  0  0
    3.5973    0.7680    1.0474 C   0  0  0  0  0  0  0  0  0  0  0  0
    4.7179    0.6608    0.1819 C   0  0  0  0  0  0  0  0  0  0  0  0
    5.8986    1.4071    0.0081 C   0  0  0  0  0  0  0  0  0  0  0  0
    6.8238    1.0069   -0.9628 C   0  0  0  0  0  0  0  0  0  0  0  0
    6.5864   -0.1184   -1.7497 C   0  0  0  0  0  0  0  0  0  0  0  0
    5.4215   -0.8760   -1.5923 C   0  0  0  0  0  0  0  0  0  0  0  0
    4.5059   -0.4580   -0.6197 C   0  0  0  0  0  0  0  0  0  0  0  0
    3.2996   -1.0007   -0.2417 N   0  0  0  0  0  0  0  0  0  0  0  0
    0.7801   -1.4604   -0.3296 H   0  0  0  0  0  0  0  0  0  0  0  0
   -0.7821   -1.6103    2.1989 H   0  0  0  0  0  0  0  0  0  0  0  0
   -0.9523   -2.6545    0.7873 H   0  0  0  0  0  0  0  0  0  0  0  0
   -2.0518   -1.7735   -1.3516 H   0  0  0  0  0  0  0  0  0  0  0  0
   -0.9591   -0.3947   -1.4327 H   0  0  0  0  0  0  0  0  0  0  0  0
   -3.0630    0.0994   -2.6427 H   0  0  0  0  0  0  0  0  0  0  0  0
   -4.5708   -1.3899   -1.3239 H   0  0  0  0  0  0  0  0  0  0  0  0
   -5.2122    0.2500   -1.3876 H   0  0  0  0  0  0  0  0  0  0  0  0
   -5.3393   -0.6547    0.9337 H   0  0  0  0  0  0  0  0  0  0  0  0
   -4.9667    1.7934    0.6322 H   0  0  0  0  0  0  0  0  0  0  0  0
   -4.1561    1.2161    2.0863 H   0  0  0  0  0  0  0  0  0  0  0  0
   -2.6486    2.7022    0.7642 H   0  0  0  0  0  0  0  0  0  0  0  0
   -3.6173    2.2393   -1.4873 H   0  0  0  0  0  0  0  0  0  0  0  0
   -1.8759    1.9716   -1.4944 H   0  0  0  0  0  0  0  0  0  0  0  0
   -0.7132    1.1692    0.6075 H   0  0  0  0  0  0  0  0  0  0  0  0
   -1.6336    0.8462    2.0754 H   0  0  0  0  0  0  0  0  0  0  0  0
   -3.4150   -2.2199    0.7834 H   0  0  0  0  0  0  0  0  0  0  0  0
   -3.2450   -1.1557    2.1755 H   0  0  0  0  0  0  0  0  0  0  0  0
    3.4397    1.5224    1.8086 H   0  0  0  0  0  0  0  0  0  0  0  0
    6.0917    2.2829    0.6206 H   0  0  0  0  0  0  0  0  0  0  0  0
    7.7374    1.5801   -1.1006 H   0  0  0  0  0  0  0  0  0  0  0  0
    7.3197   -0.4140   -2.4967 H   0  0  0  0  0  0  0  0  0  0  0  0
    5.2431   -1.7536   -2.2047 H   0  0  0  0  0  0  0  0  0  0  0  0
    2.9226   -1.8557   -0.6224 H   0  0  0  0  0  0  0  0  0  0  0  0
  1  2  2  0
  2  3  1  0
  3  4  1  0
  5  4  1  1
  5  6  1  0
  6  7  1  0
  7  8  1  0
  8  9  1  0
  9 10  1  0
 10 11  1  0
 11 12  1  0
 11 13  1  0
  9 14  1  0
  2 15  1  0
 15 16  2  0
 16 17  1  0
 17 18  2  0
 18 19  1  0
 19 20  2  0
 20 21  1  0
 21 22  2  0
 22 23  1  0
 13  5  1  0
 23 15  1  0
 14  5  1  0
 22 17  1  0
 12  7  1  0
  3 24  1  0
  4 25  1  0
  4 26  1  0
  6 27  1  0
  6 28  1  0
  7 29  1  6
  8 30  1  0
  8 31  1  0
  9 32  1  1
 10 33  1  0
 10 34  1  0
 11 35  1  6
 12 36  1  0
 12 37  1  0
 13 38  1  0
 13 39  1  0
 14 40  1  0
 14 41  1  0
 16 42  1  0
 18 43  1  0
 19 44  1  0
 20 45  1  0
 21 46  1  0
 23 47  1  0
M  END
>  <_SMILES>  (78) 
O=C(NC[C@]12C[C@H]3C[C@H](C[C@H](C3)C1)C2)c1cc2ccccc2[nH]1

$$$$

     RDKit          3D

 67 72  0  0  0  0  0  0  0  0999 V2000
    4.8679    4.1758    2.2985 C   0  0  0  0  0  0  0  0  0  0  0  0
    5.3505    2.8506    2.1163 O   0  0  0  0  0  0  0  0  0  0  0  0
    4.5147    1.9702    1.4886 C   0  0  0  0  0  0  0  0  0  0  0  0
    5.0283    0.6822    1.3354 C   0  0  0  0  0  0  0  0  0  0  0  0
    4.2831   -0.3261    0.7093 C   0  0  0  0  0  0  0  0  0  0  0  0
    3.0051   -0.0555    0.2138 C   0  0  0  0  0  0  0  0  0  0  0  0
    2.1924   -1.0445   -0.4345 N   0  0  0  0  0  0  0  0  0  0  0  0
    0.8748   -0.7566   -0.6342 N   0  0  0  0  0  0  0  0  0  0  0  0
    0.3257   -1.8768   -1.1308 C   0  0  0  0  0  0  0  0  0  0  0  0
   -1.1212   -1.9443   -1.4168 C   0  0  0  0  0  0  0  0  0  0  0  0
   -1.6641   -2.9155   -1.9337 O   0  0  0  0  0  0  0  0  0  0  0  0
   -1.7921   -0.7948   -1.0542 N   0  0  0  0  0  0  0  0  0  0  0  0
   -3.1627   -0.5500   -1.4355 C   0  0  0  0  0  0  0  0  0  0  0  0
   -3.8479    0.5622   -0.6158 C   0  0  2  0  0  0  0  0  0  0  0  0
   -3.8347    0.2368    0.8998 C   0  0  0  0  0  0  0  0  0  0  0  0
   -4.5621    1.3345    1.6965 C   0  0  1  0  0  0  0  0  0  0  0  0
   -3.8609    2.6821    1.4586 C   0  0  0  0  0  0  0  0  0  0  0  0
   -3.8920    3.0363   -0.0375 C   0  0  2  0  0  0  0  0  0  0  0  0
   -5.3523    3.1232   -0.5081 C   0  0  0  0  0  0  0  0  0  0  0  0
   -6.0584    1.7776   -0.2797 C   0  0  2  0  0  0  0  0  0  0  0  0
   -6.0192    1.4296    1.2168 C   0  0  0  0  0  0  0  0  0  0  0  0
   -5.3267    0.6821   -1.0727 C   0  0  0  0  0  0  0  0  0  0  0  0
   -3.1648    1.9375   -0.8330 C   0  0  0  0  0  0  0  0  0  0  0  0
    1.3062   -2.8785   -1.3448 C   0  0  0  0  0  0  0  0  0  0  0  0
    1.0748   -4.2229   -1.9390 C   0  0  0  0  0  0  0  0  0  0  0  0
    2.5055   -2.3161   -0.9206 C   0  0  0  0  0  0  0  0  0  0  0  0
    3.8386   -2.9033   -1.0315 C   0  0  0  0  0  0  0  0  0  0  0  0
    4.7414   -2.4324   -1.9932 C   0  0  0  0  0  0  0  0  0  0  0  0
    6.0095   -3.0051   -2.1067 C   0  0  0  0  0  0  0  0  0  0  0  0
    6.3784   -4.0564   -1.2683 C   0  0  0  0  0  0  0  0  0  0  0  0
    5.4797   -4.5404   -0.3185 C   0  0  0  0  0  0  0  0  0  0  0  0
    4.2113   -3.9693   -0.2024 C   0  0  0  0  0  0  0  0  0  0  0  0
    2.4866    1.2414    0.3866 C   0  0  0  0  0  0  0  0  0  0  0  0
    3.2361    2.2460    1.0137 C   0  0  0  0  0  0  0  0  0  0  0  0
    5.6483    4.7485    2.8088 H   0  0  0  0  0  0  0  0  0  0  0  0
    4.6740    4.6612    1.3363 H   0  0  0  0  0  0  0  0  0  0  0  0
    3.9767    4.1873    2.9346 H   0  0  0  0  0  0  0  0  0  0  0  0
    6.0215    0.4532    1.7161 H   0  0  0  0  0  0  0  0  0  0  0  0
    4.7369   -1.3079    0.6660 H   0  0  0  0  0  0  0  0  0  0  0  0
   -1.1761   -0.0304   -0.7901 H   0  0  0  0  0  0  0  0  0  0  0  0
   -3.1564   -0.2931   -2.5017 H   0  0  0  0  0  0  0  0  0  0  0  0
   -3.7180   -1.4909   -1.3378 H   0  0  0  0  0  0  0  0  0  0  0  0
   -4.3168   -0.7323    1.0823 H   0  0  0  0  0  0  0  0  0  0  0  0
   -2.8043    0.1503    1.2667 H   0  0  0  0  0  0  0  0  0  0  0  0
   -4.5404    1.0904    2.7645 H   0  0  0  0  0  0  0  0  0  0  0  0
   -2.8231    2.6322    1.8106 H   0  0  0  0  0  0  0  0  0  0  0  0
   -4.3564    3.4695    2.0398 H   0  0  0  0  0  0  0  0  0  0  0  0
   -3.3943    3.9990   -0.1994 H   0  0  0  0  0  0  0  0  0  0  0  0
   -5.3884    3.3903   -1.5714 H   0  0  0  0  0  0  0  0  0  0  0  0
   -5.8752    3.9181    0.0377 H   0  0  0  0  0  0  0  0  0  0  0  0
   -7.0990    1.8447   -0.6162 H   0  0  0  0  0  0  0  0  0  0  0  0
   -6.5542    2.1943    1.7932 H   0  0  0  0  0  0  0  0  0  0  0  0
   -6.5354    0.4781    1.3944 H   0  0  0  0  0  0  0  0  0  0  0  0
   -5.3731    0.9120   -2.1452 H   0  0  0  0  0  0  0  0  0  0  0  0
   -5.8440   -0.2763   -0.9346 H   0  0  0  0  0  0  0  0  0  0  0  0
   -2.1156    1.9057   -0.5155 H   0  0  0  0  0  0  0  0  0  0  0  0
   -3.1634    2.1941   -1.9001 H   0  0  0  0  0  0  0  0  0  0  0  0
    0.6142   -4.1297   -2.9279 H   0  0  0  0  0  0  0  0  0  0  0  0
    2.0037   -4.7867   -2.0631 H   0  0  0  0  0  0  0  0  0  0  0  0
    0.4099   -4.8116   -1.2987 H   0  0  0  0  0  0  0  0  0  0  0  0
    4.4631   -1.6184   -2.6590 H   0  0  0  0  0  0  0  0  0  0  0  0
    6.7079   -2.6331   -2.8521 H   0  0  0  0  0  0  0  0  0  0  0  0
    7.3655   -4.5028   -1.3594 H   0  0  0  0  0  0  0  0  0  0  0  0
    5.7654   -5.3649    0.3299 H   0  0  0  0  0  0  0  0  0  0  0  0
    3.5168   -4.3577    0.5393 H   0  0  0  0  0  0  0  0  0  0  0  0
    1.4920    1.4984    0.0260 H   0  0  0  0  0  0  0  0  0  0  0  0
    2.7869    3.2285    1.1123 H   0  0  0  0  0  0  0  0  0  0  0  0
  1  2  1  0
  2  3  1  0
  3  4  1  0
  4  5  2  0
  5  6  1  0
  6  7  1  0
  7  8  1  0
  8  9  2  0
  9 10  1  0
 10 11  2  0
 10 12  1  0
 12 13  1  0
 14 13  1  6
 14 15  1  0
 15 16  1  0
 16 17  1  0
 17 18  1  0
 18 19  1  0
 19 20  1  0
 20 21  1  0
 20 22  1  0
 18 23  1  0
  9 24  1  0
 24 25  1  0
 24 26  2  0
 26 27  1  0
 27 28  2  0
 28 29  1  0
 29 30  2  0
 30 31  1  0
 31 32  2  0
  6 33  2  0
 33 34  1  0
 34  3  2  0
 26  7  1  0
 32 27  1  0
 22 14  1  0
 23 14  1  0
 21 16  1  0
  1 35  1  0
  1 36  1  0
  1 37  1  0
  4 38  1  0
  5 39  1  0
 12 40  1  0
 13 41  1  0
 13 42  1  0
 15 43  1  0
 15 44  1  0
 16 45  1  1
 17 46  1  0
 17 47  1  0
 18 48  1  1
 19 49  1  0
 19 50  1  0
 20 51  1  6
 21 52  1  0
 21 53  1  0
 22 54  1  0
 22 55  1  0
 23 56  1  0
 23 57  1  0
 25 58  1  0
 25 59  1  0
 25 60  1  0
 28 61  1  0
 29 62  1  0
 30 63  1  0
 31 64  1  0
 32 65  1  0
 33 66  1  0
 34 67  1  0
M  END
>  <_SMILES>  (79) 
COc1ccc(-n2nc(C(=O)NC[C@]34C[C@H]5C[C@H](C[C@H](C5)C3)C4)c(C)c2-c2ccccc2)cc1

$$$$

     RDKit          3D

 74 79  0  0  0  0  0  0  0  0999 V2000
   -0.5427   -2.9212   -1.6668 C   0  0  0  0  0  0  0  0  0  0  0  0
   -0.9211   -1.7046   -0.8867 C   0  0  0  0  0  0  0  0  0  0  0  0
   -0.1510   -0.4900   -0.8159 C   0  0  0  0  0  0  0  0  0  0  0  0
    1.1185   -0.2102   -1.5001 C   0  0  0  0  0  0  0  0  0  0  0  0
    1.5737   -0.9497   -2.3674 O   0  0  0  0  0  0  0  0  0  0  0  0
    1.7691    0.9324   -1.0842 N   0  0  0  0  0  0  0  0  0  0  0  0
    3.0593    1.3306   -1.6076 C   0  0  0  0  0  0  0  0  0  0  0  0
    4.2499    0.9399   -0.7035 C   0  0  2  0  0  0  0  0  0  0  0  0
    4.1232    1.5753    0.7055 C   0  0  0  0  0  0  0  0  0  0  0  0
    5.3431    1.2199    1.5741 C   0  0  1  0  0  0  0  0  0  0  0  0
    5.4379   -0.3084    1.7131 C   0  0  0  0  0  0  0  0  0  0  0  0
    5.5949   -0.9548    0.3267 C   0  0  2  0  0  0  0  0  0  0  0  0
    6.8695   -0.4172   -0.3422 C   0  0  0  0  0  0  0  0  0  0  0  0
    6.7810    1.1098   -0.4896 C   0  0  2  0  0  0  0  0  0  0  0  0
    6.6191    1.7475    0.8992 C   0  0  0  0  0  0  0  0  0  0  0  0
    5.5593    1.4635   -1.3534 C   0  0  0  0  0  0  0  0  0  0  0  0
    4.3741   -0.5964   -0.5395 C   0  0  0  0  0  0  0  0  0  0  0  0
   -0.8578    0.3575    0.0203 C   0  0  0  0  0  0  0  0  0  0  0  0
   -2.0103   -0.2705    0.4294 N   0  0  0  0  0  0  0  0  0  0  0  0
   -2.9915    0.3628    1.3038 C   0  0  0  0  0  0  0  0  0  0  0  0
   -3.7933    1.4861    0.6215 C   0  0  0  0  0  0  0  0  0  0  0  0
   -4.6190    2.2635    1.6532 C   0  0  0  0  0  0  0  0  0  0  0  0
   -5.3170    3.4765    1.0312 C   0  0  0  0  0  0  0  0  0  0  0  0
   -5.6023    3.3206   -0.4627 C   0  0  0  0  0  0  0  0  0  0  0  0
   -5.8823    1.8718   -0.8325 C   0  0  0  0  0  0  0  0  0  0  0  0
   -4.7092    0.9467   -0.4940 C   0  0  0  0  0  0  0  0  0  0  0  0
   -2.0558   -1.5444   -0.0947 C   0  0  0  0  0  0  0  0  0  0  0  0
   -3.1331   -2.4997    0.1588 C   0  0  0  0  0  0  0  0  0  0  0  0
   -4.0786   -2.7702   -0.8256 C   0  0  0  0  0  0  0  0  0  0  0  0
   -5.0803   -3.6760   -0.5302 C   0  0  0  0  0  0  0  0  0  0  0  0
   -5.1898   -4.3197    0.6530 N   0  0  0  0  0  0  0  0  0  0  0  0
   -4.2539   -4.0643    1.5814 C   0  0  0  0  0  0  0  0  0  0  0  0
   -4.3897   -4.7294    2.7981 N   0  0  0  0  0  0  0  0  0  0  0  0
   -3.2175   -3.1662    1.3813 C   0  0  0  0  0  0  0  0  0  0  0  0
   -0.5928   -2.7131   -2.7403 H   0  0  0  0  0  0  0  0  0  0  0  0
    0.4755   -3.2360   -1.4161 H   0  0  0  0  0  0  0  0  0  0  0  0
   -1.2047   -3.7666   -1.4573 H   0  0  0  0  0  0  0  0  0  0  0  0
    1.3838    1.4554   -0.3136 H   0  0  0  0  0  0  0  0  0  0  0  0
    3.0178    2.4203   -1.7212 H   0  0  0  0  0  0  0  0  0  0  0  0
    3.1897    0.9058   -2.6098 H   0  0  0  0  0  0  0  0  0  0  0  0
    4.0358    2.6662    0.6217 H   0  0  0  0  0  0  0  0  0  0  0  0
    3.2128    1.2233    1.2066 H   0  0  0  0  0  0  0  0  0  0  0  0
    5.2348    1.6747    2.5652 H   0  0  0  0  0  0  0  0  0  0  0  0
    6.2914   -0.5743    2.3488 H   0  0  0  0  0  0  0  0  0  0  0  0
    4.5393   -0.6964    2.2083 H   0  0  0  0  0  0  0  0  0  0  0  0
    5.6647   -2.0431    0.4328 H   0  0  0  0  0  0  0  0  0  0  0  0
    7.0011   -0.8824   -1.3269 H   0  0  0  0  0  0  0  0  0  0  0  0
    7.7486   -0.6854    0.2566 H   0  0  0  0  0  0  0  0  0  0  0  0
    7.6923    1.4884   -0.9659 H   0  0  0  0  0  0  0  0  0  0  0  0
    6.5708    2.8395    0.8075 H   0  0  0  0  0  0  0  0  0  0  0  0
    7.4936    1.5187    1.5206 H   0  0  0  0  0  0  0  0  0  0  0  0
    5.6820    1.0323   -2.3555 H   0  0  0  0  0  0  0  0  0  0  0  0
    5.5070    2.5522   -1.4846 H   0  0  0  0  0  0  0  0  0  0  0  0
    4.4664   -1.0754   -1.5226 H   0  0  0  0  0  0  0  0  0  0  0  0
    3.4735   -1.0085   -0.0685 H   0  0  0  0  0  0  0  0  0  0  0  0
   -0.6575    1.3699    0.3432 H   0  0  0  0  0  0  0  0  0  0  0  0
   -3.6611   -0.4002    1.7106 H   0  0  0  0  0  0  0  0  0  0  0  0
   -2.4205    0.7640    2.1510 H   0  0  0  0  0  0  0  0  0  0  0  0
   -3.0842    2.1915    0.1662 H   0  0  0  0  0  0  0  0  0  0  0  0
   -3.9877    2.6014    2.4837 H   0  0  0  0  0  0  0  0  0  0  0  0
   -5.3748    1.5976    2.0902 H   0  0  0  0  0  0  0  0  0  0  0  0
   -4.7028    4.3732    1.1784 H   0  0  0  0  0  0  0  0  0  0  0  0
   -6.2541    3.6573    1.5718 H   0  0  0  0  0  0  0  0  0  0  0  0
   -4.7401    3.6796   -1.0388 H   0  0  0  0  0  0  0  0  0  0  0  0
   -6.4500    3.9557   -0.7434 H   0  0  0  0  0  0  0  0  0  0  0  0
   -6.1182    1.7907   -1.8997 H   0  0  0  0  0  0  0  0  0  0  0  0
   -6.7750    1.5326   -0.2917 H   0  0  0  0  0  0  0  0  0  0  0  0
   -4.1068    0.7818   -1.3961 H   0  0  0  0  0  0  0  0  0  0  0  0
   -5.1220   -0.0302   -0.2169 H   0  0  0  0  0  0  0  0  0  0  0  0
   -4.0416   -2.2835   -1.7939 H   0  0  0  0  0  0  0  0  0  0  0  0
   -5.8483   -3.9167   -1.2596 H   0  0  0  0  0  0  0  0  0  0  0  0
   -3.5422   -5.2296    3.0399 H   0  0  0  0  0  0  0  0  0  0  0  0
   -5.1817   -5.3600    2.6963 H   0  0  0  0  0  0  0  0  0  0  0  0
   -2.4916   -2.9824    2.1654 H   0  0  0  0  0  0  0  0  0  0  0  0
  1  2  1  0
  2  3  1  0
  3  4  1  0
  4  5  2  0
  4  6  1  0
  6  7  1  0
  8  7  1  6
  8  9  1  0
  9 10  1  0
 10 11  1  0
 11 12  1  0
 12 13  1  0
 13 14  1  0
 14 15  1  0
 14 16  1  0
 12 17  1  0
  3 18  2  0
 18 19  1  0
 19 20  1  0
 20 21  1  0
 21 22  1  0
 22 23  1  0
 23 24  1  0
 24 25  1  0
 25 26  1  0
 19 27  1  0
 27 28  1  0
 28 29  2  0
 29 30  1  0
 30 31  2  0
 31 32  1  0
 32 33  1  0
 32 34  2  0
 27  2  2  0
 34 28  1  0
 16  8  1  0
 26 21  1  0
 17  8  1  0
 15 10  1  0
  1 35  1  0
  1 36  1  0
  1 37  1  0
  6 38  1  0
  7 39  1  0
  7 40  1  0
  9 41  1  0
  9 42  1  0
 10 43  1  1
 11 44  1  0
 11 45  1  0
 12 46  1  1
 13 47  1  0
 13 48  1  0
 14 49  1  6
 15 50  1  0
 15 51  1  0
 16 52  1  0
 16 53  1  0
 17 54  1  0
 17 55  1  0
 18 56  1  0
 20 57  1  0
 20 58  1  0
 21 59  1  0
 22 60  1  0
 22 61  1  0
 23 62  1  0
 23 63  1  0
 24 64  1  0
 24 65  1  0
 25 66  1  0
 25 67  1  0
 26 68  1  0
 26 69  1  0
 29 70  1  0
 30 71  1  0
 33 72  1  0
 33 73  1  0
 34 74  1  0
M  END
>  <_SMILES>  (80) 
Cc1c(C(=O)NC[C@]23C[C@H]4C[C@H](C[C@H](C4)C2)C3)cn(CC2CCCCC2)c1-c1ccnc(N)c1

$$$$

     RDKit          3D

 74 79  0  0  0  0  0  0  0  0999 V2000
    0.3502    1.6168    0.0173 C   0  0  0  0  0  0  0  0  0  0  0  0
   -0.5842    0.4809    0.2703 C   0  0  0  0  0  0  0  0  0  0  0  0
   -0.3276   -0.9190    0.0525 C   0  0  0  0  0  0  0  0  0  0  0  0
    0.8703   -1.6168   -0.4207 C   0  0  0  0  0  0  0  0  0  0  0  0
    0.8164   -2.7020   -0.9907 O   0  0  0  0  0  0  0  0  0  0  0  0
    2.0577   -0.9849   -0.1168 N   0  0  0  0  0  0  0  0  0  0  0  0
    3.3258   -1.6418   -0.3565 C   0  0  0  0  0  0  0  0  0  0  0  0
    4.5335   -0.6819   -0.3533 C   0  0  2  0  0  0  0  0  0  0  0  0
    4.7266   -0.0045    1.0282 C   0  0  0  0  0  0  0  0  0  0  0  0
    5.9618    0.9140    1.0146 C   0  0  1  0  0  0  0  0  0  0  0  0
    7.2112    0.0819    0.6862 C   0  0  0  0  0  0  0  0  0  0  0  0
    7.0540   -0.5797   -0.6917 C   0  0  2  0  0  0  0  0  0  0  0  0
    6.8638    0.5083   -1.7604 C   0  0  0  0  0  0  0  0  0  0  0  0
    5.6125    1.3429   -1.4441 C   0  0  2  0  0  0  0  0  0  0  0  0
    5.7749    1.9962   -0.0617 C   0  0  0  0  0  0  0  0  0  0  0  0
    4.3782    0.4237   -1.4287 C   0  0  0  0  0  0  0  0  0  0  0  0
    5.8174   -1.4934   -0.6750 C   0  0  0  0  0  0  0  0  0  0  0  0
   -1.5021   -1.5787    0.3671 C   0  0  0  0  0  0  0  0  0  0  0  0
   -2.4384   -0.6694    0.7853 N   0  0  0  0  0  0  0  0  0  0  0  0
   -3.7805   -1.0482    1.2144 C   0  0  0  0  0  0  0  0  0  0  0  0
   -4.8595   -0.8950    0.1238 C   0  0  0  0  0  0  0  0  0  0  0  0
   -4.5934   -1.8315   -1.0730 C   0  0  0  0  0  0  0  0  0  0  0  0
   -5.8685   -2.1263   -1.8528 C   0  0  0  0  0  0  0  0  0  0  0  0
   -6.9007   -2.8517   -0.9884 C   0  0  0  0  0  0  0  0  0  0  0  0
   -6.7919   -2.5135    0.4993 C   0  0  0  0  0  0  0  0  0  0  0  0
   -6.2689   -1.0994    0.7198 C   0  0  0  0  0  0  0  0  0  0  0  0
   -1.8871    0.5941    0.7504 C   0  0  0  0  0  0  0  0  0  0  0  0
   -2.6490    1.7298    1.1572 C   0  0  0  0  0  0  0  0  0  0  0  0
   -2.8013    2.1184    2.5631 C   0  0  0  0  0  0  0  0  0  0  0  0
   -3.5282    3.1989    2.8856 C   0  0  0  0  0  0  0  0  0  0  0  0
   -4.1308    3.9561    1.9183 N   0  0  0  0  0  0  0  0  0  0  0  0
   -4.0076    3.6709    0.5845 C   0  0  0  0  0  0  0  0  0  0  0  0
   -4.5822    4.4364   -0.2888 N   0  0  0  0  0  0  0  0  0  0  0  0
   -3.2079    2.4745    0.1771 C   0  0  0  0  0  0  0  0  0  0  0  0
    0.9242    1.4522   -0.8998 H   0  0  0  0  0  0  0  0  0  0  0  0
    1.0455    1.7312    0.8547 H   0  0  0  0  0  0  0  0  0  0  0  0
   -0.1855    2.5631   -0.1057 H   0  0  0  0  0  0  0  0  0  0  0  0
    2.0052   -0.3091    0.6308 H   0  0  0  0  0  0  0  0  0  0  0  0
    3.4409   -2.4078    0.4201 H   0  0  0  0  0  0  0  0  0  0  0  0
    3.2653   -2.1668   -1.3179 H   0  0  0  0  0  0  0  0  0  0  0  0
    4.8415   -0.7664    1.8097 H   0  0  0  0  0  0  0  0  0  0  0  0
    3.8462    0.5918    1.2961 H   0  0  0  0  0  0  0  0  0  0  0  0
    6.0805    1.3862    1.9963 H   0  0  0  0  0  0  0  0  0  0  0  0
    8.1012    0.7231    0.6946 H   0  0  0  0  0  0  0  0  0  0  0  0
    7.3641   -0.6849    1.4556 H   0  0  0  0  0  0  0  0  0  0  0  0
    7.9472   -1.1712   -0.9216 H   0  0  0  0  0  0  0  0  0  0  0  0
    7.7476    1.1570   -1.7958 H   0  0  0  0  0  0  0  0  0  0  0  0
    6.7669    0.0480   -2.7514 H   0  0  0  0  0  0  0  0  0  0  0  0
    5.4843    2.1193   -2.2067 H   0  0  0  0  0  0  0  0  0  0  0  0
    4.8938    2.6074    0.1700 H   0  0  0  0  0  0  0  0  0  0  0  0
    6.6387    2.6722   -0.0664 H   0  0  0  0  0  0  0  0  0  0  0  0
    3.4839    1.0281   -1.2335 H   0  0  0  0  0  0  0  0  0  0  0  0
    4.2430   -0.0290   -2.4194 H   0  0  0  0  0  0  0  0  0  0  0  0
    5.7168   -1.9898   -1.6490 H   0  0  0  0  0  0  0  0  0  0  0  0
    5.9581   -2.2881    0.0691 H   0  0  0  0  0  0  0  0  0  0  0  0
   -1.7302   -2.6369    0.3216 H   0  0  0  0  0  0  0  0  0  0  0  0
   -3.7321   -2.0871    1.5648 H   0  0  0  0  0  0  0  0  0  0  0  0
   -4.0222   -0.4414    2.0936 H   0  0  0  0  0  0  0  0  0  0  0  0
   -4.8262    0.1361   -0.2491 H   0  0  0  0  0  0  0  0  0  0  0  0
   -3.8533   -1.3728   -1.7395 H   0  0  0  0  0  0  0  0  0  0  0  0
   -4.1638   -2.7818   -0.7317 H   0  0  0  0  0  0  0  0  0  0  0  0
   -5.6420   -2.7301   -2.7388 H   0  0  0  0  0  0  0  0  0  0  0  0
   -6.2946   -1.1834   -2.2181 H   0  0  0  0  0  0  0  0  0  0  0  0
   -6.7925   -3.9363   -1.1106 H   0  0  0  0  0  0  0  0  0  0  0  0
   -7.9038   -2.6019   -1.3549 H   0  0  0  0  0  0  0  0  0  0  0  0
   -7.7722   -2.6338    0.9743 H   0  0  0  0  0  0  0  0  0  0  0  0
   -6.1189   -3.2284    0.9888 H   0  0  0  0  0  0  0  0  0  0  0  0
   -6.2836   -0.8565    1.7885 H   0  0  0  0  0  0  0  0  0  0  0  0
   -6.9610   -0.3942    0.2404 H   0  0  0  0  0  0  0  0  0  0  0  0
   -2.3115    1.5191    3.3230 H   0  0  0  0  0  0  0  0  0  0  0  0
   -3.6735    3.5343    3.9064 H   0  0  0  0  0  0  0  0  0  0  0  0
   -4.6592    4.7803    2.1725 H   0  0  0  0  0  0  0  0  0  0  0  0
   -4.4000    4.0977   -1.2379 H   0  0  0  0  0  0  0  0  0  0  0  0
   -3.1133    2.2443   -0.8752 H   0  0  0  0  0  0  0  0  0  0  0  0
  1  2  1  0
  2  3  1  0
  3  4  1  0
  4  5  2  0
  4  6  1  0
  6  7  1  0
  8  7  1  1
  8  9  1  0
  9 10  1  0
 10 11  1  0
 11 12  1  0
 12 13  1  0
 13 14  1  0
 14 15  1  0
 14 16  1  0
 12 17  1  0
  3 18  2  0
 18 19  1  0
 19 20  1  0
 20 21  1  0
 21 22  1  0
 22 23  1  0
 23 24  1  0
 24 25  1  0
 25 26  1  0
 19 27  1  0
 27 28  1  0
 28 29  1  0
 29 30  2  0
 30 31  1  0
 31 32  1  0
 32 33  2  3
 32 34  1  0
 27  2  2  0
 34 28  2  0
 16  8  1  0
 26 21  1  0
 17  8  1  0
 15 10  1  0
  1 35  1  0
  1 36  1  0
  1 37  1  0
  6 38  1  0
  7 39  1  0
  7 40  1  0
  9 41  1  0
  9 42  1  0
 10 43  1  1
 11 44  1  0
 11 45  1  0
 12 46  1  6
 13 47  1  0
 13 48  1  0
 14 49  1  6
 15 50  1  0
 15 51  1  0
 16 52  1  0
 16 53  1  0
 17 54  1  0
 17 55  1  0
 18 56  1  0
 20 57  1  0
 20 58  1  0
 21 59  1  0
 22 60  1  0
 22 61  1  0
 23 62  1  0
 23 63  1  0
 24 64  1  0
 24 65  1  0
 25 66  1  0
 25 67  1  0
 26 68  1  0
 26 69  1  0
 29 70  1  0
 30 71  1  0
 31 72  1  0
 33 73  1  0
 34 74  1  0
M  END
>  <_SMILES>  (81) 
Cc1c(C(=O)NC[C@]23C[C@H]4C[C@H](C[C@H](C4)C2)C3)cn(CC2CCCCC2)c1-c1cc[nH]c(=N)c1

$$$$

     RDKit          3D

 41 44  0  0  0  0  0  0  0  0999 V2000
    1.9685    2.5024    0.4071 O   0  0  0  0  0  0  0  0  0  0  0  0
    2.3225    1.3908    0.0328 C   0  0  0  0  0  0  0  0  0  0  0  0
    3.5270    0.7518    0.6013 C   0  0  0  0  0  0  0  0  0  0  0  0
    4.3345   -0.0437   -0.1130 C   0  0  0  0  0  0  0  0  0  0  0  0
    5.6062   -0.7481    0.4611 C   0  0  0  0  0  0  0  0  0  0  0  0
    6.0263   -0.6559    1.7403 N   0  0  0  0  0  0  0  0  0  0  0  0
    7.1240   -1.4489    1.7873 N   0  0  0  0  0  0  0  0  0  0  0  0
    7.3372   -1.9920    0.5673 N   0  0  0  0  0  0  0  0  0  0  0  0
    6.3814   -1.5593   -0.2895 N   0  0  0  0  0  0  0  0  0  0  0  0
    1.6265    0.6170   -0.8631 N   0  0  0  0  0  0  0  0  0  0  0  0
    0.3856    1.0518   -1.4687 C   0  0  0  0  0  0  0  0  0  0  0  0
   -0.8796    0.4757   -0.7941 C   0  0  2  0  0  0  0  0  0  0  0  0
   -2.1279    0.9846   -1.5649 C   0  0  0  0  0  0  0  0  0  0  0  0
   -3.4210    0.4345   -0.9411 C   0  0  1  0  0  0  0  0  0  0  0  0
   -3.3915   -1.1012   -0.9900 C   0  0  0  0  0  0  0  0  0  0  0  0
   -2.1789   -1.6287   -0.2070 C   0  0  2  0  0  0  0  0  0  0  0  0
   -2.2748   -1.1581    1.2536 C   0  0  0  0  0  0  0  0  0  0  0  0
   -2.2995    0.3782    1.3117 C   0  0  2  0  0  0  0  0  0  0  0  0
   -3.5114    0.8963    0.5218 C   0  0  0  0  0  0  0  0  0  0  0  0
   -1.0072    0.9290    0.6825 C   0  0  0  0  0  0  0  0  0  0  0  0
   -0.8871   -1.0746   -0.8343 C   0  0  0  0  0  0  0  0  0  0  0  0
    3.7560    1.0060    1.6309 H   0  0  0  0  0  0  0  0  0  0  0  0
    4.1620   -0.2585   -1.1595 H   0  0  0  0  0  0  0  0  0  0  0  0
    1.9253   -0.3373   -1.0161 H   0  0  0  0  0  0  0  0  0  0  0  0
    0.3492    2.1476   -1.4668 H   0  0  0  0  0  0  0  0  0  0  0  0
    0.4298    0.7310   -2.5161 H   0  0  0  0  0  0  0  0  0  0  0  0
   -2.0717    0.6802   -2.6182 H   0  0  0  0  0  0  0  0  0  0  0  0
   -2.1553    2.0820   -1.5565 H   0  0  0  0  0  0  0  0  0  0  0  0
   -4.2876    0.8053   -1.4998 H   0  0  0  0  0  0  0  0  0  0  0  0
   -4.3175   -1.5073   -0.5647 H   0  0  0  0  0  0  0  0  0  0  0  0
   -3.3430   -1.4427   -2.0313 H   0  0  0  0  0  0  0  0  0  0  0  0
   -2.1651   -2.7239   -0.2419 H   0  0  0  0  0  0  0  0  0  0  0  0
   -1.4226   -1.5416    1.8280 H   0  0  0  0  0  0  0  0  0  0  0  0
   -3.1810   -1.5648    1.7192 H   0  0  0  0  0  0  0  0  0  0  0  0
   -2.3707    0.7071    2.3545 H   0  0  0  0  0  0  0  0  0  0  0  0
   -3.5490    1.9916    0.5680 H   0  0  0  0  0  0  0  0  0  0  0  0
   -4.4397    0.5266    0.9745 H   0  0  0  0  0  0  0  0  0  0  0  0
   -0.1503    0.5771    1.2696 H   0  0  0  0  0  0  0  0  0  0  0  0
   -1.0057    2.0248    0.7431 H   0  0  0  0  0  0  0  0  0  0  0  0
   -0.0240   -1.4785   -0.2905 H   0  0  0  0  0  0  0  0  0  0  0  0
   -0.8003   -1.4263   -1.8704 H   0  0  0  0  0  0  0  0  0  0  0  0
  1  2  2  0
  2  3  1  0
  3  4  2  0
  4  5  1  0
  5  6  1  0
  6  7  2  0
  7  8  1  0
  8  9  1  0
  2 10  1  0
 10 11  1  0
 12 11  1  6
 12 13  1  0
 13 14  1  0
 14 15  1  0
 15 16  1  0
 16 17  1  0
 17 18  1  0
 18 19  1  0
 18 20  1  0
 16 21  1  0
  9  5  2  0
 20 12  1  0
 21 12  1  0
 19 14  1  0
  3 22  1  0
  4 23  1  0
 10 24  1  0
 11 25  1  0
 11 26  1  0
 13 27  1  0
 13 28  1  0
 14 29  1  6
 15 30  1  0
 15 31  1  0
 16 32  1  1
 17 33  1  0
 17 34  1  0
 18 35  1  1
 19 36  1  0
 19 37  1  0
 20 38  1  0
 20 39  1  0
 21 40  1  0
 21 41  1  0
M  CHG  1   8  -1
M  END
>  <_SMILES>  (82) 
O=C(/C=C/c1nn[n-]n1)NC[C@]12C[C@H]3C[C@H](C[C@H](C3)C1)C2

$$$$

     RDKit          3D

 58 62  0  0  0  0  0  0  0  0999 V2000
    2.5039   -2.5689    0.3930 C   0  0  0  0  0  0  0  0  0  0  0  0
    2.4821   -1.8403   -0.9443 C   0  0  0  0  0  0  0  0  0  0  0  0
    3.5854   -2.2929   -1.8924 C   0  0  0  0  0  0  0  0  0  0  0  0
    2.4442   -0.2788   -0.7646 C   0  0  0  0  0  0  0  0  0  0  0  0
    1.4694    0.6236   -1.0120 C   0  0  0  0  0  0  0  0  0  0  0  0
    0.1067    0.6332   -1.5100 C   0  0  0  0  0  0  0  0  0  0  0  0
   -0.3866    1.4893   -2.2346 O   0  0  0  0  0  0  0  0  0  0  0  0
   -0.6166   -0.4511   -1.0541 N   0  0  0  0  0  0  0  0  0  0  0  0
   -2.0232   -0.6320   -1.3594 C   0  0  0  0  0  0  0  0  0  0  0  0
   -2.9738   -0.1711   -0.2317 C   0  0  2  0  0  0  0  0  0  0  0  0
   -2.7014   -0.9393    1.0879 C   0  0  0  0  0  0  0  0  0  0  0  0
   -3.6921   -0.5069    2.1835 C   0  0  1  0  0  0  0  0  0  0  0  0
   -3.5421    1.0026    2.4347 C   0  0  0  0  0  0  0  0  0  0  0  0
   -3.8385    1.7836    1.1437 C   0  0  2  0  0  0  0  0  0  0  0  0
   -5.2720    1.4769    0.6832 C   0  0  0  0  0  0  0  0  0  0  0  0
   -5.4294   -0.0296    0.4249 C   0  0  2  0  0  0  0  0  0  0  0  0
   -5.1265   -0.8030    1.7179 C   0  0  0  0  0  0  0  0  0  0  0  0
   -4.4360   -0.4612   -0.6662 C   0  0  0  0  0  0  0  0  0  0  0  0
   -2.8470    1.3478    0.0500 C   0  0  0  0  0  0  0  0  0  0  0  0
    2.3323    1.7409   -0.6718 C   0  0  0  0  0  0  0  0  0  0  0  0
    2.2335    2.9480   -0.6318 O   0  0  0  0  0  0  0  0  0  0  0  0
    3.3056    0.8392   -0.3694 N   0  0  0  0  0  0  0  0  0  0  0  0
    4.6120    0.9616    0.0867 C   0  0  0  0  0  0  0  0  0  0  0  0
    5.4042   -0.1420    0.4131 C   0  0  0  0  0  0  0  0  0  0  0  0
    6.7162    0.0221    0.8738 C   0  0  0  0  0  0  0  0  0  0  0  0
    7.2419    1.2977    1.0152 C   0  0  0  0  0  0  0  0  0  0  0  0
    8.4963    1.4523    1.4569 F   0  0  0  0  0  0  0  0  0  0  0  0
    6.4783    2.4123    0.7078 C   0  0  0  0  0  0  0  0  0  0  0  0
    5.1682    2.2429    0.2483 C   0  0  0  0  0  0  0  0  0  0  0  0
    3.4062   -2.3617    0.9719 H   0  0  0  0  0  0  0  0  0  0  0  0
    1.6480   -2.2709    1.0090 H   0  0  0  0  0  0  0  0  0  0  0  0
    2.4456   -3.6523    0.2435 H   0  0  0  0  0  0  0  0  0  0  0  0
    1.5418   -2.1259   -1.4342 H   0  0  0  0  0  0  0  0  0  0  0  0
    3.5001   -3.3662   -2.0951 H   0  0  0  0  0  0  0  0  0  0  0  0
    3.5125   -1.7662   -2.8504 H   0  0  0  0  0  0  0  0  0  0  0  0
    4.5868   -2.1142   -1.4980 H   0  0  0  0  0  0  0  0  0  0  0  0
   -0.2016   -1.0663   -0.3694 H   0  0  0  0  0  0  0  0  0  0  0  0
   -2.1567   -1.7042   -1.5456 H   0  0  0  0  0  0  0  0  0  0  0  0
   -2.2611   -0.1094   -2.2932 H   0  0  0  0  0  0  0  0  0  0  0  0
   -1.6783   -0.7537    1.4381 H   0  0  0  0  0  0  0  0  0  0  0  0
   -2.7864   -2.0207    0.9201 H   0  0  0  0  0  0  0  0  0  0  0  0
   -3.4830   -1.0575    3.1075 H   0  0  0  0  0  0  0  0  0  0  0  0
   -2.5261    1.2256    2.7831 H   0  0  0  0  0  0  0  0  0  0  0  0
   -4.2279    1.3198    3.2298 H   0  0  0  0  0  0  0  0  0  0  0  0
   -3.7326    2.8582    1.3300 H   0  0  0  0  0  0  0  0  0  0  0  0
   -5.5013    2.0403   -0.2297 H   0  0  0  0  0  0  0  0  0  0  0  0
   -5.9888    1.8030    1.4469 H   0  0  0  0  0  0  0  0  0  0  0  0
   -6.4532   -0.2434    0.0979 H   0  0  0  0  0  0  0  0  0  0  0  0
   -5.8406   -0.5185    2.5005 H   0  0  0  0  0  0  0  0  0  0  0  0
   -5.2514   -1.8796    1.5493 H   0  0  0  0  0  0  0  0  0  0  0  0
   -4.5631   -1.5317   -0.8739 H   0  0  0  0  0  0  0  0  0  0  0  0
   -4.6645    0.0689   -1.6000 H   0  0  0  0  0  0  0  0  0  0  0  0
   -3.0358    1.9196   -0.8675 H   0  0  0  0  0  0  0  0  0  0  0  0
   -1.8298    1.5965    0.3759 H   0  0  0  0  0  0  0  0  0  0  0  0
    5.0270   -1.1500    0.3372 H   0  0  0  0  0  0  0  0  0  0  0  0
    7.3262   -0.8396    1.1266 H   0  0  0  0  0  0  0  0  0  0  0  0
    6.8990    3.4059    0.8250 H   0  0  0  0  0  0  0  0  0  0  0  0
    4.5936    3.1371    0.0135 H   0  0  0  0  0  0  0  0  0  0  0  0
  1  2  1  0
  2  3  1  0
  2  4  1  0
  4  5  2  0
  5  6  1  0
  6  7  2  0
  6  8  1  0
  8  9  1  0
 10  9  1  6
 10 11  1  0
 11 12  1  0
 12 13  1  0
 13 14  1  0
 14 15  1  0
 15 16  1  0
 16 17  1  0
 16 18  1  0
 14 19  1  0
  5 20  1  0
 20 21  2  0
 20 22  1  0
 22 23  1  0
 23 24  1  0
 24 25  2  0
 25 26  1  0
 26 27  1  0
 26 28  2  0
 28 29  1  0
 22  4  1  0
 29 23  2  0
 18 10  1  0
 19 10  1  0
 17 12  1  0
  1 30  1  0
  1 31  1  0
  1 32  1  0
  2 33  1  0
  3 34  1  0
  3 35  1  0
  3 36  1  0
  8 37  1  0
  9 38  1  0
  9 39  1  0
 11 40  1  0
 11 41  1  0
 12 42  1  1
 13 43  1  0
 13 44  1  0
 14 45  1  1
 15 46  1  0
 15 47  1  0
 16 48  1  6
 17 49  1  0
 17 50  1  0
 18 51  1  0
 18 52  1  0
 19 53  1  0
 19 54  1  0
 24 55  1  0
 25 56  1  0
 28 57  1  0
 29 58  1  0
M  END
>  <_SMILES>  (83) 
CC(C)C1=C(C(=O)NC[C@]23C[C@H]4C[C@H](C[C@H](C4)C2)C3)C(=O)N1c1ccc(F)cc1

$$$$

     RDKit          3D

 61 65  0  0  0  0  0  0  0  0999 V2000
   -5.6532    2.2596   -1.1636 C   0  0  0  0  0  0  0  0  0  0  0  0
   -6.0250    0.8244   -0.8697 C   0  0  0  0  0  0  0  0  0  0  0  0
   -7.4273    0.4944   -1.3267 C   0  0  0  0  0  0  0  0  0  0  0  0
   -5.2010   -0.0615   -0.2538 C   0  0  0  0  0  0  0  0  0  0  0  0
   -5.6408   -1.4922    0.0232 C   0  0  0  0  0  0  0  0  0  0  0  0
   -4.4984   -2.3254    0.5997 C   0  0  1  0  0  0  0  0  0  0  0  0
   -3.1588   -2.1505   -0.1578 C   0  0  0  0  0  0  0  0  0  0  0  0
   -2.9875   -0.8607    0.7175 C   0  0  1  0  0  0  0  0  0  0  0  0
   -1.5338   -0.4398    1.1274 C   0  0  0  0  0  0  0  0  0  0  0  0
   -1.2646   -0.0174    2.2544 O   0  0  0  0  0  0  0  0  0  0  0  0
   -0.6209   -0.5852    0.0937 N   0  0  0  0  0  0  0  0  0  0  0  0
    0.7317   -0.2924    0.1463 C   0  0  0  0  0  0  0  0  0  0  0  0
    1.4361    0.2043    1.2119 C   0  0  0  0  0  0  0  0  0  0  0  0
    2.7601    0.4034    0.8621 N   0  0  0  0  0  0  0  0  0  0  0  0
    3.7360    0.9775    1.7435 C   0  0  0  0  0  0  0  0  0  0  0  0
    3.5671    0.8737    3.1345 C   0  0  0  0  0  0  0  0  0  0  0  0
    4.5045    1.4309    4.0095 C   0  0  0  0  0  0  0  0  0  0  0  0
    5.6143    2.1047    3.5086 C   0  0  0  0  0  0  0  0  0  0  0  0
    5.7848    2.2267    2.1326 C   0  0  0  0  0  0  0  0  0  0  0  0
    4.8499    1.6704    1.2532 C   0  0  0  0  0  0  0  0  0  0  0  0
    2.9086   -0.0344   -0.4602 C   0  0  0  0  0  0  0  0  0  0  0  0
    4.1789   -0.1443   -1.1872 C   0  0  0  0  0  0  0  0  0  0  0  0
    5.1653   -1.0437   -0.7633 C   0  0  0  0  0  0  0  0  0  0  0  0
    6.3651   -1.1576   -1.4681 C   0  0  0  0  0  0  0  0  0  0  0  0
    6.5831   -0.3810   -2.6054 C   0  0  0  0  0  0  0  0  0  0  0  0
    5.6019    0.5082   -3.0416 C   0  0  0  0  0  0  0  0  0  0  0  0
    4.4018    0.6239   -2.3376 C   0  0  0  0  0  0  0  0  0  0  0  0
    1.6579   -0.4616   -0.9179 C   0  0  0  0  0  0  0  0  0  0  0  0
    1.3636   -1.0211   -2.2706 C   0  0  0  0  0  0  0  0  0  0  0  0
   -3.7959    0.3364    0.1867 C   0  0  0  0  0  0  0  0  0  0  0  0
   -3.7910   -1.6557    1.8031 C   0  0  0  0  0  0  0  0  0  0  0  0
   -5.6632    2.4344   -2.2447 H   0  0  0  0  0  0  0  0  0  0  0  0
   -4.6658    2.5454   -0.7940 H   0  0  0  0  0  0  0  0  0  0  0  0
   -6.3769    2.9373   -0.6980 H   0  0  0  0  0  0  0  0  0  0  0  0
   -8.1456    1.1713   -0.8516 H   0  0  0  0  0  0  0  0  0  0  0  0
   -7.7421   -0.5240   -1.0881 H   0  0  0  0  0  0  0  0  0  0  0  0
   -7.5049    0.6160   -2.4123 H   0  0  0  0  0  0  0  0  0  0  0  0
   -6.4761   -1.4900    0.7335 H   0  0  0  0  0  0  0  0  0  0  0  0
   -5.9801   -1.9642   -0.9066 H   0  0  0  0  0  0  0  0  0  0  0  0
   -4.7951   -3.3658    0.7693 H   0  0  0  0  0  0  0  0  0  0  0  0
   -3.2251   -2.0076   -1.2404 H   0  0  0  0  0  0  0  0  0  0  0  0
   -2.4256   -2.9418    0.0427 H   0  0  0  0  0  0  0  0  0  0  0  0
   -0.9626   -0.9262   -0.7936 H   0  0  0  0  0  0  0  0  0  0  0  0
    1.0806    0.4917    2.1908 H   0  0  0  0  0  0  0  0  0  0  0  0
    2.7302    0.3336    3.5704 H   0  0  0  0  0  0  0  0  0  0  0  0
    4.3664    1.3336    5.0834 H   0  0  0  0  0  0  0  0  0  0  0  0
    6.3416    2.5391    4.1891 H   0  0  0  0  0  0  0  0  0  0  0  0
    6.6422    2.7656    1.7372 H   0  0  0  0  0  0  0  0  0  0  0  0
    5.0035    1.8380    0.1930 H   0  0  0  0  0  0  0  0  0  0  0  0
    5.0042   -1.6581    0.1197 H   0  0  0  0  0  0  0  0  0  0  0  0
    7.1279   -1.8536   -1.1290 H   0  0  0  0  0  0  0  0  0  0  0  0
    7.5177   -0.4711   -3.1531 H   0  0  0  0  0  0  0  0  0  0  0  0
    5.7705    1.1114   -3.9298 H   0  0  0  0  0  0  0  0  0  0  0  0
    3.6433    1.3215   -2.6848 H   0  0  0  0  0  0  0  0  0  0  0  0
    0.5182   -1.7154   -2.2404 H   0  0  0  0  0  0  0  0  0  0  0  0
    1.1194   -0.2120   -2.9661 H   0  0  0  0  0  0  0  0  0  0  0  0
    2.2174   -1.5771   -2.6704 H   0  0  0  0  0  0  0  0  0  0  0  0
   -3.2583    0.7678   -0.6670 H   0  0  0  0  0  0  0  0  0  0  0  0
   -3.8662    1.0997    0.9717 H   0  0  0  0  0  0  0  0  0  0  0  0
   -4.4228   -1.0703    2.4777 H   0  0  0  0  0  0  0  0  0  0  0  0
   -3.1853   -2.3429    2.4071 H   0  0  0  0  0  0  0  0  0  0  0  0
  1  2  1  0
  2  3  1  0
  2  4  2  3
  4  5  1  0
  5  6  1  0
  6  7  1  0
  7  8  1  0
  8  9  1  1
  9 10  2  0
  9 11  1  0
 11 12  1  0
 12 13  2  0
 13 14  1  0
 14 15  1  0
 15 16  2  0
 16 17  1  0
 17 18  2  0
 18 19  1  0
 19 20  2  0
 14 21  1  0
 21 22  1  0
 22 23  2  0
 23 24  1  0
 24 25  2  0
 25 26  1  0
 26 27  2  0
 21 28  2  0
 28 29  1  0
  8 30  1  0
  8 31  1  0
 30  4  1  0
 31  6  1  0
 28 12  1  0
 20 15  1  0
 27 22  1  0
  1 32  1  0
  1 33  1  0
  1 34  1  0
  3 35  1  0
  3 36  1  0
  3 37  1  0
  5 38  1  0
  5 39  1  0
  6 40  1  1
  7 41  1  0
  7 42  1  0
 11 43  1  0
 13 44  1  0
 16 45  1  0
 17 46  1  0
 18 47  1  0
 19 48  1  0
 20 49  1  0
 23 50  1  0
 24 51  1  0
 25 52  1  0
 26 53  1  0
 27 54  1  0
 29 55  1  0
 29 56  1  0
 29 57  1  0
 30 58  1  0
 30 59  1  0
 31 60  1  0
 31 61  1  0
M  END
>  <_SMILES>  (84) 
CC(C)=C1C[C@H]2C[C@@](C(=O)Nc3cn(-c4ccccc4)c(-c4ccccc4)c3C)(C1)C2

$$$$

     RDKit          3D

 70 75  0  0  0  0  0  0  0  0999 V2000
   -1.0392   -2.3680   -0.3472 O   0  0  0  0  0  0  0  0  0  0  0  0
   -0.9194   -1.1760   -0.6178 C   0  0  0  0  0  0  0  0  0  0  0  0
   -1.8732   -0.4796   -1.3214 N   0  0  0  0  0  0  0  0  0  0  0  0
   -3.1196   -1.0698   -1.7617 C   0  0  0  0  0  0  0  0  0  0  0  0
   -4.3237   -0.7234   -0.8583 C   0  0  2  0  0  0  0  0  0  0  0  0
   -4.1387   -1.2638    0.5827 C   0  0  0  0  0  0  0  0  0  0  0  0
   -5.3719   -0.9437    1.4463 C   0  0  1  0  0  0  0  0  0  0  0  0
   -5.5708    0.5802    1.4982 C   0  0  0  0  0  0  0  0  0  0  0  0
   -5.7860    1.1322    0.0793 C   0  0  2  0  0  0  0  0  0  0  0  0
   -7.0268    0.4695   -0.5395 C   0  0  0  0  0  0  0  0  0  0  0  0
   -6.8341   -1.0540   -0.5997 C   0  0  2  0  0  0  0  0  0  0  0  0
   -6.6147   -1.5964    0.8212 C   0  0  0  0  0  0  0  0  0  0  0  0
   -5.5994   -1.3735   -1.4583 C   0  0  0  0  0  0  0  0  0  0  0  0
   -4.5525    0.8087   -0.7825 C   0  0  0  0  0  0  0  0  0  0  0  0
    0.2547   -0.4063   -0.2045 C   0  0  0  0  0  0  0  0  0  0  0  0
    1.3175   -0.9792    0.4775 C   0  0  0  0  0  0  0  0  0  0  0  0
    2.2738   -0.0266    0.7162 N   0  0  0  0  0  0  0  0  0  0  0  0
    3.5278   -0.3073    1.4035 C   0  0  0  0  0  0  0  0  0  0  0  0
    4.5183   -1.1518    0.5808 C   0  0  0  0  0  0  0  0  0  0  0  0
    5.7024   -1.5778    1.4729 C   0  0  0  0  0  0  0  0  0  0  0  0
    6.9788   -1.9093    0.6960 C   0  0  0  0  0  0  0  0  0  0  0  0
    6.6810   -2.3775   -0.7197 C   0  0  0  0  0  0  0  0  0  0  0  0
    5.9391   -1.3086   -1.5213 C   0  0  0  0  0  0  0  0  0  0  0  0
    5.0238   -0.4230   -0.6700 C   0  0  0  0  0  0  0  0  0  0  0  0
    1.8390    1.1913    0.2376 C   0  0  0  0  0  0  0  0  0  0  0  0
    2.5948    2.4365    0.3560 C   0  0  0  0  0  0  0  0  0  0  0  0
    2.5920    3.1516    1.5593 C   0  0  0  0  0  0  0  0  0  0  0  0
    3.3159    4.3399    1.6729 C   0  0  0  0  0  0  0  0  0  0  0  0
    4.0412    4.8214    0.5838 C   0  0  0  0  0  0  0  0  0  0  0  0
    4.0401    4.1190   -0.6207 C   0  0  0  0  0  0  0  0  0  0  0  0
    3.3162    2.9311   -0.7359 C   0  0  0  0  0  0  0  0  0  0  0  0
    0.5998    0.9716   -0.3505 C   0  0  0  0  0  0  0  0  0  0  0  0
   -0.3542    2.1755   -1.1030 Cl  0  0  0  0  0  0  0  0  0  0  0  0
   -1.7188    0.5048   -1.4969 H   0  0  0  0  0  0  0  0  0  0  0  0
   -3.0006   -2.1572   -1.8336 H   0  0  0  0  0  0  0  0  0  0  0  0
   -3.2925   -0.6948   -2.7773 H   0  0  0  0  0  0  0  0  0  0  0  0
   -3.2529   -0.8181    1.0515 H   0  0  0  0  0  0  0  0  0  0  0  0
   -3.9749   -2.3487    0.5615 H   0  0  0  0  0  0  0  0  0  0  0  0
   -5.2221   -1.3311    2.4603 H   0  0  0  0  0  0  0  0  0  0  0  0
   -6.4343    0.8236    2.1295 H   0  0  0  0  0  0  0  0  0  0  0  0
   -4.6963    1.0572    1.9576 H   0  0  0  0  0  0  0  0  0  0  0  0
   -5.9304    2.2175    0.1234 H   0  0  0  0  0  0  0  0  0  0  0  0
   -7.2003    0.8660   -1.5475 H   0  0  0  0  0  0  0  0  0  0  0  0
   -7.9164    0.7113    0.0550 H   0  0  0  0  0  0  0  0  0  0  0  0
   -7.7217   -1.5214   -1.0405 H   0  0  0  0  0  0  0  0  0  0  0  0
   -7.4967   -1.3922    1.4405 H   0  0  0  0  0  0  0  0  0  0  0  0
   -6.4915   -2.6860    0.7922 H   0  0  0  0  0  0  0  0  0  0  0  0
   -5.7621   -1.0118   -2.4820 H   0  0  0  0  0  0  0  0  0  0  0  0
   -5.4723   -2.4618   -1.5265 H   0  0  0  0  0  0  0  0  0  0  0  0
   -3.6757    1.3088   -0.3526 H   0  0  0  0  0  0  0  0  0  0  0  0
   -4.6885    1.2210   -1.7905 H   0  0  0  0  0  0  0  0  0  0  0  0
    1.4583   -2.0052    0.7976 H   0  0  0  0  0  0  0  0  0  0  0  0
    3.2537   -0.8369    2.3251 H   0  0  0  0  0  0  0  0  0  0  0  0
    3.9884    0.6373    1.7076 H   0  0  0  0  0  0  0  0  0  0  0  0
    4.0042   -2.0644    0.2482 H   0  0  0  0  0  0  0  0  0  0  0  0
    5.3955   -2.4546    2.0574 H   0  0  0  0  0  0  0  0  0  0  0  0
    5.9404   -0.7962    2.2055 H   0  0  0  0  0  0  0  0  0  0  0  0
    7.5505   -2.6721    1.2368 H   0  0  0  0  0  0  0  0  0  0  0  0
    7.6160   -1.0170    0.6511 H   0  0  0  0  0  0  0  0  0  0  0  0
    7.6099   -2.6454   -1.2357 H   0  0  0  0  0  0  0  0  0  0  0  0
    6.0734   -3.2902   -0.6777 H   0  0  0  0  0  0  0  0  0  0  0  0
    5.3515   -1.8036   -2.3041 H   0  0  0  0  0  0  0  0  0  0  0  0
    6.6604   -0.6673   -2.0423 H   0  0  0  0  0  0  0  0  0  0  0  0
    5.5739    0.4777   -0.3678 H   0  0  0  0  0  0  0  0  0  0  0  0
    4.1911   -0.0847   -1.2958 H   0  0  0  0  0  0  0  0  0  0  0  0
    2.0220    2.7891    2.4115 H   0  0  0  0  0  0  0  0  0  0  0  0
    3.3093    4.8922    2.6089 H   0  0  0  0  0  0  0  0  0  0  0  0
    4.6021    5.7485    0.6715 H   0  0  0  0  0  0  0  0  0  0  0  0
    4.5990    4.4983   -1.4722 H   0  0  0  0  0  0  0  0  0  0  0  0
    3.3167    2.3946   -1.6817 H   0  0  0  0  0  0  0  0  0  0  0  0
  1  2  2  0
  2  3  1  0
  3  4  1  0
  5  4  1  6
  5  6  1  0
  6  7  1  0
  7  8  1  0
  8  9  1  0
  9 10  1  0
 10 11  1  0
 11 12  1  0
 11 13  1  0
  9 14  1  0
  2 15  1  0
 15 16  2  0
 16 17  1  0
 17 18  1  0
 18 19  1  0
 19 20  1  0
 20 21  1  0
 21 22  1  0
 22 23  1  0
 23 24  1  0
 17 25  1  0
 25 26  1  0
 26 27  2  0
 27 28  1  0
 28 29  2  0
 29 30  1  0
 30 31  2  0
 25 32  2  0
 32 33  1  0
 13  5  1  0
 32 15  1  0
 14  5  1  0
 24 19  1  0
 31 26  1  0
 12  7  1  0
  3 34  1  0
  4 35  1  0
  4 36  1  0
  6 37  1  0
  6 38  1  0
  7 39  1  1
  8 40  1  0
  8 41  1  0
  9 42  1  1
 10 43  1  0
 10 44  1  0
 11 45  1  6
 12 46  1  0
 12 47  1  0
 13 48  1  0
 13 49  1  0
 14 50  1  0
 14 51  1  0
 16 52  1  0
 18 53  1  0
 18 54  1  0
 19 55  1  0
 20 56  1  0
 20 57  1  0
 21 58  1  0
 21 59  1  0
 22 60  1  0
 22 61  1  0
 23 62  1  0
 23 63  1  0
 24 64  1  0
 24 65  1  0
 27 66  1  0
 28 67  1  0
 29 68  1  0
 30 69  1  0
 31 70  1  0
M  END
>  <_SMILES>  (85) 
O=C(NC[C@]12C[C@H]3C[C@H](C[C@H](C3)C1)C2)c1cn(CC2CCCCC2)c(-c2ccccc2)c1Cl

$$$$

     RDKit          3D

 70 75  0  0  0  0  0  0  0  0999 V2000
    0.8889   -2.3496   -2.3315 C   0  0  0  0  0  0  0  0  0  0  0  0
    1.2317   -1.3650   -1.2620 C   0  0  0  0  0  0  0  0  0  0  0  0
    0.4333   -0.2249   -0.8902 C   0  0  0  0  0  0  0  0  0  0  0  0
   -0.8422    0.1898   -1.4899 C   0  0  0  0  0  0  0  0  0  0  0  0
   -1.2883   -0.3286   -2.5090 O   0  0  0  0  0  0  0  0  0  0  0  0
   -1.5098    1.1903   -0.8152 N   0  0  0  0  0  0  0  0  0  0  0  0
   -2.8067    1.6820   -1.2316 C   0  0  0  0  0  0  0  0  0  0  0  0
   -3.9896    1.0706   -0.4476 C   0  0  2  0  0  0  0  0  0  0  0  0
   -4.0905   -0.4626   -0.6523 C   0  0  0  0  0  0  0  0  0  0  0  0
   -5.3040   -1.0342    0.1025 C   0  0  1  0  0  0  0  0  0  0  0  0
   -5.1538   -0.7323    1.6027 C   0  0  0  0  0  0  0  0  0  0  0  0
   -5.0821    0.7867    1.8299 C   0  0  2  0  0  0  0  0  0  0  0  0
   -6.3672    1.4399    1.2972 C   0  0  0  0  0  0  0  0  0  0  0  0
   -6.5225    1.1469   -0.2034 C   0  0  2  0  0  0  0  0  0  0  0  0
   -6.5879   -0.3727   -0.4220 C   0  0  0  0  0  0  0  0  0  0  0  0
   -5.3080    1.7135   -0.9570 C   0  0  0  0  0  0  0  0  0  0  0  0
   -3.8694    1.3560    1.0720 C   0  0  0  0  0  0  0  0  0  0  0  0
    1.1213    0.4011    0.1365 C   0  0  0  0  0  0  0  0  0  0  0  0
    2.2810   -0.2907    0.3856 N   0  0  0  0  0  0  0  0  0  0  0  0
    3.2521    0.1016    1.3992 C   0  0  0  0  0  0  0  0  0  0  0  0
    4.4113    0.9238    0.8378 C   0  0  0  0  0  0  0  0  0  0  0  0
    5.4684    1.2334    1.8955 C   0  0  0  0  0  0  0  0  0  0  0  0
    6.2800    2.3684    1.2828 C   0  0  0  0  0  0  0  0  0  0  0  0
    5.3331    3.0940    0.3266 C   0  0  0  0  0  0  0  0  0  0  0  0
    4.0172    2.3221    0.3630 C   0  0  0  0  0  0  0  0  0  0  0  0
    2.3607   -1.3845   -0.4480 C   0  0  0  0  0  0  0  0  0  0  0  0
    3.4688   -2.3369   -0.4387 C   0  0  0  0  0  0  0  0  0  0  0  0
    4.4943   -2.2302   -1.3874 C   0  0  0  0  0  0  0  0  0  0  0  0
    5.5525   -3.1401   -1.3813 C   0  0  0  0  0  0  0  0  0  0  0  0
    5.5763   -4.1558   -0.4322 C   0  0  0  0  0  0  0  0  0  0  0  0
    6.5923   -5.0285   -0.4261 F   0  0  0  0  0  0  0  0  0  0  0  0
    4.5607   -4.2820    0.5091 C   0  0  0  0  0  0  0  0  0  0  0  0
    3.5021   -3.3724    0.5045 C   0  0  0  0  0  0  0  0  0  0  0  0
   -0.1095   -2.7659   -2.1625 H   0  0  0  0  0  0  0  0  0  0  0  0
    0.9069   -1.8648   -3.3128 H   0  0  0  0  0  0  0  0  0  0  0  0
    1.5920   -3.1874   -2.3593 H   0  0  0  0  0  0  0  0  0  0  0  0
   -1.1298    1.5234    0.0567 H   0  0  0  0  0  0  0  0  0  0  0  0
   -2.7817    2.7680   -1.0838 H   0  0  0  0  0  0  0  0  0  0  0  0
   -2.9329    1.5047   -2.3061 H   0  0  0  0  0  0  0  0  0  0  0  0
   -3.1828   -0.9610   -0.2910 H   0  0  0  0  0  0  0  0  0  0  0  0
   -4.1777   -0.6965   -1.7210 H   0  0  0  0  0  0  0  0  0  0  0  0
   -5.3572   -2.1176   -0.0524 H   0  0  0  0  0  0  0  0  0  0  0  0
   -6.0019   -1.1540    2.1561 H   0  0  0  0  0  0  0  0  0  0  0  0
   -4.2484   -1.2130    1.9933 H   0  0  0  0  0  0  0  0  0  0  0  0
   -4.9786    0.9954    2.9006 H   0  0  0  0  0  0  0  0  0  0  0  0
   -6.3354    2.5232    1.4668 H   0  0  0  0  0  0  0  0  0  0  0  0
   -7.2369    1.0573    1.8454 H   0  0  0  0  0  0  0  0  0  0  0  0
   -7.4403    1.6138   -0.5779 H   0  0  0  0  0  0  0  0  0  0  0  0
   -6.7145   -0.5933   -1.4890 H   0  0  0  0  0  0  0  0  0  0  0  0
   -7.4616   -0.7882    0.0949 H   0  0  0  0  0  0  0  0  0  0  0  0
   -5.2722    2.8029   -0.8265 H   0  0  0  0  0  0  0  0  0  0  0  0
   -5.4263    1.5301   -2.0329 H   0  0  0  0  0  0  0  0  0  0  0  0
   -3.7985    2.4369    1.2491 H   0  0  0  0  0  0  0  0  0  0  0  0
   -2.9528    0.9090    1.4769 H   0  0  0  0  0  0  0  0  0  0  0  0
    0.8999    1.2971    0.6997 H   0  0  0  0  0  0  0  0  0  0  0  0
    2.7103    0.6615    2.1719 H   0  0  0  0  0  0  0  0  0  0  0  0
    3.6193   -0.8116    1.8795 H   0  0  0  0  0  0  0  0  0  0  0  0
    4.8877    0.3895    0.0059 H   0  0  0  0  0  0  0  0  0  0  0  0
    5.0002    1.5731    2.8277 H   0  0  0  0  0  0  0  0  0  0  0  0
    6.0912    0.3642    2.1288 H   0  0  0  0  0  0  0  0  0  0  0  0
    6.6780    3.0381    2.0516 H   0  0  0  0  0  0  0  0  0  0  0  0
    7.1328    1.9661    0.7237 H   0  0  0  0  0  0  0  0  0  0  0  0
    5.7524    3.0907   -0.6860 H   0  0  0  0  0  0  0  0  0  0  0  0
    5.1858    4.1393    0.6166 H   0  0  0  0  0  0  0  0  0  0  0  0
    3.3316    2.7974    1.0753 H   0  0  0  0  0  0  0  0  0  0  0  0
    3.5288    2.3102   -0.6163 H   0  0  0  0  0  0  0  0  0  0  0  0
    4.4687   -1.4384   -2.1327 H   0  0  0  0  0  0  0  0  0  0  0  0
    6.3523   -3.0654   -2.1107 H   0  0  0  0  0  0  0  0  0  0  0  0
    4.5965   -5.0882    1.2344 H   0  0  0  0  0  0  0  0  0  0  0  0
    2.7005   -3.4756    1.2320 H   0  0  0  0  0  0  0  0  0  0  0  0
  1  2  1  0
  2  3  1  0
  3  4  1  0
  4  5  2  0
  4  6  1  0
  6  7  1  0
  8  7  1  6
  8  9  1  0
  9 10  1  0
 10 11  1  0
 11 12  1  0
 12 13  1  0
 13 14  1  0
 14 15  1  0
 14 16  1  0
 12 17  1  0
  3 18  2  0
 18 19  1  0
 19 20  1  0
 20 21  1  0
 21 22  1  0
 22 23  1  0
 23 24  1  0
 24 25  1  0
 19 26  1  0
 26 27  1  0
 27 28  1  0
 28 29  2  0
 29 30  1  0
 30 31  1  0
 30 32  2  0
 32 33  1  0
 26  2  2  0
 33 27  2  0
 16  8  1  0
 25 21  1  0
 17  8  1  0
 15 10  1  0
  1 34  1  0
  1 35  1  0
  1 36  1  0
  6 37  1  0
  7 38  1  0
  7 39  1  0
  9 40  1  0
  9 41  1  0
 10 42  1  1
 11 43  1  0
 11 44  1  0
 12 45  1  1
 13 46  1  0
 13 47  1  0
 14 48  1  6
 15 49  1  0
 15 50  1  0
 16 51  1  0
 16 52  1  0
 17 53  1  0
 17 54  1  0
 18 55  1  0
 20 56  1  0
 20 57  1  0
 21 58  1  0
 22 59  1  0
 22 60  1  0
 23 61  1  0
 23 62  1  0
 24 63  1  0
 24 64  1  0
 25 65  1  0
 25 66  1  0
 28 67  1  0
 29 68  1  0
 32 69  1  0
 33 70  1  0
M  END
>  <_SMILES>  (86) 
Cc1c(C(=O)NC[C@]23C[C@H]4C[C@H](C[C@H](C4)C2)C3)cn(CC2CCCC2)c1-c1ccc(F)cc1

$$$$

     RDKit          3D

 64 69  0  0  0  0  0  0  0  0999 V2000
   -0.6555    0.3262   -1.4125 C   0  0  0  0  0  0  0  0  0  0  0  0
   -1.4667    0.6914   -0.2146 C   0  0  0  0  0  0  0  0  0  0  0  0
   -0.9788    0.9809    1.1086 C   0  0  0  0  0  0  0  0  0  0  0  0
    0.3848    1.0522    1.6356 C   0  0  0  0  0  0  0  0  0  0  0  0
    0.6531    0.7567    2.7956 O   0  0  0  0  0  0  0  0  0  0  0  0
    1.3185    1.5232    0.7407 N   0  0  0  0  0  0  0  0  0  0  0  0
    2.7148    1.6943    1.0845 C   0  0  0  0  0  0  0  0  0  0  0  0
    3.6389    0.6444    0.4313 C   0  0  2  0  0  0  0  0  0  0  0  0
    3.5815    0.7255   -1.1161 C   0  0  0  0  0  0  0  0  0  0  0  0
    4.5401   -0.2982   -1.7496 C   0  0  1  0  0  0  0  0  0  0  0  0
    5.9756   -0.0038   -1.2863 C   0  0  0  0  0  0  0  0  0  0  0  0
    6.0643   -0.1026    0.2448 C   0  0  2  0  0  0  0  0  0  0  0  0
    5.6604   -1.5178    0.6874 C   0  0  0  0  0  0  0  0  0  0  0  0
    4.2235   -1.8203    0.2338 C   0  0  2  0  0  0  0  0  0  0  0  0
    4.1410   -1.7127   -1.2979 C   0  0  0  0  0  0  0  0  0  0  0  0
    3.2640   -0.7960    0.8650 C   0  0  0  0  0  0  0  0  0  0  0  0
    5.1012    0.9179    0.8741 C   0  0  0  0  0  0  0  0  0  0  0  0
   -2.0979    1.1708    1.8992 C   0  0  0  0  0  0  0  0  0  0  0  0
   -3.2222    1.0457    1.1259 N   0  0  0  0  0  0  0  0  0  0  0  0
   -4.5840    1.2240    1.6328 C   0  0  0  0  0  0  0  0  0  0  0  0
   -5.2375   -0.0856    1.9638 C   0  0  0  0  0  0  0  0  0  0  0  0
   -4.7168   -1.1852    2.6221 C   0  0  0  0  0  0  0  0  0  0  0  0
   -5.6627   -2.2426    2.7511 C   0  0  0  0  0  0  0  0  0  0  0  0
   -6.8800   -1.9146    2.1999 C   0  0  0  0  0  0  0  0  0  0  0  0
   -6.8807   -0.3403    1.5361 S   0  0  0  0  0  0  0  0  0  0  0  0
   -2.8574    0.7791   -0.1774 C   0  0  0  0  0  0  0  0  0  0  0  0
   -3.8183    0.5970   -1.2630 C   0  0  0  0  0  0  0  0  0  0  0  0
   -4.1263    1.6644   -2.1132 C   0  0  0  0  0  0  0  0  0  0  0  0
   -5.0459    1.4940   -3.1495 C   0  0  0  0  0  0  0  0  0  0  0  0
   -5.6581    0.2559   -3.3422 C   0  0  0  0  0  0  0  0  0  0  0  0
   -5.3491   -0.8136   -2.5025 C   0  0  0  0  0  0  0  0  0  0  0  0
   -4.4284   -0.6449   -1.4672 C   0  0  0  0  0  0  0  0  0  0  0  0
    0.2021   -0.2915   -1.1287 H   0  0  0  0  0  0  0  0  0  0  0  0
   -1.2399   -0.2523   -2.1349 H   0  0  0  0  0  0  0  0  0  0  0  0
   -0.2919    1.2277   -1.9152 H   0  0  0  0  0  0  0  0  0  0  0  0
    0.9897    1.8872   -0.1412 H   0  0  0  0  0  0  0  0  0  0  0  0
    2.8299    1.6719    2.1743 H   0  0  0  0  0  0  0  0  0  0  0  0
    2.9933    2.7011    0.7520 H   0  0  0  0  0  0  0  0  0  0  0  0
    2.5638    0.5329   -1.4757 H   0  0  0  0  0  0  0  0  0  0  0  0
    3.8477    1.7361   -1.4516 H   0  0  0  0  0  0  0  0  0  0  0  0
    4.4834   -0.2296   -2.8417 H   0  0  0  0  0  0  0  0  0  0  0  0
    6.2781    0.9978   -1.6158 H   0  0  0  0  0  0  0  0  0  0  0  0
    6.6717   -0.7145   -1.7485 H   0  0  0  0  0  0  0  0  0  0  0  0
    7.0893    0.1076    0.5698 H   0  0  0  0  0  0  0  0  0  0  0  0
    5.7356   -1.6056    1.7782 H   0  0  0  0  0  0  0  0  0  0  0  0
    6.3511   -2.2553    0.2604 H   0  0  0  0  0  0  0  0  0  0  0  0
    3.9422   -2.8314    0.5486 H   0  0  0  0  0  0  0  0  0  0  0  0
    4.8034   -2.4543   -1.7612 H   0  0  0  0  0  0  0  0  0  0  0  0
    3.1225   -1.9407   -1.6355 H   0  0  0  0  0  0  0  0  0  0  0  0
    3.2989   -0.8824    1.9585 H   0  0  0  0  0  0  0  0  0  0  0  0
    2.2377   -1.0364    0.5614 H   0  0  0  0  0  0  0  0  0  0  0  0
    5.4008    1.9329    0.5824 H   0  0  0  0  0  0  0  0  0  0  0  0
    5.1802    0.8694    1.9679 H   0  0  0  0  0  0  0  0  0  0  0  0
   -2.1667    1.3872    2.9584 H   0  0  0  0  0  0  0  0  0  0  0  0
   -4.5200    1.8438    2.5353 H   0  0  0  0  0  0  0  0  0  0  0  0
   -5.1390    1.7990    0.8835 H   0  0  0  0  0  0  0  0  0  0  0  0
   -3.6971   -1.2362    2.9879 H   0  0  0  0  0  0  0  0  0  0  0  0
   -5.4590   -3.1946    3.2258 H   0  0  0  0  0  0  0  0  0  0  0  0
   -7.7732   -2.5226    2.1577 H   0  0  0  0  0  0  0  0  0  0  0  0
   -3.6521    2.6321   -1.9701 H   0  0  0  0  0  0  0  0  0  0  0  0
   -5.2846    2.3264   -3.8060 H   0  0  0  0  0  0  0  0  0  0  0  0
   -6.3755    0.1235   -4.1479 H   0  0  0  0  0  0  0  0  0  0  0  0
   -5.8250   -1.7792   -2.6513 H   0  0  0  0  0  0  0  0  0  0  0  0
   -4.1926   -1.4842   -0.8169 H   0  0  0  0  0  0  0  0  0  0  0  0
  1  2  1  0
  2  3  1  0
  3  4  1  0
  4  5  2  0
  4  6  1  0
  6  7  1  0
  8  7  1  1
  8  9  1  0
  9 10  1  0
 10 11  1  0
 11 12  1  0
 12 13  1  0
 13 14  1  0
 14 15  1  0
 14 16  1  0
 12 17  1  0
  3 18  2  0
 18 19  1  0
 19 20  1  0
 20 21  1  0
 21 22  2  0
 22 23  1  0
 23 24  2  0
 24 25  1  0
 19 26  1  0
 26 27  1  0
 27 28  2  0
 28 29  1  0
 29 30  2  0
 30 31  1  0
 31 32  2  0
 26  2  2  0
 32 27  1  0
 16  8  1  0
 25 21  1  0
 17  8  1  0
 15 10  1  0
  1 33  1  0
  1 34  1  0
  1 35  1  0
  6 36  1  0
  7 37  1  0
  7 38  1  0
  9 39  1  0
  9 40  1  0
 10 41  1  6
 11 42  1  0
 11 43  1  0
 12 44  1  1
 13 45  1  0
 13 46  1  0
 14 47  1  6
 15 48  1  0
 15 49  1  0
 16 50  1  0
 16 51  1  0
 17 52  1  0
 17 53  1  0
 18 54  1  0
 20 55  1  0
 20 56  1  0
 22 57  1  0
 23 58  1  0
 24 59  1  0
 28 60  1  0
 29 61  1  0
 30 62  1  0
 31 63  1  0
 32 64  1  0
M  END
>  <_SMILES>  (87) 
Cc1c(C(=O)NC[C@]23C[C@H]4C[C@H](C[C@H](C4)C2)C3)cn(Cc2cccs2)c1-c1ccccc1

$$$$

     RDKit          3D

 36 37  0  0  0  0  0  0  0  0999 V2000
    0.6613    0.7918   -0.5684 O   0  0  0  0  0  0  0  0  0  0  0  0
    1.5008    0.0414   -0.0806 C   0  0  0  0  0  0  0  0  0  0  0  0
    1.1358   -1.0340    0.7091 N   0  0  0  0  0  0  0  0  0  0  0  0
   -0.2674   -1.3826    0.8477 C   0  0  0  0  0  0  0  0  0  0  0  0
   -1.0828   -0.3496    1.6575 C   0  0  0  0  0  0  0  0  0  0  0  0
   -2.4060    0.0183    1.0311 N   0  0  0  0  0  0  0  0  0  0  0  0
   -2.2944    0.8611   -0.2298 C   0  0  0  0  0  0  0  0  0  0  0  0
   -3.6803    1.4435   -0.5673 C   0  0  0  0  0  0  0  0  0  0  0  0
   -4.7570    0.7223    0.0548 O   0  0  0  0  0  0  0  0  0  0  0  0
   -4.5637   -0.6917   -0.0295 C   0  0  0  0  0  0  0  0  0  0  0  0
   -3.3956   -1.1221    0.8700 C   0  0  0  0  0  0  0  0  0  0  0  0
    2.9535    0.2358   -0.3401 C   0  0  0  0  0  0  0  0  0  0  0  0
    3.3334    0.9330   -1.4951 C   0  0  0  0  0  0  0  0  0  0  0  0
    4.6855    1.1423   -1.7788 C   0  0  0  0  0  0  0  0  0  0  0  0
    5.6571    0.6628   -0.9027 C   0  0  0  0  0  0  0  0  0  0  0  0
    7.4859    0.9466   -1.2832 Br  0  0  0  0  0  0  0  0  0  0  0  0
    5.2897   -0.0188    0.2572 C   0  0  0  0  0  0  0  0  0  0  0  0
    3.9370   -0.2306    0.5429 C   0  0  0  0  0  0  0  0  0  0  0  0
    1.8247   -1.7664    0.8495 H   0  0  0  0  0  0  0  0  0  0  0  0
   -0.6654   -1.5243   -0.1623 H   0  0  0  0  0  0  0  0  0  0  0  0
   -0.3031   -2.3520    1.3566 H   0  0  0  0  0  0  0  0  0  0  0  0
   -0.5417    0.5894    1.8158 H   0  0  0  0  0  0  0  0  0  0  0  0
   -1.3205   -0.7577    2.6467 H   0  0  0  0  0  0  0  0  0  0  0  0
   -2.8673    0.6578    1.6948 H   0  0  0  0  0  0  0  0  0  0  0  0
   -1.5816    1.6695   -0.0473 H   0  0  0  0  0  0  0  0  0  0  0  0
   -1.9361    0.2079   -1.0310 H   0  0  0  0  0  0  0  0  0  0  0  0
   -3.8358    1.4627   -1.6516 H   0  0  0  0  0  0  0  0  0  0  0  0
   -3.7455    2.4772   -0.2118 H   0  0  0  0  0  0  0  0  0  0  0  0
   -5.4844   -1.1903    0.2894 H   0  0  0  0  0  0  0  0  0  0  0  0
   -4.3830   -0.9743   -1.0737 H   0  0  0  0  0  0  0  0  0  0  0  0
   -2.8845   -1.9961    0.4569 H   0  0  0  0  0  0  0  0  0  0  0  0
   -3.7478   -1.3539    1.8806 H   0  0  0  0  0  0  0  0  0  0  0  0
    2.5813    1.3150   -2.1828 H   0  0  0  0  0  0  0  0  0  0  0  0
    4.9694    1.6809   -2.6802 H   0  0  0  0  0  0  0  0  0  0  0  0
    6.0499   -0.3794    0.9470 H   0  0  0  0  0  0  0  0  0  0  0  0
    3.6784   -0.7352    1.4691 H   0  0  0  0  0  0  0  0  0  0  0  0
  1  2  2  0
  2  3  1  0
  3  4  1  0
  4  5  1  0
  5  6  1  0
  6  7  1  0
  7  8  1  0
  8  9  1  0
  9 10  1  0
 10 11  1  0
  2 12  1  0
 12 13  1  0
 13 14  2  0
 14 15  1  0
 15 16  1  0
 15 17  2  0
 17 18  1  0
 11  6  1  0
 18 12  2  0
  3 19  1  0
  4 20  1  0
  4 21  1  0
  5 22  1  0
  5 23  1  0
  6 24  1  0
  7 25  1  0
  7 26  1  0
  8 27  1  0
  8 28  1  0
 10 29  1  0
 10 30  1  0
 11 31  1  0
 11 32  1  0
 13 33  1  0
 14 34  1  0
 17 35  1  0
 18 36  1  0
M  CHG  1   6   1
M  END
>  <_SMILES>  (88) 
O=C(NCC[NH+]1CCOCC1)c1ccc(Br)cc1

$$$$

     RDKit          3D

 61 64  0  0  0  0  0  0  0  0999 V2000
    9.1640    0.2681    0.1945 C   0  0  0  0  0  0  0  0  0  0  0  0
    8.0338    0.9855   -0.5304 C   0  0  0  0  0  0  0  0  0  0  0  0
    6.6403    0.6334    0.0189 C   0  0  1  0  0  0  0  0  0  0  0  0
    5.5601    1.4801   -0.6640 C   0  0  0  0  0  0  0  0  0  0  0  0
    4.1779    1.2605   -0.0416 C   0  0  0  0  0  0  0  0  0  0  0  0
    3.9916   -0.1391    0.5670 C   0  0  1  0  0  0  0  0  0  0  0  0
    2.5849   -0.5142    0.5754 N   0  0  0  0  0  0  0  0  0  0  0  0
    1.7114   -0.0309    1.5293 C   0  0  0  0  0  0  0  0  0  0  0  0
    2.0707    0.6589    2.4776 O   0  0  0  0  0  0  0  0  0  0  0  0
    0.2619   -0.4320    1.2900 C   0  0  1  0  0  0  0  0  0  0  0  0
   -0.6071   -0.1422    2.5166 C   0  0  0  0  0  0  0  0  0  0  0  0
   -2.0254   -0.6627    2.2992 C   0  0  0  0  0  0  0  0  0  0  0  0
   -2.6039   -0.2660    0.9635 C   0  0  0  0  0  0  0  0  0  0  0  0
   -3.9903   -0.3823    0.7607 C   0  0  0  0  0  0  0  0  0  0  0  0
   -4.5874   -0.0487   -0.4661 C   0  0  0  0  0  0  0  0  0  0  0  0
   -6.0415   -0.1699   -0.6607 C   0  0  0  0  0  0  0  0  0  0  0  0
   -6.8055    0.9202   -1.1058 C   0  0  0  0  0  0  0  0  0  0  0  0
   -8.1874    0.8070   -1.2907 C   0  0  0  0  0  0  0  0  0  0  0  0
   -8.8385   -0.4055   -1.0457 C   0  0  0  0  0  0  0  0  0  0  0  0
  -10.3247   -0.5187   -1.2112 C   0  0  0  0  0  0  0  0  0  0  0  0
   -8.0902   -1.4942   -0.5883 C   0  0  0  0  0  0  0  0  0  0  0  0
   -6.7087   -1.3776   -0.4031 C   0  0  0  0  0  0  0  0  0  0  0  0
   -3.7552    0.4047   -1.4986 C   0  0  0  0  0  0  0  0  0  0  0  0
   -2.3743    0.5137   -1.3153 C   0  0  0  0  0  0  0  0  0  0  0  0
   -1.7862    0.1672   -0.0922 C   0  0  0  0  0  0  0  0  0  0  0  0
   -0.2940    0.3228    0.0763 C   0  0  0  0  0  0  0  0  0  0  0  0
    4.8224   -1.1781   -0.1836 C   0  0  0  0  0  0  0  0  0  0  0  0
    6.3208   -0.8672   -0.1255 C   0  0  0  0  0  0  0  0  0  0  0  0
    9.1129   -0.8147    0.0465 H   0  0  0  0  0  0  0  0  0  0  0  0
   10.1314    0.6103   -0.1868 H   0  0  0  0  0  0  0  0  0  0  0  0
    9.1323    0.4725    1.2694 H   0  0  0  0  0  0  0  0  0  0  0  0
    8.0868    0.7517   -1.6007 H   0  0  0  0  0  0  0  0  0  0  0  0
    8.1961    2.0663   -0.4356 H   0  0  0  0  0  0  0  0  0  0  0  0
    6.6310    0.8832    1.0893 H   0  0  0  0  0  0  0  0  0  0  0  0
    5.8098    2.5466   -0.6114 H   0  0  0  0  0  0  0  0  0  0  0  0
    5.5187    1.2246   -1.7310 H   0  0  0  0  0  0  0  0  0  0  0  0
    3.4175    1.4582   -0.8084 H   0  0  0  0  0  0  0  0  0  0  0  0
    4.0084    2.0088    0.7432 H   0  0  0  0  0  0  0  0  0  0  0  0
    4.3299   -0.1135    1.6114 H   0  0  0  0  0  0  0  0  0  0  0  0
    2.2083   -0.9679   -0.2466 H   0  0  0  0  0  0  0  0  0  0  0  0
    0.2434   -1.5139    1.0975 H   0  0  0  0  0  0  0  0  0  0  0  0
   -0.1811   -0.6085    3.4132 H   0  0  0  0  0  0  0  0  0  0  0  0
   -0.6349    0.9388    2.7098 H   0  0  0  0  0  0  0  0  0  0  0  0
   -2.6647   -0.2892    3.1081 H   0  0  0  0  0  0  0  0  0  0  0  0
   -2.0232   -1.7584    2.3573 H   0  0  0  0  0  0  0  0  0  0  0  0
   -4.6182   -0.7260    1.5818 H   0  0  0  0  0  0  0  0  0  0  0  0
   -6.3273    1.8785   -1.2984 H   0  0  0  0  0  0  0  0  0  0  0  0
   -8.7500    1.6755   -1.6257 H   0  0  0  0  0  0  0  0  0  0  0  0
  -10.6101   -1.5384   -1.4906 H   0  0  0  0  0  0  0  0  0  0  0  0
  -10.6812    0.1467   -2.0045 H   0  0  0  0  0  0  0  0  0  0  0  0
  -10.8266   -0.2545   -0.2754 H   0  0  0  0  0  0  0  0  0  0  0  0
   -8.5753   -2.4440   -0.3749 H   0  0  0  0  0  0  0  0  0  0  0  0
   -6.1501   -2.2468   -0.0616 H   0  0  0  0  0  0  0  0  0  0  0  0
   -4.1797    0.6680   -2.4653 H   0  0  0  0  0  0  0  0  0  0  0  0
   -1.7598    0.8715   -2.1386 H   0  0  0  0  0  0  0  0  0  0  0  0
   -0.0699    1.3942    0.1655 H   0  0  0  0  0  0  0  0  0  0  0  0
    0.2064   -0.0331   -0.8330 H   0  0  0  0  0  0  0  0  0  0  0  0
    4.5014   -1.2127   -1.2335 H   0  0  0  0  0  0  0  0  0  0  0  0
    4.6428   -2.1830    0.2182 H   0  0  0  0  0  0  0  0  0  0  0  0
    6.7924   -1.2822   -1.0249 H   0  0  0  0  0  0  0  0  0  0  0  0
    6.7633   -1.4011    0.7251 H   0  0  0  0  0  0  0  0  0  0  0  0
  1  2  1  0
  2  3  1  0
  3  4  1  0
  4  5  1  0
  5  6  1  0
  6  7  1  0
  7  8  1  0
  8  9  2  0
  8 10  1  0
 10 11  1  0
 11 12  1  0
 12 13  1  0
 13 14  1  0
 14 15  2  0
 15 16  1  0
 16 17  1  0
 17 18  2  0
 18 19  1  0
 19 20  1  0
 19 21  2  0
 21 22  1  0
 15 23  1  0
 23 24  2  0
 24 25  1  0
 25 26  1  0
  6 27  1  0
 27 28  1  0
 28  3  1  0
 26 10  1  0
 25 13  2  0
 22 16  2  0
  1 29  1  0
  1 30  1  0
  1 31  1  0
  2 32  1  0
  2 33  1  0
  3 34  1  1
  4 35  1  0
  4 36  1  0
  5 37  1  0
  5 38  1  0
  6 39  1  1
  7 40  1  0
 10 41  1  6
 11 42  1  0
 11 43  1  0
 12 44  1  0
 12 45  1  0
 14 46  1  0
 17 47  1  0
 18 48  1  0
 20 49  1  0
 20 50  1  0
 20 51  1  0
 21 52  1  0
 22 53  1  0
 23 54  1  0
 24 55  1  0
 26 56  1  0
 26 57  1  0
 27 58  1  0
 27 59  1  0
 28 60  1  0
 28 61  1  0
M  END
>  <_SMILES>  (89) 
CC[C@H]1CC[C@@H](NC(=O)[C@H]2CCc3cc(-c4ccc(C)cc4)ccc3C2)CC1

$$$$

     RDKit          3D

 63 65  0  0  0  0  0  0  0  0999 V2000
    3.4213   -2.5073   -2.5675 C   0  0  0  0  0  0  0  0  0  0  0  0
    2.7301   -2.1578   -1.2406 C   0  0  0  0  0  0  0  0  0  0  0  0
    2.6630   -3.4133   -0.3717 C   0  0  0  0  0  0  0  0  0  0  0  0
    1.3796   -1.4337   -1.5036 C   0  0  1  0  0  0  0  0  0  0  0  0
    0.2670   -2.3188   -2.0830 C   0  0  0  0  0  0  0  0  0  0  0  0
   -0.5291   -2.8404   -0.8900 C   0  0  0  0  0  0  0  0  0  0  0  0
   -0.2901   -1.8479    0.2545 C   0  0  2  0  0  0  0  0  0  0  0  0
   -1.5812   -1.2411    0.7962 C   0  0  0  0  0  0  0  0  0  0  0  0
   -1.8421   -1.2643    1.9959 O   0  0  0  0  0  0  0  0  0  0  0  0
   -2.3938   -0.6467   -0.1429 N   0  0  0  0  0  0  0  0  0  0  0  0
   -3.5889    0.1138    0.2162 C   0  0  2  0  0  0  0  0  0  0  0  0
   -4.7314   -0.2363   -0.7547 C   0  0  0  0  0  0  0  0  0  0  0  0
   -4.7703    0.7028   -1.9537 C   0  0  0  0  0  0  0  0  0  0  0  0
   -5.0041    2.1524   -1.5276 C   0  0  0  0  0  0  0  0  0  0  0  0
   -4.4879    2.4674   -0.1218 C   0  0  0  0  0  0  0  0  0  0  0  0
   -3.2548    1.6290    0.2325 C   0  0  1  0  0  0  0  0  0  0  0  0
   -2.6811    2.0630    1.5832 C   0  0  0  0  0  0  0  0  0  0  0  0
    0.6638   -0.7709   -0.3033 C   0  0  1  0  0  0  0  0  0  0  0  0
    1.5408   -0.1380    0.7854 C   0  0  0  0  0  0  0  0  0  0  0  0
    2.3108    1.0854    0.2761 C   0  0  0  0  0  0  0  0  0  0  0  0
    3.1885    1.6752    1.3521 C   0  0  0  0  0  0  0  0  0  0  0  0
    2.6615    2.5876    2.2769 C   0  0  0  0  0  0  0  0  0  0  0  0
    3.4688    3.1207    3.2837 C   0  0  0  0  0  0  0  0  0  0  0  0
    4.8058    2.7392    3.3716 C   0  0  0  0  0  0  0  0  0  0  0  0
    5.8998    3.4601    4.7345 Br  0  0  0  0  0  0  0  0  0  0  0  0
    5.3420    1.8279    2.4643 C   0  0  0  0  0  0  0  0  0  0  0  0
    4.5335    1.2950    1.4581 C   0  0  0  0  0  0  0  0  0  0  0  0
    2.8662   -3.2633   -3.1312 H   0  0  0  0  0  0  0  0  0  0  0  0
    4.4271   -2.9018   -2.3851 H   0  0  0  0  0  0  0  0  0  0  0  0
    3.5270   -1.6190   -3.1992 H   0  0  0  0  0  0  0  0  0  0  0  0
    3.3991   -1.4527   -0.7341 H   0  0  0  0  0  0  0  0  0  0  0  0
    2.2252   -3.2082    0.6073 H   0  0  0  0  0  0  0  0  0  0  0  0
    3.6716   -3.8034   -0.1920 H   0  0  0  0  0  0  0  0  0  0  0  0
    2.0920   -4.2120   -0.8540 H   0  0  0  0  0  0  0  0  0  0  0  0
    1.5963   -0.6401   -2.2328 H   0  0  0  0  0  0  0  0  0  0  0  0
    0.6292   -3.1323   -2.7168 H   0  0  0  0  0  0  0  0  0  0  0  0
   -0.3941   -1.7002   -2.7040 H   0  0  0  0  0  0  0  0  0  0  0  0
   -1.5841   -2.9756   -1.1503 H   0  0  0  0  0  0  0  0  0  0  0  0
   -0.1606   -3.8296   -0.5967 H   0  0  0  0  0  0  0  0  0  0  0  0
    0.1765   -2.3850    1.0896 H   0  0  0  0  0  0  0  0  0  0  0  0
   -2.0716   -0.5889   -1.0995 H   0  0  0  0  0  0  0  0  0  0  0  0
   -3.9050   -0.2070    1.2166 H   0  0  0  0  0  0  0  0  0  0  0  0
   -5.6885   -0.1587   -0.2223 H   0  0  0  0  0  0  0  0  0  0  0  0
   -4.6491   -1.2756   -1.0948 H   0  0  0  0  0  0  0  0  0  0  0  0
   -3.8229    0.6313   -2.5024 H   0  0  0  0  0  0  0  0  0  0  0  0
   -5.5573    0.3950   -2.6515 H   0  0  0  0  0  0  0  0  0  0  0  0
   -4.5226    2.8147   -2.2573 H   0  0  0  0  0  0  0  0  0  0  0  0
   -6.0756    2.3832   -1.5671 H   0  0  0  0  0  0  0  0  0  0  0  0
   -4.2633    3.5387   -0.0547 H   0  0  0  0  0  0  0  0  0  0  0  0
   -5.2841    2.2725    0.6087 H   0  0  0  0  0  0  0  0  0  0  0  0
   -2.4850    1.8376   -0.5244 H   0  0  0  0  0  0  0  0  0  0  0  0
   -2.4511    3.1338    1.5801 H   0  0  0  0  0  0  0  0  0  0  0  0
   -3.3901    1.8732    2.3960 H   0  0  0  0  0  0  0  0  0  0  0  0
   -1.7524    1.5296    1.8074 H   0  0  0  0  0  0  0  0  0  0  0  0
    0.0571    0.0471   -0.7187 H   0  0  0  0  0  0  0  0  0  0  0  0
    2.2317   -0.8771    1.2066 H   0  0  0  0  0  0  0  0  0  0  0  0
    0.8979    0.1750    1.6190 H   0  0  0  0  0  0  0  0  0  0  0  0
    1.6078    1.8519   -0.0745 H   0  0  0  0  0  0  0  0  0  0  0  0
    2.9277    0.8287   -0.5926 H   0  0  0  0  0  0  0  0  0  0  0  0
    1.6164    2.8848    2.2204 H   0  0  0  0  0  0  0  0  0  0  0  0
    3.0452    3.8266    3.9928 H   0  0  0  0  0  0  0  0  0  0  0  0
    6.3831    1.5245    2.5326 H   0  0  0  0  0  0  0  0  0  0  0  0
    4.9591    0.5793    0.7583 H   0  0  0  0  0  0  0  0  0  0  0  0
  1  2  1  0
  2  3  1  0
  2  4  1  0
  4  5  1  0
  5  6  1  0
  6  7  1  0
  7  8  1  0
  8  9  2  0
  8 10  1  0
 10 11  1  0
 11 12  1  0
 12 13  1  0
 13 14  1  0
 14 15  1  0
 15 16  1  0
 16 17  1  0
  7 18  1  0
 18 19  1  0
 19 20  1  0
 20 21  1  0
 21 22  1  0
 22 23  2  0
 23 24  1  0
 24 25  1  0
 24 26  2  0
 26 27  1  0
 18  4  1  0
 27 21  2  0
 16 11  1  0
  1 28  1  0
  1 29  1  0
  1 30  1  0
  2 31  1  0
  3 32  1  0
  3 33  1  0
  3 34  1  0
  4 35  1  6
  5 36  1  0
  5 37  1  0
  6 38  1  0
  6 39  1  0
  7 40  1  1
 10 41  1  0
 11 42  1  1
 12 43  1  0
 12 44  1  0
 13 45  1  0
 13 46  1  0
 14 47  1  0
 14 48  1  0
 15 49  1  0
 15 50  1  0
 16 51  1  6
 17 52  1  0
 17 53  1  0
 17 54  1  0
 18 55  1  6
 19 56  1  0
 19 57  1  0
 20 58  1  0
 20 59  1  0
 22 60  1  0
 23 61  1  0
 26 62  1  0
 27 63  1  0
M  END
>  <_SMILES>  (90) 
CC(C)[C@H]1CC[C@H](C(=O)N[C@@H]2CCCC[C@H]2C)[C@H]1CCc1ccc(Br)cc1

$$$$

     RDKit          3D

 63 65  0  0  0  0  0  0  0  0999 V2000
    3.5845   -4.3708   -0.2376 C   0  0  0  0  0  0  0  0  0  0  0  0
    3.2846   -2.8655   -0.1331 C   0  0  0  0  0  0  0  0  0  0  0  0
    3.9822   -2.3404    1.1239 C   0  0  0  0  0  0  0  0  0  0  0  0
    1.7585   -2.6322   -0.2212 C   0  0  1  0  0  0  0  0  0  0  0  0
    0.9503   -2.8099    1.0752 C   0  0  0  0  0  0  0  0  0  0  0  0
   -0.3753   -2.0724    0.8370 C   0  0  0  0  0  0  0  0  0  0  0  0
   -0.2903   -1.5162   -0.5873 C   0  0  1  0  0  0  0  0  0  0  0  0
   -1.1848   -0.3251   -0.9168 C   0  0  0  0  0  0  0  0  0  0  0  0
   -0.8242    0.5907   -1.6508 O   0  0  0  0  0  0  0  0  0  0  0  0
   -2.4666   -0.4195   -0.4170 N   0  0  0  0  0  0  0  0  0  0  0  0
   -3.4300    0.6636   -0.5775 C   0  0  2  0  0  0  0  0  0  0  0  0
   -3.1340    1.7763    0.4487 C   0  0  0  0  0  0  0  0  0  0  0  0
   -4.3658    2.5775    0.8687 C   0  0  0  0  0  0  0  0  0  0  0  0
   -5.3784    2.6787   -0.2591 C   0  0  0  0  0  0  0  0  0  0  0  0
   -5.8860    1.3037   -0.6949 C   0  0  0  0  0  0  0  0  0  0  0  0
   -4.8812    0.1581   -0.4582 C   0  0  1  0  0  0  0  0  0  0  0  0
   -5.1850   -0.9972   -1.4174 C   0  0  0  0  0  0  0  0  0  0  0  0
    1.2310   -1.2897   -0.7967 C   0  0  1  0  0  0  0  0  0  0  0  0
    1.7564   -0.0198   -0.0873 C   0  0  0  0  0  0  0  0  0  0  0  0
    2.9471    0.6063   -0.8249 C   0  0  0  0  0  0  0  0  0  0  0  0
    3.4224    1.8699   -0.1478 C   0  0  0  0  0  0  0  0  0  0  0  0
    4.5526    1.8563    0.6802 C   0  0  0  0  0  0  0  0  0  0  0  0
    4.9785    3.0255    1.3146 C   0  0  0  0  0  0  0  0  0  0  0  0
    4.2728    4.2119    1.1246 C   0  0  0  0  0  0  0  0  0  0  0  0
    4.8487    5.7937    1.9853 Br  0  0  0  0  0  0  0  0  0  0  0  0
    3.1455    4.2408    0.3070 C   0  0  0  0  0  0  0  0  0  0  0  0
    2.7213    3.0714   -0.3267 C   0  0  0  0  0  0  0  0  0  0  0  0
    3.1347   -4.9257    0.5927 H   0  0  0  0  0  0  0  0  0  0  0  0
    3.1949   -4.7839   -1.1741 H   0  0  0  0  0  0  0  0  0  0  0  0
    4.6643   -4.5555   -0.2237 H   0  0  0  0  0  0  0  0  0  0  0  0
    3.7494   -2.3937   -1.0073 H   0  0  0  0  0  0  0  0  0  0  0  0
    5.0651   -2.4915    1.0449 H   0  0  0  0  0  0  0  0  0  0  0  0
    3.6502   -2.8684    2.0237 H   0  0  0  0  0  0  0  0  0  0  0  0
    3.8253   -1.2736    1.2774 H   0  0  0  0  0  0  0  0  0  0  0  0
    1.3851   -3.3971   -0.9219 H   0  0  0  0  0  0  0  0  0  0  0  0
    0.7822   -3.8701    1.2921 H   0  0  0  0  0  0  0  0  0  0  0  0
    1.4462   -2.3710    1.9460 H   0  0  0  0  0  0  0  0  0  0  0  0
   -0.5018   -1.2709    1.5744 H   0  0  0  0  0  0  0  0  0  0  0  0
   -1.2250   -2.7547    0.9486 H   0  0  0  0  0  0  0  0  0  0  0  0
   -0.6143   -2.3079   -1.2805 H   0  0  0  0  0  0  0  0  0  0  0  0
   -2.6612   -1.1147    0.2904 H   0  0  0  0  0  0  0  0  0  0  0  0
   -3.2914    1.0805   -1.5845 H   0  0  0  0  0  0  0  0  0  0  0  0
   -2.6698    1.3615    1.3530 H   0  0  0  0  0  0  0  0  0  0  0  0
   -2.3866    2.4558    0.0188 H   0  0  0  0  0  0  0  0  0  0  0  0
   -4.8364    2.0964    1.7354 H   0  0  0  0  0  0  0  0  0  0  0  0
   -4.0591    3.5775    1.1957 H   0  0  0  0  0  0  0  0  0  0  0  0
   -6.2258    3.3038    0.0448 H   0  0  0  0  0  0  0  0  0  0  0  0
   -4.9125    3.1815   -1.1161 H   0  0  0  0  0  0  0  0  0  0  0  0
   -6.1685    1.3632   -1.7537 H   0  0  0  0  0  0  0  0  0  0  0  0
   -6.8098    1.0694   -0.1504 H   0  0  0  0  0  0  0  0  0  0  0  0
   -5.0300   -0.2220    0.5625 H   0  0  0  0  0  0  0  0  0  0  0  0
   -4.9927   -0.7101   -2.4568 H   0  0  0  0  0  0  0  0  0  0  0  0
   -4.5732   -1.8758   -1.1896 H   0  0  0  0  0  0  0  0  0  0  0  0
   -6.2347   -1.2999   -1.3374 H   0  0  0  0  0  0  0  0  0  0  0  0
    1.4395   -1.2271   -1.8719 H   0  0  0  0  0  0  0  0  0  0  0  0
    0.9714    0.7407   -0.0259 H   0  0  0  0  0  0  0  0  0  0  0  0
    2.0128   -0.2236    0.9569 H   0  0  0  0  0  0  0  0  0  0  0  0
    2.6642    0.8479   -1.8576 H   0  0  0  0  0  0  0  0  0  0  0  0
    3.7781   -0.1020   -0.9007 H   0  0  0  0  0  0  0  0  0  0  0  0
    5.1095    0.9354    0.8360 H   0  0  0  0  0  0  0  0  0  0  0  0
    5.8578    2.9992    1.9523 H   0  0  0  0  0  0  0  0  0  0  0  0
    2.5904    5.1624    0.1565 H   0  0  0  0  0  0  0  0  0  0  0  0
    1.8366    3.0981   -0.9612 H   0  0  0  0  0  0  0  0  0  0  0  0
  1  2  1  0
  2  3  1  0
  2  4  1  0
  4  5  1  0
  5  6  1  0
  6  7  1  0
  7  8  1  0
  8  9  2  0
  8 10  1  0
 10 11  1  0
 11 12  1  0
 12 13  1  0
 13 14  1  0
 14 15  1  0
 15 16  1  0
 16 17  1  0
  7 18  1  0
 18 19  1  0
 19 20  1  0
 20 21  1  0
 21 22  1  0
 22 23  2  0
 23 24  1  0
 24 25  1  0
 24 26  2  0
 26 27  1  0
 18  4  1  0
 27 21  2  0
 16 11  1  0
  1 28  1  0
  1 29  1  0
  1 30  1  0
  2 31  1  0
  3 32  1  0
  3 33  1  0
  3 34  1  0
  4 35  1  6
  5 36  1  0
  5 37  1  0
  6 38  1  0
  6 39  1  0
  7 40  1  6
 10 41  1  0
 11 42  1  6
 12 43  1  0
 12 44  1  0
 13 45  1  0
 13 46  1  0
 14 47  1  0
 14 48  1  0
 15 49  1  0
 15 50  1  0
 16 51  1  1
 17 52  1  0
 17 53  1  0
 17 54  1  0
 18 55  1  6
 19 56  1  0
 19 57  1  0
 20 58  1  0
 20 59  1  0
 22 60  1  0
 23 61  1  0
 26 62  1  0
 27 63  1  0
M  END
>  <_SMILES>  (91) 
CC(C)[C@H]1CC[C@@H](C(=O)N[C@@H]2CCCC[C@H]2C)[C@H]1CCc1ccc(Br)cc1

$$$$

     RDKit          3D

 42 44  0  0  0  0  0  0  0  0999 V2000
    8.5513   -0.5762    1.0433 C   0  0  0  0  0  0  0  0  0  0  0  0
    7.7983   -0.4085   -0.1515 O   0  0  0  0  0  0  0  0  0  0  0  0
    6.4531   -0.2087   -0.0127 C   0  0  0  0  0  0  0  0  0  0  0  0
    5.7604   -0.0475   -1.2158 C   0  0  0  0  0  0  0  0  0  0  0  0
    4.3782    0.1647   -1.2242 C   0  0  0  0  0  0  0  0  0  0  0  0
    3.6717    0.2177   -0.0176 C   0  0  0  0  0  0  0  0  0  0  0  0
    2.2013    0.4393    0.0410 C   0  0  0  0  0  0  0  0  0  0  0  0
    1.5675    0.4823    1.0837 O   0  0  0  0  0  0  0  0  0  0  0  0
    1.6874    0.5732   -1.2064 O   0  0  0  0  0  0  0  0  0  0  0  0
    0.2700    0.8160   -1.2713 C   0  0  0  0  0  0  0  0  0  0  0  0
   -0.5102   -0.4906   -1.1620 C   0  0  0  0  0  0  0  0  0  0  0  0
   -1.9782   -0.2707   -1.2211 C   0  0  0  0  0  0  0  0  0  0  0  0
   -2.9045   -0.3198   -0.2021 C   0  0  0  0  0  0  0  0  0  0  0  0
   -4.1343   -0.0423   -0.7676 N   0  0  0  0  0  0  0  0  0  0  0  0
   -5.3900    0.0170   -0.0951 C   0  0  0  0  0  0  0  0  0  0  0  0
   -5.4620   -0.2203    1.2878 C   0  0  0  0  0  0  0  0  0  0  0  0
   -6.6910   -0.1624    1.9449 C   0  0  0  0  0  0  0  0  0  0  0  0
   -6.7399   -0.3918    3.2632 F   0  0  0  0  0  0  0  0  0  0  0  0
   -7.8631    0.1277    1.2606 C   0  0  0  0  0  0  0  0  0  0  0  0
   -7.8052    0.3648   -0.1091 C   0  0  0  0  0  0  0  0  0  0  0  0
   -6.5794    0.3095   -0.7782 C   0  0  0  0  0  0  0  0  0  0  0  0
   -6.6034    0.5490   -2.0952 F   0  0  0  0  0  0  0  0  0  0  0  0
   -3.8693    0.1607   -2.1060 C   0  0  0  0  0  0  0  0  0  0  0  0
   -2.5936    0.0325   -2.4021 N   0  0  0  0  0  0  0  0  0  0  0  0
    4.3664    0.0562    1.1885 C   0  0  0  0  0  0  0  0  0  0  0  0
    5.7506   -0.1560    1.1912 C   0  0  0  0  0  0  0  0  0  0  0  0
    9.5982   -0.7231    0.7607 H   0  0  0  0  0  0  0  0  0  0  0  0
    8.4985    0.3188    1.6720 H   0  0  0  0  0  0  0  0  0  0  0  0
    8.2267   -1.4660    1.5928 H   0  0  0  0  0  0  0  0  0  0  0  0
    6.3035   -0.0876   -2.1576 H   0  0  0  0  0  0  0  0  0  0  0  0
    3.8722    0.2863   -2.1786 H   0  0  0  0  0  0  0  0  0  0  0  0
    0.0762    1.2932   -2.2389 H   0  0  0  0  0  0  0  0  0  0  0  0
   -0.0310    1.5394   -0.5026 H   0  0  0  0  0  0  0  0  0  0  0  0
   -0.2055   -1.1647   -1.9722 H   0  0  0  0  0  0  0  0  0  0  0  0
   -0.2478   -1.0134   -0.2347 H   0  0  0  0  0  0  0  0  0  0  0  0
   -2.7647   -0.5267    0.8477 H   0  0  0  0  0  0  0  0  0  0  0  0
   -4.5942   -0.4526    1.8951 H   0  0  0  0  0  0  0  0  0  0  0  0
   -8.8068    0.1668    1.7955 H   0  0  0  0  0  0  0  0  0  0  0  0
   -8.7082    0.5941   -0.6679 H   0  0  0  0  0  0  0  0  0  0  0  0
   -4.6268    0.4002   -2.8376 H   0  0  0  0  0  0  0  0  0  0  0  0
    3.8322    0.0951    2.1364 H   0  0  0  0  0  0  0  0  0  0  0  0
    6.2453   -0.2754    2.1496 H   0  0  0  0  0  0  0  0  0  0  0  0
  1  2  1  0
  2  3  1  0
  3  4  1  0
  4  5  2  0
  5  6  1  0
  6  7  1  0
  7  8  2  0
  7  9  1  0
  9 10  1  0
 10 11  1  0
 11 12  1  0
 12 13  2  0
 13 14  1  0
 14 15  1  0
 15 16  1  0
 16 17  2  0
 17 18  1  0
 17 19  1  0
 19 20  2  0
 20 21  1  0
 21 22  1  0
 14 23  1  0
 23 24  2  0
  6 25  2  0
 25 26  1  0
 26  3  2  0
 24 12  1  0
 21 15  2  0
  1 27  1  0
  1 28  1  0
  1 29  1  0
  4 30  1  0
  5 31  1  0
 10 32  1  0
 10 33  1  0
 11 34  1  0
 11 35  1  0
 13 36  1  0
 16 37  1  0
 19 38  1  0
 20 39  1  0
 23 40  1  0
 25 41  1  0
 26 42  1  0
M  END
>  <_SMILES>  (92) 
COc1ccc(C(=O)OCCc2cn(-c3cc(F)ccc3F)cn2)cc1

$$$$

     RDKit          3D

 43 45  0  0  0  0  0  0  0  0999 V2000
   -5.5431    4.8543   -3.5114 C   0  0  0  0  0  0  0  0  0  0  0  0
   -5.7824    4.0928   -2.3337 O   0  0  0  0  0  0  0  0  0  0  0  0
   -4.7114    3.4554   -1.7746 C   0  0  0  0  0  0  0  0  0  0  0  0
   -5.0026    2.7446   -0.6074 C   0  0  0  0  0  0  0  0  0  0  0  0
   -4.0033    2.0431    0.0734 C   0  0  0  0  0  0  0  0  0  0  0  0
   -2.6922    2.0464   -0.4150 C   0  0  0  0  0  0  0  0  0  0  0  0
   -1.5882    1.3156    0.2629 C   0  0  0  0  0  0  0  0  0  0  0  0
   -0.4405    1.2621   -0.1599 O   0  0  0  0  0  0  0  0  0  0  0  0
   -2.0277    0.7046    1.3897 O   0  0  0  0  0  0  0  0  0  0  0  0
   -1.0453    0.0344    2.2055 C   0  0  0  0  0  0  0  0  0  0  0  0
   -0.7269   -1.3631    1.6705 C   0  0  0  0  0  0  0  0  0  0  0  0
    0.6577   -1.4925    1.1489 C   0  0  0  0  0  0  0  0  0  0  0  0
    1.6410   -2.4279    1.3801 C   0  0  0  0  0  0  0  0  0  0  0  0
    2.7667   -2.0854    0.6234 N   0  0  0  0  0  0  0  0  0  0  0  0
    4.0637   -2.7919    0.5558 C   0  0  0  0  0  0  0  0  0  0  0  0
    4.1891   -4.0356    1.1683 C   0  0  0  0  0  0  0  0  0  0  0  0
    5.4131   -4.6977    1.1009 C   0  0  0  0  0  0  0  0  0  0  0  0
    5.5353   -5.8953    1.6848 F   0  0  0  0  0  0  0  0  0  0  0  0
    6.5064   -4.1454    0.4406 C   0  0  0  0  0  0  0  0  0  0  0  0
    6.3792   -2.8996   -0.1696 C   0  0  0  0  0  0  0  0  0  0  0  0
    5.1597   -2.2268   -0.1103 C   0  0  0  0  0  0  0  0  0  0  0  0
    5.0826   -1.0220   -0.6896 F   0  0  0  0  0  0  0  0  0  0  0  0
    2.4711   -0.9668   -0.0672 C   0  0  0  0  0  0  0  0  0  0  0  0
    1.2219   -0.6197    0.2477 N   0  0  0  0  0  0  0  0  0  0  0  0
   -2.3991    2.7589   -1.5854 C   0  0  0  0  0  0  0  0  0  0  0  0
   -3.4049    3.4605   -2.2621 C   0  0  0  0  0  0  0  0  0  0  0  0
   -6.4928    5.3025   -3.8186 H   0  0  0  0  0  0  0  0  0  0  0  0
   -5.1955    4.2150   -4.3295 H   0  0  0  0  0  0  0  0  0  0  0  0
   -4.8367    5.6683   -3.3179 H   0  0  0  0  0  0  0  0  0  0  0  0
   -6.0215    2.7406   -0.2241 H   0  0  0  0  0  0  0  0  0  0  0  0
   -4.2715    1.5055    0.9791 H   0  0  0  0  0  0  0  0  0  0  0  0
   -0.1617    0.6711    2.3360 H   0  0  0  0  0  0  0  0  0  0  0  0
   -1.5099   -0.0622    3.1933 H   0  0  0  0  0  0  0  0  0  0  0  0
   -1.4212   -1.6565    0.8756 H   0  0  0  0  0  0  0  0  0  0  0  0
   -0.8307   -2.0878    2.4872 H   0  0  0  0  0  0  0  0  0  0  0  0
    1.6573   -3.2969    2.0155 H   0  0  0  0  0  0  0  0  0  0  0  0
    3.3815   -4.5333    1.6867 H   0  0  0  0  0  0  0  0  0  0  0  0
    7.4477   -4.6891    0.4080 H   0  0  0  0  0  0  0  0  0  0  0  0
    7.2238   -2.4494   -0.6856 H   0  0  0  0  0  0  0  0  0  0  0  0
    3.0864   -0.4235   -0.7706 H   0  0  0  0  0  0  0  0  0  0  0  0
    0.7463    0.2121   -0.1324 H   0  0  0  0  0  0  0  0  0  0  0  0
   -1.3861    2.7797   -1.9821 H   0  0  0  0  0  0  0  0  0  0  0  0
   -3.1355    4.0007   -3.1644 H   0  0  0  0  0  0  0  0  0  0  0  0
  1  2  1  0
  2  3  1  0
  3  4  1  0
  4  5  2  0
  5  6  1  0
  6  7  1  0
  7  8  2  0
  7  9  1  0
  9 10  1  0
 10 11  1  0
 11 12  1  0
 12 13  2  0
 13 14  1  0
 14 15  1  0
 15 16  1  0
 16 17  2  0
 17 18  1  0
 17 19  1  0
 19 20  2  0
 20 21  1  0
 21 22  1  0
 14 23  1  0
 23 24  2  0
  6 25  2  0
 25 26  1  0
 26  3  2  0
 24 12  1  0
 21 15  2  0
  1 27  1  0
  1 28  1  0
  1 29  1  0
  4 30  1  0
  5 31  1  0
 10 32  1  0
 10 33  1  0
 11 34  1  0
 11 35  1  0
 13 36  1  0
 16 37  1  0
 19 38  1  0
 20 39  1  0
 23 40  1  0
 24 41  1  0
 25 42  1  0
 26 43  1  0
M  CHG  1  24   1
M  END
>  <_SMILES>  (93) 
COc1ccc(C(=O)OCCc2cn(-c3cc(F)ccc3F)c[nH+]2)cc1

$$$$

     RDKit          3D

 62 67  0  0  0  0  0  0  0  0999 V2000
   -2.2737    0.4793   -2.6022 O   0  0  0  0  0  0  0  0  0  0  0  0
   -1.5504    0.3617   -1.6171 C   0  0  0  0  0  0  0  0  0  0  0  0
   -2.0281    0.1578   -0.3419 N   0  0  0  0  0  0  0  0  0  0  0  0
   -3.4476   -0.0045    0.0004 C   0  0  2  0  0  0  0  0  0  0  0  0
   -4.2798    1.2524   -0.3748 C   0  0  0  0  0  0  0  0  0  0  0  0
   -5.7552    1.0796    0.0351 C   0  0  2  0  0  0  0  0  0  0  0  0
   -5.8407    0.8536    1.5486 C   0  0  0  0  0  0  0  0  0  0  0  0
   -5.0394   -0.4003    1.9038 C   0  0  2  0  0  0  0  0  0  0  0  0
   -3.5687   -0.2183    1.5276 C   0  0  0  0  0  0  0  0  0  0  0  0
   -5.5737   -1.5327    1.1997 O   0  0  0  0  0  0  0  0  0  0  0  0
   -5.5192   -1.3904   -0.2309 C   0  0  1  0  0  0  0  0  0  0  0  0
   -6.3314   -0.1634   -0.6561 C   0  0  0  0  0  0  0  0  0  0  0  0
   -4.0613   -1.2492   -0.6735 C   0  0  0  0  0  0  0  0  0  0  0  0
   -0.0392    0.4461   -1.7519 C   0  0  1  0  0  0  0  0  0  0  0  0
    0.5754    1.5756   -0.9312 C   0  0  0  0  0  0  0  0  0  0  0  0
    2.0143    1.1506   -0.7733 C   0  0  0  0  0  0  0  0  0  0  0  0
    2.9807    2.0161   -0.4136 C   0  0  0  0  0  0  0  0  0  0  0  0
    4.3868    1.6981   -0.2659 C   0  0  0  0  0  0  0  0  0  0  0  0
    5.0389    1.2772   -1.4062 N   0  0  0  0  0  0  0  0  0  0  0  0
    6.3536    0.8896   -1.4500 C   0  0  0  0  0  0  0  0  0  0  0  0
    6.8965    0.4947   -2.4744 O   0  0  0  0  0  0  0  0  0  0  0  0
    7.0984    0.9784   -0.1699 C   0  0  0  0  0  0  0  0  0  0  0  0
    6.4687    1.4091    0.9329 C   0  0  0  0  0  0  0  0  0  0  0  0
    5.0689    1.7811    0.8947 C   0  0  0  0  0  0  0  0  0  0  0  0
    4.3524    2.2904    2.3830 Cl  0  0  0  0  0  0  0  0  0  0  0  0
    2.1531   -0.3297   -1.1042 C   0  0  1  0  0  0  0  0  0  0  0  0
    2.8974   -1.1741   -0.0909 C   0  0  0  0  0  0  0  0  0  0  0  0
    2.6054   -1.1146    1.2816 C   0  0  0  0  0  0  0  0  0  0  0  0
    3.3152   -1.8947    2.1962 C   0  0  0  0  0  0  0  0  0  0  0  0
    4.3218   -2.7484    1.7521 C   0  0  0  0  0  0  0  0  0  0  0  0
    4.6191   -2.8238    0.3936 C   0  0  0  0  0  0  0  0  0  0  0  0
    3.9105   -2.0443   -0.5224 C   0  0  0  0  0  0  0  0  0  0  0  0
    0.7011   -0.8020   -1.2786 C   0  0  0  0  0  0  0  0  0  0  0  0
   -1.3582   -0.0498    0.3870 H   0  0  0  0  0  0  0  0  0  0  0  0
   -3.8588    2.1403    0.1149 H   0  0  0  0  0  0  0  0  0  0  0  0
   -4.2355    1.4456   -1.4526 H   0  0  0  0  0  0  0  0  0  0  0  0
   -6.3296    1.9689   -0.2464 H   0  0  0  0  0  0  0  0  0  0  0  0
   -6.8900    0.7186    1.8382 H   0  0  0  0  0  0  0  0  0  0  0  0
   -5.4557    1.7247    2.0911 H   0  0  0  0  0  0  0  0  0  0  0  0
   -5.1268   -0.6057    2.9757 H   0  0  0  0  0  0  0  0  0  0  0  0
   -3.0024   -1.1128    1.8195 H   0  0  0  0  0  0  0  0  0  0  0  0
   -3.1345    0.6280    2.0748 H   0  0  0  0  0  0  0  0  0  0  0  0
   -5.9545   -2.2945   -0.6690 H   0  0  0  0  0  0  0  0  0  0  0  0
   -6.3088   -0.0443   -1.7455 H   0  0  0  0  0  0  0  0  0  0  0  0
   -7.3791   -0.2915   -0.3578 H   0  0  0  0  0  0  0  0  0  0  0  0
   -3.4956   -2.1428   -0.3792 H   0  0  0  0  0  0  0  0  0  0  0  0
   -4.0106   -1.1831   -1.7659 H   0  0  0  0  0  0  0  0  0  0  0  0
    0.1880    0.6100   -2.8151 H   0  0  0  0  0  0  0  0  0  0  0  0
    0.4803    2.5334   -1.4539 H   0  0  0  0  0  0  0  0  0  0  0  0
    0.1117    1.6745    0.0564 H   0  0  0  0  0  0  0  0  0  0  0  0
    2.7173    3.0484   -0.1855 H   0  0  0  0  0  0  0  0  0  0  0  0
    4.5310    1.2150   -2.2784 H   0  0  0  0  0  0  0  0  0  0  0  0
    8.1387    0.6829   -0.1825 H   0  0  0  0  0  0  0  0  0  0  0  0
    6.9995    1.4736    1.8768 H   0  0  0  0  0  0  0  0  0  0  0  0
    2.6472   -0.3966   -2.0836 H   0  0  0  0  0  0  0  0  0  0  0  0
    1.8323   -0.4460    1.6523 H   0  0  0  0  0  0  0  0  0  0  0  0
    3.0853   -1.8319    3.2566 H   0  0  0  0  0  0  0  0  0  0  0  0
    4.8753   -3.3545    2.4643 H   0  0  0  0  0  0  0  0  0  0  0  0
    5.4055   -3.4883    0.0449 H   0  0  0  0  0  0  0  0  0  0  0  0
    4.1655   -2.1150   -1.5780 H   0  0  0  0  0  0  0  0  0  0  0  0
    0.6304   -1.6119   -2.0143 H   0  0  0  0  0  0  0  0  0  0  0  0
    0.2825   -1.1961   -0.3453 H   0  0  0  0  0  0  0  0  0  0  0  0
  1  2  2  0
  2  3  1  0
  4  3  1  1
  4  5  1  0
  5  6  1  0
  6  7  1  0
  7  8  1  0
  8  9  1  0
  8 10  1  0
 10 11  1  0
 11 12  1  0
 11 13  1  0
  2 14  1  0
 14 15  1  0
 15 16  1  0
 16 17  2  0
 17 18  1  0
 18 19  1  0
 19 20  1  0
 20 21  2  0
 20 22  1  0
 22 23  2  0
 23 24  1  0
 24 25  1  0
 16 26  1  0
 26 27  1  0
 27 28  2  0
 28 29  1  0
 29 30  2  0
 30 31  1  0
 31 32  2  0
 26 33  1  0
  9  4  1  0
 33 14  1  0
 13  4  1  0
 24 18  2  0
 32 27  1  0
 12  6  1  0
  3 34  1  0
  5 35  1  0
  5 36  1  0
  6 37  1  1
  7 38  1  0
  7 39  1  0
  8 40  1  1
  9 41  1  0
  9 42  1  0
 11 43  1  6
 12 44  1  0
 12 45  1  0
 13 46  1  0
 13 47  1  0
 14 48  1  6
 15 49  1  0
 15 50  1  0
 17 51  1  0
 19 52  1  0
 22 53  1  0
 23 54  1  0
 26 55  1  6
 28 56  1  0
 29 57  1  0
 30 58  1  0
 31 59  1  0
 32 60  1  0
 33 61  1  0
 33 62  1  0
M  END
>  <_SMILES>  (94) 
O=C(N[C@]12C[C@@H]3C[C@H](C1)O[C@@H](C3)C2)[C@H]1C/C(=C/c2[nH]c(=O)ccc2Cl)[C@@H](c2ccccc2)C1

$$$$

     RDKit          3D

 62 67  0  0  0  0  0  0  0  0999 V2000
   -1.9063   -0.9398   -1.7064 O   0  0  0  0  0  0  0  0  0  0  0  0
   -1.5365   -0.7415   -0.5549 C   0  0  0  0  0  0  0  0  0  0  0  0
   -2.3480   -0.2212    0.4327 N   0  0  0  0  0  0  0  0  0  0  0  0
   -3.7409    0.1974    0.2361 C   0  0  2  0  0  0  0  0  0  0  0  0
   -4.6416   -0.9922   -0.1942 C   0  0  0  0  0  0  0  0  0  0  0  0
   -6.1077   -0.5449   -0.3513 C   0  0  2  0  0  0  0  0  0  0  0  0
   -6.1862    0.5813   -1.3908 C   0  0  0  0  0  0  0  0  0  0  0  0
   -5.3252    1.7563   -0.9169 C   0  0  2  0  0  0  0  0  0  0  0  0
   -3.8590    1.3344   -0.8006 C   0  0  0  0  0  0  0  0  0  0  0  0
   -5.7963    2.2131    0.3634 O   0  0  0  0  0  0  0  0  0  0  0  0
   -5.7375    1.2028    1.3828 C   0  0  1  0  0  0  0  0  0  0  0  0
   -6.6153    0.0151    0.9824 C   0  0  0  0  0  0  0  0  0  0  0  0
   -4.2875    0.7556    1.5709 C   0  0  0  0  0  0  0  0  0  0  0  0
   -0.1403   -1.0848   -0.0649 C   0  0  1  0  0  0  0  0  0  0  0  0
    0.7604   -1.6049   -1.1827 C   0  0  0  0  0  0  0  0  0  0  0  0
    2.1437   -1.3741   -0.6352 C   0  0  0  0  0  0  0  0  0  0  0  0
    3.2140   -2.0865   -1.0310 C   0  0  0  0  0  0  0  0  0  0  0  0
    4.5641   -1.9351   -0.4727 C   0  0  0  0  0  0  0  0  0  0  0  0
    4.6582   -2.1529    0.8661 N   0  0  0  0  0  0  0  0  0  0  0  0
    5.8686   -2.0058    1.4271 C   0  0  0  0  0  0  0  0  0  0  0  0
    5.9019   -2.2169    2.7735 O   0  0  0  0  0  0  0  0  0  0  0  0
    7.0142   -1.6629    0.7297 C   0  0  0  0  0  0  0  0  0  0  0  0
    6.9060   -1.4555   -0.6432 C   0  0  0  0  0  0  0  0  0  0  0  0
    5.6646   -1.5929   -1.2623 C   0  0  0  0  0  0  0  0  0  0  0  0
    5.5556   -1.3159   -2.9615 Cl  0  0  0  0  0  0  0  0  0  0  0  0
    2.0971   -0.3011    0.4399 C   0  0  1  0  0  0  0  0  0  0  0  0
    3.0285    0.8763    0.2282 C   0  0  0  0  0  0  0  0  0  0  0  0
    3.8651    1.2960    1.2738 C   0  0  0  0  0  0  0  0  0  0  0  0
    4.7367    2.3728    1.1022 C   0  0  0  0  0  0  0  0  0  0  0  0
    4.7830    3.0455   -0.1166 C   0  0  0  0  0  0  0  0  0  0  0  0
    3.9587    2.6418   -1.1644 C   0  0  0  0  0  0  0  0  0  0  0  0
    3.0859    1.5657   -0.9936 C   0  0  0  0  0  0  0  0  0  0  0  0
    0.6222    0.1339    0.4540 C   0  0  0  0  0  0  0  0  0  0  0  0
   -1.9573   -0.1268    1.3617 H   0  0  0  0  0  0  0  0  0  0  0  0
   -4.2988   -1.4188   -1.1440 H   0  0  0  0  0  0  0  0  0  0  0  0
   -4.5763   -1.7992    0.5473 H   0  0  0  0  0  0  0  0  0  0  0  0
   -6.7272   -1.3922   -0.6648 H   0  0  0  0  0  0  0  0  0  0  0  0
   -5.8480    0.2257   -2.3709 H   0  0  0  0  0  0  0  0  0  0  0  0
   -7.2287    0.9054   -1.4966 H   0  0  0  0  0  0  0  0  0  0  0  0
   -5.4170    2.5913   -1.6190 H   0  0  0  0  0  0  0  0  0  0  0  0
   -3.2506    2.1896   -0.4788 H   0  0  0  0  0  0  0  0  0  0  0  0
   -3.4848    1.0267   -1.7831 H   0  0  0  0  0  0  0  0  0  0  0  0
   -6.1135    1.6464    2.3104 H   0  0  0  0  0  0  0  0  0  0  0  0
   -6.5953   -0.7589    1.7583 H   0  0  0  0  0  0  0  0  0  0  0  0
   -7.6553    0.3438    0.8673 H   0  0  0  0  0  0  0  0  0  0  0  0
   -3.6771    1.6114    1.8887 H   0  0  0  0  0  0  0  0  0  0  0  0
   -4.2196    0.0015    2.3652 H   0  0  0  0  0  0  0  0  0  0  0  0
   -0.2288   -1.8434    0.7247 H   0  0  0  0  0  0  0  0  0  0  0  0
    0.6330   -1.0302   -2.1078 H   0  0  0  0  0  0  0  0  0  0  0  0
    0.5600   -2.6602   -1.3952 H   0  0  0  0  0  0  0  0  0  0  0  0
    3.1211   -2.8273   -1.8198 H   0  0  0  0  0  0  0  0  0  0  0  0
    6.8154   -2.1101    3.0741 H   0  0  0  0  0  0  0  0  0  0  0  0
    7.9722   -1.5515    1.2225 H   0  0  0  0  0  0  0  0  0  0  0  0
    7.7835   -1.1810   -1.2218 H   0  0  0  0  0  0  0  0  0  0  0  0
    2.3097   -0.7852    1.4030 H   0  0  0  0  0  0  0  0  0  0  0  0
    3.8516    0.7713    2.2273 H   0  0  0  0  0  0  0  0  0  0  0  0
    5.3802    2.6841    1.9204 H   0  0  0  0  0  0  0  0  0  0  0  0
    5.4613    3.8835   -0.2510 H   0  0  0  0  0  0  0  0  0  0  0  0
    3.9947    3.1627   -2.1175 H   0  0  0  0  0  0  0  0  0  0  0  0
    2.4549    1.2619   -1.8262 H   0  0  0  0  0  0  0  0  0  0  0  0
    0.4339    1.0045   -0.1881 H   0  0  0  0  0  0  0  0  0  0  0  0
    0.3062    0.4160    1.4651 H   0  0  0  0  0  0  0  0  0  0  0  0
  1  2  2  0
  2  3  1  0
  4  3  1  1
  4  5  1  0
  5  6  1  0
  6  7  1  0
  7  8  1  0
  8  9  1  0
  8 10  1  0
 10 11  1  0
 11 12  1  0
 11 13  1  0
  2 14  1  0
 14 15  1  0
 15 16  1  0
 16 17  2  0
 17 18  1  0
 18 19  1  0
 19 20  2  0
 20 21  1  0
 20 22  1  0
 22 23  2  0
 23 24  1  0
 24 25  1  0
 16 26  1  0
 26 27  1  0
 27 28  2  0
 28 29  1  0
 29 30  2  0
 30 31  1  0
 31 32  2  0
 26 33  1  0
  9  4  1  0
 33 14  1  0
 13  4  1  0
 24 18  2  0
 32 27  1  0
 12  6  1  0
  3 34  1  0
  5 35  1  0
  5 36  1  0
  6 37  1  6
  7 38  1  0
  7 39  1  0
  8 40  1  6
  9 41  1  0
  9 42  1  0
 11 43  1  1
 12 44  1  0
 12 45  1  0
 13 46  1  0
 13 47  1  0
 14 48  1  1
 15 49  1  0
 15 50  1  0
 17 51  1  0
 21 52  1  0
 22 53  1  0
 23 54  1  0
 26 55  1  1
 28 56  1  0
 29 57  1  0
 30 58  1  0
 31 59  1  0
 32 60  1  0
 33 61  1  0
 33 62  1  0
M  END
>  <_SMILES>  (95) 
O=C(N[C@]12C[C@@H]3C[C@H](C1)O[C@@H](C3)C2)[C@H]1C/C(=C/c2nc(O)ccc2Cl)[C@@H](c2ccccc2)C1

$$$$

     RDKit          3D

 53 55  0  0  0  0  0  0  0  0999 V2000
   -3.2681   -2.3978    0.7690 C   0  0  0  0  0  0  0  0  0  0  0  0
   -3.2558   -1.8807   -0.6721 C   0  0  0  0  0  0  0  0  0  0  0  0
   -4.4265   -2.4882   -1.4526 C   0  0  0  0  0  0  0  0  0  0  0  0
   -3.2136   -0.3288   -0.7970 C   0  0  2  0  0  0  0  0  0  0  0  0
   -1.8572    0.2227   -0.2950 C   0  0  0  0  0  0  0  0  0  0  0  0
   -1.7226    0.7743    0.7923 O   0  0  0  0  0  0  0  0  0  0  0  0
   -0.8272   -0.0135   -1.2019 N   0  0  0  0  0  0  0  0  0  0  0  0
    0.5350    0.3262   -1.0664 C   0  0  0  0  0  0  0  0  0  0  0  0
    1.0790    0.9633    0.0457 C   0  0  0  0  0  0  0  0  0  0  0  0
    2.4461    1.2637    0.0961 C   0  0  0  0  0  0  0  0  0  0  0  0
    3.3121    0.9388   -0.9666 C   0  0  0  0  0  0  0  0  0  0  0  0
    4.8107    1.2925   -0.8545 C   0  0  2  0  0  0  0  0  0  0  0  0
    4.8558    2.7007   -0.5355 O   0  0  0  0  0  0  0  0  0  0  0  0
    5.5696    1.0933   -2.1266 C   0  0  0  0  0  0  0  0  0  0  0  0
    6.1260    0.9376   -3.1365 N   0  0  0  0  0  0  0  0  0  0  0  0
    5.4965    0.4996    0.2750 C   0  0  0  0  0  0  0  0  0  0  0  0
    5.4143   -0.9097    0.3134 C   0  0  0  0  0  0  0  0  0  0  0  0
    6.0422   -1.6377    1.3269 C   0  0  0  0  0  0  0  0  0  0  0  0
    6.7624   -0.9691    2.3072 C   0  0  0  0  0  0  0  0  0  0  0  0
    7.3639   -1.6689    3.2777 F   0  0  0  0  0  0  0  0  0  0  0  0
    6.8695    0.4146    2.2930 C   0  0  0  0  0  0  0  0  0  0  0  0
    6.2427    1.1462    1.2811 C   0  0  0  0  0  0  0  0  0  0  0  0
    2.7531    0.2912   -2.0803 C   0  0  0  0  0  0  0  0  0  0  0  0
    1.3846   -0.0080   -2.1266 C   0  0  0  0  0  0  0  0  0  0  0  0
   -4.4409    0.4009   -0.2541 C   0  0  0  0  0  0  0  0  0  0  0  0
   -4.6533    0.6059    1.1179 C   0  0  0  0  0  0  0  0  0  0  0  0
   -5.7974    1.2627    1.5801 C   0  0  0  0  0  0  0  0  0  0  0  0
   -6.7468    1.7202    0.6721 C   0  0  0  0  0  0  0  0  0  0  0  0
   -8.2951    2.6067    1.2956 Br  0  0  0  0  0  0  0  0  0  0  0  0
   -6.5620    1.5279   -0.6934 C   0  0  0  0  0  0  0  0  0  0  0  0
   -5.4163    0.8722   -1.1524 C   0  0  0  0  0  0  0  0  0  0  0  0
   -3.1392   -3.4861    0.7811 H   0  0  0  0  0  0  0  0  0  0  0  0
   -4.2140   -2.1806    1.2739 H   0  0  0  0  0  0  0  0  0  0  0  0
   -2.4519   -1.9668    1.3566 H   0  0  0  0  0  0  0  0  0  0  0  0
   -2.3387   -2.2744   -1.1312 H   0  0  0  0  0  0  0  0  0  0  0  0
   -5.3920   -2.2207   -1.0113 H   0  0  0  0  0  0  0  0  0  0  0  0
   -4.4186   -2.1508   -2.4943 H   0  0  0  0  0  0  0  0  0  0  0  0
   -4.3575   -3.5815   -1.4584 H   0  0  0  0  0  0  0  0  0  0  0  0
   -3.2035   -0.1100   -1.8769 H   0  0  0  0  0  0  0  0  0  0  0  0
   -1.0780   -0.4759   -2.0665 H   0  0  0  0  0  0  0  0  0  0  0  0
    0.4715    1.2430    0.9011 H   0  0  0  0  0  0  0  0  0  0  0  0
    2.8337    1.7580    0.9878 H   0  0  0  0  0  0  0  0  0  0  0  0
    4.1822    3.1336   -1.0882 H   0  0  0  0  0  0  0  0  0  0  0  0
    4.8577   -1.4564   -0.4462 H   0  0  0  0  0  0  0  0  0  0  0  0
    5.9749   -2.7208    1.3563 H   0  0  0  0  0  0  0  0  0  0  0  0
    7.4411    0.9174    3.0668 H   0  0  0  0  0  0  0  0  0  0  0  0
    6.3441    2.2307    1.2864 H   0  0  0  0  0  0  0  0  0  0  0  0
    3.3596    0.0002   -2.9369 H   0  0  0  0  0  0  0  0  0  0  0  0
    0.9980   -0.5091   -3.0112 H   0  0  0  0  0  0  0  0  0  0  0  0
   -3.9227    0.2660    1.8501 H   0  0  0  0  0  0  0  0  0  0  0  0
   -5.9311    1.4130    2.6481 H   0  0  0  0  0  0  0  0  0  0  0  0
   -7.3001    1.8826   -1.4076 H   0  0  0  0  0  0  0  0  0  0  0  0
   -5.2963    0.7299   -2.2246 H   0  0  0  0  0  0  0  0  0  0  0  0
  1  2  1  0
  2  3  1  0
  2  4  1  0
  4  5  1  0
  5  6  2  0
  5  7  1  0
  7  8  1  0
  8  9  1  0
  9 10  2  0
 10 11  1  0
 11 12  1  0
 12 13  1  0
 12 14  1  6
 14 15  3  0
 12 16  1  0
 16 17  1  0
 17 18  2  0
 18 19  1  0
 19 20  1  0
 19 21  2  0
 21 22  1  0
 11 23  2  0
 23 24  1  0
  4 25  1  0
 25 26  1  0
 26 27  2  0
 27 28  1  0
 28 29  1  0
 28 30  2  0
 30 31  1  0
 24  8  2  0
 31 25  2  0
 22 16  2  0
  1 32  1  0
  1 33  1  0
  1 34  1  0
  2 35  1  0
  3 36  1  0
  3 37  1  0
  3 38  1  0
  4 39  1  6
  7 40  1  0
  9 41  1  0
 10 42  1  0
 13 43  1  0
 17 44  1  0
 18 45  1  0
 21 46  1  0
 22 47  1  0
 23 48  1  0
 24 49  1  0
 26 50  1  0
 27 51  1  0
 30 52  1  0
 31 53  1  0
M  END
>  <_SMILES>  (96) 
CC(C)[C@H](C(=O)Nc1ccc([C@](O)(C#N)c2ccc(F)cc2)cc1)c1ccc(Br)cc1

$$$$

     RDKit          3D

 53 55  0  0  0  0  0  0  0  0999 V2000
   -3.0278   -2.4845    1.9422 C   0  0  0  0  0  0  0  0  0  0  0  0
   -3.5875   -1.8827    0.6433 C   0  0  0  0  0  0  0  0  0  0  0  0
   -4.9748   -2.4945    0.3958 C   0  0  0  0  0  0  0  0  0  0  0  0
   -3.6557   -0.3278    0.7148 C   0  0  1  0  0  0  0  0  0  0  0  0
   -2.3163    0.2821    1.1800 C   0  0  0  0  0  0  0  0  0  0  0  0
   -2.2416    0.8388    2.2732 O   0  0  0  0  0  0  0  0  0  0  0  0
   -1.2771    0.1079    0.2811 N   0  0  0  0  0  0  0  0  0  0  0  0
    0.0674    0.5021    0.4306 C   0  0  0  0  0  0  0  0  0  0  0  0
    0.9233    0.2758   -0.6521 C   0  0  0  0  0  0  0  0  0  0  0  0
    2.2755    0.6314   -0.5851 C   0  0  0  0  0  0  0  0  0  0  0  0
    2.8131    1.2217    0.5735 C   0  0  0  0  0  0  0  0  0  0  0  0
    4.2994    1.6151    0.6367 C   0  0  2  0  0  0  0  0  0  0  0  0
    4.6237    2.0414    1.9779 O   0  0  0  0  0  0  0  0  0  0  0  0
    4.5478    2.7699   -0.2787 C   0  0  0  0  0  0  0  0  0  0  0  0
    4.7795    3.6532   -0.9995 N   0  0  0  0  0  0  0  0  0  0  0  0
    5.2113    0.3971    0.3641 C   0  0  0  0  0  0  0  0  0  0  0  0
    5.2195   -0.6747    1.2864 C   0  0  0  0  0  0  0  0  0  0  0  0
    6.0192   -1.8003    1.0796 C   0  0  0  0  0  0  0  0  0  0  0  0
    6.8188   -1.8711   -0.0516 C   0  0  0  0  0  0  0  0  0  0  0  0
    7.5859   -2.9500   -0.2528 F   0  0  0  0  0  0  0  0  0  0  0  0
    6.8321   -0.8384   -0.9795 C   0  0  0  0  0  0  0  0  0  0  0  0
    6.0322    0.2907   -0.7768 C   0  0  0  0  0  0  0  0  0  0  0  0
    1.9411    1.4483    1.6513 C   0  0  0  0  0  0  0  0  0  0  0  0
    0.5879    1.0899    1.5814 C   0  0  0  0  0  0  0  0  0  0  0  0
   -4.1476    0.3957   -0.5412 C   0  0  0  0  0  0  0  0  0  0  0  0
   -4.7427    1.6618   -0.3913 C   0  0  0  0  0  0  0  0  0  0  0  0
   -5.1831    2.3866   -1.5011 C   0  0  0  0  0  0  0  0  0  0  0  0
   -5.0279    1.8545   -2.7767 C   0  0  0  0  0  0  0  0  0  0  0  0
   -5.6224    2.8300   -4.2821 Br  0  0  0  0  0  0  0  0  0  0  0  0
   -4.4336    0.6076   -2.9509 C   0  0  0  0  0  0  0  0  0  0  0  0
   -3.9914   -0.1163   -1.8393 C   0  0  0  0  0  0  0  0  0  0  0  0
   -1.9881   -2.1860    2.1082 H   0  0  0  0  0  0  0  0  0  0  0  0
   -3.6169   -2.1709    2.8108 H   0  0  0  0  0  0  0  0  0  0  0  0
   -3.0437   -3.5792    1.9013 H   0  0  0  0  0  0  0  0  0  0  0  0
   -2.9217   -2.1970   -0.1693 H   0  0  0  0  0  0  0  0  0  0  0  0
   -5.6756   -2.2184    1.1912 H   0  0  0  0  0  0  0  0  0  0  0  0
   -5.4026   -2.1708   -0.5568 H   0  0  0  0  0  0  0  0  0  0  0  0
   -4.9150   -3.5881    0.3665 H   0  0  0  0  0  0  0  0  0  0  0  0
   -4.3813   -0.0921    1.5090 H   0  0  0  0  0  0  0  0  0  0  0  0
   -1.5210   -0.2914   -0.6155 H   0  0  0  0  0  0  0  0  0  0  0  0
    0.5530   -0.1775   -1.5683 H   0  0  0  0  0  0  0  0  0  0  0  0
    2.9033    0.4399   -1.4541 H   0  0  0  0  0  0  0  0  0  0  0  0
    5.5936    2.1037    2.0212 H   0  0  0  0  0  0  0  0  0  0  0  0
    4.5911   -0.6347    2.1768 H   0  0  0  0  0  0  0  0  0  0  0  0
    6.0196   -2.6197    1.7917 H   0  0  0  0  0  0  0  0  0  0  0  0
    7.4651   -0.9179   -1.8586 H   0  0  0  0  0  0  0  0  0  0  0  0
    6.0685    1.0745   -1.5322 H   0  0  0  0  0  0  0  0  0  0  0  0
    2.3011    1.9111    2.5694 H   0  0  0  0  0  0  0  0  0  0  0  0
   -0.0304    1.2887    2.4515 H   0  0  0  0  0  0  0  0  0  0  0  0
   -4.8620    2.0985    0.6002 H   0  0  0  0  0  0  0  0  0  0  0  0
   -5.6399    3.3622   -1.3569 H   0  0  0  0  0  0  0  0  0  0  0  0
   -4.3110    0.1896   -3.9470 H   0  0  0  0  0  0  0  0  0  0  0  0
   -3.5339   -1.0863   -2.0149 H   0  0  0  0  0  0  0  0  0  0  0  0
  1  2  1  0
  2  3  1  0
  2  4  1  0
  4  5  1  0
  5  6  2  0
  5  7  1  0
  7  8  1  0
  8  9  1  0
  9 10  2  0
 10 11  1  0
 11 12  1  0
 12 13  1  0
 12 14  1  6
 14 15  3  0
 12 16  1  0
 16 17  1  0
 17 18  2  0
 18 19  1  0
 19 20  1  0
 19 21  2  0
 21 22  1  0
 11 23  2  0
 23 24  1  0
  4 25  1  0
 25 26  1  0
 26 27  2  0
 27 28  1  0
 28 29  1  0
 28 30  2  0
 30 31  1  0
 24  8  2  0
 31 25  2  0
 22 16  2  0
  1 32  1  0
  1 33  1  0
  1 34  1  0
  2 35  1  0
  3 36  1  0
  3 37  1  0
  3 38  1  0
  4 39  1  1
  7 40  1  0
  9 41  1  0
 10 42  1  0
 13 43  1  0
 17 44  1  0
 18 45  1  0
 21 46  1  0
 22 47  1  0
 23 48  1  0
 24 49  1  0
 26 50  1  0
 27 51  1  0
 30 52  1  0
 31 53  1  0
M  END
>  <_SMILES>  (97) 
CC(C)[C@@H](C(=O)Nc1ccc([C@](O)(C#N)c2ccc(F)cc2)cc1)c1ccc(Br)cc1

$$$$

     RDKit          3D

 53 55  0  0  0  0  0  0  0  0999 V2000
   -4.7815   -2.9164    0.5184 C   0  0  0  0  0  0  0  0  0  0  0  0
   -4.8056   -1.3830    0.4963 C   0  0  0  0  0  0  0  0  0  0  0  0
   -5.0142   -0.8392    1.9133 C   0  0  0  0  0  0  0  0  0  0  0  0
   -3.5785   -0.8012   -0.2621 C   0  0  2  0  0  0  0  0  0  0  0  0
   -2.1943   -1.1157    0.3531 C   0  0  0  0  0  0  0  0  0  0  0  0
   -2.0635   -1.6513    1.4481 O   0  0  0  0  0  0  0  0  0  0  0  0
   -1.1517   -0.7339   -0.4849 N   0  0  0  0  0  0  0  0  0  0  0  0
    0.2318   -0.8934   -0.2703 C   0  0  0  0  0  0  0  0  0  0  0  0
    1.0928   -0.3439   -1.2256 C   0  0  0  0  0  0  0  0  0  0  0  0
    2.4814   -0.4574   -1.0907 C   0  0  0  0  0  0  0  0  0  0  0  0
    3.0504   -1.1264    0.0087 C   0  0  0  0  0  0  0  0  0  0  0  0
    4.5779   -1.2519    0.1461 C   0  0  1  0  0  0  0  0  0  0  0  0
    4.8954   -1.8330    1.4295 O   0  0  0  0  0  0  0  0  0  0  0  0
    5.0967   -2.1740   -0.9094 C   0  0  0  0  0  0  0  0  0  0  0  0
    5.5333   -2.8694   -1.7337 N   0  0  0  0  0  0  0  0  0  0  0  0
    5.2551    0.1375    0.1473 C   0  0  0  0  0  0  0  0  0  0  0  0
    6.1167    0.5746   -0.8790 C   0  0  0  0  0  0  0  0  0  0  0  0
    6.6975    1.8459   -0.8322 C   0  0  0  0  0  0  0  0  0  0  0  0
    6.4231    2.6929    0.2333 C   0  0  0  0  0  0  0  0  0  0  0  0
    6.9817    3.9092    0.2710 F   0  0  0  0  0  0  0  0  0  0  0  0
    5.5764    2.2956    1.2575 C   0  0  0  0  0  0  0  0  0  0  0  0
    4.9950    1.0270    1.2153 C   0  0  0  0  0  0  0  0  0  0  0  0
    2.1738   -1.6827    0.9550 C   0  0  0  0  0  0  0  0  0  0  0  0
    0.7838   -1.5655    0.8179 C   0  0  0  0  0  0  0  0  0  0  0  0
   -3.7620    0.6872   -0.5672 C   0  0  0  0  0  0  0  0  0  0  0  0
   -3.3037    1.6835    0.3104 C   0  0  0  0  0  0  0  0  0  0  0  0
   -3.4824    3.0354    0.0082 C   0  0  0  0  0  0  0  0  0  0  0  0
   -4.1269    3.4016   -1.1704 C   0  0  0  0  0  0  0  0  0  0  0  0
   -4.3686    5.2309   -1.5793 Br  0  0  0  0  0  0  0  0  0  0  0  0
   -4.5979    2.4287   -2.0483 C   0  0  0  0  0  0  0  0  0  0  0  0
   -4.4186    1.0768   -1.7464 C   0  0  0  0  0  0  0  0  0  0  0  0
   -5.7229   -3.3082    0.9191 H   0  0  0  0  0  0  0  0  0  0  0  0
   -3.9715   -3.3076    1.1407 H   0  0  0  0  0  0  0  0  0  0  0  0
   -4.6613   -3.3196   -0.4926 H   0  0  0  0  0  0  0  0  0  0  0  0
   -5.7026   -1.1036   -0.0751 H   0  0  0  0  0  0  0  0  0  0  0  0
   -4.1771   -1.0705    2.5769 H   0  0  0  0  0  0  0  0  0  0  0  0
   -5.1596    0.2446    1.9100 H   0  0  0  0  0  0  0  0  0  0  0  0
   -5.9138   -1.2784    2.3594 H   0  0  0  0  0  0  0  0  0  0  0  0
   -3.5512   -1.3151   -1.2366 H   0  0  0  0  0  0  0  0  0  0  0  0
   -1.4129   -0.2272   -1.3227 H   0  0  0  0  0  0  0  0  0  0  0  0
    0.6989    0.1849   -2.0903 H   0  0  0  0  0  0  0  0  0  0  0  0
    3.1127   -0.0131   -1.8588 H   0  0  0  0  0  0  0  0  0  0  0  0
    5.8516   -1.7102    1.5600 H   0  0  0  0  0  0  0  0  0  0  0  0
    6.3543   -0.0550   -1.7354 H   0  0  0  0  0  0  0  0  0  0  0  0
    7.3621    2.1806   -1.6234 H   0  0  0  0  0  0  0  0  0  0  0  0
    5.3709    2.9737    2.0801 H   0  0  0  0  0  0  0  0  0  0  0  0
    4.3264    0.7300    2.0241 H   0  0  0  0  0  0  0  0  0  0  0  0
    2.5592   -2.2215    1.8198 H   0  0  0  0  0  0  0  0  0  0  0  0
    0.1631   -2.0218    1.5831 H   0  0  0  0  0  0  0  0  0  0  0  0
   -2.8078    1.4187    1.2437 H   0  0  0  0  0  0  0  0  0  0  0  0
   -3.1202    3.7910    0.7008 H   0  0  0  0  0  0  0  0  0  0  0  0
   -5.1093    2.7109   -2.9651 H   0  0  0  0  0  0  0  0  0  0  0  0
   -4.8021    0.3290   -2.4383 H   0  0  0  0  0  0  0  0  0  0  0  0
  1  2  1  0
  2  3  1  0
  2  4  1  0
  4  5  1  0
  5  6  2  0
  5  7  1  0
  7  8  1  0
  8  9  1  0
  9 10  2  0
 10 11  1  0
 11 12  1  0
 12 13  1  0
 12 14  1  6
 14 15  3  0
 12 16  1  0
 16 17  1  0
 17 18  2  0
 18 19  1  0
 19 20  1  0
 19 21  2  0
 21 22  1  0
 11 23  2  0
 23 24  1  0
  4 25  1  0
 25 26  1  0
 26 27  2  0
 27 28  1  0
 28 29  1  0
 28 30  2  0
 30 31  1  0
 24  8  2  0
 31 25  2  0
 22 16  2  0
  1 32  1  0
  1 33  1  0
  1 34  1  0
  2 35  1  0
  3 36  1  0
  3 37  1  0
  3 38  1  0
  4 39  1  6
  7 40  1  0
  9 41  1  0
 10 42  1  0
 13 43  1  0
 17 44  1  0
 18 45  1  0
 21 46  1  0
 22 47  1  0
 23 48  1  0
 24 49  1  0
 26 50  1  0
 27 51  1  0
 30 52  1  0
 31 53  1  0
M  END
>  <_SMILES>  (98) 
CC(C)[C@H](C(=O)Nc1ccc([C@@](O)(C#N)c2ccc(F)cc2)cc1)c1ccc(Br)cc1

$$$$

     RDKit          3D

 53 55  0  0  0  0  0  0  0  0999 V2000
   -3.6270    0.1746   -2.6240 C   0  0  0  0  0  0  0  0  0  0  0  0
   -3.9184   -1.2298   -2.0860 C   0  0  0  0  0  0  0  0  0  0  0  0
   -5.4203   -1.5322   -2.1061 C   0  0  0  0  0  0  0  0  0  0  0  0
   -3.2473   -1.5985   -0.7289 C   0  0  1  0  0  0  0  0  0  0  0  0
   -1.7129   -1.4800   -0.8644 C   0  0  0  0  0  0  0  0  0  0  0  0
   -1.0636   -2.4213   -1.3159 O   0  0  0  0  0  0  0  0  0  0  0  0
   -1.2007   -0.2460   -0.4977 N   0  0  0  0  0  0  0  0  0  0  0  0
    0.1415    0.1797   -0.5404 C   0  0  0  0  0  0  0  0  0  0  0  0
    0.4169    1.4690   -0.0730 C   0  0  0  0  0  0  0  0  0  0  0  0
    1.7225    1.9776   -0.0797 C   0  0  0  0  0  0  0  0  0  0  0  0
    2.7937    1.2066   -0.5600 C   0  0  0  0  0  0  0  0  0  0  0  0
    4.2535    1.7079   -0.5883 C   0  0  1  0  0  0  0  0  0  0  0  0
    4.7093    1.5006   -1.9435 O   0  0  0  0  0  0  0  0  0  0  0  0
    4.3930    3.1643   -0.2831 C   0  0  0  0  0  0  0  0  0  0  0  0
    4.4646    4.3029   -0.0549 N   0  0  0  0  0  0  0  0  0  0  0  0
    5.1486    0.9001    0.3712 C   0  0  0  0  0  0  0  0  0  0  0  0
    4.7959    0.7569    1.7312 C   0  0  0  0  0  0  0  0  0  0  0  0
    5.6074    0.0365    2.6109 C   0  0  0  0  0  0  0  0  0  0  0  0
    6.7802   -0.5420    2.1455 C   0  0  0  0  0  0  0  0  0  0  0  0
    7.5570   -1.2320    2.9905 F   0  0  0  0  0  0  0  0  0  0  0  0
    7.1597   -0.4122    0.8168 C   0  0  0  0  0  0  0  0  0  0  0  0
    6.3505    0.3073   -0.0662 C   0  0  0  0  0  0  0  0  0  0  0  0
    2.5018   -0.0918   -1.0231 C   0  0  0  0  0  0  0  0  0  0  0  0
    1.1954   -0.5962   -1.0152 C   0  0  0  0  0  0  0  0  0  0  0  0
   -3.7575   -1.0264    0.5963 C   0  0  0  0  0  0  0  0  0  0  0  0
   -4.5724    0.1059    0.7168 C   0  0  0  0  0  0  0  0  0  0  0  0
   -4.9708    0.5769    1.9738 C   0  0  0  0  0  0  0  0  0  0  0  0
   -4.5575   -0.0799    3.1284 C   0  0  0  0  0  0  0  0  0  0  0  0
   -5.0962    0.5627    4.8212 Br  0  0  0  0  0  0  0  0  0  0  0  0
   -3.7503   -1.2070    3.0392 C   0  0  0  0  0  0  0  0  0  0  0  0
   -3.3559   -1.6748    1.7834 C   0  0  0  0  0  0  0  0  0  0  0  0
   -4.1469    0.3326   -3.5758 H   0  0  0  0  0  0  0  0  0  0  0  0
   -3.9396    0.9699   -1.9469 H   0  0  0  0  0  0  0  0  0  0  0  0
   -2.5593    0.3061   -2.8250 H   0  0  0  0  0  0  0  0  0  0  0  0
   -3.4753   -1.9108   -2.8290 H   0  0  0  0  0  0  0  0  0  0  0  0
   -5.9988   -0.8277   -1.5040 H   0  0  0  0  0  0  0  0  0  0  0  0
   -5.8057   -1.4754   -3.1303 H   0  0  0  0  0  0  0  0  0  0  0  0
   -5.6201   -2.5435   -1.7367 H   0  0  0  0  0  0  0  0  0  0  0  0
   -3.4268   -2.6818   -0.6232 H   0  0  0  0  0  0  0  0  0  0  0  0
   -1.8610    0.4189   -0.1129 H   0  0  0  0  0  0  0  0  0  0  0  0
   -0.3812    2.1020    0.3093 H   0  0  0  0  0  0  0  0  0  0  0  0
    1.8699    2.9862    0.3041 H   0  0  0  0  0  0  0  0  0  0  0  0
    3.9806    1.7752   -2.5269 H   0  0  0  0  0  0  0  0  0  0  0  0
    3.8823    1.2041    2.1202 H   0  0  0  0  0  0  0  0  0  0  0  0
    5.3322   -0.0753    3.6551 H   0  0  0  0  0  0  0  0  0  0  0  0
    8.0831   -0.8689    0.4746 H   0  0  0  0  0  0  0  0  0  0  0  0
    6.6700    0.4010   -1.1032 H   0  0  0  0  0  0  0  0  0  0  0  0
    3.3011   -0.7333   -1.3960 H   0  0  0  0  0  0  0  0  0  0  0  0
    1.0420   -1.6046   -1.3875 H   0  0  0  0  0  0  0  0  0  0  0  0
   -4.9330    0.6489   -0.1492 H   0  0  0  0  0  0  0  0  0  0  0  0
   -5.6091    1.4550    2.0377 H   0  0  0  0  0  0  0  0  0  0  0  0
   -3.4230   -1.7301    3.9340 H   0  0  0  0  0  0  0  0  0  0  0  0
   -2.7220   -2.5610    1.7367 H   0  0  0  0  0  0  0  0  0  0  0  0
  1  2  1  0
  2  3  1  0
  2  4  1  0
  4  5  1  0
  5  6  2  0
  5  7  1  0
  7  8  1  0
  8  9  1  0
  9 10  2  0
 10 11  1  0
 11 12  1  0
 12 13  1  0
 12 14  1  1
 14 15  3  0
 12 16  1  0
 16 17  1  0
 17 18  2  0
 18 19  1  0
 19 20  1  0
 19 21  2  0
 21 22  1  0
 11 23  2  0
 23 24  1  0
  4 25  1  0
 25 26  1  0
 26 27  2  0
 27 28  1  0
 28 29  1  0
 28 30  2  0
 30 31  1  0
 24  8  2  0
 31 25  2  0
 22 16  2  0
  1 32  1  0
  1 33  1  0
  1 34  1  0
  2 35  1  0
  3 36  1  0
  3 37  1  0
  3 38  1  0
  4 39  1  1
  7 40  1  0
  9 41  1  0
 10 42  1  0
 13 43  1  0
 17 44  1  0
 18 45  1  0
 21 46  1  0
 22 47  1  0
 23 48  1  0
 24 49  1  0
 26 50  1  0
 27 51  1  0
 30 52  1  0
 31 53  1  0
M  END
>  <_SMILES>  (99) 
CC(C)[C@@H](C(=O)Nc1ccc([C@@](O)(C#N)c2ccc(F)cc2)cc1)c1ccc(Br)cc1

$$$$

     RDKit          3D

 64 67  0  0  0  0  0  0  0  0999 V2000
   -3.3726   -0.5387    0.8173 O   0  0  0  0  0  0  0  0  0  0  0  0
   -2.4480   -1.2942    1.1066 C   0  0  0  0  0  0  0  0  0  0  0  0
   -1.0045   -0.8262    1.1834 C   0  0  0  0  0  0  0  0  0  0  0  0
   -0.7843    0.5960    0.6575 C   0  0  0  0  0  0  0  0  0  0  0  0
   -0.9647    0.6917   -0.8668 C   0  0  0  0  0  0  0  0  0  0  0  0
   -0.2361    1.8590   -1.5808 C   0  0  2  0  0  0  0  0  0  0  0  0
    1.2541    1.9497   -1.1810 C   0  0  0  0  0  0  0  0  0  0  0  0
    1.7507    2.8988   -0.5810 O   0  0  0  0  0  0  0  0  0  0  0  0
    1.9917    0.8353   -1.5437 N   0  0  0  0  0  0  0  0  0  0  0  0
    3.3640    0.6433   -1.0789 C   0  0  2  0  0  0  0  0  0  0  0  0
    4.0950   -0.4002   -1.9263 C   0  0  0  0  0  0  0  0  0  0  0  0
    3.4813   -1.7952   -1.7887 C   0  0  0  0  0  0  0  0  0  0  0  0
    3.0874   -2.1605   -0.3785 C   0  0  0  0  0  0  0  0  0  0  0  0
    2.7352   -3.4893   -0.0962 C   0  0  0  0  0  0  0  0  0  0  0  0
    2.3597   -3.8688    1.1923 C   0  0  0  0  0  0  0  0  0  0  0  0
    2.3266   -2.9237    2.2131 C   0  0  0  0  0  0  0  0  0  0  0  0
    2.6592   -1.5970    1.9428 C   0  0  0  0  0  0  0  0  0  0  0  0
    3.0274   -1.2011    0.6475 C   0  0  0  0  0  0  0  0  0  0  0  0
    3.4230    0.2377    0.4044 C   0  0  0  0  0  0  0  0  0  0  0  0
   -0.9262    3.2254   -1.5144 C   0  0  0  0  0  0  0  0  0  0  0  0
   -1.1545    4.0115   -2.5938 C   0  0  0  0  0  0  0  0  0  0  0  0
   -0.6414    3.5848   -4.3531 Br  0  0  0  0  0  0  0  0  0  0  0  0
   -1.8390    5.3583   -2.5206 C   0  0  0  0  0  0  0  0  0  0  0  0
   -2.5165    5.6373   -1.1817 C   0  0  0  0  0  0  0  0  0  0  0  0
   -1.6233    5.1990   -0.0346 C   0  0  0  0  0  0  0  0  0  0  0  0
   -1.3300    3.7022   -0.1310 C   0  0  0  0  0  0  0  0  0  0  0  0
   -2.7519   -2.7274    1.4077 C   0  0  0  0  0  0  0  0  0  0  0  0
   -4.0644   -3.1848    1.2257 C   0  0  0  0  0  0  0  0  0  0  0  0
   -4.3953   -4.5165    1.4915 C   0  0  0  0  0  0  0  0  0  0  0  0
   -3.4174   -5.4049    1.9435 C   0  0  0  0  0  0  0  0  0  0  0  0
   -3.8903   -7.0366    2.2512 Cl  0  0  0  0  0  0  0  0  0  0  0  0
   -2.1060   -4.9538    2.1309 C   0  0  0  0  0  0  0  0  0  0  0  0
   -0.8417   -5.9924    2.6898 Cl  0  0  0  0  0  0  0  0  0  0  0  0
   -1.7748   -3.6189    1.8653 C   0  0  0  0  0  0  0  0  0  0  0  0
   -0.3691   -1.5163    0.6180 H   0  0  0  0  0  0  0  0  0  0  0  0
   -0.7054   -0.8536    2.2377 H   0  0  0  0  0  0  0  0  0  0  0  0
   -1.4713    1.2797    1.1651 H   0  0  0  0  0  0  0  0  0  0  0  0
    0.2288    0.8947    0.9430 H   0  0  0  0  0  0  0  0  0  0  0  0
   -0.6074   -0.2452   -1.3145 H   0  0  0  0  0  0  0  0  0  0  0  0
   -2.0347    0.7382   -1.1055 H   0  0  0  0  0  0  0  0  0  0  0  0
   -0.2180    1.5444   -2.6315 H   0  0  0  0  0  0  0  0  0  0  0  0
    1.4820    0.0177   -1.8489 H   0  0  0  0  0  0  0  0  0  0  0  0
    3.8734    1.6089   -1.1887 H   0  0  0  0  0  0  0  0  0  0  0  0
    4.0965   -0.1080   -2.9833 H   0  0  0  0  0  0  0  0  0  0  0  0
    5.1454   -0.4395   -1.6086 H   0  0  0  0  0  0  0  0  0  0  0  0
    4.1998   -2.5306   -2.1713 H   0  0  0  0  0  0  0  0  0  0  0  0
    2.5858   -1.8620   -2.4190 H   0  0  0  0  0  0  0  0  0  0  0  0
    2.7656   -4.2423   -0.8814 H   0  0  0  0  0  0  0  0  0  0  0  0
    2.1070   -4.9055    1.4013 H   0  0  0  0  0  0  0  0  0  0  0  0
    2.0531   -3.2219    3.2220 H   0  0  0  0  0  0  0  0  0  0  0  0
    2.6400   -0.8689    2.7517 H   0  0  0  0  0  0  0  0  0  0  0  0
    2.7862    0.9003    1.0024 H   0  0  0  0  0  0  0  0  0  0  0  0
    4.4521    0.3602    0.7662 H   0  0  0  0  0  0  0  0  0  0  0  0
   -1.0896    6.1386   -2.7078 H   0  0  0  0  0  0  0  0  0  0  0  0
   -2.5981    5.4470   -3.3077 H   0  0  0  0  0  0  0  0  0  0  0  0
   -2.7459    6.7055   -1.0978 H   0  0  0  0  0  0  0  0  0  0  0  0
   -3.4723    5.1004   -1.1308 H   0  0  0  0  0  0  0  0  0  0  0  0
   -0.6832    5.7647   -0.0585 H   0  0  0  0  0  0  0  0  0  0  0  0
   -2.1054    5.4194    0.9244 H   0  0  0  0  0  0  0  0  0  0  0  0
   -0.5458    3.4719    0.5980 H   0  0  0  0  0  0  0  0  0  0  0  0
   -2.2317    3.1548    0.1690 H   0  0  0  0  0  0  0  0  0  0  0  0
   -4.8399   -2.5045    0.8741 H   0  0  0  0  0  0  0  0  0  0  0  0
   -5.4197   -4.8519    1.3430 H   0  0  0  0  0  0  0  0  0  0  0  0
   -0.7505   -3.2958    2.0258 H   0  0  0  0  0  0  0  0  0  0  0  0
  1  2  2  0
  2  3  1  0
  3  4  1  0
  4  5  1  0
  5  6  1  0
  6  7  1  0
  7  8  2  0
  7  9  1  0
  9 10  1  0
 10 11  1  0
 11 12  1  0
 12 13  1  0
 13 14  2  0
 14 15  1  0
 15 16  2  0
 16 17  1  0
 17 18  2  0
 18 19  1  0
  6 20  1  0
 20 21  2  0
 21 22  1  0
 21 23  1  0
 23 24  1  0
 24 25  1  0
 25 26  1  0
  2 27  1  0
 27 28  1  0
 28 29  2  0
 29 30  1  0
 30 31  1  0
 30 32  2  0
 32 33  1  0
 32 34  1  0
 19 10  1  0
 26 20  1  0
 34 27  2  0
 18 13  1  0
  3 35  1  0
  3 36  1  0
  4 37  1  0
  4 38  1  0
  5 39  1  0
  5 40  1  0
  6 41  1  6
  9 42  1  0
 10 43  1  1
 11 44  1  0
 11 45  1  0
 12 46  1  0
 12 47  1  0
 14 48  1  0
 15 49  1  0
 16 50  1  0
 17 51  1  0
 19 52  1  0
 19 53  1  0
 23 54  1  0
 23 55  1  0
 24 56  1  0
 24 57  1  0
 25 58  1  0
 25 59  1  0
 26 60  1  0
 26 61  1  0
 28 62  1  0
 29 63  1  0
 34 64  1  0
M  END
>  <_SMILES>  (100) 
O=C(CCC[C@H](C(=O)N[C@@H]1CCc2ccccc2C1)C1=C(Br)CCCC1)c1ccc(Cl)c(Cl)c1

$$$$

     RDKit          3D

 55 58  0  0  0  0  0  0  0  0999 V2000
    2.7737    1.1058   -2.6479 O   0  0  0  0  0  0  0  0  0  0  0  0
    2.0371    0.9100   -1.6849 C   0  0  0  0  0  0  0  0  0  0  0  0
    2.3771    1.2472   -0.3962 N   0  0  0  0  0  0  0  0  0  0  0  0
    3.6988    1.7255   -0.0570 C   0  0  0  0  0  0  0  0  0  0  0  0
    4.4971    0.6305    0.6016 C   0  0  0  0  0  0  0  0  0  0  0  0
    4.6220    0.5709    1.9968 C   0  0  0  0  0  0  0  0  0  0  0  0
    5.3407   -0.4639    2.5981 C   0  0  0  0  0  0  0  0  0  0  0  0
    5.9348   -1.4506    1.8129 C   0  0  0  0  0  0  0  0  0  0  0  0
    5.8105   -1.4054    0.4257 C   0  0  0  0  0  0  0  0  0  0  0  0
    5.0936   -0.3716   -0.1776 C   0  0  0  0  0  0  0  0  0  0  0  0
    0.6675    0.2651   -1.8542 C   0  0  2  0  0  0  0  0  0  0  0  0
   -0.4835    1.1640   -1.3828 C   0  0  0  0  0  0  0  0  0  0  0  0
   -1.4736    0.2192   -0.6883 C   0  0  2  0  0  0  0  0  0  0  0  0
   -2.4041    0.9291    0.3050 C   0  0  0  0  0  0  0  0  0  0  0  0
   -3.3841    1.8545   -0.3745 C   0  0  0  0  0  0  0  0  0  0  0  0
   -3.1622    3.2375   -0.4013 C   0  0  0  0  0  0  0  0  0  0  0  0
   -4.0648    4.0859   -1.0446 C   0  0  0  0  0  0  0  0  0  0  0  0
   -5.1959    3.5606   -1.6666 C   0  0  0  0  0  0  0  0  0  0  0  0
   -5.4259    2.1864   -1.6462 C   0  0  0  0  0  0  0  0  0  0  0  0
   -4.5243    1.3365   -1.0041 C   0  0  0  0  0  0  0  0  0  0  0  0
   -0.5355   -0.7941   -0.0068 C   0  0  1  0  0  0  0  0  0  0  0  0
   -1.1946   -2.0595    0.4927 C   0  0  0  0  0  0  0  0  0  0  0  0
   -0.9970   -2.4652    1.8216 C   0  0  0  0  0  0  0  0  0  0  0  0
   -1.5956   -3.6281    2.3108 C   0  0  0  0  0  0  0  0  0  0  0  0
   -2.3977   -4.4037    1.4781 C   0  0  0  0  0  0  0  0  0  0  0  0
   -2.5992   -4.0183    0.1554 C   0  0  0  0  0  0  0  0  0  0  0  0
   -2.0010   -2.8555   -0.3346 C   0  0  0  0  0  0  0  0  0  0  0  0
    0.5358   -1.0530   -1.0758 C   0  0  0  0  0  0  0  0  0  0  0  0
    1.8089    0.9114    0.3667 H   0  0  0  0  0  0  0  0  0  0  0  0
    3.5700    2.5704    0.6285 H   0  0  0  0  0  0  0  0  0  0  0  0
    4.2252    2.1012   -0.9413 H   0  0  0  0  0  0  0  0  0  0  0  0
    4.1633    1.3311    2.6247 H   0  0  0  0  0  0  0  0  0  0  0  0
    5.4381   -0.5012    3.6801 H   0  0  0  0  0  0  0  0  0  0  0  0
    6.4942   -2.2559    2.2816 H   0  0  0  0  0  0  0  0  0  0  0  0
    6.2702   -2.1757   -0.1882 H   0  0  0  0  0  0  0  0  0  0  0  0
    4.9962   -0.3488   -1.2623 H   0  0  0  0  0  0  0  0  0  0  0  0
    0.5448    0.0525   -2.9244 H   0  0  0  0  0  0  0  0  0  0  0  0
   -0.9517    1.6734   -2.2326 H   0  0  0  0  0  0  0  0  0  0  0  0
   -0.1377    1.9451   -0.6959 H   0  0  0  0  0  0  0  0  0  0  0  0
   -2.0730   -0.2763   -1.4637 H   0  0  0  0  0  0  0  0  0  0  0  0
   -1.8176    1.4884    1.0454 H   0  0  0  0  0  0  0  0  0  0  0  0
   -2.9767    0.1908    0.8808 H   0  0  0  0  0  0  0  0  0  0  0  0
   -2.2834    3.6640    0.0763 H   0  0  0  0  0  0  0  0  0  0  0  0
   -3.8848    5.1576   -1.0614 H   0  0  0  0  0  0  0  0  0  0  0  0
   -5.8978    4.2220   -2.1673 H   0  0  0  0  0  0  0  0  0  0  0  0
   -6.3077    1.7758   -2.1308 H   0  0  0  0  0  0  0  0  0  0  0  0
   -4.7160    0.2657   -0.9958 H   0  0  0  0  0  0  0  0  0  0  0  0
   -0.0511   -0.2916    0.8427 H   0  0  0  0  0  0  0  0  0  0  0  0
   -0.3724   -1.8784    2.4916 H   0  0  0  0  0  0  0  0  0  0  0  0
   -1.4337   -3.9291    3.3426 H   0  0  0  0  0  0  0  0  0  0  0  0
   -2.8625   -5.3094    1.8583 H   0  0  0  0  0  0  0  0  0  0  0  0
   -3.2207   -4.6250   -0.4981 H   0  0  0  0  0  0  0  0  0  0  0  0
   -2.1691   -2.5837   -1.3741 H   0  0  0  0  0  0  0  0  0  0  0  0
    0.2199   -1.8407   -1.7714 H   0  0  0  0  0  0  0  0  0  0  0  0
    1.4752   -1.3934   -0.6256 H   0  0  0  0  0  0  0  0  0  0  0  0
  1  2  2  0
  2  3  1  0
  3  4  1  0
  4  5  1  0
  5  6  2  0
  6  7  1  0
  7  8  2  0
  8  9  1  0
  9 10  2  0
  2 11  1  0
 11 12  1  0
 12 13  1  0
 13 14  1  0
 14 15  1  0
 15 16  2  0
 16 17  1  0
 17 18  2  0
 18 19  1  0
 19 20  2  0
 13 21  1  0
 21 22  1  0
 22 23  2  0
 23 24  1  0
 24 25  2  0
 25 26  1  0
 26 27  2  0
 21 28  1  0
 10  5  1  0
 28 11  1  0
 20 15  1  0
 27 22  1  0
  3 29  1  0
  4 30  1  0
  4 31  1  0
  6 32  1  0
  7 33  1  0
  8 34  1  0
  9 35  1  0
 10 36  1  0
 11 37  1  6
 12 38  1  0
 12 39  1  0
 13 40  1  6
 14 41  1  0
 14 42  1  0
 16 43  1  0
 17 44  1  0
 18 45  1  0
 19 46  1  0
 20 47  1  0
 21 48  1  1
 23 49  1  0
 24 50  1  0
 25 51  1  0
 26 52  1  0
 27 53  1  0
 28 54  1  0
 28 55  1  0
M  END
>  <_SMILES>  (101) 
O=C(NCc1ccccc1)[C@@H]1C[C@H](Cc2ccccc2)[C@@H](c2ccccc2)C1

$$$$

     RDKit          3D

 65 70  0  0  0  0  0  0  0  0999 V2000
   -1.3415    1.7360    1.1453 O   0  0  0  0  0  0  0  0  0  0  0  0
   -0.7838    0.6988    0.8017 C   0  0  0  0  0  0  0  0  0  0  0  0
   -1.4563   -0.3899    0.2709 N   0  0  0  0  0  0  0  0  0  0  0  0
   -2.9056   -0.4517    0.0512 C   0  0  2  0  0  0  0  0  0  0  0  0
   -3.6923   -0.3317    1.3798 C   0  0  0  0  0  0  0  0  0  0  0  0
   -5.2053   -0.4535    1.1255 C   0  0  1  0  0  0  0  0  0  0  0  0
   -5.6479    0.6583    0.1589 C   0  0  0  0  0  0  0  0  0  0  0  0
   -4.9005    0.5260   -1.1790 C   0  0  2  0  0  0  0  0  0  0  0  0
   -5.2036   -0.8485   -1.7955 C   0  0  0  0  0  0  0  0  0  0  0  0
   -4.7545   -1.9628   -0.8378 C   0  0  2  0  0  0  0  0  0  0  0  0
   -5.5062   -1.8224    0.4951 C   0  0  0  0  0  0  0  0  0  0  0  0
   -3.2451   -1.8291   -0.5816 C   0  0  0  0  0  0  0  0  0  0  0  0
   -3.3871    0.6489   -0.9278 C   0  0  0  0  0  0  0  0  0  0  0  0
    0.7370    0.4704    0.9441 C   0  0  1  0  0  0  0  0  0  0  0  0
    1.3908    0.1718   -0.3973 C   0  0  0  0  0  0  0  0  0  0  0  0
    2.8024    0.7008   -0.2185 C   0  0  2  0  0  0  0  0  0  0  0  0
    3.7176   -0.3128    0.4848 C   0  0  0  0  0  0  0  0  0  0  0  0
    3.8579   -1.4527   -0.3646 O   0  0  0  0  0  0  0  0  0  0  0  0
    4.6301   -2.4829    0.0964 C   0  0  0  0  0  0  0  0  0  0  0  0
    4.7150   -3.5786   -0.7670 C   0  0  0  0  0  0  0  0  0  0  0  0
    5.4692   -4.7010   -0.4208 C   0  0  0  0  0  0  0  0  0  0  0  0
    6.1459   -4.7332    0.7957 C   0  0  0  0  0  0  0  0  0  0  0  0
    6.0673   -3.6437    1.6614 C   0  0  0  0  0  0  0  0  0  0  0  0
    5.3115   -2.5193    1.3137 C   0  0  0  0  0  0  0  0  0  0  0  0
    2.5714    1.9195    0.6749 C   0  0  1  0  0  0  0  0  0  0  0  0
    2.3345    3.2060   -0.1004 C   0  0  0  0  0  0  0  0  0  0  0  0
    3.3393    3.6999   -0.9514 C   0  0  0  0  0  0  0  0  0  0  0  0
    3.1551    4.8835   -1.6698 C   0  0  0  0  0  0  0  0  0  0  0  0
    1.9678    5.5986   -1.5417 C   0  0  0  0  0  0  0  0  0  0  0  0
    0.9691    5.1343   -0.6901 C   0  0  0  0  0  0  0  0  0  0  0  0
    1.1536    3.9511    0.0293 C   0  0  0  0  0  0  0  0  0  0  0  0
    1.4512    1.5758    1.5126 O   0  0  0  0  0  0  0  0  0  0  0  0
   -0.9307   -1.2424    0.1267 H   0  0  0  0  0  0  0  0  0  0  0  0
   -3.4894    0.6273    1.8707 H   0  0  0  0  0  0  0  0  0  0  0  0
   -3.3676   -1.1105    2.0822 H   0  0  0  0  0  0  0  0  0  0  0  0
   -5.7472   -0.3567    2.0730 H   0  0  0  0  0  0  0  0  0  0  0  0
   -6.7301    0.5974   -0.0101 H   0  0  0  0  0  0  0  0  0  0  0  0
   -5.4502    1.6417    0.6031 H   0  0  0  0  0  0  0  0  0  0  0  0
   -5.2258    1.3171   -1.8638 H   0  0  0  0  0  0  0  0  0  0  0  0
   -4.6870   -0.9500   -2.7579 H   0  0  0  0  0  0  0  0  0  0  0  0
   -6.2775   -0.9394   -1.9995 H   0  0  0  0  0  0  0  0  0  0  0  0
   -4.9694   -2.9410   -1.2821 H   0  0  0  0  0  0  0  0  0  0  0  0
   -5.2074   -2.6248    1.1808 H   0  0  0  0  0  0  0  0  0  0  0  0
   -6.5853   -1.9301    0.3301 H   0  0  0  0  0  0  0  0  0  0  0  0
   -2.6966   -1.9562   -1.5246 H   0  0  0  0  0  0  0  0  0  0  0  0
   -2.9100   -2.6404    0.0786 H   0  0  0  0  0  0  0  0  0  0  0  0
   -2.8427    0.5726   -1.8782 H   0  0  0  0  0  0  0  0  0  0  0  0
   -3.1740    1.6488   -0.5327 H   0  0  0  0  0  0  0  0  0  0  0  0
    0.8709   -0.3730    1.6326 H   0  0  0  0  0  0  0  0  0  0  0  0
    0.8889    0.7268   -1.2006 H   0  0  0  0  0  0  0  0  0  0  0  0
    1.3385   -0.8891   -0.6607 H   0  0  0  0  0  0  0  0  0  0  0  0
    3.2423    0.9348   -1.1944 H   0  0  0  0  0  0  0  0  0  0  0  0
    3.2941   -0.6132    1.4508 H   0  0  0  0  0  0  0  0  0  0  0  0
    4.7006    0.1475    0.6449 H   0  0  0  0  0  0  0  0  0  0  0  0
    4.1901   -3.5569   -1.7188 H   0  0  0  0  0  0  0  0  0  0  0  0
    5.5284   -5.5464   -1.1010 H   0  0  0  0  0  0  0  0  0  0  0  0
    6.7350   -5.6049    1.0687 H   0  0  0  0  0  0  0  0  0  0  0  0
    6.5970   -3.6676    2.6107 H   0  0  0  0  0  0  0  0  0  0  0  0
    5.2796   -1.6928    2.0153 H   0  0  0  0  0  0  0  0  0  0  0  0
    3.4224    2.1054    1.3416 H   0  0  0  0  0  0  0  0  0  0  0  0
    4.2807    3.1655   -1.0600 H   0  0  0  0  0  0  0  0  0  0  0  0
    3.9403    5.2489   -2.3264 H   0  0  0  0  0  0  0  0  0  0  0  0
    1.8221    6.5203   -2.0982 H   0  0  0  0  0  0  0  0  0  0  0  0
    0.0431    5.6923   -0.5776 H   0  0  0  0  0  0  0  0  0  0  0  0
    0.3601    3.6225    0.6985 H   0  0  0  0  0  0  0  0  0  0  0  0
  1  2  2  0
  2  3  1  0
  4  3  1  1
  4  5  1  0
  5  6  1  0
  6  7  1  0
  7  8  1  0
  8  9  1  0
  9 10  1  0
 10 11  1  0
 10 12  1  0
  8 13  1  0
  2 14  1  0
 14 15  1  0
 15 16  1  0
 16 17  1  0
 17 18  1  0
 18 19  1  0
 19 20  2  0
 20 21  1  0
 21 22  2  0
 22 23  1  0
 23 24  2  0
 16 25  1  0
 25 26  1  0
 26 27  2  0
 27 28  1  0
 28 29  2  0
 29 30  1  0
 30 31  2  0
 25 32  1  0
 12  4  1  0
 32 14  1  0
 13  4  1  0
 24 19  1  0
 31 26  1  0
 11  6  1  0
  3 33  1  0
  5 34  1  0
  5 35  1  0
  6 36  1  1
  7 37  1  0
  7 38  1  0
  8 39  1  6
  9 40  1  0
  9 41  1  0
 10 42  1  6
 11 43  1  0
 11 44  1  0
 12 45  1  0
 12 46  1  0
 13 47  1  0
 13 48  1  0
 14 49  1  1
 15 50  1  0
 15 51  1  0
 16 52  1  6
 17 53  1  0
 17 54  1  0
 20 55  1  0
 21 56  1  0
 22 57  1  0
 23 58  1  0
 24 59  1  0
 25 60  1  1
 27 61  1  0
 28 62  1  0
 29 63  1  0
 30 64  1  0
 31 65  1  0
M  END
>  <_SMILES>  (102) 
O=C(N[C@]12C[C@H]3C[C@H](C[C@H](C3)C1)C2)[C@H]1C[C@H](COc2ccccc2)[C@@H](c2ccccc2)O1

$$$$

     RDKit          3D

 52 54  0  0  0  0  0  0  0  0999 V2000
    0.5783    3.3961   -1.0310 O   0  0  0  0  0  0  0  0  0  0  0  0
   -0.5742    3.4274   -0.6051 C   0  0  0  0  0  0  0  0  0  0  0  0
   -1.0218    4.4041    0.2480 N   0  0  0  0  0  0  0  0  0  0  0  0
   -0.1070    5.4506    0.5046 O   0  0  0  0  0  0  0  0  0  0  0  0
   -1.5956    2.3580   -0.9317 C   0  0  2  0  0  0  0  0  0  0  0  0
   -1.8808    1.4717    0.2846 C   0  0  0  0  0  0  0  0  0  0  0  0
   -1.7265    0.0306   -0.2077 C   0  0  2  0  0  0  0  0  0  0  0  0
   -1.4502   -1.0189    0.8886 C   0  0  0  0  0  0  0  0  0  0  0  0
   -1.2739   -2.4474    0.3224 C   0  0  0  0  0  0  0  0  0  0  0  0
   -2.5546   -3.2703    0.4021 C   0  0  0  0  0  0  0  0  0  0  0  0
   -3.0276   -3.4451    1.8453 C   0  0  0  0  0  0  0  0  0  0  0  0
   -2.6550   -2.2701    2.7490 C   0  0  0  0  0  0  0  0  0  0  0  0
   -2.5625   -0.9684    1.9633 C   0  0  0  0  0  0  0  0  0  0  0  0
   -0.6529    0.1478   -1.2833 N   0  0  2  0  0  0  0  0  0  0  0  0
    0.7946    0.1523   -0.7937 C   0  0  0  0  0  0  0  0  0  0  0  0
    1.7958    0.1696   -1.9542 C   0  0  0  0  0  0  0  0  0  0  0  0
    3.2080    0.0423   -1.4395 C   0  0  0  0  0  0  0  0  0  0  0  0
    3.8869    1.1732   -0.9606 C   0  0  0  0  0  0  0  0  0  0  0  0
    5.1850    1.0575   -0.4586 C   0  0  0  0  0  0  0  0  0  0  0  0
    5.8094   -0.1870   -0.4314 C   0  0  0  0  0  0  0  0  0  0  0  0
    7.4058   -0.3297    0.1904 Cl  0  0  0  0  0  0  0  0  0  0  0  0
    5.1464   -1.3175   -0.9039 C   0  0  0  0  0  0  0  0  0  0  0  0
    3.8478   -1.2048   -1.4065 C   0  0  0  0  0  0  0  0  0  0  0  0
   -1.0679    1.4201   -2.0135 C   0  0  0  0  0  0  0  0  0  0  0  0
   -2.0015    4.6588    0.3454 H   0  0  0  0  0  0  0  0  0  0  0  0
    0.6808    5.2147   -0.0310 H   0  0  0  0  0  0  0  0  0  0  0  0
   -2.5043    2.8580   -1.2876 H   0  0  0  0  0  0  0  0  0  0  0  0
   -1.1855    1.6771    1.1077 H   0  0  0  0  0  0  0  0  0  0  0  0
   -2.8927    1.6486    0.6656 H   0  0  0  0  0  0  0  0  0  0  0  0
   -2.6364   -0.2589   -0.7524 H   0  0  0  0  0  0  0  0  0  0  0  0
   -0.5147   -0.7538    1.3981 H   0  0  0  0  0  0  0  0  0  0  0  0
   -0.4956   -2.9605    0.9032 H   0  0  0  0  0  0  0  0  0  0  0  0
   -0.9141   -2.4345   -0.7108 H   0  0  0  0  0  0  0  0  0  0  0  0
   -3.3392   -2.7757   -0.1839 H   0  0  0  0  0  0  0  0  0  0  0  0
   -2.4010   -4.2553   -0.0532 H   0  0  0  0  0  0  0  0  0  0  0  0
   -4.1155   -3.5843    1.8442 H   0  0  0  0  0  0  0  0  0  0  0  0
   -2.6028   -4.3633    2.2687 H   0  0  0  0  0  0  0  0  0  0  0  0
   -3.3929   -2.1774    3.5539 H   0  0  0  0  0  0  0  0  0  0  0  0
   -1.6901   -2.4702    3.2315 H   0  0  0  0  0  0  0  0  0  0  0  0
   -2.3665   -0.1388    2.6531 H   0  0  0  0  0  0  0  0  0  0  0  0
   -3.5365   -0.7661    1.4991 H   0  0  0  0  0  0  0  0  0  0  0  0
   -0.7469   -0.6441   -1.9342 H   0  0  0  0  0  0  0  0  0  0  0  0
    0.9255    0.9965   -0.1108 H   0  0  0  0  0  0  0  0  0  0  0  0
    0.9362   -0.7735   -0.2286 H   0  0  0  0  0  0  0  0  0  0  0  0
    1.5797   -0.6490   -2.6520 H   0  0  0  0  0  0  0  0  0  0  0  0
    1.7263    1.0936   -2.5372 H   0  0  0  0  0  0  0  0  0  0  0  0
    3.4185    2.1566   -0.9798 H   0  0  0  0  0  0  0  0  0  0  0  0
    5.7060    1.9400   -0.0946 H   0  0  0  0  0  0  0  0  0  0  0  0
    5.6391   -2.2870   -0.8865 H   0  0  0  0  0  0  0  0  0  0  0  0
    3.3530   -2.1005   -1.7764 H   0  0  0  0  0  0  0  0  0  0  0  0
   -0.2516    1.7906   -2.6341 H   0  0  0  0  0  0  0  0  0  0  0  0
   -1.8845    1.1162   -2.6798 H   0  0  0  0  0  0  0  0  0  0  0  0
  1  2  2  0
  2  3  1  0
  3  4  1  0
  2  5  1  0
  5  6  1  0
  6  7  1  0
  7  8  1  0
  8  9  1  0
  9 10  1  0
 10 11  1  0
 11 12  1  0
 12 13  1  0
  7 14  1  0
 14 15  1  0
 15 16  1  0
 16 17  1  0
 17 18  1  0
 18 19  2  0
 19 20  1  0
 20 21  1  0
 20 22  2  0
 22 23  1  0
 14 24  1  0
 24  5  1  0
 13  8  1  0
 23 17  2  0
  3 25  1  0
  4 26  1  0
  5 27  1  6
  6 28  1  0
  6 29  1  0
  7 30  1  6
  8 31  1  0
  9 32  1  0
  9 33  1  0
 10 34  1  0
 10 35  1  0
 11 36  1  0
 11 37  1  0
 12 38  1  0
 12 39  1  0
 13 40  1  0
 13 41  1  0
 14 42  1  6
 15 43  1  0
 15 44  1  0
 16 45  1  0
 16 46  1  0
 18 47  1  0
 19 48  1  0
 22 49  1  0
 23 50  1  0
 24 51  1  0
 24 52  1  0
M  CHG  1  14   1
M  END
>  <_SMILES>  (103) 
O=C(NO)[C@@H]1C[C@H](C2CCCCC2)[N@H+](CCc2ccc(Cl)cc2)C1

$$$$

     RDKit          3D

 52 54  0  0  0  0  0  0  0  0999 V2000
   -1.7958    4.6098    0.9073 O   0  0  0  0  0  0  0  0  0  0  0  0
   -0.7875    4.2432    0.3122 C   0  0  0  0  0  0  0  0  0  0  0  0
    0.2763    5.0817    0.0706 N   0  0  0  0  0  0  0  0  0  0  0  0
    0.0486    6.4285    0.4471 O   0  0  0  0  0  0  0  0  0  0  0  0
   -0.5644    2.8160   -0.1220 C   0  0  2  0  0  0  0  0  0  0  0  0
   -1.8379    1.9924   -0.1872 C   0  0  0  0  0  0  0  0  0  0  0  0
   -1.3568    0.5408   -0.1192 C   0  0  2  0  0  0  0  0  0  0  0  0
   -2.3948   -0.4184    0.5189 C   0  0  0  0  0  0  0  0  0  0  0  0
   -3.7483   -0.3935   -0.2227 C   0  0  0  0  0  0  0  0  0  0  0  0
   -3.6863   -1.0729   -1.5891 C   0  0  0  0  0  0  0  0  0  0  0  0
   -3.1810   -2.5075   -1.4753 C   0  0  0  0  0  0  0  0  0  0  0  0
   -1.8507   -2.5845   -0.7330 C   0  0  0  0  0  0  0  0  0  0  0  0
   -1.9173   -1.8802    0.6223 C   0  0  0  0  0  0  0  0  0  0  0  0
   -0.0798    0.6205    0.7421 N   0  0  1  0  0  0  0  0  0  0  0  0
    1.0942   -0.1503    0.1603 C   0  0  0  0  0  0  0  0  0  0  0  0
    2.1378   -0.4455    1.2418 C   0  0  0  0  0  0  0  0  0  0  0  0
    3.2892   -1.2338    0.6731 C   0  0  0  0  0  0  0  0  0  0  0  0
    4.4203   -0.5764    0.1675 C   0  0  0  0  0  0  0  0  0  0  0  0
    5.4742   -1.3083   -0.3851 C   0  0  0  0  0  0  0  0  0  0  0  0
    5.4027   -2.6983   -0.4370 C   0  0  0  0  0  0  0  0  0  0  0  0
    6.6983   -3.5964   -1.1218 Cl  0  0  0  0  0  0  0  0  0  0  0  0
    4.2857   -3.3635    0.0620 C   0  0  0  0  0  0  0  0  0  0  0  0
    3.2304   -2.6344    0.6155 C   0  0  0  0  0  0  0  0  0  0  0  0
    0.2209    2.1009    0.9582 C   0  0  0  0  0  0  0  0  0  0  0  0
    0.8524    4.9833   -0.7620 H   0  0  0  0  0  0  0  0  0  0  0  0
   -0.8645    6.4224    0.8120 H   0  0  0  0  0  0  0  0  0  0  0  0
   -0.0395    2.7857   -1.0842 H   0  0  0  0  0  0  0  0  0  0  0  0
   -2.5053    2.2203    0.6535 H   0  0  0  0  0  0  0  0  0  0  0  0
   -2.3965    2.1918   -1.1081 H   0  0  0  0  0  0  0  0  0  0  0  0
   -1.0450    0.2137   -1.1176 H   0  0  0  0  0  0  0  0  0  0  0  0
   -2.5825   -0.0662    1.5431 H   0  0  0  0  0  0  0  0  0  0  0  0
   -4.1184    0.6306   -0.3378 H   0  0  0  0  0  0  0  0  0  0  0  0
   -4.4945   -0.9134    0.3931 H   0  0  0  0  0  0  0  0  0  0  0  0
   -3.0350   -0.5033   -2.2621 H   0  0  0  0  0  0  0  0  0  0  0  0
   -4.6842   -1.0736   -2.0424 H   0  0  0  0  0  0  0  0  0  0  0  0
   -3.9266   -3.1130   -0.9451 H   0  0  0  0  0  0  0  0  0  0  0  0
   -3.0724   -2.9422   -2.4753 H   0  0  0  0  0  0  0  0  0  0  0  0
   -1.0642   -2.1406   -1.3527 H   0  0  0  0  0  0  0  0  0  0  0  0
   -1.5768   -3.6354   -0.5845 H   0  0  0  0  0  0  0  0  0  0  0  0
   -2.6214   -2.4299    1.2616 H   0  0  0  0  0  0  0  0  0  0  0  0
   -0.9489   -1.9477    1.1273 H   0  0  0  0  0  0  0  0  0  0  0  0
   -0.2986    0.2162    1.6645 H   0  0  0  0  0  0  0  0  0  0  0  0
    0.7033   -1.0859   -0.2482 H   0  0  0  0  0  0  0  0  0  0  0  0
    1.5008    0.4416   -0.6680 H   0  0  0  0  0  0  0  0  0  0  0  0
    1.6814   -1.0103    2.0648 H   0  0  0  0  0  0  0  0  0  0  0  0
    2.5164    0.4816    1.6879 H   0  0  0  0  0  0  0  0  0  0  0  0
    4.5051    0.5077    0.2054 H   0  0  0  0  0  0  0  0  0  0  0  0
    6.3515   -0.7921   -0.7688 H   0  0  0  0  0  0  0  0  0  0  0  0
    4.2354   -4.4496    0.0267 H   0  0  0  0  0  0  0  0  0  0  0  0
    2.3726   -3.1779    1.0070 H   0  0  0  0  0  0  0  0  0  0  0  0
    1.2986    2.2758    0.8898 H   0  0  0  0  0  0  0  0  0  0  0  0
   -0.1216    2.3405    1.9716 H   0  0  0  0  0  0  0  0  0  0  0  0
  1  2  2  0
  2  3  1  0
  3  4  1  0
  2  5  1  0
  5  6  1  0
  6  7  1  0
  7  8  1  0
  8  9  1  0
  9 10  1  0
 10 11  1  0
 11 12  1  0
 12 13  1  0
  7 14  1  0
 14 15  1  0
 15 16  1  0
 16 17  1  0
 17 18  1  0
 18 19  2  0
 19 20  1  0
 20 21  1  0
 20 22  2  0
 22 23  1  0
 14 24  1  0
 24  5  1  0
 13  8  1  0
 23 17  2  0
  3 25  1  0
  4 26  1  0
  5 27  1  6
  6 28  1  0
  6 29  1  0
  7 30  1  6
  8 31  1  0
  9 32  1  0
  9 33  1  0
 10 34  1  0
 10 35  1  0
 11 36  1  0
 11 37  1  0
 12 38  1  0
 12 39  1  0
 13 40  1  0
 13 41  1  0
 14 42  1  1
 15 43  1  0
 15 44  1  0
 16 45  1  0
 16 46  1  0
 18 47  1  0
 19 48  1  0
 22 49  1  0
 23 50  1  0
 24 51  1  0
 24 52  1  0
M  CHG  1  14   1
M  END
>  <_SMILES>  (104) 
O=C(NO)[C@@H]1C[C@H](C2CCCCC2)[N@@H+](CCc2ccc(Cl)cc2)C1

$$$$

     RDKit          3D

 51 53  0  0  0  0  0  0  0  0999 V2000
    0.7491    1.6013    2.7719 O   0  0  0  0  0  0  0  0  0  0  0  0
    0.5418    2.5705    2.0482 C   0  0  0  0  0  0  0  0  0  0  0  0
    1.4067    3.6062    1.7297 N   0  0  0  0  0  0  0  0  0  0  0  0
    2.7191    3.4881    2.1190 O   0  0  0  0  0  0  0  0  0  0  0  0
   -0.7334    2.6842    1.2358 C   0  0  2  0  0  0  0  0  0  0  0  0
   -1.6815    1.4961    1.4261 C   0  0  0  0  0  0  0  0  0  0  0  0
   -1.6773    0.7133    0.1049 C   0  0  2  0  0  0  0  0  0  0  0  0
   -1.8624   -0.8152    0.2227 C   0  0  0  0  0  0  0  0  0  0  0  0
   -3.1222   -1.1412    1.0609 C   0  0  0  0  0  0  0  0  0  0  0  0
   -3.6468   -2.5436    0.7802 C   0  0  0  0  0  0  0  0  0  0  0  0
   -4.0897   -2.6965   -0.6742 C   0  0  0  0  0  0  0  0  0  0  0  0
   -3.3277   -1.7844   -1.6351 C   0  0  0  0  0  0  0  0  0  0  0  0
   -1.9052   -1.5186   -1.1555 C   0  0  0  0  0  0  0  0  0  0  0  0
   -0.4155    1.1616   -0.6160 N   0  0  2  0  0  0  0  0  0  0  0  0
    0.8597    0.3756   -0.2896 C   0  0  0  0  0  0  0  0  0  0  0  0
    2.0944    0.9221   -1.0133 C   0  0  0  0  0  0  0  0  0  0  0  0
    3.2795    0.0101   -0.8074 C   0  0  0  0  0  0  0  0  0  0  0  0
    3.6188   -0.9622   -1.7579 C   0  0  0  0  0  0  0  0  0  0  0  0
    4.7043   -1.8130   -1.5351 C   0  0  0  0  0  0  0  0  0  0  0  0
    5.4514   -1.6964   -0.3636 C   0  0  0  0  0  0  0  0  0  0  0  0
    6.7846   -2.7507   -0.0957 Cl  0  0  0  0  0  0  0  0  0  0  0  0
    5.1237   -0.7348    0.5879 C   0  0  0  0  0  0  0  0  0  0  0  0
    4.0396    0.1165    0.3674 C   0  0  0  0  0  0  0  0  0  0  0  0
   -0.3500    2.6382   -0.2346 C   0  0  0  0  0  0  0  0  0  0  0  0
    1.0792    4.5656    1.6729 H   0  0  0  0  0  0  0  0  0  0  0  0
   -1.2220    3.6279    1.5032 H   0  0  0  0  0  0  0  0  0  0  0  0
   -1.4063    0.8587    2.2716 H   0  0  0  0  0  0  0  0  0  0  0  0
   -2.6976    1.8559    1.6294 H   0  0  0  0  0  0  0  0  0  0  0  0
   -2.4938    1.1047   -0.5192 H   0  0  0  0  0  0  0  0  0  0  0  0
   -1.0055   -1.2270    0.7720 H   0  0  0  0  0  0  0  0  0  0  0  0
   -2.8866   -1.0502    2.1279 H   0  0  0  0  0  0  0  0  0  0  0  0
   -3.9199   -0.4163    0.8531 H   0  0  0  0  0  0  0  0  0  0  0  0
   -2.8595   -3.2749    1.0026 H   0  0  0  0  0  0  0  0  0  0  0  0
   -4.4856   -2.7766    1.4459 H   0  0  0  0  0  0  0  0  0  0  0  0
   -5.1618   -2.4828   -0.7622 H   0  0  0  0  0  0  0  0  0  0  0  0
   -3.9616   -3.7440   -0.9731 H   0  0  0  0  0  0  0  0  0  0  0  0
   -3.8598   -0.8301   -1.7348 H   0  0  0  0  0  0  0  0  0  0  0  0
   -3.3125   -2.2372   -2.6331 H   0  0  0  0  0  0  0  0  0  0  0  0
   -1.3809   -2.4802   -1.0743 H   0  0  0  0  0  0  0  0  0  0  0  0
   -1.3682   -0.9485   -1.9198 H   0  0  0  0  0  0  0  0  0  0  0  0
   -0.5498    1.1027   -1.6304 H   0  0  0  0  0  0  0  0  0  0  0  0
    0.9873    0.3262    0.7907 H   0  0  0  0  0  0  0  0  0  0  0  0
    0.6778   -0.6440   -0.6444 H   0  0  0  0  0  0  0  0  0  0  0  0
    1.8896    1.0244   -2.0863 H   0  0  0  0  0  0  0  0  0  0  0  0
    2.3671    1.9199   -0.6568 H   0  0  0  0  0  0  0  0  0  0  0  0
    3.0517   -1.0628   -2.6797 H   0  0  0  0  0  0  0  0  0  0  0  0
    4.9664   -2.5615   -2.2780 H   0  0  0  0  0  0  0  0  0  0  0  0
    5.7040   -0.6334    1.5016 H   0  0  0  0  0  0  0  0  0  0  0  0
    3.7973    0.8725    1.1195 H   0  0  0  0  0  0  0  0  0  0  0  0
    0.6115    3.0548   -0.5336 H   0  0  0  0  0  0  0  0  0  0  0  0
   -1.1214    3.1291   -0.8415 H   0  0  0  0  0  0  0  0  0  0  0  0
  1  2  2  0
  2  3  1  0
  3  4  1  0
  2  5  1  0
  5  6  1  0
  6  7  1  0
  7  8  1  0
  8  9  1  0
  9 10  1  0
 10 11  1  0
 11 12  1  0
 12 13  1  0
  7 14  1  0
 14 15  1  0
 15 16  1  0
 16 17  1  0
 17 18  1  0
 18 19  2  0
 19 20  1  0
 20 21  1  0
 20 22  2  0
 22 23  1  0
 14 24  1  0
 24  5  1  0
 13  8  1  0
 23 17  2  0
  3 25  1  0
  5 26  1  6
  6 27  1  0
  6 28  1  0
  7 29  1  6
  8 30  1  0
  9 31  1  0
  9 32  1  0
 10 33  1  0
 10 34  1  0
 11 35  1  0
 11 36  1  0
 12 37  1  0
 12 38  1  0
 13 39  1  0
 13 40  1  0
 14 41  1  6
 15 42  1  0
 15 43  1  0
 16 44  1  0
 16 45  1  0
 18 46  1  0
 19 47  1  0
 22 48  1  0
 23 49  1  0
 24 50  1  0
 24 51  1  0
M  CHG  2   4  -1  14   1
M  END
>  <_SMILES>  (105) 
O=C(N[O-])[C@@H]1C[C@H](C2CCCCC2)[N@H+](CCc2ccc(Cl)cc2)C1

$$$$

     RDKit          3D

 51 53  0  0  0  0  0  0  0  0999 V2000
   -1.4848    2.0421    1.6905 O   0  0  0  0  0  0  0  0  0  0  0  0
   -1.2182    3.0466    1.0304 C   0  0  0  0  0  0  0  0  0  0  0  0
   -0.7439    4.2661    1.4662 N   0  0  0  0  0  0  0  0  0  0  0  0
   -0.5251    4.4251    2.8126 O   0  0  0  0  0  0  0  0  0  0  0  0
   -1.0855    2.9215   -0.4695 C   0  0  2  0  0  0  0  0  0  0  0  0
   -1.9567    1.8029   -1.0472 C   0  0  0  0  0  0  0  0  0  0  0  0
   -1.0494    0.5650   -1.1674 C   0  0  2  0  0  0  0  0  0  0  0  0
   -1.6737   -0.7956   -0.7874 C   0  0  0  0  0  0  0  0  0  0  0  0
   -2.0193   -0.9591    0.7029 C   0  0  0  0  0  0  0  0  0  0  0  0
   -2.8433   -2.2213    0.9356 C   0  0  0  0  0  0  0  0  0  0  0  0
   -4.1814   -2.1800    0.1976 C   0  0  0  0  0  0  0  0  0  0  0  0
   -4.2063   -1.1925   -0.9674 C   0  0  0  0  0  0  0  0  0  0  0  0
   -2.8730   -1.1396   -1.7048 C   0  0  0  0  0  0  0  0  0  0  0  0
    0.1751    0.9244   -0.3563 N   0  0  1  0  0  0  0  0  0  0  0  0
    1.4067    0.1017   -0.5634 C   0  0  0  0  0  0  0  0  0  0  0  0
    2.4761    0.4187    0.4869 C   0  0  0  0  0  0  0  0  0  0  0  0
    3.6487   -0.5233    0.3568 C   0  0  0  0  0  0  0  0  0  0  0  0
    3.6830   -1.7169    1.0926 C   0  0  0  0  0  0  0  0  0  0  0  0
    4.7535   -2.6029    0.9519 C   0  0  0  0  0  0  0  0  0  0  0  0
    5.7928   -2.3007    0.0753 C   0  0  0  0  0  0  0  0  0  0  0  0
    7.1083   -3.3945   -0.1016 Cl  0  0  0  0  0  0  0  0  0  0  0  0
    5.7722   -1.1180   -0.6604 C   0  0  0  0  0  0  0  0  0  0  0  0
    4.7024   -0.2306   -0.5212 C   0  0  0  0  0  0  0  0  0  0  0  0
    0.3387    2.4190   -0.6238 C   0  0  0  0  0  0  0  0  0  0  0  0
   -0.8806    5.1320    0.9553 H   0  0  0  0  0  0  0  0  0  0  0  0
   -1.2635    3.8841   -0.9578 H   0  0  0  0  0  0  0  0  0  0  0  0
   -2.3097    2.0824   -2.0473 H   0  0  0  0  0  0  0  0  0  0  0  0
   -2.8486    1.6243   -0.4396 H   0  0  0  0  0  0  0  0  0  0  0  0
   -0.6961    0.5015   -2.2068 H   0  0  0  0  0  0  0  0  0  0  0  0
   -0.9149   -1.5577   -1.0135 H   0  0  0  0  0  0  0  0  0  0  0  0
   -1.1000   -1.0166    1.2967 H   0  0  0  0  0  0  0  0  0  0  0  0
   -2.5884   -0.1009    1.0721 H   0  0  0  0  0  0  0  0  0  0  0  0
   -3.0193   -2.3653    2.0077 H   0  0  0  0  0  0  0  0  0  0  0  0
   -2.2693   -3.0929    0.5966 H   0  0  0  0  0  0  0  0  0  0  0  0
   -4.9828   -1.9161    0.8983 H   0  0  0  0  0  0  0  0  0  0  0  0
   -4.4153   -3.1884   -0.1650 H   0  0  0  0  0  0  0  0  0  0  0  0
   -5.0088   -1.4668   -1.6617 H   0  0  0  0  0  0  0  0  0  0  0  0
   -4.4538   -0.1924   -0.5916 H   0  0  0  0  0  0  0  0  0  0  0  0
   -2.6927   -2.1249   -2.1557 H   0  0  0  0  0  0  0  0  0  0  0  0
   -2.9451   -0.4394   -2.5450 H   0  0  0  0  0  0  0  0  0  0  0  0
   -0.1024    0.8735    0.6493 H   0  0  0  0  0  0  0  0  0  0  0  0
    1.7641    0.2849   -1.5831 H   0  0  0  0  0  0  0  0  0  0  0  0
    1.1108   -0.9487   -0.4839 H   0  0  0  0  0  0  0  0  0  0  0  0
    2.8355    1.4490    0.3830 H   0  0  0  0  0  0  0  0  0  0  0  0
    2.0548    0.3422    1.4973 H   0  0  0  0  0  0  0  0  0  0  0  0
    2.8843   -1.9639    1.7902 H   0  0  0  0  0  0  0  0  0  0  0  0
    4.7739   -3.5219    1.5323 H   0  0  0  0  0  0  0  0  0  0  0  0
    6.5883   -0.8793   -1.3377 H   0  0  0  0  0  0  0  0  0  0  0  0
    4.7090    0.6938   -1.0953 H   0  0  0  0  0  0  0  0  0  0  0  0
    0.7076    2.5279   -1.6498 H   0  0  0  0  0  0  0  0  0  0  0  0
    1.0657    2.8216    0.0868 H   0  0  0  0  0  0  0  0  0  0  0  0
  1  2  2  0
  2  3  1  0
  3  4  1  0
  2  5  1  0
  5  6  1  0
  6  7  1  0
  7  8  1  0
  8  9  1  0
  9 10  1  0
 10 11  1  0
 11 12  1  0
 12 13  1  0
  7 14  1  0
 14 15  1  0
 15 16  1  0
 16 17  1  0
 17 18  1  0
 18 19  2  0
 19 20  1  0
 20 21  1  0
 20 22  2  0
 22 23  1  0
 14 24  1  0
 24  5  1  0
 13  8  1  0
 23 17  2  0
  3 25  1  0
  5 26  1  6
  6 27  1  0
  6 28  1  0
  7 29  1  6
  8 30  1  0
  9 31  1  0
  9 32  1  0
 10 33  1  0
 10 34  1  0
 11 35  1  0
 11 36  1  0
 12 37  1  0
 12 38  1  0
 13 39  1  0
 13 40  1  0
 14 41  1  1
 15 42  1  0
 15 43  1  0
 16 44  1  0
 16 45  1  0
 18 46  1  0
 19 47  1  0
 22 48  1  0
 23 49  1  0
 24 50  1  0
 24 51  1  0
M  CHG  2   4  -1  14   1
M  END
>  <_SMILES>  (106) 
O=C(N[O-])[C@@H]1C[C@H](C2CCCCC2)[N@@H+](CCc2ccc(Cl)cc2)C1

$$$$

     RDKit          3D

 45 48  0  0  0  0  0  0  0  0999 V2000
    6.2094   -0.2542    0.8623 C   0  0  0  0  0  0  0  0  0  0  0  0
    4.9085   -0.1503    0.1127 C   0  0  0  0  0  0  0  0  0  0  0  0
    4.9493   -0.0306   -1.2823 C   0  0  0  0  0  0  0  0  0  0  0  0
    3.7646    0.0660   -1.9875 C   0  0  0  0  0  0  0  0  0  0  0  0
    2.5510    0.0523   -1.4093 N   0  0  0  0  0  0  0  0  0  0  0  0
    2.5115   -0.0649   -0.0438 C   0  0  0  0  0  0  0  0  0  0  0  0
    1.0966   -0.0704    0.5092 C   0  0  0  0  0  0  0  0  0  0  0  0
    0.8439   -0.1663    1.7023 O   0  0  0  0  0  0  0  0  0  0  0  0
    0.1302    0.0436   -0.4720 N   0  0  0  0  0  0  0  0  0  0  0  0
   -1.3154    0.0689   -0.2639 C   0  0  2  0  0  0  0  0  0  0  0  0
   -1.8205   -1.2398    0.3926 C   0  0  0  0  0  0  0  0  0  0  0  0
   -3.3504   -1.2076    0.5561 C   0  0  1  0  0  0  0  0  0  0  0  0
   -3.7405   -0.0056    1.4331 C   0  0  0  0  0  0  0  0  0  0  0  0
   -3.2751    1.3040    0.7738 C   0  0  2  0  0  0  0  0  0  0  0  0
   -3.9313    1.4362   -0.6096 C   0  0  0  0  0  0  0  0  0  0  0  0
   -3.5381    0.2420   -1.4931 C   0  0  2  0  0  0  0  0  0  0  0  0
   -4.0062   -1.0608   -0.8260 C   0  0  0  0  0  0  0  0  0  0  0  0
   -2.0090    0.2094   -1.6451 C   0  0  0  0  0  0  0  0  0  0  0  0
   -1.7452    1.2728    0.6104 C   0  0  0  0  0  0  0  0  0  0  0  0
    3.6561   -0.1693    0.7654 C   0  0  0  0  0  0  0  0  0  0  0  0
    3.5488   -0.2956    2.2600 C   0  0  0  0  0  0  0  0  0  0  0  0
    6.2602   -1.2026    1.4067 H   0  0  0  0  0  0  0  0  0  0  0  0
    6.3137    0.5817    1.5613 H   0  0  0  0  0  0  0  0  0  0  0  0
    7.0690   -0.2212    0.1841 H   0  0  0  0  0  0  0  0  0  0  0  0
    5.8932   -0.0124   -1.8191 H   0  0  0  0  0  0  0  0  0  0  0  0
    3.7658    0.1598   -3.0698 H   0  0  0  0  0  0  0  0  0  0  0  0
    0.5044    0.1142   -1.4167 H   0  0  0  0  0  0  0  0  0  0  0  0
   -1.5280   -2.1050   -0.2167 H   0  0  0  0  0  0  0  0  0  0  0  0
   -1.3591   -1.3877    1.3762 H   0  0  0  0  0  0  0  0  0  0  0  0
   -3.6902   -2.1358    1.0291 H   0  0  0  0  0  0  0  0  0  0  0  0
   -3.2894   -0.1053    2.4279 H   0  0  0  0  0  0  0  0  0  0  0  0
   -4.8278    0.0145    1.5773 H   0  0  0  0  0  0  0  0  0  0  0  0
   -3.5616    2.1556    1.4010 H   0  0  0  0  0  0  0  0  0  0  0  0
   -5.0222    1.4814   -0.5042 H   0  0  0  0  0  0  0  0  0  0  0  0
   -3.6183    2.3739   -1.0850 H   0  0  0  0  0  0  0  0  0  0  0  0
   -4.0061    0.3415   -2.4789 H   0  0  0  0  0  0  0  0  0  0  0  0
   -5.0984   -1.0585   -0.7244 H   0  0  0  0  0  0  0  0  0  0  0  0
   -3.7469   -1.9197   -1.4571 H   0  0  0  0  0  0  0  0  0  0  0  0
   -1.7200   -0.6244   -2.2991 H   0  0  0  0  0  0  0  0  0  0  0  0
   -1.6676    1.1244   -2.1475 H   0  0  0  0  0  0  0  0  0  0  0  0
   -1.3987    2.2110    0.1574 H   0  0  0  0  0  0  0  0  0  0  0  0
   -1.2809    1.2218    1.6024 H   0  0  0  0  0  0  0  0  0  0  0  0
    4.5208   -0.3676    2.7544 H   0  0  0  0  0  0  0  0  0  0  0  0
    3.0518    0.5842    2.6813 H   0  0  0  0  0  0  0  0  0  0  0  0
    2.9982   -1.2037    2.5263 H   0  0  0  0  0  0  0  0  0  0  0  0
  1  2  1  0
  2  3  2  0
  3  4  1  0
  4  5  2  0
  5  6  1  0
  6  7  1  0
  7  8  2  0
  7  9  1  0
 10  9  1  6
 10 11  1  0
 11 12  1  0
 12 13  1  0
 13 14  1  0
 14 15  1  0
 15 16  1  0
 16 17  1  0
 16 18  1  0
 14 19  1  0
  6 20  2  0
 20 21  1  0
 20  2  1  0
 18 10  1  0
 19 10  1  0
 17 12  1  0
  1 22  1  0
  1 23  1  0
  1 24  1  0
  3 25  1  0
  4 26  1  0
  9 27  1  0
 11 28  1  0
 11 29  1  0
 12 30  1  1
 13 31  1  0
 13 32  1  0
 14 33  1  1
 15 34  1  0
 15 35  1  0
 16 36  1  6
 17 37  1  0
 17 38  1  0
 18 39  1  0
 18 40  1  0
 19 41  1  0
 19 42  1  0
 21 43  1  0
 21 44  1  0
 21 45  1  0
M  END
>  <_SMILES>  (107) 
Cc1ccnc(C(=O)N[C@]23C[C@H]4C[C@H](C[C@H](C4)C2)C3)c1C

$$$$

     RDKit          3D

 49 53  0  0  0  0  0  0  0  0999 V2000
   -1.6662    1.7356    1.4894 O   0  0  0  0  0  0  0  0  0  0  0  0
   -1.7348    1.2962    0.3423 C   0  0  0  0  0  0  0  0  0  0  0  0
   -2.5751    2.0271   -0.6549 C   0  0  0  0  0  0  0  0  0  0  0  0
   -3.5337    2.9323   -0.1745 C   0  0  0  0  0  0  0  0  0  0  0  0
   -4.3445    3.6454   -1.0619 C   0  0  0  0  0  0  0  0  0  0  0  0
   -4.1954    3.4598   -2.4338 C   0  0  0  0  0  0  0  0  0  0  0  0
   -5.1901    4.3358   -3.5296 Cl  0  0  0  0  0  0  0  0  0  0  0  0
   -3.2406    2.5706   -2.9243 C   0  0  0  0  0  0  0  0  0  0  0  0
   -2.4279    1.8553   -2.0372 C   0  0  0  0  0  0  0  0  0  0  0  0
   -0.9671    0.0534   -0.0945 C   0  0  1  0  0  0  0  0  0  0  0  0
    0.4605    0.4271   -0.5277 C   0  0  0  0  0  0  0  0  0  0  0  0
    1.3955   -0.2455    0.4840 C   0  0  2  0  0  0  0  0  0  0  0  0
    2.7630   -0.5268   -0.0444 C   0  0  0  0  0  0  0  0  0  0  0  0
    2.9447   -1.3003   -1.1217 N   0  0  0  0  0  0  0  0  0  0  0  0
    4.5946   -1.3714   -1.3819 S   0  0  0  0  0  0  0  0  0  0  0  0
    4.9438   -0.3610   -0.0490 C   0  0  0  0  0  0  0  0  0  0  0  0
    6.3843    0.0481    0.3747 C   0  0  0  0  0  0  0  0  0  0  0  0
    7.1009    1.1247   -0.4001 C   0  0  0  0  0  0  0  0  0  0  0  0
    6.6131    1.4048    0.9913 C   0  0  0  0  0  0  0  0  0  0  0  0
    3.8673    0.0274    0.5950 N   0  0  0  0  0  0  0  0  0  0  0  0
    0.6230   -1.4941    0.9057 C   0  0  0  0  0  0  0  0  0  0  0  0
   -0.8049   -0.9599    1.0631 C   0  0  2  0  0  0  0  0  0  0  0  0
   -1.8990   -2.0059    1.0784 C   0  0  0  0  0  0  0  0  0  0  0  0
   -2.9211   -1.9108    2.0361 C   0  0  0  0  0  0  0  0  0  0  0  0
   -3.9618   -2.8407    2.0676 C   0  0  0  0  0  0  0  0  0  0  0  0
   -4.0001   -3.8756    1.1372 C   0  0  0  0  0  0  0  0  0  0  0  0
   -3.0004   -3.9775    0.1731 C   0  0  0  0  0  0  0  0  0  0  0  0
   -1.9589   -3.0471    0.1405 C   0  0  0  0  0  0  0  0  0  0  0  0
   -3.6552    3.0853    0.8970 H   0  0  0  0  0  0  0  0  0  0  0  0
   -5.0846    4.3411   -0.6749 H   0  0  0  0  0  0  0  0  0  0  0  0
   -3.1204    2.4321   -3.9962 H   0  0  0  0  0  0  0  0  0  0  0  0
   -1.6829    1.1846   -2.4547 H   0  0  0  0  0  0  0  0  0  0  0  0
   -1.4946   -0.4205   -0.9300 H   0  0  0  0  0  0  0  0  0  0  0  0
    0.6309    0.0463   -1.5427 H   0  0  0  0  0  0  0  0  0  0  0  0
    0.6356    1.5085   -0.5638 H   0  0  0  0  0  0  0  0  0  0  0  0
    1.4883    0.4158    1.3573 H   0  0  0  0  0  0  0  0  0  0  0  0
    6.9788   -0.7710    0.7650 H   0  0  0  0  0  0  0  0  0  0  0  0
    6.5850    1.6126   -1.2196 H   0  0  0  0  0  0  0  0  0  0  0  0
    8.1685    1.0150   -0.5510 H   0  0  0  0  0  0  0  0  0  0  0  0
    5.7621    2.0668    1.1115 H   0  0  0  0  0  0  0  0  0  0  0  0
    7.3458    1.4807    1.7861 H   0  0  0  0  0  0  0  0  0  0  0  0
    0.6951   -2.2766    0.1423 H   0  0  0  0  0  0  0  0  0  0  0  0
    1.0047   -1.9193    1.8409 H   0  0  0  0  0  0  0  0  0  0  0  0
   -0.8268   -0.4407    2.0313 H   0  0  0  0  0  0  0  0  0  0  0  0
   -2.9144   -1.1045    2.7683 H   0  0  0  0  0  0  0  0  0  0  0  0
   -4.7426   -2.7546    2.8188 H   0  0  0  0  0  0  0  0  0  0  0  0
   -4.8095   -4.6001    1.1618 H   0  0  0  0  0  0  0  0  0  0  0  0
   -3.0315   -4.7819   -0.5572 H   0  0  0  0  0  0  0  0  0  0  0  0
   -1.2017   -3.1464   -0.6333 H   0  0  0  0  0  0  0  0  0  0  0  0
  1  2  2  0
  2  3  1  0
  3  4  1  0
  4  5  2  0
  5  6  1  0
  6  7  1  0
  6  8  2  0
  8  9  1  0
  2 10  1  0
 10 11  1  0
 11 12  1  0
 12 13  1  0
 13 14  2  0
 14 15  1  0
 15 16  1  0
 16 17  1  0
 17 18  1  0
 18 19  1  0
 16 20  2  0
 12 21  1  0
 21 22  1  0
 22 23  1  0
 23 24  2  0
 24 25  1  0
 25 26  2  0
 26 27  1  0
 27 28  2  0
  9  3  2  0
 22 10  1  0
 28 23  1  0
 20 13  1  0
 19 17  1  0
  4 29  1  0
  5 30  1  0
  8 31  1  0
  9 32  1  0
 10 33  1  6
 11 34  1  0
 11 35  1  0
 12 36  1  1
 17 37  1  0
 18 38  1  0
 18 39  1  0
 19 40  1  0
 19 41  1  0
 21 42  1  0
 21 43  1  0
 22 44  1  1
 24 45  1  0
 25 46  1  0
 26 47  1  0
 27 48  1  0
 28 49  1  0
M  END
>  <_SMILES>  (108) 
O=C(c1ccc(Cl)cc1)[C@H]1C[C@H](c2nsc(C3CC3)n2)C[C@@H]1c1ccccc1

$$$$

     RDKit          3D

 52 56  0  0  0  0  0  0  0  0999 V2000
    1.1564   -0.0751    1.0554 O   0  0  0  0  0  0  0  0  0  0  0  0
    0.6296   -1.1349    0.7416 C   0  0  0  0  0  0  0  0  0  0  0  0
   -0.7119   -1.2663    0.4517 N   0  0  0  0  0  0  0  0  0  0  0  0
   -1.6718   -0.1549    0.4391 C   0  0  2  0  0  0  0  0  0  0  0  0
   -1.8297    0.4827    1.8412 C   0  0  0  0  0  0  0  0  0  0  0  0
   -2.8793    1.6079    1.8080 C   0  0  1  0  0  0  0  0  0  0  0  0
   -2.4403    2.6812    0.7972 C   0  0  0  0  0  0  0  0  0  0  0  0
   -2.3171    2.0674   -0.6079 C   0  0  2  0  0  0  0  0  0  0  0  0
   -3.6750    1.4839   -1.0277 C   0  0  0  0  0  0  0  0  0  0  0  0
   -4.1133    0.4042   -0.0264 C   0  0  2  0  0  0  0  0  0  0  0  0
   -4.2340    1.0266    1.3734 C   0  0  0  0  0  0  0  0  0  0  0  0
   -3.0562   -0.7109    0.0073 C   0  0  0  0  0  0  0  0  0  0  0  0
   -1.2670    0.9429   -0.5783 C   0  0  0  0  0  0  0  0  0  0  0  0
    1.4004   -2.4525    0.7007 C   0  0  1  0  0  0  0  0  0  0  0  0
    1.2592   -3.1966   -0.6245 C   0  0  0  0  0  0  0  0  0  0  0  0
    2.5340   -2.8595   -1.3520 C   0  0  0  0  0  0  0  0  0  0  0  0
    2.7434   -3.2132   -2.5079 O   0  0  0  0  0  0  0  0  0  0  0  0
    3.5033   -2.0577   -0.5122 C   0  0  1  0  0  0  0  0  0  0  0  0
    3.6563   -0.6006   -0.9031 C   0  0  0  0  0  0  0  0  0  0  0  0
    4.5579    0.2020   -0.1806 C   0  0  0  0  0  0  0  0  0  0  0  0
    4.7336    1.5523   -0.4939 C   0  0  0  0  0  0  0  0  0  0  0  0
    4.0136    2.1155   -1.5421 C   0  0  0  0  0  0  0  0  0  0  0  0
    4.2447    3.9425   -1.9679 Br  0  0  0  0  0  0  0  0  0  0  0  0
    3.1273    1.3391   -2.2819 C   0  0  0  0  0  0  0  0  0  0  0  0
    2.9530   -0.0122   -1.9666 C   0  0  0  0  0  0  0  0  0  0  0  0
    2.9115   -2.2799    0.8917 C   0  0  0  0  0  0  0  0  0  0  0  0
   -1.0983   -2.2013    0.4314 H   0  0  0  0  0  0  0  0  0  0  0  0
   -2.1241   -0.2817    2.5722 H   0  0  0  0  0  0  0  0  0  0  0  0
   -0.8769    0.8937    2.1948 H   0  0  0  0  0  0  0  0  0  0  0  0
   -2.9721    2.0545    2.8043 H   0  0  0  0  0  0  0  0  0  0  0  0
   -1.4795    3.1133    1.1030 H   0  0  0  0  0  0  0  0  0  0  0  0
   -3.1683    3.5016    0.7838 H   0  0  0  0  0  0  0  0  0  0  0  0
   -2.0104    2.8392   -1.3227 H   0  0  0  0  0  0  0  0  0  0  0  0
   -3.6037    1.0550   -2.0348 H   0  0  0  0  0  0  0  0  0  0  0  0
   -4.4276    2.2806   -1.0735 H   0  0  0  0  0  0  0  0  0  0  0  0
   -5.0804   -0.0115   -0.3308 H   0  0  0  0  0  0  0  0  0  0  0  0
   -4.9961    1.8155    1.3684 H   0  0  0  0  0  0  0  0  0  0  0  0
   -4.5652    0.2686    2.0938 H   0  0  0  0  0  0  0  0  0  0  0  0
   -3.3774   -1.5020    0.6982 H   0  0  0  0  0  0  0  0  0  0  0  0
   -2.9816   -1.1813   -0.9824 H   0  0  0  0  0  0  0  0  0  0  0  0
   -1.1570    0.5067   -1.5799 H   0  0  0  0  0  0  0  0  0  0  0  0
   -0.2927    1.3766   -0.3254 H   0  0  0  0  0  0  0  0  0  0  0  0
    0.9939   -3.0580    1.5211 H   0  0  0  0  0  0  0  0  0  0  0  0
    1.2380   -4.2785   -0.4600 H   0  0  0  0  0  0  0  0  0  0  0  0
    0.4015   -2.8896   -1.2270 H   0  0  0  0  0  0  0  0  0  0  0  0
    4.4857   -2.5418   -0.5757 H   0  0  0  0  0  0  0  0  0  0  0  0
    5.1289   -0.2195    0.6444 H   0  0  0  0  0  0  0  0  0  0  0  0
    5.4283    2.1518    0.0877 H   0  0  0  0  0  0  0  0  0  0  0  0
    2.5660    1.7717   -3.1056 H   0  0  0  0  0  0  0  0  0  0  0  0
    2.2569   -0.5864   -2.5738 H   0  0  0  0  0  0  0  0  0  0  0  0
    3.3154   -3.2189    1.2948 H   0  0  0  0  0  0  0  0  0  0  0  0
    3.1686   -1.4923    1.6069 H   0  0  0  0  0  0  0  0  0  0  0  0
  1  2  2  0
  2  3  1  0
  4  3  1  1
  4  5  1  0
  5  6  1  0
  6  7  1  0
  7  8  1  0
  8  9  1  0
  9 10  1  0
 10 11  1  0
 10 12  1  0
  8 13  1  0
  2 14  1  0
 14 15  1  0
 15 16  1  0
 16 17  2  0
 16 18  1  0
 18 19  1  0
 19 20  1  0
 20 21  2  0
 21 22  1  0
 22 23  1  0
 22 24  2  0
 24 25  1  0
 18 26  1  0
 12  4  1  0
 26 14  1  0
 13  4  1  0
 25 19  2  0
 11  6  1  0
  3 27  1  0
  5 28  1  0
  5 29  1  0
  6 30  1  1
  7 31  1  0
  7 32  1  0
  8 33  1  6
  9 34  1  0
  9 35  1  0
 10 36  1  6
 11 37  1  0
 11 38  1  0
 12 39  1  0
 12 40  1  0
 13 41  1  0
 13 42  1  0
 14 43  1  1
 15 44  1  0
 15 45  1  0
 18 46  1  1
 20 47  1  0
 21 48  1  0
 24 49  1  0
 25 50  1  0
 26 51  1  0
 26 52  1  0
M  END
>  <_SMILES>  (109) 
O=C(N[C@]12C[C@H]3C[C@H](C[C@H](C3)C1)C2)[C@H]1CC(=O)[C@@H](c2ccc(Br)cc2)C1

$$$$

     RDKit          3D

 53 57  0  0  0  0  0  0  0  0999 V2000
   -0.3322    1.0924   -1.7626 O   0  0  0  0  0  0  0  0  0  0  0  0
    0.0143    1.2402   -0.5969 C   0  0  0  0  0  0  0  0  0  0  0  0
   -0.7717    0.9156    0.4897 N   0  0  0  0  0  0  0  0  0  0  0  0
   -2.1250    0.3559    0.4101 C   0  0  2  0  0  0  0  0  0  0  0  0
   -2.1396   -1.0076   -0.3260 C   0  0  0  0  0  0  0  0  0  0  0  0
   -3.5618   -1.5951   -0.3496 C   0  0  1  0  0  0  0  0  0  0  0  0
   -4.0478   -1.8079    1.0925 C   0  0  0  0  0  0  0  0  0  0  0  0
   -4.0632   -0.4675    1.8436 C   0  0  2  0  0  0  0  0  0  0  0  0
   -5.0067    0.5088    1.1239 C   0  0  0  0  0  0  0  0  0  0  0  0
   -4.5266    0.7354   -0.3184 C   0  0  2  0  0  0  0  0  0  0  0  0
   -4.5042   -0.6105   -1.0629 C   0  0  0  0  0  0  0  0  0  0  0  0
   -3.1054    1.3255   -0.2950 C   0  0  0  0  0  0  0  0  0  0  0  0
   -2.6431    0.1200    1.8550 C   0  0  0  0  0  0  0  0  0  0  0  0
    1.3738    1.8136   -0.1998 C   0  0  2  0  0  0  0  0  0  0  0  0
    2.2218    2.2378   -1.3961 C   0  0  0  0  0  0  0  0  0  0  0  0
    2.9065    0.9592   -1.8777 C   0  0  0  0  0  0  0  0  0  0  0  0
    2.8958   -0.0092   -0.6799 C   0  0  1  0  0  0  0  0  0  0  0  0
    4.2464   -0.5856   -0.3196 C   0  0  0  0  0  0  0  0  0  0  0  0
    5.3591    0.2351   -0.0789 C   0  0  0  0  0  0  0  0  0  0  0  0
    6.5943   -0.3191    0.2631 C   0  0  0  0  0  0  0  0  0  0  0  0
    6.7335   -1.7006    0.3718 C   0  0  0  0  0  0  0  0  0  0  0  0
    5.6378   -2.5282    0.1395 C   0  0  0  0  0  0  0  0  0  0  0  0
    4.4022   -1.9747   -0.2025 C   0  0  0  0  0  0  0  0  0  0  0  0
    2.2569    0.7708    0.4821 C   0  0  0  0  0  0  0  0  0  0  0  0
   -0.4240    1.1631    1.4074 H   0  0  0  0  0  0  0  0  0  0  0  0
   -1.7823   -0.9021   -1.3569 H   0  0  0  0  0  0  0  0  0  0  0  0
   -1.4530   -1.7091    0.1660 H   0  0  0  0  0  0  0  0  0  0  0  0
   -3.5562   -2.5527   -0.8820 H   0  0  0  0  0  0  0  0  0  0  0  0
   -5.0530   -2.2470    1.0885 H   0  0  0  0  0  0  0  0  0  0  0  0
   -3.3915   -2.5195    1.6083 H   0  0  0  0  0  0  0  0  0  0  0  0
   -4.4075   -0.6239    2.8720 H   0  0  0  0  0  0  0  0  0  0  0  0
   -6.0282    0.1092    1.1205 H   0  0  0  0  0  0  0  0  0  0  0  0
   -5.0403    1.4639    1.6623 H   0  0  0  0  0  0  0  0  0  0  0  0
   -5.2050    1.4285   -0.8283 H   0  0  0  0  0  0  0  0  0  0  0  0
   -5.5171   -1.0292   -1.1081 H   0  0  0  0  0  0  0  0  0  0  0  0
   -4.1754   -0.4605   -2.0986 H   0  0  0  0  0  0  0  0  0  0  0  0
   -3.1119    2.2955    0.2193 H   0  0  0  0  0  0  0  0  0  0  0  0
   -2.7857    1.5267   -1.3242 H   0  0  0  0  0  0  0  0  0  0  0  0
   -2.6390    1.0642    2.4161 H   0  0  0  0  0  0  0  0  0  0  0  0
   -1.9663   -0.5578    2.3924 H   0  0  0  0  0  0  0  0  0  0  0  0
    1.1880    2.6713    0.4574 H   0  0  0  0  0  0  0  0  0  0  0  0
    2.9866    2.9521   -1.0665 H   0  0  0  0  0  0  0  0  0  0  0  0
    1.6464    2.7154   -2.1952 H   0  0  0  0  0  0  0  0  0  0  0  0
    2.3305    0.5199   -2.7018 H   0  0  0  0  0  0  0  0  0  0  0  0
    3.9035    1.1744   -2.2757 H   0  0  0  0  0  0  0  0  0  0  0  0
    2.2202   -0.8355   -0.9430 H   0  0  0  0  0  0  0  0  0  0  0  0
    5.2731    1.3165   -0.1565 H   0  0  0  0  0  0  0  0  0  0  0  0
    7.4480    0.3286    0.4437 H   0  0  0  0  0  0  0  0  0  0  0  0
    7.6950   -2.1319    0.6366 H   0  0  0  0  0  0  0  0  0  0  0  0
    5.7440   -3.6066    0.2231 H   0  0  0  0  0  0  0  0  0  0  0  0
    3.5597   -2.6400   -0.3799 H   0  0  0  0  0  0  0  0  0  0  0  0
    3.0145    1.2842    1.0874 H   0  0  0  0  0  0  0  0  0  0  0  0
    1.7120    0.0980    1.1528 H   0  0  0  0  0  0  0  0  0  0  0  0
  1  2  2  0
  2  3  1  0
  4  3  1  1
  4  5  1  0
  5  6  1  0
  6  7  1  0
  7  8  1  0
  8  9  1  0
  9 10  1  0
 10 11  1  0
 10 12  1  0
  8 13  1  0
  2 14  1  0
 14 15  1  0
 15 16  1  0
 16 17  1  0
 17 18  1  0
 18 19  2  0
 19 20  1  0
 20 21  2  0
 21 22  1  0
 22 23  2  0
 17 24  1  0
 12  4  1  0
 24 14  1  0
 13  4  1  0
 23 18  1  0
 11  6  1  0
  3 25  1  0
  5 26  1  0
  5 27  1  0
  6 28  1  6
  7 29  1  0
  7 30  1  0
  8 31  1  1
  9 32  1  0
  9 33  1  0
 10 34  1  6
 11 35  1  0
 11 36  1  0
 12 37  1  0
 12 38  1  0
 13 39  1  0
 13 40  1  0
 14 41  1  1
 15 42  1  0
 15 43  1  0
 16 44  1  0
 16 45  1  0
 17 46  1  6
 19 47  1  0
 20 48  1  0
 21 49  1  0
 22 50  1  0
 23 51  1  0
 24 52  1  0
 24 53  1  0
M  END
>  <_SMILES>  (110) 
O=C(N[C@]12C[C@H]3C[C@H](C[C@H](C3)C1)C2)[C@@H]1CC[C@@H](c2ccccc2)C1

$$$$

     RDKit          3D

 70 75  0  0  0  0  0  0  0  0999 V2000
    7.3698   -3.9067   -0.3468 C   0  0  0  0  0  0  0  0  0  0  0  0
    7.3080   -2.4960   -0.1823 O   0  0  0  0  0  0  0  0  0  0  0  0
    6.1296   -1.8864   -0.5142 C   0  0  0  0  0  0  0  0  0  0  0  0
    4.9806   -2.5201   -0.9851 C   0  0  0  0  0  0  0  0  0  0  0  0
    3.8370   -1.7713   -1.2870 C   0  0  0  0  0  0  0  0  0  0  0  0
    3.8223   -0.3812   -1.1159 C   0  0  0  0  0  0  0  0  0  0  0  0
    2.5890    0.4261   -1.4404 C   0  0  0  0  0  0  0  0  0  0  0  0
    1.5305    0.5661   -0.3340 C   0  0  1  0  0  0  0  0  0  0  0  0
    0.9256   -0.7481    0.1690 C   0  0  0  0  0  0  0  0  0  0  0  0
    0.1176   -0.3138    1.3955 C   0  0  2  0  0  0  0  0  0  0  0  0
   -1.2923    0.1166    0.9873 C   0  0  0  0  0  0  0  0  0  0  0  0
   -1.6635    1.2839    0.9818 O   0  0  0  0  0  0  0  0  0  0  0  0
   -2.0864   -0.9458    0.6035 N   0  0  0  0  0  0  0  0  0  0  0  0
   -3.4818   -0.8350    0.1656 C   0  0  2  0  0  0  0  0  0  0  0  0
   -3.9984   -2.2564   -0.1873 C   0  0  0  0  0  0  0  0  0  0  0  0
   -5.4618   -2.2121   -0.6546 C   0  0  1  0  0  0  0  0  0  0  0  0
   -6.3316   -1.6247    0.4678 C   0  0  0  0  0  0  0  0  0  0  0  0
   -5.8537   -0.2058    0.8141 C   0  0  2  0  0  0  0  0  0  0  0  0
   -5.9512    0.6820   -0.4384 C   0  0  0  0  0  0  0  0  0  0  0  0
   -5.0833    0.1018   -1.5681 C   0  0  2  0  0  0  0  0  0  0  0  0
   -5.5661   -1.3186   -1.9002 C   0  0  0  0  0  0  0  0  0  0  0  0
   -3.6175    0.0455   -1.1023 C   0  0  0  0  0  0  0  0  0  0  0  0
   -4.3888   -0.2623    1.2826 C   0  0  0  0  0  0  0  0  0  0  0  0
    0.9398    0.8214    2.0263 C   0  0  0  0  0  0  0  0  0  0  0  0
    1.9907    1.2427    0.9738 C   0  0  2  0  0  0  0  0  0  0  0  0
    2.1749    2.7414    0.8815 C   0  0  0  0  0  0  0  0  0  0  0  0
    1.1315    3.5905    0.4831 C   0  0  0  0  0  0  0  0  0  0  0  0
    1.3253    4.9709    0.4015 C   0  0  0  0  0  0  0  0  0  0  0  0
    2.5632    5.5228    0.7208 C   0  0  0  0  0  0  0  0  0  0  0  0
    3.6061    4.6950    1.1282 C   0  0  0  0  0  0  0  0  0  0  0  0
    3.4123    3.3145    1.2113 C   0  0  0  0  0  0  0  0  0  0  0  0
    4.9838    0.2486   -0.6564 C   0  0  0  0  0  0  0  0  0  0  0  0
    6.1239   -0.4998   -0.3546 C   0  0  0  0  0  0  0  0  0  0  0  0
    8.3697   -4.2348   -0.0466 H   0  0  0  0  0  0  0  0  0  0  0  0
    7.2278   -4.1889   -1.3953 H   0  0  0  0  0  0  0  0  0  0  0  0
    6.6456   -4.4118    0.3009 H   0  0  0  0  0  0  0  0  0  0  0  0
    4.9394   -3.5937   -1.1325 H   0  0  0  0  0  0  0  0  0  0  0  0
    2.9542   -2.2851   -1.6612 H   0  0  0  0  0  0  0  0  0  0  0  0
    2.1137   -0.0199   -2.3248 H   0  0  0  0  0  0  0  0  0  0  0  0
    2.9005    1.4279   -1.7650 H   0  0  0  0  0  0  0  0  0  0  0  0
    0.7122    1.1502   -0.7785 H   0  0  0  0  0  0  0  0  0  0  0  0
    0.3255   -1.2345   -0.6064 H   0  0  0  0  0  0  0  0  0  0  0  0
    1.7028   -1.4499    0.4899 H   0  0  0  0  0  0  0  0  0  0  0  0
    0.0117   -1.1397    2.1095 H   0  0  0  0  0  0  0  0  0  0  0  0
   -1.7114   -1.8770    0.7310 H   0  0  0  0  0  0  0  0  0  0  0  0
   -3.9097   -2.9175    0.6853 H   0  0  0  0  0  0  0  0  0  0  0  0
   -3.3722   -2.7011   -0.9725 H   0  0  0  0  0  0  0  0  0  0  0  0
   -5.8042   -3.2246   -0.8962 H   0  0  0  0  0  0  0  0  0  0  0  0
   -6.2799   -2.2652    1.3569 H   0  0  0  0  0  0  0  0  0  0  0  0
   -7.3824   -1.6002    0.1539 H   0  0  0  0  0  0  0  0  0  0  0  0
   -6.4798    0.2101    1.6114 H   0  0  0  0  0  0  0  0  0  0  0  0
   -5.6248    1.7020   -0.2011 H   0  0  0  0  0  0  0  0  0  0  0  0
   -6.9955    0.7505   -0.7673 H   0  0  0  0  0  0  0  0  0  0  0  0
   -5.1630    0.7360   -2.4582 H   0  0  0  0  0  0  0  0  0  0  0  0
   -6.6038   -1.2888   -2.2544 H   0  0  0  0  0  0  0  0  0  0  0  0
   -4.9635   -1.7387   -2.7149 H   0  0  0  0  0  0  0  0  0  0  0  0
   -3.2667    1.0664   -0.9124 H   0  0  0  0  0  0  0  0  0  0  0  0
   -2.9843   -0.3515   -1.9067 H   0  0  0  0  0  0  0  0  0  0  0  0
   -4.3092   -0.8798    2.1869 H   0  0  0  0  0  0  0  0  0  0  0  0
   -4.0671    0.7455    1.5706 H   0  0  0  0  0  0  0  0  0  0  0  0
    0.3174    1.6510    2.3771 H   0  0  0  0  0  0  0  0  0  0  0  0
    1.4653    0.4431    2.9128 H   0  0  0  0  0  0  0  0  0  0  0  0
    2.9408    0.7916    1.2890 H   0  0  0  0  0  0  0  0  0  0  0  0
    0.1491    3.1861    0.2442 H   0  0  0  0  0  0  0  0  0  0  0  0
    0.5045    5.6135    0.0939 H   0  0  0  0  0  0  0  0  0  0  0  0
    2.7119    6.5972    0.6591 H   0  0  0  0  0  0  0  0  0  0  0  0
    4.5707    5.1238    1.3862 H   0  0  0  0  0  0  0  0  0  0  0  0
    4.2382    2.6885    1.5415 H   0  0  0  0  0  0  0  0  0  0  0  0
    5.0130    1.3289   -0.5357 H   0  0  0  0  0  0  0  0  0  0  0  0
    7.0181    0.0042    0.0036 H   0  0  0  0  0  0  0  0  0  0  0  0
  1  2  1  0
  2  3  1  0
  3  4  1  0
  4  5  2  0
  5  6  1  0
  6  7  1  0
  7  8  1  0
  8  9  1  0
  9 10  1  0
 10 11  1  0
 11 12  2  0
 11 13  1  0
 14 13  1  1
 14 15  1  0
 15 16  1  0
 16 17  1  0
 17 18  1  0
 18 19  1  0
 19 20  1  0
 20 21  1  0
 20 22  1  0
 18 23  1  0
 10 24  1  0
 24 25  1  0
 25 26  1  0
 26 27  2  0
 27 28  1  0
 28 29  2  0
 29 30  1  0
 30 31  2  0
  6 32  2  0
 32 33  1  0
 33  3  2  0
 25  8  1  0
 31 26  1  0
 22 14  1  0
 23 14  1  0
 21 16  1  0
  1 34  1  0
  1 35  1  0
  1 36  1  0
  4 37  1  0
  5 38  1  0
  7 39  1  0
  7 40  1  0
  8 41  1  6
  9 42  1  0
  9 43  1  0
 10 44  1  1
 13 45  1  0
 15 46  1  0
 15 47  1  0
 16 48  1  6
 17 49  1  0
 17 50  1  0
 18 51  1  1
 19 52  1  0
 19 53  1  0
 20 54  1  6
 21 55  1  0
 21 56  1  0
 22 57  1  0
 22 58  1  0
 23 59  1  0
 23 60  1  0
 24 61  1  0
 24 62  1  0
 25 63  1  1
 27 64  1  0
 28 65  1  0
 29 66  1  0
 30 67  1  0
 31 68  1  0
 32 69  1  0
 33 70  1  0
M  END
>  <_SMILES>  (111) 
COc1ccc(C[C@H]2C[C@H](C(=O)N[C@]34C[C@H]5C[C@H](C[C@H](C5)C3)C4)C[C@@H]2c2ccccc2)cc1

$$$$

     RDKit          3D

 56 60  0  0  0  0  0  0  0  0999 V2000
   -0.7784   -0.0108   -2.0791 O   0  0  0  0  0  0  0  0  0  0  0  0
   -0.1520   -0.1487   -1.0350 C   0  0  0  0  0  0  0  0  0  0  0  0
   -0.7404   -0.2251    0.2123 N   0  0  0  0  0  0  0  0  0  0  0  0
   -2.1854   -0.2060    0.4616 C   0  0  2  0  0  0  0  0  0  0  0  0
   -2.8389    1.1076   -0.0371 C   0  0  0  0  0  0  0  0  0  0  0  0
   -4.3440    1.1199    0.2842 C   0  0  1  0  0  0  0  0  0  0  0  0
   -5.0163   -0.0848   -0.3963 C   0  0  0  0  0  0  0  0  0  0  0  0
   -4.4007   -1.3966    0.1200 C   0  0  2  0  0  0  0  0  0  0  0  0
   -4.5960   -1.4834    1.6419 C   0  0  0  0  0  0  0  0  0  0  0  0
   -3.9186   -0.2863    2.3271 C   0  0  2  0  0  0  0  0  0  0  0  0
   -4.5402    1.0181    1.8048 C   0  0  0  0  0  0  0  0  0  0  0  0
   -2.4182   -0.2979    1.9945 C   0  0  0  0  0  0  0  0  0  0  0  0
   -2.8958   -1.4116   -0.2017 C   0  0  0  0  0  0  0  0  0  0  0  0
    1.3769   -0.2122   -0.9784 C   0  0  1  0  0  0  0  0  0  0  0  0
    1.9903   -0.5146   -2.3566 C   0  0  0  0  0  0  0  0  0  0  0  0
    2.6053    0.7157   -3.0096 C   0  0  0  0  0  0  0  0  0  0  0  0
    3.6893    1.3672   -2.1462 C   0  0  0  0  0  0  0  0  0  0  0  0
    3.3903    1.3542   -0.6314 C   0  0  2  0  0  0  0  0  0  0  0  0
    4.2593    0.4435    0.2312 C   0  0  0  0  0  0  0  0  0  0  0  0
    4.8870   -0.7145   -0.2469 C   0  0  0  0  0  0  0  0  0  0  0  0
    5.6549   -1.5182    0.6013 C   0  0  0  0  0  0  0  0  0  0  0  0
    5.8080   -1.1783    1.9424 C   0  0  0  0  0  0  0  0  0  0  0  0
    5.1938   -0.0329    2.4378 C   0  0  0  0  0  0  0  0  0  0  0  0
    4.4267    0.7691    1.5903 C   0  0  0  0  0  0  0  0  0  0  0  0
    1.8987    1.0984   -0.3610 C   0  0  0  0  0  0  0  0  0  0  0  0
   -0.1378   -0.4516    0.9935 H   0  0  0  0  0  0  0  0  0  0  0  0
   -2.3497    1.9729    0.4293 H   0  0  0  0  0  0  0  0  0  0  0  0
   -2.7070    1.2276   -1.1185 H   0  0  0  0  0  0  0  0  0  0  0  0
   -4.7919    2.0496   -0.0840 H   0  0  0  0  0  0  0  0  0  0  0  0
   -4.8949   -0.0166   -1.4844 H   0  0  0  0  0  0  0  0  0  0  0  0
   -6.0946   -0.0736   -0.1951 H   0  0  0  0  0  0  0  0  0  0  0  0
   -4.8894   -2.2497   -0.3639 H   0  0  0  0  0  0  0  0  0  0  0  0
   -5.6662   -1.4966    1.8823 H   0  0  0  0  0  0  0  0  0  0  0  0
   -4.1729   -2.4217    2.0213 H   0  0  0  0  0  0  0  0  0  0  0  0
   -4.0579   -0.3538    3.4118 H   0  0  0  0  0  0  0  0  0  0  0  0
   -5.6094    1.0476    2.0478 H   0  0  0  0  0  0  0  0  0  0  0  0
   -4.0770    1.8797    2.3011 H   0  0  0  0  0  0  0  0  0  0  0  0
   -1.9599   -1.2138    2.3914 H   0  0  0  0  0  0  0  0  0  0  0  0
   -1.9194    0.5384    2.5025 H   0  0  0  0  0  0  0  0  0  0  0  0
   -2.4485   -2.3517    0.1470 H   0  0  0  0  0  0  0  0  0  0  0  0
   -2.7626   -1.3942   -1.2899 H   0  0  0  0  0  0  0  0  0  0  0  0
    1.6317   -1.0534   -0.3191 H   0  0  0  0  0  0  0  0  0  0  0  0
    2.7697   -1.2762   -2.2400 H   0  0  0  0  0  0  0  0  0  0  0  0
    1.2574   -0.9615   -3.0381 H   0  0  0  0  0  0  0  0  0  0  0  0
    1.8128    1.4481   -3.2103 H   0  0  0  0  0  0  0  0  0  0  0  0
    3.0302    0.4493   -3.9843 H   0  0  0  0  0  0  0  0  0  0  0  0
    3.7745    2.4122   -2.4748 H   0  0  0  0  0  0  0  0  0  0  0  0
    4.6658    0.9256   -2.3730 H   0  0  0  0  0  0  0  0  0  0  0  0
    3.6132    2.3742   -0.2836 H   0  0  0  0  0  0  0  0  0  0  0  0
    4.7970   -1.0176   -1.2856 H   0  0  0  0  0  0  0  0  0  0  0  0
    6.1359   -2.4113    0.2103 H   0  0  0  0  0  0  0  0  0  0  0  0
    6.4074   -1.8036    2.5983 H   0  0  0  0  0  0  0  0  0  0  0  0
    5.3125    0.2394    3.4832 H   0  0  0  0  0  0  0  0  0  0  0  0
    3.9569    1.6614    2.0001 H   0  0  0  0  0  0  0  0  0  0  0  0
    1.6921    1.1049    0.7171 H   0  0  0  0  0  0  0  0  0  0  0  0
    1.3261    1.9440   -0.7686 H   0  0  0  0  0  0  0  0  0  0  0  0
  1  2  2  0
  2  3  1  0
  4  3  1  1
  4  5  1  0
  5  6  1  0
  6  7  1  0
  7  8  1  0
  8  9  1  0
  9 10  1  0
 10 11  1  0
 10 12  1  0
  8 13  1  0
  2 14  1  0
 14 15  1  0
 15 16  1  0
 16 17  1  0
 17 18  1  0
 18 19  1  0
 19 20  2  0
 20 21  1  0
 21 22  2  0
 22 23  1  0
 23 24  2  0
 18 25  1  0
 12  4  1  0
 25 14  1  0
 13  4  1  0
 24 19  1  0
 11  6  1  0
  3 26  1  0
  5 27  1  0
  5 28  1  0
  6 29  1  6
  7 30  1  0
  7 31  1  0
  8 32  1  6
  9 33  1  0
  9 34  1  0
 10 35  1  1
 11 36  1  0
 11 37  1  0
 12 38  1  0
 12 39  1  0
 13 40  1  0
 13 41  1  0
 14 42  1  1
 15 43  1  0
 15 44  1  0
 16 45  1  0
 16 46  1  0
 17 47  1  0
 17 48  1  0
 18 49  1  1
 20 50  1  0
 21 51  1  0
 22 52  1  0
 23 53  1  0
 24 54  1  0
 25 55  1  0
 25 56  1  0
M  END
>  <_SMILES>  (112) 
O=C(N[C@]12C[C@H]3C[C@H](C[C@H](C3)C1)C2)[C@H]1CCC[C@H](c2ccccc2)C1

$$$$

     RDKit          3D

 66 71  0  0  0  0  0  0  0  0999 V2000
    1.2499    0.5549   -1.7589 O   0  0  0  0  0  0  0  0  0  0  0  0
    1.1488    0.9482   -0.6029 C   0  0  0  0  0  0  0  0  0  0  0  0
    2.1394    0.8109    0.3474 N   0  0  0  0  0  0  0  0  0  0  0  0
    3.4190    0.1266    0.1329 C   0  0  2  0  0  0  0  0  0  0  0  0
    4.2356    0.1896    1.4524 C   0  0  0  0  0  0  0  0  0  0  0  0
    5.5916   -0.5170    1.2969 C   0  0  1  0  0  0  0  0  0  0  0  0
    5.3533   -1.9884    0.9233 C   0  0  0  0  0  0  0  0  0  0  0  0
    4.5685   -2.0744   -0.3951 C   0  0  2  0  0  0  0  0  0  0  0  0
    5.3694   -1.3782   -1.5087 C   0  0  0  0  0  0  0  0  0  0  0  0
    5.6131    0.0962   -1.1438 C   0  0  2  0  0  0  0  0  0  0  0  0
    6.3918    0.1691    0.1789 C   0  0  0  0  0  0  0  0  0  0  0  0
    4.2583    0.8073   -0.9769 C   0  0  0  0  0  0  0  0  0  0  0  0
    3.2127   -1.3660   -0.2274 C   0  0  0  0  0  0  0  0  0  0  0  0
   -0.0930    1.6597   -0.0750 C   0  0  1  0  0  0  0  0  0  0  0  0
   -1.1727    1.8732   -1.1423 C   0  0  0  0  0  0  0  0  0  0  0  0
   -2.4975    1.7380   -0.3904 C   0  0  1  0  0  0  0  0  0  0  0  0
   -3.6912    1.5529   -1.3372 C   0  0  0  0  0  0  0  0  0  0  0  0
   -5.0366    1.5229   -0.6481 C   0  0  0  0  0  0  0  0  0  0  0  0
   -5.8800    0.4110   -0.8014 C   0  0  0  0  0  0  0  0  0  0  0  0
   -7.1268    0.3746   -0.1757 C   0  0  0  0  0  0  0  0  0  0  0  0
   -7.5375    1.4545    0.5944 C   0  0  0  0  0  0  0  0  0  0  0  0
   -8.7339    1.4200    1.1958 F   0  0  0  0  0  0  0  0  0  0  0  0
   -6.7272    2.5725    0.7465 C   0  0  0  0  0  0  0  0  0  0  0  0
   -5.4794    2.6097    0.1220 C   0  0  0  0  0  0  0  0  0  0  0  0
   -2.2309    0.6304    0.6505 C   0  0  1  0  0  0  0  0  0  0  0  0
   -2.4820   -0.8090    0.2302 C   0  0  0  0  0  0  0  0  0  0  0  0
   -1.7181   -1.4726   -0.7413 C   0  0  0  0  0  0  0  0  0  0  0  0
   -1.9924   -2.7995   -1.0883 C   0  0  0  0  0  0  0  0  0  0  0  0
   -3.0326   -3.4805   -0.4647 C   0  0  0  0  0  0  0  0  0  0  0  0
   -3.3706   -5.1112   -0.8947 Cl  0  0  0  0  0  0  0  0  0  0  0  0
   -3.8000   -2.8469    0.5062 C   0  0  0  0  0  0  0  0  0  0  0  0
   -3.5235   -1.5215    0.8519 C   0  0  0  0  0  0  0  0  0  0  0  0
   -0.7692    0.8807    1.0697 C   0  0  0  0  0  0  0  0  0  0  0  0
    1.9507    1.1621    1.2774 H   0  0  0  0  0  0  0  0  0  0  0  0
    4.3950    1.2353    1.7478 H   0  0  0  0  0  0  0  0  0  0  0  0
    3.6683   -0.2759    2.2696 H   0  0  0  0  0  0  0  0  0  0  0  0
    6.1488   -0.4603    2.2387 H   0  0  0  0  0  0  0  0  0  0  0  0
    4.7986   -2.4936    1.7235 H   0  0  0  0  0  0  0  0  0  0  0  0
    6.3131   -2.5099    0.8230 H   0  0  0  0  0  0  0  0  0  0  0  0
    4.4050   -3.1253   -0.6592 H   0  0  0  0  0  0  0  0  0  0  0  0
    4.8253   -1.4441   -2.4589 H   0  0  0  0  0  0  0  0  0  0  0  0
    6.3284   -1.8902   -1.6550 H   0  0  0  0  0  0  0  0  0  0  0  0
    6.1894    0.5831   -1.9384 H   0  0  0  0  0  0  0  0  0  0  0  0
    7.3693   -0.3157    0.0658 H   0  0  0  0  0  0  0  0  0  0  0  0
    6.5844    1.2161    0.4435 H   0  0  0  0  0  0  0  0  0  0  0  0
    4.4190    1.8656   -0.7328 H   0  0  0  0  0  0  0  0  0  0  0  0
    3.7289    0.7914   -1.9365 H   0  0  0  0  0  0  0  0  0  0  0  0
    2.6388   -1.4697   -1.1558 H   0  0  0  0  0  0  0  0  0  0  0  0
    2.6241   -1.8648    0.5538 H   0  0  0  0  0  0  0  0  0  0  0  0
    0.2323    2.6398    0.2994 H   0  0  0  0  0  0  0  0  0  0  0  0
   -1.1109    1.1485   -1.9603 H   0  0  0  0  0  0  0  0  0  0  0  0
   -1.0781    2.8654   -1.5985 H   0  0  0  0  0  0  0  0  0  0  0  0
   -2.6349    2.6770    0.1660 H   0  0  0  0  0  0  0  0  0  0  0  0
   -3.5576    0.6479   -1.9424 H   0  0  0  0  0  0  0  0  0  0  0  0
   -3.7111    2.3819   -2.0574 H   0  0  0  0  0  0  0  0  0  0  0  0
   -5.5660   -0.4387   -1.4051 H   0  0  0  0  0  0  0  0  0  0  0  0
   -7.7778   -0.4863   -0.2875 H   0  0  0  0  0  0  0  0  0  0  0  0
   -7.0737    3.4089    1.3447 H   0  0  0  0  0  0  0  0  0  0  0  0
   -4.8598    3.4961    0.2348 H   0  0  0  0  0  0  0  0  0  0  0  0
   -2.8629    0.8295    1.5270 H   0  0  0  0  0  0  0  0  0  0  0  0
   -0.8933   -0.9803   -1.2481 H   0  0  0  0  0  0  0  0  0  0  0  0
   -1.3867   -3.2908   -1.8455 H   0  0  0  0  0  0  0  0  0  0  0  0
   -4.6134   -3.3733    0.9977 H   0  0  0  0  0  0  0  0  0  0  0  0
   -4.1408   -1.0429    1.6108 H   0  0  0  0  0  0  0  0  0  0  0  0
   -0.7627    1.5181    1.9640 H   0  0  0  0  0  0  0  0  0  0  0  0
   -0.2461   -0.0425    1.3432 H   0  0  0  0  0  0  0  0  0  0  0  0
  1  2  2  0
  2  3  1  0
  4  3  1  1
  4  5  1  0
  5  6  1  0
  6  7  1  0
  7  8  1  0
  8  9  1  0
  9 10  1  0
 10 11  1  0
 10 12  1  0
  8 13  1  0
  2 14  1  0
 14 15  1  0
 15 16  1  0
 16 17  1  0
 17 18  1  0
 18 19  1  0
 19 20  2  0
 20 21  1  0
 21 22  1  0
 21 23  2  0
 23 24  1  0
 16 25  1  0
 25 26  1  0
 26 27  1  0
 27 28  2  0
 28 29  1  0
 29 30  1  0
 29 31  2  0
 31 32  1  0
 25 33  1  0
 12  4  1  0
 33 14  1  0
 13  4  1  0
 24 18  2  0
 32 26  2  0
 11  6  1  0
  3 34  1  0
  5 35  1  0
  5 36  1  0
  6 37  1  1
  7 38  1  0
  7 39  1  0
  8 40  1  6
  9 41  1  0
  9 42  1  0
 10 43  1  6
 11 44  1  0
 11 45  1  0
 12 46  1  0
 12 47  1  0
 13 48  1  0
 13 49  1  0
 14 50  1  1
 15 51  1  0
 15 52  1  0
 16 53  1  1
 17 54  1  0
 17 55  1  0
 19 56  1  0
 20 57  1  0
 23 58  1  0
 24 59  1  0
 25 60  1  1
 27 61  1  0
 28 62  1  0
 31 63  1  0
 32 64  1  0
 33 65  1  0
 33 66  1  0
M  END
>  <_SMILES>  (113) 
O=C(N[C@]12C[C@H]3C[C@H](C[C@H](C3)C1)C2)[C@H]1C[C@@H](Cc2ccc(F)cc2)[C@@H](c2ccc(Cl)cc2)C1

$$$$
