
     RDKit          3D

 46 49  0  0  0  0  0  0  0  0999 V2000
   10.0100    2.8980  -55.7350 O   0  0  0  0  0  0  0  0  0  0  0  0
    9.1860    2.0090  -55.9360 C   0  0  0  0  0  0  0  0  0  0  0  0
    8.0620    2.2150  -56.7190 N   0  0  0  0  0  0  0  0  0  0  0  0
    7.8820    3.4400  -57.4650 C   0  0  0  0  0  0  0  0  0  0  0  0
    8.4570    3.3050  -58.8500 C   0  0  0  0  0  0  0  0  0  0  0  0
    8.1100    2.2220  -59.6700 C   0  0  0  0  0  0  0  0  0  0  0  0
    8.6660    2.0930  -60.9440 C   0  0  0  0  0  0  0  0  0  0  0  0
    9.5790    3.0400  -61.4080 C   0  0  0  0  0  0  0  0  0  0  0  0
    9.9380    4.1150  -60.5980 C   0  0  0  0  0  0  0  0  0  0  0  0
    9.3820    4.2480  -59.3250 C   0  0  0  0  0  0  0  0  0  0  0  0
    9.3150    0.6450  -55.3770 C   0  0  0  0  0  0  0  0  0  0  0  0
    8.7500    0.1140  -54.1960 C   0  0  0  0  0  0  0  0  0  0  0  0
    9.1370   -1.2120  -54.1340 C   0  0  0  0  0  0  0  0  0  0  0  0
    8.6750   -2.2070  -53.1720 C   0  0  0  0  0  0  0  0  0  0  0  0
    7.5340   -2.9750  -53.4390 C   0  0  0  0  0  0  0  0  0  0  0  0
    7.0820   -3.9110  -52.5070 C   0  0  0  0  0  0  0  0  0  0  0  0
    7.7600   -4.0780  -51.3000 C   0  0  0  0  0  0  0  0  0  0  0  0
    8.8870   -3.3060  -51.0220 C   0  0  0  0  0  0  0  0  0  0  0  0
    9.3410   -2.3690  -51.9510 C   0  0  0  0  0  0  0  0  0  0  0  0
    9.9940   -1.4040  -55.2180 N   0  0  0  0  0  0  0  0  0  0  0  0
   10.8040   -2.5280  -55.5860 C   0  0  0  0  0  0  0  0  0  0  0  0
   11.5490   -2.4650  -56.7770 C   0  0  0  0  0  0  0  0  0  0  0  0
   12.3530   -3.5360  -57.1770 C   0  0  0  0  0  0  0  0  0  0  0  0
   12.4310   -4.6790  -56.3890 C   0  0  0  0  0  0  0  0  0  0  0  0
   11.7140   -4.7470  -55.1960 C   0  0  0  0  0  0  0  0  0  0  0  0
   10.9080   -3.6770  -54.7920 C   0  0  0  0  0  0  0  0  0  0  0  0
   10.0280   -0.2970  -56.0080 N   0  0  0  0  0  0  0  0  0  0  0  0
    7.5330    1.4160  -57.0270 H   0  0  0  0  0  0  0  0  0  0  0  0
    6.8075    3.6635  -57.5396 H   0  0  0  0  0  0  0  0  0  0  0  0
    8.4041    4.2545  -56.9416 H   0  0  0  0  0  0  0  0  0  0  0  0
    7.3949    1.4690  -59.3071 H   0  0  0  0  0  0  0  0  0  0  0  0
    8.3837    1.2433  -61.5829 H   0  0  0  0  0  0  0  0  0  0  0  0
   10.0152    2.9380  -62.4127 H   0  0  0  0  0  0  0  0  0  0  0  0
   10.6607    4.8600  -60.9623 H   0  0  0  0  0  0  0  0  0  0  0  0
    9.6707    5.0979  -58.6892 H   0  0  0  0  0  0  0  0  0  0  0  0
    8.1242    0.6508  -53.4678 H   0  0  0  0  0  0  0  0  0  0  0  0
    6.9922   -2.8399  -54.3867 H   0  0  0  0  0  0  0  0  0  0  0  0
    6.1904   -4.5172  -52.7250 H   0  0  0  0  0  0  0  0  0  0  0  0
    7.4058   -4.8184  -50.5677 H   0  0  0  0  0  0  0  0  0  0  0  0
    9.4195   -3.4358  -50.0683 H   0  0  0  0  0  0  0  0  0  0  0  0
   10.2252   -1.7555  -51.7233 H   0  0  0  0  0  0  0  0  0  0  0  0
   11.4983   -1.5612  -57.4019 H   0  0  0  0  0  0  0  0  0  0  0  0
   12.9241   -3.4747  -58.1152 H   0  0  0  0  0  0  0  0  0  0  0  0
   13.0564   -5.5265  -56.7062 H   0  0  0  0  0  0  0  0  0  0  0  0
   11.7821   -5.6475  -54.5680 H   0  0  0  0  0  0  0  0  0  0  0  0
   10.3524   -3.7387  -53.8446 H   0  0  0  0  0  0  0  0  0  0  0  0
  1  2  2  0
  2  3  1  0
  3  4  1  0
  4  5  1  0
  5  6  2  0
  6  7  1  0
  7  8  2  0
  8  9  1  0
  9 10  2  0
  2 11  1  0
 11 12  1  0
 12 13  2  0
 13 14  1  0
 14 15  2  0
 15 16  1  0
 16 17  2  0
 17 18  1  0
 18 19  2  0
 13 20  1  0
 20 21  1  0
 21 22  2  0
 22 23  1  0
 23 24  2  0
 24 25  1  0
 25 26  2  0
 20 27  1  0
 10  5  1  0
 27 11  2  0
 19 14  1  0
 26 21  1  0
  3 28  1  0
  4 29  1  0
  4 30  1  0
  6 31  1  0
  7 32  1  0
  8 33  1  0
  9 34  1  0
 10 35  1  0
 12 36  1  0
 15 37  1  0
 16 38  1  0
 17 39  1  0
 18 40  1  0
 19 41  1  0
 22 42  1  0
 23 43  1  0
 24 44  1  0
 25 45  1  0
 26 46  1  0
M  END
>  <meeko>  (1) 
{"is_sidechain": false}

$$$$

     RDKit          3D

 49 52  0  0  0  0  0  0  0  0999 V2000
    7.8620    0.3900  -53.2330 O   0  0  0  0  0  0  0  0  0  0  0  0
    8.0640   -0.0300  -54.3690 C   0  0  0  0  0  0  0  0  0  0  0  0
    8.4750   -1.3350  -54.6080 N   0  0  0  0  0  0  0  0  0  0  0  0
    8.8100   -2.2360  -53.5130 C   0  0  0  0  0  0  0  0  0  0  0  0
    8.7930   -3.6950  -53.9880 C   0  0  0  0  0  0  0  0  0  0  0  0
    9.9790   -4.0460  -54.8860 C   0  0  0  0  0  0  0  0  0  0  0  0
   11.3090   -3.6780  -54.2350 C   0  0  0  0  0  0  0  0  0  0  0  0
   11.3420   -2.2170  -53.8010 C   0  0  0  0  0  0  0  0  0  0  0  0
   10.1660   -1.8750  -52.8880 C   0  0  0  0  0  0  0  0  0  0  0  0
    7.9100    0.8030  -55.5810 C   0  0  0  0  0  0  0  0  0  0  0  0
    8.8680    1.6310  -56.2090 C   0  0  0  0  0  0  0  0  0  0  0  0
    8.2310    2.2270  -57.2820 C   0  0  0  0  0  0  0  0  0  0  0  0
    8.7710    3.2780  -58.1380 C   0  0  0  0  0  0  0  0  0  0  0  0
    8.4540    4.6210  -57.9000 C   0  0  0  0  0  0  0  0  0  0  0  0
    8.9910    5.6250  -58.7090 C   0  0  0  0  0  0  0  0  0  0  0  0
    9.8550    5.2950  -59.7510 C   0  0  0  0  0  0  0  0  0  0  0  0
   10.1880    3.9620  -59.9850 C   0  0  0  0  0  0  0  0  0  0  0  0
    9.6520    2.9560  -59.1780 C   0  0  0  0  0  0  0  0  0  0  0  0
    6.9560    1.6620  -57.3230 N   0  0  0  0  0  0  0  0  0  0  0  0
    5.9080    1.7820  -58.2940 C   0  0  0  0  0  0  0  0  0  0  0  0
    6.0620    1.1420  -59.5370 C   0  0  0  0  0  0  0  0  0  0  0  0
    5.0670    1.2300  -60.5150 C   0  0  0  0  0  0  0  0  0  0  0  0
    3.9130    1.9660  -60.2690 C   0  0  0  0  0  0  0  0  0  0  0  0
    3.7580    2.6220  -59.0500 C   0  0  0  0  0  0  0  0  0  0  0  0
    4.7520    2.5370  -58.0680 C   0  0  0  0  0  0  0  0  0  0  0  0
    6.7450    0.8710  -56.2370 N   0  0  0  0  0  0  0  0  0  0  0  0
    8.8490   -1.5450  -55.5220 H   0  0  0  0  0  0  0  0  0  0  0  0
    8.0440   -2.1197  -52.7322 H   0  0  0  0  0  0  0  0  0  0  0  0
    8.8158   -4.3510  -53.1053 H   0  0  0  0  0  0  0  0  0  0  0  0
    7.8781   -3.8364  -54.5821 H   0  0  0  0  0  0  0  0  0  0  0  0
    9.9671   -5.1277  -55.0855 H   0  0  0  0  0  0  0  0  0  0  0  0
    9.8839   -3.4716  -55.8193 H   0  0  0  0  0  0  0  0  0  0  0  0
   11.4614   -4.3154  -53.3515 H   0  0  0  0  0  0  0  0  0  0  0  0
   12.1068   -3.8325  -54.9764 H   0  0  0  0  0  0  0  0  0  0  0  0
   12.2808   -2.0263  -53.2604 H   0  0  0  0  0  0  0  0  0  0  0  0
   11.2726   -1.5889  -54.7014 H   0  0  0  0  0  0  0  0  0  0  0  0
   10.2786   -2.4303  -51.9451 H   0  0  0  0  0  0  0  0  0  0  0  0
   10.1779   -0.7877  -52.7217 H   0  0  0  0  0  0  0  0  0  0  0  0
    9.9152    1.7734  -55.9040 H   0  0  0  0  0  0  0  0  0  0  0  0
    7.7794    4.8863  -57.0726 H   0  0  0  0  0  0  0  0  0  0  0  0
    8.7314    6.6777  -58.5232 H   0  0  0  0  0  0  0  0  0  0  0  0
   10.2744    6.0867  -60.3892 H   0  0  0  0  0  0  0  0  0  0  0  0
   10.8731    3.7022  -60.8055 H   0  0  0  0  0  0  0  0  0  0  0  0
    9.9231    1.9056  -59.3601 H   0  0  0  0  0  0  0  0  0  0  0  0
    6.9761    0.5655  -59.7419 H   0  0  0  0  0  0  0  0  0  0  0  0
    5.1969    0.7170  -61.4793 H   0  0  0  0  0  0  0  0  0  0  0  0
    3.1254    2.0299  -61.0343 H   0  0  0  0  0  0  0  0  0  0  0  0
    2.8488    3.2105  -58.8578 H   0  0  0  0  0  0  0  0  0  0  0  0
    4.6234    3.0671  -57.1128 H   0  0  0  0  0  0  0  0  0  0  0  0
  1  2  2  0
  2  3  1  0
  3  4  1  0
  4  5  1  0
  5  6  1  0
  6  7  1  0
  7  8  1  0
  8  9  1  0
  2 10  1  0
 10 11  1  0
 11 12  2  0
 12 13  1  0
 13 14  2  0
 14 15  1  0
 15 16  2  0
 16 17  1  0
 17 18  2  0
 12 19  1  0
 19 20  1  0
 20 21  2  0
 21 22  1  0
 22 23  2  0
 23 24  1  0
 24 25  2  0
 19 26  1  0
  9  4  1  0
 26 10  2  0
 18 13  1  0
 25 20  1  0
  3 27  1  0
  4 28  1  0
  5 29  1  0
  5 30  1  0
  6 31  1  0
  6 32  1  0
  7 33  1  0
  7 34  1  0
  8 35  1  0
  8 36  1  0
  9 37  1  0
  9 38  1  0
 11 39  1  0
 14 40  1  0
 15 41  1  0
 16 42  1  0
 17 43  1  0
 18 44  1  0
 21 45  1  0
 22 46  1  0
 23 47  1  0
 24 48  1  0
 25 49  1  0
M  END
>  <meeko>  (2) 
{"is_sidechain": false}

$$$$

     RDKit          3D

 38 40  0  0  0  0  0  0  0  0999 V2000
    5.5710   -4.3560  -50.4830 C   0  0  0  0  0  0  0  0  0  0  0  0
    6.9430   -4.7810  -50.9700 C   0  0  0  0  0  0  0  0  0  0  0  0
    7.9650   -4.0760  -50.2510 O   0  0  0  0  0  0  0  0  0  0  0  0
    8.0030   -2.7200  -50.4480 C   0  0  0  0  0  0  0  0  0  0  0  0
    7.7440   -1.8980  -49.5750 O   0  0  0  0  0  0  0  0  0  0  0  0
    8.3890   -2.3790  -51.8260 C   0  0  0  0  0  0  0  0  0  0  0  0
    9.4410   -2.9320  -52.5870 C   0  0  0  0  0  0  0  0  0  0  0  0
    9.3880   -2.3300  -53.8310 C   0  0  0  0  0  0  0  0  0  0  0  0
   10.1740   -2.6900  -55.0060 C   0  0  0  0  0  0  0  0  0  0  0  0
   10.0790   -3.9740  -55.5600 C   0  0  0  0  0  0  0  0  0  0  0  0
   10.8480   -4.3200  -56.6730 C   0  0  0  0  0  0  0  0  0  0  0  0
   11.7230   -3.3900  -57.2330 C   0  0  0  0  0  0  0  0  0  0  0  0
   11.8360   -2.1160  -56.6780 C   0  0  0  0  0  0  0  0  0  0  0  0
   11.0680   -1.7680  -55.5650 C   0  0  0  0  0  0  0  0  0  0  0  0
    8.3760   -1.3720  -53.7420 N   0  0  0  0  0  0  0  0  0  0  0  0
    7.9690   -0.3520  -54.6600 C   0  0  0  0  0  0  0  0  0  0  0  0
    6.6210   -0.2990  -55.0600 C   0  0  0  0  0  0  0  0  0  0  0  0
    6.1800    0.6800  -55.9540 C   0  0  0  0  0  0  0  0  0  0  0  0
    7.0730    1.6250  -56.4500 C   0  0  0  0  0  0  0  0  0  0  0  0
    8.4050    1.5960  -56.0450 C   0  0  0  0  0  0  0  0  0  0  0  0
    8.8530    0.6180  -55.1500 C   0  0  0  0  0  0  0  0  0  0  0  0
    7.7180   -1.4730  -52.5520 N   0  0  0  0  0  0  0  0  0  0  0  0
    5.5574   -4.3518  -49.3831 H   0  0  0  0  0  0  0  0  0  0  0  0
    5.3460   -3.3461  -50.8563 H   0  0  0  0  0  0  0  0  0  0  0  0
    4.8145   -5.0619  -50.8563 H   0  0  0  0  0  0  0  0  0  0  0  0
    7.0664   -5.8623  -50.8100 H   0  0  0  0  0  0  0  0  0  0  0  0
    7.0317   -4.5470  -52.0412 H   0  0  0  0  0  0  0  0  0  0  0  0
   10.1624   -3.6933  -52.2554 H   0  0  0  0  0  0  0  0  0  0  0  0
    9.3954   -4.7126  -55.1159 H   0  0  0  0  0  0  0  0  0  0  0  0
   10.7634   -5.3267  -57.1082 H   0  0  0  0  0  0  0  0  0  0  0  0
   12.3244   -3.6616  -58.1131 H   0  0  0  0  0  0  0  0  0  0  0  0
   12.5305   -1.3847  -57.1171 H   0  0  0  0  0  0  0  0  0  0  0  0
   11.1656   -0.7646  -55.1249 H   0  0  0  0  0  0  0  0  0  0  0  0
    5.9067   -1.0362  -54.6646 H   0  0  0  0  0  0  0  0  0  0  0  0
    5.1255    0.7038  -56.2662 H   0  0  0  0  0  0  0  0  0  0  0  0
    6.7281    2.3919  -57.1592 H   0  0  0  0  0  0  0  0  0  0  0  0
    9.1099    2.3470  -56.4312 H   0  0  0  0  0  0  0  0  0  0  0  0
    9.9052    0.6108  -54.8294 H   0  0  0  0  0  0  0  0  0  0  0  0
  1  2  1  0
  2  3  1  0
  3  4  1  0
  4  5  2  0
  4  6  1  0
  6  7  1  0
  7  8  2  0
  8  9  1  0
  9 10  2  0
 10 11  1  0
 11 12  2  0
 12 13  1  0
 13 14  2  0
  8 15  1  0
 15 16  1  0
 16 17  2  0
 17 18  1  0
 18 19  2  0
 19 20  1  0
 20 21  2  0
 15 22  1  0
 22  6  2  0
 14  9  1  0
 21 16  1  0
  1 23  1  0
  1 24  1  0
  1 25  1  0
  2 26  1  0
  2 27  1  0
  7 28  1  0
 10 29  1  0
 11 30  1  0
 12 31  1  0
 13 32  1  0
 14 33  1  0
 17 34  1  0
 18 35  1  0
 19 36  1  0
 20 37  1  0
 21 38  1  0
M  END
>  <meeko>  (3) 
{"is_sidechain": false}

$$$$

     RDKit          3D

 52 55  0  0  0  0  0  0  0  0999 V2000
    6.1190    1.5510  -55.9240 O   0  0  0  0  0  0  0  0  0  0  0  0
    7.3060    1.2370  -55.8570 C   0  0  0  0  0  0  0  0  0  0  0  0
    8.2850    1.9110  -56.5740 N   0  0  0  0  0  0  0  0  0  0  0  0
    7.9730    3.1080  -57.3410 C   0  0  0  0  0  0  0  0  0  0  0  0
    9.1090    4.1310  -57.2590 C   0  0  0  0  0  0  0  0  0  0  0  0
    8.7550    5.4350  -57.9800 C   0  0  0  0  0  0  0  0  0  0  0  0
    7.7720    5.2480  -59.1360 C   0  0  0  0  0  0  0  0  0  0  0  0
    7.9220    3.8820  -59.7890 C   0  0  0  0  0  0  0  0  0  0  0  0
    7.6630    2.7410  -58.8020 C   0  0  0  0  0  0  0  0  0  0  0  0
    7.8090    0.1380  -55.0060 C   0  0  0  0  0  0  0  0  0  0  0  0
    7.1110   -0.5950  -54.0060 C   0  0  0  0  0  0  0  0  0  0  0  0
    8.0080   -1.5120  -53.4970 C   0  0  0  0  0  0  0  0  0  0  0  0
    7.8300   -2.5050  -52.4510 C   0  0  0  0  0  0  0  0  0  0  0  0
    7.3380   -3.7760  -52.7640 C   0  0  0  0  0  0  0  0  0  0  0  0
    7.1620   -4.7290  -51.7580 C   0  0  0  0  0  0  0  0  0  0  0  0
    7.4810   -4.4140  -50.4360 C   0  0  0  0  0  0  0  0  0  0  0  0
    7.9780   -3.1510  -50.1200 C   0  0  0  0  0  0  0  0  0  0  0  0
    8.1570   -2.1990  -51.1260 C   0  0  0  0  0  0  0  0  0  0  0  0
    9.1710   -1.3020  -54.1990 N   0  0  0  0  0  0  0  0  0  0  0  0
   10.4530   -1.9800  -54.0280 C   0  0  0  0  0  0  0  0  0  0  0  0
   10.8310   -2.8010  -55.2370 C   0  0  0  0  0  0  0  0  0  0  0  0
   11.5600   -2.2260  -56.2890 C   0  0  0  0  0  0  0  0  0  0  0  0
   11.9050   -2.9830  -57.4100 C   0  0  0  0  0  0  0  0  0  0  0  0
   11.5200   -4.3190  -57.4960 C   0  0  0  0  0  0  0  0  0  0  0  0
   10.7900   -4.9010  -56.4610 C   0  0  0  0  0  0  0  0  0  0  0  0
   10.4440   -4.1460  -55.3390 C   0  0  0  0  0  0  0  0  0  0  0  0
    9.0780   -0.2990  -55.0980 N   0  0  0  0  0  0  0  0  0  0  0  0
    9.2450    1.7710  -56.2920 H   0  0  0  0  0  0  0  0  0  0  0  0
    7.0779    3.5738  -56.9029 H   0  0  0  0  0  0  0  0  0  0  0  0
    9.3120    4.3532  -56.2010 H   0  0  0  0  0  0  0  0  0  0  0  0
    9.9936    3.6989  -57.7497 H   0  0  0  0  0  0  0  0  0  0  0  0
    8.3064    6.1251  -57.2503 H   0  0  0  0  0  0  0  0  0  0  0  0
    9.6875    5.8291  -58.4102 H   0  0  0  0  0  0  0  0  0  0  0  0
    6.7464    5.3481  -58.7512 H   0  0  0  0  0  0  0  0  0  0  0  0
    7.9859    6.0153  -59.8946 H   0  0  0  0  0  0  0  0  0  0  0  0
    7.2031    3.8041  -60.6179 H   0  0  0  0  0  0  0  0  0  0  0  0
    8.9573    3.7903  -60.1491 H   0  0  0  0  0  0  0  0  0  0  0  0
    6.6030    2.4552  -58.8713 H   0  0  0  0  0  0  0  0  0  0  0  0
    8.3376    1.9170  -59.0775 H   0  0  0  0  0  0  0  0  0  0  0  0
    6.0636   -0.4579  -53.6993 H   0  0  0  0  0  0  0  0  0  0  0  0
    7.0888   -4.0261  -53.8058 H   0  0  0  0  0  0  0  0  0  0  0  0
    6.7723   -5.7270  -52.0073 H   0  0  0  0  0  0  0  0  0  0  0  0
    7.3400   -5.1633  -49.6431 H   0  0  0  0  0  0  0  0  0  0  0  0
    8.2294   -2.9039  -49.0780 H   0  0  0  0  0  0  0  0  0  0  0  0
    8.5565   -1.2052  -50.8755 H   0  0  0  0  0  0  0  0  0  0  0  0
   11.2331   -1.2239  -53.8555 H   0  0  0  0  0  0  0  0  0  0  0  0
   10.3611   -2.6639  -53.1714 H   0  0  0  0  0  0  0  0  0  0  0  0
   11.8622   -1.1700  -56.2299 H   0  0  0  0  0  0  0  0  0  0  0  0
   12.4816   -2.5239  -58.2265 H   0  0  0  0  0  0  0  0  0  0  0  0
   11.7919   -4.9143  -58.3801 H   0  0  0  0  0  0  0  0  0  0  0  0
   10.4863   -5.9561  -56.5284 H   0  0  0  0  0  0  0  0  0  0  0  0
    9.8631   -4.6093  -54.5279 H   0  0  0  0  0  0  0  0  0  0  0  0
  1  2  2  0
  2  3  1  0
  3  4  1  0
  4  5  1  0
  5  6  1  0
  6  7  1  0
  7  8  1  0
  8  9  1  0
  2 10  1  0
 10 11  1  0
 11 12  2  0
 12 13  1  0
 13 14  2  0
 14 15  1  0
 15 16  2  0
 16 17  1  0
 17 18  2  0
 12 19  1  0
 19 20  1  0
 20 21  1  0
 21 22  2  0
 22 23  1  0
 23 24  2  0
 24 25  1  0
 25 26  2  0
 19 27  1  0
  9  4  1  0
 27 10  2  0
 18 13  1  0
 26 21  1  0
  3 28  1  0
  4 29  1  0
  5 30  1  0
  5 31  1  0
  6 32  1  0
  6 33  1  0
  7 34  1  0
  7 35  1  0
  8 36  1  0
  8 37  1  0
  9 38  1  0
  9 39  1  0
 11 40  1  0
 14 41  1  0
 15 42  1  0
 16 43  1  0
 17 44  1  0
 18 45  1  0
 20 46  1  0
 20 47  1  0
 22 48  1  0
 23 49  1  0
 24 50  1  0
 25 51  1  0
 26 52  1  0
M  END
>  <meeko>  (4) 
{"is_sidechain": false}

$$$$

     RDKit          3D

 49 52  0  0  0  0  0  0  0  0999 V2000
    5.5430    1.4930  -56.1010 O   0  0  0  0  0  0  0  0  0  0  0  0
    6.7510    1.2650  -56.0890 C   0  0  0  0  0  0  0  0  0  0  0  0
    7.6260    1.9200  -56.9390 N   0  0  0  0  0  0  0  0  0  0  0  0
    7.1480    2.7940  -57.9840 C   0  0  0  0  0  0  0  0  0  0  0  0
    8.2890    3.2480  -58.8580 C   0  0  0  0  0  0  0  0  0  0  0  0
    8.9280    2.3540  -59.7280 C   0  0  0  0  0  0  0  0  0  0  0  0
    9.9690    2.7900  -60.5510 C   0  0  0  0  0  0  0  0  0  0  0  0
   10.3750    4.1220  -60.5160 C   0  0  0  0  0  0  0  0  0  0  0  0
    9.7410    5.0220  -59.6610 C   0  0  0  0  0  0  0  0  0  0  0  0
    8.7020    4.5890  -58.8370 C   0  0  0  0  0  0  0  0  0  0  0  0
    7.3800    0.2730  -55.1880 C   0  0  0  0  0  0  0  0  0  0  0  0
    6.7670   -0.5370  -54.1920 C   0  0  0  0  0  0  0  0  0  0  0  0
    7.7750   -1.2910  -53.6280 C   0  0  0  0  0  0  0  0  0  0  0  0
    7.7140   -2.2860  -52.5690 C   0  0  0  0  0  0  0  0  0  0  0  0
    7.4800   -3.6300  -52.8790 C   0  0  0  0  0  0  0  0  0  0  0  0
    7.4290   -4.5860  -51.8640 C   0  0  0  0  0  0  0  0  0  0  0  0
    7.6050   -4.2030  -50.5350 C   0  0  0  0  0  0  0  0  0  0  0  0
    7.8290   -2.8630  -50.2190 C   0  0  0  0  0  0  0  0  0  0  0  0
    7.8820   -1.9060  -51.2340 C   0  0  0  0  0  0  0  0  0  0  0  0
    8.9120   -0.9380  -54.3140 N   0  0  0  0  0  0  0  0  0  0  0  0
   10.2680   -1.4460  -54.1200 C   0  0  0  0  0  0  0  0  0  0  0  0
   10.6900   -2.3830  -55.2240 C   0  0  0  0  0  0  0  0  0  0  0  0
   10.2810   -3.7250  -55.2160 C   0  0  0  0  0  0  0  0  0  0  0  0
   10.6730   -4.5920  -56.2370 C   0  0  0  0  0  0  0  0  0  0  0  0
   11.4820   -4.1290  -57.2730 C   0  0  0  0  0  0  0  0  0  0  0  0
   11.9000   -2.8000  -57.2910 C   0  0  0  0  0  0  0  0  0  0  0  0
   11.5080   -1.9320  -56.2710 C   0  0  0  0  0  0  0  0  0  0  0  0
    8.7010    0.0240  -55.2360 N   0  0  0  0  0  0  0  0  0  0  0  0
    8.5640    1.5620  -57.0360 H   0  0  0  0  0  0  0  0  0  0  0  0
    6.4137    2.2538  -58.5996 H   0  0  0  0  0  0  0  0  0  0  0  0
    6.6812    3.6768  -57.5226 H   0  0  0  0  0  0  0  0  0  0  0  0
    8.6077    1.3023  -59.7629 H   0  0  0  0  0  0  0  0  0  0  0  0
   10.4686    2.0808  -61.2274 H   0  0  0  0  0  0  0  0  0  0  0  0
   11.1961    4.4637  -61.1632 H   0  0  0  0  0  0  0  0  0  0  0  0
   10.0602    6.0744  -59.6360 H   0  0  0  0  0  0  0  0  0  0  0  0
    8.2029    5.3037  -58.1661 H   0  0  0  0  0  0  0  0  0  0  0  0
    5.7002   -0.5579  -53.9246 H   0  0  0  0  0  0  0  0  0  0  0  0
    7.3358   -3.9340  -53.9263 H   0  0  0  0  0  0  0  0  0  0  0  0
    7.2498   -5.6425  -52.1125 H   0  0  0  0  0  0  0  0  0  0  0  0
    7.5672   -4.9577  -49.7356 H   0  0  0  0  0  0  0  0  0  0  0  0
    7.9639   -2.5604  -49.1701 H   0  0  0  0  0  0  0  0  0  0  0  0
    8.0565   -0.8494  -50.9826 H   0  0  0  0  0  0  0  0  0  0  0  0
   10.9643   -0.5949  -54.0925 H   0  0  0  0  0  0  0  0  0  0  0  0
   10.2852   -2.0088  -53.1751 H   0  0  0  0  0  0  0  0  0  0  0  0
    9.6461   -4.0969  -54.3983 H   0  0  0  0  0  0  0  0  0  0  0  0
   10.3432   -5.6413  -56.2240 H   0  0  0  0  0  0  0  0  0  0  0  0
   11.7908   -4.8132  -58.0770 H   0  0  0  0  0  0  0  0  0  0  0  0
   12.5387   -2.4351  -58.1089 H   0  0  0  0  0  0  0  0  0  0  0  0
   11.8434   -0.8845  -56.2880 H   0  0  0  0  0  0  0  0  0  0  0  0
  1  2  2  0
  2  3  1  0
  3  4  1  0
  4  5  1  0
  5  6  2  0
  6  7  1  0
  7  8  2  0
  8  9  1  0
  9 10  2  0
  2 11  1  0
 11 12  1  0
 12 13  2  0
 13 14  1  0
 14 15  2  0
 15 16  1  0
 16 17  2  0
 17 18  1  0
 18 19  2  0
 13 20  1  0
 20 21  1  0
 21 22  1  0
 22 23  2  0
 23 24  1  0
 24 25  2  0
 25 26  1  0
 26 27  2  0
 20 28  1  0
 10  5  1  0
 28 11  2  0
 19 14  1  0
 27 22  1  0
  3 29  1  0
  4 30  1  0
  4 31  1  0
  6 32  1  0
  7 33  1  0
  8 34  1  0
  9 35  1  0
 10 36  1  0
 12 37  1  0
 15 38  1  0
 16 39  1  0
 17 40  1  0
 18 41  1  0
 19 42  1  0
 21 43  1  0
 21 44  1  0
 23 45  1  0
 24 46  1  0
 25 47  1  0
 26 48  1  0
 27 49  1  0
M  END
>  <meeko>  (5) 
{"is_sidechain": false}

$$$$

     RDKit          3D

 45 47  0  0  0  0  0  0  0  0999 V2000
    7.8160   -2.5060  -50.0000 C   0  0  0  0  0  0  0  0  0  0  0  0
    8.9700   -3.2850  -50.6110 C   0  0  0  0  0  0  0  0  0  0  0  0
    9.2840   -2.8020  -52.0260 C   0  0  0  0  0  0  0  0  0  0  0  0
    8.0310   -2.7900  -52.8980 C   0  0  0  0  0  0  0  0  0  0  0  0
    8.1130   -1.7830  -53.9350 N   0  0  0  0  0  0  0  0  0  0  0  0
    7.5670   -0.5190  -53.7600 C   0  0  0  0  0  0  0  0  0  0  0  0
    7.0490   -0.1800  -52.6990 O   0  0  0  0  0  0  0  0  0  0  0  0
    7.6470    0.3650  -54.9430 C   0  0  0  0  0  0  0  0  0  0  0  0
    8.7340    1.1480  -55.3910 C   0  0  0  0  0  0  0  0  0  0  0  0
    8.2990    1.8250  -56.5160 C   0  0  0  0  0  0  0  0  0  0  0  0
    9.0200    2.8700  -57.2330 C   0  0  0  0  0  0  0  0  0  0  0  0
    9.9350    2.5390  -58.2420 C   0  0  0  0  0  0  0  0  0  0  0  0
   10.6080    3.5440  -58.9400 C   0  0  0  0  0  0  0  0  0  0  0  0
   10.3640    4.8840  -58.6430 C   0  0  0  0  0  0  0  0  0  0  0  0
    9.4450    5.2220  -57.6510 C   0  0  0  0  0  0  0  0  0  0  0  0
    8.7690    4.2190  -56.9520 C   0  0  0  0  0  0  0  0  0  0  0  0
    7.0030    1.3640  -56.7530 N   0  0  0  0  0  0  0  0  0  0  0  0
    6.1090    1.6060  -57.8460 C   0  0  0  0  0  0  0  0  0  0  0  0
    4.9220    2.3220  -57.6020 C   0  0  0  0  0  0  0  0  0  0  0  0
    4.0190    2.5830  -58.6360 C   0  0  0  0  0  0  0  0  0  0  0  0
    4.2820    2.1240  -59.9230 C   0  0  0  0  0  0  0  0  0  0  0  0
    5.4430    1.3970  -60.1740 C   0  0  0  0  0  0  0  0  0  0  0  0
    6.3520    1.1330  -59.1410 C   0  0  0  0  0  0  0  0  0  0  0  0
    6.5930    0.5420  -55.7510 N   0  0  0  0  0  0  0  0  0  0  0  0
    7.8831   -2.5513  -48.9030 H   0  0  0  0  0  0  0  0  0  0  0  0
    7.8675   -1.4571  -50.3275 H   0  0  0  0  0  0  0  0  0  0  0  0
    6.8625   -2.9460  -50.3275 H   0  0  0  0  0  0  0  0  0  0  0  0
    9.8628   -3.1536  -49.9820 H   0  0  0  0  0  0  0  0  0  0  0  0
    8.6813   -4.3451  -50.6641 H   0  0  0  0  0  0  0  0  0  0  0  0
    9.6944   -1.7827  -51.9741 H   0  0  0  0  0  0  0  0  0  0  0  0
   10.0133   -3.4923  -52.4750 H   0  0  0  0  0  0  0  0  0  0  0  0
    7.9137   -3.7776  -53.3679 H   0  0  0  0  0  0  0  0  0  0  0  0
    7.1683   -2.5548  -52.2574 H   0  0  0  0  0  0  0  0  0  0  0  0
    8.3810   -2.0770  -54.8620 H   0  0  0  0  0  0  0  0  0  0  0  0
    9.7327    1.2078  -54.9338 H   0  0  0  0  0  0  0  0  0  0  0  0
   10.1238    1.4829  -58.4851 H   0  0  0  0  0  0  0  0  0  0  0  0
   11.3313    3.2780  -59.7249 H   0  0  0  0  0  0  0  0  0  0  0  0
   10.8968    5.6747  -59.1916 H   0  0  0  0  0  0  0  0  0  0  0  0
    9.2518    6.2796  -57.4183 H   0  0  0  0  0  0  0  0  0  0  0  0
    8.0364    4.4899  -56.1775 H   0  0  0  0  0  0  0  0  0  0  0  0
    4.7026    2.6803  -56.5854 H   0  0  0  0  0  0  0  0  0  0  0  0
    3.0997    3.1517  -58.4324 H   0  0  0  0  0  0  0  0  0  0  0  0
    3.5754    2.3346  -60.7393 H   0  0  0  0  0  0  0  0  0  0  0  0
    5.6477    1.0277  -61.1897 H   0  0  0  0  0  0  0  0  0  0  0  0
    7.2618    0.5507  -59.3487 H   0  0  0  0  0  0  0  0  0  0  0  0
  1  2  1  0
  2  3  1  0
  3  4  1  0
  4  5  1  0
  5  6  1  0
  6  7  2  0
  6  8  1  0
  8  9  1  0
  9 10  2  0
 10 11  1  0
 11 12  2  0
 12 13  1  0
 13 14  2  0
 14 15  1  0
 15 16  2  0
 10 17  1  0
 17 18  1  0
 18 19  2  0
 19 20  1  0
 20 21  2  0
 21 22  1  0
 22 23  2  0
 17 24  1  0
 24  8  2  0
 16 11  1  0
 23 18  1  0
  1 25  1  0
  1 26  1  0
  1 27  1  0
  2 28  1  0
  2 29  1  0
  3 30  1  0
  3 31  1  0
  4 32  1  0
  4 33  1  0
  5 34  1  0
  9 35  1  0
 12 36  1  0
 13 37  1  0
 14 38  1  0
 15 39  1  0
 16 40  1  0
 19 41  1  0
 20 42  1  0
 21 43  1  0
 22 44  1  0
 23 45  1  0
M  END
>  <meeko>  (6) 
{"is_sidechain": false}

$$$$

     RDKit          3D

 43 46  0  0  0  0  0  0  0  0999 V2000
    9.6200   -0.6970  -53.4410 O   0  0  0  0  0  0  0  0  0  0  0  0
    8.4720   -0.6480  -53.8720 C   0  0  0  0  0  0  0  0  0  0  0  0
    7.4110   -1.4100  -53.3970 N   0  0  0  0  0  0  0  0  0  0  0  0
    7.4170   -2.3220  -52.3190 C   0  0  0  0  0  0  0  0  0  0  0  0
    7.7650   -1.9880  -51.0100 C   0  0  0  0  0  0  0  0  0  0  0  0
    7.7370   -2.9560  -50.0000 C   0  0  0  0  0  0  0  0  0  0  0  0
    7.3600   -4.2640  -50.2900 C   0  0  0  0  0  0  0  0  0  0  0  0
    7.0070   -4.6080  -51.5910 C   0  0  0  0  0  0  0  0  0  0  0  0
    7.0350   -3.6410  -52.6010 C   0  0  0  0  0  0  0  0  0  0  0  0
    8.1000    0.2510  -54.9920 C   0  0  0  0  0  0  0  0  0  0  0  0
    6.8730    0.3400  -55.6890 C   0  0  0  0  0  0  0  0  0  0  0  0
    7.0410    1.3070  -56.6640 C   0  0  0  0  0  0  0  0  0  0  0  0
    6.0970    1.6440  -57.7240 C   0  0  0  0  0  0  0  0  0  0  0  0
    4.9170    2.3360  -57.4250 C   0  0  0  0  0  0  0  0  0  0  0  0
    4.0020    2.6390  -58.4350 C   0  0  0  0  0  0  0  0  0  0  0  0
    4.2550    2.2420  -59.7480 C   0  0  0  0  0  0  0  0  0  0  0  0
    5.4190    1.5390  -60.0520 C   0  0  0  0  0  0  0  0  0  0  0  0
    6.3360    1.2340  -59.0430 C   0  0  0  0  0  0  0  0  0  0  0  0
    8.3140    1.8360  -56.4540 N   0  0  0  0  0  0  0  0  0  0  0  0
    8.9770    2.9540  -57.0570 C   0  0  0  0  0  0  0  0  0  0  0  0
   10.1210    2.7200  -57.8430 C   0  0  0  0  0  0  0  0  0  0  0  0
   10.8000    3.7780  -58.4520 C   0  0  0  0  0  0  0  0  0  0  0  0
   10.3540    5.0840  -58.2750 C   0  0  0  0  0  0  0  0  0  0  0  0
    9.2370    5.3320  -57.4830 C   0  0  0  0  0  0  0  0  0  0  0  0
    8.5530    4.2740  -56.8700 C   0  0  0  0  0  0  0  0  0  0  0  0
    8.9760    1.1300  -55.4970 N   0  0  0  0  0  0  0  0  0  0  0  0
    6.5460   -1.3570  -53.9140 H   0  0  0  0  0  0  0  0  0  0  0  0
    8.0634   -0.9568  -50.7702 H   0  0  0  0  0  0  0  0  0  0  0  0
    8.0144   -2.6818  -48.9715 H   0  0  0  0  0  0  0  0  0  0  0  0
    7.3412   -5.0227  -49.4938 H   0  0  0  0  0  0  0  0  0  0  0  0
    6.7061   -5.6398  -51.8251 H   0  0  0  0  0  0  0  0  0  0  0  0
    6.7542   -3.9184  -53.6278 H   0  0  0  0  0  0  0  0  0  0  0  0
    5.9624   -0.2455  -55.4940 H   0  0  0  0  0  0  0  0  0  0  0  0
    4.7099    2.6425  -56.3890 H   0  0  0  0  0  0  0  0  0  0  0  0
    3.0812    3.1910  -58.1952 H   0  0  0  0  0  0  0  0  0  0  0  0
    3.5353    2.4840  -60.5439 H   0  0  0  0  0  0  0  0  0  0  0  0
    5.6161    1.2239  -61.0873 H   0  0  0  0  0  0  0  0  0  0  0  0
    7.2490    0.6700  -59.2845 H   0  0  0  0  0  0  0  0  0  0  0  0
   10.4849    1.6910  -57.9794 H   0  0  0  0  0  0  0  0  0  0  0  0
   11.6870    3.5787  -59.0713 H   0  0  0  0  0  0  0  0  0  0  0  0
   10.8828    5.9180  -58.7597 H   0  0  0  0  0  0  0  0  0  0  0  0
    8.8889    6.3652  -57.3373 H   0  0  0  0  0  0  0  0  0  0  0  0
    7.6773    4.4825  -56.2378 H   0  0  0  0  0  0  0  0  0  0  0  0
  1  2  2  0
  2  3  1  0
  3  4  1  0
  4  5  2  0
  5  6  1  0
  6  7  2  0
  7  8  1  0
  8  9  2  0
  2 10  1  0
 10 11  1  0
 11 12  2  0
 12 13  1  0
 13 14  2  0
 14 15  1  0
 15 16  2  0
 16 17  1  0
 17 18  2  0
 12 19  1  0
 19 20  1  0
 20 21  2  0
 21 22  1  0
 22 23  2  0
 23 24  1  0
 24 25  2  0
 19 26  1  0
  9  4  1  0
 26 10  2  0
 18 13  1  0
 25 20  1  0
  3 27  1  0
  5 28  1  0
  6 29  1  0
  7 30  1  0
  8 31  1  0
  9 32  1  0
 11 33  1  0
 14 34  1  0
 15 35  1  0
 16 36  1  0
 17 37  1  0
 18 38  1  0
 21 39  1  0
 22 40  1  0
 23 41  1  0
 24 42  1  0
 25 43  1  0
M  END
>  <meeko>  (7) 
{"is_sidechain": false}

$$$$

     RDKit          3D

 46 49  0  0  0  0  0  0  0  0999 V2000
   10.0350    2.8580  -55.8140 O   0  0  0  0  0  0  0  0  0  0  0  0
    9.1970    1.9770  -55.9810 C   0  0  0  0  0  0  0  0  0  0  0  0
    8.0370    2.1450  -56.6990 N   0  0  0  0  0  0  0  0  0  0  0  0
    7.7590    3.3270  -57.4710 C   0  0  0  0  0  0  0  0  0  0  0  0
    8.4430    3.2760  -58.8130 C   0  0  0  0  0  0  0  0  0  0  0  0
    8.0450    2.2960  -59.7410 C   0  0  0  0  0  0  0  0  0  0  0  0
    8.6370    2.2190  -61.0020 C   0  0  0  0  0  0  0  0  0  0  0  0
    9.6310    3.1250  -61.3620 C   0  0  0  0  0  0  0  0  0  0  0  0
   10.0270    4.1130  -60.4610 C   0  0  0  0  0  0  0  0  0  0  0  0
    9.4340    4.1930  -59.1970 C   0  0  0  0  0  0  0  0  0  0  0  0
    9.9560    5.4620  -58.1460 Cl  0  0  0  0  0  0  0  0  0  0  0  0
    9.3480    0.6180  -55.4380 C   0  0  0  0  0  0  0  0  0  0  0  0
    8.7970    0.1160  -54.2450 C   0  0  0  0  0  0  0  0  0  0  0  0
    9.1800   -1.2090  -54.1690 C   0  0  0  0  0  0  0  0  0  0  0  0
    8.7230   -2.1940  -53.1920 C   0  0  0  0  0  0  0  0  0  0  0  0
    7.6110   -3.0020  -53.4620 C   0  0  0  0  0  0  0  0  0  0  0  0
    7.1670   -3.9290  -52.5160 C   0  0  0  0  0  0  0  0  0  0  0  0
    7.8240   -4.0450  -51.2920 C   0  0  0  0  0  0  0  0  0  0  0  0
    8.9210   -3.2330  -51.0080 C   0  0  0  0  0  0  0  0  0  0  0  0
    9.3660   -2.3060  -51.9530 C   0  0  0  0  0  0  0  0  0  0  0  0
   10.0280   -1.4210  -55.2590 N   0  0  0  0  0  0  0  0  0  0  0  0
   10.8430   -2.5470  -55.6030 C   0  0  0  0  0  0  0  0  0  0  0  0
   11.0170   -3.6410  -54.7460 C   0  0  0  0  0  0  0  0  0  0  0  0
   11.8280   -4.7150  -55.1240 C   0  0  0  0  0  0  0  0  0  0  0  0
   12.4830   -4.7050  -56.3530 C   0  0  0  0  0  0  0  0  0  0  0  0
   12.3380   -3.6160  -57.2060 C   0  0  0  0  0  0  0  0  0  0  0  0
   11.5280   -2.5390  -56.8320 C   0  0  0  0  0  0  0  0  0  0  0  0
   10.0500   -0.3280  -56.0800 N   0  0  0  0  0  0  0  0  0  0  0  0
    7.4870    1.3030  -56.8480 H   0  0  0  0  0  0  0  0  0  0  0  0
    6.6728    3.4076  -57.6249 H   0  0  0  0  0  0  0  0  0  0  0  0
    8.1389    4.1999  -56.9198 H   0  0  0  0  0  0  0  0  0  0  0  0
    7.2556    1.5802  -59.4683 H   0  0  0  0  0  0  0  0  0  0  0  0
    8.3182    1.4419  -61.7123 H   0  0  0  0  0  0  0  0  0  0  0  0
   10.1024    3.0617  -62.3538 H   0  0  0  0  0  0  0  0  0  0  0  0
   10.8090    4.8323  -60.7457 H   0  0  0  0  0  0  0  0  0  0  0  0
    8.1836    0.6683  -53.5178 H   0  0  0  0  0  0  0  0  0  0  0  0
    7.0850   -2.9061  -54.4233 H   0  0  0  0  0  0  0  0  0  0  0  0
    6.2989   -4.5675  -52.7369 H   0  0  0  0  0  0  0  0  0  0  0  0
    7.4764   -4.7782  -50.5493 H   0  0  0  0  0  0  0  0  0  0  0  0
    9.4358   -3.3224  -50.0400 H   0  0  0  0  0  0  0  0  0  0  0  0
   10.2263   -1.6603  -51.7228 H   0  0  0  0  0  0  0  0  0  0  0  0
   10.5121   -3.6552  -53.7688 H   0  0  0  0  0  0  0  0  0  0  0  0
   11.9496   -5.5732  -54.4467 H   0  0  0  0  0  0  0  0  0  0  0  0
   13.1136   -5.5565  -56.6485 H   0  0  0  0  0  0  0  0  0  0  0  0
   12.8601   -3.6019  -58.1741 H   0  0  0  0  0  0  0  0  0  0  0  0
   11.4253   -1.6759  -57.5062 H   0  0  0  0  0  0  0  0  0  0  0  0
  1  2  2  0
  2  3  1  0
  3  4  1  0
  4  5  1  0
  5  6  2  0
  6  7  1  0
  7  8  2  0
  8  9  1  0
  9 10  2  0
 10 11  1  0
  2 12  1  0
 12 13  1  0
 13 14  2  0
 14 15  1  0
 15 16  2  0
 16 17  1  0
 17 18  2  0
 18 19  1  0
 19 20  2  0
 14 21  1  0
 21 22  1  0
 22 23  2  0
 23 24  1  0
 24 25  2  0
 25 26  1  0
 26 27  2  0
 21 28  1  0
 10  5  1  0
 28 12  2  0
 20 15  1  0
 27 22  1  0
  3 29  1  0
  4 30  1  0
  4 31  1  0
  6 32  1  0
  7 33  1  0
  8 34  1  0
  9 35  1  0
 13 36  1  0
 16 37  1  0
 17 38  1  0
 18 39  1  0
 19 40  1  0
 20 41  1  0
 23 42  1  0
 24 43  1  0
 25 44  1  0
 26 45  1  0
 27 46  1  0
M  END
>  <meeko>  (8) 
{"is_sidechain": false}

$$$$

     RDKit          3D

 60 65  0  0  0  0  0  0  0  0999 V2000
    6.4200    1.5210  -56.0980 O   0  0  0  0  0  0  0  0  0  0  0  0
    7.5950    1.3010  -55.8140 C   0  0  0  0  0  0  0  0  0  0  0  0
    8.6270    2.0960  -56.2940 N   0  0  0  0  0  0  0  0  0  0  0  0
    8.3770    3.1540  -57.2620 C   0  0  2  0  0  0  0  0  0  0  0  0
    8.4840    2.6500  -58.7220 C   0  0  1  0  0  0  0  0  0  0  0  0
    8.0450    3.7900  -59.6630 C   0  0  0  0  0  0  0  0  0  0  0  0
    8.9570    5.0160  -59.4730 C   0  0  2  0  0  0  0  0  0  0  0  0
   10.4060    4.6170  -59.8040 C   0  0  0  0  0  0  0  0  0  0  0  0
   10.8650    3.4850  -58.8700 C   0  0  2  0  0  0  0  0  0  0  0  0
    9.9410    2.2700  -59.0540 C   0  0  0  0  0  0  0  0  0  0  0  0
   10.7820    3.9710  -57.4140 C   0  0  0  0  0  0  0  0  0  0  0  0
    9.3310    4.3560  -57.0620 C   0  0  1  0  0  0  0  0  0  0  0  0
    8.8850    5.4880  -58.0100 C   0  0  0  0  0  0  0  0  0  0  0  0
    8.0280    0.1740  -54.9600 C   0  0  0  0  0  0  0  0  0  0  0  0
    7.2730   -0.5400  -53.9870 C   0  0  0  0  0  0  0  0  0  0  0  0
    8.1200   -1.4940  -53.4590 C   0  0  0  0  0  0  0  0  0  0  0  0
    7.8700   -2.5000  -52.4400 C   0  0  0  0  0  0  0  0  0  0  0  0
    8.1560   -2.2260  -51.0970 C   0  0  0  0  0  0  0  0  0  0  0  0
    7.9090   -3.1880  -50.1170 C   0  0  0  0  0  0  0  0  0  0  0  0
    7.3820   -4.4290  -50.4730 C   0  0  0  0  0  0  0  0  0  0  0  0
    7.1040   -4.7100  -51.8100 C   0  0  0  0  0  0  0  0  0  0  0  0
    7.3490   -3.7480  -52.7930 C   0  0  0  0  0  0  0  0  0  0  0  0
    9.3000   -1.3440  -54.1480 N   0  0  0  0  0  0  0  0  0  0  0  0
   10.5260   -2.1230  -54.0020 C   0  0  0  0  0  0  0  0  0  0  0  0
   10.8690   -2.8860  -55.2580 C   0  0  0  0  0  0  0  0  0  0  0  0
   10.4640   -4.2220  -55.4150 C   0  0  0  0  0  0  0  0  0  0  0  0
   10.7810   -4.9260  -56.5760 C   0  0  0  0  0  0  0  0  0  0  0  0
   11.5010   -4.3070  -57.5950 C   0  0  0  0  0  0  0  0  0  0  0  0
   11.9060   -2.9800  -57.4540 C   0  0  0  0  0  0  0  0  0  0  0  0
   11.5900   -2.2720  -56.2930 C   0  0  0  0  0  0  0  0  0  0  0  0
    9.2770   -0.3200  -55.0280 N   0  0  0  0  0  0  0  0  0  0  0  0
    9.5650    1.7340  -56.2140 H   0  0  0  0  0  0  0  0  0  0  0  0
    7.3438    3.4862  -57.0827 H   0  0  0  0  0  0  0  0  0  0  0  0
    7.8442    1.7643  -58.8491 H   0  0  0  0  0  0  0  0  0  0  0  0
    8.1107    3.4462  -60.7058 H   0  0  0  0  0  0  0  0  0  0  0  0
    7.0088    4.0728  -59.4258 H   0  0  0  0  0  0  0  0  0  0  0  0
    8.6287    5.8288  -60.1375 H   0  0  0  0  0  0  0  0  0  0  0  0
   10.4600    4.2731  -60.8475 H   0  0  0  0  0  0  0  0  0  0  0  0
   11.0619    5.4890  -59.6647 H   0  0  0  0  0  0  0  0  0  0  0  0
   11.9003    3.2004  -59.1090 H   0  0  0  0  0  0  0  0  0  0  0  0
    9.9975    1.9260  -60.0973 H   0  0  0  0  0  0  0  0  0  0  0  0
   10.2651    1.4680  -58.3744 H   0  0  0  0  0  0  0  0  0  0  0  0
   11.1173    3.1665  -56.7429 H   0  0  0  0  0  0  0  0  0  0  0  0
   11.4265    4.8542  -57.2936 H   0  0  0  0  0  0  0  0  0  0  0  0
    9.2926    4.6727  -56.0093 H   0  0  0  0  0  0  0  0  0  0  0  0
    7.8503    5.7751  -57.7714 H   0  0  0  0  0  0  0  0  0  0  0  0
    9.5543    6.3509  -57.8781 H   0  0  0  0  0  0  0  0  0  0  0  0
    6.2226   -0.3661  -53.7105 H   0  0  0  0  0  0  0  0  0  0  0  0
    8.5765   -1.2498  -50.8138 H   0  0  0  0  0  0  0  0  0  0  0  0
    8.1302   -2.9672  -49.0623 H   0  0  0  0  0  0  0  0  0  0  0  0
    7.1857   -5.1859  -49.6993 H   0  0  0  0  0  0  0  0  0  0  0  0
    6.6913   -5.6901  -52.0912 H   0  0  0  0  0  0  0  0  0  0  0  0
    7.1313   -3.9733  -53.8474 H   0  0  0  0  0  0  0  0  0  0  0  0
   11.3544   -1.4390  -53.7656 H   0  0  0  0  0  0  0  0  0  0  0  0
   10.3679   -2.8538  -53.1952 H   0  0  0  0  0  0  0  0  0  0  0  0
    9.8924   -4.7165  -54.6158 H   0  0  0  0  0  0  0  0  0  0  0  0
   10.4617   -5.9727  -56.6874 H   0  0  0  0  0  0  0  0  0  0  0  0
   11.7499   -4.8643  -58.5101 H   0  0  0  0  0  0  0  0  0  0  0  0
   12.4750   -2.4907  -58.2583 H   0  0  0  0  0  0  0  0  0  0  0  0
   11.9089   -1.2244  -56.1889 H   0  0  0  0  0  0  0  0  0  0  0  0
  1  2  2  0
  2  3  1  0
  3  4  1  0
  4  5  1  0
  5  6  1  0
  6  7  1  0
  7  8  1  0
  8  9  1  0
  9 10  1  0
  9 11  1  0
 11 12  1  0
 12 13  1  0
  2 14  1  0
 14 15  1  0
 15 16  2  0
 16 17  1  0
 17 18  2  0
 18 19  1  0
 19 20  2  0
 20 21  1  0
 21 22  2  0
 16 23  1  0
 23 24  1  0
 24 25  1  0
 25 26  2  0
 26 27  1  0
 27 28  2  0
 28 29  1  0
 29 30  2  0
 23 31  1  0
 12  4  1  0
 31 14  2  0
 10  5  1  0
 22 17  1  0
 30 25  1  0
 13  7  1  0
  3 32  1  0
  4 33  1  6
  5 34  1  6
  6 35  1  0
  6 36  1  0
  7 37  1  1
  8 38  1  0
  8 39  1  0
  9 40  1  1
 10 41  1  0
 10 42  1  0
 11 43  1  0
 11 44  1  0
 12 45  1  6
 13 46  1  0
 13 47  1  0
 15 48  1  0
 18 49  1  0
 19 50  1  0
 20 51  1  0
 21 52  1  0
 22 53  1  0
 24 54  1  0
 24 55  1  0
 26 56  1  0
 27 57  1  0
 28 58  1  0
 29 59  1  0
 30 60  1  0
M  END
>  <meeko>  (9) 
{"is_sidechain": false}

$$$$

     RDKit          3D

 55 58  0  0  0  0  0  0  0  0999 V2000
    5.9610    1.2640  -56.1830 O   0  0  0  0  0  0  0  0  0  0  0  0
    7.1610    1.1830  -55.9420 C   0  0  0  0  0  0  0  0  0  0  0  0
    8.1150    2.0200  -56.4800 N   0  0  0  0  0  0  0  0  0  0  0  0
    7.8270    2.9720  -57.5380 C   0  0  0  0  0  0  0  0  0  0  0  0
    7.9920    2.3080  -58.9200 C   0  0  0  0  0  0  0  0  0  0  0  0
    9.4050    2.3640  -59.4950 C   0  0  0  0  0  0  0  0  0  0  0  0
    9.7390    3.6330  -60.2930 C   0  0  0  0  0  0  0  0  0  0  0  0
    9.8730    4.9260  -59.4930 C   0  0  0  0  0  0  0  0  0  0  0  0
    8.7290    5.2060  -58.5240 C   0  0  0  0  0  0  0  0  0  0  0  0
    8.6120    4.2730  -57.3200 C   0  0  0  0  0  0  0  0  0  0  0  0
    7.7330    0.1570  -55.0550 C   0  0  0  0  0  0  0  0  0  0  0  0
    7.0570   -0.5720  -54.0480 C   0  0  0  0  0  0  0  0  0  0  0  0
    7.9960   -1.4140  -53.4910 C   0  0  0  0  0  0  0  0  0  0  0  0
    7.8530   -2.3850  -52.4170 C   0  0  0  0  0  0  0  0  0  0  0  0
    7.3210   -3.6510  -52.6800 C   0  0  0  0  0  0  0  0  0  0  0  0
    7.1920   -4.5860  -51.6510 C   0  0  0  0  0  0  0  0  0  0  0  0
    7.5900   -4.2580  -50.3560 C   0  0  0  0  0  0  0  0  0  0  0  0
    8.1140   -2.9950  -50.0870 C   0  0  0  0  0  0  0  0  0  0  0  0
    8.2420   -2.0590  -51.1140 C   0  0  0  0  0  0  0  0  0  0  0  0
    9.1660   -1.1480  -54.1630 N   0  0  0  0  0  0  0  0  0  0  0  0
   10.4640   -1.7960  -53.9810 C   0  0  0  0  0  0  0  0  0  0  0  0
   10.8130   -2.7170  -55.1260 C   0  0  0  0  0  0  0  0  0  0  0  0
   11.5180   -2.2410  -56.2410 C   0  0  0  0  0  0  0  0  0  0  0  0
   11.8310   -3.0950  -57.3000 C   0  0  0  0  0  0  0  0  0  0  0  0
   11.4390   -4.4310  -57.2580 C   0  0  0  0  0  0  0  0  0  0  0  0
   10.7320   -4.9140  -56.1590 C   0  0  0  0  0  0  0  0  0  0  0  0
   10.4170   -4.0620  -55.1000 C   0  0  0  0  0  0  0  0  0  0  0  0
    9.0270   -0.2160  -55.1380 N   0  0  0  0  0  0  0  0  0  0  0  0
    9.0720    1.7330  -56.2880 H   0  0  0  0  0  0  0  0  0  0  0  0
    6.7716    3.2804  -57.5050 H   0  0  0  0  0  0  0  0  0  0  0  0
    7.7021    1.2509  -58.8281 H   0  0  0  0  0  0  0  0  0  0  0  0
    7.3539    2.8756  -59.6133 H   0  0  0  0  0  0  0  0  0  0  0  0
   10.1155    2.2918  -58.6583 H   0  0  0  0  0  0  0  0  0  0  0  0
    9.4768    1.5290  -60.2074 H   0  0  0  0  0  0  0  0  0  0  0  0
   10.6939    3.4602  -60.8110 H   0  0  0  0  0  0  0  0  0  0  0  0
    8.8789    3.7917  -60.9602 H   0  0  0  0  0  0  0  0  0  0  0  0
   10.8062    4.8733  -58.9131 H   0  0  0  0  0  0  0  0  0  0  0  0
    9.8609    5.7446  -60.2276 H   0  0  0  0  0  0  0  0  0  0  0  0
    8.8572    6.2297  -58.1424 H   0  0  0  0  0  0  0  0  0  0  0  0
    7.8091    5.0473  -59.1059 H   0  0  0  0  0  0  0  0  0  0  0  0
    9.6309    4.0006  -57.0075 H   0  0  0  0  0  0  0  0  0  0  0  0
    8.0401    4.8367  -56.5682 H   0  0  0  0  0  0  0  0  0  0  0  0
    5.9972   -0.4846  -53.7666 H   0  0  0  0  0  0  0  0  0  0  0  0
    7.0032   -3.9112  -53.7004 H   0  0  0  0  0  0  0  0  0  0  0  0
    6.7760   -5.5821  -51.8625 H   0  0  0  0  0  0  0  0  0  0  0  0
    7.4905   -4.9960  -49.5464 H   0  0  0  0  0  0  0  0  0  0  0  0
    8.4268   -2.7358  -49.0648 H   0  0  0  0  0  0  0  0  0  0  0  0
    8.6505   -1.0608  -50.8977 H   0  0  0  0  0  0  0  0  0  0  0  0
   11.2389   -1.0192  -53.9036 H   0  0  0  0  0  0  0  0  0  0  0  0
   10.4101   -2.4040  -53.0659 H   0  0  0  0  0  0  0  0  0  0  0  0
   11.8269   -1.1860  -56.2814 H   0  0  0  0  0  0  0  0  0  0  0  0
   12.3876   -2.7126  -58.1683 H   0  0  0  0  0  0  0  0  0  0  0  0
   11.6874   -5.1041  -58.0918 H   0  0  0  0  0  0  0  0  0  0  0  0
   10.4216   -5.9688  -56.1261 H   0  0  0  0  0  0  0  0  0  0  0  0
    9.8536   -4.4484  -54.2379 H   0  0  0  0  0  0  0  0  0  0  0  0
  1  2  2  0
  2  3  1  0
  3  4  1  0
  4  5  1  0
  5  6  1  0
  6  7  1  0
  7  8  1  0
  8  9  1  0
  9 10  1  0
  2 11  1  0
 11 12  1  0
 12 13  2  0
 13 14  1  0
 14 15  2  0
 15 16  1  0
 16 17  2  0
 17 18  1  0
 18 19  2  0
 13 20  1  0
 20 21  1  0
 21 22  1  0
 22 23  2  0
 23 24  1  0
 24 25  2  0
 25 26  1  0
 26 27  2  0
 20 28  1  0
 10  4  1  0
 28 11  2  0
 19 14  1  0
 27 22  1  0
  3 29  1  0
  4 30  1  0
  5 31  1  0
  5 32  1  0
  6 33  1  0
  6 34  1  0
  7 35  1  0
  7 36  1  0
  8 37  1  0
  8 38  1  0
  9 39  1  0
  9 40  1  0
 10 41  1  0
 10 42  1  0
 12 43  1  0
 15 44  1  0
 16 45  1  0
 17 46  1  0
 18 47  1  0
 19 48  1  0
 21 49  1  0
 21 50  1  0
 23 51  1  0
 24 52  1  0
 25 53  1  0
 26 54  1  0
 27 55  1  0
M  END
>  <meeko>  (10) 
{"is_sidechain": false}

$$$$

     RDKit          3D

 43 46  0  0  0  0  0  0  0  0999 V2000
    6.7490    2.4740  -63.2130 O   0  0  0  0  0  0  0  0  0  0  0  0
    6.4520    2.5460  -62.0240 C   0  0  0  0  0  0  0  0  0  0  0  0
    5.2150    2.2130  -61.5080 N   0  0  0  0  0  0  0  0  0  0  0  0
    4.1330    1.7320  -62.2960 C   0  0  0  0  0  0  0  0  0  0  0  0
    2.7230    2.1690  -62.0100 C   0  0  0  0  0  0  0  0  0  0  0  0
    3.1430    0.7600  -61.7170 C   0  0  0  0  0  0  0  0  0  0  0  0
    7.3930    3.0060  -60.9900 C   0  0  0  0  0  0  0  0  0  0  0  0
    8.7610    3.3280  -61.1660 C   0  0  0  0  0  0  0  0  0  0  0  0
    9.2260    3.7100  -59.9260 C   0  0  0  0  0  0  0  0  0  0  0  0
   10.5550    4.1440  -59.5250 C   0  0  0  0  0  0  0  0  0  0  0  0
   11.0370    5.3950  -59.9240 C   0  0  0  0  0  0  0  0  0  0  0  0
   12.3180    5.8060  -59.5500 C   0  0  0  0  0  0  0  0  0  0  0  0
   13.1180    4.9720  -58.7690 C   0  0  0  0  0  0  0  0  0  0  0  0
   12.6370    3.7290  -58.3600 C   0  0  0  0  0  0  0  0  0  0  0  0
   11.3580    3.3160  -58.7350 C   0  0  0  0  0  0  0  0  0  0  0  0
    8.1490    3.5820  -59.0800 N   0  0  0  0  0  0  0  0  0  0  0  0
    8.1000    3.8840  -57.6510 C   0  0  0  0  0  0  0  0  0  0  0  0
    7.8970    2.6480  -56.8100 C   0  0  0  0  0  0  0  0  0  0  0  0
    6.6170    2.1000  -56.6350 C   0  0  0  0  0  0  0  0  0  0  0  0
    6.4340    0.9600  -55.8520 C   0  0  0  0  0  0  0  0  0  0  0  0
    7.5260    0.3560  -55.2320 C   0  0  0  0  0  0  0  0  0  0  0  0
    8.8010    0.8930  -55.3930 C   0  0  0  0  0  0  0  0  0  0  0  0
    8.9880    2.0340  -56.1750 C   0  0  0  0  0  0  0  0  0  0  0  0
    7.0150    3.1800  -59.7070 N   0  0  0  0  0  0  0  0  0  0  0  0
    5.1200    2.3370  -60.5040 H   0  0  0  0  0  0  0  0  0  0  0  0
    4.7872    1.7459  -63.1802 H   0  0  0  0  0  0  0  0  0  0  0  0
    2.5203    2.8655  -61.1831 H   0  0  0  0  0  0  0  0  0  0  0  0
    1.9187    2.6338  -62.5991 H   0  0  0  0  0  0  0  0  0  0  0  0
    3.2483    0.4231  -60.6752 H   0  0  0  0  0  0  0  0  0  0  0  0
    2.7741   -0.2362  -62.0023 H   0  0  0  0  0  0  0  0  0  0  0  0
    9.3359    3.2824  -62.1027 H   0  0  0  0  0  0  0  0  0  0  0  0
   10.4050    6.0570  -60.5342 H   0  0  0  0  0  0  0  0  0  0  0  0
   12.6963    6.7876  -59.8713 H   0  0  0  0  0  0  0  0  0  0  0  0
   14.1279    5.2948  -58.4759 H   0  0  0  0  0  0  0  0  0  0  0  0
   13.2666    3.0730  -57.7409 H   0  0  0  0  0  0  0  0  0  0  0  0
   10.9804    2.3359  -58.4080 H   0  0  0  0  0  0  0  0  0  0  0  0
    9.0474    4.3596  -57.3575 H   0  0  0  0  0  0  0  0  0  0  0  0
    7.2437    4.5525  -57.4780 H   0  0  0  0  0  0  0  0  0  0  0  0
    5.7504    2.5735  -57.1195 H   0  0  0  0  0  0  0  0  0  0  0  0
    5.4265    0.5374  -55.7239 H   0  0  0  0  0  0  0  0  0  0  0  0
    7.3812   -0.5439  -54.6161 H   0  0  0  0  0  0  0  0  0  0  0  0
    9.6628    0.4167  -54.9026 H   0  0  0  0  0  0  0  0  0  0  0  0
    9.9972    2.4549  -56.2945 H   0  0  0  0  0  0  0  0  0  0  0  0
  1  2  2  0
  2  3  1  0
  3  4  1  0
  4  5  1  0
  5  6  1  0
  2  7  1  0
  7  8  1  0
  8  9  2  0
  9 10  1  0
 10 11  2  0
 11 12  1  0
 12 13  2  0
 13 14  1  0
 14 15  2  0
  9 16  1  0
 16 17  1  0
 17 18  1  0
 18 19  2  0
 19 20  1  0
 20 21  2  0
 21 22  1  0
 22 23  2  0
 16 24  1  0
  6  4  1  0
 24  7  2  0
 15 10  1  0
 23 18  1  0
  3 25  1  0
  4 26  1  0
  5 27  1  0
  5 28  1  0
  6 29  1  0
  6 30  1  0
  8 31  1  0
 11 32  1  0
 12 33  1  0
 13 34  1  0
 14 35  1  0
 15 36  1  0
 17 37  1  0
 17 38  1  0
 19 39  1  0
 20 40  1  0
 21 41  1  0
 22 42  1  0
 23 43  1  0
M  END
>  <meeko>  (11) 
{"is_sidechain": false}

$$$$

     RDKit          3D

 49 52  0  0  0  0  0  0  0  0999 V2000
    8.7890    2.7830  -56.8860 O   0  0  0  0  0  0  0  0  0  0  0  0
    9.7630    2.0630  -56.6860 C   0  0  0  0  0  0  0  0  0  0  0  0
   11.0330    2.2850  -57.2060 N   0  0  0  0  0  0  0  0  0  0  0  0
   11.4670    3.3720  -57.9910 C   0  0  0  0  0  0  0  0  0  0  0  0
   12.6640    3.9940  -57.6130 C   0  0  0  0  0  0  0  0  0  0  0  0
   13.1660    5.0830  -58.3350 C   0  0  0  0  0  0  0  0  0  0  0  0
   12.4810    5.5690  -59.4550 C   0  0  0  0  0  0  0  0  0  0  0  0
   13.0070    6.7580  -60.2230 C   0  0  0  0  0  0  0  0  0  0  0  0
   14.2880    6.5870  -60.6550 F   0  0  0  0  0  0  0  0  0  0  0  0
   12.2760    7.0470  -61.3360 F   0  0  0  0  0  0  0  0  0  0  0  0
   13.0160    7.8940  -59.4730 F   0  0  0  0  0  0  0  0  0  0  0  0
   11.2780    4.9540  -59.8240 C   0  0  0  0  0  0  0  0  0  0  0  0
   10.7780    3.8640  -59.1010 C   0  0  0  0  0  0  0  0  0  0  0  0
    9.6680    0.8340  -55.8590 C   0  0  0  0  0  0  0  0  0  0  0  0
    8.5750    0.3770  -55.0700 C   0  0  0  0  0  0  0  0  0  0  0  0
    8.9790   -0.8120  -54.4970 C   0  0  0  0  0  0  0  0  0  0  0  0
    8.2570   -1.7080  -53.6090 C   0  0  0  0  0  0  0  0  0  0  0  0
    7.3590   -2.6460  -54.1310 C   0  0  0  0  0  0  0  0  0  0  0  0
    6.6630   -3.5030  -53.2780 C   0  0  0  0  0  0  0  0  0  0  0  0
    6.8660   -3.4320  -51.9000 C   0  0  0  0  0  0  0  0  0  0  0  0
    7.7660   -2.5050  -51.3740 C   0  0  0  0  0  0  0  0  0  0  0  0
    8.4630   -1.6460  -52.2270 C   0  0  0  0  0  0  0  0  0  0  0  0
   10.2610   -1.0110  -54.9500 N   0  0  0  0  0  0  0  0  0  0  0  0
   11.1410   -2.1460  -54.6770 C   0  0  0  0  0  0  0  0  0  0  0  0
   11.2340   -3.0910  -55.8500 C   0  0  0  0  0  0  0  0  0  0  0  0
   10.7020   -4.3870  -55.7700 C   0  0  0  0  0  0  0  0  0  0  0  0
   10.7950   -5.2610  -56.8550 C   0  0  0  0  0  0  0  0  0  0  0  0
   11.4240   -4.8520  -58.0280 C   0  0  0  0  0  0  0  0  0  0  0  0
   11.9640   -3.5710  -58.1190 C   0  0  0  0  0  0  0  0  0  0  0  0
   11.8730   -2.6950  -57.0360 C   0  0  0  0  0  0  0  0  0  0  0  0
   10.6860   -0.0420  -55.7870 N   0  0  0  0  0  0  0  0  0  0  0  0
   11.7150    1.5550  -57.0540 H   0  0  0  0  0  0  0  0  0  0  0  0
   13.2164    3.6218  -56.7376 H   0  0  0  0  0  0  0  0  0  0  0  0
   14.1056    5.5604  -58.0201 H   0  0  0  0  0  0  0  0  0  0  0  0
   10.7189    5.3320  -60.6927 H   0  0  0  0  0  0  0  0  0  0  0  0
    9.8341    3.3913  -59.4104 H   0  0  0  0  0  0  0  0  0  0  0  0
    7.6015    0.8730  -54.9422 H   0  0  0  0  0  0  0  0  0  0  0  0
    7.2014   -2.7078  -55.2179 H   0  0  0  0  0  0  0  0  0  0  0  0
    5.9540   -4.2348  -53.6924 H   0  0  0  0  0  0  0  0  0  0  0  0
    6.3163   -4.1072  -51.2277 H   0  0  0  0  0  0  0  0  0  0  0  0
    7.9269   -2.4504  -50.2872 H   0  0  0  0  0  0  0  0  0  0  0  0
    9.1758   -0.9189  -51.8107 H   0  0  0  0  0  0  0  0  0  0  0  0
   12.1476   -1.7665  -54.4473 H   0  0  0  0  0  0  0  0  0  0  0  0
   10.7194   -2.7032  -53.8274 H   0  0  0  0  0  0  0  0  0  0  0  0
   10.2075   -4.7173  -54.8446 H   0  0  0  0  0  0  0  0  0  0  0  0
   10.3710   -6.2735  -56.7830 H   0  0  0  0  0  0  0  0  0  0  0  0
   11.4945   -5.5405  -58.8830 H   0  0  0  0  0  0  0  0  0  0  0  0
   12.4626   -3.2495  -59.0453 H   0  0  0  0  0  0  0  0  0  0  0  0
   12.3053   -1.6864  -57.1123 H   0  0  0  0  0  0  0  0  0  0  0  0
  1  2  2  0
  2  3  1  0
  3  4  1  0
  4  5  1  0
  5  6  2  0
  6  7  1  0
  7  8  1  0
  8  9  1  0
  8 10  1  0
  8 11  1  0
  7 12  2  0
 12 13  1  0
  2 14  1  0
 14 15  1  0
 15 16  2  0
 16 17  1  0
 17 18  2  0
 18 19  1  0
 19 20  2  0
 20 21  1  0
 21 22  2  0
 16 23  1  0
 23 24  1  0
 24 25  1  0
 25 26  2  0
 26 27  1  0
 27 28  2  0
 28 29  1  0
 29 30  2  0
 23 31  1  0
 13  4  2  0
 31 14  2  0
 22 17  1  0
 30 25  1  0
  3 32  1  0
  5 33  1  0
  6 34  1  0
 12 35  1  0
 13 36  1  0
 15 37  1  0
 18 38  1  0
 19 39  1  0
 20 40  1  0
 21 41  1  0
 22 42  1  0
 24 43  1  0
 24 44  1  0
 26 45  1  0
 27 46  1  0
 28 47  1  0
 29 48  1  0
 30 49  1  0
M  END
>  <meeko>  (12) 
{"is_sidechain": false}

$$$$

     RDKit          3D

 48 50  0  0  0  0  0  0  0  0999 V2000
    9.2000    2.6350  -58.4350 C   0  0  0  0  0  0  0  0  0  0  0  0
   10.0420    2.8790  -57.1730 C   0  0  0  0  0  0  0  0  0  0  0  0
   11.5130    3.0550  -57.5930 C   0  0  0  0  0  0  0  0  0  0  0  0
    9.5900    4.1710  -56.4740 C   0  0  0  0  0  0  0  0  0  0  0  0
    9.9690    1.7240  -56.2650 N   0  0  0  0  0  0  0  0  0  0  0  0
    8.7890    1.1620  -55.7990 C   0  0  0  0  0  0  0  0  0  0  0  0
    7.6830    1.6250  -56.0630 O   0  0  0  0  0  0  0  0  0  0  0  0
    8.9760   -0.0550  -54.9760 C   0  0  0  0  0  0  0  0  0  0  0  0
    8.1280   -0.5730  -53.9570 C   0  0  0  0  0  0  0  0  0  0  0  0
    8.7340   -1.7210  -53.4920 C   0  0  0  0  0  0  0  0  0  0  0  0
    8.2990   -2.6490  -52.4610 C   0  0  0  0  0  0  0  0  0  0  0  0
    8.8740   -2.6050  -51.1860 C   0  0  0  0  0  0  0  0  0  0  0  0
    8.4530   -3.4930  -50.1950 C   0  0  0  0  0  0  0  0  0  0  0  0
    7.4590   -4.4300  -50.4730 C   0  0  0  0  0  0  0  0  0  0  0  0
    6.8870   -4.4840  -51.7450 C   0  0  0  0  0  0  0  0  0  0  0  0
    7.3090   -3.5970  -52.7370 C   0  0  0  0  0  0  0  0  0  0  0  0
    9.8900   -1.8380  -54.2240 N   0  0  0  0  0  0  0  0  0  0  0  0
   10.8860   -2.9040  -54.1600 C   0  0  0  0  0  0  0  0  0  0  0  0
   11.1410   -3.5330  -55.5080 C   0  0  0  0  0  0  0  0  0  0  0  0
   11.6670   -2.7720  -56.5620 C   0  0  0  0  0  0  0  0  0  0  0  0
   11.9070   -3.3550  -57.8080 C   0  0  0  0  0  0  0  0  0  0  0  0
   11.6310   -4.7060  -58.0110 C   0  0  0  0  0  0  0  0  0  0  0  0
   11.1160   -5.4750  -56.9700 C   0  0  0  0  0  0  0  0  0  0  0  0
   10.8740   -4.8940  -55.7240 C   0  0  0  0  0  0  0  0  0  0  0  0
   10.0440   -0.8560  -55.1380 N   0  0  0  0  0  0  0  0  0  0  0  0
    8.1810    2.3397  -58.1445 H   0  0  0  0  0  0  0  0  0  0  0  0
    9.1581    3.5580  -59.0320 H   0  0  0  0  0  0  0  0  0  0  0  0
    9.6581    1.8327  -59.0320 H   0  0  0  0  0  0  0  0  0  0  0  0
   12.1441    3.1305  -56.6952 H   0  0  0  0  0  0  0  0  0  0  0  0
   11.8295    2.1883  -58.1919 H   0  0  0  0  0  0  0  0  0  0  0  0
   11.6161    3.9719  -58.1919 H   0  0  0  0  0  0  0  0  0  0  0  0
    9.6379    4.0340  -55.3836 H   0  0  0  0  0  0  0  0  0  0  0  0
   10.2521    4.9984  -56.7691 H   0  0  0  0  0  0  0  0  0  0  0  0
    8.5565    4.4053  -56.7691 H   0  0  0  0  0  0  0  0  0  0  0  0
   10.8000    1.1570  -56.1820 H   0  0  0  0  0  0  0  0  0  0  0  0
    7.1773   -0.1427  -53.6092 H   0  0  0  0  0  0  0  0  0  0  0  0
    9.6602   -1.8683  -50.9641 H   0  0  0  0  0  0  0  0  0  0  0  0
    8.9061   -3.4535  -49.1934 H   0  0  0  0  0  0  0  0  0  0  0  0
    7.1255   -5.1268  -49.6899 H   0  0  0  0  0  0  0  0  0  0  0  0
    6.1044   -5.2248  -51.9656 H   0  0  0  0  0  0  0  0  0  0  0  0
    6.8606   -3.6441  -53.7404 H   0  0  0  0  0  0  0  0  0  0  0  0
   11.8296   -2.4839  -53.7817 H   0  0  0  0  0  0  0  0  0  0  0  0
   10.4977   -3.6869  -53.4920 H   0  0  0  0  0  0  0  0  0  0  0  0
   11.8925   -1.7067  -56.4059 H   0  0  0  0  0  0  0  0  0  0  0  0
   12.3141   -2.7476  -58.6298 H   0  0  0  0  0  0  0  0  0  0  0  0
   11.8198   -5.1647  -58.9928 H   0  0  0  0  0  0  0  0  0  0  0  0
   10.8997   -6.5416  -57.1300 H   0  0  0  0  0  0  0  0  0  0  0  0
   10.4709   -5.5076  -54.9049 H   0  0  0  0  0  0  0  0  0  0  0  0
  1  2  1  0
  2  3  1  0
  2  4  1  0
  2  5  1  0
  5  6  1  0
  6  7  2  0
  6  8  1  0
  8  9  1  0
  9 10  2  0
 10 11  1  0
 11 12  2  0
 12 13  1  0
 13 14  2  0
 14 15  1  0
 15 16  2  0
 10 17  1  0
 17 18  1  0
 18 19  1  0
 19 20  2  0
 20 21  1  0
 21 22  2  0
 22 23  1  0
 23 24  2  0
 17 25  1  0
 25  8  2  0
 16 11  1  0
 24 19  1  0
  1 26  1  0
  1 27  1  0
  1 28  1  0
  3 29  1  0
  3 30  1  0
  3 31  1  0
  4 32  1  0
  4 33  1  0
  4 34  1  0
  5 35  1  0
  9 36  1  0
 12 37  1  0
 13 38  1  0
 14 39  1  0
 15 40  1  0
 16 41  1  0
 18 42  1  0
 18 43  1  0
 20 44  1  0
 21 45  1  0
 22 46  1  0
 23 47  1  0
 24 48  1  0
M  END
>  <meeko>  (13) 
{"is_sidechain": false}

$$$$

     RDKit          3D

 49 52  0  0  0  0  0  0  0  0999 V2000
    5.8610    1.2990  -55.9930 O   0  0  0  0  0  0  0  0  0  0  0  0
    7.0710    1.1570  -55.8480 C   0  0  0  0  0  0  0  0  0  0  0  0
    8.0190    1.9320  -56.4800 N   0  0  0  0  0  0  0  0  0  0  0  0
    7.6830    2.8850  -57.5180 C   0  0  0  0  0  0  0  0  0  0  0  0
    8.5490    4.1370  -57.4270 C   0  0  0  0  0  0  0  0  0  0  0  0
    9.8500    3.7710  -58.1380 C   0  0  0  0  0  0  0  0  0  0  0  0
    9.5200    2.5930  -59.0550 C   0  0  0  0  0  0  0  0  0  0  0  0
    8.0200    2.3510  -58.9090 C   0  0  0  0  0  0  0  0  0  0  0  0
    7.6590    0.1180  -54.9880 C   0  0  0  0  0  0  0  0  0  0  0  0
    6.9970   -0.6420  -53.9940 C   0  0  0  0  0  0  0  0  0  0  0  0
    7.9480   -1.4860  -53.4610 C   0  0  0  0  0  0  0  0  0  0  0  0
    7.8220   -2.4840  -52.4100 C   0  0  0  0  0  0  0  0  0  0  0  0
    8.1040   -2.1450  -51.0830 C   0  0  0  0  0  0  0  0  0  0  0  0
    7.9750   -3.1000  -50.0720 C   0  0  0  0  0  0  0  0  0  0  0  0
    7.5660   -4.3960  -50.3850 C   0  0  0  0  0  0  0  0  0  0  0  0
    7.2910   -4.7410  -51.7080 C   0  0  0  0  0  0  0  0  0  0  0  0
    7.4230   -3.7880  -52.7200 C   0  0  0  0  0  0  0  0  0  0  0  0
    9.1120   -1.1910  -54.1330 N   0  0  0  0  0  0  0  0  0  0  0  0
   10.4170   -1.8270  -53.9730 C   0  0  0  0  0  0  0  0  0  0  0  0
   10.7840   -2.6950  -55.1530 C   0  0  0  0  0  0  0  0  0  0  0  0
   10.4600   -4.0600  -55.1710 C   0  0  0  0  0  0  0  0  0  0  0  0
   10.8080   -4.8580  -56.2620 C   0  0  0  0  0  0  0  0  0  0  0  0
   11.4880   -4.3030  -57.3440 C   0  0  0  0  0  0  0  0  0  0  0  0
   11.8220   -2.9500  -57.3350 C   0  0  0  0  0  0  0  0  0  0  0  0
   11.4750   -2.1500  -56.2460 C   0  0  0  0  0  0  0  0  0  0  0  0
    8.9580   -0.2380  -55.0860 N   0  0  0  0  0  0  0  0  0  0  0  0
    8.9740    1.6070  -56.3570 H   0  0  0  0  0  0  0  0  0  0  0  0
    6.6099    3.0811  -57.3767 H   0  0  0  0  0  0  0  0  0  0  0  0
    8.0586    4.9835  -57.9299 H   0  0  0  0  0  0  0  0  0  0  0  0
    8.7205    4.4456  -56.3852 H   0  0  0  0  0  0  0  0  0  0  0  0
   10.2140    4.6240  -58.7295 H   0  0  0  0  0  0  0  0  0  0  0  0
   10.6394    3.5089  -57.4182 H   0  0  0  0  0  0  0  0  0  0  0  0
    9.7672    2.8400  -60.0980 H   0  0  0  0  0  0  0  0  0  0  0  0
   10.0999    1.6982  -58.7847 H   0  0  0  0  0  0  0  0  0  0  0  0
    7.4604    2.8979  -59.6821 H   0  0  0  0  0  0  0  0  0  0  0  0
    7.7528    1.2905  -59.0273 H   0  0  0  0  0  0  0  0  0  0  0  0
    5.9378   -0.5731  -53.7052 H   0  0  0  0  0  0  0  0  0  0  0  0
    8.4283   -1.1236  -50.8347 H   0  0  0  0  0  0  0  0  0  0  0  0
    8.1960   -2.8299  -49.0288 H   0  0  0  0  0  0  0  0  0  0  0  0
    7.4602   -5.1466  -49.5879 H   0  0  0  0  0  0  0  0  0  0  0  0
    6.9701   -5.7639  -51.9543 H   0  0  0  0  0  0  0  0  0  0  0  0
    7.2126   -4.0637  -53.7639 H   0  0  0  0  0  0  0  0  0  0  0  0
   11.1804   -1.0431  -53.8604 H   0  0  0  0  0  0  0  0  0  0  0  0
   10.3680   -2.4732  -53.0842 H   0  0  0  0  0  0  0  0  0  0  0  0
    9.9271   -4.5052  -54.3179 H   0  0  0  0  0  0  0  0  0  0  0  0
   10.5451   -5.9261  -56.2676 H   0  0  0  0  0  0  0  0  0  0  0  0
   11.7609   -4.9319  -58.2042 H   0  0  0  0  0  0  0  0  0  0  0  0
   12.3604   -2.5119  -58.1884 H   0  0  0  0  0  0  0  0  0  0  0  0
   11.7452   -1.0837  -56.2441 H   0  0  0  0  0  0  0  0  0  0  0  0
  1  2  2  0
  2  3  1  0
  3  4  1  0
  4  5  1  0
  5  6  1  0
  6  7  1  0
  7  8  1  0
  2  9  1  0
  9 10  1  0
 10 11  2  0
 11 12  1  0
 12 13  2  0
 13 14  1  0
 14 15  2  0
 15 16  1  0
 16 17  2  0
 11 18  1  0
 18 19  1  0
 19 20  1  0
 20 21  2  0
 21 22  1  0
 22 23  2  0
 23 24  1  0
 24 25  2  0
 18 26  1  0
  8  4  1  0
 26  9  2  0
 17 12  1  0
 25 20  1  0
  3 27  1  0
  4 28  1  0
  5 29  1  0
  5 30  1  0
  6 31  1  0
  6 32  1  0
  7 33  1  0
  7 34  1  0
  8 35  1  0
  8 36  1  0
 10 37  1  0
 13 38  1  0
 14 39  1  0
 15 40  1  0
 16 41  1  0
 17 42  1  0
 19 43  1  0
 19 44  1  0
 21 45  1  0
 22 46  1  0
 23 47  1  0
 24 48  1  0
 25 49  1  0
M  END
>  <meeko>  (14) 
{"is_sidechain": false}

$$$$

     RDKit          3D

 60 65  0  0  0  0  0  0  0  0999 V2000
    6.9250    1.8940  -56.0710 O   0  0  0  0  0  0  0  0  0  0  0  0
    8.0430    1.3910  -56.0520 C   0  0  0  0  0  0  0  0  0  0  0  0
    9.1100    1.8230  -56.8070 N   0  0  0  0  0  0  0  0  0  0  0  0
    9.1080    2.9390  -57.7470 C   0  0  2  0  0  0  0  0  0  0  0  0
    7.9380    2.8310  -58.7560 C   0  0  0  0  0  0  0  0  0  0  0  0
    7.9860    3.9920  -59.7650 C   0  0  1  0  0  0  0  0  0  0  0  0
    7.8920    5.3270  -59.0070 C   0  0  0  0  0  0  0  0  0  0  0  0
    9.0690    5.4610  -58.0250 C   0  0  2  0  0  0  0  0  0  0  0  0
   10.3900    5.4020  -58.8080 C   0  0  0  0  0  0  0  0  0  0  0  0
   10.4940    4.0660  -59.5620 C   0  0  2  0  0  0  0  0  0  0  0  0
    9.3130    3.9400  -60.5380 C   0  0  0  0  0  0  0  0  0  0  0  0
   10.4360    2.9100  -58.5490 C   0  0  0  0  0  0  0  0  0  0  0  0
    9.0220    4.3010  -57.0160 C   0  0  0  0  0  0  0  0  0  0  0  0
    8.3800    0.2390  -55.1990 C   0  0  0  0  0  0  0  0  0  0  0  0
    7.5700   -0.3460  -54.1970 C   0  0  0  0  0  0  0  0  0  0  0  0
    8.3050   -1.3880  -53.6710 C   0  0  0  0  0  0  0  0  0  0  0  0
    7.9630   -2.3260  -52.6140 C   0  0  0  0  0  0  0  0  0  0  0  0
    8.0350   -1.9340  -51.2740 C   0  0  0  0  0  0  0  0  0  0  0  0
    7.7140   -2.8370  -50.2590 C   0  0  0  0  0  0  0  0  0  0  0  0
    7.3180   -4.1350  -50.5800 C   0  0  0  0  0  0  0  0  0  0  0  0
    7.2360   -4.5300  -51.9150 C   0  0  0  0  0  0  0  0  0  0  0  0
    7.5540   -3.6260  -52.9300 C   0  0  0  0  0  0  0  0  0  0  0  0
    9.4860   -1.3910  -54.3770 N   0  0  0  0  0  0  0  0  0  0  0  0
   10.6300   -2.2800  -54.1910 C   0  0  0  0  0  0  0  0  0  0  0  0
   10.9420   -3.0830  -55.4300 C   0  0  0  0  0  0  0  0  0  0  0  0
   10.6040   -4.4430  -55.4990 C   0  0  0  0  0  0  0  0  0  0  0  0
   10.8970   -5.1890  -56.6420 C   0  0  0  0  0  0  0  0  0  0  0  0
   11.5350   -4.5890  -57.7240 C   0  0  0  0  0  0  0  0  0  0  0  0
   11.8830   -3.2410  -57.6670 C   0  0  0  0  0  0  0  0  0  0  0  0
   11.5910   -2.4920  -56.5260 C   0  0  0  0  0  0  0  0  0  0  0  0
    9.5670   -0.3970  -55.2960 N   0  0  0  0  0  0  0  0  0  0  0  0
    9.9620    1.2880  -56.6550 H   0  0  0  0  0  0  0  0  0  0  0  0
    8.0148    1.8770  -59.2982 H   0  0  0  0  0  0  0  0  0  0  0  0
    6.9875    2.8788  -58.2043 H   0  0  0  0  0  0  0  0  0  0  0  0
    7.1450    3.9051  -60.4687 H   0  0  0  0  0  0  0  0  0  0  0  0
    7.9229    6.1576  -59.7276 H   0  0  0  0  0  0  0  0  0  0  0  0
    6.9477    5.3556  -58.4435 H   0  0  0  0  0  0  0  0  0  0  0  0
    8.9992    6.4192  -57.4893 H   0  0  0  0  0  0  0  0  0  0  0  0
   10.4232    6.2314  -59.5298 H   0  0  0  0  0  0  0  0  0  0  0  0
   11.2313    5.4865  -58.1044 H   0  0  0  0  0  0  0  0  0  0  0  0
   11.4415    4.0276  -60.1195 H   0  0  0  0  0  0  0  0  0  0  0  0
    9.3469    4.7691  -61.2601 H   0  0  0  0  0  0  0  0  0  0  0  0
    9.3843    2.9797  -61.0697 H   0  0  0  0  0  0  0  0  0  0  0  0
   10.5092    1.9545  -59.0891 H   0  0  0  0  0  0  0  0  0  0  0  0
   11.2733    3.0196  -57.8441 H   0  0  0  0  0  0  0  0  0  0  0  0
    9.8694    4.3922  -56.3206 H   0  0  0  0  0  0  0  0  0  0  0  0
    8.0710    4.3484  -56.4653 H   0  0  0  0  0  0  0  0  0  0  0  0
    6.5587   -0.0331  -53.8980 H   0  0  0  0  0  0  0  0  0  0  0  0
    8.3458   -0.9102  -51.0185 H   0  0  0  0  0  0  0  0  0  0  0  0
    7.7734   -2.5247  -49.2059 H   0  0  0  0  0  0  0  0  0  0  0  0
    7.0701   -4.8478  -49.7797 H   0  0  0  0  0  0  0  0  0  0  0  0
    6.9210   -5.5531  -52.1679 H   0  0  0  0  0  0  0  0  0  0  0  0
    7.4827   -3.9371  -53.9827 H   0  0  0  0  0  0  0  0  0  0  0  0
   11.5104   -1.6734  -53.9322 H   0  0  0  0  0  0  0  0  0  0  0  0
   10.3777   -2.9876  -53.3875 H   0  0  0  0  0  0  0  0  0  0  0  0
   10.1043   -4.9251  -54.6459 H   0  0  0  0  0  0  0  0  0  0  0  0
   10.6231   -6.2534  -56.6877 H   0  0  0  0  0  0  0  0  0  0  0  0
   11.7643   -5.1789  -58.6237 H   0  0  0  0  0  0  0  0  0  0  0  0
   12.3880   -2.7669  -58.5215 H   0  0  0  0  0  0  0  0  0  0  0  0
   11.8718   -1.4292  -56.4850 H   0  0  0  0  0  0  0  0  0  0  0  0
  1  2  2  0
  2  3  1  0
  4  3  1  1
  4  5  1  0
  5  6  1  0
  6  7  1  0
  7  8  1  0
  8  9  1  0
  9 10  1  0
 10 11  1  0
 10 12  1  0
  8 13  1  0
  2 14  1  0
 14 15  1  0
 15 16  2  0
 16 17  1  0
 17 18  2  0
 18 19  1  0
 19 20  2  0
 20 21  1  0
 21 22  2  0
 16 23  1  0
 23 24  1  0
 24 25  1  0
 25 26  2  0
 26 27  1  0
 27 28  2  0
 28 29  1  0
 29 30  2  0
 23 31  1  0
 12  4  1  0
 31 14  2  0
 13  4  1  0
 22 17  1  0
 30 25  1  0
 11  6  1  0
  3 32  1  0
  5 33  1  0
  5 34  1  0
  6 35  1  6
  7 36  1  0
  7 37  1  0
  8 38  1  1
  9 39  1  0
  9 40  1  0
 10 41  1  6
 11 42  1  0
 11 43  1  0
 12 44  1  0
 12 45  1  0
 13 46  1  0
 13 47  1  0
 15 48  1  0
 18 49  1  0
 19 50  1  0
 20 51  1  0
 21 52  1  0
 22 53  1  0
 24 54  1  0
 24 55  1  0
 26 56  1  0
 27 57  1  0
 28 58  1  0
 29 59  1  0
 30 60  1  0
M  END
>  <meeko>  (15) 
{"is_sidechain": false}

$$$$

     RDKit          3D

 50 54  0  0  0  0  0  0  0  0999 V2000
   10.7570   -2.2440  -53.7840 C   0  0  0  0  0  0  0  0  0  0  0  0
    9.6190   -1.3880  -54.0360 N   0  0  0  0  0  0  0  0  0  0  0  0
    9.7370   -0.4170  -54.9590 N   0  0  0  0  0  0  0  0  0  0  0  0
    8.5210    0.1540  -55.0210 C   0  0  0  0  0  0  0  0  0  0  0  0
    8.2340    1.2690  -55.9520 C   0  0  0  0  0  0  0  0  0  0  0  0
    7.1000    1.6860  -56.1640 O   0  0  0  0  0  0  0  0  0  0  0  0
    9.3570    1.7930  -56.5780 N   0  0  0  0  0  0  0  0  0  0  0  0
    9.3240    2.8410  -57.6030 C   0  0  2  0  0  0  0  0  0  0  0  0
    9.0300    4.2380  -57.0000 C   0  0  0  0  0  0  0  0  0  0  0  0
    9.0580    5.3190  -58.0960 C   0  0  1  0  0  0  0  0  0  0  0  0
   10.4500    5.3480  -58.7460 C   0  0  0  0  0  0  0  0  0  0  0  0
   10.7650    3.9800  -59.3710 C   0  0  2  0  0  0  0  0  0  0  0  0
    9.7080    3.6520  -60.4370 C   0  0  0  0  0  0  0  0  0  0  0  0
    8.3110    3.6140  -59.7980 C   0  0  2  0  0  0  0  0  0  0  0  0
    8.0050    4.9820  -59.1650 C   0  0  0  0  0  0  0  0  0  0  0  0
    8.2810    2.5310  -58.7050 C   0  0  0  0  0  0  0  0  0  0  0  0
   10.7250    2.9050  -58.2750 C   0  0  0  0  0  0  0  0  0  0  0  0
    7.6390   -0.4780  -54.1000 C   0  0  0  0  0  0  0  0  0  0  0  0
    8.3780   -1.4500  -53.4530 C   0  0  0  0  0  0  0  0  0  0  0  0
    7.9790   -2.3900  -52.4130 C   0  0  0  0  0  0  0  0  0  0  0  0
    7.4020   -3.6170  -52.7610 C   0  0  0  0  0  0  0  0  0  0  0  0
    7.0150   -4.5210  -51.7690 C   0  0  0  0  0  0  0  0  0  0  0  0
    7.1940   -4.2020  -50.4240 C   0  0  0  0  0  0  0  0  0  0  0  0
    7.7580   -2.9780  -50.0690 C   0  0  0  0  0  0  0  0  0  0  0  0
    8.1470   -2.0720  -51.0590 C   0  0  0  0  0  0  0  0  0  0  0  0
   10.9011   -2.3524  -52.6989 H   0  0  0  0  0  0  0  0  0  0  0  0
   10.5779   -3.2331  -54.2307 H   0  0  0  0  0  0  0  0  0  0  0  0
   11.6577   -1.7976  -54.2307 H   0  0  0  0  0  0  0  0  0  0  0  0
   10.2030    1.2480  -56.5100 H   0  0  0  0  0  0  0  0  0  0  0  0
    8.0359    4.2264  -56.5292 H   0  0  0  0  0  0  0  0  0  0  0  0
    9.8028    4.4711  -56.2527 H   0  0  0  0  0  0  0  0  0  0  0  0
    8.8369    6.3016  -57.6536 H   0  0  0  0  0  0  0  0  0  0  0  0
   10.4706    6.1201  -59.5292 H   0  0  0  0  0  0  0  0  0  0  0  0
   11.2033    5.5768  -57.9778 H   0  0  0  0  0  0  0  0  0  0  0  0
   11.7624    4.0052  -59.8341 H   0  0  0  0  0  0  0  0  0  0  0  0
    9.7293    4.4237  -61.2206 H   0  0  0  0  0  0  0  0  0  0  0  0
    9.9311    2.6683  -60.8759 H   0  0  0  0  0  0  0  0  0  0  0  0
    7.5586    3.3848  -60.5670 H   0  0  0  0  0  0  0  0  0  0  0  0
    8.0200    5.7558  -59.9467 H   0  0  0  0  0  0  0  0  0  0  0  0
    7.0123    4.9453  -58.6925 H   0  0  0  0  0  0  0  0  0  0  0  0
    7.2778    2.4992  -58.2548 H   0  0  0  0  0  0  0  0  0  0  0  0
    8.5241    1.5598  -59.1608 H   0  0  0  0  0  0  0  0  0  0  0  0
   10.9533    1.9267  -58.7231 H   0  0  0  0  0  0  0  0  0  0  0  0
   11.4691    3.1621  -57.5067 H   0  0  0  0  0  0  0  0  0  0  0  0
    6.5778   -0.2396  -53.9356 H   0  0  0  0  0  0  0  0  0  0  0  0
    7.2526   -3.8705  -53.8209 H   0  0  0  0  0  0  0  0  0  0  0  0
    6.5683   -5.4862  -52.0497 H   0  0  0  0  0  0  0  0  0  0  0  0
    6.8905   -4.9155  -49.6437 H   0  0  0  0  0  0  0  0  0  0  0  0
    7.8971   -2.7248  -49.0076 H   0  0  0  0  0  0  0  0  0  0  0  0
    8.5870   -1.1049  -50.7741 H   0  0  0  0  0  0  0  0  0  0  0  0
  1  2  1  0
  2  3  1  0
  3  4  2  0
  4  5  1  0
  5  6  2  0
  5  7  1  0
  8  7  1  1
  8  9  1  0
  9 10  1  0
 10 11  1  0
 11 12  1  0
 12 13  1  0
 13 14  1  0
 14 15  1  0
 14 16  1  0
 12 17  1  0
  4 18  1  0
 18 19  2  0
 19 20  1  0
 20 21  2  0
 21 22  1  0
 22 23  2  0
 23 24  1  0
 24 25  2  0
 19  2  1  0
 25 20  1  0
 16  8  1  0
 17  8  1  0
 15 10  1  0
  1 26  1  0
  1 27  1  0
  1 28  1  0
  7 29  1  0
  9 30  1  0
  9 31  1  0
 10 32  1  1
 11 33  1  0
 11 34  1  0
 12 35  1  6
 13 36  1  0
 13 37  1  0
 14 38  1  6
 15 39  1  0
 15 40  1  0
 16 41  1  0
 16 42  1  0
 17 43  1  0
 17 44  1  0
 18 45  1  0
 21 46  1  0
 22 47  1  0
 23 48  1  0
 24 49  1  0
 25 50  1  0
M  END
>  <meeko>  (16) 
{"is_sidechain": false}

$$$$

     RDKit          3D

 53 57  0  0  0  0  0  0  0  0999 V2000
    8.7210   -2.1390  -52.4710 C   0  0  0  0  0  0  0  0  0  0  0  0
    8.9480   -1.2660  -53.6460 C   0  0  0  0  0  0  0  0  0  0  0  0
    8.2060   -0.2120  -54.1370 C   0  0  0  0  0  0  0  0  0  0  0  0
    8.9040    0.2700  -55.2800 C   0  0  0  0  0  0  0  0  0  0  0  0
    8.5460    1.3940  -56.1750 C   0  0  0  0  0  0  0  0  0  0  0  0
    7.4310    1.9080  -56.1850 O   0  0  0  0  0  0  0  0  0  0  0  0
    9.5800    1.8310  -56.9900 N   0  0  0  0  0  0  0  0  0  0  0  0
    9.4970    2.9790  -57.8990 C   0  0  2  0  0  0  0  0  0  0  0  0
   10.8280    3.0620  -58.6960 C   0  0  0  0  0  0  0  0  0  0  0  0
   10.8170    4.2530  -59.6690 C   0  0  1  0  0  0  0  0  0  0  0  0
    9.6540    4.0820  -60.6580 C   0  0  0  0  0  0  0  0  0  0  0  0
    8.3220    4.0220  -59.8940 C   0  0  2  0  0  0  0  0  0  0  0  0
    8.1360    5.3210  -59.0920 C   0  0  0  0  0  0  0  0  0  0  0  0
    9.2970    5.5010  -58.0980 C   0  0  2  0  0  0  0  0  0  0  0  0
   10.6230    5.5520  -58.8730 C   0  0  0  0  0  0  0  0  0  0  0  0
    9.3210    4.3090  -57.1260 C   0  0  0  0  0  0  0  0  0  0  0  0
    8.3450    2.8270  -58.9230 C   0  0  0  0  0  0  0  0  0  0  0  0
   10.0170   -0.4590  -55.4790 N   0  0  0  0  0  0  0  0  0  0  0  0
   10.0370   -1.3580  -54.4760 N   0  0  0  0  0  0  0  0  0  0  0  0
   11.1390   -2.3160  -54.4120 C   0  0  0  0  0  0  0  0  0  0  0  0
   11.2410   -3.1630  -55.6580 C   0  0  0  0  0  0  0  0  0  0  0  0
   10.7610   -4.4820  -55.6680 C   0  0  0  0  0  0  0  0  0  0  0  0
   10.8690   -5.2670  -56.8160 C   0  0  0  0  0  0  0  0  0  0  0  0
   11.4630   -4.7460  -57.9650 C   0  0  0  0  0  0  0  0  0  0  0  0
   11.9520   -3.4420  -57.9650 C   0  0  0  0  0  0  0  0  0  0  0  0
   11.8460   -2.6540  -56.8170 C   0  0  0  0  0  0  0  0  0  0  0  0
    8.8718   -1.5589  -51.5486 H   0  0  0  0  0  0  0  0  0  0  0  0
    7.6921   -2.5272  -52.4959 H   0  0  0  0  0  0  0  0  0  0  0  0
    9.4305   -2.9792  -52.4959 H   0  0  0  0  0  0  0  0  0  0  0  0
    7.2628    0.1783  -53.7270 H   0  0  0  0  0  0  0  0  0  0  0  0
   10.5040    1.4940  -56.7640 H   0  0  0  0  0  0  0  0  0  0  0  0
   11.6627    3.1826  -57.9898 H   0  0  0  0  0  0  0  0  0  0  0  0
   10.9451    2.1361  -59.2782 H   0  0  0  0  0  0  0  0  0  0  0  0
   11.7683    4.2963  -60.2196 H   0  0  0  0  0  0  0  0  0  0  0  0
    9.6378    4.9346  -61.3528 H   0  0  0  0  0  0  0  0  0  0  0  0
    9.7914    3.1466  -61.2202 H   0  0  0  0  0  0  0  0  0  0  0  0
    7.4931    3.9047  -60.6075 H   0  0  0  0  0  0  0  0  0  0  0  0
    8.1141    6.1757  -59.7841 H   0  0  0  0  0  0  0  0  0  0  0  0
    7.1898    5.2665  -58.5336 H   0  0  0  0  0  0  0  0  0  0  0  0
    9.1620    6.4356  -57.5338 H   0  0  0  0  0  0  0  0  0  0  0  0
   10.6067    6.4054  -59.5669 H   0  0  0  0  0  0  0  0  0  0  0  0
   11.4533    5.6661  -58.1605 H   0  0  0  0  0  0  0  0  0  0  0  0
   10.1583    4.4323  -56.4234 H   0  0  0  0  0  0  0  0  0  0  0  0
    8.3670    4.2779  -56.5793 H   0  0  0  0  0  0  0  0  0  0  0  0
    7.3868    2.7799  -58.3849 H   0  0  0  0  0  0  0  0  0  0  0  0
    8.5029    1.9040  -59.5001 H   0  0  0  0  0  0  0  0  0  0  0  0
   12.0808   -1.7624  -54.2835 H   0  0  0  0  0  0  0  0  0  0  0  0
   10.9476   -2.9900  -53.5640 H   0  0  0  0  0  0  0  0  0  0  0  0
   10.2958   -4.9001  -54.7631 H   0  0  0  0  0  0  0  0  0  0  0  0
   10.4853   -6.2979  -56.8149 H   0  0  0  0  0  0  0  0  0  0  0  0
   11.5453   -5.3646  -58.8708 H   0  0  0  0  0  0  0  0  0  0  0  0
   12.4225   -3.0321  -58.8708 H   0  0  0  0  0  0  0  0  0  0  0  0
   12.2397   -1.6269  -56.8214 H   0  0  0  0  0  0  0  0  0  0  0  0
  1  2  1  0
  2  3  2  0
  3  4  1  0
  4  5  1  0
  5  6  2  0
  5  7  1  0
  8  7  1  1
  8  9  1  0
  9 10  1  0
 10 11  1  0
 11 12  1  0
 12 13  1  0
 13 14  1  0
 14 15  1  0
 14 16  1  0
 12 17  1  0
  4 18  2  0
 18 19  1  0
 19 20  1  0
 20 21  1  0
 21 22  2  0
 22 23  1  0
 23 24  2  0
 24 25  1  0
 25 26  2  0
 19  2  1  0
 26 21  1  0
 16  8  1  0
 17  8  1  0
 15 10  1  0
  1 27  1  0
  1 28  1  0
  1 29  1  0
  3 30  1  0
  7 31  1  0
  9 32  1  0
  9 33  1  0
 10 34  1  6
 11 35  1  0
 11 36  1  0
 12 37  1  6
 13 38  1  0
 13 39  1  0
 14 40  1  1
 15 41  1  0
 15 42  1  0
 16 43  1  0
 16 44  1  0
 17 45  1  0
 17 46  1  0
 20 47  1  0
 20 48  1  0
 22 49  1  0
 23 50  1  0
 24 51  1  0
 25 52  1  0
 26 53  1  0
M  END
>  <meeko>  (17) 
{"is_sidechain": false}

$$$$

     RDKit          3D

 50 54  0  0  0  0  0  0  0  0999 V2000
   10.5110   -1.8380  -53.6460 C   0  0  0  0  0  0  0  0  0  0  0  0
    9.3290   -1.1260  -54.0790 N   0  0  0  0  0  0  0  0  0  0  0  0
    9.4590   -0.1720  -55.0240 N   0  0  0  0  0  0  0  0  0  0  0  0
    8.2150    0.3360  -55.1510 C   0  0  0  0  0  0  0  0  0  0  0  0
    7.9110    1.4330  -56.0860 C   0  0  0  0  0  0  0  0  0  0  0  0
    6.7800    1.8840  -56.2280 O   0  0  0  0  0  0  0  0  0  0  0  0
    9.0250    1.8780  -56.7630 N   0  0  0  0  0  0  0  0  0  0  0  0
    9.0620    2.9460  -57.7550 C   0  0  2  0  0  0  0  0  0  0  0  0
   10.4290    2.8930  -58.4870 C   0  0  0  0  0  0  0  0  0  0  0  0
   10.5300    3.9990  -59.5500 C   0  0  1  0  0  0  0  0  0  0  0  0
    9.4020    3.8130  -60.5780 C   0  0  0  0  0  0  0  0  0  0  0  0
    8.0360    3.8890  -59.8780 C   0  0  2  0  0  0  0  0  0  0  0  0
    7.8940    5.2590  -59.1910 C   0  0  0  0  0  0  0  0  0  0  0  0
    9.0170    5.4520  -58.1590 C   0  0  2  0  0  0  0  0  0  0  0  0
   10.3780    5.3680  -58.8680 C   0  0  0  0  0  0  0  0  0  0  0  0
    8.9270    4.3420  -57.0970 C   0  0  0  0  0  0  0  0  0  0  0  0
    7.9470    2.7790  -58.8170 C   0  0  0  0  0  0  0  0  0  0  0  0
    7.3090   -0.3230  -54.2860 C   0  0  0  0  0  0  0  0  0  0  0  0
    8.0430   -1.2830  -53.6190 C   0  0  0  0  0  0  0  0  0  0  0  0
    7.6140   -2.2520  -52.6170 C   0  0  0  0  0  0  0  0  0  0  0  0
    7.8230   -2.0110  -51.2510 C   0  0  0  0  0  0  0  0  0  0  0  0
    7.4130   -2.9470  -50.2990 C   0  0  0  0  0  0  0  0  0  0  0  0
    6.8010   -4.1240  -50.7150 C   0  0  0  0  0  0  0  0  0  0  0  0
    6.4080   -5.0210  -49.8020 F   0  0  0  0  0  0  0  0  0  0  0  0
    6.5950   -4.3860  -52.0640 C   0  0  0  0  0  0  0  0  0  0  0  0
    7.0050   -3.4510  -53.0170 C   0  0  0  0  0  0  0  0  0  0  0  0
   10.5447   -1.8583  -52.5467 H   0  0  0  0  0  0  0  0  0  0  0  0
   10.4802   -2.8680  -54.0310 H   0  0  0  0  0  0  0  0  0  0  0  0
   11.4071   -1.3293  -54.0310 H   0  0  0  0  0  0  0  0  0  0  0  0
    9.8800    1.3840  -56.5150 H   0  0  0  0  0  0  0  0  0  0  0  0
   11.2359    3.0267  -57.7515 H   0  0  0  0  0  0  0  0  0  0  0  0
   10.5201    1.9177  -58.9874 H   0  0  0  0  0  0  0  0  0  0  0  0
   11.5050    3.9444  -60.0564 H   0  0  0  0  0  0  0  0  0  0  0  0
    9.4668    4.6060  -61.3376 H   0  0  0  0  0  0  0  0  0  0  0  0
    9.5083    2.8285  -61.0569 H   0  0  0  0  0  0  0  0  0  0  0  0
    7.2326    3.7596  -60.6182 H   0  0  0  0  0  0  0  0  0  0  0  0
    7.9558    6.0540  -59.9487 H   0  0  0  0  0  0  0  0  0  0  0  0
    6.9221    5.3052  -58.6780 H   0  0  0  0  0  0  0  0  0  0  0  0
    8.9117    6.4349  -57.6766 H   0  0  0  0  0  0  0  0  0  0  0  0
   10.4438    6.1623  -59.6261 H   0  0  0  0  0  0  0  0  0  0  0  0
   11.1806    5.4938  -58.1264 H   0  0  0  0  0  0  0  0  0  0  0  0
    9.7364    4.4762  -56.3643 H   0  0  0  0  0  0  0  0  0  0  0  0
    7.9484    4.4062  -56.5988 H   0  0  0  0  0  0  0  0  0  0  0  0
    6.9661    2.8306  -58.3219 H   0  0  0  0  0  0  0  0  0  0  0  0
    8.0737    1.8052  -59.3126 H   0  0  0  0  0  0  0  0  0  0  0  0
    6.2357   -0.1124  -54.1688 H   0  0  0  0  0  0  0  0  0  0  0  0
    8.3122   -1.0802  -50.9281 H   0  0  0  0  0  0  0  0  0  0  0  0
    7.5731   -2.7544  -49.2279 H   0  0  0  0  0  0  0  0  0  0  0  0
    6.1125   -5.3230  -52.3790 H   0  0  0  0  0  0  0  0  0  0  0  0
    6.8497   -3.6556  -54.0866 H   0  0  0  0  0  0  0  0  0  0  0  0
  1  2  1  0
  2  3  1  0
  3  4  2  0
  4  5  1  0
  5  6  2  0
  5  7  1  0
  8  7  1  1
  8  9  1  0
  9 10  1  0
 10 11  1  0
 11 12  1  0
 12 13  1  0
 13 14  1  0
 14 15  1  0
 14 16  1  0
 12 17  1  0
  4 18  1  0
 18 19  2  0
 19 20  1  0
 20 21  1  0
 21 22  2  0
 22 23  1  0
 23 24  1  0
 23 25  2  0
 25 26  1  0
 19  2  1  0
 26 20  2  0
 16  8  1  0
 17  8  1  0
 15 10  1  0
  1 27  1  0
  1 28  1  0
  1 29  1  0
  7 30  1  0
  9 31  1  0
  9 32  1  0
 10 33  1  6
 11 34  1  0
 11 35  1  0
 12 36  1  6
 13 37  1  0
 13 38  1  0
 14 39  1  1
 15 40  1  0
 15 41  1  0
 16 42  1  0
 16 43  1  0
 17 44  1  0
 17 45  1  0
 18 46  1  0
 21 47  1  0
 22 48  1  0
 25 49  1  0
 26 50  1  0
M  END
>  <meeko>  (18) 
{"is_sidechain": false}

$$$$

     RDKit          3D

 54 59  0  0  0  0  0  0  0  0999 V2000
    6.6210    1.8080  -56.1530 O   0  0  0  0  0  0  0  0  0  0  0  0
    7.7530    1.3600  -56.0120 C   0  0  0  0  0  0  0  0  0  0  0  0
    8.8610    1.7860  -56.7100 N   0  0  0  0  0  0  0  0  0  0  0  0
    8.8900    2.8330  -57.7260 C   0  0  2  0  0  0  0  0  0  0  0  0
    7.7550    2.6500  -58.7650 C   0  0  0  0  0  0  0  0  0  0  0  0
    7.8360    3.7370  -59.8520 C   0  0  1  0  0  0  0  0  0  0  0  0
    7.7150    5.1210  -59.1940 C   0  0  0  0  0  0  0  0  0  0  0  0
    8.8580    5.3290  -58.1850 C   0  0  2  0  0  0  0  0  0  0  0  0
   10.2050    5.2180  -58.9140 C   0  0  0  0  0  0  0  0  0  0  0  0
   10.3350    3.8330  -59.5680 C   0  0  2  0  0  0  0  0  0  0  0  0
    9.1900    3.6350  -60.5730 C   0  0  0  0  0  0  0  0  0  0  0  0
   10.2450    2.7520  -58.4800 C   0  0  0  0  0  0  0  0  0  0  0  0
    8.7770    4.2440  -57.0970 C   0  0  0  0  0  0  0  0  0  0  0  0
    8.0640    0.2850  -55.0540 C   0  0  0  0  0  0  0  0  0  0  0  0
    7.1790   -0.3070  -54.1190 C   0  0  0  0  0  0  0  0  0  0  0  0
    7.9120   -1.2710  -53.4550 C   0  0  0  0  0  0  0  0  0  0  0  0
    7.5050   -2.1830  -52.3900 C   0  0  0  0  0  0  0  0  0  0  0  0
    6.7500   -3.3230  -52.6980 C   0  0  0  0  0  0  0  0  0  0  0  0
    6.3580   -4.2060  -51.6910 C   0  0  0  0  0  0  0  0  0  0  0  0
    6.7220   -3.9610  -50.3680 C   0  0  0  0  0  0  0  0  0  0  0  0
    7.4820   -2.8370  -50.0530 C   0  0  0  0  0  0  0  0  0  0  0  0
    7.8760   -1.9530  -51.0610 C   0  0  0  0  0  0  0  0  0  0  0  0
    9.1740   -1.1730  -53.9900 N   0  0  0  0  0  0  0  0  0  0  0  0
   10.3520   -1.9640  -53.5550 C   0  0  0  0  0  0  0  0  0  0  0  0
   11.5550   -2.1840  -54.4420 C   0  0  0  0  0  0  0  0  0  0  0  0
   10.6480   -3.3340  -54.1230 C   0  0  0  0  0  0  0  0  0  0  0  0
    9.2910   -0.2660  -54.9770 N   0  0  0  0  0  0  0  0  0  0  0  0
    9.7190    1.2980  -56.4590 H   0  0  0  0  0  0  0  0  0  0  0  0
    7.8514    1.6603  -59.2354 H   0  0  0  0  0  0  0  0  0  0  0  0
    6.7862    2.7338  -58.2508 H   0  0  0  0  0  0  0  0  0  0  0  0
    7.0200    3.5978  -60.5764 H   0  0  0  0  0  0  0  0  0  0  0  0
    7.7689    5.8987  -59.9701 H   0  0  0  0  0  0  0  0  0  0  0  0
    6.7524    5.1853  -58.6656 H   0  0  0  0  0  0  0  0  0  0  0  0
    8.7689    6.3236  -57.7236 H   0  0  0  0  0  0  0  0  0  0  0  0
   10.2642    5.9948  -59.6906 H   0  0  0  0  0  0  0  0  0  0  0  0
   11.0209    5.3534  -58.1887 H   0  0  0  0  0  0  0  0  0  0  0  0
   11.3008    3.7585  -60.0892 H   0  0  0  0  0  0  0  0  0  0  0  0
    9.2486    4.4114  -61.3500 H   0  0  0  0  0  0  0  0  0  0  0  0
    9.2807    2.6400  -61.0332 H   0  0  0  0  0  0  0  0  0  0  0  0
   10.3371    1.7612  -58.9488 H   0  0  0  0  0  0  0  0  0  0  0  0
   11.0584    2.9135  -57.7573 H   0  0  0  0  0  0  0  0  0  0  0  0
    9.5996    4.3877  -56.3810 H   0  0  0  0  0  0  0  0  0  0  0  0
    7.8076    4.3274  -56.5839 H   0  0  0  0  0  0  0  0  0  0  0  0
    6.1219   -0.0506  -53.9551 H   0  0  0  0  0  0  0  0  0  0  0  0
    6.4643   -3.5231  -53.7412 H   0  0  0  0  0  0  0  0  0  0  0  0
    5.7615   -5.0957  -51.9414 H   0  0  0  0  0  0  0  0  0  0  0  0
    6.4094   -4.6546  -49.5735 H   0  0  0  0  0  0  0  0  0  0  0  0
    7.7724   -2.6450  -49.0095 H   0  0  0  0  0  0  0  0  0  0  0  0
    8.4819   -1.0705  -50.8077 H   0  0  0  0  0  0  0  0  0  0  0  0
   10.1932   -1.5486  -52.5489 H   0  0  0  0  0  0  0  0  0  0  0  0
   11.5720   -1.7637  -55.4584 H   0  0  0  0  0  0  0  0  0  0  0  0
   12.6348   -1.9975  -54.3454 H   0  0  0  0  0  0  0  0  0  0  0  0
   10.0001   -3.7561  -54.9053 H   0  0  0  0  0  0  0  0  0  0  0  0
   10.7879   -4.3380  -53.6959 H   0  0  0  0  0  0  0  0  0  0  0  0
  1  2  2  0
  2  3  1  0
  4  3  1  1
  4  5  1  0
  5  6  1  0
  6  7  1  0
  7  8  1  0
  8  9  1  0
  9 10  1  0
 10 11  1  0
 10 12  1  0
  8 13  1  0
  2 14  1  0
 14 15  1  0
 15 16  2  0
 16 17  1  0
 17 18  2  0
 18 19  1  0
 19 20  2  0
 20 21  1  0
 21 22  2  0
 16 23  1  0
 23 24  1  0
 24 25  1  0
 25 26  1  0
 23 27  1  0
 12  4  1  0
 27 14  2  0
 13  4  1  0
 22 17  1  0
 26 24  1  0
 11  6  1  0
  3 28  1  0
  5 29  1  0
  5 30  1  0
  6 31  1  6
  7 32  1  0
  7 33  1  0
  8 34  1  1
  9 35  1  0
  9 36  1  0
 10 37  1  6
 11 38  1  0
 11 39  1  0
 12 40  1  0
 12 41  1  0
 13 42  1  0
 13 43  1  0
 15 44  1  0
 18 45  1  0
 19 46  1  0
 20 47  1  0
 21 48  1  0
 22 49  1  0
 24 50  1  0
 25 51  1  0
 25 52  1  0
 26 53  1  0
 26 54  1  0
M  END
>  <meeko>  (19) 
{"is_sidechain": false}

$$$$

     RDKit          3D

 40 43  0  0  0  0  0  0  0  0999 V2000
   11.5310   -2.1980  -53.7090 O   0  0  0  0  0  0  0  0  0  0  0  0
   10.4560   -2.7750  -53.7950 C   0  0  0  0  0  0  0  0  0  0  0  0
   10.1330   -3.6890  -54.7790 N   0  0  0  0  0  0  0  0  0  0  0  0
   11.0530   -4.1320  -55.8330 C   0  0  2  0  0  0  0  0  0  0  0  0
   12.2890   -4.8550  -55.2430 C   0  0  0  0  0  0  0  0  0  0  0  0
   13.2080   -5.3600  -56.3700 C   0  0  1  0  0  0  0  0  0  0  0  0
   12.4320   -6.3470  -57.2560 C   0  0  0  0  0  0  0  0  0  0  0  0
   11.2100   -5.6500  -57.8730 C   0  0  2  0  0  0  0  0  0  0  0  0
   11.6790   -4.4590  -58.7230 C   0  0  0  0  0  0  0  0  0  0  0  0
   12.4490   -3.4600  -57.8460 C   0  0  2  0  0  0  0  0  0  0  0  0
   13.6670   -4.1650  -57.2230 C   0  0  0  0  0  0  0  0  0  0  0  0
   11.5280   -2.9540  -56.7210 C   0  0  0  0  0  0  0  0  0  0  0  0
   10.2990   -5.1370  -56.7460 C   0  0  0  0  0  0  0  0  0  0  0  0
    9.4070   -2.5370  -52.7650 C   0  0  0  0  0  0  0  0  0  0  0  0
    9.5300   -3.1800  -51.5260 C   0  0  0  0  0  0  0  0  0  0  0  0
    8.5680   -2.9830  -50.5340 C   0  0  0  0  0  0  0  0  0  0  0  0
    7.4860   -2.1360  -50.7720 C   0  0  0  0  0  0  0  0  0  0  0  0
    7.3670   -1.4790  -51.9970 C   0  0  0  0  0  0  0  0  0  0  0  0
    8.3260   -1.6740  -52.9930 C   0  0  0  0  0  0  0  0  0  0  0  0
    9.3290   -4.2780  -54.6060 H   0  0  0  0  0  0  0  0  0  0  0  0
   12.8487   -4.1539  -54.6065 H   0  0  0  0  0  0  0  0  0  0  0  0
   11.9475   -5.7163  -54.6500 H   0  0  0  0  0  0  0  0  0  0  0  0
   14.0837   -5.8641  -55.9352 H   0  0  0  0  0  0  0  0  0  0  0  0
   13.0894   -6.7092  -58.0601 H   0  0  0  0  0  0  0  0  0  0  0  0
   12.0927   -7.1940  -56.6417 H   0  0  0  0  0  0  0  0  0  0  0  0
   10.6581   -6.3616  -58.5047 H   0  0  0  0  0  0  0  0  0  0  0  0
   12.3371   -4.8214  -59.5265 H   0  0  0  0  0  0  0  0  0  0  0  0
   10.8019   -3.9573  -59.1577 H   0  0  0  0  0  0  0  0  0  0  0  0
   12.7843   -2.6115  -58.4605 H   0  0  0  0  0  0  0  0  0  0  0  0
   14.3291   -4.5236  -58.0249 H   0  0  0  0  0  0  0  0  0  0  0  0
   14.2065   -3.4519  -56.5824 H   0  0  0  0  0  0  0  0  0  0  0  0
   12.0790   -2.2325  -56.0999 H   0  0  0  0  0  0  0  0  0  0  0  0
   10.6478   -2.4733  -57.1728 H   0  0  0  0  0  0  0  0  0  0  0  0
    9.4264   -4.6350  -57.1895 H   0  0  0  0  0  0  0  0  0  0  0  0
    9.9816   -5.9948  -56.1349 H   0  0  0  0  0  0  0  0  0  0  0  0
   10.3873   -3.8421  -51.3346 H   0  0  0  0  0  0  0  0  0  0  0  0
    8.6633   -3.4954  -49.5653 H   0  0  0  0  0  0  0  0  0  0  0  0
    6.7248   -1.9856  -49.9923 H   0  0  0  0  0  0  0  0  0  0  0  0
    6.5160   -0.8061  -52.1786 H   0  0  0  0  0  0  0  0  0  0  0  0
    8.2333   -1.1507  -53.9561 H   0  0  0  0  0  0  0  0  0  0  0  0
  1  2  2  0
  2  3  1  0
  4  3  1  1
  4  5  1  0
  5  6  1  0
  6  7  1  0
  7  8  1  0
  8  9  1  0
  9 10  1  0
 10 11  1  0
 10 12  1  0
  8 13  1  0
  2 14  1  0
 14 15  2  0
 15 16  1  0
 16 17  2  0
 17 18  1  0
 18 19  2  0
 12  4  1  0
 19 14  1  0
 13  4  1  0
 11  6  1  0
  3 20  1  0
  5 21  1  0
  5 22  1  0
  6 23  1  1
  7 24  1  0
  7 25  1  0
  8 26  1  6
  9 27  1  0
  9 28  1  0
 10 29  1  6
 11 30  1  0
 11 31  1  0
 12 32  1  0
 12 33  1  0
 13 34  1  0
 13 35  1  0
 15 36  1  0
 16 37  1  0
 17 38  1  0
 18 39  1  0
 19 40  1  0
M  END
>  <meeko>  (20) 
{"is_sidechain": false}

$$$$

     RDKit          3D

 40 43  0  0  0  0  0  0  0  0999 V2000
    6.3500    2.0900  -56.6080 O   0  0  0  0  0  0  0  0  0  0  0  0
    7.4100    1.5520  -56.3150 C   0  0  0  0  0  0  0  0  0  0  0  0
    8.6360    1.8840  -56.8550 N   0  0  0  0  0  0  0  0  0  0  0  0
    8.8470    2.9610  -57.8300 C   0  0  2  0  0  0  0  0  0  0  0  0
   10.2940    2.8410  -58.3810 C   0  0  0  0  0  0  0  0  0  0  0  0
   10.5880    3.9480  -59.4070 C   0  0  1  0  0  0  0  0  0  0  0  0
    9.5970    3.8270  -60.5760 C   0  0  0  0  0  0  0  0  0  0  0  0
    8.1580    3.9650  -60.0580 C   0  0  2  0  0  0  0  0  0  0  0  0
    7.9930    5.3350  -59.3780 C   0  0  0  0  0  0  0  0  0  0  0  0
    8.9800    5.4660  -58.2060 C   0  0  2  0  0  0  0  0  0  0  0  0
   10.4150    5.3180  -58.7340 C   0  0  0  0  0  0  0  0  0  0  0  0
    8.6970    4.3570  -57.1770 C   0  0  0  0  0  0  0  0  0  0  0  0
    7.8750    2.8540  -59.0320 C   0  0  0  0  0  0  0  0  0  0  0  0
    7.4260    0.4860  -55.2720 C   0  0  0  0  0  0  0  0  0  0  0  0
    8.6110    0.2700  -54.5570 C   0  0  0  0  0  0  0  0  0  0  0  0
    8.6680   -0.7160  -53.5690 C   0  0  0  0  0  0  0  0  0  0  0  0
    7.5360   -1.4790  -53.2900 C   0  0  0  0  0  0  0  0  0  0  0  0
    7.6020   -2.6940  -52.0740 Cl  0  0  0  0  0  0  0  0  0  0  0  0
    6.3450   -1.2600  -53.9830 C   0  0  0  0  0  0  0  0  0  0  0  0
    6.2870   -0.2740  -54.9740 C   0  0  0  0  0  0  0  0  0  0  0  0
    9.4570    1.5550  -56.3640 H   0  0  0  0  0  0  0  0  0  0  0  0
   11.0049    2.9268  -57.5460 H   0  0  0  0  0  0  0  0  0  0  0  0
   10.3991    1.8657  -58.8788 H   0  0  0  0  0  0  0  0  0  0  0  0
   11.6174    3.8468  -59.7813 H   0  0  0  0  0  0  0  0  0  0  0  0
    9.7986    4.6222  -61.3088 H   0  0  0  0  0  0  0  0  0  0  0  0
    9.7175    2.8429  -61.0524 H   0  0  0  0  0  0  0  0  0  0  0  0
    7.4541    3.8794  -60.8989 H   0  0  0  0  0  0  0  0  0  0  0  0
    8.1909    6.1311  -60.1109 H   0  0  0  0  0  0  0  0  0  0  0  0
    6.9657    5.4253  -58.9952 H   0  0  0  0  0  0  0  0  0  0  0  0
    8.8617    6.4501  -57.7290 H   0  0  0  0  0  0  0  0  0  0  0  0
   10.6171    6.1124  -59.4675 H   0  0  0  0  0  0  0  0  0  0  0  0
   11.1195    5.3990  -57.8931 H   0  0  0  0  0  0  0  0  0  0  0  0
    9.4098    4.4456  -56.3439 H   0  0  0  0  0  0  0  0  0  0  0  0
    7.6668    4.4685  -56.8077 H   0  0  0  0  0  0  0  0  0  0  0  0
    6.8407    2.9509  -58.6703 H   0  0  0  0  0  0  0  0  0  0  0  0
    8.0183    1.8777  -59.5180 H   0  0  0  0  0  0  0  0  0  0  0  0
    9.5006    0.8794  -54.7744 H   0  0  0  0  0  0  0  0  0  0  0  0
    9.6019   -0.8892  -53.0141 H   0  0  0  0  0  0  0  0  0  0  0  0
    5.4536   -1.8612  -53.7508 H   0  0  0  0  0  0  0  0  0  0  0  0
    5.3481   -0.0956  -55.5187 H   0  0  0  0  0  0  0  0  0  0  0  0
  1  2  2  0
  2  3  1  0
  4  3  1  1
  4  5  1  0
  5  6  1  0
  6  7  1  0
  7  8  1  0
  8  9  1  0
  9 10  1  0
 10 11  1  0
 10 12  1  0
  8 13  1  0
  2 14  1  0
 14 15  1  0
 15 16  2  0
 16 17  1  0
 17 18  1  0
 17 19  2  0
 19 20  1  0
 12  4  1  0
 20 14  2  0
 13  4  1  0
 11  6  1  0
  3 21  1  0
  5 22  1  0
  5 23  1  0
  6 24  1  6
  7 25  1  0
  7 26  1  0
  8 27  1  6
  9 28  1  0
  9 29  1  0
 10 30  1  1
 11 31  1  0
 11 32  1  0
 12 33  1  0
 12 34  1  0
 13 35  1  0
 13 36  1  0
 15 37  1  0
 16 38  1  0
 19 39  1  0
 20 40  1  0
M  END
>  <meeko>  (21) 
{"is_sidechain": false}

$$$$

     RDKit          3D

 40 43  0  0  0  0  0  0  0  0999 V2000
    6.3680    2.1010  -56.6130 O   0  0  0  0  0  0  0  0  0  0  0  0
    7.4250    1.5640  -56.3040 C   0  0  0  0  0  0  0  0  0  0  0  0
    8.6560    1.8860  -56.8390 N   0  0  0  0  0  0  0  0  0  0  0  0
    8.8770    2.9520  -57.8240 C   0  0  2  0  0  0  0  0  0  0  0  0
   10.3220    2.8120  -58.3750 C   0  0  0  0  0  0  0  0  0  0  0  0
   10.6270    3.9060  -59.4110 C   0  0  1  0  0  0  0  0  0  0  0  0
    9.6350    3.7840  -60.5780 C   0  0  0  0  0  0  0  0  0  0  0  0
    8.1960    3.9430  -60.0610 C   0  0  2  0  0  0  0  0  0  0  0  0
    8.0460    5.3210  -59.3930 C   0  0  0  0  0  0  0  0  0  0  0  0
    9.0360    5.4540  -58.2230 C   0  0  2  0  0  0  0  0  0  0  0  0
   10.4690    5.2850  -58.7500 C   0  0  0  0  0  0  0  0  0  0  0  0
    8.7420    4.3560  -57.1850 C   0  0  0  0  0  0  0  0  0  0  0  0
    7.9030    2.8440  -59.0250 C   0  0  0  0  0  0  0  0  0  0  0  0
    7.4300    0.5110  -55.2510 C   0  0  0  0  0  0  0  0  0  0  0  0
    8.6020    0.3200  -54.5050 C   0  0  0  0  0  0  0  0  0  0  0  0
    8.6480   -0.6550  -53.5050 C   0  0  0  0  0  0  0  0  0  0  0  0
    7.5200   -1.4320  -53.2460 C   0  0  0  0  0  0  0  0  0  0  0  0
    7.5810   -2.7520  -51.8930 Br  0  0  0  0  0  0  0  0  0  0  0  0
    6.3450   -1.2390  -53.9710 C   0  0  0  0  0  0  0  0  0  0  0  0
    6.2960   -0.2650  -54.9720 C   0  0  0  0  0  0  0  0  0  0  0  0
    9.4720    1.5620  -56.3370 H   0  0  0  0  0  0  0  0  0  0  0  0
   11.0344    2.8979  -57.5413 H   0  0  0  0  0  0  0  0  0  0  0  0
   10.4162    1.8312  -58.8641 H   0  0  0  0  0  0  0  0  0  0  0  0
   11.6551    3.7910  -59.7849 H   0  0  0  0  0  0  0  0  0  0  0  0
    9.8452    4.5695  -61.3189 H   0  0  0  0  0  0  0  0  0  0  0  0
    9.7447    2.7938  -61.0443 H   0  0  0  0  0  0  0  0  0  0  0  0
    7.4904    3.8583  -60.9006 H   0  0  0  0  0  0  0  0  0  0  0  0
    8.2507    6.1082  -60.1336 H   0  0  0  0  0  0  0  0  0  0  0  0
    7.0203    5.4244  -59.0092 H   0  0  0  0  0  0  0  0  0  0  0  0
    8.9290    6.4441  -57.7558 H   0  0  0  0  0  0  0  0  0  0  0  0
   10.6796    6.0703  -59.4909 H   0  0  0  0  0  0  0  0  0  0  0  0
   11.1745    5.3657  -57.9099 H   0  0  0  0  0  0  0  0  0  0  0  0
    9.4559    4.4447  -56.3529 H   0  0  0  0  0  0  0  0  0  0  0  0
    7.7126    4.4812  -56.8181 H   0  0  0  0  0  0  0  0  0  0  0  0
    6.8699    2.9542  -58.6636 H   0  0  0  0  0  0  0  0  0  0  0  0
    8.0366    1.8621  -59.5025 H   0  0  0  0  0  0  0  0  0  0  0  0
    9.4880    0.9397  -54.7077 H   0  0  0  0  0  0  0  0  0  0  0  0
    9.5699   -0.8086  -52.9250 H   0  0  0  0  0  0  0  0  0  0  0  0
    5.4577   -1.8525  -53.7555 H   0  0  0  0  0  0  0  0  0  0  0  0
    5.3679   -0.1072  -55.5409 H   0  0  0  0  0  0  0  0  0  0  0  0
  1  2  2  0
  2  3  1  0
  4  3  1  1
  4  5  1  0
  5  6  1  0
  6  7  1  0
  7  8  1  0
  8  9  1  0
  9 10  1  0
 10 11  1  0
 10 12  1  0
  8 13  1  0
  2 14  1  0
 14 15  1  0
 15 16  2  0
 16 17  1  0
 17 18  1  0
 17 19  2  0
 19 20  1  0
 12  4  1  0
 20 14  2  0
 13  4  1  0
 11  6  1  0
  3 21  1  0
  5 22  1  0
  5 23  1  0
  6 24  1  6
  7 25  1  0
  7 26  1  0
  8 27  1  6
  9 28  1  0
  9 29  1  0
 10 30  1  1
 11 31  1  0
 11 32  1  0
 12 33  1  0
 12 34  1  0
 13 35  1  0
 13 36  1  0
 15 37  1  0
 16 38  1  0
 19 39  1  0
 20 40  1  0
M  END
>  <meeko>  (22) 
{"is_sidechain": false}

$$$$

     RDKit          3D

 43 46  0  0  0  0  0  0  0  0999 V2000
    2.5590    1.3780  -63.2170 C   0  0  0  0  0  0  0  0  0  0  0  0
    3.7080    1.7190  -62.3150 C   0  0  0  0  0  0  0  0  0  0  0  0
    3.6430    1.4300  -60.9460 C   0  0  0  0  0  0  0  0  0  0  0  0
    4.7240    1.7140  -60.1100 C   0  0  0  0  0  0  0  0  0  0  0  0
    5.8870    2.2920  -60.6340 C   0  0  0  0  0  0  0  0  0  0  0  0
    7.0170    2.5810  -59.7080 C   0  0  0  0  0  0  0  0  0  0  0  0
    6.9140    2.2980  -58.5220 O   0  0  0  0  0  0  0  0  0  0  0  0
    8.1140    3.1980  -60.2750 N   0  0  0  0  0  0  0  0  0  0  0  0
    9.2930    3.6470  -59.5240 C   0  0  2  0  0  0  0  0  0  0  0  0
    9.9200    2.5020  -58.6910 C   0  0  0  0  0  0  0  0  0  0  0  0
   11.1810    2.9930  -57.9580 C   0  0  1  0  0  0  0  0  0  0  0  0
   12.2140    3.4740  -58.9890 C   0  0  0  0  0  0  0  0  0  0  0  0
   11.6270    4.6240  -59.8200 C   0  0  2  0  0  0  0  0  0  0  0  0
   11.2550    5.7870  -58.8880 C   0  0  0  0  0  0  0  0  0  0  0  0
   10.2160    5.3210  -57.8550 C   0  0  2  0  0  0  0  0  0  0  0  0
   10.8060    4.1630  -57.0330 C   0  0  0  0  0  0  0  0  0  0  0  0
    8.9530    4.8330  -58.5870 C   0  0  0  0  0  0  0  0  0  0  0  0
   10.3630    4.1310  -60.5410 C   0  0  0  0  0  0  0  0  0  0  0  0
    5.9680    2.5550  -62.0070 C   0  0  0  0  0  0  0  0  0  0  0  0
    4.8840    2.2690  -62.8410 C   0  0  0  0  0  0  0  0  0  0  0  0
    1.6803    1.1172  -62.6088 H   0  0  0  0  0  0  0  0  0  0  0  0
    2.3215    2.2444  -63.8518 H   0  0  0  0  0  0  0  0  0  0  0  0
    2.8326    0.5223  -63.8518 H   0  0  0  0  0  0  0  0  0  0  0  0
    2.7332    0.9758  -60.5266 H   0  0  0  0  0  0  0  0  0  0  0  0
    4.6623    1.4831  -59.0363 H   0  0  0  0  0  0  0  0  0  0  0  0
    7.9840    3.6020  -61.1930 H   0  0  0  0  0  0  0  0  0  0  0  0
    9.1862    2.1494  -57.9513 H   0  0  0  0  0  0  0  0  0  0  0  0
   10.2005    1.6827  -59.3692 H   0  0  0  0  0  0  0  0  0  0  0  0
   11.6068    2.1711  -57.3637 H   0  0  0  0  0  0  0  0  0  0  0  0
   13.1153    3.8255  -58.4655 H   0  0  0  0  0  0  0  0  0  0  0  0
   12.4736    2.6400  -59.6576 H   0  0  0  0  0  0  0  0  0  0  0  0
   12.3689    4.9639  -60.5576 H   0  0  0  0  0  0  0  0  0  0  0  0
   12.1570    6.1375  -58.3649 H   0  0  0  0  0  0  0  0  0  0  0  0
   10.8282    6.6062  -59.4853 H   0  0  0  0  0  0  0  0  0  0  0  0
    9.9559    6.1560  -57.1878 H   0  0  0  0  0  0  0  0  0  0  0  0
   11.7061    4.5128  -56.5063 H   0  0  0  0  0  0  0  0  0  0  0  0
   10.0554    3.8197  -56.3059 H   0  0  0  0  0  0  0  0  0  0  0  0
    8.2084    4.5069  -57.8459 H   0  0  0  0  0  0  0  0  0  0  0  0
    8.5502    5.6594  -59.1910 H   0  0  0  0  0  0  0  0  0  0  0  0
    9.9450    4.9552  -61.1376 H   0  0  0  0  0  0  0  0  0  0  0  0
   10.6373    3.2856  -61.1891 H   0  0  0  0  0  0  0  0  0  0  0  0
    6.8868    2.9876  -62.4298 H   0  0  0  0  0  0  0  0  0  0  0  0
    4.9547    2.4773  -63.9188 H   0  0  0  0  0  0  0  0  0  0  0  0
  1  2  1  0
  2  3  1  0
  3  4  2  0
  4  5  1  0
  5  6  1  0
  6  7  2  0
  6  8  1  0
  9  8  1  6
  9 10  1  0
 10 11  1  0
 11 12  1  0
 12 13  1  0
 13 14  1  0
 14 15  1  0
 15 16  1  0
 15 17  1  0
 13 18  1  0
  5 19  2  0
 19 20  1  0
 20  2  2  0
 17  9  1  0
 18  9  1  0
 16 11  1  0
  1 21  1  0
  1 22  1  0
  1 23  1  0
  3 24  1  0
  4 25  1  0
  8 26  1  0
 10 27  1  0
 10 28  1  0
 11 29  1  1
 12 30  1  0
 12 31  1  0
 13 32  1  6
 14 33  1  0
 14 34  1  0
 15 35  1  1
 16 36  1  0
 16 37  1  0
 17 38  1  0
 17 39  1  0
 18 40  1  0
 18 41  1  0
 19 42  1  0
 20 43  1  0
M  END
>  <meeko>  (23) 
{"is_sidechain": false}

$$$$

     RDKit          3D

 40 43  0  0  0  0  0  0  0  0999 V2000
    6.5440    2.4650  -58.5650 O   0  0  0  0  0  0  0  0  0  0  0  0
    6.6820    2.6810  -59.7620 C   0  0  0  0  0  0  0  0  0  0  0  0
    7.8020    3.2490  -60.3340 N   0  0  0  0  0  0  0  0  0  0  0  0
    9.0070    3.6360  -59.5890 C   0  0  2  0  0  0  0  0  0  0  0  0
    9.6250    2.4300  -58.8380 C   0  0  0  0  0  0  0  0  0  0  0  0
   10.9160    2.8480  -58.1140 C   0  0  1  0  0  0  0  0  0  0  0  0
   11.9340    3.3630  -59.1440 C   0  0  0  0  0  0  0  0  0  0  0  0
   11.3560    4.5760  -59.8910 C   0  0  2  0  0  0  0  0  0  0  0  0
   11.0390    5.6910  -58.8830 C   0  0  0  0  0  0  0  0  0  0  0  0
   10.0170    5.1900  -57.8520 C   0  0  2  0  0  0  0  0  0  0  0  0
   10.5960    3.9700  -57.1130 C   0  0  0  0  0  0  0  0  0  0  0  0
    8.7230    4.7750  -58.5770 C   0  0  0  0  0  0  0  0  0  0  0  0
   10.0600    4.1590  -60.6040 C   0  0  0  0  0  0  0  0  0  0  0  0
    5.6030    2.2790  -60.7060 C   0  0  0  0  0  0  0  0  0  0  0  0
    4.3690    1.8750  -60.1770 C   0  0  0  0  0  0  0  0  0  0  0  0
    3.3300    1.4940  -61.0290 C   0  0  0  0  0  0  0  0  0  0  0  0
    3.5270    1.5270  -62.4040 C   0  0  0  0  0  0  0  0  0  0  0  0
    2.5310    1.1640  -63.2220 F   0  0  0  0  0  0  0  0  0  0  0  0
    4.7390    1.9430  -62.9460 C   0  0  0  0  0  0  0  0  0  0  0  0
    5.7810    2.3240  -62.0970 C   0  0  0  0  0  0  0  0  0  0  0  0
    7.9060    3.1500  -61.3340 H   0  0  0  0  0  0  0  0  0  0  0  0
    8.9015    2.0546  -58.0994 H   0  0  0  0  0  0  0  0  0  0  0  0
    9.8662    1.6431  -59.5678 H   0  0  0  0  0  0  0  0  0  0  0  0
   11.3361    1.9830  -57.5799 H   0  0  0  0  0  0  0  0  0  0  0  0
   12.8580    3.6601  -58.6263 H   0  0  0  0  0  0  0  0  0  0  0  0
   12.1530    2.5635  -59.8671 H   0  0  0  0  0  0  0  0  0  0  0  0
   12.0877    4.9393  -60.6276 H   0  0  0  0  0  0  0  0  0  0  0  0
   11.9631    5.9882  -58.3656 H   0  0  0  0  0  0  0  0  0  0  0  0
   10.6183    6.5544  -59.4192 H   0  0  0  0  0  0  0  0  0  0  0  0
    9.7976    5.9913  -57.1310 H   0  0  0  0  0  0  0  0  0  0  0  0
   11.5179    4.2651  -56.5905 H   0  0  0  0  0  0  0  0  0  0  0  0
    9.8548    3.6040  -56.3872 H   0  0  0  0  0  0  0  0  0  0  0  0
    7.9893    4.4255  -57.8357 H   0  0  0  0  0  0  0  0  0  0  0  0
    8.3274    5.6443  -59.1227 H   0  0  0  0  0  0  0  0  0  0  0  0
    9.6461    5.0290  -61.1349 H   0  0  0  0  0  0  0  0  0  0  0  0
   10.2951    3.3503  -61.3116 H   0  0  0  0  0  0  0  0  0  0  0  0
    4.2187    1.8581  -59.0874 H   0  0  0  0  0  0  0  0  0  0  0  0
    2.3637    1.1705  -60.6149 H   0  0  0  0  0  0  0  0  0  0  0  0
    4.8760    1.9717  -64.0371 H   0  0  0  0  0  0  0  0  0  0  0  0
    6.7402    2.6590  -62.5187 H   0  0  0  0  0  0  0  0  0  0  0  0
  1  2  2  0
  2  3  1  0
  4  3  1  6
  4  5  1  0
  5  6  1  0
  6  7  1  0
  7  8  1  0
  8  9  1  0
  9 10  1  0
 10 11  1  0
 10 12  1  0
  8 13  1  0
  2 14  1  0
 14 15  1  0
 15 16  2  0
 16 17  1  0
 17 18  1  0
 17 19  2  0
 19 20  1  0
 12  4  1  0
 20 14  2  0
 13  4  1  0
 11  6  1  0
  3 21  1  0
  5 22  1  0
  5 23  1  0
  6 24  1  1
  7 25  1  0
  7 26  1  0
  8 27  1  6
  9 28  1  0
  9 29  1  0
 10 30  1  1
 11 31  1  0
 11 32  1  0
 12 33  1  0
 12 34  1  0
 13 35  1  0
 13 36  1  0
 15 37  1  0
 16 38  1  0
 19 39  1  0
 20 40  1  0
M  END
>  <meeko>  (24) 
{"is_sidechain": false}

$$$$

     RDKit          3D

 43 46  0  0  0  0  0  0  0  0999 V2000
   11.5360   -2.1900  -53.6730 O   0  0  0  0  0  0  0  0  0  0  0  0
   10.3840   -2.4200  -54.0300 C   0  0  0  0  0  0  0  0  0  0  0  0
    9.1920   -1.8530  -53.2760 C   0  0  0  0  0  0  0  0  0  0  0  0
    8.5410   -2.8360  -52.3300 C   0  0  0  0  0  0  0  0  0  0  0  0
    7.4440   -3.6020  -52.7510 C   0  0  0  0  0  0  0  0  0  0  0  0
    6.8330   -4.5000  -51.8760 C   0  0  0  0  0  0  0  0  0  0  0  0
    7.3130   -4.6440  -50.5750 C   0  0  0  0  0  0  0  0  0  0  0  0
    8.4070   -3.8920  -50.1490 C   0  0  0  0  0  0  0  0  0  0  0  0
    9.0200   -2.9930  -51.0230 C   0  0  0  0  0  0  0  0  0  0  0  0
   10.0510   -3.1530  -55.1530 N   0  0  0  0  0  0  0  0  0  0  0  0
   11.0120   -3.8730  -55.9940 C   0  0  2  0  0  0  0  0  0  0  0  0
   10.2290   -4.8900  -56.8680 C   0  0  0  0  0  0  0  0  0  0  0  0
   11.1800   -5.6910  -57.7710 C   0  0  1  0  0  0  0  0  0  0  0  0
   11.9360   -4.7220  -58.6920 C   0  0  0  0  0  0  0  0  0  0  0  0
   12.7400   -3.7190  -57.8500 C   0  0  2  0  0  0  0  0  0  0  0  0
   13.7420   -4.4840  -56.9670 C   0  0  0  0  0  0  0  0  0  0  0  0
   12.9940   -5.4580  -56.0400 C   0  0  2  0  0  0  0  0  0  0  0  0
   12.1880   -6.4500  -56.8920 C   0  0  0  0  0  0  0  0  0  0  0  0
   12.0330   -4.6640  -55.1390 C   0  0  0  0  0  0  0  0  0  0  0  0
   11.7780   -2.9220  -56.9500 C   0  0  0  0  0  0  0  0  0  0  0  0
    9.5324   -0.9847  -52.6927 H   0  0  0  0  0  0  0  0  0  0  0  0
    8.4358   -1.5862  -54.0289 H   0  0  0  0  0  0  0  0  0  0  0  0
    7.0633   -3.4939  -53.7773 H   0  0  0  0  0  0  0  0  0  0  0  0
    5.9715   -5.0953  -52.2128 H   0  0  0  0  0  0  0  0  0  0  0  0
    6.8288   -5.3506  -49.8849 H   0  0  0  0  0  0  0  0  0  0  0  0
    8.7873   -4.0073  -49.1233 H   0  0  0  0  0  0  0  0  0  0  0  0
    9.8847   -2.4040  -50.6834 H   0  0  0  0  0  0  0  0  0  0  0  0
    9.0870   -3.4610  -55.2070 H   0  0  0  0  0  0  0  0  0  0  0  0
    9.6866   -5.5856  -56.2108 H   0  0  0  0  0  0  0  0  0  0  0  0
    9.5266   -4.3340  -57.5064 H   0  0  0  0  0  0  0  0  0  0  0  0
   10.6058   -6.4060  -58.3785 H   0  0  0  0  0  0  0  0  0  0  0  0
   12.6231   -5.2914  -59.3352 H   0  0  0  0  0  0  0  0  0  0  0  0
   11.2122   -4.1745  -59.3135 H   0  0  0  0  0  0  0  0  0  0  0  0
   13.2816   -3.0302  -58.5150 H   0  0  0  0  0  0  0  0  0  0  0  0
   14.4333   -5.0505  -57.6082 H   0  0  0  0  0  0  0  0  0  0  0  0
   14.3045   -3.7642  -56.3542 H   0  0  0  0  0  0  0  0  0  0  0  0
   13.7165   -6.0064  -55.4177 H   0  0  0  0  0  0  0  0  0  0  0  0
   12.8749   -7.0200  -57.5348 H   0  0  0  0  0  0  0  0  0  0  0  0
   11.6425   -7.1363  -56.2276 H   0  0  0  0  0  0  0  0  0  0  0  0
   11.4917   -5.3624  -54.4839 H   0  0  0  0  0  0  0  0  0  0  0  0
   12.6176   -3.9528  -54.5369 H   0  0  0  0  0  0  0  0  0  0  0  0
   12.3550   -2.1989  -56.3549 H   0  0  0  0  0  0  0  0  0  0  0  0
   11.0504   -2.3964  -57.5859 H   0  0  0  0  0  0  0  0  0  0  0  0
  1  2  2  0
  2  3  1  0
  3  4  1  0
  4  5  2  0
  5  6  1  0
  6  7  2  0
  7  8  1  0
  8  9  2  0
  2 10  1  0
 11 10  1  1
 11 12  1  0
 12 13  1  0
 13 14  1  0
 14 15  1  0
 15 16  1  0
 16 17  1  0
 17 18  1  0
 17 19  1  0
 15 20  1  0
  9  4  1  0
 19 11  1  0
 20 11  1  0
 18 13  1  0
  3 21  1  0
  3 22  1  0
  5 23  1  0
  6 24  1  0
  7 25  1  0
  8 26  1  0
  9 27  1  0
 10 28  1  0
 12 29  1  0
 12 30  1  0
 13 31  1  6
 14 32  1  0
 14 33  1  0
 15 34  1  6
 16 35  1  0
 16 36  1  0
 17 37  1  1
 18 38  1  0
 18 39  1  0
 19 40  1  0
 19 41  1  0
 20 42  1  0
 20 43  1  0
M  END
>  <meeko>  (25) 
{"is_sidechain": false}

$$$$

     RDKit          3D

 33 35  0  0  0  0  0  0  0  0999 V2000
    6.5970    0.4700  -55.6480 C   0  0  0  0  0  0  0  0  0  0  0  0
    6.7670    1.7370  -56.4450 C   0  0  0  0  0  0  0  0  0  0  0  0
    5.8690    2.5670  -56.5300 O   0  0  0  0  0  0  0  0  0  0  0  0
    8.0100    1.8620  -57.0240 N   0  0  0  0  0  0  0  0  0  0  0  0
    8.4550    3.0170  -57.8120 C   0  0  2  0  0  0  0  0  0  0  0  0
    8.5100    4.3050  -56.9530 C   0  0  0  0  0  0  0  0  0  0  0  0
    9.0290    5.4900  -57.7890 C   0  0  1  0  0  0  0  0  0  0  0  0
   10.4450    5.1720  -58.2950 C   0  0  0  0  0  0  0  0  0  0  0  0
   10.4180    3.9080  -59.1690 C   0  0  2  0  0  0  0  0  0  0  0  0
    9.4840    4.1370  -60.3670 C   0  0  0  0  0  0  0  0  0  0  0  0
    8.0630    4.4480  -59.8720 C   0  0  2  0  0  0  0  0  0  0  0  0
    8.0970    5.7090  -58.9920 C   0  0  0  0  0  0  0  0  0  0  0  0
    7.5430    3.2620  -59.0400 C   0  0  0  0  0  0  0  0  0  0  0  0
    9.8890    2.7310  -58.3350 C   0  0  0  0  0  0  0  0  0  0  0  0
    6.6286    0.7054  -54.5740 H   0  0  0  0  0  0  0  0  0  0  0  0
    5.6290    0.0091  -55.8940 H   0  0  0  0  0  0  0  0  0  0  0  0
    7.4093   -0.2297  -55.8940 H   0  0  0  0  0  0  0  0  0  0  0  0
    8.7050    1.1640  -56.7910 H   0  0  0  0  0  0  0  0  0  0  0  0
    7.5001    4.5373  -56.5840 H   0  0  0  0  0  0  0  0  0  0  0  0
    9.1942    4.1396  -56.1077 H   0  0  0  0  0  0  0  0  0  0  0  0
    9.0528    6.3984  -57.1692 H   0  0  0  0  0  0  0  0  0  0  0  0
   10.8182    6.0186  -58.8899 H   0  0  0  0  0  0  0  0  0  0  0  0
   11.1072    5.0017  -57.4333 H   0  0  0  0  0  0  0  0  0  0  0  0
   11.4331    3.6849  -59.5292 H   0  0  0  0  0  0  0  0  0  0  0  0
    9.8560    4.9837  -60.9626 H   0  0  0  0  0  0  0  0  0  0  0  0
    9.4604    3.2280  -60.9861 H   0  0  0  0  0  0  0  0  0  0  0  0
    7.3994    4.6148  -60.7333 H   0  0  0  0  0  0  0  0  0  0  0  0
    8.4647    6.5579  -59.5871 H   0  0  0  0  0  0  0  0  0  0  0  0
    7.0812    5.9198  -58.6263 H   0  0  0  0  0  0  0  0  0  0  0  0
    6.5224    3.4827  -58.6942 H   0  0  0  0  0  0  0  0  0  0  0  0
    7.5444    2.3595  -59.6689 H   0  0  0  0  0  0  0  0  0  0  0  0
    9.8694    1.8269  -58.9613 H   0  0  0  0  0  0  0  0  0  0  0  0
   10.5543    2.5880  -57.4707 H   0  0  0  0  0  0  0  0  0  0  0  0
  1  2  1  0
  2  3  2  0
  2  4  1  0
  5  4  1  1
  5  6  1  0
  6  7  1  0
  7  8  1  0
  8  9  1  0
  9 10  1  0
 10 11  1  0
 11 12  1  0
 11 13  1  0
  9 14  1  0
 13  5  1  0
 14  5  1  0
 12  7  1  0
  1 15  1  0
  1 16  1  0
  1 17  1  0
  4 18  1  0
  6 19  1  0
  6 20  1  0
  7 21  1  1
  8 22  1  0
  8 23  1  0
  9 24  1  6
 10 25  1  0
 10 26  1  0
 11 27  1  6
 12 28  1  0
 12 29  1  0
 13 30  1  0
 13 31  1  0
 14 32  1  0
 14 33  1  0
M  END
>  <meeko>  (26) 
{"is_sidechain": false}

$$$$

     RDKit          3D

 46 49  0  0  0  0  0  0  0  0999 V2000
    5.9590    2.4390  -58.6330 O   0  0  0  0  0  0  0  0  0  0  0  0
    6.1410    2.3180  -59.8380 C   0  0  0  0  0  0  0  0  0  0  0  0
    7.3030    2.6910  -60.4850 N   0  0  0  0  0  0  0  0  0  0  0  0
    8.4700    3.2960  -59.8330 C   0  0  2  0  0  0  0  0  0  0  0  0
    9.1290    2.3260  -58.8180 C   0  0  0  0  0  0  0  0  0  0  0  0
   10.3770    2.9690  -58.1900 C   0  0  1  0  0  0  0  0  0  0  0  0
   11.3950    3.2920  -59.2940 C   0  0  0  0  0  0  0  0  0  0  0  0
   10.7760    4.2680  -60.3070 C   0  0  2  0  0  0  0  0  0  0  0  0
   10.3750    5.5640  -59.5850 C   0  0  0  0  0  0  0  0  0  0  0  0
    9.3520    5.2540  -58.4810 C   0  0  2  0  0  0  0  0  0  0  0  0
    9.9730    4.2690  -57.4750 C   0  0  0  0  0  0  0  0  0  0  0  0
    8.1010    4.6140  -59.1100 C   0  0  0  0  0  0  0  0  0  0  0  0
    9.5240    3.6270  -60.9240 C   0  0  0  0  0  0  0  0  0  0  0  0
    5.0880    1.7390  -60.7850 C   0  0  0  0  0  0  0  0  0  0  0  0
    5.2710    2.2650  -62.2110 C   0  0  0  0  0  0  0  0  0  0  0  0
    4.2830    1.6270  -63.1890 C   0  0  0  0  0  0  0  0  0  0  0  0
    2.9260    1.3060  -62.5620 C   0  0  0  0  0  0  0  0  0  0  0  0
    2.6260    2.2000  -61.3680 C   0  0  0  0  0  0  0  0  0  0  0  0
    3.6690    2.0280  -60.2620 C   0  0  0  0  0  0  0  0  0  0  0  0
    7.3110    2.6380  -61.4950 H   0  0  0  0  0  0  0  0  0  0  0  0
    8.4063    2.0874  -58.0238 H   0  0  0  0  0  0  0  0  0  0  0  0
    9.4291    1.4089  -59.3460 H   0  0  0  0  0  0  0  0  0  0  0  0
   10.8264    2.2725  -57.4668 H   0  0  0  0  0  0  0  0  0  0  0  0
   12.2877    3.7509  -58.8440 H   0  0  0  0  0  0  0  0  0  0  0  0
   11.6753    2.3626  -59.8113 H   0  0  0  0  0  0  0  0  0  0  0  0
   11.5072    4.4951  -61.0968 H   0  0  0  0  0  0  0  0  0  0  0  0
   11.2684    6.0224  -59.1358 H   0  0  0  0  0  0  0  0  0  0  0  0
    9.9251    6.2578  -60.3104 H   0  0  0  0  0  0  0  0  0  0  0  0
    9.0723    6.1846  -57.9654 H   0  0  0  0  0  0  0  0  0  0  0  0
   10.8642    4.7265  -57.0205 H   0  0  0  0  0  0  0  0  0  0  0  0
    9.2331    4.0362  -56.6950 H   0  0  0  0  0  0  0  0  0  0  0  0
    7.3677    4.3995  -58.3187 H   0  0  0  0  0  0  0  0  0  0  0  0
    7.6745    5.3141  -59.8435 H   0  0  0  0  0  0  0  0  0  0  0  0
    9.0827    4.3263  -61.6494 H   0  0  0  0  0  0  0  0  0  0  0  0
    9.8193    2.6906  -61.4200 H   0  0  0  0  0  0  0  0  0  0  0  0
    5.2245    0.6480  -60.8176 H   0  0  0  0  0  0  0  0  0  0  0  0
    5.1166    3.3541  -62.2102 H   0  0  0  0  0  0  0  0  0  0  0  0
    6.2886    2.0073  -62.5399 H   0  0  0  0  0  0  0  0  0  0  0  0
    4.1239    2.3222  -64.0265 H   0  0  0  0  0  0  0  0  0  0  0  0
    4.7220    0.6731  -63.5165 H   0  0  0  0  0  0  0  0  0  0  0  0
    2.1415    1.4496  -63.3196 H   0  0  0  0  0  0  0  0  0  0  0  0
    2.9516    0.2643  -62.2095 H   0  0  0  0  0  0  0  0  0  0  0  0
    2.6253    3.2492  -61.6984 H   0  0  0  0  0  0  0  0  0  0  0  0
    1.6436    1.9161  -60.9628 H   0  0  0  0  0  0  0  0  0  0  0  0
    3.7002    2.9532  -59.6679 H   0  0  0  0  0  0  0  0  0  0  0  0
    3.3633    1.1551  -59.6665 H   0  0  0  0  0  0  0  0  0  0  0  0
  1  2  2  0
  2  3  1  0
  4  3  1  6
  4  5  1  0
  5  6  1  0
  6  7  1  0
  7  8  1  0
  8  9  1  0
  9 10  1  0
 10 11  1  0
 10 12  1  0
  8 13  1  0
  2 14  1  0
 14 15  1  0
 15 16  1  0
 16 17  1  0
 17 18  1  0
 18 19  1  0
 12  4  1  0
 19 14  1  0
 13  4  1  0
 11  6  1  0
  3 20  1  0
  5 21  1  0
  5 22  1  0
  6 23  1  1
  7 24  1  0
  7 25  1  0
  8 26  1  6
  9 27  1  0
  9 28  1  0
 10 29  1  1
 11 30  1  0
 11 31  1  0
 12 32  1  0
 12 33  1  0
 13 34  1  0
 13 35  1  0
 14 36  1  0
 15 37  1  0
 15 38  1  0
 16 39  1  0
 16 40  1  0
 17 41  1  0
 17 42  1  0
 18 43  1  0
 18 44  1  0
 19 45  1  0
 19 46  1  0
M  END
>  <meeko>  (27) 
{"is_sidechain": false}

$$$$

     RDKit          3D

 50 54  0  0  0  0  0  0  0  0999 V2000
    6.4390    2.2590  -56.7400 O   0  0  0  0  0  0  0  0  0  0  0  0
    7.4790    1.7240  -56.3760 C   0  0  0  0  0  0  0  0  0  0  0  0
    8.7280    2.0070  -56.8880 N   0  0  0  0  0  0  0  0  0  0  0  0
    8.9810    2.9580  -57.9780 C   0  0  2  0  0  0  0  0  0  0  0  0
   10.4170    2.8110  -58.5400 C   0  0  0  0  0  0  0  0  0  0  0  0
   10.6760    3.8550  -59.6400 C   0  0  1  0  0  0  0  0  0  0  0  0
    9.6540    3.6620  -60.7730 C   0  0  0  0  0  0  0  0  0  0  0  0
    8.2240    3.8430  -60.2340 C   0  0  2  0  0  0  0  0  0  0  0  0
    8.0810    5.2540  -59.6420 C   0  0  0  0  0  0  0  0  0  0  0  0
    9.0930    5.4490  -58.5020 C   0  0  2  0  0  0  0  0  0  0  0  0
   10.5170    5.2650  -59.0500 C   0  0  0  0  0  0  0  0  0  0  0  0
    8.8330    4.3970  -57.4130 C   0  0  0  0  0  0  0  0  0  0  0  0
    7.9630    2.7990  -59.1350 C   0  0  0  0  0  0  0  0  0  0  0  0
    7.4300    0.6590  -55.3350 C   0  0  0  0  0  0  0  0  0  0  0  0
    8.5930    0.3760  -54.6140 C   0  0  0  0  0  0  0  0  0  0  0  0
    8.5870   -0.6170  -53.6290 C   0  0  0  0  0  0  0  0  0  0  0  0
    7.4240   -1.3540  -53.3510 C   0  0  0  0  0  0  0  0  0  0  0  0
    7.4190   -2.4020  -52.3160 C   0  0  0  0  0  0  0  0  0  0  0  0
    6.6690   -3.5790  -52.4830 C   0  0  0  0  0  0  0  0  0  0  0  0
    6.6620   -4.5740  -51.5010 C   0  0  0  0  0  0  0  0  0  0  0  0
    7.4070   -4.4090  -50.3360 C   0  0  0  0  0  0  0  0  0  0  0  0
    8.1570   -3.2510  -50.1510 C   0  0  0  0  0  0  0  0  0  0  0  0
    8.1620   -2.2560  -51.1330 C   0  0  0  0  0  0  0  0  0  0  0  0
    6.2670   -1.0690  -54.0950 C   0  0  0  0  0  0  0  0  0  0  0  0
    6.2660   -0.0760  -55.0830 C   0  0  0  0  0  0  0  0  0  0  0  0
    9.4620    1.3390  -56.6940 H   0  0  0  0  0  0  0  0  0  0  0  0
   11.1412    2.9570  -57.7250 H   0  0  0  0  0  0  0  0  0  0  0  0
   10.5284    1.8053  -58.9715 H   0  0  0  0  0  0  0  0  0  0  0  0
   11.6954    3.7315  -60.0344 H   0  0  0  0  0  0  0  0  0  0  0  0
    9.8417    4.4048  -61.5623 H   0  0  0  0  0  0  0  0  0  0  0  0
    9.7581    2.6460  -61.1816 H   0  0  0  0  0  0  0  0  0  0  0  0
    7.4983    3.7104  -61.0500 H   0  0  0  0  0  0  0  0  0  0  0  0
    8.2692    6.0000  -60.4282 H   0  0  0  0  0  0  0  0  0  0  0  0
    7.0622    5.3788  -59.2466 H   0  0  0  0  0  0  0  0  0  0  0  0
    8.9858    6.4590  -58.0796 H   0  0  0  0  0  0  0  0  0  0  0  0
   10.7041    6.0117  -59.8358 H   0  0  0  0  0  0  0  0  0  0  0  0
   11.2387    5.3965  -58.2303 H   0  0  0  0  0  0  0  0  0  0  0  0
    9.5568    4.5386  -56.5968 H   0  0  0  0  0  0  0  0  0  0  0  0
    7.8043    4.5232  -57.0443 H   0  0  0  0  0  0  0  0  0  0  0  0
    6.9448    2.9351  -58.7417 H   0  0  0  0  0  0  0  0  0  0  0  0
    8.0728    1.7938  -59.5679 H   0  0  0  0  0  0  0  0  0  0  0  0
    9.5166    0.9362  -54.8218 H   0  0  0  0  0  0  0  0  0  0  0  0
    9.5074   -0.8240  -53.0632 H   0  0  0  0  0  0  0  0  0  0  0  0
    6.0785   -3.7193  -53.4004 H   0  0  0  0  0  0  0  0  0  0  0  0
    6.0677   -5.4878  -51.6486 H   0  0  0  0  0  0  0  0  0  0  0  0
    7.4028   -5.1922  -49.5636 H   0  0  0  0  0  0  0  0  0  0  0  0
    8.7461   -3.1187  -49.2315 H   0  0  0  0  0  0  0  0  0  0  0  0
    8.7573   -1.3443  -50.9767 H   0  0  0  0  0  0  0  0  0  0  0  0
    5.3451   -1.6359  -53.8982 H   0  0  0  0  0  0  0  0  0  0  0  0
    5.3515    0.1258  -55.6600 H   0  0  0  0  0  0  0  0  0  0  0  0
  1  2  2  0
  2  3  1  0
  4  3  1  1
  4  5  1  0
  5  6  1  0
  6  7  1  0
  7  8  1  0
  8  9  1  0
  9 10  1  0
 10 11  1  0
 10 12  1  0
  8 13  1  0
  2 14  1  0
 14 15  1  0
 15 16  2  0
 16 17  1  0
 17 18  1  0
 18 19  2  0
 19 20  1  0
 20 21  2  0
 21 22  1  0
 22 23  2  0
 17 24  2  0
 24 25  1  0
 12  4  1  0
 25 14  2  0
 13  4  1  0
 23 18  1  0
 11  6  1  0
  3 26  1  0
  5 27  1  0
  5 28  1  0
  6 29  1  6
  7 30  1  0
  7 31  1  0
  8 32  1  6
  9 33  1  0
  9 34  1  0
 10 35  1  1
 11 36  1  0
 11 37  1  0
 12 38  1  0
 12 39  1  0
 13 40  1  0
 13 41  1  0
 15 42  1  0
 16 43  1  0
 19 44  1  0
 20 45  1  0
 21 46  1  0
 22 47  1  0
 23 48  1  0
 24 49  1  0
 25 50  1  0
M  END
>  <meeko>  (28) 
{"is_sidechain": false}

$$$$

     RDKit          3D

 42 44  0  0  0  0  0  0  0  0999 V2000
    6.9530    2.5190  -56.9840 O   0  0  0  0  0  0  0  0  0  0  0  0
    7.9220    1.8530  -56.6370 C   0  0  0  0  0  0  0  0  0  0  0  0
    9.1890    2.0200  -57.1600 N   0  0  0  0  0  0  0  0  0  0  0  0
    9.4500    2.9390  -58.2590 C   0  0  0  0  0  0  0  0  0  0  0  0
   10.8700    3.5190  -58.1540 C   0  0  0  0  0  0  0  0  0  0  0  0
   11.4440    3.9820  -59.4960 C   0  0  0  0  0  0  0  0  0  0  0  0
   10.3520    4.3880  -60.4770 C   0  0  0  0  0  0  0  0  0  0  0  0
    9.4010    3.2280  -60.7780 C   0  0  0  0  0  0  0  0  0  0  0  0
    9.2340    2.2530  -59.6100 C   0  0  0  0  0  0  0  0  0  0  0  0
    7.7730    0.8200  -55.5760 C   0  0  0  0  0  0  0  0  0  0  0  0
    6.5320    0.2680  -55.2410 C   0  0  0  0  0  0  0  0  0  0  0  0
    6.4460   -0.6990  -54.2320 C   0  0  0  0  0  0  0  0  0  0  0  0
    7.5880   -1.1250  -53.5330 C   0  0  0  0  0  0  0  0  0  0  0  0
    7.4910   -2.1410  -52.4710 C   0  0  0  0  0  0  0  0  0  0  0  0
    7.0700   -3.4500  -52.7580 C   0  0  0  0  0  0  0  0  0  0  0  0
    6.9790   -4.4150  -51.7510 C   0  0  0  0  0  0  0  0  0  0  0  0
    7.3060   -4.0870  -50.4390 C   0  0  0  0  0  0  0  0  0  0  0  0
    7.7250   -2.7950  -50.1310 C   0  0  0  0  0  0  0  0  0  0  0  0
    7.8170   -1.8320  -51.1400 C   0  0  0  0  0  0  0  0  0  0  0  0
    8.8220   -0.5480  -53.8700 C   0  0  0  0  0  0  0  0  0  0  0  0
    8.9160    0.4180  -54.8770 C   0  0  0  0  0  0  0  0  0  0  0  0
    9.9530    1.4560  -56.8140 H   0  0  0  0  0  0  0  0  0  0  0  0
    8.7346    3.7716  -58.1882 H   0  0  0  0  0  0  0  0  0  0  0  0
   10.8440    4.3809  -57.4710 H   0  0  0  0  0  0  0  0  0  0  0  0
   11.5213    2.7127  -57.7856 H   0  0  0  0  0  0  0  0  0  0  0  0
   12.1025    4.8455  -59.3211 H   0  0  0  0  0  0  0  0  0  0  0  0
   11.9983    3.1398  -59.9358 H   0  0  0  0  0  0  0  0  0  0  0  0
    9.7751    5.2187  -60.0443 H   0  0  0  0  0  0  0  0  0  0  0  0
   10.8328    4.6902  -61.4191 H   0  0  0  0  0  0  0  0  0  0  0  0
    8.4137    3.6437  -61.0277 H   0  0  0  0  0  0  0  0  0  0  0  0
    9.8392    2.6600  -61.6119 H   0  0  0  0  0  0  0  0  0  0  0  0
    8.2168    1.8351  -59.6381 H   0  0  0  0  0  0  0  0  0  0  0  0
    9.9907    1.4616  -59.7155 H   0  0  0  0  0  0  0  0  0  0  0  0
    5.6241    0.5935  -55.7700 H   0  0  0  0  0  0  0  0  0  0  0  0
    5.4666   -1.1330  -53.9820 H   0  0  0  0  0  0  0  0  0  0  0  0
    6.8078   -3.7199  -53.7916 H   0  0  0  0  0  0  0  0  0  0  0  0
    6.6484   -5.4351  -51.9961 H   0  0  0  0  0  0  0  0  0  0  0  0
    7.2337   -4.8466  -49.6466 H   0  0  0  0  0  0  0  0  0  0  0  0
    7.9833   -2.5326  -49.0945 H   0  0  0  0  0  0  0  0  0  0  0  0
    8.1504   -0.8146  -50.8874 H   0  0  0  0  0  0  0  0  0  0  0  0
    9.7300   -0.8605  -53.3335 H   0  0  0  0  0  0  0  0  0  0  0  0
    9.8921    0.8631  -55.1202 H   0  0  0  0  0  0  0  0  0  0  0  0
  1  2  2  0
  2  3  1  0
  3  4  1  0
  4  5  1  0
  5  6  1  0
  6  7  1  0
  7  8  1  0
  8  9  1  0
  2 10  1  0
 10 11  1  0
 11 12  2  0
 12 13  1  0
 13 14  1  0
 14 15  2  0
 15 16  1  0
 16 17  2  0
 17 18  1  0
 18 19  2  0
 13 20  2  0
 20 21  1  0
  9  4  1  0
 21 10  2  0
 19 14  1  0
  3 22  1  0
  4 23  1  0
  5 24  1  0
  5 25  1  0
  6 26  1  0
  6 27  1  0
  7 28  1  0
  7 29  1  0
  8 30  1  0
  8 31  1  0
  9 32  1  0
  9 33  1  0
 11 34  1  0
 12 35  1  0
 15 36  1  0
 16 37  1  0
 17 38  1  0
 18 39  1  0
 19 40  1  0
 20 41  1  0
 21 42  1  0
M  END
>  <meeko>  (29) 
{"is_sidechain": false}

$$$$

     RDKit          3D

 39 41  0  0  0  0  0  0  0  0999 V2000
    5.2660    1.9110  -56.8810 O   0  0  0  0  0  0  0  0  0  0  0  0
    6.4570    1.6430  -56.7750 C   0  0  0  0  0  0  0  0  0  0  0  0
    7.4270    2.1100  -57.6370 N   0  0  0  0  0  0  0  0  0  0  0  0
    7.1110    3.0600  -58.6800 C   0  0  0  0  0  0  0  0  0  0  0  0
    8.3650    3.7080  -59.2090 C   0  0  0  0  0  0  0  0  0  0  0  0
    9.0220    4.7050  -58.4770 C   0  0  0  0  0  0  0  0  0  0  0  0
   10.1720    5.3150  -58.9850 C   0  0  0  0  0  0  0  0  0  0  0  0
   10.6690    4.9370  -60.2310 C   0  0  0  0  0  0  0  0  0  0  0  0
   10.0190    3.9520  -60.9720 C   0  0  0  0  0  0  0  0  0  0  0  0
    8.8710    3.3420  -60.4650 C   0  0  0  0  0  0  0  0  0  0  0  0
    6.9330    0.8000  -55.6430 C   0  0  0  0  0  0  0  0  0  0  0  0
    5.9960    0.0360  -54.9410 C   0  0  0  0  0  0  0  0  0  0  0  0
    6.4010   -0.7670  -53.8700 C   0  0  0  0  0  0  0  0  0  0  0  0
    7.7510   -0.8340  -53.4850 C   0  0  0  0  0  0  0  0  0  0  0  0
    8.1760   -1.6800  -52.3580 C   0  0  0  0  0  0  0  0  0  0  0  0
    7.4250   -1.7380  -51.1720 C   0  0  0  0  0  0  0  0  0  0  0  0
    7.8270   -2.5420  -50.1010 C   0  0  0  0  0  0  0  0  0  0  0  0
    8.9890   -3.3030  -50.2010 C   0  0  0  0  0  0  0  0  0  0  0  0
    9.7480   -3.2600  -51.3670 C   0  0  0  0  0  0  0  0  0  0  0  0
    9.3450   -2.4560  -52.4350 C   0  0  0  0  0  0  0  0  0  0  0  0
    8.6840   -0.0750  -54.2110 C   0  0  0  0  0  0  0  0  0  0  0  0
    8.2830    0.7340  -55.2830 C   0  0  0  0  0  0  0  0  0  0  0  0
    8.3930    2.0630  -57.3480 H   0  0  0  0  0  0  0  0  0  0  0  0
    6.6005    2.5370  -59.5021 H   0  0  0  0  0  0  0  0  0  0  0  0
    6.4593    3.8409  -58.2611 H   0  0  0  0  0  0  0  0  0  0  0  0
    8.6301    5.0100  -57.4955 H   0  0  0  0  0  0  0  0  0  0  0  0
   10.6850    6.0936  -58.4014 H   0  0  0  0  0  0  0  0  0  0  0  0
   11.5751    5.4166  -60.6298 H   0  0  0  0  0  0  0  0  0  0  0  0
   10.4107    3.6555  -61.9562 H   0  0  0  0  0  0  0  0  0  0  0  0
    8.3587    2.5678  -61.0551 H   0  0  0  0  0  0  0  0  0  0  0  0
    4.9357    0.0666  -55.2323 H   0  0  0  0  0  0  0  0  0  0  0  0
    5.6513   -1.3552  -53.3205 H   0  0  0  0  0  0  0  0  0  0  0  0
    6.5053   -1.1409  -51.0845 H   0  0  0  0  0  0  0  0  0  0  0  0
    7.2259   -2.5734  -49.1803 H   0  0  0  0  0  0  0  0  0  0  0  0
    9.3065   -3.9370  -49.3600 H   0  0  0  0  0  0  0  0  0  0  0  0
   10.6664   -3.8601  -51.4471 H   0  0  0  0  0  0  0  0  0  0  0  0
    9.9525   -2.4296  -53.3517 H   0  0  0  0  0  0  0  0  0  0  0  0
    9.7476   -0.1163  -53.9333 H   0  0  0  0  0  0  0  0  0  0  0  0
    9.0301    1.3171  -55.8413 H   0  0  0  0  0  0  0  0  0  0  0  0
  1  2  2  0
  2  3  1  0
  3  4  1  0
  4  5  1  0
  5  6  2  0
  6  7  1  0
  7  8  2  0
  8  9  1  0
  9 10  2  0
  2 11  1  0
 11 12  1  0
 12 13  2  0
 13 14  1  0
 14 15  1  0
 15 16  2  0
 16 17  1  0
 17 18  2  0
 18 19  1  0
 19 20  2  0
 14 21  2  0
 21 22  1  0
 10  5  1  0
 22 11  2  0
 20 15  1  0
  3 23  1  0
  4 24  1  0
  4 25  1  0
  6 26  1  0
  7 27  1  0
  8 28  1  0
  9 29  1  0
 10 30  1  0
 12 31  1  0
 13 32  1  0
 16 33  1  0
 17 34  1  0
 18 35  1  0
 19 36  1  0
 20 37  1  0
 21 38  1  0
 22 39  1  0
M  END
>  <meeko>  (30) 
{"is_sidechain": false}

$$$$

     RDKit          3D

 50 54  0  0  0  0  0  0  0  0999 V2000
    5.7510    2.0420  -57.4970 O   0  0  0  0  0  0  0  0  0  0  0  0
    6.9200    2.0430  -57.1170 C   0  0  0  0  0  0  0  0  0  0  0  0
    7.2680    1.1210  -56.0130 C   0  0  0  0  0  0  0  0  0  0  0  0
    6.2480    0.4000  -55.3900 C   0  0  0  0  0  0  0  0  0  0  0  0
    6.5540   -0.4610  -54.3320 C   0  0  0  0  0  0  0  0  0  0  0  0
    7.8760   -0.6030  -53.8730 C   0  0  0  0  0  0  0  0  0  0  0  0
    8.1960   -1.5100  -52.7570 C   0  0  0  0  0  0  0  0  0  0  0  0
    9.4110   -2.2130  -52.7220 C   0  0  0  0  0  0  0  0  0  0  0  0
    9.7160   -3.0740  -51.6640 C   0  0  0  0  0  0  0  0  0  0  0  0
    8.8090   -3.2450  -50.6210 C   0  0  0  0  0  0  0  0  0  0  0  0
    7.5980   -2.5570  -50.6360 C   0  0  0  0  0  0  0  0  0  0  0  0
    7.2950   -1.6970  -51.6950 C   0  0  0  0  0  0  0  0  0  0  0  0
    8.8830    0.1530  -54.4990 C   0  0  0  0  0  0  0  0  0  0  0  0
    8.5830    1.0170  -55.5570 C   0  0  0  0  0  0  0  0  0  0  0  0
    7.9220    2.8640  -57.6660 N   0  0  0  0  0  0  0  0  0  0  0  0
    8.3920    4.0630  -56.9700 C   0  0  0  0  0  0  0  0  0  0  0  0
    9.3650    5.0000  -57.6990 C   0  0  2  0  0  0  0  0  0  0  0  0
    9.2230    5.4730  -59.1500 C   0  0  0  0  0  0  0  0  0  0  0  0
    9.5270    4.3760  -60.1670 C   0  0  1  0  0  0  0  0  0  0  0  0
   10.9420    3.8460  -59.9270 C   0  0  0  0  0  0  0  0  0  0  0  0
   11.0210    3.2050  -58.5390 C   0  0  1  0  0  0  0  0  0  0  0  0
   10.6800    4.2420  -57.4570 C   0  0  0  0  0  0  0  0  0  0  0  0
   10.0860    1.9930  -58.4940 C   0  0  0  0  0  0  0  0  0  0  0  0
    8.6340    2.3440  -58.8420 C   0  0  2  0  0  0  0  0  0  0  0  0
    8.5070    3.2350  -60.0900 C   0  0  0  0  0  0  0  0  0  0  0  0
    5.2076    0.5089  -55.7302 H   0  0  0  0  0  0  0  0  0  0  0  0
    5.7489   -1.0360  -53.8513 H   0  0  0  0  0  0  0  0  0  0  0  0
   10.1345   -2.0840  -53.5405 H   0  0  0  0  0  0  0  0  0  0  0  0
   10.6727   -3.6167  -51.6551 H   0  0  0  0  0  0  0  0  0  0  0  0
    9.0484   -3.9217  -49.7875 H   0  0  0  0  0  0  0  0  0  0  0  0
    6.8797   -2.6907  -49.8137 H   0  0  0  0  0  0  0  0  0  0  0  0
    6.3361   -1.1580  -51.6973 H   0  0  0  0  0  0  0  0  0  0  0  0
    9.9227    0.0634  -54.1512 H   0  0  0  0  0  0  0  0  0  0  0  0
    9.3797    1.6118  -56.0276 H   0  0  0  0  0  0  0  0  0  0  0  0
    7.5032    4.6566  -56.7099 H   0  0  0  0  0  0  0  0  0  0  0  0
    8.9778    3.6713  -56.1254 H   0  0  0  0  0  0  0  0  0  0  0  0
    9.2008    6.0115  -57.2991 H   0  0  0  0  0  0  0  0  0  0  0  0
    8.1908    5.8197  -59.3063 H   0  0  0  0  0  0  0  0  0  0  0  0
    9.9549    6.2791  -59.3066 H   0  0  0  0  0  0  0  0  0  0  0  0
    9.4575    4.8065  -61.1769 H   0  0  0  0  0  0  0  0  0  0  0  0
   11.1861    3.0942  -60.6920 H   0  0  0  0  0  0  0  0  0  0  0  0
   11.6591    4.6780  -59.9868 H   0  0  0  0  0  0  0  0  0  0  0  0
   12.0445    2.8554  -58.3384 H   0  0  0  0  0  0  0  0  0  0  0  0
   10.6042    3.7203  -56.4916 H   0  0  0  0  0  0  0  0  0  0  0  0
   11.4840    4.9925  -57.4756 H   0  0  0  0  0  0  0  0  0  0  0  0
   10.4479    1.2440  -59.2138 H   0  0  0  0  0  0  0  0  0  0  0  0
   10.0941    1.6089  -57.4633 H   0  0  0  0  0  0  0  0  0  0  0  0
    8.1299    1.4093  -59.1286 H   0  0  0  0  0  0  0  0  0  0  0  0
    8.6350    2.6001  -60.9791 H   0  0  0  0  0  0  0  0  0  0  0  0
    7.5151    3.7074  -60.0356 H   0  0  0  0  0  0  0  0  0  0  0  0
  1  2  2  0
  2  3  1  0
  3  4  1  0
  4  5  2  0
  5  6  1  0
  6  7  1  0
  7  8  2  0
  8  9  1  0
  9 10  2  0
 10 11  1  0
 11 12  2  0
  6 13  2  0
 13 14  1  0
  2 15  1  0
 15 16  1  0
 16 17  1  0
 17 18  1  0
 18 19  1  0
 19 20  1  0
 20 21  1  0
 21 22  1  0
 21 23  1  0
 23 24  1  0
 24 25  1  0
 14  3  2  0
 24 15  1  0
 12  7  1  0
 22 17  1  0
 25 19  1  0
  4 26  1  0
  5 27  1  0
  8 28  1  0
  9 29  1  0
 10 30  1  0
 11 31  1  0
 12 32  1  0
 13 33  1  0
 14 34  1  0
 16 35  1  0
 16 36  1  0
 17 37  1  1
 18 38  1  0
 18 39  1  0
 19 40  1  6
 20 41  1  0
 20 42  1  0
 21 43  1  1
 22 44  1  0
 22 45  1  0
 23 46  1  0
 23 47  1  0
 24 48  1  6
 25 49  1  0
 25 50  1  0
M  END
>  <meeko>  (31) 
{"is_sidechain": false}

$$$$

     RDKit          3D

 45 47  0  0  0  0  0  0  0  0999 V2000
    5.8240    2.7300  -57.9220 O   0  0  0  0  0  0  0  0  0  0  0  0
    6.9830    2.5350  -57.5760 C   0  0  0  0  0  0  0  0  0  0  0  0
    8.0710    3.1410  -58.1700 N   0  0  0  0  0  0  0  0  0  0  0  0
    7.9160    4.1620  -59.2010 C   0  0  0  0  0  0  0  0  0  0  0  0
    8.4240    5.5250  -58.6870 C   0  0  0  0  0  0  0  0  0  0  0  0
    9.7270    5.4670  -57.8940 C   0  0  0  0  0  0  0  0  0  0  0  0
   10.9770    5.0980  -58.7220 C   0  0  0  0  0  0  0  0  0  0  0  0
   10.7810    4.9050  -60.2240 C   0  0  0  0  0  0  0  0  0  0  0  0
   10.0350    3.6370  -60.6250 C   0  0  0  0  0  0  0  0  0  0  0  0
    8.5100    3.6840  -60.5330 C   0  0  0  0  0  0  0  0  0  0  0  0
    7.2800    1.5760  -56.4760 C   0  0  0  0  0  0  0  0  0  0  0  0
    6.2820    0.8040  -55.8710 C   0  0  0  0  0  0  0  0  0  0  0  0
    6.6140   -0.0870  -54.8430 C   0  0  0  0  0  0  0  0  0  0  0  0
    7.9410   -0.2340  -54.4050 C   0  0  0  0  0  0  0  0  0  0  0  0
    8.2840   -1.1740  -53.3260 C   0  0  0  0  0  0  0  0  0  0  0  0
    7.3990   -1.4080  -52.2610 C   0  0  0  0  0  0  0  0  0  0  0  0
    7.7240   -2.2990  -51.2350 C   0  0  0  0  0  0  0  0  0  0  0  0
    8.9420   -2.9750  -51.2580 C   0  0  0  0  0  0  0  0  0  0  0  0
    9.8340   -2.7590  -52.3070 C   0  0  0  0  0  0  0  0  0  0  0  0
    9.5070   -1.8660  -53.3300 C   0  0  0  0  0  0  0  0  0  0  0  0
    8.9320    0.5360  -55.0360 C   0  0  0  0  0  0  0  0  0  0  0  0
    8.6070    1.4280  -56.0640 C   0  0  0  0  0  0  0  0  0  0  0  0
    9.0040    2.9130  -57.8580 H   0  0  0  0  0  0  0  0  0  0  0  0
    6.8515    4.3272  -59.4234 H   0  0  0  0  0  0  0  0  0  0  0  0
    8.5816    6.1809  -59.5559 H   0  0  0  0  0  0  0  0  0  0  0  0
    7.6566    5.8989  -57.9932 H   0  0  0  0  0  0  0  0  0  0  0  0
    9.8962    6.4556  -57.4422 H   0  0  0  0  0  0  0  0  0  0  0  0
    9.6008    4.6646  -57.1522 H   0  0  0  0  0  0  0  0  0  0  0  0
   11.7155    5.9015  -58.5842 H   0  0  0  0  0  0  0  0  0  0  0  0
   11.2886    4.1125  -58.3455 H   0  0  0  0  0  0  0  0  0  0  0  0
   10.2158    5.7675  -60.6068 H   0  0  0  0  0  0  0  0  0  0  0  0
   11.7895    4.8140  -60.6537 H   0  0  0  0  0  0  0  0  0  0  0  0
   10.2999    3.4094  -61.6681 H   0  0  0  0  0  0  0  0  0  0  0  0
   10.3468    2.8737  -59.8969 H   0  0  0  0  0  0  0  0  0  0  0  0
    8.1489    4.3608  -61.3214 H   0  0  0  0  0  0  0  0  0  0  0  0
    8.1809    2.6398  -60.6390 H   0  0  0  0  0  0  0  0  0  0  0  0
    5.2373    0.8970  -56.2027 H   0  0  0  0  0  0  0  0  0  0  0  0
    5.8205   -0.6835  -54.3691 H   0  0  0  0  0  0  0  0  0  0  0  0
    6.4338   -0.8810  -52.2341 H   0  0  0  0  0  0  0  0  0  0  0  0
    7.0177   -2.4668  -50.4085 H   0  0  0  0  0  0  0  0  0  0  0  0
    9.1989   -3.6769  -50.4509 H   0  0  0  0  0  0  0  0  0  0  0  0
   10.7960   -3.2921  -52.3292 H   0  0  0  0  0  0  0  0  0  0  0  0
   10.2187   -1.7017  -54.1525 H   0  0  0  0  0  0  0  0  0  0  0  0
    9.9800    0.4362  -54.7170 H   0  0  0  0  0  0  0  0  0  0  0  0
    9.3999    2.0155  -56.5501 H   0  0  0  0  0  0  0  0  0  0  0  0
  1  2  2  0
  2  3  1  0
  3  4  1  0
  4  5  1  0
  5  6  1  0
  6  7  1  0
  7  8  1  0
  8  9  1  0
  9 10  1  0
  2 11  1  0
 11 12  1  0
 12 13  2  0
 13 14  1  0
 14 15  1  0
 15 16  2  0
 16 17  1  0
 17 18  2  0
 18 19  1  0
 19 20  2  0
 14 21  2  0
 21 22  1  0
 10  4  1  0
 22 11  2  0
 20 15  1  0
  3 23  1  0
  4 24  1  0
  5 25  1  0
  5 26  1  0
  6 27  1  0
  6 28  1  0
  7 29  1  0
  7 30  1  0
  8 31  1  0
  8 32  1  0
  9 33  1  0
  9 34  1  0
 10 35  1  0
 10 36  1  0
 12 37  1  0
 13 38  1  0
 16 39  1  0
 17 40  1  0
 18 41  1  0
 19 42  1  0
 20 43  1  0
 21 44  1  0
 22 45  1  0
M  END
>  <meeko>  (32) 
{"is_sidechain": false}

$$$$

     RDKit          3D

 50 54  0  0  0  0  0  0  0  0999 V2000
    6.3010    2.3450  -56.9600 O   0  0  0  0  0  0  0  0  0  0  0  0
    7.3390    1.7900  -56.6230 C   0  0  0  0  0  0  0  0  0  0  0  0
    8.5750    2.0870  -57.1600 N   0  0  0  0  0  0  0  0  0  0  0  0
    8.7350    3.0800  -58.2130 C   0  0  2  0  0  0  0  0  0  0  0  0
    9.9730    2.8000  -59.1000 C   0  0  1  0  0  0  0  0  0  0  0  0
    9.9730    3.8030  -60.2710 C   0  0  0  0  0  0  0  0  0  0  0  0
   10.0440    5.2440  -59.7340 C   0  0  2  0  0  0  0  0  0  0  0  0
   11.3390    5.4130  -58.9220 C   0  0  0  0  0  0  0  0  0  0  0  0
   11.3530    4.4230  -57.7440 C   0  0  2  0  0  0  0  0  0  0  0  0
   11.2690    2.9880  -58.2860 C   0  0  0  0  0  0  0  0  0  0  0  0
   10.1380    4.6980  -56.8430 C   0  0  0  0  0  0  0  0  0  0  0  0
    8.8310    4.5150  -57.6410 C   0  0  1  0  0  0  0  0  0  0  0  0
    8.8350    5.5090  -58.8190 C   0  0  0  0  0  0  0  0  0  0  0  0
    7.3190    0.7550  -55.5540 C   0  0  0  0  0  0  0  0  0  0  0  0
    8.5250    0.4150  -54.9320 C   0  0  0  0  0  0  0  0  0  0  0  0
    8.5490   -0.5510  -53.9210 C   0  0  0  0  0  0  0  0  0  0  0  0
    7.3710   -1.1910  -53.5040 C   0  0  0  0  0  0  0  0  0  0  0  0
    7.3970   -2.2060  -52.4370 C   0  0  0  0  0  0  0  0  0  0  0  0
    7.0510   -3.5420  -52.7000 C   0  0  0  0  0  0  0  0  0  0  0  0
    7.0750   -4.5060  -51.6870 C   0  0  0  0  0  0  0  0  0  0  0  0
    7.4450   -4.1490  -50.3930 C   0  0  0  0  0  0  0  0  0  0  0  0
    7.7910   -2.8290  -50.1110 C   0  0  0  0  0  0  0  0  0  0  0  0
    7.7670   -1.8680  -51.1250 C   0  0  0  0  0  0  0  0  0  0  0  0
    6.1650   -0.8270  -54.1260 C   0  0  0  0  0  0  0  0  0  0  0  0
    6.1340    0.1390  -55.1380 C   0  0  0  0  0  0  0  0  0  0  0  0
    9.4030    1.7030  -56.7280 H   0  0  0  0  0  0  0  0  0  0  0  0
    7.8325    3.0027  -58.8372 H   0  0  0  0  0  0  0  0  0  0  0  0
    9.9285    1.7652  -59.4704 H   0  0  0  0  0  0  0  0  0  0  0  0
   10.8445    3.6112  -60.9142 H   0  0  0  0  0  0  0  0  0  0  0  0
    9.0458    3.6801  -60.8500 H   0  0  0  0  0  0  0  0  0  0  0  0
   10.0326    5.9541  -60.5740 H   0  0  0  0  0  0  0  0  0  0  0  0
   12.2048    5.2184  -59.5720 H   0  0  0  0  0  0  0  0  0  0  0  0
   11.3897    6.4402  -58.5317 H   0  0  0  0  0  0  0  0  0  0  0  0
   12.2808    4.5445  -57.1657 H   0  0  0  0  0  0  0  0  0  0  0  0
   12.1363    2.7932  -58.9340 H   0  0  0  0  0  0  0  0  0  0  0  0
   11.2661    2.2849  -57.4400 H   0  0  0  0  0  0  0  0  0  0  0  0
   10.1477    3.9965  -55.9958 H   0  0  0  0  0  0  0  0  0  0  0  0
   10.1915    5.7330  -56.4742 H   0  0  0  0  0  0  0  0  0  0  0  0
    7.9759    4.6925  -56.9722 H   0  0  0  0  0  0  0  0  0  0  0  0
    7.9077    5.3894  -59.3984 H   0  0  0  0  0  0  0  0  0  0  0  0
    8.9016    6.5335  -58.4240 H   0  0  0  0  0  0  0  0  0  0  0  0
    9.4583    0.9095  -55.2394 H   0  0  0  0  0  0  0  0  0  0  0  0
    9.5055   -0.8134  -53.4452 H   0  0  0  0  0  0  0  0  0  0  0  0
    6.7566   -3.8345  -53.7187 H   0  0  0  0  0  0  0  0  0  0  0  0
    6.8013   -5.5472  -51.9127 H   0  0  0  0  0  0  0  0  0  0  0  0
    7.4641   -4.9067  -49.5958 H   0  0  0  0  0  0  0  0  0  0  0  0
    8.0832   -2.5434  -49.0897 H   0  0  0  0  0  0  0  0  0  0  0  0
    8.0426   -0.8290  -50.8917 H   0  0  0  0  0  0  0  0  0  0  0  0
    5.2281   -1.3101  -53.8118 H   0  0  0  0  0  0  0  0  0  0  0  0
    5.1775    0.4140  -55.6065 H   0  0  0  0  0  0  0  0  0  0  0  0
  1  2  2  0
  2  3  1  0
  3  4  1  0
  4  5  1  0
  5  6  1  0
  6  7  1  0
  7  8  1  0
  8  9  1  0
  9 10  1  0
  9 11  1  0
 11 12  1  0
 12 13  1  0
  2 14  1  0
 14 15  1  0
 15 16  2  0
 16 17  1  0
 17 18  1  0
 18 19  2  0
 19 20  1  0
 20 21  2  0
 21 22  1  0
 22 23  2  0
 17 24  2  0
 24 25  1  0
 12  4  1  0
 25 14  2  0
 10  5  1  0
 23 18  1  0
 13  7  1  0
  3 26  1  0
  4 27  1  1
  5 28  1  1
  6 29  1  0
  6 30  1  0
  7 31  1  1
  8 32  1  0
  8 33  1  0
  9 34  1  6
 10 35  1  0
 10 36  1  0
 11 37  1  0
 11 38  1  0
 12 39  1  6
 13 40  1  0
 13 41  1  0
 15 42  1  0
 16 43  1  0
 19 44  1  0
 20 45  1  0
 21 46  1  0
 22 47  1  0
 23 48  1  0
 24 49  1  0
 25 50  1  0
M  END
>  <meeko>  (33) 
{"is_sidechain": false}

$$$$

     RDKit          3D

 49 53  0  0  0  0  0  0  0  0999 V2000
    6.5070    2.2000  -56.7620 O   0  0  0  0  0  0  0  0  0  0  0  0
    7.5520    1.6860  -56.3840 C   0  0  0  0  0  0  0  0  0  0  0  0
    8.8020    1.9850  -56.8870 N   0  0  0  0  0  0  0  0  0  0  0  0
    9.0490    2.9330  -57.9800 C   0  0  2  0  0  0  0  0  0  0  0  0
   10.4820    2.7850  -58.5490 C   0  0  0  0  0  0  0  0  0  0  0  0
   10.7350    3.8270  -59.6540 C   0  0  1  0  0  0  0  0  0  0  0  0
    9.7090    3.6300  -60.7820 C   0  0  0  0  0  0  0  0  0  0  0  0
    8.2810    3.8110  -60.2380 C   0  0  2  0  0  0  0  0  0  0  0  0
    8.1380    5.2220  -59.6480 C   0  0  0  0  0  0  0  0  0  0  0  0
    9.1550    5.4220  -58.5140 C   0  0  2  0  0  0  0  0  0  0  0  0
   10.5770    5.2390  -59.0660 C   0  0  0  0  0  0  0  0  0  0  0  0
    8.9010    4.3730  -57.4190 C   0  0  0  0  0  0  0  0  0  0  0  0
    8.0250    2.7700  -59.1330 C   0  0  0  0  0  0  0  0  0  0  0  0
    7.5100    0.6290  -55.3350 C   0  0  0  0  0  0  0  0  0  0  0  0
    8.6930    0.3110  -54.6610 C   0  0  0  0  0  0  0  0  0  0  0  0
    8.6970   -0.6780  -53.6710 C   0  0  0  0  0  0  0  0  0  0  0  0
    7.5240   -1.3760  -53.3400 C   0  0  0  0  0  0  0  0  0  0  0  0
    7.5270   -2.4170  -52.3020 C   0  0  0  0  0  0  0  0  0  0  0  0
    7.9620   -2.1590  -50.9950 C   0  0  0  0  0  0  0  0  0  0  0  0
    7.9540   -3.1700  -50.0360 C   0  0  0  0  0  0  0  0  0  0  0  0
    7.5080   -4.4250  -50.4090 C   0  0  0  0  0  0  0  0  0  0  0  0
    7.0770   -4.7250  -51.6510 N   0  0  0  0  0  0  0  0  0  0  0  0
    7.0970   -3.7200  -52.5600 C   0  0  0  0  0  0  0  0  0  0  0  0
    6.3460   -1.0550  -54.0380 C   0  0  0  0  0  0  0  0  0  0  0  0
    6.3370   -0.0680  -55.0300 C   0  0  0  0  0  0  0  0  0  0  0  0
    9.5450    1.3320  -56.6810 H   0  0  0  0  0  0  0  0  0  0  0  0
   11.2103    2.9334  -57.7381 H   0  0  0  0  0  0  0  0  0  0  0  0
   10.5916    1.7782  -58.9783 H   0  0  0  0  0  0  0  0  0  0  0  0
   11.7526    3.7035  -60.0530 H   0  0  0  0  0  0  0  0  0  0  0  0
    9.8929    4.3708  -61.5741 H   0  0  0  0  0  0  0  0  0  0  0  0
    9.8125    2.6130  -61.1882 H   0  0  0  0  0  0  0  0  0  0  0  0
    7.5537    3.6753  -61.0520 H   0  0  0  0  0  0  0  0  0  0  0  0
    8.3203    5.9669  -60.4366 H   0  0  0  0  0  0  0  0  0  0  0  0
    7.1210    5.3448  -59.2472 H   0  0  0  0  0  0  0  0  0  0  0  0
    9.0481    6.4337  -58.0956 H   0  0  0  0  0  0  0  0  0  0  0  0
   10.7607    5.9844  -59.8538 H   0  0  0  0  0  0  0  0  0  0  0  0
   11.3015    5.3733  -58.2493 H   0  0  0  0  0  0  0  0  0  0  0  0
    9.6280    4.5185  -56.6064 H   0  0  0  0  0  0  0  0  0  0  0  0
    7.8739    4.4989  -57.0458 H   0  0  0  0  0  0  0  0  0  0  0  0
    7.0086    2.9075  -58.7356 H   0  0  0  0  0  0  0  0  0  0  0  0
    8.1332    1.7633  -59.5630 H   0  0  0  0  0  0  0  0  0  0  0  0
    9.6245    0.8405  -54.9100 H   0  0  0  0  0  0  0  0  0  0  0  0
    9.6335   -0.9124  -53.1438 H   0  0  0  0  0  0  0  0  0  0  0  0
    8.3120   -1.1519  -50.7244 H   0  0  0  0  0  0  0  0  0  0  0  0
    8.2938   -2.9749  -49.0082 H   0  0  0  0  0  0  0  0  0  0  0  0
    7.5047   -5.2221  -49.6509 H   0  0  0  0  0  0  0  0  0  0  0  0
    6.7481   -3.9481  -53.5780 H   0  0  0  0  0  0  0  0  0  0  0  0
    5.4146   -1.5896  -53.7998 H   0  0  0  0  0  0  0  0  0  0  0  0
    5.4063    0.1597  -55.5703 H   0  0  0  0  0  0  0  0  0  0  0  0
  1  2  2  0
  2  3  1  0
  4  3  1  1
  4  5  1  0
  5  6  1  0
  6  7  1  0
  7  8  1  0
  8  9  1  0
  9 10  1  0
 10 11  1  0
 10 12  1  0
  8 13  1  0
  2 14  1  0
 14 15  1  0
 15 16  2  0
 16 17  1  0
 17 18  1  0
 18 19  1  0
 19 20  2  0
 20 21  1  0
 21 22  2  0
 22 23  1  0
 17 24  2  0
 24 25  1  0
 12  4  1  0
 25 14  2  0
 13  4  1  0
 23 18  2  0
 11  6  1  0
  3 26  1  0
  5 27  1  0
  5 28  1  0
  6 29  1  6
  7 30  1  0
  7 31  1  0
  8 32  1  6
  9 33  1  0
  9 34  1  0
 10 35  1  1
 11 36  1  0
 11 37  1  0
 12 38  1  0
 12 39  1  0
 13 40  1  0
 13 41  1  0
 15 42  1  0
 16 43  1  0
 19 44  1  0
 20 45  1  0
 21 46  1  0
 23 47  1  0
 24 48  1  0
 25 49  1  0
M  END
>  <meeko>  (34) 
{"is_sidechain": false}

$$$$

     RDKit          3D

 27 29  0  0  0  0  0  0  0  0999 V2000
   10.6070    2.0470  -57.1580 O   0  0  0  0  0  0  0  0  0  0  0  0
   10.2200    2.9930  -58.1440 C   0  0  2  0  0  0  0  0  0  0  0  0
   11.4360    3.3860  -59.0040 C   0  0  0  0  0  0  0  0  0  0  0  0
   11.0130    4.4000  -60.0800 C   0  0  1  0  0  0  0  0  0  0  0  0
    9.9310    3.7660  -60.9720 C   0  0  0  0  0  0  0  0  0  0  0  0
    8.7080    3.3730  -60.1240 C   0  0  2  0  0  0  0  0  0  0  0  0
    8.1420    4.6310  -59.4400 C   0  0  0  0  0  0  0  0  0  0  0  0
    9.2140    5.2700  -58.5380 C   0  0  2  0  0  0  0  0  0  0  0  0
   10.4340    5.6500  -59.3950 C   0  0  0  0  0  0  0  0  0  0  0  0
    9.6450    4.2520  -57.4700 C   0  0  0  0  0  0  0  0  0  0  0  0
    9.1440    2.3670  -59.0470 C   0  0  0  0  0  0  0  0  0  0  0  0
   10.3630    1.1630  -57.4790 H   0  0  0  0  0  0  0  0  0  0  0  0
   12.2064    3.8369  -58.3612 H   0  0  0  0  0  0  0  0  0  0  0  0
   11.8382    2.4867  -59.4933 H   0  0  0  0  0  0  0  0  0  0  0  0
   11.8833    4.6801  -60.6917 H   0  0  0  0  0  0  0  0  0  0  0  0
    9.6230    4.4903  -61.7405 H   0  0  0  0  0  0  0  0  0  0  0  0
   10.3419    2.8644  -61.4498 H   0  0  0  0  0  0  0  0  0  0  0  0
    7.9387    2.9207  -60.7671 H   0  0  0  0  0  0  0  0  0  0  0  0
    7.8339    5.3555  -60.2082 H   0  0  0  0  0  0  0  0  0  0  0  0
    7.2757    4.3474  -58.8244 H   0  0  0  0  0  0  0  0  0  0  0  0
    8.8057    6.1689  -58.0530 H   0  0  0  0  0  0  0  0  0  0  0  0
   10.1269    6.3755  -60.1627 H   0  0  0  0  0  0  0  0  0  0  0  0
   11.2042    6.0927  -58.7462 H   0  0  0  0  0  0  0  0  0  0  0  0
   10.4137    4.7035  -56.8256 H   0  0  0  0  0  0  0  0  0  0  0  0
    8.7700    3.9703  -56.8658 H   0  0  0  0  0  0  0  0  0  0  0  0
    8.2731    2.0882  -58.4356 H   0  0  0  0  0  0  0  0  0  0  0  0
    9.5594    1.4735  -59.5359 H   0  0  0  0  0  0  0  0  0  0  0  0
  2  1  1  1
  2  3  1  0
  3  4  1  0
  4  5  1  0
  5  6  1  0
  6  7  1  0
  7  8  1  0
  8  9  1  0
  8 10  1  0
  6 11  1  0
 10  2  1  0
 11  2  1  0
  9  4  1  0
  1 12  1  0
  3 13  1  0
  3 14  1  0
  4 15  1  6
  5 16  1  0
  5 17  1  0
  6 18  1  6
  7 19  1  0
  7 20  1  0
  8 21  1  1
  9 22  1  0
  9 23  1  0
 10 24  1  0
 10 25  1  0
 11 26  1  0
 11 27  1  0
M  END
>  <meeko>  (35) 
{"is_sidechain": false}

$$$$

     RDKit          3D

 32 34  0  0  0  0  0  0  0  0999 V2000
   11.1630   -2.1980  -53.0040 C   0  0  0  0  0  0  0  0  0  0  0  0
   10.9580   -2.1880  -54.4180 O   0  0  0  0  0  0  0  0  0  0  0  0
   10.3180   -3.2920  -54.8970 C   0  0  0  0  0  0  0  0  0  0  0  0
    9.2120   -3.6640  -54.5260 O   0  0  0  0  0  0  0  0  0  0  0  0
   11.1660   -4.0000  -55.9520 C   0  0  2  0  0  0  0  0  0  0  0  0
   10.2780   -4.9350  -56.8120 C   0  0  0  0  0  0  0  0  0  0  0  0
   11.1200   -5.6530  -57.8790 C   0  0  1  0  0  0  0  0  0  0  0  0
   11.7830   -4.6050  -58.7880 C   0  0  0  0  0  0  0  0  0  0  0  0
   12.6840   -3.6800  -57.9550 C   0  0  2  0  0  0  0  0  0  0  0  0
   13.7670   -4.5210  -57.2580 C   0  0  0  0  0  0  0  0  0  0  0  0
   13.1140   -5.5720  -56.3420 C   0  0  2  0  0  0  0  0  0  0  0  0
   12.2100   -6.4860  -57.1850 C   0  0  0  0  0  0  0  0  0  0  0  0
   12.2630   -4.8560  -55.2780 C   0  0  0  0  0  0  0  0  0  0  0  0
   11.8330   -2.9670  -56.8900 C   0  0  0  0  0  0  0  0  0  0  0  0
   10.1905   -2.1506  -52.4922 H   0  0  0  0  0  0  0  0  0  0  0  0
   11.6844   -3.1226  -52.7156 H   0  0  0  0  0  0  0  0  0  0  0  0
   11.7719   -1.3285  -52.7156 H   0  0  0  0  0  0  0  0  0  0  0  0
    9.8055   -5.6845  -56.1602 H   0  0  0  0  0  0  0  0  0  0  0  0
    9.5102   -4.3293  -57.3156 H   0  0  0  0  0  0  0  0  0  0  0  0
   10.4768   -6.3119  -58.4808 H   0  0  0  0  0  0  0  0  0  0  0  0
   12.3905   -5.1157  -59.5496 H   0  0  0  0  0  0  0  0  0  0  0  0
   11.0012   -4.0039  -59.2752 H   0  0  0  0  0  0  0  0  0  0  0  0
   13.1575   -2.9348  -58.6111 H   0  0  0  0  0  0  0  0  0  0  0  0
   14.3774   -5.0302  -58.0183 H   0  0  0  0  0  0  0  0  0  0  0  0
   14.4011   -3.8586  -56.6504 H   0  0  0  0  0  0  0  0  0  0  0  0
   13.8930   -6.1734  -55.8507 H   0  0  0  0  0  0  0  0  0  0  0  0
   12.8175   -6.9974  -57.9462 H   0  0  0  0  0  0  0  0  0  0  0  0
   11.7334   -7.2280  -56.5275 H   0  0  0  0  0  0  0  0  0  0  0  0
   11.7891   -5.6062  -54.6279 H   0  0  0  0  0  0  0  0  0  0  0  0
   12.9141   -4.1982  -54.6837 H   0  0  0  0  0  0  0  0  0  0  0  0
   12.4777   -2.3020  -56.2966 H   0  0  0  0  0  0  0  0  0  0  0  0
   11.0482   -2.3830  -57.3929 H   0  0  0  0  0  0  0  0  0  0  0  0
  1  2  1  0
  2  3  1  0
  3  4  2  0
  5  3  1  1
  5  6  1  0
  6  7  1  0
  7  8  1  0
  8  9  1  0
  9 10  1  0
 10 11  1  0
 11 12  1  0
 11 13  1  0
  9 14  1  0
 13  5  1  0
 14  5  1  0
 12  7  1  0
  1 15  1  0
  1 16  1  0
  1 17  1  0
  6 18  1  0
  6 19  1  0
  7 20  1  6
  8 21  1  0
  8 22  1  0
  9 23  1  6
 10 24  1  0
 10 25  1  0
 11 26  1  1
 12 27  1  0
 12 28  1  0
 13 29  1  0
 13 30  1  0
 14 31  1  0
 14 32  1  0
M  END
>  <meeko>  (36) 
{"is_sidechain": false}

$$$$

     RDKit          3D

 44 47  0  0  0  0  0  0  0  0999 V2000
    7.9070   -2.3150  -51.2210 C   0  0  0  0  0  0  0  0  0  0  0  0
    7.7270   -2.6700  -52.5850 O   0  0  0  0  0  0  0  0  0  0  0  0
    7.5600   -1.6480  -53.4770 C   0  0  0  0  0  0  0  0  0  0  0  0
    8.7190   -0.9200  -53.7550 C   0  0  0  0  0  0  0  0  0  0  0  0
    8.6920    0.1520  -54.6500 C   0  0  0  0  0  0  0  0  0  0  0  0
    7.4920    0.5140  -55.2690 C   0  0  0  0  0  0  0  0  0  0  0  0
    7.4990    1.6630  -56.2180 C   0  0  0  0  0  0  0  0  0  0  0  0
    6.4450    2.2240  -56.4940 O   0  0  0  0  0  0  0  0  0  0  0  0
    8.7270    1.9900  -56.7550 N   0  0  0  0  0  0  0  0  0  0  0  0
    8.9370    3.0280  -57.7730 C   0  0  2  0  0  0  0  0  0  0  0  0
    8.8480    4.4550  -57.1740 C   0  0  0  0  0  0  0  0  0  0  0  0
    9.1220    5.5150  -58.2560 C   0  0  1  0  0  0  0  0  0  0  0  0
   10.5350    5.3070  -58.8230 C   0  0  0  0  0  0  0  0  0  0  0  0
   10.6490    3.9050  -59.4420 C   0  0  2  0  0  0  0  0  0  0  0  0
    9.6170    3.7600  -60.5710 C   0  0  0  0  0  0  0  0  0  0  0  0
    8.1980    3.9610  -60.0140 C   0  0  2  0  0  0  0  0  0  0  0  0
    8.0920    5.3610  -59.3870 C   0  0  0  0  0  0  0  0  0  0  0  0
    7.9210    2.8990  -58.9340 C   0  0  0  0  0  0  0  0  0  0  0  0
   10.3640    2.8520  -58.3600 C   0  0  0  0  0  0  0  0  0  0  0  0
    6.3300   -0.2220  -55.0070 C   0  0  0  0  0  0  0  0  0  0  0  0
    6.3650   -1.2980  -54.1090 C   0  0  0  0  0  0  0  0  0  0  0  0
    7.5032   -3.1113  -50.5785 H   0  0  0  0  0  0  0  0  0  0  0  0
    8.9796   -2.1856  -51.0143 H   0  0  0  0  0  0  0  0  0  0  0  0
    7.3775   -1.3732  -51.0143 H   0  0  0  0  0  0  0  0  0  0  0  0
    9.6641   -1.1940  -53.2634 H   0  0  0  0  0  0  0  0  0  0  0  0
    9.6141    0.7109  -54.8676 H   0  0  0  0  0  0  0  0  0  0  0  0
    9.4650    1.3070  -56.6510 H   0  0  0  0  0  0  0  0  0  0  0  0
    7.8404    4.6117  -56.7614 H   0  0  0  0  0  0  0  0  0  0  0  0
    9.6037    4.5544  -56.3809 H   0  0  0  0  0  0  0  0  0  0  0  0
    9.0441    6.5213  -57.8186 H   0  0  0  0  0  0  0  0  0  0  0  0
   10.7329    6.0642  -59.5960 H   0  0  0  0  0  0  0  0  0  0  0  0
   11.2695    5.4048  -58.0100 H   0  0  0  0  0  0  0  0  0  0  0  0
   11.6616    3.7609  -59.8467 H   0  0  0  0  0  0  0  0  0  0  0  0
    9.8151    4.5159  -61.3452 H   0  0  0  0  0  0  0  0  0  0  0  0
    9.6955    2.7524  -61.0053 H   0  0  0  0  0  0  0  0  0  0  0  0
    7.4640    3.8629  -60.8274 H   0  0  0  0  0  0  0  0  0  0  0  0
    8.2838    6.1205  -60.1592 H   0  0  0  0  0  0  0  0  0  0  0  0
    7.0815    5.4936  -58.9730 H   0  0  0  0  0  0  0  0  0  0  0  0
    6.9030    3.0390  -58.5414 H   0  0  0  0  0  0  0  0  0  0  0  0
    8.0200    1.9001  -59.3839 H   0  0  0  0  0  0  0  0  0  0  0  0
   10.4493    1.8489  -58.8032 H   0  0  0  0  0  0  0  0  0  0  0  0
   11.0948    2.9782  -57.5476 H   0  0  0  0  0  0  0  0  0  0  0  0
    5.3872    0.0448  -55.5071 H   0  0  0  0  0  0  0  0  0  0  0  0
    5.4478   -1.8686  -53.9015 H   0  0  0  0  0  0  0  0  0  0  0  0
  1  2  1  0
  2  3  1  0
  3  4  1  0
  4  5  2  0
  5  6  1  0
  6  7  1  0
  7  8  2  0
  7  9  1  0
 10  9  1  1
 10 11  1  0
 11 12  1  0
 12 13  1  0
 13 14  1  0
 14 15  1  0
 15 16  1  0
 16 17  1  0
 16 18  1  0
 14 19  1  0
  6 20  2  0
 20 21  1  0
 21  3  2  0
 18 10  1  0
 19 10  1  0
 17 12  1  0
  1 22  1  0
  1 23  1  0
  1 24  1  0
  4 25  1  0
  5 26  1  0
  9 27  1  0
 11 28  1  0
 11 29  1  0
 12 30  1  1
 13 31  1  0
 13 32  1  0
 14 33  1  6
 15 34  1  0
 15 35  1  0
 16 36  1  6
 17 37  1  0
 17 38  1  0
 18 39  1  0
 18 40  1  0
 19 41  1  0
 19 42  1  0
 20 43  1  0
 21 44  1  0
M  END
>  <meeko>  (37) 
{"is_sidechain": false}

$$$$

     RDKit          3D

 44 46  0  0  0  0  0  0  0  0999 V2000
   10.4500   -1.8670  -53.5460 C   0  0  0  0  0  0  0  0  0  0  0  0
    9.2440   -1.0790  -53.9830 C   0  0  0  0  0  0  0  0  0  0  0  0
    9.3900   -0.0910  -54.9680 C   0  0  0  0  0  0  0  0  0  0  0  0
    8.2730    0.6330  -55.3640 C   0  0  0  0  0  0  0  0  0  0  0  0
    8.4020    1.6900  -56.4200 C   0  0  0  0  0  0  0  0  0  0  0  0
    7.4750    2.4450  -56.6900 O   0  0  0  0  0  0  0  0  0  0  0  0
    9.6410    1.7310  -57.0280 N   0  0  0  0  0  0  0  0  0  0  0  0
   10.0310    2.7880  -57.9410 C   0  0  0  0  0  0  0  0  0  0  0  0
    9.7180    2.3960  -59.3850 C   0  0  0  0  0  0  0  0  0  0  0  0
   10.0220    3.5320  -60.3640 C   0  0  0  0  0  0  0  0  0  0  0  0
   11.1510    4.4540  -59.8990 C   0  0  0  0  0  0  0  0  0  0  0  0
   12.1620    3.7180  -59.0320 C   0  0  0  0  0  0  0  0  0  0  0  0
   11.5190    3.1370  -57.7690 C   0  0  0  0  0  0  0  0  0  0  0  0
    7.0260    0.4430  -54.8520 N   0  0  0  0  0  0  0  0  0  0  0  0
    6.9160   -0.5120  -53.9000 C   0  0  0  0  0  0  0  0  0  0  0  0
    7.9710   -1.2980  -53.4230 C   0  0  0  0  0  0  0  0  0  0  0  0
    7.7200   -2.3000  -52.3830 C   0  0  0  0  0  0  0  0  0  0  0  0
    7.8670   -1.9760  -51.0250 C   0  0  0  0  0  0  0  0  0  0  0  0
    7.6230   -2.9290  -50.0340 C   0  0  0  0  0  0  0  0  0  0  0  0
    7.2260   -4.2160  -50.3870 C   0  0  0  0  0  0  0  0  0  0  0  0
    7.0720   -4.5530  -51.7310 C   0  0  0  0  0  0  0  0  0  0  0  0
    7.3170   -3.6010  -52.7220 C   0  0  0  0  0  0  0  0  0  0  0  0
   10.4917   -1.8943  -52.4471 H   0  0  0  0  0  0  0  0  0  0  0  0
   10.3785   -2.8931  -53.9358 H   0  0  0  0  0  0  0  0  0  0  0  0
   11.3610   -1.3894  -53.9358 H   0  0  0  0  0  0  0  0  0  0  0  0
   10.3733    0.1071  -55.4195 H   0  0  0  0  0  0  0  0  0  0  0  0
   10.3460    1.1270  -56.6120 H   0  0  0  0  0  0  0  0  0  0  0  0
    9.4454    3.6874  -57.7000 H   0  0  0  0  0  0  0  0  0  0  0  0
   10.3269    1.5209  -59.6558 H   0  0  0  0  0  0  0  0  0  0  0  0
    8.6439    2.1679  -59.4508 H   0  0  0  0  0  0  0  0  0  0  0  0
   10.3083    3.0913  -61.3303 H   0  0  0  0  0  0  0  0  0  0  0  0
    9.1127    4.1466  -60.4382 H   0  0  0  0  0  0  0  0  0  0  0  0
   11.6671    4.8581  -60.7824 H   0  0  0  0  0  0  0  0  0  0  0  0
   10.7072    5.2603  -59.2965 H   0  0  0  0  0  0  0  0  0  0  0  0
   12.6006    2.8965  -59.6174 H   0  0  0  0  0  0  0  0  0  0  0  0
   12.9317    4.4395  -58.7205 H   0  0  0  0  0  0  0  0  0  0  0  0
   12.0614    2.2209  -57.4924 H   0  0  0  0  0  0  0  0  0  0  0  0
   11.5811    3.9110  -56.9899 H   0  0  0  0  0  0  0  0  0  0  0  0
    5.9195   -0.6841  -53.4671 H   0  0  0  0  0  0  0  0  0  0  0  0
    8.1777   -0.9604  -50.7385 H   0  0  0  0  0  0  0  0  0  0  0  0
    7.7445   -2.6628  -48.9736 H   0  0  0  0  0  0  0  0  0  0  0  0
    7.0340   -4.9664  -49.6060 H   0  0  0  0  0  0  0  0  0  0  0  0
    6.7574   -5.5693  -52.0105 H   0  0  0  0  0  0  0  0  0  0  0  0
    7.1928   -3.8735  -53.7805 H   0  0  0  0  0  0  0  0  0  0  0  0
  1  2  1  0
  2  3  1  0
  3  4  2  0
  4  5  1  0
  5  6  2  0
  5  7  1  0
  7  8  1  0
  8  9  1  0
  9 10  1  0
 10 11  1  0
 11 12  1  0
 12 13  1  0
  4 14  1  0
 14 15  2  0
 15 16  1  0
 16 17  1  0
 17 18  2  0
 18 19  1  0
 19 20  2  0
 20 21  1  0
 21 22  2  0
 16  2  2  0
 22 17  1  0
 13  8  1  0
  1 23  1  0
  1 24  1  0
  1 25  1  0
  3 26  1  0
  7 27  1  0
  8 28  1  0
  9 29  1  0
  9 30  1  0
 10 31  1  0
 10 32  1  0
 11 33  1  0
 11 34  1  0
 12 35  1  0
 12 36  1  0
 13 37  1  0
 13 38  1  0
 15 39  1  0
 18 40  1  0
 19 41  1  0
 20 42  1  0
 21 43  1  0
 22 44  1  0
M  END
>  <meeko>  (38) 
{"is_sidechain": false}

$$$$

     RDKit          3D

 41 43  0  0  0  0  0  0  0  0999 V2000
    9.7980   -1.2400  -53.9990 C   0  0  0  0  0  0  0  0  0  0  0  0
    8.3910   -0.7600  -54.2310 C   0  0  0  0  0  0  0  0  0  0  0  0
    8.1500    0.2160  -55.2080 C   0  0  0  0  0  0  0  0  0  0  0  0
    6.8480    0.6540  -55.4150 C   0  0  0  0  0  0  0  0  0  0  0  0
    6.5650    1.6910  -56.4600 C   0  0  0  0  0  0  0  0  0  0  0  0
    5.4380    1.8510  -56.9170 O   0  0  0  0  0  0  0  0  0  0  0  0
    7.6670    2.4270  -56.8350 N   0  0  0  0  0  0  0  0  0  0  0  0
    7.5820    3.5840  -57.6890 C   0  0  0  0  0  0  0  0  0  0  0  0
    8.3290    3.3580  -58.9780 C   0  0  0  0  0  0  0  0  0  0  0  0
    9.2520    4.3040  -59.4480 C   0  0  0  0  0  0  0  0  0  0  0  0
    9.9260    4.0950  -60.6520 C   0  0  0  0  0  0  0  0  0  0  0  0
    9.6800    2.9460  -61.4020 C   0  0  0  0  0  0  0  0  0  0  0  0
    8.7560    2.0060  -60.9510 C   0  0  0  0  0  0  0  0  0  0  0  0
    8.0810    2.2120  -59.7470 C   0  0  0  0  0  0  0  0  0  0  0  0
    5.7730    0.1910  -54.7210 N   0  0  0  0  0  0  0  0  0  0  0  0
    6.0360   -0.7470  -53.7800 C   0  0  0  0  0  0  0  0  0  0  0  0
    7.3040   -1.2590  -53.4860 C   0  0  0  0  0  0  0  0  0  0  0  0
    7.4540   -2.2720  -52.4370 C   0  0  0  0  0  0  0  0  0  0  0  0
    7.2120   -3.6270  -52.7100 C   0  0  0  0  0  0  0  0  0  0  0  0
    7.3490   -4.5920  -51.7110 C   0  0  0  0  0  0  0  0  0  0  0  0
    7.7290   -4.2150  -50.4250 C   0  0  0  0  0  0  0  0  0  0  0  0
    7.9740   -2.8730  -50.1370 C   0  0  0  0  0  0  0  0  0  0  0  0
    7.8360   -1.9080  -51.1370 C   0  0  0  0  0  0  0  0  0  0  0  0
    9.9895   -1.3053  -52.9178 H   0  0  0  0  0  0  0  0  0  0  0  0
    9.9266   -2.2328  -54.4548 H   0  0  0  0  0  0  0  0  0  0  0  0
   10.5065   -0.5327  -54.4548 H   0  0  0  0  0  0  0  0  0  0  0  0
    8.9791    0.6287  -55.8016 H   0  0  0  0  0  0  0  0  0  0  0  0
    8.5110    2.2660  -56.2920 H   0  0  0  0  0  0  0  0  0  0  0  0
    6.5250    3.7868  -57.9163 H   0  0  0  0  0  0  0  0  0  0  0  0
    8.0342    4.4399  -57.1666 H   0  0  0  0  0  0  0  0  0  0  0  0
    9.4457    5.2159  -58.8641 H   0  0  0  0  0  0  0  0  0  0  0  0
   10.6531    4.8387  -61.0100 H   0  0  0  0  0  0  0  0  0  0  0  0
   10.2149    2.7817  -62.3490 H   0  0  0  0  0  0  0  0  0  0  0  0
    8.5583    1.1010  -61.5442 H   0  0  0  0  0  0  0  0  0  0  0  0
    7.3484    1.4692  -59.3984 H   0  0  0  0  0  0  0  0  0  0  0  0
    5.1855   -1.1368  -53.2015 H   0  0  0  0  0  0  0  0  0  0  0  0
    6.9109   -3.9321  -53.7230 H   0  0  0  0  0  0  0  0  0  0  0  0
    7.1568   -5.6507  -51.9393 H   0  0  0  0  0  0  0  0  0  0  0  0
    7.8357   -4.9754  -49.6374 H   0  0  0  0  0  0  0  0  0  0  0  0
    8.2759   -2.5744  -49.1223 H   0  0  0  0  0  0  0  0  0  0  0  0
    8.0290   -0.8507  -50.9028 H   0  0  0  0  0  0  0  0  0  0  0  0
  1  2  1  0
  2  3  1  0
  3  4  2  0
  4  5  1  0
  5  6  2  0
  5  7  1  0
  7  8  1  0
  8  9  1  0
  9 10  2  0
 10 11  1  0
 11 12  2  0
 12 13  1  0
 13 14  2  0
  4 15  1  0
 15 16  2  0
 16 17  1  0
 17 18  1  0
 18 19  2  0
 19 20  1  0
 20 21  2  0
 21 22  1  0
 22 23  2  0
 17  2  2  0
 23 18  1  0
 14  9  1  0
  1 24  1  0
  1 25  1  0
  1 26  1  0
  3 27  1  0
  7 28  1  0
  8 29  1  0
  8 30  1  0
 10 31  1  0
 11 32  1  0
 12 33  1  0
 13 34  1  0
 14 35  1  0
 16 36  1  0
 19 37  1  0
 20 38  1  0
 21 39  1  0
 22 40  1  0
 23 41  1  0
M  END
>  <meeko>  (39) 
{"is_sidechain": false}

$$$$

     RDKit          3D

 52 56  0  0  0  0  0  0  0  0999 V2000
    9.9640   -1.4800  -53.7600 C   0  0  0  0  0  0  0  0  0  0  0  0
    8.6190   -0.8900  -54.0830 C   0  0  0  0  0  0  0  0  0  0  0  0
    8.5210    0.0880  -55.0820 C   0  0  0  0  0  0  0  0  0  0  0  0
    7.2740    0.6270  -55.3730 C   0  0  0  0  0  0  0  0  0  0  0  0
    7.1420    1.6730  -56.4410 C   0  0  0  0  0  0  0  0  0  0  0  0
    6.0840    2.2550  -56.6430 O   0  0  0  0  0  0  0  0  0  0  0  0
    8.3070    1.9110  -57.1410 N   0  0  0  0  0  0  0  0  0  0  0  0
    8.4460    3.0050  -58.0850 C   0  0  2  0  0  0  0  0  0  0  0  0
    9.6360    2.7910  -59.0490 C   0  0  1  0  0  0  0  0  0  0  0  0
    9.6040    3.9080  -60.1120 C   0  0  0  0  0  0  0  0  0  0  0  0
    9.7330    5.2860  -59.4370 C   0  0  2  0  0  0  0  0  0  0  0  0
   11.0660    5.3510  -58.6720 C   0  0  0  0  0  0  0  0  0  0  0  0
   11.1120    4.2440  -57.6050 C   0  0  2  0  0  0  0  0  0  0  0  0
   10.9770    2.8760  -58.2930 C   0  0  0  0  0  0  0  0  0  0  0  0
    9.9440    4.4380  -56.6230 C   0  0  0  0  0  0  0  0  0  0  0  0
    8.6000    4.3720  -57.3740 C   0  0  1  0  0  0  0  0  0  0  0  0
    8.5740    5.4820  -58.4440 C   0  0  0  0  0  0  0  0  0  0  0  0
    6.1220    0.2590  -54.7500 N   0  0  0  0  0  0  0  0  0  0  0  0
    6.2470   -0.6910  -53.7930 C   0  0  0  0  0  0  0  0  0  0  0  0
    7.4480   -1.3020  -53.4160 C   0  0  0  0  0  0  0  0  0  0  0  0
    7.4460   -2.3250  -52.3670 C   0  0  0  0  0  0  0  0  0  0  0  0
    7.8130   -2.0040  -51.0510 C   0  0  0  0  0  0  0  0  0  0  0  0
    7.8160   -2.9800  -50.0530 C   0  0  0  0  0  0  0  0  0  0  0  0
    7.4530   -4.2900  -50.3580 C   0  0  0  0  0  0  0  0  0  0  0  0
    7.0880   -4.6270  -51.6600 C   0  0  0  0  0  0  0  0  0  0  0  0
    7.0850   -3.6490  -52.6590 C   0  0  0  0  0  0  0  0  0  0  0  0
   10.0879   -1.5344  -52.6684 H   0  0  0  0  0  0  0  0  0  0  0  0
   10.0331   -2.4911  -54.1877 H   0  0  0  0  0  0  0  0  0  0  0  0
   10.7547   -0.8461  -54.1877 H   0  0  0  0  0  0  0  0  0  0  0  0
    9.4161    0.4232  -55.6264 H   0  0  0  0  0  0  0  0  0  0  0  0
    9.1280    1.4340  -56.7750 H   0  0  0  0  0  0  0  0  0  0  0  0
    7.5147    3.0161  -58.6704 H   0  0  0  0  0  0  0  0  0  0  0  0
    9.5498    1.7957  -59.5094 H   0  0  0  0  0  0  0  0  0  0  0  0
   10.4398    3.7668  -60.8131 H   0  0  0  0  0  0  0  0  0  0  0  0
    8.6480    3.8612  -60.6542 H   0  0  0  0  0  0  0  0  0  0  0  0
    9.7008    6.0748  -60.2030 H   0  0  0  0  0  0  0  0  0  0  0  0
   11.8985    5.2124  -59.3775 H   0  0  0  0  0  0  0  0  0  0  0  0
   11.1541    6.3313  -58.1808 H   0  0  0  0  0  0  0  0  0  0  0  0
   12.0654    4.2920  -57.0584 H   0  0  0  0  0  0  0  0  0  0  0  0
   11.8048    2.7441  -59.0053 H   0  0  0  0  0  0  0  0  0  0  0  0
   11.0095    2.0850  -57.5292 H   0  0  0  0  0  0  0  0  0  0  0  0
    9.9740    3.6447  -55.8616 H   0  0  0  0  0  0  0  0  0  0  0  0
   10.0387    5.4233  -56.1431 H   0  0  0  0  0  0  0  0  0  0  0  0
    7.7803    4.5022  -56.6521 H   0  0  0  0  0  0  0  0  0  0  0  0
    7.6184    5.4413  -58.9874 H   0  0  0  0  0  0  0  0  0  0  0  0
    8.6830    6.4596  -57.9516 H   0  0  0  0  0  0  0  0  0  0  0  0
    5.3320   -1.0073  -53.2707 H   0  0  0  0  0  0  0  0  0  0  0  0
    8.1015   -0.9718  -50.8032 H   0  0  0  0  0  0  0  0  0  0  0  0
    8.1051   -2.7147  -49.0254 H   0  0  0  0  0  0  0  0  0  0  0  0
    7.4545   -5.0585  -49.5709 H   0  0  0  0  0  0  0  0  0  0  0  0
    6.8025   -5.6615  -51.9015 H   0  0  0  0  0  0  0  0  0  0  0  0
    6.7965   -3.9205  -53.6852 H   0  0  0  0  0  0  0  0  0  0  0  0
  1  2  1  0
  2  3  1  0
  3  4  2  0
  4  5  1  0
  5  6  2  0
  5  7  1  0
  7  8  1  0
  8  9  1  0
  9 10  1  0
 10 11  1  0
 11 12  1  0
 12 13  1  0
 13 14  1  0
 13 15  1  0
 15 16  1  0
 16 17  1  0
  4 18  1  0
 18 19  2  0
 19 20  1  0
 20 21  1  0
 21 22  2  0
 22 23  1  0
 23 24  2  0
 24 25  1  0
 25 26  2  0
 20  2  2  0
 26 21  1  0
 16  8  1  0
 14  9  1  0
 17 11  1  0
  1 27  1  0
  1 28  1  0
  1 29  1  0
  3 30  1  0
  7 31  1  0
  8 32  1  1
  9 33  1  1
 10 34  1  0
 10 35  1  0
 11 36  1  1
 12 37  1  0
 12 38  1  0
 13 39  1  6
 14 40  1  0
 14 41  1  0
 15 42  1  0
 15 43  1  0
 16 44  1  6
 17 45  1  0
 17 46  1  0
 19 47  1  0
 22 48  1  0
 23 49  1  0
 24 50  1  0
 25 51  1  0
 26 52  1  0
M  END
>  <meeko>  (40) 
{"is_sidechain": false}

$$$$

     RDKit          3D

 49 53  0  0  0  0  0  0  0  0999 V2000
    6.3690    2.0860  -56.7750 O   0  0  0  0  0  0  0  0  0  0  0  0
    7.4330    1.6310  -56.3720 C   0  0  0  0  0  0  0  0  0  0  0  0
    8.6790    2.0050  -56.8270 N   0  0  0  0  0  0  0  0  0  0  0  0
    8.9530    2.9970  -57.8630 C   0  0  2  0  0  0  0  0  0  0  0  0
   10.3890    2.8530  -58.4250 C   0  0  0  0  0  0  0  0  0  0  0  0
   10.6700    3.9390  -59.4800 C   0  0  1  0  0  0  0  0  0  0  0  0
    9.6510    3.8070  -60.6250 C   0  0  0  0  0  0  0  0  0  0  0  0
    8.2220    3.9830  -60.0860 C   0  0  2  0  0  0  0  0  0  0  0  0
    8.0930    5.3690  -59.4340 C   0  0  0  0  0  0  0  0  0  0  0  0
    9.1030    5.5040  -58.2830 C   0  0  2  0  0  0  0  0  0  0  0  0
   10.5270    5.3250  -58.8330 C   0  0  0  0  0  0  0  0  0  0  0  0
    8.8240    4.4120  -57.2390 C   0  0  0  0  0  0  0  0  0  0  0  0
    7.9410    2.8970  -59.0310 C   0  0  0  0  0  0  0  0  0  0  0  0
    7.4690    0.5810  -55.3010 C   0  0  0  0  0  0  0  0  0  0  0  0
    8.6470    0.3340  -54.6110 C   0  0  0  0  0  0  0  0  0  0  0  0
    8.6390   -0.6510  -53.6240 C   0  0  0  0  0  0  0  0  0  0  0  0
    7.4660   -1.3680  -53.3460 C   0  0  0  0  0  0  0  0  0  0  0  0
    7.4240   -2.4130  -52.3140 C   0  0  0  0  0  0  0  0  0  0  0  0
    6.6530   -3.5750  -52.4900 C   0  0  0  0  0  0  0  0  0  0  0  0
    6.6120   -4.5680  -51.5070 C   0  0  0  0  0  0  0  0  0  0  0  0
    7.3410   -4.4160  -50.3310 C   0  0  0  0  0  0  0  0  0  0  0  0
    8.1120   -3.2730  -50.1370 C   0  0  0  0  0  0  0  0  0  0  0  0
    8.1530   -2.2810  -51.1200 C   0  0  0  0  0  0  0  0  0  0  0  0
    6.3390   -1.0340  -54.1020 C   0  0  0  0  0  0  0  0  0  0  0  0
    6.3020   -0.0850  -55.0710 N   0  0  0  0  0  0  0  0  0  0  0  0
    9.4550    1.5190  -56.3810 H   0  0  0  0  0  0  0  0  0  0  0  0
   11.1112    2.9537  -57.6014 H   0  0  0  0  0  0  0  0  0  0  0  0
   10.4869    1.8650  -58.8986 H   0  0  0  0  0  0  0  0  0  0  0  0
   11.6900    3.8181  -59.8737 H   0  0  0  0  0  0  0  0  0  0  0  0
    9.8520    4.5800  -61.3813 H   0  0  0  0  0  0  0  0  0  0  0  0
    9.7444    2.8079  -61.0756 H   0  0  0  0  0  0  0  0  0  0  0  0
    7.5005    3.8938  -60.9115 H   0  0  0  0  0  0  0  0  0  0  0  0
    8.2925    6.1458  -60.1868 H   0  0  0  0  0  0  0  0  0  0  0  0
    7.0742    5.4879  -59.0365 H   0  0  0  0  0  0  0  0  0  0  0  0
    9.0076    6.4971  -57.8196 H   0  0  0  0  0  0  0  0  0  0  0  0
   10.7267    6.1011  -59.5865 H   0  0  0  0  0  0  0  0  0  0  0  0
   11.2472    5.4136  -58.0063 H   0  0  0  0  0  0  0  0  0  0  0  0
    9.5470    4.5089  -56.4157 H   0  0  0  0  0  0  0  0  0  0  0  0
    7.7963    4.5379  -56.8676 H   0  0  0  0  0  0  0  0  0  0  0  0
    6.9219    3.0292  -58.6387 H   0  0  0  0  0  0  0  0  0  0  0  0
    8.0415    1.9089  -59.5037 H   0  0  0  0  0  0  0  0  0  0  0  0
    9.5628    0.9000  -54.8365 H   0  0  0  0  0  0  0  0  0  0  0  0
    9.5583   -0.8670  -53.0599 H   0  0  0  0  0  0  0  0  0  0  0  0
    6.0729   -3.7050  -53.4155 H   0  0  0  0  0  0  0  0  0  0  0  0
    6.0029   -5.4706  -51.6630 H   0  0  0  0  0  0  0  0  0  0  0  0
    7.3081   -5.1969  -49.5570 H   0  0  0  0  0  0  0  0  0  0  0  0
    8.6895   -3.1509  -49.2088 H   0  0  0  0  0  0  0  0  0  0  0  0
    8.7658   -1.3822  -50.9566 H   0  0  0  0  0  0  0  0  0  0  0  0
    5.4089   -1.5837  -53.8952 H   0  0  0  0  0  0  0  0  0  0  0  0
  1  2  2  0
  2  3  1  0
  4  3  1  1
  4  5  1  0
  5  6  1  0
  6  7  1  0
  7  8  1  0
  8  9  1  0
  9 10  1  0
 10 11  1  0
 10 12  1  0
  8 13  1  0
  2 14  1  0
 14 15  2  0
 15 16  1  0
 16 17  2  0
 17 18  1  0
 18 19  2  0
 19 20  1  0
 20 21  2  0
 21 22  1  0
 22 23  2  0
 17 24  1  0
 24 25  2  0
 12  4  1  0
 25 14  1  0
 13  4  1  0
 23 18  1  0
 11  6  1  0
  3 26  1  0
  5 27  1  0
  5 28  1  0
  6 29  1  6
  7 30  1  0
  7 31  1  0
  8 32  1  6
  9 33  1  0
  9 34  1  0
 10 35  1  1
 11 36  1  0
 11 37  1  0
 12 38  1  0
 12 39  1  0
 13 40  1  0
 13 41  1  0
 15 42  1  0
 16 43  1  0
 19 44  1  0
 20 45  1  0
 21 46  1  0
 22 47  1  0
 23 48  1  0
 24 49  1  0
M  END
>  <meeko>  (41) 
{"is_sidechain": false}

$$$$

     RDKit          3D

 44 46  0  0  0  0  0  0  0  0999 V2000
    8.9520    5.1430  -56.4750 C   0  0  0  0  0  0  0  0  0  0  0  0
    9.4500    4.5020  -57.7440 C   0  0  0  0  0  0  0  0  0  0  0  0
   10.1740    5.2800  -58.6620 C   0  0  0  0  0  0  0  0  0  0  0  0
   10.6500    4.7260  -59.8500 C   0  0  0  0  0  0  0  0  0  0  0  0
   10.4080    3.3880  -60.1370 C   0  0  0  0  0  0  0  0  0  0  0  0
    9.6870    2.6030  -59.2370 C   0  0  0  0  0  0  0  0  0  0  0  0
    9.1990    3.1410  -58.0330 C   0  0  0  0  0  0  0  0  0  0  0  0
    8.4390    2.2740  -57.1210 C   0  0  0  0  0  0  0  0  0  0  0  0
    9.1080    1.5620  -56.1190 C   0  0  0  0  0  0  0  0  0  0  0  0
    8.5170    0.7410  -55.2200 N   0  0  0  0  0  0  0  0  0  0  0  0
    7.1660    0.6230  -55.3220 C   0  0  0  0  0  0  0  0  0  0  0  0
    6.5020   -0.2800  -54.3250 C   0  0  0  0  0  0  0  0  0  0  0  0
    5.8840    0.1670  -53.3660 O   0  0  0  0  0  0  0  0  0  0  0  0
    6.6650   -1.6230  -54.5870 N   0  0  0  0  0  0  0  0  0  0  0  0
    6.2620   -2.6540  -53.6660 C   0  0  0  0  0  0  0  0  0  0  0  0
    7.2860   -2.8340  -52.5760 C   0  0  0  0  0  0  0  0  0  0  0  0
    8.6550   -2.7580  -52.8740 C   0  0  0  0  0  0  0  0  0  0  0  0
    9.6100   -2.9410  -51.8730 C   0  0  0  0  0  0  0  0  0  0  0  0
    9.2060   -3.2090  -50.5660 C   0  0  0  0  0  0  0  0  0  0  0  0
    7.8500   -3.2970  -50.2600 C   0  0  0  0  0  0  0  0  0  0  0  0
    6.8930   -3.1140  -51.2600 C   0  0  0  0  0  0  0  0  0  0  0  0
    6.3990    1.2850  -56.2730 C   0  0  0  0  0  0  0  0  0  0  0  0
    7.0400    2.1260  -57.1930 C   0  0  0  0  0  0  0  0  0  0  0  0
    6.2190    2.8540  -58.2230 C   0  0  0  0  0  0  0  0  0  0  0  0
    9.3668    4.6091  -55.6073 H   0  0  0  0  0  0  0  0  0  0  0  0
    9.2720    6.1950  -56.4455 H   0  0  0  0  0  0  0  0  0  0  0  0
    7.8535    5.0930  -56.4455 H   0  0  0  0  0  0  0  0  0  0  0  0
   10.3681    6.3400  -58.4412 H   0  0  0  0  0  0  0  0  0  0  0  0
   11.2164    5.3475  -60.5592 H   0  0  0  0  0  0  0  0  0  0  0  0
   10.7844    2.9485  -61.0725 H   0  0  0  0  0  0  0  0  0  0  0  0
    9.4971    1.5456  -59.4731 H   0  0  0  0  0  0  0  0  0  0  0  0
   10.2000    1.6789  -56.0573 H   0  0  0  0  0  0  0  0  0  0  0  0
    7.2970   -1.8500  -55.3490 H   0  0  0  0  0  0  0  0  0  0  0  0
    5.2993   -2.3753  -53.2127 H   0  0  0  0  0  0  0  0  0  0  0  0
    6.1680   -3.6005  -54.2185 H   0  0  0  0  0  0  0  0  0  0  0  0
    8.9782   -2.5525  -53.9052 H   0  0  0  0  0  0  0  0  0  0  0  0
   10.6809   -2.8738  -52.1152 H   0  0  0  0  0  0  0  0  0  0  0  0
    9.9583   -3.3510  -49.7761 H   0  0  0  0  0  0  0  0  0  0  0  0
    7.5326   -3.5110  -49.2288 H   0  0  0  0  0  0  0  0  0  0  0  0
    5.8237   -3.1901  -51.0135 H   0  0  0  0  0  0  0  0  0  0  0  0
    5.3076    1.1513  -56.3033 H   0  0  0  0  0  0  0  0  0  0  0  0
    5.4879    3.5023  -57.7178 H   0  0  0  0  0  0  0  0  0  0  0  0
    6.8804    3.4679  -58.8520 H   0  0  0  0  0  0  0  0  0  0  0  0
    5.6886    2.1239  -58.8520 H   0  0  0  0  0  0  0  0  0  0  0  0
  1  2  1  0
  2  3  2  0
  3  4  1  0
  4  5  2  0
  5  6  1  0
  6  7  2  0
  7  8  1  0
  8  9  1  0
  9 10  2  0
 10 11  1  0
 11 12  1  0
 12 13  2  0
 12 14  1  0
 14 15  1  0
 15 16  1  0
 16 17  2  0
 17 18  1  0
 18 19  2  0
 19 20  1  0
 20 21  2  0
 11 22  2  0
 22 23  1  0
 23 24  1  0
  7  2  1  0
 23  8  2  0
 21 16  1  0
  1 25  1  0
  1 26  1  0
  1 27  1  0
  3 28  1  0
  4 29  1  0
  5 30  1  0
  6 31  1  0
  9 32  1  0
 14 33  1  0
 15 34  1  0
 15 35  1  0
 17 36  1  0
 18 37  1  0
 19 38  1  0
 20 39  1  0
 21 40  1  0
 22 41  1  0
 24 42  1  0
 24 43  1  0
 24 44  1  0
M  END
>  <meeko>  (42) 
{"is_sidechain": false}

$$$$

     RDKit          3D

 47 49  0  0  0  0  0  0  0  0999 V2000
   10.5500   -1.9560  -53.5190 C   0  0  0  0  0  0  0  0  0  0  0  0
    9.3600   -1.1530  -53.9720 C   0  0  0  0  0  0  0  0  0  0  0  0
    9.5330   -0.1560  -54.9410 C   0  0  0  0  0  0  0  0  0  0  0  0
    8.4290    0.5820  -55.3500 C   0  0  0  0  0  0  0  0  0  0  0  0
    8.5880    1.6500  -56.3910 C   0  0  0  0  0  0  0  0  0  0  0  0
    7.6580    2.3810  -56.7080 O   0  0  0  0  0  0  0  0  0  0  0  0
    9.8570    1.7280  -56.9290 N   0  0  0  0  0  0  0  0  0  0  0  0
   10.2780    2.8020  -57.8200 C   0  0  0  0  0  0  0  0  0  0  0  0
   11.7750    3.0700  -57.6130 C   0  0  0  0  0  0  0  0  0  0  0  0
   12.4580    4.0300  -58.5830 C   0  0  0  0  0  0  0  0  0  0  0  0
   11.6590    5.2810  -58.9310 C   0  0  0  0  0  0  0  0  0  0  0  0
   10.3610    4.9560  -59.6860 C   0  0  0  0  0  0  0  0  0  0  0  0
   10.2780    3.5460  -60.2600 C   0  0  0  0  0  0  0  0  0  0  0  0
    9.8950    2.4520  -59.2630 C   0  0  0  0  0  0  0  0  0  0  0  0
    7.1700    0.3950  -54.8670 N   0  0  0  0  0  0  0  0  0  0  0  0
    7.0340   -0.5700  -53.9280 C   0  0  0  0  0  0  0  0  0  0  0  0
    8.0730   -1.3700  -53.4400 C   0  0  0  0  0  0  0  0  0  0  0  0
    7.7940   -2.3820  -52.4170 C   0  0  0  0  0  0  0  0  0  0  0  0
    8.0330   -2.1160  -51.0610 C   0  0  0  0  0  0  0  0  0  0  0  0
    7.7720   -3.0820  -50.0880 C   0  0  0  0  0  0  0  0  0  0  0  0
    7.2700   -4.3280  -50.4580 C   0  0  0  0  0  0  0  0  0  0  0  0
    7.0280   -4.6090  -51.8010 C   0  0  0  0  0  0  0  0  0  0  0  0
    7.2890   -3.6420  -52.7750 C   0  0  0  0  0  0  0  0  0  0  0  0
   10.5812   -1.9770  -52.4196 H   0  0  0  0  0  0  0  0  0  0  0  0
   10.4668   -2.9834  -53.9032 H   0  0  0  0  0  0  0  0  0  0  0  0
   11.4716   -1.4944  -53.9032 H   0  0  0  0  0  0  0  0  0  0  0  0
   10.5265    0.0393  -55.3709 H   0  0  0  0  0  0  0  0  0  0  0  0
   10.5520    1.1370  -56.4800 H   0  0  0  0  0  0  0  0  0  0  0  0
    9.7580    3.7431  -57.5880 H   0  0  0  0  0  0  0  0  0  0  0  0
   11.8996    3.4805  -56.6001 H   0  0  0  0  0  0  0  0  0  0  0  0
   12.2613    2.0992  -57.7893 H   0  0  0  0  0  0  0  0  0  0  0  0
   13.4096    4.3487  -58.1325 H   0  0  0  0  0  0  0  0  0  0  0  0
   12.5808    3.4752  -59.5249 H   0  0  0  0  0  0  0  0  0  0  0  0
   11.4035    5.8074  -57.9995 H   0  0  0  0  0  0  0  0  0  0  0  0
   12.2822    5.9047  -59.5887 H   0  0  0  0  0  0  0  0  0  0  0  0
    9.5200    5.0897  -58.9897 H   0  0  0  0  0  0  0  0  0  0  0  0
   10.3312    5.6382  -60.5484 H   0  0  0  0  0  0  0  0  0  0  0  0
    9.5267    3.5507  -61.0635 H   0  0  0  0  0  0  0  0  0  0  0  0
   11.2932    3.2994  -60.6043 H   0  0  0  0  0  0  0  0  0  0  0  0
    8.8068    2.2987  -59.3104 H   0  0  0  0  0  0  0  0  0  0  0  0
   10.4479    1.5426  -59.5409 H   0  0  0  0  0  0  0  0  0  0  0  0
    6.0280   -0.7386  -53.5162 H   0  0  0  0  0  0  0  0  0  0  0  0
    8.4305   -1.1352  -50.7609 H   0  0  0  0  0  0  0  0  0  0  0  0
    7.9628   -2.8594  -49.0278 H   0  0  0  0  0  0  0  0  0  0  0  0
    7.0650   -5.0890  -49.6906 H   0  0  0  0  0  0  0  0  0  0  0  0
    6.6315   -5.5922  -52.0944 H   0  0  0  0  0  0  0  0  0  0  0  0
    7.0967   -3.8704  -53.8337 H   0  0  0  0  0  0  0  0  0  0  0  0
  1  2  1  0
  2  3  1  0
  3  4  2  0
  4  5  1  0
  5  6  2  0
  5  7  1  0
  7  8  1  0
  8  9  1  0
  9 10  1  0
 10 11  1  0
 11 12  1  0
 12 13  1  0
 13 14  1  0
  4 15  1  0
 15 16  2  0
 16 17  1  0
 17 18  1  0
 18 19  2  0
 19 20  1  0
 20 21  2  0
 21 22  1  0
 22 23  2  0
 17  2  2  0
 23 18  1  0
 14  8  1  0
  1 24  1  0
  1 25  1  0
  1 26  1  0
  3 27  1  0
  7 28  1  0
  8 29  1  0
  9 30  1  0
  9 31  1  0
 10 32  1  0
 10 33  1  0
 11 34  1  0
 11 35  1  0
 12 36  1  0
 12 37  1  0
 13 38  1  0
 13 39  1  0
 14 40  1  0
 14 41  1  0
 16 42  1  0
 19 43  1  0
 20 44  1  0
 21 45  1  0
 22 46  1  0
 23 47  1  0
M  END
>  <meeko>  (43) 
{"is_sidechain": false}

$$$$

     RDKit          3D

 40 41  0  0  0  0  0  0  0  0999 V2000
   10.5120   -1.9750  -53.4390 C   0  0  0  0  0  0  0  0  0  0  0  0
    9.3230   -1.1640  -53.8770 C   0  0  0  0  0  0  0  0  0  0  0  0
    9.4880   -0.1770  -54.8580 C   0  0  0  0  0  0  0  0  0  0  0  0
    8.3850    0.5650  -55.2570 C   0  0  0  0  0  0  0  0  0  0  0  0
    8.5360    1.6310  -56.3040 C   0  0  0  0  0  0  0  0  0  0  0  0
    7.5580    2.1170  -56.8580 O   0  0  0  0  0  0  0  0  0  0  0  0
    9.8450    1.9820  -56.5570 N   0  0  0  0  0  0  0  0  0  0  0  0
   10.2980    2.9880  -57.5210 C   0  0  0  0  0  0  0  0  0  0  0  0
    9.7630    4.3800  -57.1490 C   0  0  0  0  0  0  0  0  0  0  0  0
   11.8360    3.0290  -57.4820 C   0  0  0  0  0  0  0  0  0  0  0  0
    9.8560    2.6170  -58.9450 C   0  0  0  0  0  0  0  0  0  0  0  0
    7.1320    0.3940  -54.7520 N   0  0  0  0  0  0  0  0  0  0  0  0
    7.0010   -0.5690  -53.8110 C   0  0  0  0  0  0  0  0  0  0  0  0
    8.0400   -1.3760  -53.3350 C   0  0  0  0  0  0  0  0  0  0  0  0
    7.7650   -2.3910  -52.3130 C   0  0  0  0  0  0  0  0  0  0  0  0
    7.2730   -3.6550  -52.6720 C   0  0  0  0  0  0  0  0  0  0  0  0
    7.0050   -4.6190  -51.6970 C   0  0  0  0  0  0  0  0  0  0  0  0
    7.2240   -4.3300  -50.3520 C   0  0  0  0  0  0  0  0  0  0  0  0
    7.7090   -3.0790  -49.9800 C   0  0  0  0  0  0  0  0  0  0  0  0
    7.9770   -2.1150  -50.9530 C   0  0  0  0  0  0  0  0  0  0  0  0
   10.5523   -2.0025  -52.3401 H   0  0  0  0  0  0  0  0  0  0  0  0
   10.4204   -2.9997  -53.8283 H   0  0  0  0  0  0  0  0  0  0  0  0
   11.4326   -1.5158  -53.8283 H   0  0  0  0  0  0  0  0  0  0  0  0
   10.4762    0.0068  -55.3048 H   0  0  0  0  0  0  0  0  0  0  0  0
   10.5320    1.4740  -56.0020 H   0  0  0  0  0  0  0  0  0  0  0  0
    9.7254    4.4778  -56.0540 H   0  0  0  0  0  0  0  0  0  0  0  0
   10.4287    5.1514  -57.5634 H   0  0  0  0  0  0  0  0  0  0  0  0
    8.7520    4.5070  -57.5634 H   0  0  0  0  0  0  0  0  0  0  0  0
   12.1761    3.0381  -56.4359 H   0  0  0  0  0  0  0  0  0  0  0  0
   12.2395    2.1413  -57.9911 H   0  0  0  0  0  0  0  0  0  0  0  0
   12.1916    3.9369  -57.9911 H   0  0  0  0  0  0  0  0  0  0  0  0
    9.0143    1.9105  -58.8953 H   0  0  0  0  0  0  0  0  0  0  0  0
    9.5412    3.5254  -59.4796 H   0  0  0  0  0  0  0  0  0  0  0  0
   10.6960    2.1495  -59.4796 H   0  0  0  0  0  0  0  0  0  0  0  0
    5.9990   -0.7302  -53.3868 H   0  0  0  0  0  0  0  0  0  0  0  0
    7.0965   -3.8894  -53.7321 H   0  0  0  0  0  0  0  0  0  0  0  0
    6.6208   -5.6068  -51.9915 H   0  0  0  0  0  0  0  0  0  0  0  0
    7.0139   -5.0895  -49.5845 H   0  0  0  0  0  0  0  0  0  0  0  0
    7.8812   -2.8502  -48.9179 H   0  0  0  0  0  0  0  0  0  0  0  0
    8.3584   -1.1284  -50.6510 H   0  0  0  0  0  0  0  0  0  0  0  0
  1  2  1  0
  2  3  1  0
  3  4  2  0
  4  5  1  0
  5  6  2  0
  5  7  1  0
  7  8  1  0
  8  9  1  0
  8 10  1  0
  8 11  1  0
  4 12  1  0
 12 13  2  0
 13 14  1  0
 14 15  1  0
 15 16  2  0
 16 17  1  0
 17 18  2  0
 18 19  1  0
 19 20  2  0
 14  2  2  0
 20 15  1  0
  1 21  1  0
  1 22  1  0
  1 23  1  0
  3 24  1  0
  7 25  1  0
  9 26  1  0
  9 27  1  0
  9 28  1  0
 10 29  1  0
 10 30  1  0
 10 31  1  0
 11 32  1  0
 11 33  1  0
 11 34  1  0
 13 35  1  0
 16 36  1  0
 17 37  1  0
 18 38  1  0
 19 39  1  0
 20 40  1  0
M  END
>  <meeko>  (44) 
{"is_sidechain": false}

$$$$

     RDKit          3D

 35 37  0  0  0  0  0  0  0  0999 V2000
    8.7330    4.8280  -57.2440 C   0  0  0  0  0  0  0  0  0  0  0  0
    8.3550    4.0600  -58.4810 C   0  0  0  0  0  0  0  0  0  0  0  0
    7.0530    3.5550  -58.6040 C   0  0  0  0  0  0  0  0  0  0  0  0
    6.7120    2.8480  -59.7520 C   0  0  0  0  0  0  0  0  0  0  0  0
    5.3270    2.2970  -59.9060 C   0  0  0  0  0  0  0  0  0  0  0  0
    4.5440    2.2570  -58.9640 O   0  0  0  0  0  0  0  0  0  0  0  0
    5.0440    1.8520  -61.1830 N   0  0  0  0  0  0  0  0  0  0  0  0
    3.7880    1.3030  -61.5620 C   0  0  0  0  0  0  0  0  0  0  0  0
    2.9010    2.0320  -62.5320 C   0  0  0  0  0  0  0  0  0  0  0  0
    3.5750    0.7570  -62.9480 C   0  0  0  0  0  0  0  0  0  0  0  0
    7.5710    2.6110  -60.7800 N   0  0  0  0  0  0  0  0  0  0  0  0
    8.8200    3.1150  -60.6350 C   0  0  0  0  0  0  0  0  0  0  0  0
    9.2720    3.8400  -59.5280 C   0  0  0  0  0  0  0  0  0  0  0  0
   10.6510    4.3370  -59.4960 C   0  0  0  0  0  0  0  0  0  0  0  0
   10.9500    5.6520  -59.8840 C   0  0  0  0  0  0  0  0  0  0  0  0
   12.2640    6.1210  -59.8590 C   0  0  0  0  0  0  0  0  0  0  0  0
   13.2970    5.2820  -59.4470 C   0  0  0  0  0  0  0  0  0  0  0  0
   13.0180    3.9730  -59.0600 C   0  0  0  0  0  0  0  0  0  0  0  0
   11.7030    3.5030  -59.0850 C   0  0  0  0  0  0  0  0  0  0  0  0
    8.4485    4.2500  -56.3524 H   0  0  0  0  0  0  0  0  0  0  0  0
    9.8193    5.0012  -57.2375 H   0  0  0  0  0  0  0  0  0  0  0  0
    8.2076    5.7944  -57.2375 H   0  0  0  0  0  0  0  0  0  0  0  0
    6.3134    3.7153  -57.8057 H   0  0  0  0  0  0  0  0  0  0  0  0
    5.7960    1.9430  -61.8630 H   0  0  0  0  0  0  0  0  0  0  0  0
    3.6693    0.9048  -60.5435 H   0  0  0  0  0  0  0  0  0  0  0  0
    1.8127    2.0520  -62.3735 H   0  0  0  0  0  0  0  0  0  0  0  0
    2.8623    3.0564  -62.9308 H   0  0  0  0  0  0  0  0  0  0  0  0
    2.9807   -0.1571  -63.0937 H   0  0  0  0  0  0  0  0  0  0  0  0
    4.2344    0.4604  -63.7770 H   0  0  0  0  0  0  0  0  0  0  0  0
    9.5350    2.9402  -61.4525 H   0  0  0  0  0  0  0  0  0  0  0  0
   10.1399    6.3202  -60.2114 H   0  0  0  0  0  0  0  0  0  0  0  0
   12.4844    7.1543  -60.1650 H   0  0  0  0  0  0  0  0  0  0  0  0
   14.3324    5.6528  -59.4272 H   0  0  0  0  0  0  0  0  0  0  0  0
   13.8332    3.3098  -58.7349 H   0  0  0  0  0  0  0  0  0  0  0  0
   11.4892    2.4682  -58.7794 H   0  0  0  0  0  0  0  0  0  0  0  0
  1  2  1  0
  2  3  1  0
  3  4  2  0
  4  5  1  0
  5  6  2  0
  5  7  1  0
  7  8  1  0
  8  9  1  0
  9 10  1  0
  4 11  1  0
 11 12  2  0
 12 13  1  0
 13 14  1  0
 14 15  2  0
 15 16  1  0
 16 17  2  0
 17 18  1  0
 18 19  2  0
 13  2  2  0
 19 14  1  0
 10  8  1  0
  1 20  1  0
  1 21  1  0
  1 22  1  0
  3 23  1  0
  7 24  1  0
  8 25  1  0
  9 26  1  0
  9 27  1  0
 10 28  1  0
 10 29  1  0
 12 30  1  0
 15 31  1  0
 16 32  1  0
 17 33  1  0
 18 34  1  0
 19 35  1  0
M  END
>  <meeko>  (45) 
{"is_sidechain": false}

$$$$

     RDKit          3D

 52 56  0  0  0  0  0  0  0  0999 V2000
   10.1020   -1.5760  -53.5960 C   0  0  0  0  0  0  0  0  0  0  0  0
    8.7830   -0.9600  -53.9750 C   0  0  0  0  0  0  0  0  0  0  0  0
    8.7460    0.0260  -54.9700 C   0  0  0  0  0  0  0  0  0  0  0  0
    7.5230    0.5880  -55.3140 C   0  0  0  0  0  0  0  0  0  0  0  0
    7.4570    1.6480  -56.3740 C   0  0  0  0  0  0  0  0  0  0  0  0
    6.3990    2.1970  -56.6570 O   0  0  0  0  0  0  0  0  0  0  0  0
    8.6730    1.9190  -56.9650 N   0  0  0  0  0  0  0  0  0  0  0  0
    8.9150    2.8990  -58.0220 C   0  0  2  0  0  0  0  0  0  0  0  0
   10.3410    2.7600  -58.6110 C   0  0  0  0  0  0  0  0  0  0  0  0
   10.5880    3.8330  -59.6870 C   0  0  1  0  0  0  0  0  0  0  0  0
    9.5470    3.6750  -60.8090 C   0  0  0  0  0  0  0  0  0  0  0  0
    8.1270    3.8460  -60.2410 C   0  0  2  0  0  0  0  0  0  0  0  0
    7.9990    5.2390  -59.6070 C   0  0  0  0  0  0  0  0  0  0  0  0
    9.0310    5.4000  -58.4800 C   0  0  2  0  0  0  0  0  0  0  0  0
   10.4460    5.2270  -59.0570 C   0  0  0  0  0  0  0  0  0  0  0  0
    8.7850    4.3210  -57.4140 C   0  0  0  0  0  0  0  0  0  0  0  0
    7.8800    2.7730  -59.1660 C   0  0  0  0  0  0  0  0  0  0  0  0
    6.3390    0.2370  -54.7420 N   0  0  0  0  0  0  0  0  0  0  0  0
    6.4040   -0.7210  -53.7880 C   0  0  0  0  0  0  0  0  0  0  0  0
    7.5760   -1.3550  -53.3630 C   0  0  0  0  0  0  0  0  0  0  0  0
    7.5110   -2.3850  -52.3220 C   0  0  0  0  0  0  0  0  0  0  0  0
    7.8230   -2.0780  -50.9890 C   0  0  0  0  0  0  0  0  0  0  0  0
    7.7660   -3.0610  -49.9970 C   0  0  0  0  0  0  0  0  0  0  0  0
    7.3990   -4.3630  -50.3290 C   0  0  0  0  0  0  0  0  0  0  0  0
    7.0870   -4.6840  -51.6480 C   0  0  0  0  0  0  0  0  0  0  0  0
    7.1440   -3.7020  -52.6390 C   0  0  0  0  0  0  0  0  0  0  0  0
   10.1868   -1.6156  -52.5000 H   0  0  0  0  0  0  0  0  0  0  0  0
   10.1618   -2.5952  -54.0054 H   0  0  0  0  0  0  0  0  0  0  0  0
   10.9219   -0.9677  -54.0054 H   0  0  0  0  0  0  0  0  0  0  0  0
    9.6704    0.3498  -55.4706 H   0  0  0  0  0  0  0  0  0  0  0  0
    9.4490    1.3680  -56.6060 H   0  0  0  0  0  0  0  0  0  0  0  0
   11.0790    2.8801  -57.8042 H   0  0  0  0  0  0  0  0  0  0  0  0
   10.4400    1.7658  -59.0713 H   0  0  0  0  0  0  0  0  0  0  0  0
   11.6005    3.7157  -60.1007 H   0  0  0  0  0  0  0  0  0  0  0  0
    9.7247    4.4388  -61.5803 H   0  0  0  0  0  0  0  0  0  0  0  0
    9.6406    2.6708  -61.2480 H   0  0  0  0  0  0  0  0  0  0  0  0
    7.3882    3.7387  -61.0489 H   0  0  0  0  0  0  0  0  0  0  0  0
    8.1755    6.0065  -60.3750 H   0  0  0  0  0  0  0  0  0  0  0  0
    6.9877    5.3545  -59.1899 H   0  0  0  0  0  0  0  0  0  0  0  0
    8.9350    6.3988  -58.0293 H   0  0  0  0  0  0  0  0  0  0  0  0
   10.6227    5.9940  -59.8254 H   0  0  0  0  0  0  0  0  0  0  0  0
   11.1826    5.3347  -58.2471 H   0  0  0  0  0  0  0  0  0  0  0  0
    9.5244    4.4366  -56.6078 H   0  0  0  0  0  0  0  0  0  0  0  0
    7.7647    4.4424  -57.0213 H   0  0  0  0  0  0  0  0  0  0  0  0
    6.8682    2.9006  -58.7537 H   0  0  0  0  0  0  0  0  0  0  0  0
    7.9806    1.7794  -59.6272 H   0  0  0  0  0  0  0  0  0  0  0  0
    5.4612   -1.0247  -53.3095 H   0  0  0  0  0  0  0  0  0  0  0  0
    8.1158   -1.0520  -50.7216 H   0  0  0  0  0  0  0  0  0  0  0  0
    8.0107   -2.8067  -48.9552 H   0  0  0  0  0  0  0  0  0  0  0  0
    7.3556   -5.1378  -49.5494 H   0  0  0  0  0  0  0  0  0  0  0  0
    6.7954   -5.7120  -51.9092 H   0  0  0  0  0  0  0  0  0  0  0  0
    6.8987   -3.9633  -53.6790 H   0  0  0  0  0  0  0  0  0  0  0  0
  1  2  1  0
  2  3  1  0
  3  4  2  0
  4  5  1  0
  5  6  2  0
  5  7  1  0
  8  7  1  1
  8  9  1  0
  9 10  1  0
 10 11  1  0
 11 12  1  0
 12 13  1  0
 13 14  1  0
 14 15  1  0
 14 16  1  0
 12 17  1  0
  4 18  1  0
 18 19  2  0
 19 20  1  0
 20 21  1  0
 21 22  2  0
 22 23  1  0
 23 24  2  0
 24 25  1  0
 25 26  2  0
 20  2  2  0
 26 21  1  0
 16  8  1  0
 17  8  1  0
 15 10  1  0
  1 27  1  0
  1 28  1  0
  1 29  1  0
  3 30  1  0
  7 31  1  0
  9 32  1  0
  9 33  1  0
 10 34  1  6
 11 35  1  0
 11 36  1  0
 12 37  1  6
 13 38  1  0
 13 39  1  0
 14 40  1  1
 15 41  1  0
 15 42  1  0
 16 43  1  0
 16 44  1  0
 17 45  1  0
 17 46  1  0
 19 47  1  0
 22 48  1  0
 23 49  1  0
 24 50  1  0
 25 51  1  0
 26 52  1  0
M  END
>  <meeko>  (46) 
{"is_sidechain": false}

$$$$

     RDKit          3D

 49 53  0  0  0  0  0  0  0  0999 V2000
    6.4440    2.1520  -56.6670 O   0  0  0  0  0  0  0  0  0  0  0  0
    7.5100    1.6260  -56.3740 C   0  0  0  0  0  0  0  0  0  0  0  0
    8.7270    1.9220  -56.9500 N   0  0  0  0  0  0  0  0  0  0  0  0
    8.9600    2.9100  -58.0010 C   0  0  2  0  0  0  0  0  0  0  0  0
   10.3780    2.7730  -58.6100 C   0  0  0  0  0  0  0  0  0  0  0  0
   10.6140    3.8540  -59.6800 C   0  0  1  0  0  0  0  0  0  0  0  0
    9.5600    3.7060  -60.7890 C   0  0  0  0  0  0  0  0  0  0  0  0
    8.1470    3.8770  -60.2030 C   0  0  2  0  0  0  0  0  0  0  0  0
    8.0310    5.2660  -59.5570 C   0  0  0  0  0  0  0  0  0  0  0  0
    9.0770    5.4150  -58.4410 C   0  0  2  0  0  0  0  0  0  0  0  0
   10.4830    5.2430  -59.0360 C   0  0  0  0  0  0  0  0  0  0  0  0
    8.8410    4.3280  -57.3810 C   0  0  0  0  0  0  0  0  0  0  0  0
    7.9100    2.7960  -59.1340 C   0  0  0  0  0  0  0  0  0  0  0  0
    7.5800    0.5650  -55.3170 C   0  0  0  0  0  0  0  0  0  0  0  0
    8.8080    0.0620  -54.9250 C   0  0  0  0  0  0  0  0  0  0  0  0
    8.8210   -0.9220  -53.9400 C   0  0  0  0  0  0  0  0  0  0  0  0
   10.3630   -1.5310  -53.4440 Cl  0  0  0  0  0  0  0  0  0  0  0  0
    7.6270   -1.3870  -53.3680 C   0  0  0  0  0  0  0  0  0  0  0  0
    7.5610   -2.4220  -52.3300 C   0  0  0  0  0  0  0  0  0  0  0  0
    7.1950   -3.7390  -52.6540 C   0  0  0  0  0  0  0  0  0  0  0  0
    7.1440   -4.7280  -51.6690 C   0  0  0  0  0  0  0  0  0  0  0  0
    7.4610   -4.4170  -50.3500 C   0  0  0  0  0  0  0  0  0  0  0  0
    7.8260   -3.1160  -50.0120 C   0  0  0  0  0  0  0  0  0  0  0  0
    7.8770   -2.1250  -50.9950 C   0  0  0  0  0  0  0  0  0  0  0  0
    6.4520   -0.8050  -53.8430 C   0  0  0  0  0  0  0  0  0  0  0  0
    6.3910    0.1540  -54.7970 N   0  0  0  0  0  0  0  0  0  0  0  0
    9.5120    1.3880  -56.5840 H   0  0  0  0  0  0  0  0  0  0  0  0
   11.1267    2.8846  -57.8119 H   0  0  0  0  0  0  0  0  0  0  0  0
   10.4682    1.7826  -59.0801 H   0  0  0  0  0  0  0  0  0  0  0  0
   11.6209    3.7393  -60.1079 H   0  0  0  0  0  0  0  0  0  0  0  0
    9.7304    4.4743  -61.5576 H   0  0  0  0  0  0  0  0  0  0  0  0
    9.6456    2.7042  -61.2352 H   0  0  0  0  0  0  0  0  0  0  0  0
    7.3978    3.7785  -61.0024 H   0  0  0  0  0  0  0  0  0  0  0  0
    8.2010    6.0387  -60.3213 H   0  0  0  0  0  0  0  0  0  0  0  0
    7.0251    5.3817  -59.1272 H   0  0  0  0  0  0  0  0  0  0  0  0
    8.9891    6.4103  -57.9809 H   0  0  0  0  0  0  0  0  0  0  0  0
   10.6526    6.0162  -59.7998 H   0  0  0  0  0  0  0  0  0  0  0  0
   11.2294    5.3413  -58.2339 H   0  0  0  0  0  0  0  0  0  0  0  0
    9.5902    4.4355  -56.5828 H   0  0  0  0  0  0  0  0  0  0  0  0
    7.8255    4.4488  -56.9758 H   0  0  0  0  0  0  0  0  0  0  0  0
    6.9037    2.9230  -58.7084 H   0  0  0  0  0  0  0  0  0  0  0  0
    8.0021    1.8059  -59.6044 H   0  0  0  0  0  0  0  0  0  0  0  0
    9.7423    0.4272  -55.3763 H   0  0  0  0  0  0  0  0  0  0  0  0
    6.9459   -3.9941  -53.6946 H   0  0  0  0  0  0  0  0  0  0  0  0
    6.8528   -5.7545  -51.9363 H   0  0  0  0  0  0  0  0  0  0  0  0
    7.4234   -5.1974  -49.5757 H   0  0  0  0  0  0  0  0  0  0  0  0
    8.0745   -2.8686  -48.9694 H   0  0  0  0  0  0  0  0  0  0  0  0
    8.1680   -1.1005  -50.7199 H   0  0  0  0  0  0  0  0  0  0  0  0
    5.5022   -1.1515  -53.4095 H   0  0  0  0  0  0  0  0  0  0  0  0
  1  2  2  0
  2  3  1  0
  4  3  1  1
  4  5  1  0
  5  6  1  0
  6  7  1  0
  7  8  1  0
  8  9  1  0
  9 10  1  0
 10 11  1  0
 10 12  1  0
  8 13  1  0
  2 14  1  0
 14 15  2  0
 15 16  1  0
 16 17  1  0
 16 18  2  0
 18 19  1  0
 19 20  2  0
 20 21  1  0
 21 22  2  0
 22 23  1  0
 23 24  2  0
 18 25  1  0
 25 26  2  0
 12  4  1  0
 26 14  1  0
 13  4  1  0
 24 19  1  0
 11  6  1  0
  3 27  1  0
  5 28  1  0
  5 29  1  0
  6 30  1  6
  7 31  1  0
  7 32  1  0
  8 33  1  6
  9 34  1  0
  9 35  1  0
 10 36  1  1
 11 37  1  0
 11 38  1  0
 12 39  1  0
 12 40  1  0
 13 41  1  0
 13 42  1  0
 15 43  1  0
 20 44  1  0
 21 45  1  0
 22 46  1  0
 23 47  1  0
 24 48  1  0
 25 49  1  0
M  END
>  <meeko>  (47) 
{"is_sidechain": false}

$$$$

     RDKit          3D

 49 53  0  0  0  0  0  0  0  0999 V2000
    6.4080    2.1460  -56.7070 O   0  0  0  0  0  0  0  0  0  0  0  0
    7.4740    1.6340  -56.3870 C   0  0  0  0  0  0  0  0  0  0  0  0
    8.7000    1.9440  -56.9360 N   0  0  0  0  0  0  0  0  0  0  0  0
    8.9460    2.9320  -57.9850 C   0  0  2  0  0  0  0  0  0  0  0  0
   10.3730    2.7980  -58.5700 C   0  0  0  0  0  0  0  0  0  0  0  0
   10.6240    3.8770  -59.6380 C   0  0  1  0  0  0  0  0  0  0  0  0
    9.5880    3.7240  -60.7650 C   0  0  0  0  0  0  0  0  0  0  0  0
    8.1660    3.8900  -60.2020 C   0  0  2  0  0  0  0  0  0  0  0  0
    8.0330    5.2800  -59.5610 C   0  0  0  0  0  0  0  0  0  0  0  0
    9.0600    5.4350  -58.4290 C   0  0  2  0  0  0  0  0  0  0  0  0
   10.4770    5.2670  -59.0000 C   0  0  0  0  0  0  0  0  0  0  0  0
    8.8110    4.3500  -57.3700 C   0  0  0  0  0  0  0  0  0  0  0  0
    7.9140    2.8100  -59.1340 C   0  0  0  0  0  0  0  0  0  0  0  0
    7.5330    0.5810  -55.3230 C   0  0  0  0  0  0  0  0  0  0  0  0
    8.7420    0.2540  -54.7440 C   0  0  0  0  0  0  0  0  0  0  0  0
    8.7320   -0.7290  -53.7640 C   0  0  0  0  0  0  0  0  0  0  0  0
    9.9020   -1.0490  -53.1880 F   0  0  0  0  0  0  0  0  0  0  0  0
    7.5540   -1.3730  -53.3670 C   0  0  0  0  0  0  0  0  0  0  0  0
    7.5240   -2.4160  -52.3300 C   0  0  0  0  0  0  0  0  0  0  0  0
    7.1610   -3.7380  -52.6410 C   0  0  0  0  0  0  0  0  0  0  0  0
    7.1430   -4.7340  -51.6590 C   0  0  0  0  0  0  0  0  0  0  0  0
    7.4880   -4.4240  -50.3470 C   0  0  0  0  0  0  0  0  0  0  0  0
    7.8470   -3.1220  -50.0150 C   0  0  0  0  0  0  0  0  0  0  0  0
    7.8640   -2.1280  -50.9980 C   0  0  0  0  0  0  0  0  0  0  0  0
    6.3970   -0.9590  -54.0270 C   0  0  0  0  0  0  0  0  0  0  0  0
    6.3480   -0.0050  -54.9880 N   0  0  0  0  0  0  0  0  0  0  0  0
    9.4840    1.4240  -56.5470 H   0  0  0  0  0  0  0  0  0  0  0  0
   11.1081    2.9133  -57.7599 H   0  0  0  0  0  0  0  0  0  0  0  0
   10.4734    1.8070  -59.0367 H   0  0  0  0  0  0  0  0  0  0  0  0
   11.6384    3.7638  -60.0480 H   0  0  0  0  0  0  0  0  0  0  0  0
    9.7679    4.4924  -61.5313 H   0  0  0  0  0  0  0  0  0  0  0  0
    9.6846    2.7224  -61.2093 H   0  0  0  0  0  0  0  0  0  0  0  0
    7.4312    3.7861  -61.0140 H   0  0  0  0  0  0  0  0  0  0  0  0
    8.2120    6.0520  -60.3239 H   0  0  0  0  0  0  0  0  0  0  0  0
    7.0197    5.3926  -59.1482 H   0  0  0  0  0  0  0  0  0  0  0  0
    8.9606    6.4312  -57.9734 H   0  0  0  0  0  0  0  0  0  0  0  0
   10.6564    6.0390  -59.7628 H   0  0  0  0  0  0  0  0  0  0  0  0
   11.2094    5.3704  -58.1858 H   0  0  0  0  0  0  0  0  0  0  0  0
    9.5466    4.4624  -56.5599 H   0  0  0  0  0  0  0  0  0  0  0  0
    7.7888    4.4677  -56.9811 H   0  0  0  0  0  0  0  0  0  0  0  0
    6.9005    2.9348  -58.7251 H   0  0  0  0  0  0  0  0  0  0  0  0
    8.0156    1.8186  -59.5997 H   0  0  0  0  0  0  0  0  0  0  0  0
    9.6752    0.7517  -55.0465 H   0  0  0  0  0  0  0  0  0  0  0  0
    6.8862   -3.9938  -53.6750 H   0  0  0  0  0  0  0  0  0  0  0  0
    6.8561   -5.7624  -51.9239 H   0  0  0  0  0  0  0  0  0  0  0  0
    7.4768   -5.2069  -49.5743 H   0  0  0  0  0  0  0  0  0  0  0  0
    8.1178   -2.8741  -48.9781 H   0  0  0  0  0  0  0  0  0  0  0  0
    8.1488   -1.1017  -50.7232 H   0  0  0  0  0  0  0  0  0  0  0  0
    5.4510   -1.4446  -53.7455 H   0  0  0  0  0  0  0  0  0  0  0  0
  1  2  2  0
  2  3  1  0
  4  3  1  1
  4  5  1  0
  5  6  1  0
  6  7  1  0
  7  8  1  0
  8  9  1  0
  9 10  1  0
 10 11  1  0
 10 12  1  0
  8 13  1  0
  2 14  1  0
 14 15  2  0
 15 16  1  0
 16 17  1  0
 16 18  2  0
 18 19  1  0
 19 20  2  0
 20 21  1  0
 21 22  2  0
 22 23  1  0
 23 24  2  0
 18 25  1  0
 25 26  2  0
 12  4  1  0
 26 14  1  0
 13  4  1  0
 24 19  1  0
 11  6  1  0
  3 27  1  0
  5 28  1  0
  5 29  1  0
  6 30  1  6
  7 31  1  0
  7 32  1  0
  8 33  1  6
  9 34  1  0
  9 35  1  0
 10 36  1  1
 11 37  1  0
 11 38  1  0
 12 39  1  0
 12 40  1  0
 13 41  1  0
 13 42  1  0
 15 43  1  0
 20 44  1  0
 21 45  1  0
 22 46  1  0
 23 47  1  0
 24 48  1  0
 25 49  1  0
M  END
>  <meeko>  (48) 
{"is_sidechain": false}

$$$$

     RDKit          3D

 50 54  0  0  0  0  0  0  0  0999 V2000
    6.4060    2.2570  -56.6470 O   0  0  0  0  0  0  0  0  0  0  0  0
    7.4430    1.6510  -56.4070 C   0  0  0  0  0  0  0  0  0  0  0  0
    8.6560    1.8950  -57.0180 N   0  0  0  0  0  0  0  0  0  0  0  0
    8.8860    2.9510  -58.0110 C   0  0  2  0  0  0  0  0  0  0  0  0
    8.8220    4.3600  -57.3700 C   0  0  0  0  0  0  0  0  0  0  0  0
    9.1220    5.4440  -58.4200 C   0  0  1  0  0  0  0  0  0  0  0  0
   10.5310    5.2230  -58.9930 C   0  0  0  0  0  0  0  0  0  0  0  0
   10.6170    3.8390  -59.6550 C   0  0  2  0  0  0  0  0  0  0  0  0
    9.5850    3.7520  -60.7900 C   0  0  0  0  0  0  0  0  0  0  0  0
    8.1710    3.9640  -60.2280 C   0  0  2  0  0  0  0  0  0  0  0  0
    8.0910    5.3470  -59.5590 C   0  0  0  0  0  0  0  0  0  0  0  0
    7.8700    2.8770  -59.1800 C   0  0  0  0  0  0  0  0  0  0  0  0
   10.3060    2.7580  -58.6080 C   0  0  0  0  0  0  0  0  0  0  0  0
    7.4420    0.5930  -55.3610 C   0  0  0  0  0  0  0  0  0  0  0  0
    6.2550    0.1040  -54.8060 C   0  0  0  0  0  0  0  0  0  0  0  0
    6.3020   -0.8870  -53.8210 C   0  0  0  0  0  0  0  0  0  0  0  0
    7.5290   -1.4030  -53.3630 C   0  0  0  0  0  0  0  0  0  0  0  0
    7.5190   -2.4400  -52.3220 C   0  0  0  0  0  0  0  0  0  0  0  0
    7.1580   -3.7600  -52.6320 C   0  0  0  0  0  0  0  0  0  0  0  0
    7.1350   -4.7460  -51.6410 C   0  0  0  0  0  0  0  0  0  0  0  0
    7.4690   -4.4220  -50.3280 C   0  0  0  0  0  0  0  0  0  0  0  0
    7.8280   -3.1140  -50.0040 C   0  0  0  0  0  0  0  0  0  0  0  0
    7.8510   -2.1300  -50.9950 C   0  0  0  0  0  0  0  0  0  0  0  0
    8.7150   -0.8880  -53.9230 C   0  0  0  0  0  0  0  0  0  0  0  0
   10.2740   -1.4600  -53.4380 Cl  0  0  0  0  0  0  0  0  0  0  0  0
    8.6710    0.1050  -54.9070 C   0  0  0  0  0  0  0  0  0  0  0  0
    9.4790    1.5110  -56.5730 H   0  0  0  0  0  0  0  0  0  0  0  0
    7.8157    4.5245  -56.9572 H   0  0  0  0  0  0  0  0  0  0  0  0
    9.5747    4.4215  -56.5702 H   0  0  0  0  0  0  0  0  0  0  0  0
    9.0653    6.4374  -57.9509 H   0  0  0  0  0  0  0  0  0  0  0  0
   10.7456    5.9993  -59.7422 H   0  0  0  0  0  0  0  0  0  0  0  0
   11.2661    5.2795  -58.1767 H   0  0  0  0  0  0  0  0  0  0  0  0
   11.6279    3.6861  -60.0609 H   0  0  0  0  0  0  0  0  0  0  0  0
    9.8001    4.5284  -61.5389 H   0  0  0  0  0  0  0  0  0  0  0  0
    9.6437    2.7581  -61.2576 H   0  0  0  0  0  0  0  0  0  0  0  0
    7.4374    3.9041  -61.0454 H   0  0  0  0  0  0  0  0  0  0  0  0
    8.3009    6.1257  -60.3070 H   0  0  0  0  0  0  0  0  0  0  0  0
    7.0820    5.4886  -59.1444 H   0  0  0  0  0  0  0  0  0  0  0  0
    6.8538    3.0260  -58.7860 H   0  0  0  0  0  0  0  0  0  0  0  0
    7.9511    1.8900  -59.6589 H   0  0  0  0  0  0  0  0  0  0  0  0
   10.3638    1.7685  -59.0850 H   0  0  0  0  0  0  0  0  0  0  0  0
   11.0414    2.8380  -57.7939 H   0  0  0  0  0  0  0  0  0  0  0  0
    5.2855    0.4987  -55.1441 H   0  0  0  0  0  0  0  0  0  0  0  0
    5.3627   -1.2706  -53.3960 H   0  0  0  0  0  0  0  0  0  0  0  0
    6.8901   -4.0220  -53.6662 H   0  0  0  0  0  0  0  0  0  0  0  0
    6.8531   -5.7777  -51.8982 H   0  0  0  0  0  0  0  0  0  0  0  0
    7.4496   -5.1970  -49.5476 H   0  0  0  0  0  0  0  0  0  0  0  0
    8.0931   -2.8572  -48.9678 H   0  0  0  0  0  0  0  0  0  0  0  0
    8.1328   -1.0998  -50.7317 H   0  0  0  0  0  0  0  0  0  0  0  0
    9.6070    0.5036  -55.3253 H   0  0  0  0  0  0  0  0  0  0  0  0
  1  2  2  0
  2  3  1  0
  4  3  1  1
  4  5  1  0
  5  6  1  0
  6  7  1  0
  7  8  1  0
  8  9  1  0
  9 10  1  0
 10 11  1  0
 10 12  1  0
  8 13  1  0
  2 14  1  0
 14 15  1  0
 15 16  2  0
 16 17  1  0
 17 18  1  0
 18 19  2  0
 19 20  1  0
 20 21  2  0
 21 22  1  0
 22 23  2  0
 17 24  2  0
 24 25  1  0
 24 26  1  0
 12  4  1  0
 26 14  2  0
 13  4  1  0
 23 18  1  0
 11  6  1  0
  3 27  1  0
  5 28  1  0
  5 29  1  0
  6 30  1  1
  7 31  1  0
  7 32  1  0
  8 33  1  6
  9 34  1  0
  9 35  1  0
 10 36  1  6
 11 37  1  0
 11 38  1  0
 12 39  1  0
 12 40  1  0
 13 41  1  0
 13 42  1  0
 15 43  1  0
 16 44  1  0
 19 45  1  0
 20 46  1  0
 21 47  1  0
 22 48  1  0
 23 49  1  0
 26 50  1  0
M  END
>  <meeko>  (49) 
{"is_sidechain": false}

$$$$

     RDKit          3D

 49 53  0  0  0  0  0  0  0  0999 V2000
    6.4990    2.2720  -56.6140 O   0  0  0  0  0  0  0  0  0  0  0  0
    7.5510    1.6990  -56.3600 C   0  0  0  0  0  0  0  0  0  0  0  0
    8.7670    1.9790  -56.9460 N   0  0  0  0  0  0  0  0  0  0  0  0
    9.0160    2.9960  -57.9670 C   0  0  2  0  0  0  0  0  0  0  0  0
    8.9130    4.3960  -57.3040 C   0  0  0  0  0  0  0  0  0  0  0  0
    9.1660    5.5110  -58.3310 C   0  0  1  0  0  0  0  0  0  0  0  0
   10.5730    5.3390  -58.9260 C   0  0  0  0  0  0  0  0  0  0  0  0
   10.6880    3.9670  -59.6110 C   0  0  2  0  0  0  0  0  0  0  0  0
    9.6360    3.8680  -60.7280 C   0  0  0  0  0  0  0  0  0  0  0  0
    8.2240    4.0370  -60.1420 C   0  0  2  0  0  0  0  0  0  0  0  0
    8.1220    5.4080  -59.4540 C   0  0  0  0  0  0  0  0  0  0  0  0
    7.9680    2.9290  -59.1060 C   0  0  0  0  0  0  0  0  0  0  0  0
   10.4330    2.8590  -58.5740 C   0  0  0  0  0  0  0  0  0  0  0  0
    7.6070    0.5950  -55.3460 C   0  0  0  0  0  0  0  0  0  0  0  0
    8.7860    0.3450  -54.6590 C   0  0  0  0  0  0  0  0  0  0  0  0
    8.7970   -0.6910  -53.7250 C   0  0  0  0  0  0  0  0  0  0  0  0
    7.6410   -1.4510  -53.4950 C   0  0  0  0  0  0  0  0  0  0  0  0
    7.6200   -2.5500  -52.5180 C   0  0  0  0  0  0  0  0  0  0  0  0
    6.7040   -3.6110  -52.6440 C   0  0  0  0  0  0  0  0  0  0  0  0
    6.6840   -4.6570  -51.7180 C   0  0  0  0  0  0  0  0  0  0  0  0
    7.5790   -4.6500  -50.6570 C   0  0  0  0  0  0  0  0  0  0  0  0
    7.5590   -5.6520  -49.7690 F   0  0  0  0  0  0  0  0  0  0  0  0
    8.4940   -3.6170  -50.5050 C   0  0  0  0  0  0  0  0  0  0  0  0
    8.5150   -2.5710  -51.4320 C   0  0  0  0  0  0  0  0  0  0  0  0
    6.5120   -1.1080  -54.2420 C   0  0  0  0  0  0  0  0  0  0  0  0
    6.4580   -0.1120  -55.1610 N   0  0  0  0  0  0  0  0  0  0  0  0
    9.5380    1.4010  -56.6180 H   0  0  0  0  0  0  0  0  0  0  0  0
    7.9059    4.5198  -56.8792 H   0  0  0  0  0  0  0  0  0  0  0  0
    9.6754    4.4670  -56.5142 H   0  0  0  0  0  0  0  0  0  0  0  0
    9.0886    6.4936  -57.8426 H   0  0  0  0  0  0  0  0  0  0  0  0
   10.7556    6.1324  -59.6658 H   0  0  0  0  0  0  0  0  0  0  0  0
   11.3177    5.4042  -58.1190 H   0  0  0  0  0  0  0  0  0  0  0  0
   11.6946    3.8497  -60.0387 H   0  0  0  0  0  0  0  0  0  0  0  0
    9.8186    4.6587  -61.4706 H   0  0  0  0  0  0  0  0  0  0  0  0
    9.7111    2.8802  -61.2062 H   0  0  0  0  0  0  0  0  0  0  0  0
    7.4780    3.9699  -60.9476 H   0  0  0  0  0  0  0  0  0  0  0  0
    8.3034    6.2014  -60.1940 H   0  0  0  0  0  0  0  0  0  0  0  0
    7.1161    5.5223  -59.0237 H   0  0  0  0  0  0  0  0  0  0  0  0
    6.9621    3.0577  -58.6799 H   0  0  0  0  0  0  0  0  0  0  0  0
    8.0475    1.9517  -59.6045 H   0  0  0  0  0  0  0  0  0  0  0  0
   10.5232    1.8781  -59.0636 H   0  0  0  0  0  0  0  0  0  0  0  0
   11.1747    2.9514  -57.7670 H   0  0  0  0  0  0  0  0  0  0  0  0
    9.6874    0.9472  -54.8457 H   0  0  0  0  0  0  0  0  0  0  0  0
    9.7177   -0.9132  -53.1656 H   0  0  0  0  0  0  0  0  0  0  0  0
    5.9935   -3.6168  -53.4837 H   0  0  0  0  0  0  0  0  0  0  0  0
    5.9636   -5.4808  -51.8290 H   0  0  0  0  0  0  0  0  0  0  0  0
    9.1983   -3.6216  -49.6601 H   0  0  0  0  0  0  0  0  0  0  0  0
    9.2408   -1.7533  -51.3111 H   0  0  0  0  0  0  0  0  0  0  0  0
    5.5950   -1.6911  -54.0718 H   0  0  0  0  0  0  0  0  0  0  0  0
  1  2  2  0
  2  3  1  0
  4  3  1  1
  4  5  1  0
  5  6  1  0
  6  7  1  0
  7  8  1  0
  8  9  1  0
  9 10  1  0
 10 11  1  0
 10 12  1  0
  8 13  1  0
  2 14  1  0
 14 15  2  0
 15 16  1  0
 16 17  2  0
 17 18  1  0
 18 19  1  0
 19 20  2  0
 20 21  1  0
 21 22  1  0
 21 23  2  0
 23 24  1  0
 17 25  1  0
 25 26  2  0
 12  4  1  0
 26 14  1  0
 13  4  1  0
 24 18  2  0
 11  6  1  0
  3 27  1  0
  5 28  1  0
  5 29  1  0
  6 30  1  1
  7 31  1  0
  7 32  1  0
  8 33  1  6
  9 34  1  0
  9 35  1  0
 10 36  1  6
 11 37  1  0
 11 38  1  0
 12 39  1  0
 12 40  1  0
 13 41  1  0
 13 42  1  0
 15 43  1  0
 16 44  1  0
 19 45  1  0
 20 46  1  0
 23 47  1  0
 24 48  1  0
 25 49  1  0
M  END
>  <meeko>  (50) 
{"is_sidechain": false}

$$$$

     RDKit          3D

 39 42  0  0  0  0  0  0  0  0999 V2000
    5.9790    2.3050  -58.8240 O   0  0  0  0  0  0  0  0  0  0  0  0
    6.1810    2.3970  -60.0290 C   0  0  0  0  0  0  0  0  0  0  0  0
    7.3210    2.9180  -60.6040 N   0  0  0  0  0  0  0  0  0  0  0  0
    8.4810    3.4450  -59.8890 C   0  0  2  0  0  0  0  0  0  0  0  0
    9.5920    3.7700  -60.9220 C   0  0  0  0  0  0  0  0  0  0  0  0
   10.8420    4.3320  -60.2280 C   0  0  1  0  0  0  0  0  0  0  0  0
   10.4670    5.6170  -59.4750 C   0  0  0  0  0  0  0  0  0  0  0  0
    9.3840    5.3130  -58.4270 C   0  0  2  0  0  0  0  0  0  0  0  0
    9.9190    4.2670  -57.4330 C   0  0  0  0  0  0  0  0  0  0  0  0
   10.2970    2.9760  -58.1790 C   0  0  2  0  0  0  0  0  0  0  0  0
   11.3730    3.2930  -59.2280 C   0  0  0  0  0  0  0  0  0  0  0  0
    9.0490    2.4130  -58.8840 C   0  0  0  0  0  0  0  0  0  0  0  0
    8.1370    4.7520  -59.1320 C   0  0  0  0  0  0  0  0  0  0  0  0
    5.1590    1.9320  -61.0250 C   0  0  0  0  0  0  0  0  0  0  0  0
    4.0640    1.1910  -60.6000 C   0  0  0  0  0  0  0  0  0  0  0  0
    3.1400    0.7800  -61.5550 C   0  0  0  0  0  0  0  0  0  0  0  0
    3.3420    1.1200  -62.8890 C   0  0  0  0  0  0  0  0  0  0  0  0
    4.4660    1.8630  -63.2220 C   0  0  0  0  0  0  0  0  0  0  0  0
    5.3840    2.2820  -62.3250 N   0  0  0  0  0  0  0  0  0  0  0  0
    7.3180    2.9160  -61.6220 H   0  0  0  0  0  0  0  0  0  0  0  0
    9.8627    2.8499  -61.4606 H   0  0  0  0  0  0  0  0  0  0  0  0
    9.2092    4.5277  -61.6216 H   0  0  0  0  0  0  0  0  0  0  0  0
   11.6161    4.5551  -60.9770 H   0  0  0  0  0  0  0  0  0  0  0  0
   11.3590    6.0182  -58.9717 H   0  0  0  0  0  0  0  0  0  0  0  0
   10.0798    6.3564  -60.1915 H   0  0  0  0  0  0  0  0  0  0  0  0
    9.1209    6.2355  -57.8887 H   0  0  0  0  0  0  0  0  0  0  0  0
   10.8088    4.6683  -56.9259 H   0  0  0  0  0  0  0  0  0  0  0  0
    9.1376    4.0402  -56.6927 H   0  0  0  0  0  0  0  0  0  0  0  0
   10.6844    2.2349  -57.4644 H   0  0  0  0  0  0  0  0  0  0  0  0
   12.2651    3.6943  -58.7250 H   0  0  0  0  0  0  0  0  0  0  0  0
   11.6327    2.3711  -59.7689 H   0  0  0  0  0  0  0  0  0  0  0  0
    9.3220    1.4944  -59.4240 H   0  0  0  0  0  0  0  0  0  0  0  0
    8.2814    2.1944  -58.1270 H   0  0  0  0  0  0  0  0  0  0  0  0
    7.3611    4.5415  -58.3812 H   0  0  0  0  0  0  0  0  0  0  0  0
    7.7737    5.4963  -59.8559 H   0  0  0  0  0  0  0  0  0  0  0  0
    3.9312    0.9363  -59.5382 H   0  0  0  0  0  0  0  0  0  0  0  0
    2.2587    0.1922  -61.2587 H   0  0  0  0  0  0  0  0  0  0  0  0
    2.6262    0.8066  -63.6632 H   0  0  0  0  0  0  0  0  0  0  0  0
    4.6179    2.1260  -64.2792 H   0  0  0  0  0  0  0  0  0  0  0  0
  1  2  2  0
  2  3  1  0
  4  3  1  6
  4  5  1  0
  5  6  1  0
  6  7  1  0
  7  8  1  0
  8  9  1  0
  9 10  1  0
 10 11  1  0
 10 12  1  0
  8 13  1  0
  2 14  1  0
 14 15  2  0
 15 16  1  0
 16 17  2  0
 17 18  1  0
 18 19  2  0
 12  4  1  0
 19 14  1  0
 13  4  1  0
 11  6  1  0
  3 20  1  0
  5 21  1  0
  5 22  1  0
  6 23  1  6
  7 24  1  0
  7 25  1  0
  8 26  1  1
  9 27  1  0
  9 28  1  0
 10 29  1  1
 11 30  1  0
 11 31  1  0
 12 32  1  0
 12 33  1  0
 13 34  1  0
 13 35  1  0
 15 36  1  0
 16 37  1  0
 17 38  1  0
 18 39  1  0
M  END
>  <meeko>  (51) 
{"is_sidechain": false}

$$$$

     RDKit          3D

 43 47  0  0  0  0  0  0  0  0999 V2000
    6.4270    2.1330  -56.4800 O   0  0  0  0  0  0  0  0  0  0  0  0
    7.4910    1.5840  -56.2290 C   0  0  0  0  0  0  0  0  0  0  0  0
    8.7070    1.9330  -56.7830 N   0  0  0  0  0  0  0  0  0  0  0  0
    8.8850    2.9840  -57.7910 C   0  0  2  0  0  0  0  0  0  0  0  0
   10.3460    2.9140  -58.3150 C   0  0  0  0  0  0  0  0  0  0  0  0
   10.6020    3.9880  -59.3840 C   0  0  1  0  0  0  0  0  0  0  0  0
    9.6330    3.7710  -60.5580 C   0  0  0  0  0  0  0  0  0  0  0  0
    8.1810    3.8660  -60.0650 C   0  0  2  0  0  0  0  0  0  0  0  0
    7.9470    5.2540  -59.4440 C   0  0  0  0  0  0  0  0  0  0  0  0
    8.9110    5.4800  -58.2680 C   0  0  2  0  0  0  0  0  0  0  0  0
   10.3590    5.3750  -58.7730 C   0  0  0  0  0  0  0  0  0  0  0  0
    8.6660    4.3990  -57.1980 C   0  0  0  0  0  0  0  0  0  0  0  0
    7.9340    2.7850  -58.9960 C   0  0  0  0  0  0  0  0  0  0  0  0
    7.5160    0.4260  -55.2920 C   0  0  0  0  0  0  0  0  0  0  0  0
    6.3490   -0.3200  -55.0120 C   0  0  0  0  0  0  0  0  0  0  0  0
    6.3970   -1.4070  -54.1310 C   0  0  0  0  0  0  0  0  0  0  0  0
    7.6140   -1.7190  -53.5640 C   0  0  0  0  0  0  0  0  0  0  0  0
    8.7540   -1.0020  -53.8470 C   0  0  0  0  0  0  0  0  0  0  0  0
    8.7420    0.0720  -54.7110 C   0  0  0  0  0  0  0  0  0  0  0  0
    9.8430   -1.4810  -53.1890 O   0  0  0  0  0  0  0  0  0  0  0  0
    9.2620   -2.5850  -52.4650 C   0  0  0  0  0  0  0  0  0  0  0  0
    7.8450   -2.7370  -52.6930 O   0  0  0  0  0  0  0  0  0  0  0  0
    9.4580    1.2620  -56.6950 H   0  0  0  0  0  0  0  0  0  0  0  0
   11.0373    3.0720  -57.4741 H   0  0  0  0  0  0  0  0  0  0  0  0
   10.5080    1.9246  -58.7677 H   0  0  0  0  0  0  0  0  0  0  0  0
   11.6396    3.9189  -59.7427 H   0  0  0  0  0  0  0  0  0  0  0  0
    9.8092    4.5416  -61.3230 H   0  0  0  0  0  0  0  0  0  0  0  0
    9.8040    2.7729  -60.9877 H   0  0  0  0  0  0  0  0  0  0  0  0
    7.4929    3.7153  -60.9099 H   0  0  0  0  0  0  0  0  0  0  0  0
    8.1182    6.0270  -60.2076 H   0  0  0  0  0  0  0  0  0  0  0  0
    6.9122    5.3120  -59.0755 H   0  0  0  0  0  0  0  0  0  0  0  0
    8.7415    6.4766  -57.8344 H   0  0  0  0  0  0  0  0  0  0  0  0
   10.5350    6.1459  -59.5376 H   0  0  0  0  0  0  0  0  0  0  0  0
   11.0479    5.5235  -57.9284 H   0  0  0  0  0  0  0  0  0  0  0  0
    9.3646    4.5527  -56.3624 H   0  0  0  0  0  0  0  0  0  0  0  0
    7.6271    4.4785  -56.8454 H   0  0  0  0  0  0  0  0  0  0  0  0
    6.8922    2.8508  -58.6492 H   0  0  0  0  0  0  0  0  0  0  0  0
    8.1253    1.7968  -59.4397 H   0  0  0  0  0  0  0  0  0  0  0  0
    5.3969   -0.0449  -55.4892 H   0  0  0  0  0  0  0  0  0  0  0  0
    5.4947   -1.9919  -53.8993 H   0  0  0  0  0  0  0  0  0  0  0  0
    9.6618    0.6316  -54.9367 H   0  0  0  0  0  0  0  0  0  0  0  0
    9.7668   -3.5111  -52.7772 H   0  0  0  0  0  0  0  0  0  0  0  0
    9.3984   -2.3785  -51.3932 H   0  0  0  0  0  0  0  0  0  0  0  0
  1  2  2  0
  2  3  1  0
  4  3  1  1
  4  5  1  0
  5  6  1  0
  6  7  1  0
  7  8  1  0
  8  9  1  0
  9 10  1  0
 10 11  1  0
 10 12  1  0
  8 13  1  0
  2 14  1  0
 14 15  1  0
 15 16  2  0
 16 17  1  0
 17 18  2  0
 18 19  1  0
 18 20  1  0
 20 21  1  0
 21 22  1  0
 12  4  1  0
 19 14  2  0
 13  4  1  0
 22 17  1  0
 11  6  1  0
  3 23  1  0
  5 24  1  0
  5 25  1  0
  6 26  1  6
  7 27  1  0
  7 28  1  0
  8 29  1  6
  9 30  1  0
  9 31  1  0
 10 32  1  1
 11 33  1  0
 11 34  1  0
 12 35  1  0
 12 36  1  0
 13 37  1  0
 13 38  1  0
 15 39  1  0
 16 40  1  0
 19 41  1  0
 21 42  1  0
 21 43  1  0
M  END
>  <meeko>  (52) 
{"is_sidechain": false}

$$$$

     RDKit          3D

 42 45  0  0  0  0  0  0  0  0999 V2000
    7.6820   -2.9580  -50.0560 C   0  0  0  0  0  0  0  0  0  0  0  0
    8.0050   -2.2510  -51.3370 C   0  0  0  0  0  0  0  0  0  0  0  0
    7.1980   -1.2090  -51.8030 C   0  0  0  0  0  0  0  0  0  0  0  0
    7.5120   -0.6040  -53.0110 C   0  0  0  0  0  0  0  0  0  0  0  0
    8.5580   -0.9630  -53.7850 N   0  0  0  0  0  0  0  0  0  0  0  0
    9.3240   -1.9920  -53.3190 C   0  0  0  0  0  0  0  0  0  0  0  0
   10.4820   -2.3980  -54.1840 C   0  0  0  0  0  0  0  0  0  0  0  0
   11.5640   -1.8300  -54.1030 O   0  0  0  0  0  0  0  0  0  0  0  0
   10.1950   -3.4380  -55.0420 N   0  0  0  0  0  0  0  0  0  0  0  0
   11.1200   -4.0450  -55.9980 C   0  0  2  0  0  0  0  0  0  0  0  0
   11.7590   -2.9820  -56.9250 C   0  0  0  0  0  0  0  0  0  0  0  0
   12.6910   -3.6490  -57.9510 C   0  0  1  0  0  0  0  0  0  0  0  0
   13.7970   -4.4160  -57.2070 C   0  0  0  0  0  0  0  0  0  0  0  0
   13.1770   -5.4990  -56.3090 C   0  0  2  0  0  0  0  0  0  0  0  0
   12.3620   -6.4730  -57.1760 C   0  0  0  0  0  0  0  0  0  0  0  0
   11.2510   -5.7130  -57.9150 C   0  0  2  0  0  0  0  0  0  0  0  0
   11.8800   -4.6330  -58.8090 C   0  0  0  0  0  0  0  0  0  0  0  0
   10.3290   -5.0410  -56.8860 C   0  0  0  0  0  0  0  0  0  0  0  0
   12.2450   -4.8330  -55.2810 C   0  0  0  0  0  0  0  0  0  0  0  0
    9.0860   -2.6580  -52.1220 C   0  0  0  0  0  0  0  0  0  0  0  0
    7.9714   -2.3245  -49.2045 H   0  0  0  0  0  0  0  0  0  0  0  0
    6.6018   -3.1610  -50.0115 H   0  0  0  0  0  0  0  0  0  0  0  0
    8.2357   -3.9075  -50.0115 H   0  0  0  0  0  0  0  0  0  0  0  0
    6.3271   -0.8739  -51.2205 H   0  0  0  0  0  0  0  0  0  0  0  0
    6.8697    0.2182  -53.3594 H   0  0  0  0  0  0  0  0  0  0  0  0
    9.2420   -3.7910  -54.9740 H   0  0  0  0  0  0  0  0  0  0  0  0
   10.9629   -2.4412  -57.4576 H   0  0  0  0  0  0  0  0  0  0  0  0
   12.3480   -2.2843  -56.3116 H   0  0  0  0  0  0  0  0  0  0  0  0
   13.1423   -2.8809  -58.5962 H   0  0  0  0  0  0  0  0  0  0  0  0
   14.4666   -4.8904  -57.9395 H   0  0  0  0  0  0  0  0  0  0  0  0
   14.3651   -3.7117  -56.5815 H   0  0  0  0  0  0  0  0  0  0  0  0
   13.9744   -6.0475  -55.7863 H   0  0  0  0  0  0  0  0  0  0  0  0
   13.0270   -6.9513  -57.9102 H   0  0  0  0  0  0  0  0  0  0  0  0
   11.9081   -7.2389  -56.5300 H   0  0  0  0  0  0  0  0  0  0  0  0
   10.6720   -6.4144  -58.5337 H   0  0  0  0  0  0  0  0  0  0  0  0
   12.5453   -5.1100  -59.5437 H   0  0  0  0  0  0  0  0  0  0  0  0
   11.0814   -4.0850  -59.3304 H   0  0  0  0  0  0  0  0  0  0  0  0
    9.5339   -4.4967  -57.4167 H   0  0  0  0  0  0  0  0  0  0  0  0
    9.8977   -5.8201  -56.2403 H   0  0  0  0  0  0  0  0  0  0  0  0
   11.7944   -5.6091  -54.6449 H   0  0  0  0  0  0  0  0  0  0  0  0
   12.8333   -4.1343  -54.6680 H   0  0  0  0  0  0  0  0  0  0  0  0
    9.7343   -3.4865  -51.8006 H   0  0  0  0  0  0  0  0  0  0  0  0
  1  2  1  0
  2  3  2  0
  3  4  1  0
  4  5  2  0
  5  6  1  0
  6  7  1  0
  7  8  2  0
  7  9  1  0
 10  9  1  1
 10 11  1  0
 11 12  1  0
 12 13  1  0
 13 14  1  0
 14 15  1  0
 15 16  1  0
 16 17  1  0
 16 18  1  0
 14 19  1  0
  6 20  2  0
 20  2  1  0
 18 10  1  0
 19 10  1  0
 17 12  1  0
  1 21  1  0
  1 22  1  0
  1 23  1  0
  3 24  1  0
  4 25  1  0
  9 26  1  0
 11 27  1  0
 11 28  1  0
 12 29  1  6
 13 30  1  0
 13 31  1  0
 14 32  1  1
 15 33  1  0
 15 34  1  0
 16 35  1  6
 17 36  1  0
 17 37  1  0
 18 38  1  0
 18 39  1  0
 19 40  1  0
 19 41  1  0
 20 42  1  0
M  END
>  <meeko>  (53) 
{"is_sidechain": false}

$$$$

     RDKit          3D

 45 49  0  0  0  0  0  0  0  0999 V2000
    7.2370    1.7220  -56.2650 O   0  0  0  0  0  0  0  0  0  0  0  0
    8.3950    1.3560  -56.1100 C   0  0  0  0  0  0  0  0  0  0  0  0
    9.4820    1.8590  -56.7920 N   0  0  0  0  0  0  0  0  0  0  0  0
    9.4490    2.9090  -57.8070 C   0  0  2  0  0  0  0  0  0  0  0  0
    8.5000    2.5420  -58.9750 C   0  0  0  0  0  0  0  0  0  0  0  0
    8.5190    3.6400  -60.0530 C   0  0  1  0  0  0  0  0  0  0  0  0
    8.0770    4.9730  -59.4260 C   0  0  0  0  0  0  0  0  0  0  0  0
    9.0330    5.3660  -58.2860 C   0  0  2  0  0  0  0  0  0  0  0  0
   10.4580    5.5040  -58.8450 C   0  0  0  0  0  0  0  0  0  0  0  0
   10.9090    4.1720  -59.4660 C   0  0  2  0  0  0  0  0  0  0  0  0
    9.9480    3.7880  -60.6020 C   0  0  0  0  0  0  0  0  0  0  0  0
   10.8790    3.0770  -58.3880 C   0  0  0  0  0  0  0  0  0  0  0  0
    9.0140    4.2680  -57.2080 C   0  0  0  0  0  0  0  0  0  0  0  0
    8.7430    0.2800  -55.1230 C   0  0  0  0  0  0  0  0  0  0  0  0
    7.9200    0.0590  -54.0260 C   0  0  0  0  0  0  0  0  0  0  0  0
    8.2700   -0.9500  -53.1220 C   0  0  0  0  0  0  0  0  0  0  0  0
    7.4870   -1.2310  -51.9910 C   0  0  0  0  0  0  0  0  0  0  0  0
    7.8580   -2.2440  -51.1030 C   0  0  0  0  0  0  0  0  0  0  0  0
    9.0130   -2.9870  -51.3340 C   0  0  0  0  0  0  0  0  0  0  0  0
    9.8020   -2.7200  -52.4530 C   0  0  0  0  0  0  0  0  0  0  0  0
    9.4390   -1.7030  -53.3540 C   0  0  0  0  0  0  0  0  0  0  0  0
   10.1930   -1.3940  -54.4900 C   0  0  0  0  0  0  0  0  0  0  0  0
    9.8800   -0.4250  -55.3810 N   0  0  0  0  0  0  0  0  0  0  0  0
   10.3730    1.4380  -56.5350 H   0  0  0  0  0  0  0  0  0  0  0  0
    8.8268    1.5913  -59.4214 H   0  0  0  0  0  0  0  0  0  0  0  0
    7.4763    2.4464  -58.5839 H   0  0  0  0  0  0  0  0  0  0  0  0
    7.8344    3.3687  -60.8701 H   0  0  0  0  0  0  0  0  0  0  0  0
    8.0876    5.7582  -60.1963 H   0  0  0  0  0  0  0  0  0  0  0  0
    7.0610    4.8596  -59.0199 H   0  0  0  0  0  0  0  0  0  0  0  0
    8.7136    6.3224  -57.8465 H   0  0  0  0  0  0  0  0  0  0  0  0
   10.4729    6.2889  -59.6155 H   0  0  0  0  0  0  0  0  0  0  0  0
   11.1430    5.7720  -58.0271 H   0  0  0  0  0  0  0  0  0  0  0  0
   11.9291    4.2763  -59.8641 H   0  0  0  0  0  0  0  0  0  0  0  0
    9.9629    4.5726  -61.3729 H   0  0  0  0  0  0  0  0  0  0  0  0
   10.2685    2.8306  -61.0387 H   0  0  0  0  0  0  0  0  0  0  0  0
   11.2007    2.1242  -58.8337 H   0  0  0  0  0  0  0  0  0  0  0  0
   11.5572    3.3686  -57.5725 H   0  0  0  0  0  0  0  0  0  0  0  0
    9.7056    4.5442  -56.3984 H   0  0  0  0  0  0  0  0  0  0  0  0
    7.9901    4.1720  -56.8176 H   0  0  0  0  0  0  0  0  0  0  0  0
    7.0140    0.6633  -53.8715 H   0  0  0  0  0  0  0  0  0  0  0  0
    6.5732   -0.6484  -51.8023 H   0  0  0  0  0  0  0  0  0  0  0  0
    7.2368   -2.4549  -50.2201 H   0  0  0  0  0  0  0  0  0  0  0  0
    9.3031   -3.7844  -50.6341 H   0  0  0  0  0  0  0  0  0  0  0  0
   10.7139   -3.3087  -52.6318 H   0  0  0  0  0  0  0  0  0  0  0  0
   11.1056   -1.9803  -54.6725 H   0  0  0  0  0  0  0  0  0  0  0  0
  1  2  2  0
  2  3  1  0
  4  3  1  1
  4  5  1  0
  5  6  1  0
  6  7  1  0
  7  8  1  0
  8  9  1  0
  9 10  1  0
 10 11  1  0
 10 12  1  0
  8 13  1  0
  2 14  1  0
 14 15  1  0
 15 16  2  0
 16 17  1  0
 17 18  2  0
 18 19  1  0
 19 20  2  0
 20 21  1  0
 21 22  2  0
 22 23  1  0
 12  4  1  0
 23 14  2  0
 13  4  1  0
 21 16  1  0
 11  6  1  0
  3 24  1  0
  5 25  1  0
  5 26  1  0
  6 27  1  6
  7 28  1  0
  7 29  1  0
  8 30  1  1
  9 31  1  0
  9 32  1  0
 10 33  1  6
 11 34  1  0
 11 35  1  0
 12 36  1  0
 12 37  1  0
 13 38  1  0
 13 39  1  0
 15 40  1  0
 17 41  1  0
 18 42  1  0
 19 43  1  0
 20 44  1  0
 22 45  1  0
M  END
>  <meeko>  (54) 
{"is_sidechain": false}

$$$$

     RDKit          3D

 42 46  0  0  0  0  0  0  0  0999 V2000
    6.6350    1.7230  -56.4190 O   0  0  0  0  0  0  0  0  0  0  0  0
    7.7580    1.3660  -56.0740 C   0  0  0  0  0  0  0  0  0  0  0  0
    8.9140    1.8580  -56.6580 N   0  0  0  0  0  0  0  0  0  0  0  0
    8.9830    2.8420  -57.7360 C   0  0  2  0  0  0  0  0  0  0  0  0
    8.7150    4.2770  -57.2190 C   0  0  0  0  0  0  0  0  0  0  0  0
    8.8450    5.2980  -58.3640 C   0  0  1  0  0  0  0  0  0  0  0  0
   10.2680    5.2380  -58.9400 C   0  0  0  0  0  0  0  0  0  0  0  0
   10.5560    3.8280  -59.4810 C   0  0  2  0  0  0  0  0  0  0  0  0
    9.5400    3.4900  -60.5840 C   0  0  0  0  0  0  0  0  0  0  0  0
    8.1130    3.5400  -60.0170 C   0  0  2  0  0  0  0  0  0  0  0  0
    7.8340    4.9500  -59.4700 C   0  0  0  0  0  0  0  0  0  0  0  0
    7.9830    2.5180  -58.8740 C   0  0  0  0  0  0  0  0  0  0  0  0
   10.4150    2.8110  -58.3370 C   0  0  0  0  0  0  0  0  0  0  0  0
    8.0340    0.3900  -55.0210 C   0  0  0  0  0  0  0  0  0  0  0  0
    9.1880   -0.2490  -54.9300 N   0  0  0  0  0  0  0  0  0  0  0  0
    9.1530   -1.1020  -53.8380 C   0  0  0  0  0  0  0  0  0  0  0  0
   10.1990   -1.9490  -53.4190 C   0  0  0  0  0  0  0  0  0  0  0  0
   10.0290   -2.7620  -52.2950 C   0  0  0  0  0  0  0  0  0  0  0  0
    8.8340   -2.7420  -51.5840 C   0  0  0  0  0  0  0  0  0  0  0  0
    7.7800   -1.9100  -51.9780 C   0  0  0  0  0  0  0  0  0  0  0  0
    7.9610   -1.0980  -53.1090 C   0  0  0  0  0  0  0  0  0  0  0  0
    6.8650    0.0170  -53.8320 S   0  0  0  0  0  0  0  0  0  0  0  0
    9.7770    1.4770  -56.2780 H   0  0  0  0  0  0  0  0  0  0  0  0
    7.6979    4.3275  -56.8032 H   0  0  0  0  0  0  0  0  0  0  0  0
    9.4557    4.5185  -56.4424 H   0  0  0  0  0  0  0  0  0  0  0  0
    8.6438    6.3099  -57.9823 H   0  0  0  0  0  0  0  0  0  0  0  0
   10.3614    5.9681  -59.7574 H   0  0  0  0  0  0  0  0  0  0  0  0
   10.9902    5.4747  -58.1448 H   0  0  0  0  0  0  0  0  0  0  0  0
   11.5757    3.7893  -59.8917 H   0  0  0  0  0  0  0  0  0  0  0  0
    9.6331    4.2204  -61.4013 H   0  0  0  0  0  0  0  0  0  0  0  0
    9.7425    2.4776  -60.9636 H   0  0  0  0  0  0  0  0  0  0  0  0
    7.3909    3.3002  -60.8115 H   0  0  0  0  0  0  0  0  0  0  0  0
    7.9226    5.6812  -60.2870 H   0  0  0  0  0  0  0  0  0  0  0  0
    6.8176    4.9786  -59.0504 H   0  0  0  0  0  0  0  0  0  0  0  0
    6.9584    2.5504  -58.4750 H   0  0  0  0  0  0  0  0  0  0  0  0
    8.2067    1.5155  -59.2677 H   0  0  0  0  0  0  0  0  0  0  0  0
   10.6201    1.8025  -58.7253 H   0  0  0  0  0  0  0  0  0  0  0  0
   11.1324    3.0732  -57.5454 H   0  0  0  0  0  0  0  0  0  0  0  0
   11.1475   -1.9700  -53.9758 H   0  0  0  0  0  0  0  0  0  0  0  0
   10.8465   -3.4226  -51.9703 H   0  0  0  0  0  0  0  0  0  0  0  0
    8.7158   -3.3878  -50.7014 H   0  0  0  0  0  0  0  0  0  0  0  0
    6.8344   -1.8926  -51.4163 H   0  0  0  0  0  0  0  0  0  0  0  0
  1  2  2  0
  2  3  1  0
  4  3  1  1
  4  5  1  0
  5  6  1  0
  6  7  1  0
  7  8  1  0
  8  9  1  0
  9 10  1  0
 10 11  1  0
 10 12  1  0
  8 13  1  0
  2 14  1  0
 14 15  2  0
 15 16  1  0
 16 17  2  0
 17 18  1  0
 18 19  2  0
 19 20  1  0
 20 21  2  0
 21 22  1  0
 12  4  1  0
 22 14  1  0
 13  4  1  0
 21 16  1  0
 11  6  1  0
  3 23  1  0
  5 24  1  0
  5 25  1  0
  6 26  1  1
  7 27  1  0
  7 28  1  0
  8 29  1  6
  9 30  1  0
  9 31  1  0
 10 32  1  6
 11 33  1  0
 11 34  1  0
 12 35  1  0
 12 36  1  0
 13 37  1  0
 13 38  1  0
 17 39  1  0
 18 40  1  0
 19 41  1  0
 20 42  1  0
M  END
>  <meeko>  (55) 
{"is_sidechain": false}

$$$$

     RDKit          3D

 53 57  0  0  0  0  0  0  0  0999 V2000
    5.9670   -0.3530  -53.9380 C   0  0  0  0  0  0  0  0  0  0  0  0
    7.4300   -0.5710  -54.0820 C   0  0  0  0  0  0  0  0  0  0  0  0
    8.3100    0.1140  -54.9740 C   0  0  0  0  0  0  0  0  0  0  0  0
    7.9740    1.1850  -55.9350 C   0  0  0  0  0  0  0  0  0  0  0  0
    6.8260    1.5630  -56.1420 O   0  0  0  0  0  0  0  0  0  0  0  0
    9.0880    1.7020  -56.5600 N   0  0  0  0  0  0  0  0  0  0  0  0
    9.1060    2.7680  -57.5550 C   0  0  2  0  0  0  0  0  0  0  0  0
    8.0940    2.5010  -58.6960 C   0  0  0  0  0  0  0  0  0  0  0  0
    8.1660    3.6160  -59.7550 C   0  0  1  0  0  0  0  0  0  0  0  0
    7.8520    4.9680  -59.0910 C   0  0  0  0  0  0  0  0  0  0  0  0
    8.8730    5.2600  -57.9780 C   0  0  2  0  0  0  0  0  0  0  0  0
   10.2860    5.2950  -58.5820 C   0  0  0  0  0  0  0  0  0  0  0  0
   10.6080    3.9440  -59.2410 C   0  0  2  0  0  0  0  0  0  0  0  0
    9.5840    3.6600  -60.3500 C   0  0  0  0  0  0  0  0  0  0  0  0
   10.5260    2.8340  -58.1800 C   0  0  0  0  0  0  0  0  0  0  0  0
    8.8010    4.1470  -56.9170 C   0  0  0  0  0  0  0  0  0  0  0  0
    9.5760   -0.3380  -54.8540 N   0  0  0  0  0  0  0  0  0  0  0  0
    9.5000   -1.2800  -53.8960 N   0  0  0  0  0  0  0  0  0  0  0  0
   10.7080   -1.9610  -53.4870 C   0  0  0  0  0  0  0  0  0  0  0  0
    8.2340   -1.4750  -53.4030 C   0  0  0  0  0  0  0  0  0  0  0  0
    7.9000   -2.4450  -52.3660 C   0  0  0  0  0  0  0  0  0  0  0  0
    8.0790   -2.1290  -51.0150 C   0  0  0  0  0  0  0  0  0  0  0  0
    7.7530   -3.0590  -50.0270 C   0  0  0  0  0  0  0  0  0  0  0  0
    7.2500   -4.3090  -50.3830 C   0  0  0  0  0  0  0  0  0  0  0  0
    7.0750   -4.6320  -51.7280 C   0  0  0  0  0  0  0  0  0  0  0  0
    7.4010   -3.7040  -52.7180 C   0  0  0  0  0  0  0  0  0  0  0  0
    5.7054   -0.3140  -52.8703 H   0  0  0  0  0  0  0  0  0  0  0  0
    5.6887    0.5965  -54.4186 H   0  0  0  0  0  0  0  0  0  0  0  0
    5.4240   -1.1801  -54.4186 H   0  0  0  0  0  0  0  0  0  0  0  0
    9.9600    1.2680  -56.2590 H   0  0  0  0  0  0  0  0  0  0  0  0
    8.3293    1.5365  -59.1698 H   0  0  0  0  0  0  0  0  0  0  0  0
    7.0791    2.4789  -58.2723 H   0  0  0  0  0  0  0  0  0  0  0  0
    7.4355    3.4167  -60.5529 H   0  0  0  0  0  0  0  0  0  0  0  0
    7.9007    5.7650  -59.8476 H   0  0  0  0  0  0  0  0  0  0  0  0
    6.8436    4.9286  -58.6533 H   0  0  0  0  0  0  0  0  0  0  0  0
    8.6454    6.2302  -57.5123 H   0  0  0  0  0  0  0  0  0  0  0  0
   10.3394    6.0916  -59.3387 H   0  0  0  0  0  0  0  0  0  0  0  0
   11.0162    5.4909  -57.7830 H   0  0  0  0  0  0  0  0  0  0  0  0
   11.6193    3.9744  -59.6726 H   0  0  0  0  0  0  0  0  0  0  0  0
    9.6370    4.4556  -61.1078 H   0  0  0  0  0  0  0  0  0  0  0  0
    9.8124    2.6890  -60.8136 H   0  0  0  0  0  0  0  0  0  0  0  0
   10.7571    1.8674  -58.6515 H   0  0  0  0  0  0  0  0  0  0  0  0
   11.2507    3.0559  -57.3828 H   0  0  0  0  0  0  0  0  0  0  0  0
    9.5388    4.3516  -56.1272 H   0  0  0  0  0  0  0  0  0  0  0  0
    7.7866    4.1257  -56.4921 H   0  0  0  0  0  0  0  0  0  0  0  0
   10.7588   -1.9896  -52.3885 H   0  0  0  0  0  0  0  0  0  0  0  0
   10.7011   -2.9881  -53.8806 H   0  0  0  0  0  0  0  0  0  0  0  0
   11.5832   -1.4234  -53.8806 H   0  0  0  0  0  0  0  0  0  0  0  0
    8.4780   -1.1442  -50.7306 H   0  0  0  0  0  0  0  0  0  0  0  0
    7.8932   -2.8052  -48.9659 H   0  0  0  0  0  0  0  0  0  0  0  0
    6.9912   -5.0404  -49.6032 H   0  0  0  0  0  0  0  0  0  0  0  0
    6.6796   -5.6192  -52.0091 H   0  0  0  0  0  0  0  0  0  0  0  0
    7.2653   -3.9631  -53.7784 H   0  0  0  0  0  0  0  0  0  0  0  0
  1  2  1  0
  2  3  1  0
  3  4  1  0
  4  5  2  0
  4  6  1  0
  7  6  1  1
  7  8  1  0
  8  9  1  0
  9 10  1  0
 10 11  1  0
 11 12  1  0
 12 13  1  0
 13 14  1  0
 13 15  1  0
 11 16  1  0
  3 17  2  0
 17 18  1  0
 18 19  1  0
 18 20  1  0
 20 21  1  0
 21 22  2  0
 22 23  1  0
 23 24  2  0
 24 25  1  0
 25 26  2  0
 20  2  2  0
 26 21  1  0
 15  7  1  0
 16  7  1  0
 14  9  1  0
  1 27  1  0
  1 28  1  0
  1 29  1  0
  6 30  1  0
  8 31  1  0
  8 32  1  0
  9 33  1  6
 10 34  1  0
 10 35  1  0
 11 36  1  1
 12 37  1  0
 12 38  1  0
 13 39  1  6
 14 40  1  0
 14 41  1  0
 15 42  1  0
 15 43  1  0
 16 44  1  0
 16 45  1  0
 19 46  1  0
 19 47  1  0
 19 48  1  0
 22 49  1  0
 23 50  1  0
 24 51  1  0
 25 52  1  0
 26 53  1  0
M  END
>  <meeko>  (56) 
{"is_sidechain": false}

$$$$

     RDKit          3D

 59 63  0  0  0  0  0  0  0  0999 V2000
   10.2020   -4.0280  -55.2270 C   0  0  0  0  0  0  0  0  0  0  0  0
   11.1550   -2.9090  -54.8330 C   0  0  0  0  0  0  0  0  0  0  0  0
   10.6230   -2.0430  -53.6900 C   0  0  0  0  0  0  0  0  0  0  0  0
    9.4190   -1.3040  -54.0270 N   0  0  0  0  0  0  0  0  0  0  0  0
    9.5040   -0.3450  -54.9630 N   0  0  0  0  0  0  0  0  0  0  0  0
    8.2610    0.1560  -55.0630 C   0  0  0  0  0  0  0  0  0  0  0  0
    7.9510    1.2330  -56.0250 C   0  0  0  0  0  0  0  0  0  0  0  0
    6.8310    1.7200  -56.1440 O   0  0  0  0  0  0  0  0  0  0  0  0
    9.0490    1.6560  -56.7560 N   0  0  0  0  0  0  0  0  0  0  0  0
    9.0420    2.7810  -57.6940 C   0  0  2  0  0  0  0  0  0  0  0  0
   10.4110    2.8070  -58.4290 C   0  0  0  0  0  0  0  0  0  0  0  0
   10.4800    3.9720  -59.4280 C   0  0  1  0  0  0  0  0  0  0  0  0
    9.3610    3.8090  -60.4690 C   0  0  0  0  0  0  0  0  0  0  0  0
    7.9930    3.8040  -59.7680 C   0  0  2  0  0  0  0  0  0  0  0  0
    7.8070    5.1280  -59.0080 C   0  0  0  0  0  0  0  0  0  0  0  0
    8.9240    5.3020  -57.9650 C   0  0  2  0  0  0  0  0  0  0  0  0
   10.2860    5.2960  -58.6750 C   0  0  0  0  0  0  0  0  0  0  0  0
    8.8670    4.1350  -56.9630 C   0  0  0  0  0  0  0  0  0  0  0  0
    7.9360    2.6350  -58.7690 C   0  0  0  0  0  0  0  0  0  0  0  0
    7.3760   -0.5000  -54.1470 C   0  0  0  0  0  0  0  0  0  0  0  0
    5.9370   -0.2120  -53.9090 C   0  0  0  0  0  0  0  0  0  0  0  0
    8.1590   -1.4440  -53.4970 C   0  0  0  0  0  0  0  0  0  0  0  0
    7.7990   -2.3980  -52.4560 C   0  0  0  0  0  0  0  0  0  0  0  0
    7.3570   -3.6820  -52.7970 C   0  0  0  0  0  0  0  0  0  0  0  0
    7.0150   -4.5950  -51.7990 C   0  0  0  0  0  0  0  0  0  0  0  0
    7.1180   -4.2330  -50.4560 C   0  0  0  0  0  0  0  0  0  0  0  0
    7.5660   -2.9580  -50.1100 C   0  0  0  0  0  0  0  0  0  0  0  0
    7.9090   -2.0440  -51.1070 C   0  0  0  0  0  0  0  0  0  0  0  0
    9.7983   -4.5021  -54.3202 H   0  0  0  0  0  0  0  0  0  0  0  0
    9.3756   -3.6131  -55.8228 H   0  0  0  0  0  0  0  0  0  0  0  0
   10.7432   -4.7778  -55.8228 H   0  0  0  0  0  0  0  0  0  0  0  0
   12.1094   -3.3564  -54.5184 H   0  0  0  0  0  0  0  0  0  0  0  0
   11.2756   -2.2565  -55.7103 H   0  0  0  0  0  0  0  0  0  0  0  0
   10.4006   -2.6968  -52.8338 H   0  0  0  0  0  0  0  0  0  0  0  0
   11.4016   -1.3005  -53.4610 H   0  0  0  0  0  0  0  0  0  0  0  0
    9.9470    1.3680  -56.3890 H   0  0  0  0  0  0  0  0  0  0  0  0
   11.2150    2.9218  -57.6871 H   0  0  0  0  0  0  0  0  0  0  0  0
   10.5281    1.8640  -58.9831 H   0  0  0  0  0  0  0  0  0  0  0  0
   11.4578    3.9743  -59.9319 H   0  0  0  0  0  0  0  0  0  0  0  0
    9.4022    4.6447  -61.1830 H   0  0  0  0  0  0  0  0  0  0  0  0
    9.4983    2.8573  -61.0032 H   0  0  0  0  0  0  0  0  0  0  0  0
    7.1954    3.6902  -60.5170 H   0  0  0  0  0  0  0  0  0  0  0  0
    7.8421    5.9646  -59.7213 H   0  0  0  0  0  0  0  0  0  0  0  0
    6.8345    5.1138  -58.4941 H   0  0  0  0  0  0  0  0  0  0  0  0
    8.7895    6.2549  -57.4322 H   0  0  0  0  0  0  0  0  0  0  0  0
   10.3278    6.1311  -59.3898 H   0  0  0  0  0  0  0  0  0  0  0  0
   11.0841    5.4056  -57.9260 H   0  0  0  0  0  0  0  0  0  0  0  0
    9.6727    4.2536  -56.2235 H   0  0  0  0  0  0  0  0  0  0  0  0
    7.8874    4.1443  -56.4626 H   0  0  0  0  0  0  0  0  0  0  0  0
    6.9523    2.6279  -58.2768 H   0  0  0  0  0  0  0  0  0  0  0  0
    8.0952    1.6938  -59.3156 H   0  0  0  0  0  0  0  0  0  0  0  0
    5.7449   -0.1736  -52.8266 H   0  0  0  0  0  0  0  0  0  0  0  0
    5.6770    0.7560  -54.3622 H   0  0  0  0  0  0  0  0  0  0  0  0
    5.3244   -1.0054  -54.3622 H   0  0  0  0  0  0  0  0  0  0  0  0
    7.2791   -3.9719  -53.8553 H   0  0  0  0  0  0  0  0  0  0  0  0
    6.6638   -5.6012  -52.0716 H   0  0  0  0  0  0  0  0  0  0  0  0
    6.8460   -4.9527  -49.6698 H   0  0  0  0  0  0  0  0  0  0  0  0
    7.6489   -2.6730  -49.0508 H   0  0  0  0  0  0  0  0  0  0  0  0
    8.2673   -1.0412  -50.8312 H   0  0  0  0  0  0  0  0  0  0  0  0
  1  2  1  0
  2  3  1  0
  3  4  1  0
  4  5  1  0
  5  6  2  0
  6  7  1  0
  7  8  2  0
  7  9  1  0
 10  9  1  1
 10 11  1  0
 11 12  1  0
 12 13  1  0
 13 14  1  0
 14 15  1  0
 15 16  1  0
 16 17  1  0
 16 18  1  0
 14 19  1  0
  6 20  1  0
 20 21  1  0
 20 22  2  0
 22 23  1  0
 23 24  2  0
 24 25  1  0
 25 26  2  0
 26 27  1  0
 27 28  2  0
 22  4  1  0
 28 23  1  0
 18 10  1  0
 19 10  1  0
 17 12  1  0
  1 29  1  0
  1 30  1  0
  1 31  1  0
  2 32  1  0
  2 33  1  0
  3 34  1  0
  3 35  1  0
  9 36  1  0
 11 37  1  0
 11 38  1  0
 12 39  1  6
 13 40  1  0
 13 41  1  0
 14 42  1  6
 15 43  1  0
 15 44  1  0
 16 45  1  1
 17 46  1  0
 17 47  1  0
 18 48  1  0
 18 49  1  0
 19 50  1  0
 19 51  1  0
 21 52  1  0
 21 53  1  0
 21 54  1  0
 24 55  1  0
 25 56  1  0
 26 57  1  0
 27 58  1  0
 28 59  1  0
M  END
>  <meeko>  (57) 
{"is_sidechain": false}

$$$$

     RDKit          3D

 52 55  0  0  0  0  0  0  0  0999 V2000
    5.7380   -0.5240  -53.8480 C   0  0  0  0  0  0  0  0  0  0  0  0
    7.1980   -0.6480  -54.0880 C   0  0  0  0  0  0  0  0  0  0  0  0
    7.9780    0.1090  -55.0120 C   0  0  0  0  0  0  0  0  0  0  0  0
    7.5210    1.1790  -55.9210 C   0  0  0  0  0  0  0  0  0  0  0  0
    6.3380    1.4330  -56.1270 O   0  0  0  0  0  0  0  0  0  0  0  0
    8.5650    1.8730  -56.4970 N   0  0  0  0  0  0  0  0  0  0  0  0
    8.3770    3.0990  -57.2520 C   0  0  0  0  0  0  0  0  0  0  0  0
    9.1740    4.2450  -56.6020 C   0  0  0  0  0  0  0  0  0  0  0  0
    9.5870    5.2990  -57.6200 C   0  0  0  0  0  0  0  0  0  0  0  0
   10.4880    4.7120  -58.7080 C   0  0  0  0  0  0  0  0  0  0  0  0
   10.1960    3.2410  -59.0150 C   0  0  0  0  0  0  0  0  0  0  0  0
    8.7420    2.8810  -58.7300 C   0  0  0  0  0  0  0  0  0  0  0  0
    9.2750   -0.2600  -54.9760 N   0  0  0  0  0  0  0  0  0  0  0  0
    9.3200   -1.2280  -54.0360 N   0  0  0  0  0  0  0  0  0  0  0  0
   10.6050   -1.8500  -53.7290 C   0  0  0  0  0  0  0  0  0  0  0  0
   11.1190   -2.6790  -54.8700 C   0  0  0  0  0  0  0  0  0  0  0  0
   11.4970   -4.1220  -54.6470 C   0  0  0  0  0  0  0  0  0  0  0  0
   10.2800   -3.7830  -55.4630 C   0  0  0  0  0  0  0  0  0  0  0  0
    8.0970   -1.5110  -53.4770 C   0  0  0  0  0  0  0  0  0  0  0  0
    7.8770   -2.5130  -52.4430 C   0  0  0  0  0  0  0  0  0  0  0  0
    8.0430   -2.1840  -51.0920 C   0  0  0  0  0  0  0  0  0  0  0  0
    7.8300   -3.1450  -50.1040 C   0  0  0  0  0  0  0  0  0  0  0  0
    7.4550   -4.4410  -50.4590 C   0  0  0  0  0  0  0  0  0  0  0  0
    7.2980   -4.7780  -51.8030 C   0  0  0  0  0  0  0  0  0  0  0  0
    7.5120   -3.8180  -52.7930 C   0  0  0  0  0  0  0  0  0  0  0  0
    5.5445   -0.5076  -52.7653 H   0  0  0  0  0  0  0  0  0  0  0  0
    5.3699    0.4086  -54.3005 H   0  0  0  0  0  0  0  0  0  0  0  0
    5.2179   -1.3812  -54.3005 H   0  0  0  0  0  0  0  0  0  0  0  0
    9.4780    1.6300  -56.1210 H   0  0  0  0  0  0  0  0  0  0  0  0
    7.3162    3.3891  -57.2293 H   0  0  0  0  0  0  0  0  0  0  0  0
    8.5490    4.7204  -55.8317 H   0  0  0  0  0  0  0  0  0  0  0  0
   10.0882    3.8182  -56.1637 H   0  0  0  0  0  0  0  0  0  0  0  0
    8.6833    5.7135  -58.0907 H   0  0  0  0  0  0  0  0  0  0  0  0
   10.1514    6.0823  -57.0929 H   0  0  0  0  0  0  0  0  0  0  0  0
   10.3456    5.2950  -59.6299 H   0  0  0  0  0  0  0  0  0  0  0  0
   11.5217    4.7657  -58.3357 H   0  0  0  0  0  0  0  0  0  0  0  0
   10.4085    3.0500  -60.0772 H   0  0  0  0  0  0  0  0  0  0  0  0
   10.8347    2.6231  -58.3667 H   0  0  0  0  0  0  0  0  0  0  0  0
    8.0907    3.5108  -59.3539 H   0  0  0  0  0  0  0  0  0  0  0  0
    8.6027    1.8148  -58.9622 H   0  0  0  0  0  0  0  0  0  0  0  0
   11.3373   -1.0598  -53.5068 H   0  0  0  0  0  0  0  0  0  0  0  0
   10.4609   -2.5156  -52.8652 H   0  0  0  0  0  0  0  0  0  0  0  0
   11.6261   -1.7898  -55.2727 H   0  0  0  0  0  0  0  0  0  0  0  0
   12.3891   -4.5387  -55.1374 H   0  0  0  0  0  0  0  0  0  0  0  0
   11.6906   -4.7471  -53.7628 H   0  0  0  0  0  0  0  0  0  0  0  0
   10.2824   -3.9519  -56.5499 H   0  0  0  0  0  0  0  0  0  0  0  0
    9.2156   -4.0578  -55.4223 H   0  0  0  0  0  0  0  0  0  0  0  0
    8.3424   -1.1641  -50.8091 H   0  0  0  0  0  0  0  0  0  0  0  0
    7.9578   -2.8809  -49.0439 H   0  0  0  0  0  0  0  0  0  0  0  0
    7.2832   -5.1971  -49.6787 H   0  0  0  0  0  0  0  0  0  0  0  0
    7.0054   -5.8008  -52.0829 H   0  0  0  0  0  0  0  0  0  0  0  0
    7.3933   -4.0881  -53.8527 H   0  0  0  0  0  0  0  0  0  0  0  0
  1  2  1  0
  2  3  1  0
  3  4  1  0
  4  5  2  0
  4  6  1  0
  6  7  1  0
  7  8  1  0
  8  9  1  0
  9 10  1  0
 10 11  1  0
 11 12  1  0
  3 13  2  0
 13 14  1  0
 14 15  1  0
 15 16  1  0
 16 17  1  0
 17 18  1  0
 14 19  1  0
 19 20  1  0
 20 21  2  0
 21 22  1  0
 22 23  2  0
 23 24  1  0
 24 25  2  0
 19  2  2  0
 25 20  1  0
 12  7  1  0
 18 16  1  0
  1 26  1  0
  1 27  1  0
  1 28  1  0
  6 29  1  0
  7 30  1  0
  8 31  1  0
  8 32  1  0
  9 33  1  0
  9 34  1  0
 10 35  1  0
 10 36  1  0
 11 37  1  0
 11 38  1  0
 12 39  1  0
 12 40  1  0
 15 41  1  0
 15 42  1  0
 16 43  1  0
 17 44  1  0
 17 45  1  0
 18 46  1  0
 18 47  1  0
 21 48  1  0
 22 49  1  0
 23 50  1  0
 24 51  1  0
 25 52  1  0
M  END
>  <meeko>  (58) 
{"is_sidechain": false}

$$$$

     RDKit          3D

 56 60  0  0  0  0  0  0  0  0999 V2000
   10.9040   -3.2980  -54.4160 C   0  0  0  0  0  0  0  0  0  0  0  0
   10.7150   -2.0350  -53.5960 C   0  0  0  0  0  0  0  0  0  0  0  0
    9.4950   -1.3280  -53.9480 N   0  0  0  0  0  0  0  0  0  0  0  0
    9.5580   -0.3650  -54.8890 N   0  0  0  0  0  0  0  0  0  0  0  0
    8.2900    0.0850  -54.9890 C   0  0  0  0  0  0  0  0  0  0  0  0
    7.9410    1.1660  -55.9360 C   0  0  0  0  0  0  0  0  0  0  0  0
    6.7890    1.5340  -56.1370 O   0  0  0  0  0  0  0  0  0  0  0  0
    9.0500    1.7010  -56.5560 N   0  0  0  0  0  0  0  0  0  0  0  0
    9.0550    2.7790  -57.5390 C   0  0  2  0  0  0  0  0  0  0  0  0
   10.4750    2.8760  -58.1560 C   0  0  0  0  0  0  0  0  0  0  0  0
   10.5450    3.9970  -59.2050 C   0  0  1  0  0  0  0  0  0  0  0  0
    9.5300    3.7060  -60.3210 C   0  0  0  0  0  0  0  0  0  0  0  0
    8.1110    3.6330  -59.7360 C   0  0  2  0  0  0  0  0  0  0  0  0
    7.7710    4.9720  -59.0590 C   0  0  0  0  0  0  0  0  0  0  0  0
    8.7810    5.2700  -57.9390 C   0  0  2  0  0  0  0  0  0  0  0  0
   10.1960    5.3350  -58.5340 C   0  0  0  0  0  0  0  0  0  0  0  0
    8.7220    4.1450  -56.8900 C   0  0  0  0  0  0  0  0  0  0  0  0
    8.0530    2.5060  -58.6880 C   0  0  0  0  0  0  0  0  0  0  0  0
    7.4230   -0.6100  -54.0960 C   0  0  0  0  0  0  0  0  0  0  0  0
    5.9630   -0.3910  -53.9220 C   0  0  0  0  0  0  0  0  0  0  0  0
    8.2360   -1.5190  -53.4350 C   0  0  0  0  0  0  0  0  0  0  0  0
    7.9070   -2.4960  -52.4050 C   0  0  0  0  0  0  0  0  0  0  0  0
    7.3780   -3.7420  -52.7630 C   0  0  0  0  0  0  0  0  0  0  0  0
    7.0670   -4.6800  -51.7760 C   0  0  0  0  0  0  0  0  0  0  0  0
    7.2780   -4.3760  -50.4320 C   0  0  0  0  0  0  0  0  0  0  0  0
    7.7960   -3.1330  -50.0700 C   0  0  0  0  0  0  0  0  0  0  0  0
    8.1090   -2.1930  -51.0550 C   0  0  0  0  0  0  0  0  0  0  0  0
   11.0326   -4.1573  -53.7414 H   0  0  0  0  0  0  0  0  0  0  0  0
   10.0199   -3.4590  -55.0505 H   0  0  0  0  0  0  0  0  0  0  0  0
   11.7965   -3.1931  -55.0505 H   0  0  0  0  0  0  0  0  0  0  0  0
   10.6716   -2.3074  -52.5312 H   0  0  0  0  0  0  0  0  0  0  0  0
   11.5639   -1.3673  -53.8048 H   0  0  0  0  0  0  0  0  0  0  0  0
    9.9250    1.2700  -56.2650 H   0  0  0  0  0  0  0  0  0  0  0  0
   11.2009    3.0858  -57.3566 H   0  0  0  0  0  0  0  0  0  0  0  0
   10.7089    1.9206  -58.6484 H   0  0  0  0  0  0  0  0  0  0  0  0
   11.5577    4.0494  -59.6312 H   0  0  0  0  0  0  0  0  0  0  0  0
    9.5736    4.5091  -61.0714 H   0  0  0  0  0  0  0  0  0  0  0  0
    9.7766    2.7423  -60.7906 H   0  0  0  0  0  0  0  0  0  0  0  0
    7.3883    3.4307  -60.5402 H   0  0  0  0  0  0  0  0  0  0  0  0
    7.8091    5.7777  -59.8069 H   0  0  0  0  0  0  0  0  0  0  0  0
    6.7617    4.9101  -58.6261 H   0  0  0  0  0  0  0  0  0  0  0  0
    8.5350    6.2319  -57.4655 H   0  0  0  0  0  0  0  0  0  0  0  0
   10.2402    6.1403  -59.2820 H   0  0  0  0  0  0  0  0  0  0  0  0
   10.9180    5.5346  -57.7285 H   0  0  0  0  0  0  0  0  0  0  0  0
    9.4511    4.3545  -56.0934 H   0  0  0  0  0  0  0  0  0  0  0  0
    7.7053    4.1016  -56.4723 H   0  0  0  0  0  0  0  0  0  0  0  0
    7.0353    2.4488  -58.2744 H   0  0  0  0  0  0  0  0  0  0  0  0
    8.3200    1.5557  -59.1735 H   0  0  0  0  0  0  0  0  0  0  0  0
    5.7229   -0.3550  -52.8491 H   0  0  0  0  0  0  0  0  0  0  0  0
    5.6761    0.5602  -54.3941 H   0  0  0  0  0  0  0  0  0  0  0  0
    5.4096   -1.2162  -54.3941 H   0  0  0  0  0  0  0  0  0  0  0  0
    7.2072   -3.9824  -53.8227 H   0  0  0  0  0  0  0  0  0  0  0  0
    6.6551   -5.6598  -52.0595 H   0  0  0  0  0  0  0  0  0  0  0  0
    7.0356   -5.1173  -49.6563 H   0  0  0  0  0  0  0  0  0  0  0  0
    7.9582   -2.8926  -49.0089 H   0  0  0  0  0  0  0  0  0  0  0  0
    8.5154   -1.2120  -50.7678 H   0  0  0  0  0  0  0  0  0  0  0  0
  1  2  1  0
  2  3  1  0
  3  4  1  0
  4  5  2  0
  5  6  1  0
  6  7  2  0
  6  8  1  0
  9  8  1  1
  9 10  1  0
 10 11  1  0
 11 12  1  0
 12 13  1  0
 13 14  1  0
 14 15  1  0
 15 16  1  0
 15 17  1  0
 13 18  1  0
  5 19  1  0
 19 20  1  0
 19 21  2  0
 21 22  1  0
 22 23  2  0
 23 24  1  0
 24 25  2  0
 25 26  1  0
 26 27  2  0
 21  3  1  0
 27 22  1  0
 17  9  1  0
 18  9  1  0
 16 11  1  0
  1 28  1  0
  1 29  1  0
  1 30  1  0
  2 31  1  0
  2 32  1  0
  8 33  1  0
 10 34  1  0
 10 35  1  0
 11 36  1  6
 12 37  1  0
 12 38  1  0
 13 39  1  6
 14 40  1  0
 14 41  1  0
 15 42  1  1
 16 43  1  0
 16 44  1  0
 17 45  1  0
 17 46  1  0
 18 47  1  0
 18 48  1  0
 20 49  1  0
 20 50  1  0
 20 51  1  0
 23 52  1  0
 24 53  1  0
 25 54  1  0
 26 55  1  0
 27 56  1  0
M  END
>  <meeko>  (59) 
{"is_sidechain": false}

$$$$

     RDKit          3D

 49 52  0  0  0  0  0  0  0  0999 V2000
    6.1430   -0.1740  -53.7300 C   0  0  0  0  0  0  0  0  0  0  0  0
    7.5570   -0.5350  -54.0120 C   0  0  0  0  0  0  0  0  0  0  0  0
    8.4240    0.0870  -54.9600 C   0  0  0  0  0  0  0  0  0  0  0  0
    8.1160    1.2070  -55.8700 C   0  0  0  0  0  0  0  0  0  0  0  0
    7.0290    1.3540  -56.4210 O   0  0  0  0  0  0  0  0  0  0  0  0
    9.1850    2.0610  -56.0490 N   0  0  0  0  0  0  0  0  0  0  0  0
    9.1880    3.0990  -57.0450 C   0  0  0  0  0  0  0  0  0  0  0  0
   10.3240    2.9490  -58.0560 C   0  0  0  0  0  0  0  0  0  0  0  0
   10.5770    4.3580  -58.5900 C   0  0  0  0  0  0  0  0  0  0  0  0
    9.8170    5.3110  -57.6690 C   0  0  0  0  0  0  0  0  0  0  0  0
    9.4390    4.4800  -56.4540 C   0  0  0  0  0  0  0  0  0  0  0  0
    9.6430   -0.4900  -54.9580 N   0  0  0  0  0  0  0  0  0  0  0  0
    9.5490   -1.4670  -54.0320 N   0  0  0  0  0  0  0  0  0  0  0  0
   10.7140   -2.3120  -53.7810 C   0  0  0  0  0  0  0  0  0  0  0  0
   11.1830   -3.0110  -55.0260 C   0  0  0  0  0  0  0  0  0  0  0  0
   11.6160   -4.4550  -54.9850 C   0  0  0  0  0  0  0  0  0  0  0  0
   10.3270   -4.0780  -55.6620 C   0  0  0  0  0  0  0  0  0  0  0  0
    8.3190   -1.5330  -53.4220 C   0  0  0  0  0  0  0  0  0  0  0  0
    7.9630   -2.4980  -52.3900 C   0  0  0  0  0  0  0  0  0  0  0  0
    8.1400   -2.1840  -51.0380 C   0  0  0  0  0  0  0  0  0  0  0  0
    7.7990   -3.1110  -50.0520 C   0  0  0  0  0  0  0  0  0  0  0  0
    7.2770   -4.3530  -50.4120 C   0  0  0  0  0  0  0  0  0  0  0  0
    7.0900   -4.6670  -51.7570 C   0  0  0  0  0  0  0  0  0  0  0  0
    7.4290   -3.7420  -52.7450 C   0  0  0  0  0  0  0  0  0  0  0  0
    5.9848   -0.1336  -52.6422 H   0  0  0  0  0  0  0  0  0  0  0  0
    5.9210    0.8096  -54.1696 H   0  0  0  0  0  0  0  0  0  0  0  0
    5.4767   -0.9308  -54.1696 H   0  0  0  0  0  0  0  0  0  0  0  0
   10.0520    1.7300  -55.6320 H   0  0  0  0  0  0  0  0  0  0  0  0
    8.1933    3.0034  -57.5048 H   0  0  0  0  0  0  0  0  0  0  0  0
   11.2265    2.5549  -57.5659 H   0  0  0  0  0  0  0  0  0  0  0  0
   10.0662    2.2454  -58.8612 H   0  0  0  0  0  0  0  0  0  0  0  0
   11.6530    4.5855  -58.5686 H   0  0  0  0  0  0  0  0  0  0  0  0
   10.2390    4.4562  -59.6322 H   0  0  0  0  0  0  0  0  0  0  0  0
   10.4582    6.1547  -57.3741 H   0  0  0  0  0  0  0  0  0  0  0  0
    8.9328    5.7400  -58.1631 H   0  0  0  0  0  0  0  0  0  0  0  0
   10.2603    4.4533  -55.7227 H   0  0  0  0  0  0  0  0  0  0  0  0
    8.5721    4.8810  -55.9084 H   0  0  0  0  0  0  0  0  0  0  0  0
   11.5316   -1.6842  -53.3971 H   0  0  0  0  0  0  0  0  0  0  0  0
   10.4242   -3.0805  -53.0493 H   0  0  0  0  0  0  0  0  0  0  0  0
   11.6463   -2.0728  -55.3654 H   0  0  0  0  0  0  0  0  0  0  0  0
   12.4752   -4.7885  -55.5855 H   0  0  0  0  0  0  0  0  0  0  0  0
   11.8986   -5.1593  -54.1887 H   0  0  0  0  0  0  0  0  0  0  0  0
   10.2439   -4.1358  -56.7573 H   0  0  0  0  0  0  0  0  0  0  0  0
    9.2773   -4.3925  -55.5655 H   0  0  0  0  0  0  0  0  0  0  0  0
    8.5490   -1.2039  -50.7515 H   0  0  0  0  0  0  0  0  0  0  0  0
    7.9421   -2.8618  -48.9902 H   0  0  0  0  0  0  0  0  0  0  0  0
    7.0128   -5.0849  -49.6345 H   0  0  0  0  0  0  0  0  0  0  0  0
    6.6746   -5.6454  -52.0400 H   0  0  0  0  0  0  0  0  0  0  0  0
    7.2762   -3.9911  -53.8055 H   0  0  0  0  0  0  0  0  0  0  0  0
  1  2  1  0
  2  3  1  0
  3  4  1  0
  4  5  2  0
  4  6  1  0
  6  7  1  0
  7  8  1  0
  8  9  1  0
  9 10  1  0
 10 11  1  0
  3 12  2  0
 12 13  1  0
 13 14  1  0
 14 15  1  0
 15 16  1  0
 16 17  1  0
 13 18  1  0
 18 19  1  0
 19 20  2  0
 20 21  1  0
 21 22  2  0
 22 23  1  0
 23 24  2  0
 18  2  2  0
 24 19  1  0
 11  7  1  0
 17 15  1  0
  1 25  1  0
  1 26  1  0
  1 27  1  0
  6 28  1  0
  7 29  1  0
  8 30  1  0
  8 31  1  0
  9 32  1  0
  9 33  1  0
 10 34  1  0
 10 35  1  0
 11 36  1  0
 11 37  1  0
 14 38  1  0
 14 39  1  0
 15 40  1  0
 16 41  1  0
 16 42  1  0
 17 43  1  0
 17 44  1  0
 20 45  1  0
 21 46  1  0
 22 47  1  0
 23 48  1  0
 24 49  1  0
M  END
>  <meeko>  (60) 
{"is_sidechain": false}

$$$$

     RDKit          3D

 62 66  0  0  0  0  0  0  0  0999 V2000
   11.5130   -3.3670  -57.0540 C   0  0  0  0  0  0  0  0  0  0  0  0
   11.5180   -4.1550  -55.7540 C   0  0  0  0  0  0  0  0  0  0  0  0
   10.3070   -3.8700  -54.8630 C   0  0  0  0  0  0  0  0  0  0  0  0
   10.5090   -2.6670  -53.9430 C   0  0  0  0  0  0  0  0  0  0  0  0
    9.4670   -1.6680  -54.1200 N   0  0  0  0  0  0  0  0  0  0  0  0
    9.6560   -0.7020  -55.0360 N   0  0  0  0  0  0  0  0  0  0  0  0
    8.5420    0.0480  -54.9820 C   0  0  0  0  0  0  0  0  0  0  0  0
    8.3810    1.2300  -55.8540 C   0  0  0  0  0  0  0  0  0  0  0  0
    7.2910    1.7440  -56.0850 O   0  0  0  0  0  0  0  0  0  0  0  0
    9.5710    1.6810  -56.4020 N   0  0  0  0  0  0  0  0  0  0  0  0
    9.6790    2.7620  -57.3820 C   0  0  2  0  0  0  0  0  0  0  0  0
    8.7940    2.4980  -58.6260 C   0  0  0  0  0  0  0  0  0  0  0  0
    8.9730    3.6190  -59.6650 C   0  0  1  0  0  0  0  0  0  0  0  0
    8.5840    4.9660  -59.0300 C   0  0  0  0  0  0  0  0  0  0  0  0
    9.4820    5.2570  -57.8160 C   0  0  2  0  0  0  0  0  0  0  0  0
   10.9500    5.3030  -58.2690 C   0  0  0  0  0  0  0  0  0  0  0  0
   11.3460    3.9570  -58.8950 C   0  0  2  0  0  0  0  0  0  0  0  0
   10.4440    3.6720  -60.1060 C   0  0  0  0  0  0  0  0  0  0  0  0
   11.1570    2.8430  -57.8530 C   0  0  0  0  0  0  0  0  0  0  0  0
    9.3050    4.1380  -56.7750 C   0  0  0  0  0  0  0  0  0  0  0  0
    7.6320   -0.4640  -53.9990 C   0  0  0  0  0  0  0  0  0  0  0  0
    6.2790    0.0490  -53.6590 C   0  0  0  0  0  0  0  0  0  0  0  0
    8.2750   -1.5650  -53.4490 C   0  0  0  0  0  0  0  0  0  0  0  0
    7.8350   -2.4830  -52.4080 C   0  0  0  0  0  0  0  0  0  0  0  0
    8.1570   -2.2370  -51.0700 C   0  0  0  0  0  0  0  0  0  0  0  0
    7.7390   -3.1190  -50.0720 C   0  0  0  0  0  0  0  0  0  0  0  0
    6.9940   -4.2490  -50.4090 C   0  0  0  0  0  0  0  0  0  0  0  0
    6.6640   -4.4980  -51.7400 C   0  0  0  0  0  0  0  0  0  0  0  0
    7.0820   -3.6160  -52.7390 C   0  0  0  0  0  0  0  0  0  0  0  0
   11.5062   -2.2901  -56.8300 H   0  0  0  0  0  0  0  0  0  0  0  0
   12.4127   -3.6147  -57.6364 H   0  0  0  0  0  0  0  0  0  0  0  0
   10.6165   -3.6261  -57.6364 H   0  0  0  0  0  0  0  0  0  0  0  0
   11.5267   -5.2278  -55.9971 H   0  0  0  0  0  0  0  0  0  0  0  0
   12.4125   -3.8473  -55.1925 H   0  0  0  0  0  0  0  0  0  0  0  0
    9.4366   -3.6758  -55.5070 H   0  0  0  0  0  0  0  0  0  0  0  0
   10.1570   -4.7513  -54.2220 H   0  0  0  0  0  0  0  0  0  0  0  0
   10.4971   -3.0121  -52.8986 H   0  0  0  0  0  0  0  0  0  0  0  0
   11.4734   -2.2023  -54.1962 H   0  0  0  0  0  0  0  0  0  0  0  0
   10.3420    1.0290  -56.3470 H   0  0  0  0  0  0  0  0  0  0  0  0
    9.0821    1.5372  -59.0774 H   0  0  0  0  0  0  0  0  0  0  0  0
    7.7401    2.4699  -58.3123 H   0  0  0  0  0  0  0  0  0  0  0  0
    8.3323    3.4216  -60.5371 H   0  0  0  0  0  0  0  0  0  0  0  0
    8.7063    5.7675  -59.7734 H   0  0  0  0  0  0  0  0  0  0  0  0
    7.5359    4.9188  -58.6994 H   0  0  0  0  0  0  0  0  0  0  0  0
    9.2027    6.2237  -57.3716 H   0  0  0  0  0  0  0  0  0  0  0  0
   11.0772    6.1030  -59.0132 H   0  0  0  0  0  0  0  0  0  0  0  0
   11.5920    5.5003  -57.3979 H   0  0  0  0  0  0  0  0  0  0  0  0
   12.3969    3.9941  -59.2179 H   0  0  0  0  0  0  0  0  0  0  0  0
   10.5722    4.4705  -60.8516 H   0  0  0  0  0  0  0  0  0  0  0  0
   10.7244    2.7031  -60.5449 H   0  0  0  0  0  0  0  0  0  0  0  0
   11.4447    1.8802  -58.3004 H   0  0  0  0  0  0  0  0  0  0  0  0
   11.7892    3.0690  -56.9817 H   0  0  0  0  0  0  0  0  0  0  0  0
    9.9562    4.3411  -55.9120 H   0  0  0  0  0  0  0  0  0  0  0  0
    8.2515    4.1112  -56.4598 H   0  0  0  0  0  0  0  0  0  0  0  0
    6.1671    0.0914  -52.5655 H   0  0  0  0  0  0  0  0  0  0  0  0
    6.1527    1.0574  -54.0799 H   0  0  0  0  0  0  0  0  0  0  0  0
    5.5159   -0.6222  -54.0799 H   0  0  0  0  0  0  0  0  0  0  0  0
    8.7421   -1.3448  -50.8025 H   0  0  0  0  0  0  0  0  0  0  0  0
    7.9969   -2.9230  -49.0208 H   0  0  0  0  0  0  0  0  0  0  0  0
    6.6663   -4.9450  -49.6227 H   0  0  0  0  0  0  0  0  0  0  0  0
    6.0747   -5.3887  -52.0035 H   0  0  0  0  0  0  0  0  0  0  0  0
    6.8188   -3.8121  -53.7889 H   0  0  0  0  0  0  0  0  0  0  0  0
  1  2  1  0
  2  3  1  0
  3  4  1  0
  4  5  1  0
  5  6  1  0
  6  7  2  0
  7  8  1  0
  8  9  2  0
  8 10  1  0
 11 10  1  1
 11 12  1  0
 12 13  1  0
 13 14  1  0
 14 15  1  0
 15 16  1  0
 16 17  1  0
 17 18  1  0
 17 19  1  0
 15 20  1  0
  7 21  1  0
 21 22  1  0
 21 23  2  0
 23 24  1  0
 24 25  2  0
 25 26  1  0
 26 27  2  0
 27 28  1  0
 28 29  2  0
 23  5  1  0
 29 24  1  0
 19 11  1  0
 20 11  1  0
 18 13  1  0
  1 30  1  0
  1 31  1  0
  1 32  1  0
  2 33  1  0
  2 34  1  0
  3 35  1  0
  3 36  1  0
  4 37  1  0
  4 38  1  0
 10 39  1  0
 12 40  1  0
 12 41  1  0
 13 42  1  6
 14 43  1  0
 14 44  1  0
 15 45  1  1
 16 46  1  0
 16 47  1  0
 17 48  1  6
 18 49  1  0
 18 50  1  0
 19 51  1  0
 19 52  1  0
 20 53  1  0
 20 54  1  0
 22 55  1  0
 22 56  1  0
 22 57  1  0
 25 58  1  0
 26 59  1  0
 27 60  1  0
 28 61  1  0
 29 62  1  0
M  END
>  <meeko>  (61) 
{"is_sidechain": false}

$$$$

     RDKit          3D

 53 57  0  0  0  0  0  0  0  0999 V2000
    6.0380   -0.2320  -54.2400 C   0  0  0  0  0  0  0  0  0  0  0  0
    7.4990   -0.4500  -54.4120 C   0  0  0  0  0  0  0  0  0  0  0  0
    8.3960    0.2660  -55.2720 C   0  0  0  0  0  0  0  0  0  0  0  0
    8.0800    1.3490  -56.2280 C   0  0  0  0  0  0  0  0  0  0  0  0
    6.9560    1.8250  -56.3470 O   0  0  0  0  0  0  0  0  0  0  0  0
    9.1780    1.7900  -56.9480 N   0  0  0  0  0  0  0  0  0  0  0  0
    9.1630    2.9220  -57.8780 C   0  0  2  0  0  0  0  0  0  0  0  0
    8.9510    4.2660  -57.1380 C   0  0  0  0  0  0  0  0  0  0  0  0
    9.0000    5.4420  -58.1300 C   0  0  1  0  0  0  0  0  0  0  0  0
   10.3730    5.4690  -58.8200 C   0  0  0  0  0  0  0  0  0  0  0  0
   10.6020    4.1530  -59.5820 C   0  0  2  0  0  0  0  0  0  0  0  0
    9.5020    3.9780  -60.6390 C   0  0  0  0  0  0  0  0  0  0  0  0
    8.1240    3.9420  -59.9590 C   0  0  2  0  0  0  0  0  0  0  0  0
    7.9020    5.2570  -59.1910 C   0  0  0  0  0  0  0  0  0  0  0  0
    8.0750    2.7650  -58.9700 C   0  0  0  0  0  0  0  0  0  0  0  0
   10.5410    2.9800  -58.5920 C   0  0  0  0  0  0  0  0  0  0  0  0
    9.6550   -0.1770  -55.1210 N   0  0  0  0  0  0  0  0  0  0  0  0
    9.5700   -1.1510  -54.2040 N   0  0  0  0  0  0  0  0  0  0  0  0
   10.7740   -1.8530  -53.8210 C   0  0  0  0  0  0  0  0  0  0  0  0
    8.2960   -1.3650  -53.7390 C   0  0  0  0  0  0  0  0  0  0  0  0
    7.9450   -2.3600  -52.7320 C   0  0  0  0  0  0  0  0  0  0  0  0
    7.9970   -2.0360  -51.3690 C   0  0  0  0  0  0  0  0  0  0  0  0
    7.6550   -2.9900  -50.4090 C   0  0  0  0  0  0  0  0  0  0  0  0
    7.2620   -4.2610  -50.8140 C   0  0  0  0  0  0  0  0  0  0  0  0
    6.9350   -5.1760  -49.8930 F   0  0  0  0  0  0  0  0  0  0  0  0
    7.2000   -4.5960  -52.1620 C   0  0  0  0  0  0  0  0  0  0  0  0
    7.5410   -3.6430  -53.1240 C   0  0  0  0  0  0  0  0  0  0  0  0
    5.7964   -0.1960  -53.1675 H   0  0  0  0  0  0  0  0  0  0  0  0
    5.7510    0.7189  -54.7127 H   0  0  0  0  0  0  0  0  0  0  0  0
    5.4859   -1.0577  -54.7127 H   0  0  0  0  0  0  0  0  0  0  0  0
   10.0760    1.5100  -56.5780 H   0  0  0  0  0  0  0  0  0  0  0  0
    7.9706    4.2538  -56.6394 H   0  0  0  0  0  0  0  0  0  0  0  0
    9.7528    4.3934  -56.3958 H   0  0  0  0  0  0  0  0  0  0  0  0
    8.8390    6.3872  -57.5909 H   0  0  0  0  0  0  0  0  0  0  0  0
   10.4094    6.3109  -59.5270 H   0  0  0  0  0  0  0  0  0  0  0  0
   11.1584    5.5882  -58.0591 H   0  0  0  0  0  0  0  0  0  0  0  0
   11.5860    4.1767  -60.0731 H   0  0  0  0  0  0  0  0  0  0  0  0
    9.5381    4.8201  -61.3458 H   0  0  0  0  0  0  0  0  0  0  0  0
    9.6647    3.0330  -61.1779 H   0  0  0  0  0  0  0  0  0  0  0  0
    7.3398    3.8193  -60.7206 H   0  0  0  0  0  0  0  0  0  0  0  0
    7.9326    6.1001  -59.8969 H   0  0  0  0  0  0  0  0  0  0  0  0
    6.9222    5.2214  -58.6923 H   0  0  0  0  0  0  0  0  0  0  0  0
    7.0848    2.7361  -58.4918 H   0  0  0  0  0  0  0  0  0  0  0  0
    8.2596    1.8314  -59.5217 H   0  0  0  0  0  0  0  0  0  0  0  0
   10.7020    2.0394  -59.1391 H   0  0  0  0  0  0  0  0  0  0  0  0
   11.3227    3.1236  -57.8316 H   0  0  0  0  0  0  0  0  0  0  0  0
   10.8420   -1.8927  -52.7238 H   0  0  0  0  0  0  0  0  0  0  0  0
   10.7457   -2.8762  -54.2238 H   0  0  0  0  0  0  0  0  0  0  0  0
   11.6505   -1.3244  -54.2238 H   0  0  0  0  0  0  0  0  0  0  0  0
    8.3078   -1.0285  -51.0555 H   0  0  0  0  0  0  0  0  0  0  0  0
    7.6961   -2.7380  -49.3390 H   0  0  0  0  0  0  0  0  0  0  0  0
    6.8847   -5.6043  -52.4684 H   0  0  0  0  0  0  0  0  0  0  0  0
    7.4923   -3.9003  -54.1924 H   0  0  0  0  0  0  0  0  0  0  0  0
  1  2  1  0
  2  3  1  0
  3  4  1  0
  4  5  2  0
  4  6  1  0
  7  6  1  1
  7  8  1  0
  8  9  1  0
  9 10  1  0
 10 11  1  0
 11 12  1  0
 12 13  1  0
 13 14  1  0
 13 15  1  0
 11 16  1  0
  3 17  2  0
 17 18  1  0
 18 19  1  0
 18 20  1  0
 20 21  1  0
 21 22  1  0
 22 23  2  0
 23 24  1  0
 24 25  1  0
 24 26  2  0
 26 27  1  0
 20  2  2  0
 27 21  2  0
 15  7  1  0
 16  7  1  0
 14  9  1  0
  1 28  1  0
  1 29  1  0
  1 30  1  0
  6 31  1  0
  8 32  1  0
  8 33  1  0
  9 34  1  1
 10 35  1  0
 10 36  1  0
 11 37  1  6
 12 38  1  0
 12 39  1  0
 13 40  1  6
 14 41  1  0
 14 42  1  0
 15 43  1  0
 15 44  1  0
 16 45  1  0
 16 46  1  0
 19 47  1  0
 19 48  1  0
 19 49  1  0
 22 50  1  0
 23 51  1  0
 26 52  1  0
 27 53  1  0
M  END
>  <meeko>  (62) 
{"is_sidechain": false}

$$$$

     RDKit          3D

 50 54  0  0  0  0  0  0  0  0999 V2000
    5.8950   -0.3300  -54.0460 C   0  0  0  0  0  0  0  0  0  0  0  0
    7.3570   -0.5470  -54.1960 C   0  0  0  0  0  0  0  0  0  0  0  0
    8.2340    0.1500  -55.0870 C   0  0  0  0  0  0  0  0  0  0  0  0
    7.8960    1.2390  -56.0280 C   0  0  0  0  0  0  0  0  0  0  0  0
    6.7550    1.6630  -56.1760 O   0  0  0  0  0  0  0  0  0  0  0  0
    8.9980    1.7150  -56.7030 N   0  0  0  0  0  0  0  0  0  0  0  0
    9.0110    2.7950  -57.6840 C   0  0  2  0  0  0  0  0  0  0  0  0
    7.9500    2.5740  -58.7900 C   0  0  0  0  0  0  0  0  0  0  0  0
    8.0160    3.7010  -59.8360 C   0  0  1  0  0  0  0  0  0  0  0  0
    7.7670    5.0510  -59.1440 C   0  0  0  0  0  0  0  0  0  0  0  0
    8.8360    5.2980  -58.0650 C   0  0  2  0  0  0  0  0  0  0  0  0
   10.2260    5.3010  -58.7210 C   0  0  0  0  0  0  0  0  0  0  0  0
   10.4840    3.9510  -59.4080 C   0  0  2  0  0  0  0  0  0  0  0  0
    9.4100    3.7130  -60.4820 C   0  0  0  0  0  0  0  0  0  0  0  0
   10.4070    2.8290  -58.3610 C   0  0  0  0  0  0  0  0  0  0  0  0
    8.7700    4.1720  -57.0180 C   0  0  0  0  0  0  0  0  0  0  0  0
    9.5000   -0.3100  -54.9850 N   0  0  0  0  0  0  0  0  0  0  0  0
    9.4220   -1.2640  -54.0440 N   0  0  0  0  0  0  0  0  0  0  0  0
    8.1680   -1.4550  -53.5310 C   0  0  0  0  0  0  0  0  0  0  0  0
    7.8960   -2.4310  -52.4840 C   0  0  0  0  0  0  0  0  0  0  0  0
    8.1590   -2.1300  -51.1410 C   0  0  0  0  0  0  0  0  0  0  0  0
    7.8850   -3.0630  -50.1380 C   0  0  0  0  0  0  0  0  0  0  0  0
    7.3460   -4.3040  -50.4690 C   0  0  0  0  0  0  0  0  0  0  0  0
    7.0810   -4.6150  -51.8020 C   0  0  0  0  0  0  0  0  0  0  0  0
    7.3560   -3.6820  -52.8050 C   0  0  0  0  0  0  0  0  0  0  0  0
    5.6377   -0.2918  -52.9772 H   0  0  0  0  0  0  0  0  0  0  0  0
    5.6142    0.6197  -54.5249 H   0  0  0  0  0  0  0  0  0  0  0  0
    5.3505   -1.1572  -54.5249 H   0  0  0  0  0  0  0  0  0  0  0  0
    9.8670    1.2540  -56.4400 H   0  0  0  0  0  0  0  0  0  0  0  0
    8.1388    1.6099  -59.2848 H   0  0  0  0  0  0  0  0  0  0  0  0
    6.9512    2.5756  -58.3291 H   0  0  0  0  0  0  0  0  0  0  0  0
    7.2510    3.5336  -60.6085 H   0  0  0  0  0  0  0  0  0  0  0  0
    7.8119    5.8567  -59.8916 H   0  0  0  0  0  0  0  0  0  0  0  0
    6.7745    5.0347  -58.6700 H   0  0  0  0  0  0  0  0  0  0  0  0
    8.6544    6.2673  -57.5776 H   0  0  0  0  0  0  0  0  0  0  0  0
   10.2743    6.1059  -59.4692 H   0  0  0  0  0  0  0  0  0  0  0  0
   10.9907    5.4653  -57.9475 H   0  0  0  0  0  0  0  0  0  0  0  0
   11.4799    3.9580  -59.8751 H   0  0  0  0  0  0  0  0  0  0  0  0
    9.4581    4.5179  -61.2302 H   0  0  0  0  0  0  0  0  0  0  0  0
    9.5922    2.7425  -60.9667 H   0  0  0  0  0  0  0  0  0  0  0  0
   10.5911    1.8633  -58.8544 H   0  0  0  0  0  0  0  0  0  0  0  0
   11.1667    3.0180  -57.5883 H   0  0  0  0  0  0  0  0  0  0  0  0
    9.5416    4.3438  -56.2530 H   0  0  0  0  0  0  0  0  0  0  0  0
    7.7711    4.1736  -56.5574 H   0  0  0  0  0  0  0  0  0  0  0  0
   10.2710   -1.7480  -53.7770 H   0  0  0  0  0  0  0  0  0  0  0  0
    8.5846   -1.1513  -50.8744 H   0  0  0  0  0  0  0  0  0  0  0  0
    8.0950   -2.8175  -49.0865 H   0  0  0  0  0  0  0  0  0  0  0  0
    7.1295   -5.0383  -49.6791 H   0  0  0  0  0  0  0  0  0  0  0  0
    6.6554   -5.5949  -52.0640 H   0  0  0  0  0  0  0  0  0  0  0  0
    7.1465   -3.9325  -53.8554 H   0  0  0  0  0  0  0  0  0  0  0  0
  1  2  1  0
  2  3  1  0
  3  4  1  0
  4  5  2  0
  4  6  1  0
  7  6  1  1
  7  8  1  0
  8  9  1  0
  9 10  1  0
 10 11  1  0
 11 12  1  0
 12 13  1  0
 13 14  1  0
 13 15  1  0
 11 16  1  0
  3 17  2  0
 17 18  1  0
 18 19  1  0
 19 20  1  0
 20 21  2  0
 21 22  1  0
 22 23  2  0
 23 24  1  0
 24 25  2  0
 19  2  2  0
 25 20  1  0
 15  7  1  0
 16  7  1  0
 14  9  1  0
  1 26  1  0
  1 27  1  0
  1 28  1  0
  6 29  1  0
  8 30  1  0
  8 31  1  0
  9 32  1  6
 10 33  1  0
 10 34  1  0
 11 35  1  1
 12 36  1  0
 12 37  1  0
 13 38  1  6
 14 39  1  0
 14 40  1  0
 15 41  1  0
 15 42  1  0
 16 43  1  0
 16 44  1  0
 18 45  1  0
 21 46  1  0
 22 47  1  0
 23 48  1  0
 24 49  1  0
 25 50  1  0
M  END
>  <meeko>  (63) 
{"is_sidechain": false}

$$$$

     RDKit          3D

 50 54  0  0  0  0  0  0  0  0999 V2000
    5.8880   -0.2110  -53.9620 C   0  0  0  0  0  0  0  0  0  0  0  0
    7.3440   -0.4650  -54.1150 C   0  0  0  0  0  0  0  0  0  0  0  0
    8.1530   -1.4250  -53.4250 C   0  0  0  0  0  0  0  0  0  0  0  0
    7.7640   -2.3690  -52.3760 C   0  0  0  0  0  0  0  0  0  0  0  0
    7.0320   -3.5200  -52.7040 C   0  0  0  0  0  0  0  0  0  0  0  0
    6.6510   -4.4260  -51.7120 C   0  0  0  0  0  0  0  0  0  0  0  0
    7.0070   -4.1950  -50.3850 C   0  0  0  0  0  0  0  0  0  0  0  0
    7.7460   -3.0640  -50.0480 C   0  0  0  0  0  0  0  0  0  0  0  0
    8.1260   -2.1550  -51.0400 C   0  0  0  0  0  0  0  0  0  0  0  0
    9.4180   -1.3920  -53.8750 N   0  0  0  0  0  0  0  0  0  0  0  0
    9.4300   -0.3890  -54.7570 N   0  0  0  0  0  0  0  0  0  0  0  0
    8.2120    0.1780  -54.9900 C   0  0  0  0  0  0  0  0  0  0  0  0
    7.9690    1.2590  -55.9140 C   0  0  0  0  0  0  0  0  0  0  0  0
    6.8430    1.6560  -56.1880 O   0  0  0  0  0  0  0  0  0  0  0  0
    9.1170    1.7810  -56.4790 N   0  0  0  0  0  0  0  0  0  0  0  0
    9.1240    2.8300  -57.5080 C   0  0  2  0  0  0  0  0  0  0  0  0
    8.1280    2.5170  -58.6520 C   0  0  0  0  0  0  0  0  0  0  0  0
    8.2020    3.5970  -59.7450 C   0  0  1  0  0  0  0  0  0  0  0  0
    7.8680    4.9660  -59.1280 C   0  0  0  0  0  0  0  0  0  0  0  0
    8.8750    5.3070  -58.0160 C   0  0  2  0  0  0  0  0  0  0  0  0
   10.2920    5.3370  -58.6080 C   0  0  0  0  0  0  0  0  0  0  0  0
   10.6350    3.9690  -59.2160 C   0  0  2  0  0  0  0  0  0  0  0  0
    9.6250    3.6360  -60.3250 C   0  0  0  0  0  0  0  0  0  0  0  0
   10.5510    2.8950  -58.1200 C   0  0  0  0  0  0  0  0  0  0  0  0
    8.8030    4.2290  -56.9210 C   0  0  0  0  0  0  0  0  0  0  0  0
    5.6339   -0.1667  -52.8927 H   0  0  0  0  0  0  0  0  0  0  0  0
    5.6305    0.7456  -54.4400 H   0  0  0  0  0  0  0  0  0  0  0  0
    5.3218   -1.0239  -54.4400 H   0  0  0  0  0  0  0  0  0  0  0  0
    6.7558   -3.7104  -53.7516 H   0  0  0  0  0  0  0  0  0  0  0  0
    6.0702   -5.3215  -51.9781 H   0  0  0  0  0  0  0  0  0  0  0  0
    6.7040   -4.9067  -49.6029 H   0  0  0  0  0  0  0  0  0  0  0  0
    8.0310   -2.8856  -49.0007 H   0  0  0  0  0  0  0  0  0  0  0  0
    8.7135   -1.2653  -50.7693 H   0  0  0  0  0  0  0  0  0  0  0  0
   10.3200   -0.1270  -55.1680 H   0  0  0  0  0  0  0  0  0  0  0  0
    9.9210    1.1690  -56.4770 H   0  0  0  0  0  0  0  0  0  0  0  0
    8.3778    1.5401  -59.0916 H   0  0  0  0  0  0  0  0  0  0  0  0
    7.1084    2.4992  -58.2395 H   0  0  0  0  0  0  0  0  0  0  0  0
    7.4829    3.3648  -60.5444 H   0  0  0  0  0  0  0  0  0  0  0  0
    7.9148    5.7382  -59.9100 H   0  0  0  0  0  0  0  0  0  0  0  0
    6.8565    4.9287  -58.6974 H   0  0  0  0  0  0  0  0  0  0  0  0
    8.6343    6.2898  -57.5845 H   0  0  0  0  0  0  0  0  0  0  0  0
   10.3434    6.1073  -59.3915 H   0  0  0  0  0  0  0  0  0  0  0  0
   11.0125    5.5689  -57.8098 H   0  0  0  0  0  0  0  0  0  0  0  0
   11.6510    3.9960  -59.6367 H   0  0  0  0  0  0  0  0  0  0  0  0
    9.6779    4.4057  -61.1091 H   0  0  0  0  0  0  0  0  0  0  0  0
    9.8684    2.6518  -60.7517 H   0  0  0  0  0  0  0  0  0  0  0  0
   10.7996    1.9163  -58.5563 H   0  0  0  0  0  0  0  0  0  0  0  0
   11.2619    3.1544  -57.3216 H   0  0  0  0  0  0  0  0  0  0  0  0
    9.5324    4.4659  -56.1324 H   0  0  0  0  0  0  0  0  0  0  0  0
    7.7844    4.2135  -56.5061 H   0  0  0  0  0  0  0  0  0  0  0  0
  1  2  1  0
  2  3  1  0
  3  4  1  0
  4  5  2  0
  5  6  1  0
  6  7  2  0
  7  8  1  0
  8  9  2  0
  3 10  2  0
 10 11  1  0
 11 12  1  0
 12 13  1  0
 13 14  2  0
 13 15  1  0
 16 15  1  1
 16 17  1  0
 17 18  1  0
 18 19  1  0
 19 20  1  0
 20 21  1  0
 21 22  1  0
 22 23  1  0
 22 24  1  0
 20 25  1  0
 12  2  2  0
 24 16  1  0
  9  4  1  0
 25 16  1  0
 23 18  1  0
  1 26  1  0
  1 27  1  0
  1 28  1  0
  5 29  1  0
  6 30  1  0
  7 31  1  0
  8 32  1  0
  9 33  1  0
 11 34  1  0
 15 35  1  0
 17 36  1  0
 17 37  1  0
 18 38  1  6
 19 39  1  0
 19 40  1  0
 20 41  1  1
 21 42  1  0
 21 43  1  0
 22 44  1  6
 23 45  1  0
 23 46  1  0
 24 47  1  0
 24 48  1  0
 25 49  1  0
 25 50  1  0
M  END
>  <meeko>  (64) 
{"is_sidechain": false}

$$$$

     RDKit          3D

 59 63  0  0  0  0  0  0  0  0999 V2000
    6.2490   -0.1470  -53.7240 C   0  0  0  0  0  0  0  0  0  0  0  0
    7.6510   -0.5110  -54.0580 C   0  0  0  0  0  0  0  0  0  0  0  0
    8.5010    0.0970  -55.0320 C   0  0  0  0  0  0  0  0  0  0  0  0
    8.2150    1.2560  -55.9030 C   0  0  0  0  0  0  0  0  0  0  0  0
    7.0800    1.6760  -56.1040 O   0  0  0  0  0  0  0  0  0  0  0  0
    9.3460    1.8000  -56.4920 N   0  0  0  0  0  0  0  0  0  0  0  0
    9.3330    2.8790  -57.4820 C   0  0  2  0  0  0  0  0  0  0  0  0
    8.9440    4.2410  -56.8520 C   0  0  0  0  0  0  0  0  0  0  0  0
    8.9940    5.3600  -57.9080 C   0  0  1  0  0  0  0  0  0  0  0  0
   10.4210    5.4660  -58.4690 C   0  0  0  0  0  0  0  0  0  0  0  0
   10.8280    4.1350  -59.1180 C   0  0  2  0  0  0  0  0  0  0  0  0
    9.8530    3.8040  -60.2580 C   0  0  0  0  0  0  0  0  0  0  0  0
    8.4230    3.6880  -59.7070 C   0  0  2  0  0  0  0  0  0  0  0  0
    8.0230    5.0200  -59.0510 C   0  0  0  0  0  0  0  0  0  0  0  0
    8.3720    2.5670  -58.6540 C   0  0  0  0  0  0  0  0  0  0  0  0
   10.7670    3.0210  -58.0610 C   0  0  0  0  0  0  0  0  0  0  0  0
    9.6880   -0.5250  -55.0810 N   0  0  0  0  0  0  0  0  0  0  0  0
    9.6130   -1.5110  -54.1640 N   0  0  0  0  0  0  0  0  0  0  0  0
   10.7870   -2.3710  -54.0260 C   0  0  0  0  0  0  0  0  0  0  0  0
   11.2620   -2.5290  -52.5820 C   0  0  0  0  0  0  0  0  0  0  0  0
   10.6190   -3.7190  -54.7230 C   0  0  0  0  0  0  0  0  0  0  0  0
    8.4080   -1.5360  -53.5010 C   0  0  0  0  0  0  0  0  0  0  0  0
    8.0260   -2.4730  -52.4510 C   0  0  0  0  0  0  0  0  0  0  0  0
    8.1290   -2.1020  -51.1060 C   0  0  0  0  0  0  0  0  0  0  0  0
    7.7350   -2.9860  -50.1000 C   0  0  0  0  0  0  0  0  0  0  0  0
    7.2230   -4.2380  -50.4330 C   0  0  0  0  0  0  0  0  0  0  0  0
    7.0980   -4.6080  -51.7730 C   0  0  0  0  0  0  0  0  0  0  0  0
    7.4920   -3.7240  -52.7790 C   0  0  0  0  0  0  0  0  0  0  0  0
    6.1287   -0.1158  -52.6310 H   0  0  0  0  0  0  0  0  0  0  0  0
    6.0161    0.8414  -54.1469 H   0  0  0  0  0  0  0  0  0  0  0  0
    5.5647   -0.8973  -54.1469 H   0  0  0  0  0  0  0  0  0  0  0  0
   10.1710    1.2150  -56.4570 H   0  0  0  0  0  0  0  0  0  0  0  0
    7.9243    4.1731  -56.4451 H   0  0  0  0  0  0  0  0  0  0  0  0
    9.6585    4.4779  -56.0499 H   0  0  0  0  0  0  0  0  0  0  0  0
    8.7060    6.3169  -57.4483 H   0  0  0  0  0  0  0  0  0  0  0  0
   10.4578    6.2658  -59.2233 H   0  0  0  0  0  0  0  0  0  0  0  0
   11.1164    5.6962  -57.6484 H   0  0  0  0  0  0  0  0  0  0  0  0
   11.8494    4.2151  -59.5184 H   0  0  0  0  0  0  0  0  0  0  0  0
    9.8893    4.6036  -61.0125 H   0  0  0  0  0  0  0  0  0  0  0  0
   10.1431    2.8468  -60.7159 H   0  0  0  0  0  0  0  0  0  0  0  0
    7.7282    3.4555  -60.5274 H   0  0  0  0  0  0  0  0  0  0  0  0
    8.0542    5.8204  -59.8049 H   0  0  0  0  0  0  0  0  0  0  0  0
    7.0055    4.9287  -58.6432 H   0  0  0  0  0  0  0  0  0  0  0  0
    7.3459    2.4803  -58.2673 H   0  0  0  0  0  0  0  0  0  0  0  0
    8.6812    1.6224  -59.1253 H   0  0  0  0  0  0  0  0  0  0  0  0
   11.0632    2.0687  -58.5250 H   0  0  0  0  0  0  0  0  0  0  0  0
   11.4517    3.2799  -57.2400 H   0  0  0  0  0  0  0  0  0  0  0  0
   11.5926   -1.8387  -54.5529 H   0  0  0  0  0  0  0  0  0  0  0  0
   10.4462   -2.2576  -51.8959 H   0  0  0  0  0  0  0  0  0  0  0  0
   11.5574   -3.5738  -52.4054 H   0  0  0  0  0  0  0  0  0  0  0  0
   12.1243   -1.8693  -52.4054 H   0  0  0  0  0  0  0  0  0  0  0  0
   10.5201   -4.5125  -53.9677 H   0  0  0  0  0  0  0  0  0  0  0  0
    9.7167   -3.6967  -55.3517 H   0  0  0  0  0  0  0  0  0  0  0  0
   11.4992   -3.9189  -55.3517 H   0  0  0  0  0  0  0  0  0  0  0  0
    8.5221   -1.1096  -50.8401 H   0  0  0  0  0  0  0  0  0  0  0  0
    7.8289   -2.6938  -49.0437 H   0  0  0  0  0  0  0  0  0  0  0  0
    6.9170   -4.9355  -49.6394 H   0  0  0  0  0  0  0  0  0  0  0  0
    6.6895   -5.5949  -52.0360 H   0  0  0  0  0  0  0  0  0  0  0  0
    7.3821   -4.0124  -53.8348 H   0  0  0  0  0  0  0  0  0  0  0  0
  1  2  1  0
  2  3  1  0
  3  4  1  0
  4  5  2  0
  4  6  1  0
  7  6  1  1
  7  8  1  0
  8  9  1  0
  9 10  1  0
 10 11  1  0
 11 12  1  0
 12 13  1  0
 13 14  1  0
 13 15  1  0
 11 16  1  0
  3 17  2  0
 17 18  1  0
 18 19  1  0
 19 20  1  0
 19 21  1  0
 18 22  1  0
 22 23  1  0
 23 24  2  0
 24 25  1  0
 25 26  2  0
 26 27  1  0
 27 28  2  0
 22  2  2  0
 28 23  1  0
 15  7  1  0
 16  7  1  0
 14  9  1  0
  1 29  1  0
  1 30  1  0
  1 31  1  0
  6 32  1  0
  8 33  1  0
  8 34  1  0
  9 35  1  1
 10 36  1  0
 10 37  1  0
 11 38  1  6
 12 39  1  0
 12 40  1  0
 13 41  1  6
 14 42  1  0
 14 43  1  0
 15 44  1  0
 15 45  1  0
 16 46  1  0
 16 47  1  0
 19 48  1  0
 20 49  1  0
 20 50  1  0
 20 51  1  0
 21 52  1  0
 21 53  1  0
 21 54  1  0
 24 55  1  0
 25 56  1  0
 26 57  1  0
 27 58  1  0
 28 59  1  0
M  END
>  <meeko>  (65) 
{"is_sidechain": false}

$$$$

     RDKit          3D

 57 62  0  0  0  0  0  0  0  0999 V2000
    5.8990    0.1100  -53.5990 C   0  0  0  0  0  0  0  0  0  0  0  0
    7.2330   -0.4360  -53.9620 C   0  0  0  0  0  0  0  0  0  0  0  0
    8.1220    0.0380  -54.9840 C   0  0  0  0  0  0  0  0  0  0  0  0
    7.9450    1.1920  -55.8880 C   0  0  0  0  0  0  0  0  0  0  0  0
    6.8460    1.6640  -56.1580 O   0  0  0  0  0  0  0  0  0  0  0  0
    9.1340    1.6670  -56.4180 N   0  0  0  0  0  0  0  0  0  0  0  0
    9.2320    2.7290  -57.4220 C   0  0  2  0  0  0  0  0  0  0  0  0
    8.4190    2.3900  -58.6950 C   0  0  0  0  0  0  0  0  0  0  0  0
    8.5880    3.4930  -59.7550 C   0  0  1  0  0  0  0  0  0  0  0  0
    8.1010    4.8320  -59.1730 C   0  0  0  0  0  0  0  0  0  0  0  0
    8.9270    5.2000  -57.9290 C   0  0  2  0  0  0  0  0  0  0  0  0
   10.4100    5.3100  -58.3180 C   0  0  0  0  0  0  0  0  0  0  0  0
   10.9020    3.9730  -58.8890 C   0  0  2  0  0  0  0  0  0  0  0  0
   10.0720    3.6130  -60.1310 C   0  0  0  0  0  0  0  0  0  0  0  0
   10.7240    2.8760  -57.8280 C   0  0  0  0  0  0  0  0  0  0  0  0
    8.7600    4.0980  -56.8670 C   0  0  0  0  0  0  0  0  0  0  0  0
    9.2310   -0.7180  -55.0420 N   0  0  0  0  0  0  0  0  0  0  0  0
    9.0490   -1.6560  -54.1060 N   0  0  0  0  0  0  0  0  0  0  0  0
   10.0680   -2.7070  -53.8710 C   0  0  0  0  0  0  0  0  0  0  0  0
   11.1780   -2.5380  -52.8580 C   0  0  0  0  0  0  0  0  0  0  0  0
   11.5020   -2.5560  -54.3220 C   0  0  0  0  0  0  0  0  0  0  0  0
    7.8850   -1.5210  -53.3910 C   0  0  0  0  0  0  0  0  0  0  0  0
    7.4830   -2.4030  -52.3020 C   0  0  0  0  0  0  0  0  0  0  0  0
    6.6620   -3.5070  -52.5580 C   0  0  0  0  0  0  0  0  0  0  0  0
    6.2760   -4.3540  -51.5170 C   0  0  0  0  0  0  0  0  0  0  0  0
    6.7060   -4.0990  -50.2160 C   0  0  0  0  0  0  0  0  0  0  0  0
    7.5200   -2.9980  -49.9530 C   0  0  0  0  0  0  0  0  0  0  0  0
    7.9070   -2.1500  -50.9930 C   0  0  0  0  0  0  0  0  0  0  0  0
    5.8043    0.1487  -52.5038 H   0  0  0  0  0  0  0  0  0  0  0  0
    5.7929    1.1239  -54.0123 H   0  0  0  0  0  0  0  0  0  0  0  0
    5.1125   -0.5386  -54.0123 H   0  0  0  0  0  0  0  0  0  0  0  0
    9.9260    1.0440  -56.3300 H   0  0  0  0  0  0  0  0  0  0  0  0
    8.7750    1.4345  -59.1076 H   0  0  0  0  0  0  0  0  0  0  0  0
    7.3548    2.3156  -58.4269 H   0  0  0  0  0  0  0  0  0  0  0  0
    8.0000    3.2410  -60.6498 H   0  0  0  0  0  0  0  0  0  0  0  0
    8.2143    5.6208  -59.9312 H   0  0  0  0  0  0  0  0  0  0  0  0
    7.0431    4.7364  -58.8870 H   0  0  0  0  0  0  0  0  0  0  0  0
    8.5795    6.1618  -57.5239 H   0  0  0  0  0  0  0  0  0  0  0  0
   10.5303    6.0969  -59.0771 H   0  0  0  0  0  0  0  0  0  0  0  0
   11.0006    5.5610  -57.4246 H   0  0  0  0  0  0  0  0  0  0  0  0
   11.9634    4.0568  -59.1654 H   0  0  0  0  0  0  0  0  0  0  0  0
   10.1928    4.3997  -60.8903 H   0  0  0  0  0  0  0  0  0  0  0  0
   10.4216    2.6502  -60.5320 H   0  0  0  0  0  0  0  0  0  0  0  0
   11.0812    1.9193  -58.2367 H   0  0  0  0  0  0  0  0  0  0  0  0
   11.3035    3.1551  -56.9356 H   0  0  0  0  0  0  0  0  0  0  0  0
    9.3598    4.3554  -55.9816 H   0  0  0  0  0  0  0  0  0  0  0  0
    7.6961    4.0236  -56.5974 H   0  0  0  0  0  0  0  0  0  0  0  0
    9.2700   -3.4446  -54.0416 H   0  0  0  0  0  0  0  0  0  0  0  0
   11.2635   -1.6012  -52.2879 H   0  0  0  0  0  0  0  0  0  0  0  0
   11.5208   -3.1048  -51.9798 H   0  0  0  0  0  0  0  0  0  0  0  0
   11.8253   -1.6323  -54.8243 H   0  0  0  0  0  0  0  0  0  0  0  0
   12.1808   -3.1417  -54.9594 H   0  0  0  0  0  0  0  0  0  0  0  0
    6.3192   -3.7085  -53.5836 H   0  0  0  0  0  0  0  0  0  0  0  0
    5.6328   -5.2221  -51.7237 H   0  0  0  0  0  0  0  0  0  0  0  0
    6.4030   -4.7668  -49.3961 H   0  0  0  0  0  0  0  0  0  0  0  0
    7.8577   -2.7971  -48.9256 H   0  0  0  0  0  0  0  0  0  0  0  0
    8.5471   -1.2806  -50.7823 H   0  0  0  0  0  0  0  0  0  0  0  0
  1  2  1  0
  2  3  1  0
  3  4  1  0
  4  5  2  0
  4  6  1  0
  7  6  1  1
  7  8  1  0
  8  9  1  0
  9 10  1  0
 10 11  1  0
 11 12  1  0
 12 13  1  0
 13 14  1  0
 13 15  1  0
 11 16  1  0
  3 17  2  0
 17 18  1  0
 18 19  1  0
 19 20  1  0
 20 21  1  0
 18 22  1  0
 22 23  1  0
 23 24  2  0
 24 25  1  0
 25 26  2  0
 26 27  1  0
 27 28  2  0
 22  2  2  0
 28 23  1  0
 15  7  1  0
 21 19  1  0
 16  7  1  0
 14  9  1  0
  1 29  1  0
  1 30  1  0
  1 31  1  0
  6 32  1  0
  8 33  1  0
  8 34  1  0
  9 35  1  6
 10 36  1  0
 10 37  1  0
 11 38  1  1
 12 39  1  0
 12 40  1  0
 13 41  1  6
 14 42  1  0
 14 43  1  0
 15 44  1  0
 15 45  1  0
 16 46  1  0
 16 47  1  0
 19 48  1  0
 20 49  1  0
 20 50  1  0
 21 51  1  0
 21 52  1  0
 24 53  1  0
 25 54  1  0
 26 55  1  0
 27 56  1  0
 28 57  1  0
M  END
>  <meeko>  (66) 
{"is_sidechain": false}

$$$$

     RDKit          3D

 57 62  0  0  0  0  0  0  0  0999 V2000
    6.9720    1.6930  -56.1310 O   0  0  0  0  0  0  0  0  0  0  0  0
    8.1110    1.2710  -55.9510 C   0  0  0  0  0  0  0  0  0  0  0  0
    9.2170    1.7980  -56.6020 N   0  0  0  0  0  0  0  0  0  0  0  0
    9.1620    2.8560  -57.6150 C   0  0  2  0  0  0  0  0  0  0  0  0
    8.1170    2.5400  -58.7140 C   0  0  0  0  0  0  0  0  0  0  0  0
    8.1200    3.6360  -59.7950 C   0  0  1  0  0  0  0  0  0  0  0  0
    7.7950    4.9910  -59.1450 C   0  0  0  0  0  0  0  0  0  0  0  0
    8.8500    5.3340  -58.0790 C   0  0  2  0  0  0  0  0  0  0  0  0
   10.2370    5.3940  -58.7380 C   0  0  0  0  0  0  0  0  0  0  0  0
   10.5700    4.0380  -59.3800 C   0  0  2  0  0  0  0  0  0  0  0  0
    9.5120    3.7050  -60.4440 C   0  0  0  0  0  0  0  0  0  0  0  0
   10.5550    2.9500  -58.2960 C   0  0  0  0  0  0  0  0  0  0  0  0
    8.8470    4.2410  -56.9950 C   0  0  0  0  0  0  0  0  0  0  0  0
    8.4180    0.1490  -55.0350 C   0  0  0  0  0  0  0  0  0  0  0  0
    7.5690   -0.4640  -54.0710 C   0  0  0  0  0  0  0  0  0  0  0  0
    8.3100   -1.4700  -53.4820 C   0  0  0  0  0  0  0  0  0  0  0  0
    7.9330   -2.4110  -52.4370 C   0  0  0  0  0  0  0  0  0  0  0  0
    7.4120   -3.6640  -52.7760 C   0  0  0  0  0  0  0  0  0  0  0  0
    7.0500   -4.5680  -51.7760 C   0  0  0  0  0  0  0  0  0  0  0  0
    7.2140   -4.2270  -50.4340 C   0  0  0  0  0  0  0  0  0  0  0  0
    7.7420   -2.9840  -50.0900 C   0  0  0  0  0  0  0  0  0  0  0  0
    8.1040   -2.0770  -51.0880 C   0  0  0  0  0  0  0  0  0  0  0  0
    9.5410   -1.4050  -54.0870 N   0  0  0  0  0  0  0  0  0  0  0  0
   10.7180   -2.2270  -53.8180 C   0  0  0  0  0  0  0  0  0  0  0  0
   11.1850   -2.9650  -55.0400 C   0  0  0  0  0  0  0  0  0  0  0  0
   11.5900   -4.4140  -54.9400 C   0  0  0  0  0  0  0  0  0  0  0  0
   10.3290   -4.0360  -55.6660 C   0  0  0  0  0  0  0  0  0  0  0  0
    9.6220   -0.4490  -55.0350 N   0  0  0  0  0  0  0  0  0  0  0  0
   10.0700    1.2590  -56.5520 H   0  0  0  0  0  0  0  0  0  0  0  0
    8.3617    1.5734  -59.1784 H   0  0  0  0  0  0  0  0  0  0  0  0
    7.1190    2.4987  -58.2533 H   0  0  0  0  0  0  0  0  0  0  0  0
    7.3658    3.4026  -60.5609 H   0  0  0  0  0  0  0  0  0  0  0  0
    7.7914    5.7736  -59.9180 H   0  0  0  0  0  0  0  0  0  0  0  0
    6.8063    4.9323  -58.6665 H   0  0  0  0  0  0  0  0  0  0  0  0
    8.6159    6.3078  -57.6242 H   0  0  0  0  0  0  0  0  0  0  0  0
   10.2392    6.1748  -59.5128 H   0  0  0  0  0  0  0  0  0  0  0  0
   10.9918    5.6275  -57.9727 H   0  0  0  0  0  0  0  0  0  0  0  0
   11.5641    4.0844  -59.8486 H   0  0  0  0  0  0  0  0  0  0  0  0
    9.5150    4.4864  -61.2182 H   0  0  0  0  0  0  0  0  0  0  0  0
    9.7486    2.7311  -60.8973 H   0  0  0  0  0  0  0  0  0  0  0  0
   10.7953    1.9806  -58.7570 H   0  0  0  0  0  0  0  0  0  0  0  0
   11.3006    3.2103  -57.5303 H   0  0  0  0  0  0  0  0  0  0  0  0
    9.6090    4.4801  -56.2386 H   0  0  0  0  0  0  0  0  0  0  0  0
    7.8497    4.2036  -56.5323 H   0  0  0  0  0  0  0  0  0  0  0  0
    6.5287   -0.1907  -53.8406 H   0  0  0  0  0  0  0  0  0  0  0  0
    7.2872   -3.9379  -53.8340 H   0  0  0  0  0  0  0  0  0  0  0  0
    6.6351   -5.5501  -52.0468 H   0  0  0  0  0  0  0  0  0  0  0  0
    6.9265   -4.9393  -49.6466 H   0  0  0  0  0  0  0  0  0  0  0  0
    7.8737   -2.7171  -49.0310 H   0  0  0  0  0  0  0  0  0  0  0  0
    8.5244   -1.0981  -50.8139 H   0  0  0  0  0  0  0  0  0  0  0  0
   11.5314   -1.5763  -53.4645 H   0  0  0  0  0  0  0  0  0  0  0  0
   10.4430   -2.9725  -53.0574 H   0  0  0  0  0  0  0  0  0  0  0  0
   11.6619   -2.0427  -55.4031 H   0  0  0  0  0  0  0  0  0  0  0  0
   12.4598   -4.7819  -55.5039 H   0  0  0  0  0  0  0  0  0  0  0  0
   11.8364   -5.0971  -54.1138 H   0  0  0  0  0  0  0  0  0  0  0  0
   10.2766   -4.1277  -56.7609 H   0  0  0  0  0  0  0  0  0  0  0  0
    9.2713   -4.3285  -55.5904 H   0  0  0  0  0  0  0  0  0  0  0  0
  1  2  2  0
  2  3  1  0
  4  3  1  1
  4  5  1  0
  5  6  1  0
  6  7  1  0
  7  8  1  0
  8  9  1  0
  9 10  1  0
 10 11  1  0
 10 12  1  0
  8 13  1  0
  2 14  1  0
 14 15  1  0
 15 16  2  0
 16 17  1  0
 17 18  2  0
 18 19  1  0
 19 20  2  0
 20 21  1  0
 21 22  2  0
 16 23  1  0
 23 24  1  0
 24 25  1  0
 25 26  1  0
 26 27  1  0
 23 28  1  0
 12  4  1  0
 28 14  2  0
 13  4  1  0
 22 17  1  0
 27 25  1  0
 11  6  1  0
  3 29  1  0
  5 30  1  0
  5 31  1  0
  6 32  1  6
  7 33  1  0
  7 34  1  0
  8 35  1  1
  9 36  1  0
  9 37  1  0
 10 38  1  6
 11 39  1  0
 11 40  1  0
 12 41  1  0
 12 42  1  0
 13 43  1  0
 13 44  1  0
 15 45  1  0
 18 46  1  0
 19 47  1  0
 20 48  1  0
 21 49  1  0
 22 50  1  0
 24 51  1  0
 24 52  1  0
 25 53  1  0
 26 54  1  0
 26 55  1  0
 27 56  1  0
 27 57  1  0
M  END
>  <meeko>  (67) 
{"is_sidechain": false}

$$$$

     RDKit          3D

 54 56  0  0  0  0  0  0  0  0999 V2000
    5.8940   -0.2920  -53.4600 C   0  0  0  0  0  0  0  0  0  0  0  0
    7.2620   -0.5770  -53.9660 C   0  0  0  0  0  0  0  0  0  0  0  0
    7.9740    0.1060  -55.0050 C   0  0  0  0  0  0  0  0  0  0  0  0
    7.5100    1.2170  -55.8590 C   0  0  0  0  0  0  0  0  0  0  0  0
    6.3270    1.4190  -56.1210 O   0  0  0  0  0  0  0  0  0  0  0  0
    8.5250    2.0310  -56.3290 N   0  0  0  0  0  0  0  0  0  0  0  0
    8.2690    3.1480  -57.2220 C   0  0  0  0  0  0  0  0  0  0  0  0
    8.4310    2.7190  -58.6910 C   0  0  0  0  0  0  0  0  0  0  0  0
    8.8190    3.8690  -59.6250 C   0  0  0  0  0  0  0  0  0  0  0  0
    8.3000    5.2090  -59.1240 C   0  0  0  0  0  0  0  0  0  0  0  0
    8.8630    5.5560  -57.7450 C   0  0  0  0  0  0  0  0  0  0  0  0
    9.1800    4.3280  -56.8870 C   0  0  0  0  0  0  0  0  0  0  0  0
    9.2110   -0.3990  -55.1430 N   0  0  0  0  0  0  0  0  0  0  0  0
    9.2840   -1.3940  -54.2430 N   0  0  0  0  0  0  0  0  0  0  0  0
   10.5230   -2.1500  -54.1530 C   0  0  0  0  0  0  0  0  0  0  0  0
   10.7510   -3.1120  -55.3330 C   0  0  0  0  0  0  0  0  0  0  0  0
   11.5100   -2.3910  -56.4480 C   0  0  0  0  0  0  0  0  0  0  0  0
   11.5170   -4.3660  -54.9080 C   0  0  0  0  0  0  0  0  0  0  0  0
    8.1400   -1.5460  -53.4990 C   0  0  0  0  0  0  0  0  0  0  0  0
    7.9620   -2.5340  -52.4440 C   0  0  0  0  0  0  0  0  0  0  0  0
    7.5640   -3.8380  -52.7590 C   0  0  0  0  0  0  0  0  0  0  0  0
    7.3930   -4.7840  -51.7460 C   0  0  0  0  0  0  0  0  0  0  0  0
    7.6120   -4.4300  -50.4160 C   0  0  0  0  0  0  0  0  0  0  0  0
    7.9980   -3.1300  -50.0950 C   0  0  0  0  0  0  0  0  0  0  0  0
    8.1710   -2.1830  -51.1050 C   0  0  0  0  0  0  0  0  0  0  0  0
    5.9022   -0.2937  -52.3600 H   0  0  0  0  0  0  0  0  0  0  0  0
    5.5668    0.6936  -53.8227 H   0  0  0  0  0  0  0  0  0  0  0  0
    5.2005   -1.0649  -53.8227 H   0  0  0  0  0  0  0  0  0  0  0  0
    9.4700    1.8500  -56.0190 H   0  0  0  0  0  0  0  0  0  0  0  0
    7.2283    3.4744  -57.0790 H   0  0  0  0  0  0  0  0  0  0  0  0
    9.2140    1.9482  -58.7441 H   0  0  0  0  0  0  0  0  0  0  0  0
    7.4531    2.3448  -59.0281 H   0  0  0  0  0  0  0  0  0  0  0  0
    9.9158    3.9161  -59.6940 H   0  0  0  0  0  0  0  0  0  0  0  0
    8.3669    3.6754  -60.6089 H   0  0  0  0  0  0  0  0  0  0  0  0
    8.5941    5.9938  -59.8365 H   0  0  0  0  0  0  0  0  0  0  0  0
    7.2053    5.1420  -59.0396 H   0  0  0  0  0  0  0  0  0  0  0  0
    9.7894    6.1330  -57.8824 H   0  0  0  0  0  0  0  0  0  0  0  0
    8.0885    6.1295  -57.2147 H   0  0  0  0  0  0  0  0  0  0  0  0
   10.2247    4.0317  -57.0625 H   0  0  0  0  0  0  0  0  0  0  0  0
    9.0156    4.5970  -55.8331 H   0  0  0  0  0  0  0  0  0  0  0  0
   11.3615   -1.4388  -54.1183 H   0  0  0  0  0  0  0  0  0  0  0  0
   10.4565   -2.7671  -53.2448 H   0  0  0  0  0  0  0  0  0  0  0  0
    9.7648   -3.4333  -55.6993 H   0  0  0  0  0  0  0  0  0  0  0  0
   12.2401   -1.6974  -56.0054 H   0  0  0  0  0  0  0  0  0  0  0  0
   12.0365   -3.1297  -57.0702 H   0  0  0  0  0  0  0  0  0  0  0  0
   10.7993   -1.8273  -57.0702 H   0  0  0  0  0  0  0  0  0  0  0  0
   11.5504   -4.4207  -53.8099 H   0  0  0  0  0  0  0  0  0  0  0  0
   11.0093   -5.2577  -55.3043 H   0  0  0  0  0  0  0  0  0  0  0  0
   12.5422   -4.3213  -55.3043 H   0  0  0  0  0  0  0  0  0  0  0  0
    7.3853   -4.1187  -53.8075 H   0  0  0  0  0  0  0  0  0  0  0  0
    7.0852   -5.8095  -51.9981 H   0  0  0  0  0  0  0  0  0  0  0  0
    7.4801   -5.1770  -49.6193 H   0  0  0  0  0  0  0  0  0  0  0  0
    8.1664   -2.8502  -49.0446 H   0  0  0  0  0  0  0  0  0  0  0  0
    8.4727   -1.1568  -50.8482 H   0  0  0  0  0  0  0  0  0  0  0  0
  1  2  1  0
  2  3  1  0
  3  4  1  0
  4  5  2  0
  4  6  1  0
  6  7  1  0
  7  8  1  0
  8  9  1  0
  9 10  1  0
 10 11  1  0
 11 12  1  0
  3 13  2  0
 13 14  1  0
 14 15  1  0
 15 16  1  0
 16 17  1  0
 16 18  1  0
 14 19  1  0
 19 20  1  0
 20 21  2  0
 21 22  1  0
 22 23  2  0
 23 24  1  0
 24 25  2  0
 19  2  2  0
 25 20  1  0
 12  7  1  0
  1 26  1  0
  1 27  1  0
  1 28  1  0
  6 29  1  0
  7 30  1  0
  8 31  1  0
  8 32  1  0
  9 33  1  0
  9 34  1  0
 10 35  1  0
 10 36  1  0
 11 37  1  0
 11 38  1  0
 12 39  1  0
 12 40  1  0
 15 41  1  0
 15 42  1  0
 16 43  1  0
 17 44  1  0
 17 45  1  0
 17 46  1  0
 18 47  1  0
 18 48  1  0
 18 49  1  0
 21 50  1  0
 22 51  1  0
 23 52  1  0
 24 53  1  0
 25 54  1  0
M  END
>  <meeko>  (68) 
{"is_sidechain": false}

$$$$

     RDKit          3D

 56 60  0  0  0  0  0  0  0  0999 V2000
   10.9890   -3.0850  -54.4290 C   0  0  0  0  0  0  0  0  0  0  0  0
   10.7020   -1.8440  -53.6020 C   0  0  0  0  0  0  0  0  0  0  0  0
    9.4940   -1.1650  -54.0340 N   0  0  0  0  0  0  0  0  0  0  0  0
    9.6000   -0.2000  -54.9630 N   0  0  0  0  0  0  0  0  0  0  0  0
    8.3480    0.2520  -55.1390 C   0  0  0  0  0  0  0  0  0  0  0  0
    8.0590    1.3300  -56.1070 C   0  0  0  0  0  0  0  0  0  0  0  0
    6.9430    1.8190  -56.2450 O   0  0  0  0  0  0  0  0  0  0  0  0
    9.1720    1.7480  -56.8190 N   0  0  0  0  0  0  0  0  0  0  0  0
    9.1850    2.8720  -57.7580 C   0  0  2  0  0  0  0  0  0  0  0  0
    8.0790    2.7420  -58.8360 C   0  0  0  0  0  0  0  0  0  0  0  0
    8.1560    3.9100  -59.8360 C   0  0  1  0  0  0  0  0  0  0  0  0
    7.9890    5.2370  -59.0780 C   0  0  0  0  0  0  0  0  0  0  0  0
    9.1050    5.3940  -58.0310 C   0  0  2  0  0  0  0  0  0  0  0  0
   10.4690    5.3670  -58.7380 C   0  0  0  0  0  0  0  0  0  0  0  0
   10.6450    4.0390  -59.4900 C   0  0  2  0  0  0  0  0  0  0  0  0
    9.5260    3.8920  -60.5330 C   0  0  0  0  0  0  0  0  0  0  0  0
   10.5550    2.8770  -58.4890 C   0  0  0  0  0  0  0  0  0  0  0  0
    9.0280    4.2290  -57.0280 C   0  0  0  0  0  0  0  0  0  0  0  0
    7.4300   -0.4540  -54.2930 C   0  0  0  0  0  0  0  0  0  0  0  0
    5.9660   -0.2320  -54.1600 C   0  0  0  0  0  0  0  0  0  0  0  0
    8.2060   -1.3760  -53.6060 C   0  0  0  0  0  0  0  0  0  0  0  0
    7.8220   -2.3670  -52.6100 C   0  0  0  0  0  0  0  0  0  0  0  0
    7.8160   -2.0320  -51.2500 C   0  0  0  0  0  0  0  0  0  0  0  0
    7.4440   -2.9820  -50.2970 C   0  0  0  0  0  0  0  0  0  0  0  0
    7.0770   -4.2580  -50.7080 C   0  0  0  0  0  0  0  0  0  0  0  0
    6.7210   -5.1700  -49.7930 F   0  0  0  0  0  0  0  0  0  0  0  0
    7.0730   -4.6030  -52.0550 C   0  0  0  0  0  0  0  0  0  0  0  0
    7.4440   -3.6550  -53.0110 C   0  0  0  0  0  0  0  0  0  0  0  0
   11.1855   -3.9349  -53.7588 H   0  0  0  0  0  0  0  0  0  0  0  0
   10.1196   -3.3119  -55.0636 H   0  0  0  0  0  0  0  0  0  0  0  0
   11.8697   -2.9071  -55.0636 H   0  0  0  0  0  0  0  0  0  0  0  0
   10.5852   -2.1392  -52.5488 H   0  0  0  0  0  0  0  0  0  0  0  0
   11.5449   -1.1492  -53.7316 H   0  0  0  0  0  0  0  0  0  0  0  0
   10.0610    1.4600  -56.4340 H   0  0  0  0  0  0  0  0  0  0  0  0
    8.2116    1.7936  -59.3772 H   0  0  0  0  0  0  0  0  0  0  0  0
    7.0971    2.7638  -58.3406 H   0  0  0  0  0  0  0  0  0  0  0  0
    7.3582    3.8089  -60.5865 H   0  0  0  0  0  0  0  0  0  0  0  0
    8.0402    6.0723  -59.7919 H   0  0  0  0  0  0  0  0  0  0  0  0
    7.0146    5.2389  -58.5675 H   0  0  0  0  0  0  0  0  0  0  0  0
    8.9828    6.3486  -57.4983 H   0  0  0  0  0  0  0  0  0  0  0  0
   10.5251    6.2008  -59.4533 H   0  0  0  0  0  0  0  0  0  0  0  0
   11.2668    5.4652  -57.9871 H   0  0  0  0  0  0  0  0  0  0  0  0
   11.6237    4.0255  -59.9920 H   0  0  0  0  0  0  0  0  0  0  0  0
    9.5823    4.7257  -61.2484 H   0  0  0  0  0  0  0  0  0  0  0  0
    9.6495    2.9370  -61.0647 H   0  0  0  0  0  0  0  0  0  0  0  0
   10.6768    1.9269  -59.0299 H   0  0  0  0  0  0  0  0  0  0  0  0
   11.3501    3.0003  -57.7390 H   0  0  0  0  0  0  0  0  0  0  0  0
    9.8334    4.3362  -56.2864 H   0  0  0  0  0  0  0  0  0  0  0  0
    8.0475    4.2532  -56.5300 H   0  0  0  0  0  0  0  0  0  0  0  0
    5.6967   -0.1912  -53.0943 H   0  0  0  0  0  0  0  0  0  0  0  0
    5.6937    0.7177  -54.6437 H   0  0  0  0  0  0  0  0  0  0  0  0
    5.4244   -1.0583  -54.6437 H   0  0  0  0  0  0  0  0  0  0  0  0
    8.1047   -1.0192  -50.9324 H   0  0  0  0  0  0  0  0  0  0  0  0
    7.4414   -2.7224  -49.2281 H   0  0  0  0  0  0  0  0  0  0  0  0
    6.7794   -5.6165  -52.3657 H   0  0  0  0  0  0  0  0  0  0  0  0
    7.4394   -3.9196  -54.0787 H   0  0  0  0  0  0  0  0  0  0  0  0
  1  2  1  0
  2  3  1  0
  3  4  1  0
  4  5  2  0
  5  6  1  0
  6  7  2  0
  6  8  1  0
  9  8  1  1
  9 10  1  0
 10 11  1  0
 11 12  1  0
 12 13  1  0
 13 14  1  0
 14 15  1  0
 15 16  1  0
 15 17  1  0
 13 18  1  0
  5 19  1  0
 19 20  1  0
 19 21  2  0
 21 22  1  0
 22 23  1  0
 23 24  2  0
 24 25  1  0
 25 26  1  0
 25 27  2  0
 27 28  1  0
 21  3  1  0
 28 22  2  0
 17  9  1  0
 18  9  1  0
 16 11  1  0
  1 29  1  0
  1 30  1  0
  1 31  1  0
  2 32  1  0
  2 33  1  0
  8 34  1  0
 10 35  1  0
 10 36  1  0
 11 37  1  6
 12 38  1  0
 12 39  1  0
 13 40  1  1
 14 41  1  0
 14 42  1  0
 15 43  1  6
 16 44  1  0
 16 45  1  0
 17 46  1  0
 17 47  1  0
 18 48  1  0
 18 49  1  0
 20 50  1  0
 20 51  1  0
 20 52  1  0
 23 53  1  0
 24 54  1  0
 27 55  1  0
 28 56  1  0
M  END
>  <meeko>  (69) 
{"is_sidechain": false}

$$$$

     RDKit          3D

 56 60  0  0  0  0  0  0  0  0999 V2000
    6.0700    0.0200  -54.0410 C   0  0  0  0  0  0  0  0  0  0  0  0
    7.5030   -0.3040  -54.2670 C   0  0  0  0  0  0  0  0  0  0  0  0
    8.4040    0.3170  -55.1940 C   0  0  0  0  0  0  0  0  0  0  0  0
    8.1140    1.3900  -56.1660 C   0  0  0  0  0  0  0  0  0  0  0  0
    6.9840    1.8310  -56.3460 O   0  0  0  0  0  0  0  0  0  0  0  0
    9.2380    1.8440  -56.8330 N   0  0  0  0  0  0  0  0  0  0  0  0
    9.2850    2.8270  -57.9250 C   0  0  1  0  0  0  0  0  0  0  0  0
    8.3650    2.2720  -59.0580 C   0  0  0  0  0  0  0  0  0  0  0  0
    8.3250    3.2150  -60.2690 C   0  0  2  0  0  0  0  0  0  0  0  0
    9.7450    3.3740  -60.8270 C   0  0  0  0  0  0  0  0  0  0  0  0
   10.6660    3.9530  -59.7430 C   0  0  1  0  0  0  0  0  0  0  0  0
   10.1240    5.3210  -59.3000 C   0  0  0  0  0  0  0  0  0  0  0  0
    8.7020    5.1700  -58.7270 C   0  0  1  0  0  0  0  0  0  0  0  0
    7.7930    4.5830  -59.8220 C   0  0  0  0  0  0  0  0  0  0  0  0
    8.6980    4.2150  -57.4990 C   0  0  2  0  0  0  0  0  0  0  0  0
    9.3850    4.8760  -56.2980 C   0  0  0  0  0  0  0  0  0  0  0  0
   10.7000    2.9990  -58.5360 C   0  0  0  0  0  0  0  0  0  0  0  0
    9.6330   -0.2170  -55.0960 N   0  0  0  0  0  0  0  0  0  0  0  0
    9.5260   -1.1460  -54.1340 N   0  0  0  0  0  0  0  0  0  0  0  0
   10.7010   -1.8960  -53.7520 C   0  0  0  0  0  0  0  0  0  0  0  0
    8.2610   -1.2670  -53.6170 C   0  0  0  0  0  0  0  0  0  0  0  0
    7.8930   -2.2170  -52.5760 C   0  0  0  0  0  0  0  0  0  0  0  0
    8.0130   -1.8660  -51.2270 C   0  0  0  0  0  0  0  0  0  0  0  0
    7.6660   -2.7780  -50.2290 C   0  0  0  0  0  0  0  0  0  0  0  0
    7.1940   -4.0440  -50.5750 C   0  0  0  0  0  0  0  0  0  0  0  0
    7.0690   -4.4000  -51.9170 C   0  0  0  0  0  0  0  0  0  0  0  0
    7.4160   -3.4880  -52.9150 C   0  0  0  0  0  0  0  0  0  0  0  0
    5.8703    0.0651  -52.9602 H   0  0  0  0  0  0  0  0  0  0  0  0
    5.8377    0.9933  -54.4978 H   0  0  0  0  0  0  0  0  0  0  0  0
    5.4415   -0.7587  -54.4978 H   0  0  0  0  0  0  0  0  0  0  0  0
   10.1170    1.4350  -56.5440 H   0  0  0  0  0  0  0  0  0  0  0  0
    8.7482    1.2928  -59.3810 H   0  0  0  0  0  0  0  0  0  0  0  0
    7.3440    2.1830  -58.6584 H   0  0  0  0  0  0  0  0  0  0  0  0
    7.6674    2.8009  -61.0475 H   0  0  0  0  0  0  0  0  0  0  0  0
   10.1255    2.3916  -61.1434 H   0  0  0  0  0  0  0  0  0  0  0  0
    9.7230    4.0571  -61.6889 H   0  0  0  0  0  0  0  0  0  0  0  0
   11.6836    4.0697  -60.1442 H   0  0  0  0  0  0  0  0  0  0  0  0
   10.7846    5.7405  -58.5269 H   0  0  0  0  0  0  0  0  0  0  0  0
   10.0906    5.9927  -60.1705 H   0  0  0  0  0  0  0  0  0  0  0  0
    8.3390    6.1568  -58.4038 H   0  0  0  0  0  0  0  0  0  0  0  0
    6.7739    4.4654  -59.4249 H   0  0  0  0  0  0  0  0  0  0  0  0
    7.7811    5.2650  -60.6850 H   0  0  0  0  0  0  0  0  0  0  0  0
    7.6725    4.0179  -57.1534 H   0  0  0  0  0  0  0  0  0  0  0  0
    8.9639    4.4709  -55.3660 H   0  0  0  0  0  0  0  0  0  0  0  0
   10.4647    4.6684  -56.3332 H   0  0  0  0  0  0  0  0  0  0  0  0
    9.2192    5.9629  -56.3332 H   0  0  0  0  0  0  0  0  0  0  0  0
   11.0724    2.0172  -58.8636 H   0  0  0  0  0  0  0  0  0  0  0  0
   11.3636    3.4261  -57.7697 H   0  0  0  0  0  0  0  0  0  0  0  0
   10.7680   -1.9388  -52.6549 H   0  0  0  0  0  0  0  0  0  0  0  0
   10.6314   -2.9171  -54.1552 H   0  0  0  0  0  0  0  0  0  0  0  0
   11.5978   -1.4029  -54.1552 H   0  0  0  0  0  0  0  0  0  0  0  0
    8.3824   -0.8671  -50.9517 H   0  0  0  0  0  0  0  0  0  0  0  0
    7.7648   -2.4983  -49.1697 H   0  0  0  0  0  0  0  0  0  0  0  0
    6.9201   -4.7623  -49.7882 H   0  0  0  0  0  0  0  0  0  0  0  0
    6.6972   -5.3988  -52.1892 H   0  0  0  0  0  0  0  0  0  0  0  0
    7.3140   -3.7699  -53.9734 H   0  0  0  0  0  0  0  0  0  0  0  0
  1  2  1  0
  2  3  1  0
  3  4  1  0
  4  5  2  0
  4  6  1  0
  7  6  1  1
  7  8  1  0
  8  9  1  0
  9 10  1  0
 10 11  1  0
 11 12  1  0
 12 13  1  0
 13 14  1  0
 13 15  1  0
 15 16  1  0
 11 17  1  0
  3 18  2  0
 18 19  1  0
 19 20  1  0
 19 21  1  0
 21 22  1  0
 22 23  2  0
 23 24  1  0
 24 25  2  0
 25 26  1  0
 26 27  2  0
 21  2  2  0
 27 22  1  0
 15  7  1  0
 17  7  1  0
 14  9  1  0
  1 28  1  0
  1 29  1  0
  1 30  1  0
  6 31  1  0
  8 32  1  0
  8 33  1  0
  9 34  1  6
 10 35  1  0
 10 36  1  0
 11 37  1  6
 12 38  1  0
 12 39  1  0
 13 40  1  1
 14 41  1  0
 14 42  1  0
 15 43  1  1
 16 44  1  0
 16 45  1  0
 16 46  1  0
 17 47  1  0
 17 48  1  0
 20 49  1  0
 20 50  1  0
 20 51  1  0
 23 52  1  0
 24 53  1  0
 25 54  1  0
 26 55  1  0
 27 56  1  0
M  END
>  <meeko>  (70) 
{"is_sidechain": false}

$$$$

     RDKit          3D

 56 60  0  0  0  0  0  0  0  0999 V2000
    6.0760   -0.2240  -53.9060 C   0  0  0  0  0  0  0  0  0  0  0  0
    7.5180   -0.5080  -54.1320 C   0  0  0  0  0  0  0  0  0  0  0  0
    8.4060    0.1460  -55.0500 C   0  0  0  0  0  0  0  0  0  0  0  0
    8.0920    1.2120  -56.0250 C   0  0  0  0  0  0  0  0  0  0  0  0
    6.9640    1.6730  -56.1620 O   0  0  0  0  0  0  0  0  0  0  0  0
    9.1970    1.6400  -56.7410 N   0  0  0  0  0  0  0  0  0  0  0  0
    9.2470    2.7700  -57.6820 C   0  0  1  0  0  0  0  0  0  0  0  0
    8.8810    4.1310  -57.0330 C   0  0  0  0  0  0  0  0  0  0  0  0
    8.8330    5.2510  -58.0880 C   0  0  2  0  0  0  0  0  0  0  0  0
    7.7600    4.9180  -59.1340 C   0  0  0  0  0  0  0  0  0  0  0  0
    8.1010    3.5890  -59.8220 C   0  0  1  0  0  0  0  0  0  0  0  0
    9.4690    3.7020  -60.5080 C   0  0  0  0  0  0  0  0  0  0  0  0
   10.5560    4.0230  -59.4660 C   0  0  1  0  0  0  0  0  0  0  0  0
   10.2000    5.3580  -58.7830 C   0  0  0  0  0  0  0  0  0  0  0  0
   10.6190    2.8680  -58.4270 C   0  0  1  0  0  0  0  0  0  0  0  0
   11.8450    3.0220  -57.5200 C   0  0  0  0  0  0  0  0  0  0  0  0
    8.1580    2.4800  -58.7630 C   0  0  0  0  0  0  0  0  0  0  0  0
    9.6500   -0.3460  -54.9410 N   0  0  0  0  0  0  0  0  0  0  0  0
    9.5650   -1.2890  -53.9890 N   0  0  0  0  0  0  0  0  0  0  0  0
   10.7540   -2.0310  -53.6350 C   0  0  0  0  0  0  0  0  0  0  0  0
    8.3040   -1.4360  -53.4660 C   0  0  0  0  0  0  0  0  0  0  0  0
    7.9570   -2.3880  -52.4180 C   0  0  0  0  0  0  0  0  0  0  0  0
    8.1510   -2.0620  -51.0710 C   0  0  0  0  0  0  0  0  0  0  0  0
    7.8170   -2.9760  -50.0700 C   0  0  0  0  0  0  0  0  0  0  0  0
    7.2860   -4.2200  -50.4110 C   0  0  0  0  0  0  0  0  0  0  0  0
    7.0840   -4.5480  -51.7500 C   0  0  0  0  0  0  0  0  0  0  0  0
    7.4170   -3.6350  -52.7520 C   0  0  0  0  0  0  0  0  0  0  0  0
    5.8751   -0.1844  -52.8252 H   0  0  0  0  0  0  0  0  0  0  0  0
    5.8166    0.7425  -54.3628 H   0  0  0  0  0  0  0  0  0  0  0  0
    5.4695   -1.0200  -54.3628 H   0  0  0  0  0  0  0  0  0  0  0  0
   10.0840    1.3520  -56.3510 H   0  0  0  0  0  0  0  0  0  0  0  0
    7.8949    4.0468  -56.5529 H   0  0  0  0  0  0  0  0  0  0  0  0
    9.6517    4.3830  -56.2897 H   0  0  0  0  0  0  0  0  0  0  0  0
    8.5913    6.2061  -57.5987 H   0  0  0  0  0  0  0  0  0  0  0  0
    6.7813    4.8327  -58.6391 H   0  0  0  0  0  0  0  0  0  0  0  0
    7.7253    5.7190  -59.8871 H   0  0  0  0  0  0  0  0  0  0  0  0
    7.3331    3.3534  -60.5735 H   0  0  0  0  0  0  0  0  0  0  0  0
    9.7084    2.7489  -61.0023 H   0  0  0  0  0  0  0  0  0  0  0  0
    9.4334    4.5103  -61.2532 H   0  0  0  0  0  0  0  0  0  0  0  0
   11.5422    4.1167  -59.9441 H   0  0  0  0  0  0  0  0  0  0  0  0
   10.9697    5.6002  -58.0354 H   0  0  0  0  0  0  0  0  0  0  0  0
   10.1541    6.1499  -59.5451 H   0  0  0  0  0  0  0  0  0  0  0  0
   10.7654    1.8976  -58.9239 H   0  0  0  0  0  0  0  0  0  0  0  0
   11.5294    2.9824  -56.4670 H   0  0  0  0  0  0  0  0  0  0  0  0
   12.5547    2.2059  -57.7210 H   0  0  0  0  0  0  0  0  0  0  0  0
   12.3308    3.9882  -57.7210 H   0  0  0  0  0  0  0  0  0  0  0  0
    7.1772    2.4066  -58.2704 H   0  0  0  0  0  0  0  0  0  0  0  0
    8.4172    1.5372  -59.2670 H   0  0  0  0  0  0  0  0  0  0  0  0
   10.8401   -2.0847  -52.5397 H   0  0  0  0  0  0  0  0  0  0  0  0
   10.6878   -3.0484  -54.0480 H   0  0  0  0  0  0  0  0  0  0  0  0
   11.6388   -1.5245  -54.0480 H   0  0  0  0  0  0  0  0  0  0  0  0
    8.5685   -1.0812  -50.7997 H   0  0  0  0  0  0  0  0  0  0  0  0
    7.9725   -2.7153  -49.0127 H   0  0  0  0  0  0  0  0  0  0  0  0
    7.0267   -4.9421  -49.6227 H   0  0  0  0  0  0  0  0  0  0  0  0
    6.6616   -5.5277  -52.0179 H   0  0  0  0  0  0  0  0  0  0  0  0
    7.2543   -3.8967  -53.8080 H   0  0  0  0  0  0  0  0  0  0  0  0
  1  2  1  0
  2  3  1  0
  3  4  1  0
  4  5  2  0
  4  6  1  0
  7  6  1  1
  7  8  1  0
  8  9  1  0
  9 10  1  0
 10 11  1  0
 11 12  1  0
 12 13  1  0
 13 14  1  0
 13 15  1  0
 15 16  1  0
 11 17  1  0
  3 18  2  0
 18 19  1  0
 19 20  1  0
 19 21  1  0
 21 22  1  0
 22 23  2  0
 23 24  1  0
 24 25  2  0
 25 26  1  0
 26 27  2  0
 21  2  2  0
 27 22  1  0
 15  7  1  0
 17  7  1  0
 14  9  1  0
  1 28  1  0
  1 29  1  0
  1 30  1  0
  6 31  1  0
  8 32  1  0
  8 33  1  0
  9 34  1  1
 10 35  1  0
 10 36  1  0
 11 37  1  6
 12 38  1  0
 12 39  1  0
 13 40  1  6
 14 41  1  0
 14 42  1  0
 15 43  1  6
 16 44  1  0
 16 45  1  0
 16 46  1  0
 17 47  1  0
 17 48  1  0
 20 49  1  0
 20 50  1  0
 20 51  1  0
 23 52  1  0
 24 53  1  0
 25 54  1  0
 26 55  1  0
 27 56  1  0
M  END
>  <meeko>  (71) 
{"is_sidechain": false}

$$$$

     RDKit          3D

 62 66  0  0  0  0  0  0  0  0999 V2000
   10.2200   -3.9300  -55.0770 C   0  0  0  0  0  0  0  0  0  0  0  0
   11.1600   -2.7840  -54.7430 C   0  0  0  0  0  0  0  0  0  0  0  0
   10.6080   -1.9230  -53.6120 C   0  0  0  0  0  0  0  0  0  0  0  0
    9.4230   -1.1830  -54.0160 N   0  0  0  0  0  0  0  0  0  0  0  0
    9.5450   -0.2540  -54.9780 N   0  0  0  0  0  0  0  0  0  0  0  0
    8.3060    0.2360  -55.1450 C   0  0  0  0  0  0  0  0  0  0  0  0
    8.0380    1.3070  -56.1270 C   0  0  0  0  0  0  0  0  0  0  0  0
    6.9130    1.7510  -56.3350 O   0  0  0  0  0  0  0  0  0  0  0  0
    9.1710    1.7370  -56.7990 N   0  0  0  0  0  0  0  0  0  0  0  0
    9.1890    2.7400  -57.8720 C   0  0  1  0  0  0  0  0  0  0  0  0
    8.1190    2.3960  -58.9480 C   0  0  0  0  0  0  0  0  0  0  0  0
    8.1080    3.4440  -60.0720 C   0  0  2  0  0  0  0  0  0  0  0  0
    9.4960    3.4910  -60.7300 C   0  0  0  0  0  0  0  0  0  0  0  0
   10.5600    3.8760  -59.6880 C   0  0  1  0  0  0  0  0  0  0  0  0
   10.2130    5.2520  -59.1050 C   0  0  0  0  0  0  0  0  0  0  0  0
    8.8330    5.2060  -58.4260 C   0  0  1  0  0  0  0  0  0  0  0  0
    7.7780    4.8210  -59.4790 C   0  0  0  0  0  0  0  0  0  0  0  0
    8.8180    4.1520  -57.2870 C   0  0  2  0  0  0  0  0  0  0  0  0
    9.6950    4.6150  -56.1110 C   0  0  0  0  0  0  0  0  0  0  0  0
   10.5730    2.8210  -58.5670 C   0  0  0  0  0  0  0  0  0  0  0  0
    7.3810   -0.4090  -54.2590 C   0  0  0  0  0  0  0  0  0  0  0  0
    5.9150   -0.1870  -54.1560 C   0  0  0  0  0  0  0  0  0  0  0  0
    8.1450   -1.3100  -53.5300 C   0  0  0  0  0  0  0  0  0  0  0  0
    7.7520   -2.2390  -52.4800 C   0  0  0  0  0  0  0  0  0  0  0  0
    7.3050   -3.5230  -52.8080 C   0  0  0  0  0  0  0  0  0  0  0  0
    6.9300   -4.4150  -51.8010 C   0  0  0  0  0  0  0  0  0  0  0  0
    6.9980   -4.0250  -50.4640 C   0  0  0  0  0  0  0  0  0  0  0  0
    7.4370   -2.7440  -50.1320 C   0  0  0  0  0  0  0  0  0  0  0  0
    7.8110   -1.8510  -51.1380 C   0  0  0  0  0  0  0  0  0  0  0  0
    9.8486   -4.3828  -54.1459 H   0  0  0  0  0  0  0  0  0  0  0  0
    9.3710   -3.5488  -55.6635 H   0  0  0  0  0  0  0  0  0  0  0  0
   10.7599   -4.6880  -55.6635 H   0  0  0  0  0  0  0  0  0  0  0  0
   12.1326   -3.1966  -54.4367 H   0  0  0  0  0  0  0  0  0  0  0  0
   11.2678   -2.1529  -55.6375 H   0  0  0  0  0  0  0  0  0  0  0  0
   10.3476   -2.5746  -52.7649 H   0  0  0  0  0  0  0  0  0  0  0  0
   11.3830   -1.1945  -53.3317 H   0  0  0  0  0  0  0  0  0  0  0  0
    9.9860    1.1550  -56.6790 H   0  0  0  0  0  0  0  0  0  0  0  0
    8.3466    1.4097  -59.3786 H   0  0  0  0  0  0  0  0  0  0  0  0
    7.1297    2.3889  -58.4672 H   0  0  0  0  0  0  0  0  0  0  0  0
    7.3504    3.1764  -60.8232 H   0  0  0  0  0  0  0  0  0  0  0  0
    9.7353    2.5014  -61.1464 H   0  0  0  0  0  0  0  0  0  0  0  0
    9.4892    4.2423  -61.5334 H   0  0  0  0  0  0  0  0  0  0  0  0
   11.5534    3.9183  -60.1585 H   0  0  0  0  0  0  0  0  0  0  0  0
   10.9742    5.5353  -58.3631 H   0  0  0  0  0  0  0  0  0  0  0  0
   10.1894    5.9921  -59.9185 H   0  0  0  0  0  0  0  0  0  0  0  0
    8.6112    6.1939  -57.9961 H   0  0  0  0  0  0  0  0  0  0  0  0
    6.7860    4.7855  -59.0050 H   0  0  0  0  0  0  0  0  0  0  0  0
    7.7797    5.5710  -60.2836 H   0  0  0  0  0  0  0  0  0  0  0  0
    7.8077    4.0500  -56.8641 H   0  0  0  0  0  0  0  0  0  0  0  0
    9.2029    4.3552  -55.1621 H   0  0  0  0  0  0  0  0  0  0  0  0
   10.6739    4.1162  -56.1650 H   0  0  0  0  0  0  0  0  0  0  0  0
    9.8353    5.7047  -56.1650 H   0  0  0  0  0  0  0  0  0  0  0  0
   10.8181    1.8392  -58.9984 H   0  0  0  0  0  0  0  0  0  0  0  0
   11.3269    3.1094  -57.8197 H   0  0  0  0  0  0  0  0  0  0  0  0
    5.6244   -0.1430  -53.0960 H   0  0  0  0  0  0  0  0  0  0  0  0
    5.6523    0.7612  -54.6479 H   0  0  0  0  0  0  0  0  0  0  0  0
    5.3833   -1.0149  -54.6479 H   0  0  0  0  0  0  0  0  0  0  0  0
    7.2486   -3.8312  -53.8624 H   0  0  0  0  0  0  0  0  0  0  0  0
    6.5811   -5.4249  -52.0625 H   0  0  0  0  0  0  0  0  0  0  0  0
    6.7051   -4.7285  -49.6707 H   0  0  0  0  0  0  0  0  0  0  0  0
    7.4887   -2.4368  -49.0770 H   0  0  0  0  0  0  0  0  0  0  0  0
    8.1530   -0.8394  -50.8741 H   0  0  0  0  0  0  0  0  0  0  0  0
  1  2  1  0
  2  3  1  0
  3  4  1  0
  4  5  1  0
  5  6  2  0
  6  7  1  0
  7  8  2  0
  7  9  1  0
 10  9  1  1
 10 11  1  0
 11 12  1  0
 12 13  1  0
 13 14  1  0
 14 15  1  0
 15 16  1  0
 16 17  1  0
 16 18  1  0
 18 19  1  0
 14 20  1  0
  6 21  1  0
 21 22  1  0
 21 23  2  0
 23 24  1  0
 24 25  2  0
 25 26  1  0
 26 27  2  0
 27 28  1  0
 28 29  2  0
 23  4  1  0
 29 24  1  0
 18 10  1  0
 20 10  1  0
 17 12  1  0
  1 30  1  0
  1 31  1  0
  1 32  1  0
  2 33  1  0
  2 34  1  0
  3 35  1  0
  3 36  1  0
  9 37  1  0
 11 38  1  0
 11 39  1  0
 12 40  1  6
 13 41  1  0
 13 42  1  0
 14 43  1  6
 15 44  1  0
 15 45  1  0
 16 46  1  1
 17 47  1  0
 17 48  1  0
 18 49  1  1
 19 50  1  0
 19 51  1  0
 19 52  1  0
 20 53  1  0
 20 54  1  0
 22 55  1  0
 22 56  1  0
 22 57  1  0
 25 58  1  0
 26 59  1  0
 27 60  1  0
 28 61  1  0
 29 62  1  0
M  END
>  <meeko>  (72) 
{"is_sidechain": false}

$$$$

     RDKit          3D

 62 66  0  0  0  0  0  0  0  0999 V2000
   10.1440   -4.0760  -55.3430 C   0  0  0  0  0  0  0  0  0  0  0  0
   11.1770   -3.0370  -54.9340 C   0  0  0  0  0  0  0  0  0  0  0  0
   10.7240   -2.1720  -53.7570 C   0  0  0  0  0  0  0  0  0  0  0  0
    9.5390   -1.3790  -54.0350 N   0  0  0  0  0  0  0  0  0  0  0  0
    9.6310   -0.3970  -54.9470 N   0  0  0  0  0  0  0  0  0  0  0  0
    8.3980    0.1300  -55.0160 C   0  0  0  0  0  0  0  0  0  0  0  0
    8.1010    1.2510  -55.9320 C   0  0  0  0  0  0  0  0  0  0  0  0
    6.9610    1.6460  -56.1500 O   0  0  0  0  0  0  0  0  0  0  0  0
    9.2280    1.7810  -56.5400 N   0  0  0  0  0  0  0  0  0  0  0  0
    9.2100    2.8000  -57.5970 C   0  0  1  0  0  0  0  0  0  0  0  0
    8.9240    4.2220  -57.0440 C   0  0  0  0  0  0  0  0  0  0  0  0
    8.9210    5.2610  -58.1810 C   0  0  2  0  0  0  0  0  0  0  0  0
    7.8300    4.8890  -59.1990 C   0  0  0  0  0  0  0  0  0  0  0  0
    8.1160    3.4980  -59.7890 C   0  0  1  0  0  0  0  0  0  0  0  0
    9.4890    3.5100  -60.4780 C   0  0  0  0  0  0  0  0  0  0  0  0
   10.5860    3.8710  -59.4600 C   0  0  1  0  0  0  0  0  0  0  0  0
   10.2850    5.2660  -58.8860 C   0  0  0  0  0  0  0  0  0  0  0  0
   10.5960    2.8050  -58.3350 C   0  0  1  0  0  0  0  0  0  0  0  0
   11.8050    2.9910  -57.4040 C   0  0  0  0  0  0  0  0  0  0  0  0
    8.1230    2.4600  -58.6550 C   0  0  0  0  0  0  0  0  0  0  0  0
    7.5130   -0.5280  -54.1010 C   0  0  0  0  0  0  0  0  0  0  0  0
    6.0670   -0.2650  -53.8870 C   0  0  0  0  0  0  0  0  0  0  0  0
    8.2950   -1.4780  -53.4600 C   0  0  0  0  0  0  0  0  0  0  0  0
    7.9400   -2.4360  -52.4210 C   0  0  0  0  0  0  0  0  0  0  0  0
    7.3920   -3.6780  -52.7650 C   0  0  0  0  0  0  0  0  0  0  0  0
    7.0520   -4.5950  -51.7690 C   0  0  0  0  0  0  0  0  0  0  0  0
    7.2600   -4.2780  -50.4270 C   0  0  0  0  0  0  0  0  0  0  0  0
    7.8120   -3.0450  -50.0790 C   0  0  0  0  0  0  0  0  0  0  0  0
    8.1540   -2.1270  -51.0730 C   0  0  0  0  0  0  0  0  0  0  0  0
    9.6984   -4.5242  -54.4427 H   0  0  0  0  0  0  0  0  0  0  0  0
    9.3564   -3.5943  -55.9410 H   0  0  0  0  0  0  0  0  0  0  0  0
   10.6302   -4.8608  -55.9410 H   0  0  0  0  0  0  0  0  0  0  0  0
   12.1035   -3.5574  -54.6499 H   0  0  0  0  0  0  0  0  0  0  0  0
   11.3277   -2.3679  -55.7940 H   0  0  0  0  0  0  0  0  0  0  0  0
   10.5074   -2.8323  -52.9043 H   0  0  0  0  0  0  0  0  0  0  0  0
   11.5402   -1.4656  -53.5453 H   0  0  0  0  0  0  0  0  0  0  0  0
   10.0480    1.1890  -56.4930 H   0  0  0  0  0  0  0  0  0  0  0  0
    7.9414    4.2257  -56.5496 H   0  0  0  0  0  0  0  0  0  0  0  0
    9.7148    4.4868  -56.3267 H   0  0  0  0  0  0  0  0  0  0  0  0
    8.7234    6.2589  -57.7626 H   0  0  0  0  0  0  0  0  0  0  0  0
    6.8513    4.8779  -58.6969 H   0  0  0  0  0  0  0  0  0  0  0  0
    7.8237    5.6318  -60.0103 H   0  0  0  0  0  0  0  0  0  0  0  0
    7.3388    3.2392  -60.5231 H   0  0  0  0  0  0  0  0  0  0  0  0
    9.6948    2.5141  -60.8974 H   0  0  0  0  0  0  0  0  0  0  0  0
    9.4825    4.2598  -61.2828 H   0  0  0  0  0  0  0  0  0  0  0  0
   11.5754    3.8879  -59.9403 H   0  0  0  0  0  0  0  0  0  0  0  0
   11.0677    5.5390  -58.1629 H   0  0  0  0  0  0  0  0  0  0  0  0
   10.2641    5.9974  -59.7073 H   0  0  0  0  0  0  0  0  0  0  0  0
   10.7237    1.8028  -58.7701 H   0  0  0  0  0  0  0  0  0  0  0  0
   11.4726    2.9399  -56.3567 H   0  0  0  0  0  0  0  0  0  0  0  0
   12.5403    2.1954  -57.5946 H   0  0  0  0  0  0  0  0  0  0  0  0
   12.2672    3.9708  -57.5946 H   0  0  0  0  0  0  0  0  0  0  0  0
    7.1367    2.4522  -58.1680 H   0  0  0  0  0  0  0  0  0  0  0  0
    8.3479    1.4726  -59.0844 H   0  0  0  0  0  0  0  0  0  0  0  0
    5.8570   -0.2268  -52.8079 H   0  0  0  0  0  0  0  0  0  0  0  0
    5.7972    0.6969  -54.3473 H   0  0  0  0  0  0  0  0  0  0  0  0
    5.4758   -1.0703  -54.3473 H   0  0  0  0  0  0  0  0  0  0  0  0
    7.2291   -3.9316  -53.8229 H   0  0  0  0  0  0  0  0  0  0  0  0
    6.6196   -5.5686  -52.0430 H   0  0  0  0  0  0  0  0  0  0  0  0
    6.9888   -5.0002  -49.6428 H   0  0  0  0  0  0  0  0  0  0  0  0
    7.9778   -2.7961  -49.0204 H   0  0  0  0  0  0  0  0  0  0  0  0
    8.5932   -1.1573  -50.7960 H   0  0  0  0  0  0  0  0  0  0  0  0
  1  2  1  0
  2  3  1  0
  3  4  1  0
  4  5  1  0
  5  6  2  0
  6  7  1  0
  7  8  2  0
  7  9  1  0
 10  9  1  1
 10 11  1  0
 11 12  1  0
 12 13  1  0
 13 14  1  0
 14 15  1  0
 15 16  1  0
 16 17  1  0
 16 18  1  0
 18 19  1  0
 14 20  1  0
  6 21  1  0
 21 22  1  0
 21 23  2  0
 23 24  1  0
 24 25  2  0
 25 26  1  0
 26 27  2  0
 27 28  1  0
 28 29  2  0
 23  4  1  0
 29 24  1  0
 18 10  1  0
 20 10  1  0
 17 12  1  0
  1 30  1  0
  1 31  1  0
  1 32  1  0
  2 33  1  0
  2 34  1  0
  3 35  1  0
  3 36  1  0
  9 37  1  0
 11 38  1  0
 11 39  1  0
 12 40  1  1
 13 41  1  0
 13 42  1  0
 14 43  1  6
 15 44  1  0
 15 45  1  0
 16 46  1  6
 17 47  1  0
 17 48  1  0
 18 49  1  6
 19 50  1  0
 19 51  1  0
 19 52  1  0
 20 53  1  0
 20 54  1  0
 22 55  1  0
 22 56  1  0
 22 57  1  0
 25 58  1  0
 26 59  1  0
 27 60  1  0
 28 61  1  0
 29 62  1  0
M  END
>  <meeko>  (73) 
{"is_sidechain": false}

$$$$

     RDKit          3D

 65 69  0  0  0  0  0  0  0  0999 V2000
   10.7210   -4.6090  -56.3890 C   0  0  0  0  0  0  0  0  0  0  0  0
   10.3070   -3.9170  -55.0990 C   0  0  0  0  0  0  0  0  0  0  0  0
   11.2050   -2.7350  -54.7290 C   0  0  0  0  0  0  0  0  0  0  0  0
   10.6360   -1.8820  -53.5950 C   0  0  0  0  0  0  0  0  0  0  0  0
    9.4160   -1.1950  -53.9930 N   0  0  0  0  0  0  0  0  0  0  0  0
    9.4900   -0.2650  -54.9580 N   0  0  0  0  0  0  0  0  0  0  0  0
    8.2380    0.2020  -55.0870 C   0  0  0  0  0  0  0  0  0  0  0  0
    7.9150    1.2490  -56.0780 C   0  0  0  0  0  0  0  0  0  0  0  0
    6.8070    1.7690  -56.1580 O   0  0  0  0  0  0  0  0  0  0  0  0
    8.9910    1.6060  -56.8760 N   0  0  0  0  0  0  0  0  0  0  0  0
    8.9890    2.7160  -57.8380 C   0  0  1  0  0  0  0  0  0  0  0  0
    7.7220    2.6520  -58.7340 C   0  0  0  0  0  0  0  0  0  0  0  0
    7.6870    3.8290  -59.7230 C   0  0  2  0  0  0  0  0  0  0  0  0
    8.9410    3.7790  -60.6120 C   0  0  0  0  0  0  0  0  0  0  0  0
   10.2060    3.8850  -59.7440 C   0  0  1  0  0  0  0  0  0  0  0  0
   10.1730    5.2100  -58.9680 C   0  0  0  0  0  0  0  0  0  0  0  0
    8.9310    5.2580  -58.0600 C   0  0  1  0  0  0  0  0  0  0  0  0
    7.6720    5.1500  -58.9400 C   0  0  0  0  0  0  0  0  0  0  0  0
    8.9420    4.0770  -57.0550 C   0  0  2  0  0  0  0  0  0  0  0  0
   10.0580    4.2440  -56.0130 C   0  0  0  0  0  0  0  0  0  0  0  0
   10.2410    2.7030  -58.7580 C   0  0  0  0  0  0  0  0  0  0  0  0
    7.3530   -0.4600  -54.1740 C   0  0  0  0  0  0  0  0  0  0  0  0
    5.9010   -0.2160  -53.9730 C   0  0  0  0  0  0  0  0  0  0  0  0
    8.1480   -1.3730  -53.4960 C   0  0  0  0  0  0  0  0  0  0  0  0
    7.8010   -2.3270  -52.4520 C   0  0  0  0  0  0  0  0  0  0  0  0
    7.8600   -1.9520  -51.1060 C   0  0  0  0  0  0  0  0  0  0  0  0
    7.5310   -2.8690  -50.1060 C   0  0  0  0  0  0  0  0  0  0  0  0
    7.1390   -4.1620  -50.4480 C   0  0  0  0  0  0  0  0  0  0  0  0
    7.0720   -4.5400  -51.7890 C   0  0  0  0  0  0  0  0  0  0  0  0
    7.4000   -3.6250  -52.7890 C   0  0  0  0  0  0  0  0  0  0  0  0
   11.2723   -5.5305  -56.1502 H   0  0  0  0  0  0  0  0  0  0  0  0
    9.8243   -4.8596  -56.9748 H   0  0  0  0  0  0  0  0  0  0  0  0
   11.3658   -3.9373  -56.9748 H   0  0  0  0  0  0  0  0  0  0  0  0
    9.2768   -3.5493  -55.2155 H   0  0  0  0  0  0  0  0  0  0  0  0
   10.3949   -4.6575  -54.2903 H   0  0  0  0  0  0  0  0  0  0  0  0
   12.1852   -3.1243  -54.4164 H   0  0  0  0  0  0  0  0  0  0  0  0
   11.2822   -2.0908  -55.6173 H   0  0  0  0  0  0  0  0  0  0  0  0
   10.4137   -2.5334  -52.7369 H   0  0  0  0  0  0  0  0  0  0  0  0
   11.3854   -1.1212  -53.3312 H   0  0  0  0  0  0  0  0  0  0  0  0
    9.8920    1.3140  -56.5210 H   0  0  0  0  0  0  0  0  0  0  0  0
    7.7278    1.7078  -59.2984 H   0  0  0  0  0  0  0  0  0  0  0  0
    6.8330    2.7096  -58.0888 H   0  0  0  0  0  0  0  0  0  0  0  0
    6.7851    3.7612  -60.3490 H   0  0  0  0  0  0  0  0  0  0  0  0
    8.9575    2.8284  -61.1653 H   0  0  0  0  0  0  0  0  0  0  0  0
    8.9164    4.6217  -61.3185 H   0  0  0  0  0  0  0  0  0  0  0  0
   11.1036    3.8565  -60.3792 H   0  0  0  0  0  0  0  0  0  0  0  0
   11.0793    5.2929  -58.3501 H   0  0  0  0  0  0  0  0  0  0  0  0
   10.1305    6.0455  -59.6822 H   0  0  0  0  0  0  0  0  0  0  0  0
    8.9350    6.2034  -57.4976 H   0  0  0  0  0  0  0  0  0  0  0  0
    6.7774    5.1839  -58.3008 H   0  0  0  0  0  0  0  0  0  0  0  0
    7.6564    5.9895  -59.6506 H   0  0  0  0  0  0  0  0  0  0  0  0
    8.0091    4.0722  -56.4723 H   0  0  0  0  0  0  0  0  0  0  0  0
    9.6286    4.1797  -55.0023 H   0  0  0  0  0  0  0  0  0  0  0  0
   10.8053    3.4477  -56.1452 H   0  0  0  0  0  0  0  0  0  0  0  0
   10.5394    5.2242  -56.1452 H   0  0  0  0  0  0  0  0  0  0  0  0
   10.2623    1.7606  -59.3250 H   0  0  0  0  0  0  0  0  0  0  0  0
   11.1405    2.7926  -58.1313 H   0  0  0  0  0  0  0  0  0  0  0  0
    5.6811   -0.1790  -52.8958 H   0  0  0  0  0  0  0  0  0  0  0  0
    5.6224    0.7416  -54.4372 H   0  0  0  0  0  0  0  0  0  0  0  0
    5.3247   -1.0299  -54.4372 H   0  0  0  0  0  0  0  0  0  0  0  0
    8.1666   -0.9311  -50.8343 H   0  0  0  0  0  0  0  0  0  0  0  0
    7.5812   -2.5710  -49.0483 H   0  0  0  0  0  0  0  0  0  0  0  0
    6.8822   -4.8850  -49.6598 H   0  0  0  0  0  0  0  0  0  0  0  0
    6.7604   -5.5601  -52.0578 H   0  0  0  0  0  0  0  0  0  0  0  0
    7.3434   -3.9243  -53.8460 H   0  0  0  0  0  0  0  0  0  0  0  0
  1  2  1  0
  2  3  1  0
  3  4  1  0
  4  5  1  0
  5  6  1  0
  6  7  2  0
  7  8  1  0
  8  9  2  0
  8 10  1  0
 11 10  1  1
 11 12  1  0
 12 13  1  0
 13 14  1  0
 14 15  1  0
 15 16  1  0
 16 17  1  0
 17 18  1  0
 17 19  1  0
 19 20  1  0
 15 21  1  0
  7 22  1  0
 22 23  1  0
 22 24  2  0
 24 25  1  0
 25 26  2  0
 26 27  1  0
 27 28  2  0
 28 29  1  0
 29 30  2  0
 24  5  1  0
 30 25  1  0
 19 11  1  0
 21 11  1  0
 18 13  1  0
  1 31  1  0
  1 32  1  0
  1 33  1  0
  2 34  1  0
  2 35  1  0
  3 36  1  0
  3 37  1  0
  4 38  1  0
  4 39  1  0
 10 40  1  0
 12 41  1  0
 12 42  1  0
 13 43  1  6
 14 44  1  0
 14 45  1  0
 15 46  1  6
 16 47  1  0
 16 48  1  0
 17 49  1  1
 18 50  1  0
 18 51  1  0
 19 52  1  1
 20 53  1  0
 20 54  1  0
 20 55  1  0
 21 56  1  0
 21 57  1  0
 23 58  1  0
 23 59  1  0
 23 60  1  0
 26 61  1  0
 27 62  1  0
 28 63  1  0
 29 64  1  0
 30 65  1  0
M  END
>  <meeko>  (74) 
{"is_sidechain": false}

$$$$

     RDKit          3D

 65 69  0  0  0  0  0  0  0  0999 V2000
   10.7040   -4.5220  -56.5360 C   0  0  0  0  0  0  0  0  0  0  0  0
   10.2670   -3.9460  -55.1990 C   0  0  0  0  0  0  0  0  0  0  0  0
   11.2250   -2.8530  -54.7210 C   0  0  0  0  0  0  0  0  0  0  0  0
   10.6360   -1.9900  -53.6030 C   0  0  0  0  0  0  0  0  0  0  0  0
    9.4290   -1.2780  -53.9880 N   0  0  0  0  0  0  0  0  0  0  0  0
    9.5200   -0.3400  -54.9510 N   0  0  0  0  0  0  0  0  0  0  0  0
    8.2660    0.1430  -55.0670 C   0  0  0  0  0  0  0  0  0  0  0  0
    7.9570    1.2260  -56.0250 C   0  0  0  0  0  0  0  0  0  0  0  0
    6.8370    1.7120  -56.1400 O   0  0  0  0  0  0  0  0  0  0  0  0
    9.0650    1.6180  -56.7450 N   0  0  0  0  0  0  0  0  0  0  0  0
    9.1960    2.7690  -57.6410 C   0  0  1  0  0  0  0  0  0  0  0  0
    8.8780    4.1200  -56.9480 C   0  0  0  0  0  0  0  0  0  0  0  0
    8.9220    5.2810  -57.9560 C   0  0  2  0  0  0  0  0  0  0  0  0
    7.8720    5.0450  -59.0520 C   0  0  0  0  0  0  0  0  0  0  0  0
    8.1710    3.7280  -59.7810 C   0  0  1  0  0  0  0  0  0  0  0  0
    9.5670    3.7990  -60.4160 C   0  0  0  0  0  0  0  0  0  0  0  0
   10.6310    4.0240  -59.3240 C   0  0  1  0  0  0  0  0  0  0  0  0
   10.3170    5.3460  -58.6010 C   0  0  0  0  0  0  0  0  0  0  0  0
   10.5990    2.8280  -58.3320 C   0  0  1  0  0  0  0  0  0  0  0  0
   11.7950    2.8850  -57.3750 C   0  0  0  0  0  0  0  0  0  0  0  0
    8.1360    2.5740  -58.7680 C   0  0  0  0  0  0  0  0  0  0  0  0
    7.3740   -0.5170  -54.1710 C   0  0  0  0  0  0  0  0  0  0  0  0
    5.9190   -0.2580  -54.0170 C   0  0  0  0  0  0  0  0  0  0  0  0
    8.1570   -1.4410  -53.4950 C   0  0  0  0  0  0  0  0  0  0  0  0
    7.7870   -2.3980  -52.4590 C   0  0  0  0  0  0  0  0  0  0  0  0
    7.3500   -3.6820  -52.8070 C   0  0  0  0  0  0  0  0  0  0  0  0
    6.9990   -4.5980  -51.8140 C   0  0  0  0  0  0  0  0  0  0  0  0
    7.0780   -4.2330  -50.4700 C   0  0  0  0  0  0  0  0  0  0  0  0
    7.5030   -2.9530  -50.1170 C   0  0  0  0  0  0  0  0  0  0  0  0
    7.8530   -2.0360  -51.1090 C   0  0  0  0  0  0  0  0  0  0  0  0
   11.3608   -5.3877  -56.3652 H   0  0  0  0  0  0  0  0  0  0  0  0
    9.8182   -4.8404  -57.1052 H   0  0  0  0  0  0  0  0  0  0  0  0
   11.2493   -3.7547  -57.1052 H   0  0  0  0  0  0  0  0  0  0  0  0
    9.2598   -3.5170  -55.3064 H   0  0  0  0  0  0  0  0  0  0  0  0
   10.2692   -4.7570  -54.4558 H   0  0  0  0  0  0  0  0  0  0  0  0
   12.1436   -3.3300  -54.3488 H   0  0  0  0  0  0  0  0  0  0  0  0
   11.4241   -2.1919  -55.5773 H   0  0  0  0  0  0  0  0  0  0  0  0
   10.3971   -2.6424  -52.7501 H   0  0  0  0  0  0  0  0  0  0  0  0
   11.3909   -1.2302  -53.3522 H   0  0  0  0  0  0  0  0  0  0  0  0
    9.9140    1.1560  -56.4220 H   0  0  0  0  0  0  0  0  0  0  0  0
    7.8734    4.0681  -56.5028 H   0  0  0  0  0  0  0  0  0  0  0  0
    9.6352    4.3019  -56.1711 H   0  0  0  0  0  0  0  0  0  0  0  0
    8.7096    6.2262  -57.4350 H   0  0  0  0  0  0  0  0  0  0  0  0
    6.8727    4.9913  -58.5953 H   0  0  0  0  0  0  0  0  0  0  0  0
    7.9051    5.8755  -59.7726 H   0  0  0  0  0  0  0  0  0  0  0  0
    7.4182    3.5614  -60.5656 H   0  0  0  0  0  0  0  0  0  0  0  0
    9.7771    2.8553  -60.9406 H   0  0  0  0  0  0  0  0  0  0  0  0
    9.5978    4.6364  -61.1286 H   0  0  0  0  0  0  0  0  0  0  0  0
   11.6375    4.0863  -59.7634 H   0  0  0  0  0  0  0  0  0  0  0  0
   11.0709    5.5204  -57.8192 H   0  0  0  0  0  0  0  0  0  0  0  0
   10.3364    6.1679  -59.3318 H   0  0  0  0  0  0  0  0  0  0  0  0
   10.7178    1.8722  -58.8634 H   0  0  0  0  0  0  0  0  0  0  0  0
   11.4343    2.8678  -56.3360 H   0  0  0  0  0  0  0  0  0  0  0  0
   12.4472    2.0169  -57.5511 H   0  0  0  0  0  0  0  0  0  0  0  0
   12.3617    3.8112  -57.5511 H   0  0  0  0  0  0  0  0  0  0  0  0
    7.1354    2.5280  -58.3133 H   0  0  0  0  0  0  0  0  0  0  0  0
    8.3677    1.6402  -59.3012 H   0  0  0  0  0  0  0  0  0  0  0  0
    5.6658   -0.2129  -52.9475 H   0  0  0  0  0  0  0  0  0  0  0  0
    5.6644    0.6996  -54.4947 H   0  0  0  0  0  0  0  0  0  0  0  0
    5.3496   -1.0689  -54.4947 H   0  0  0  0  0  0  0  0  0  0  0  0
    7.2831   -3.9698  -53.8666 H   0  0  0  0  0  0  0  0  0  0  0  0
    6.6603   -5.6072  -52.0911 H   0  0  0  0  0  0  0  0  0  0  0  0
    6.8046   -4.9562  -49.6875 H   0  0  0  0  0  0  0  0  0  0  0  0
    7.5624   -2.6659  -49.0568 H   0  0  0  0  0  0  0  0  0  0  0  0
    8.1821   -1.0245  -50.8285 H   0  0  0  0  0  0  0  0  0  0  0  0
  1  2  1  0
  2  3  1  0
  3  4  1  0
  4  5  1  0
  5  6  1  0
  6  7  2  0
  7  8  1  0
  8  9  2  0
  8 10  1  0
 11 10  1  1
 11 12  1  0
 12 13  1  0
 13 14  1  0
 14 15  1  0
 15 16  1  0
 16 17  1  0
 17 18  1  0
 17 19  1  0
 19 20  1  0
 15 21  1  0
  7 22  1  0
 22 23  1  0
 22 24  2  0
 24 25  1  0
 25 26  2  0
 26 27  1  0
 27 28  2  0
 28 29  1  0
 29 30  2  0
 24  5  1  0
 30 25  1  0
 19 11  1  0
 21 11  1  0
 18 13  1  0
  1 31  1  0
  1 32  1  0
  1 33  1  0
  2 34  1  0
  2 35  1  0
  3 36  1  0
  3 37  1  0
  4 38  1  0
  4 39  1  0
 10 40  1  0
 12 41  1  0
 12 42  1  0
 13 43  1  1
 14 44  1  0
 14 45  1  0
 15 46  1  6
 16 47  1  0
 16 48  1  0
 17 49  1  6
 18 50  1  0
 18 51  1  0
 19 52  1  6
 20 53  1  0
 20 54  1  0
 20 55  1  0
 21 56  1  0
 21 57  1  0
 23 58  1  0
 23 59  1  0
 23 60  1  0
 26 61  1  0
 27 62  1  0
 28 63  1  0
 29 64  1  0
 30 65  1  0
M  END
>  <meeko>  (75) 
{"is_sidechain": false}

$$$$

     RDKit          3D

 45 47  0  0  0  0  0  0  0  0999 V2000
    9.5110    2.7100  -62.1530 C   0  0  0  0  0  0  0  0  0  0  0  0
    8.8140    3.3310  -60.9970 C   0  0  0  0  0  0  0  0  0  0  0  0
    7.4130    3.2940  -60.7280 C   0  0  0  0  0  0  0  0  0  0  0  0
    6.3530    2.6470  -61.5250 C   0  0  0  0  0  0  0  0  0  0  0  0
    6.3680    2.5910  -62.7510 O   0  0  0  0  0  0  0  0  0  0  0  0
    5.3460    2.1200  -60.7390 N   0  0  0  0  0  0  0  0  0  0  0  0
    4.2110    1.4370  -61.2560 C   0  0  0  0  0  0  0  0  0  0  0  0
    3.1180    2.1920  -61.9630 C   0  0  0  0  0  0  0  0  0  0  0  0
    2.8640    1.6000  -60.6080 C   0  0  0  0  0  0  0  0  0  0  0  0
    7.1190    3.9530  -59.5880 N   0  0  0  0  0  0  0  0  0  0  0  0
    8.3070    4.4170  -59.1540 N   0  0  0  0  0  0  0  0  0  0  0  0
    8.3430    5.2040  -57.9310 C   0  0  0  0  0  0  0  0  0  0  0  0
    8.6110    4.3740  -56.6650 C   0  0  0  0  0  0  0  0  0  0  0  0
   10.0350    4.6360  -56.1680 C   0  0  0  0  0  0  0  0  0  0  0  0
    8.4150    2.8760  -56.9080 C   0  0  0  0  0  0  0  0  0  0  0  0
    9.3670    4.0570  -59.9530 C   0  0  0  0  0  0  0  0  0  0  0  0
   10.7540    4.4220  -59.6960 C   0  0  0  0  0  0  0  0  0  0  0  0
   11.2030    5.7170  -59.9760 C   0  0  0  0  0  0  0  0  0  0  0  0
   12.5310    6.0700  -59.7300 C   0  0  0  0  0  0  0  0  0  0  0  0
   13.4170    5.1290  -59.2070 C   0  0  0  0  0  0  0  0  0  0  0  0
   12.9790    3.8330  -58.9360 C   0  0  0  0  0  0  0  0  0  0  0  0
   11.6510    3.4790  -59.1820 C   0  0  0  0  0  0  0  0  0  0  0  0
   10.2854    2.0200  -61.7867 H   0  0  0  0  0  0  0  0  0  0  0  0
    8.7843    2.1545  -62.7641 H   0  0  0  0  0  0  0  0  0  0  0  0
    9.9793    3.4957  -62.7641 H   0  0  0  0  0  0  0  0  0  0  0  0
    5.4710    2.2530  -59.7380 H   0  0  0  0  0  0  0  0  0  0  0  0
    4.8562    0.5831  -61.5103 H   0  0  0  0  0  0  0  0  0  0  0  0
    3.1912    3.2832  -62.0814 H   0  0  0  0  0  0  0  0  0  0  0  0
    2.6328    2.1176  -62.9474 H   0  0  0  0  0  0  0  0  0  0  0  0
    2.7507    2.2574  -59.7334 H   0  0  0  0  0  0  0  0  0  0  0  0
    2.1151    0.9121  -60.1885 H   0  0  0  0  0  0  0  0  0  0  0  0
    9.1392    5.9569  -58.0267 H   0  0  0  0  0  0  0  0  0  0  0  0
    7.3472    5.6559  -57.8122 H   0  0  0  0  0  0  0  0  0  0  0  0
    7.8824    4.6849  -55.9018 H   0  0  0  0  0  0  0  0  0  0  0  0
   10.0449    4.6378  -55.0680 H   0  0  0  0  0  0  0  0  0  0  0  0
   10.7042    3.8459  -56.5394 H   0  0  0  0  0  0  0  0  0  0  0  0
   10.3791    5.6125  -56.5394 H   0  0  0  0  0  0  0  0  0  0  0  0
    8.3467    2.3537  -55.9423 H   0  0  0  0  0  0  0  0  0  0  0  0
    7.4882    2.7152  -57.4782 H   0  0  0  0  0  0  0  0  0  0  0  0
    9.2693    2.4822  -57.4782 H   0  0  0  0  0  0  0  0  0  0  0  0
   10.5067    6.4602  -60.3917 H   0  0  0  0  0  0  0  0  0  0  0  0
   12.8784    7.0905  -59.9488 H   0  0  0  0  0  0  0  0  0  0  0  0
   14.4620    5.4090  -59.0080 H   0  0  0  0  0  0  0  0  0  0  0  0
   13.6799    3.0896  -58.5284 H   0  0  0  0  0  0  0  0  0  0  0  0
   11.3087    2.4551  -58.9710 H   0  0  0  0  0  0  0  0  0  0  0  0
  1  2  1  0
  2  3  1  0
  3  4  1  0
  4  5  2  0
  4  6  1  0
  6  7  1  0
  7  8  1  0
  8  9  1  0
  3 10  2  0
 10 11  1  0
 11 12  1  0
 12 13  1  0
 13 14  1  0
 13 15  1  0
 11 16  1  0
 16 17  1  0
 17 18  2  0
 18 19  1  0
 19 20  2  0
 20 21  1  0
 21 22  2  0
 16  2  2  0
 22 17  1  0
  9  7  1  0
  1 23  1  0
  1 24  1  0
  1 25  1  0
  6 26  1  0
  7 27  1  0
  8 28  1  0
  8 29  1  0
  9 30  1  0
  9 31  1  0
 12 32  1  0
 12 33  1  0
 13 34  1  0
 14 35  1  0
 14 36  1  0
 14 37  1  0
 15 38  1  0
 15 39  1  0
 15 40  1  0
 18 41  1  0
 19 42  1  0
 20 43  1  0
 21 44  1  0
 22 45  1  0
M  END
>  <meeko>  (76) 
{"is_sidechain": false}

$$$$
