
     RDKit          3D

 50 54  0  0  0  0  0  0  0  0999 V2000
   -2.9760   -1.2610   -1.5742 C   0  0  0  0  0  0  0  0  0  0  0  0
   -2.7089   -0.2585   -0.5094 C   0  0  0  0  0  0  0  0  0  0  0  0
   -1.4227    0.1580   -0.0409 C   0  0  0  0  0  0  0  0  0  0  0  0
   -0.0958   -0.3222   -0.4816 C   0  0  0  0  0  0  0  0  0  0  0  0
    0.0502   -1.1997   -1.3253 O   0  0  0  0  0  0  0  0  0  0  0  0
    0.9392    0.3202    0.1624 N   0  0  0  0  0  0  0  0  0  0  0  0
    2.3641    0.0805   -0.0383 C   0  0  2  0  0  0  0  0  0  0  0  0
    2.7924    0.3756   -1.4972 C   0  0  0  0  0  0  0  0  0  0  0  0
    4.3064    0.1614   -1.6707 C   0  0  1  0  0  0  0  0  0  0  0  0
    5.0649    1.1102   -0.7293 C   0  0  0  0  0  0  0  0  0  0  0  0
    4.6744    0.8250    0.7294 C   0  0  2  0  0  0  0  0  0  0  0  0
    5.0261   -0.6303    1.0754 C   0  0  0  0  0  0  0  0  0  0  0  0
    4.2674   -1.5892    0.1444 C   0  0  2  0  0  0  0  0  0  0  0  0
    4.6559   -1.2935   -1.3143 C   0  0  0  0  0  0  0  0  0  0  0  0
    2.7533   -1.3755    0.3184 C   0  0  0  0  0  0  0  0  0  0  0  0
    3.1602    1.0308    0.8952 C   0  0  0  0  0  0  0  0  0  0  0  0
   -1.5366    1.1005    0.9179 N   0  0  0  0  0  0  0  0  0  0  0  0
   -2.8592    1.2762    1.0457 N   0  0  0  0  0  0  0  0  0  0  0  0
   -3.6211    0.4752    0.2362 C   0  0  0  0  0  0  0  0  0  0  0  0
   -5.0860    0.4728    0.2744 C   0  0  0  0  0  0  0  0  0  0  0  0
   -5.7454   -0.7558    0.4506 C   0  0  0  0  0  0  0  0  0  0  0  0
   -7.1403   -0.8225    0.5017 C   0  0  0  0  0  0  0  0  0  0  0  0
   -7.8921    0.3417    0.3783 C   0  0  0  0  0  0  0  0  0  0  0  0
   -9.6089    0.2599    0.4422 Cl  0  0  0  0  0  0  0  0  0  0  0  0
   -7.2643    1.5716    0.2058 C   0  0  0  0  0  0  0  0  0  0  0  0
   -5.8676    1.6384    0.1550 C   0  0  0  0  0  0  0  0  0  0  0  0
   -5.1641    3.2039   -0.0733 Cl  0  0  0  0  0  0  0  0  0  0  0  0
   -4.0229   -1.2488   -1.8913 H   0  0  0  0  0  0  0  0  0  0  0  0
   -2.7397   -2.2678   -1.2160 H   0  0  0  0  0  0  0  0  0  0  0  0
   -2.3692   -1.0541   -2.4615 H   0  0  0  0  0  0  0  0  0  0  0  0
    0.6298    1.0168    0.8375 H   0  0  0  0  0  0  0  0  0  0  0  0
    2.5276    1.4063   -1.7672 H   0  0  0  0  0  0  0  0  0  0  0  0
    2.2567   -0.2727   -2.2008 H   0  0  0  0  0  0  0  0  0  0  0  0
    4.5911    0.3662   -2.7089 H   0  0  0  0  0  0  0  0  0  0  0  0
    6.1465    0.9820   -0.8596 H   0  0  0  0  0  0  0  0  0  0  0  0
    4.8351    2.1525   -0.9824 H   0  0  0  0  0  0  0  0  0  0  0  0
    5.2156    1.5049    1.3967 H   0  0  0  0  0  0  0  0  0  0  0  0
    4.7683   -0.8403    2.1207 H   0  0  0  0  0  0  0  0  0  0  0  0
    6.1070   -0.7885    0.9761 H   0  0  0  0  0  0  0  0  0  0  0  0
    4.5244   -2.6250    0.3925 H   0  0  0  0  0  0  0  0  0  0  0  0
    4.1309   -1.9811   -1.9888 H   0  0  0  0  0  0  0  0  0  0  0  0
    5.7298   -1.4656   -1.4572 H   0  0  0  0  0  0  0  0  0  0  0  0
    2.4605   -1.6021    1.3520 H   0  0  0  0  0  0  0  0  0  0  0  0
    2.2160   -2.0905   -0.3160 H   0  0  0  0  0  0  0  0  0  0  0  0
    2.9029    2.0762    0.6778 H   0  0  0  0  0  0  0  0  0  0  0  0
    2.8758    0.8573    1.9418 H   0  0  0  0  0  0  0  0  0  0  0  0
   -3.1900    1.9650    1.7133 H   0  0  0  0  0  0  0  0  0  0  0  0
   -5.1728   -1.6760    0.5576 H   0  0  0  0  0  0  0  0  0  0  0  0
   -7.6292   -1.7840    0.6387 H   0  0  0  0  0  0  0  0  0  0  0  0
   -7.8598    2.4757    0.1076 H   0  0  0  0  0  0  0  0  0  0  0  0
  1  2  1  0
  2  3  1  0
  3  4  1  0
  4  5  2  0
  4  6  1  0
  7  6  1  6
  7  8  1  0
  8  9  1  0
  9 10  1  0
 10 11  1  0
 11 12  1  0
 12 13  1  0
 13 14  1  0
 13 15  1  0
 11 16  1  0
  3 17  2  0
 17 18  1  0
 18 19  1  0
 19 20  1  0
 20 21  1  0
 21 22  2  0
 22 23  1  0
 23 24  1  0
 23 25  2  0
 25 26  1  0
 26 27  1  0
 19  2  2  0
 26 20  2  0
 15  7  1  0
 16  7  1  0
 14  9  1  0
  1 28  1  0
  1 29  1  0
  1 30  1  0
  6 31  1  0
  8 32  1  0
  8 33  1  0
  9 34  1  6
 10 35  1  0
 10 36  1  0
 11 37  1  1
 12 38  1  0
 12 39  1  0
 13 40  1  1
 14 41  1  0
 14 42  1  0
 15 43  1  0
 15 44  1  0
 16 45  1  0
 16 46  1  0
 18 47  1  0
 21 48  1  0
 22 49  1  0
 25 50  1  0
M  END
>  <_SMILES>  (1) 
Cc1c(C(=O)N[C@]23C[C@H]4C[C@H](C[C@H](C4)C2)C3)n[nH]c1-c1ccc(Cl)cc1Cl

$$$$

     RDKit          3D

 50 54  0  0  0  0  0  0  0  0999 V2000
    2.8672    0.8798    1.6554 C   0  0  0  0  0  0  0  0  0  0  0  0
    2.6628    0.4622    0.2434 C   0  0  0  0  0  0  0  0  0  0  0  0
    3.6470    0.0747   -0.7168 C   0  0  0  0  0  0  0  0  0  0  0  0
    5.0928   -0.0206   -0.5506 C   0  0  0  0  0  0  0  0  0  0  0  0
    5.9043    0.8761   -1.2656 C   0  0  0  0  0  0  0  0  0  0  0  0
    7.2943    0.8329   -1.1385 C   0  0  0  0  0  0  0  0  0  0  0  0
    7.8804   -0.1118   -0.3000 C   0  0  0  0  0  0  0  0  0  0  0  0
    9.5928   -0.1655   -0.1423 Cl  0  0  0  0  0  0  0  0  0  0  0  0
    7.0926   -1.0166    0.4082 C   0  0  0  0  0  0  0  0  0  0  0  0
    5.6999   -0.9750    0.2814 C   0  0  0  0  0  0  0  0  0  0  0  0
    4.7893   -2.1529    1.1647 Cl  0  0  0  0  0  0  0  0  0  0  0  0
    3.0866   -0.1790   -1.9079 N   0  0  0  0  0  0  0  0  0  0  0  0
    1.7781    0.0079   -1.7025 N   0  0  0  0  0  0  0  0  0  0  0  0
    1.4494    0.3526   -0.4228 C   0  0  0  0  0  0  0  0  0  0  0  0
    0.1077    0.6022    0.0462 C   0  0  0  0  0  0  0  0  0  0  0  0
   -0.1413    1.3771    0.9611 O   0  0  0  0  0  0  0  0  0  0  0  0
   -0.8604   -0.1339   -0.6109 N   0  0  0  0  0  0  0  0  0  0  0  0
   -2.2868   -0.1180   -0.2572 C   0  0  2  0  0  0  0  0  0  0  0  0
   -2.5284   -0.6646    1.1713 C   0  0  0  0  0  0  0  0  0  0  0  0
   -4.0336   -0.6955    1.4910 C   0  0  1  0  0  0  0  0  0  0  0  0
   -4.6056    0.7279    1.3776 C   0  0  0  0  0  0  0  0  0  0  0  0
   -4.4064    1.2671   -0.0494 C   0  0  2  0  0  0  0  0  0  0  0  0
   -5.1201    0.3411   -1.0460 C   0  0  0  0  0  0  0  0  0  0  0  0
   -4.5451   -1.0797   -0.9439 C   0  0  2  0  0  0  0  0  0  0  0  0
   -4.7485   -1.6103    0.4840 C   0  0  0  0  0  0  0  0  0  0  0  0
   -3.0410   -1.0381   -1.2567 C   0  0  0  0  0  0  0  0  0  0  0  0
   -2.9018    1.3006   -0.3721 C   0  0  0  0  0  0  0  0  0  0  0  0
    3.9283    0.9577    1.9093 H   0  0  0  0  0  0  0  0  0  0  0  0
    2.4168    1.8614    1.8343 H   0  0  0  0  0  0  0  0  0  0  0  0
    2.4072    0.1573    2.3370 H   0  0  0  0  0  0  0  0  0  0  0  0
    5.4491    1.6100   -1.9290 H   0  0  0  0  0  0  0  0  0  0  0  0
    7.9087    1.5339   -1.6978 H   0  0  0  0  0  0  0  0  0  0  0  0
    7.5610   -1.7565    1.0519 H   0  0  0  0  0  0  0  0  0  0  0  0
    1.1510   -0.0966   -2.4925 H   0  0  0  0  0  0  0  0  0  0  0  0
   -0.5346   -0.9818   -1.0542 H   0  0  0  0  0  0  0  0  0  0  0  0
   -2.0163   -0.0471    1.9187 H   0  0  0  0  0  0  0  0  0  0  0  0
   -2.1059   -1.6736    1.2656 H   0  0  0  0  0  0  0  0  0  0  0  0
   -4.1865   -1.0752    2.5074 H   0  0  0  0  0  0  0  0  0  0  0  0
   -4.1118    1.3890    2.1004 H   0  0  0  0  0  0  0  0  0  0  0  0
   -5.6733    0.7225    1.6291 H   0  0  0  0  0  0  0  0  0  0  0  0
   -4.8217    2.2784   -0.1234 H   0  0  0  0  0  0  0  0  0  0  0  0
   -4.9976    0.7232   -2.0669 H   0  0  0  0  0  0  0  0  0  0  0  0
   -6.1972    0.3258   -0.8389 H   0  0  0  0  0  0  0  0  0  0  0  0
   -5.0538   -1.7366   -1.6583 H   0  0  0  0  0  0  0  0  0  0  0  0
   -5.8193   -1.6592    0.7166 H   0  0  0  0  0  0  0  0  0  0  0  0
   -4.3585   -2.6325    0.5635 H   0  0  0  0  0  0  0  0  0  0  0  0
   -2.6299   -2.0558   -1.2171 H   0  0  0  0  0  0  0  0  0  0  0  0
   -2.8850   -0.6855   -2.2851 H   0  0  0  0  0  0  0  0  0  0  0  0
   -2.7447    1.6988   -1.3831 H   0  0  0  0  0  0  0  0  0  0  0  0
   -2.4120    2.0019    0.3125 H   0  0  0  0  0  0  0  0  0  0  0  0
  1  2  1  0
  2  3  1  0
  3  4  1  0
  4  5  1  0
  5  6  2  0
  6  7  1  0
  7  8  1  0
  7  9  2  0
  9 10  1  0
 10 11  1  0
  3 12  2  0
 12 13  1  0
 13 14  1  0
 14 15  1  0
 15 16  2  0
 15 17  1  0
 18 17  1  6
 18 19  1  0
 19 20  1  0
 20 21  1  0
 21 22  1  0
 22 23  1  0
 23 24  1  0
 24 25  1  0
 24 26  1  0
 22 27  1  0
 14  2  2  0
 26 18  1  0
 10  4  2  0
 27 18  1  0
 25 20  1  0
  1 28  1  0
  1 29  1  0
  1 30  1  0
  5 31  1  0
  6 32  1  0
  9 33  1  0
 13 34  1  0
 17 35  1  0
 19 36  1  0
 19 37  1  0
 20 38  1  1
 21 39  1  0
 21 40  1  0
 22 41  1  1
 23 42  1  0
 23 43  1  0
 24 44  1  6
 25 45  1  0
 25 46  1  0
 26 47  1  0
 26 48  1  0
 27 49  1  0
 27 50  1  0
M  END
>  <_SMILES>  (2) 
Cc1c(-c2ccc(Cl)cc2Cl)n[nH]c1C(=O)N[C@]12C[C@H]3C[C@H](C[C@H](C3)C1)C2

$$$$

     RDKit          3D

 56 60  0  0  0  0  0  0  0  0999 V2000
    3.1338   -0.2605    3.3330 C   0  0  0  0  0  0  0  0  0  0  0  0
    3.1898    0.8549    2.3037 C   0  0  0  0  0  0  0  0  0  0  0  0
    2.6196    0.4609    1.0253 N   0  0  0  0  0  0  0  0  0  0  0  0
    1.2781    0.4052    0.9192 N   0  0  0  0  0  0  0  0  0  0  0  0
    1.0550    0.0493   -0.3613 C   0  0  0  0  0  0  0  0  0  0  0  0
   -0.3172   -0.1243   -0.8741 C   0  0  0  0  0  0  0  0  0  0  0  0
   -0.5526   -0.4030   -2.0424 O   0  0  0  0  0  0  0  0  0  0  0  0
   -1.2750    0.0672    0.0958 N   0  0  0  0  0  0  0  0  0  0  0  0
   -2.7198   -0.0270   -0.0889 C   0  0  2  0  0  0  0  0  0  0  0  0
   -3.4103    0.2612    1.2707 C   0  0  0  0  0  0  0  0  0  0  0  0
   -4.9394    0.1768    1.1407 C   0  0  1  0  0  0  0  0  0  0  0  0
   -5.4151    1.2091    0.1065 C   0  0  0  0  0  0  0  0  0  0  0  0
   -4.7624    0.9263   -1.2559 C   0  0  2  0  0  0  0  0  0  0  0  0
   -5.1481   -0.4889   -1.7191 C   0  0  0  0  0  0  0  0  0  0  0  0
   -4.6749   -1.5301   -0.6904 C   0  0  2  0  0  0  0  0  0  0  0  0
   -5.3281   -1.2331    0.6686 C   0  0  0  0  0  0  0  0  0  0  0  0
   -3.1449   -1.4434   -0.5494 C   0  0  0  0  0  0  0  0  0  0  0  0
   -3.2325    1.0136   -1.1150 C   0  0  0  0  0  0  0  0  0  0  0  0
    2.2751   -0.1079   -1.0752 C   0  0  0  0  0  0  0  0  0  0  0  0
    2.3840   -0.5054   -2.5018 C   0  0  0  0  0  0  0  0  0  0  0  0
    1.8404    0.4208   -3.3303 F   0  0  0  0  0  0  0  0  0  0  0  0
    3.6787   -0.6461   -2.8983 F   0  0  0  0  0  0  0  0  0  0  0  0
    1.7872   -1.6961   -2.7542 F   0  0  0  0  0  0  0  0  0  0  0  0
    3.2750    0.1865   -0.1519 C   0  0  0  0  0  0  0  0  0  0  0  0
    4.7257    0.2219   -0.3186 C   0  0  0  0  0  0  0  0  0  0  0  0
    5.3191    1.2578   -1.0529 C   0  0  0  0  0  0  0  0  0  0  0  0
    6.7057    1.2918   -1.2199 C   0  0  0  0  0  0  0  0  0  0  0  0
    7.4936    0.2923   -0.6564 C   0  0  0  0  0  0  0  0  0  0  0  0
    8.8221    0.3330   -0.8181 F   0  0  0  0  0  0  0  0  0  0  0  0
    6.9259   -0.7434    0.0716 C   0  0  0  0  0  0  0  0  0  0  0  0
    5.5457   -0.7722    0.2337 C   0  0  0  0  0  0  0  0  0  0  0  0
    5.0037   -1.7755    0.9396 F   0  0  0  0  0  0  0  0  0  0  0  0
    3.5774    0.0721    4.2764 H   0  0  0  0  0  0  0  0  0  0  0  0
    3.6799   -1.1451    2.9918 H   0  0  0  0  0  0  0  0  0  0  0  0
    2.1007   -0.5644    3.5324 H   0  0  0  0  0  0  0  0  0  0  0  0
    4.2220    1.1804    2.1463 H   0  0  0  0  0  0  0  0  0  0  0  0
    2.6240    1.7264    2.6528 H   0  0  0  0  0  0  0  0  0  0  0  0
   -0.8950    0.3032    1.0103 H   0  0  0  0  0  0  0  0  0  0  0  0
   -3.1244    1.2569    1.6356 H   0  0  0  0  0  0  0  0  0  0  0  0
   -3.0634   -0.4535    2.0291 H   0  0  0  0  0  0  0  0  0  0  0  0
   -5.4053    0.3834    2.1107 H   0  0  0  0  0  0  0  0  0  0  0  0
   -5.1591    2.2216    0.4419 H   0  0  0  0  0  0  0  0  0  0  0  0
   -6.5074    1.1710    0.0140 H   0  0  0  0  0  0  0  0  0  0  0  0
   -5.1077    1.6624   -1.9904 H   0  0  0  0  0  0  0  0  0  0  0  0
   -4.6992   -0.6982   -2.6979 H   0  0  0  0  0  0  0  0  0  0  0  0
   -6.2355   -0.5570   -1.8466 H   0  0  0  0  0  0  0  0  0  0  0  0
   -4.9580   -2.5346   -1.0243 H   0  0  0  0  0  0  0  0  0  0  0  0
   -6.4189   -1.3132    0.5858 H   0  0  0  0  0  0  0  0  0  0  0  0
   -5.0094   -1.9776    1.4085 H   0  0  0  0  0  0  0  0  0  0  0  0
   -2.7928   -2.1954    0.1690 H   0  0  0  0  0  0  0  0  0  0  0  0
   -2.6824   -1.6975   -1.5105 H   0  0  0  0  0  0  0  0  0  0  0  0
   -2.7731    0.8531   -2.0976 H   0  0  0  0  0  0  0  0  0  0  0  0
   -2.9433    2.0258   -0.8027 H   0  0  0  0  0  0  0  0  0  0  0  0
    4.7095    2.0394   -1.5021 H   0  0  0  0  0  0  0  0  0  0  0  0
    7.1757    2.0880   -1.7899 H   0  0  0  0  0  0  0  0  0  0  0  0
    7.5478   -1.5189    0.5028 H   0  0  0  0  0  0  0  0  0  0  0  0
  1  2  1  0
  2  3  1  0
  3  4  1  0
  4  5  2  0
  5  6  1  0
  6  7  2  0
  6  8  1  0
  9  8  1  1
  9 10  1  0
 10 11  1  0
 11 12  1  0
 12 13  1  0
 13 14  1  0
 14 15  1  0
 15 16  1  0
 15 17  1  0
 13 18  1  0
  5 19  1  0
 19 20  1  0
 20 21  1  0
 20 22  1  0
 20 23  1  0
 19 24  2  0
 24 25  1  0
 25 26  1  0
 26 27  2  0
 27 28  1  0
 28 29  1  0
 28 30  2  0
 30 31  1  0
 31 32  1  0
 24  3  1  0
 31 25  2  0
 17  9  1  0
 18  9  1  0
 16 11  1  0
  1 33  1  0
  1 34  1  0
  1 35  1  0
  2 36  1  0
  2 37  1  0
  8 38  1  0
 10 39  1  0
 10 40  1  0
 11 41  1  1
 12 42  1  0
 12 43  1  0
 13 44  1  6
 14 45  1  0
 14 46  1  0
 15 47  1  6
 16 48  1  0
 16 49  1  0
 17 50  1  0
 17 51  1  0
 18 52  1  0
 18 53  1  0
 26 54  1  0
 27 55  1  0
 30 56  1  0
M  END
>  <_SMILES>  (3) 
CCn1nc(C(=O)N[C@]23C[C@H]4C[C@H](C[C@H](C4)C2)C3)c(C(F)(F)F)c1-c1ccc(F)cc1F

$$$$

     RDKit          3D

 48 50  0  0  0  0  0  0  0  0999 V2000
    2.3916    2.3348   -1.0794 C   0  0  0  0  0  0  0  0  0  0  0  0
    2.1113    0.9619   -0.5853 C   0  0  0  0  0  0  0  0  0  0  0  0
    0.8401    0.3119   -0.5497 C   0  0  0  0  0  0  0  0  0  0  0  0
   -0.4633    0.8461   -0.9913 C   0  0  0  0  0  0  0  0  0  0  0  0
   -0.6173    1.9841   -1.4241 O   0  0  0  0  0  0  0  0  0  0  0  0
   -1.4903   -0.0646   -0.8503 N   0  0  0  0  0  0  0  0  0  0  0  0
   -2.8891    0.2861   -1.0161 C   0  0  1  0  0  0  0  0  0  0  0  0
   -3.6920   -0.9617   -1.4183 C   0  0  0  0  0  0  0  0  0  0  0  0
   -5.1472   -0.8595   -0.9791 C   0  0  0  0  0  0  0  0  0  0  0  0
   -5.2660   -0.7808    0.5532 C   0  0  2  0  0  0  0  0  0  0  0  0
   -6.6042   -0.1517    0.9445 C   0  0  0  0  0  0  0  0  0  0  0  0
   -4.0835   -0.0363    1.2016 C   0  0  0  0  0  0  0  0  0  0  0  0
   -3.4430    0.9690    0.2482 C   0  0  0  0  0  0  0  0  0  0  0  0
    0.9405   -0.9272   -0.0247 N   0  0  0  0  0  0  0  0  0  0  0  0
    2.2517   -1.0664    0.2451 N   0  0  0  0  0  0  0  0  0  0  0  0
    2.7243   -2.3173    0.7947 C   0  0  0  0  0  0  0  0  0  0  0  0
    3.0038    0.0421   -0.0553 C   0  0  0  0  0  0  0  0  0  0  0  0
    4.4431    0.1347    0.1584 C   0  0  0  0  0  0  0  0  0  0  0  0
    5.3199    0.0826   -0.9309 C   0  0  0  0  0  0  0  0  0  0  0  0
    6.6988    0.1652   -0.7287 C   0  0  0  0  0  0  0  0  0  0  0  0
    7.2075    0.3040    0.5620 C   0  0  0  0  0  0  0  0  0  0  0  0
    6.3392    0.3637    1.6513 C   0  0  0  0  0  0  0  0  0  0  0  0
    4.9600    0.2808    1.4507 C   0  0  0  0  0  0  0  0  0  0  0  0
    1.7957    3.0691   -0.5278 H   0  0  0  0  0  0  0  0  0  0  0  0
    3.4445    2.6062   -0.9576 H   0  0  0  0  0  0  0  0  0  0  0  0
    2.1462    2.4145   -2.1433 H   0  0  0  0  0  0  0  0  0  0  0  0
   -1.2219   -0.9120   -0.3544 H   0  0  0  0  0  0  0  0  0  0  0  0
   -2.9425    1.0182   -1.8322 H   0  0  0  0  0  0  0  0  0  0  0  0
   -3.6347   -1.0960   -2.5053 H   0  0  0  0  0  0  0  0  0  0  0  0
   -3.2527   -1.8666   -0.9777 H   0  0  0  0  0  0  0  0  0  0  0  0
   -5.6009    0.0227   -1.4489 H   0  0  0  0  0  0  0  0  0  0  0  0
   -5.7087   -1.7281   -1.3436 H   0  0  0  0  0  0  0  0  0  0  0  0
   -5.2631   -1.8044    0.9514 H   0  0  0  0  0  0  0  0  0  0  0  0
   -6.7389   -0.1698    2.0312 H   0  0  0  0  0  0  0  0  0  0  0  0
   -7.4378   -0.7022    0.4959 H   0  0  0  0  0  0  0  0  0  0  0  0
   -6.6667    0.8904    0.6133 H   0  0  0  0  0  0  0  0  0  0  0  0
   -4.3978    0.4686    2.1225 H   0  0  0  0  0  0  0  0  0  0  0  0
   -3.3223   -0.7689    1.5004 H   0  0  0  0  0  0  0  0  0  0  0  0
   -2.6586    1.5287    0.7712 H   0  0  0  0  0  0  0  0  0  0  0  0
   -4.2037    1.7037   -0.0459 H   0  0  0  0  0  0  0  0  0  0  0  0
    3.6292   -2.6213    0.2632 H   0  0  0  0  0  0  0  0  0  0  0  0
    1.9546   -3.0831    0.6653 H   0  0  0  0  0  0  0  0  0  0  0  0
    2.9276   -2.1680    1.8577 H   0  0  0  0  0  0  0  0  0  0  0  0
    4.9329   -0.0228   -1.9419 H   0  0  0  0  0  0  0  0  0  0  0  0
    7.3750    0.1245   -1.5787 H   0  0  0  0  0  0  0  0  0  0  0  0
    8.2812    0.3720    0.7183 H   0  0  0  0  0  0  0  0  0  0  0  0
    6.7356    0.4814    2.6566 H   0  0  0  0  0  0  0  0  0  0  0  0
    4.2919    0.3422    2.3066 H   0  0  0  0  0  0  0  0  0  0  0  0
  1  2  1  0
  2  3  1  0
  3  4  1  0
  4  5  2  0
  4  6  1  0
  6  7  1  0
  7  8  1  0
  8  9  1  0
  9 10  1  0
 10 11  1  0
 10 12  1  0
 12 13  1  0
  3 14  2  0
 14 15  1  0
 15 16  1  0
 15 17  1  0
 17 18  1  0
 18 19  2  0
 19 20  1  0
 20 21  2  0
 21 22  1  0
 22 23  2  0
 17  2  2  0
 23 18  1  0
 13  7  1  0
  1 24  1  0
  1 25  1  0
  1 26  1  0
  6 27  1  0
  7 28  1  6
  8 29  1  0
  8 30  1  0
  9 31  1  0
  9 32  1  0
 10 33  1  1
 11 34  1  0
 11 35  1  0
 11 36  1  0
 12 37  1  0
 12 38  1  0
 13 39  1  0
 13 40  1  0
 16 41  1  0
 16 42  1  0
 16 43  1  0
 19 44  1  0
 20 45  1  0
 21 46  1  0
 22 47  1  0
 23 48  1  0
M  END
>  <_SMILES>  (4) 
Cc1c(C(=O)N[C@H]2CC[C@H](C)CC2)nn(C)c1-c1ccccc1

$$$$

     RDKit          3D

 56 60  0  0  0  0  0  0  0  0999 V2000
   -3.4582    2.7152   -1.9057 C   0  0  0  0  0  0  0  0  0  0  0  0
   -2.9184    1.3413   -1.5413 C   0  0  0  0  0  0  0  0  0  0  0  0
   -2.8797    1.1411   -0.0249 C   0  0  0  0  0  0  0  0  0  0  0  0
   -2.3605   -0.2074    0.3686 C   0  0  0  0  0  0  0  0  0  0  0  0
   -0.9895   -0.6216    0.4214 C   0  0  0  0  0  0  0  0  0  0  0  0
    0.2197    0.1651    0.0943 C   0  0  0  0  0  0  0  0  0  0  0  0
    0.1817    1.3364   -0.2656 O   0  0  0  0  0  0  0  0  0  0  0  0
    1.3796   -0.5643    0.2436 N   0  0  0  0  0  0  0  0  0  0  0  0
    2.7388   -0.0805    0.0279 C   0  0  2  0  0  0  0  0  0  0  0  0
    3.0872    1.0854    0.9859 C   0  0  0  0  0  0  0  0  0  0  0  0
    4.5402    1.5454    0.7725 C   0  0  1  0  0  0  0  0  0  0  0  0
    5.4912    0.3711    1.0530 C   0  0  0  0  0  0  0  0  0  0  0  0
    5.1814   -0.7943    0.1004 C   0  0  2  0  0  0  0  0  0  0  0  0
    5.3596   -0.3257   -1.3522 C   0  0  0  0  0  0  0  0  0  0  0  0
    4.4078    0.8443   -1.6466 C   0  0  2  0  0  0  0  0  0  0  0  0
    4.7170    2.0044   -0.6850 C   0  0  0  0  0  0  0  0  0  0  0  0
    2.9548    0.3841   -1.4339 C   0  0  0  0  0  0  0  0  0  0  0  0
    3.7265   -1.2437    0.3101 C   0  0  0  0  0  0  0  0  0  0  0  0
   -0.8853   -1.9023    0.8354 N   0  0  0  0  0  0  0  0  0  0  0  0
   -2.1508   -2.2745    1.0686 N   0  0  0  0  0  0  0  0  0  0  0  0
   -3.0854   -1.3115    0.7971 C   0  0  0  0  0  0  0  0  0  0  0  0
   -4.5223   -1.5370    0.9683 C   0  0  0  0  0  0  0  0  0  0  0  0
   -5.3641   -1.3703   -0.1435 C   0  0  0  0  0  0  0  0  0  0  0  0
   -6.7403   -1.5703   -0.0302 C   0  0  0  0  0  0  0  0  0  0  0  0
   -7.7494   -1.3588   -1.4070 Cl  0  0  0  0  0  0  0  0  0  0  0  0
   -7.3027   -1.9428    1.1870 C   0  0  0  0  0  0  0  0  0  0  0  0
   -6.4809   -2.1179    2.3006 C   0  0  0  0  0  0  0  0  0  0  0  0
   -5.0992   -1.9179    2.1952 C   0  0  0  0  0  0  0  0  0  0  0  0
   -4.1567   -2.1473    3.6280 Cl  0  0  0  0  0  0  0  0  0  0  0  0
   -4.4780    2.8480   -1.5307 H   0  0  0  0  0  0  0  0  0  0  0  0
   -2.8304    3.5073   -1.4853 H   0  0  0  0  0  0  0  0  0  0  0  0
   -3.4777    2.8385   -2.9931 H   0  0  0  0  0  0  0  0  0  0  0  0
   -3.5452    0.5747   -2.0102 H   0  0  0  0  0  0  0  0  0  0  0  0
   -1.9158    1.2264   -1.9689 H   0  0  0  0  0  0  0  0  0  0  0  0
   -3.8870    1.2818    0.3864 H   0  0  0  0  0  0  0  0  0  0  0  0
   -2.2605    1.9180    0.4399 H   0  0  0  0  0  0  0  0  0  0  0  0
    1.2231   -1.5146    0.5739 H   0  0  0  0  0  0  0  0  0  0  0  0
    2.4150    1.9368    0.8259 H   0  0  0  0  0  0  0  0  0  0  0  0
    2.9437    0.7729    2.0286 H   0  0  0  0  0  0  0  0  0  0  0  0
    4.7678    2.3749    1.4513 H   0  0  0  0  0  0  0  0  0  0  0  0
    5.3849    0.0431    2.0943 H   0  0  0  0  0  0  0  0  0  0  0  0
    6.5320    0.6930    0.9253 H   0  0  0  0  0  0  0  0  0  0  0  0
    5.8600   -1.6298    0.3054 H   0  0  0  0  0  0  0  0  0  0  0  0
    6.3982   -0.0158   -1.5213 H   0  0  0  0  0  0  0  0  0  0  0  0
    5.1587   -1.1551   -2.0413 H   0  0  0  0  0  0  0  0  0  0  0  0
    4.5413    1.1771   -2.6820 H   0  0  0  0  0  0  0  0  0  0  0  0
    5.7433    2.3577   -0.8435 H   0  0  0  0  0  0  0  0  0  0  0  0
    4.0528    2.8519   -0.8942 H   0  0  0  0  0  0  0  0  0  0  0  0
    2.2784    1.2093   -1.6866 H   0  0  0  0  0  0  0  0  0  0  0  0
    2.7159   -0.4320   -2.1285 H   0  0  0  0  0  0  0  0  0  0  0  0
    3.5967   -1.6080    1.3381 H   0  0  0  0  0  0  0  0  0  0  0  0
    3.5039   -2.0956   -0.3464 H   0  0  0  0  0  0  0  0  0  0  0  0
   -2.3185   -3.2107    1.4219 H   0  0  0  0  0  0  0  0  0  0  0  0
   -4.9452   -1.0918   -1.1077 H   0  0  0  0  0  0  0  0  0  0  0  0
   -8.3752   -2.0974    1.2760 H   0  0  0  0  0  0  0  0  0  0  0  0
   -6.9243   -2.4065    3.2511 H   0  0  0  0  0  0  0  0  0  0  0  0
  1  2  1  0
  2  3  1  0
  3  4  1  0
  4  5  1  0
  5  6  1  0
  6  7  2  0
  6  8  1  0
  9  8  1  6
  9 10  1  0
 10 11  1  0
 11 12  1  0
 12 13  1  0
 13 14  1  0
 14 15  1  0
 15 16  1  0
 15 17  1  0
 13 18  1  0
  5 19  2  0
 19 20  1  0
 20 21  1  0
 21 22  1  0
 22 23  1  0
 23 24  2  0
 24 25  1  0
 24 26  1  0
 26 27  2  0
 27 28  1  0
 28 29  1  0
 21  4  2  0
 28 22  2  0
 17  9  1  0
 18  9  1  0
 16 11  1  0
  1 30  1  0
  1 31  1  0
  1 32  1  0
  2 33  1  0
  2 34  1  0
  3 35  1  0
  3 36  1  0
  8 37  1  0
 10 38  1  0
 10 39  1  0
 11 40  1  1
 12 41  1  0
 12 42  1  0
 13 43  1  1
 14 44  1  0
 14 45  1  0
 15 46  1  6
 16 47  1  0
 16 48  1  0
 17 49  1  0
 17 50  1  0
 18 51  1  0
 18 52  1  0
 20 53  1  0
 23 54  1  0
 26 55  1  0
 27 56  1  0
M  END
>  <_SMILES>  (5) 
CCCc1c(C(=O)N[C@]23C[C@H]4C[C@H](C[C@H](C4)C2)C3)n[nH]c1-c1cc(Cl)ccc1Cl

$$$$

     RDKit          3D

 56 60  0  0  0  0  0  0  0  0999 V2000
    3.4087    2.8505   -1.9008 C   0  0  0  0  0  0  0  0  0  0  0  0
    3.0191    1.3982   -1.6759 C   0  0  0  0  0  0  0  0  0  0  0  0
    2.7422    1.1162   -0.1990 C   0  0  0  0  0  0  0  0  0  0  0  0
    2.3174   -0.2979    0.0453 C   0  0  0  0  0  0  0  0  0  0  0  0
    3.1487   -1.4158    0.3598 C   0  0  0  0  0  0  0  0  0  0  0  0
    4.5935   -1.4401    0.5264 C   0  0  0  0  0  0  0  0  0  0  0  0
    5.1243   -1.1075    1.7826 C   0  0  0  0  0  0  0  0  0  0  0  0
    6.5035   -1.1156    1.9814 C   0  0  0  0  0  0  0  0  0  0  0  0
    7.1465   -0.7020    3.5222 Cl  0  0  0  0  0  0  0  0  0  0  0  0
    7.3663   -1.4541    0.9410 C   0  0  0  0  0  0  0  0  0  0  0  0
    6.8446   -1.7908   -0.3100 C   0  0  0  0  0  0  0  0  0  0  0  0
    5.4611   -1.7865   -0.5205 C   0  0  0  0  0  0  0  0  0  0  0  0
    4.8913   -2.2101   -2.0973 Cl  0  0  0  0  0  0  0  0  0  0  0  0
    2.4238   -2.5259    0.5446 N   0  0  0  0  0  0  0  0  0  0  0  0
    1.1711   -2.1454    0.2703 N   0  0  0  0  0  0  0  0  0  0  0  0
    1.0246   -0.8076    0.0325 C   0  0  0  0  0  0  0  0  0  0  0  0
   -0.2329   -0.1517   -0.2383 C   0  0  0  0  0  0  0  0  0  0  0  0
   -0.3186    0.8683   -0.9105 O   0  0  0  0  0  0  0  0  0  0  0  0
   -1.3232   -0.7603    0.3553 N   0  0  0  0  0  0  0  0  0  0  0  0
   -2.6947   -0.2362    0.2902 C   0  0  2  0  0  0  0  0  0  0  0  0
   -3.2082   -0.1223   -1.1683 C   0  0  0  0  0  0  0  0  0  0  0  0
   -4.6644    0.3756   -1.1932 C   0  0  1  0  0  0  0  0  0  0  0  0
   -5.5557   -0.6207   -0.4361 C   0  0  0  0  0  0  0  0  0  0  0  0
   -5.0836   -0.7427    1.0206 C   0  0  2  0  0  0  0  0  0  0  0  0
   -5.1635    0.6339    1.6991 C   0  0  0  0  0  0  0  0  0  0  0  0
   -4.2706    1.6390    0.9544 C   0  0  2  0  0  0  0  0  0  0  0  0
   -4.7408    1.7498   -0.5060 C   0  0  0  0  0  0  0  0  0  0  0  0
   -2.8137    1.1439    0.9823 C   0  0  0  0  0  0  0  0  0  0  0  0
   -3.6261   -1.2297    1.0386 C   0  0  0  0  0  0  0  0  0  0  0  0
    4.3131    3.1054   -1.3392 H   0  0  0  0  0  0  0  0  0  0  0  0
    3.6062    3.0299   -2.9623 H   0  0  0  0  0  0  0  0  0  0  0  0
    2.6061    3.5251   -1.5860 H   0  0  0  0  0  0  0  0  0  0  0  0
    3.8270    0.7525   -2.0378 H   0  0  0  0  0  0  0  0  0  0  0  0
    2.1346    1.1657   -2.2806 H   0  0  0  0  0  0  0  0  0  0  0  0
    1.9686    1.7997    0.1723 H   0  0  0  0  0  0  0  0  0  0  0  0
    3.6412    1.3360    0.3899 H   0  0  0  0  0  0  0  0  0  0  0  0
    4.4575   -0.8506    2.6026 H   0  0  0  0  0  0  0  0  0  0  0  0
    8.4422   -1.4614    1.0967 H   0  0  0  0  0  0  0  0  0  0  0  0
    7.5218   -2.0580   -1.1180 H   0  0  0  0  0  0  0  0  0  0  0  0
    0.4484   -2.8564    0.2590 H   0  0  0  0  0  0  0  0  0  0  0  0
   -1.1191   -1.3410    1.1566 H   0  0  0  0  0  0  0  0  0  0  0  0
   -2.5914    0.5690   -1.7532 H   0  0  0  0  0  0  0  0  0  0  0  0
   -3.1370   -1.0962   -1.6701 H   0  0  0  0  0  0  0  0  0  0  0  0
   -5.0067    0.4618   -2.2306 H   0  0  0  0  0  0  0  0  0  0  0  0
   -6.6002   -0.2870   -0.4653 H   0  0  0  0  0  0  0  0  0  0  0  0
   -5.5211   -1.6019   -0.9253 H   0  0  0  0  0  0  0  0  0  0  0  0
   -5.7191   -1.4564    1.5566 H   0  0  0  0  0  0  0  0  0  0  0  0
   -6.2015    0.9884    1.7065 H   0  0  0  0  0  0  0  0  0  0  0  0
   -4.8466    0.5550    2.7463 H   0  0  0  0  0  0  0  0  0  0  0  0
   -4.3357    2.6197    1.4389 H   0  0  0  0  0  0  0  0  0  0  0  0
   -5.7702    2.1272   -0.5393 H   0  0  0  0  0  0  0  0  0  0  0  0
   -4.1187    2.4741   -1.0461 H   0  0  0  0  0  0  0  0  0  0  0  0
   -2.4619    1.0769    2.0202 H   0  0  0  0  0  0  0  0  0  0  0  0
   -2.1741    1.8857    0.4896 H   0  0  0  0  0  0  0  0  0  0  0  0
   -3.2924   -1.3500    2.0781 H   0  0  0  0  0  0  0  0  0  0  0  0
   -3.5614   -2.2255    0.5799 H   0  0  0  0  0  0  0  0  0  0  0  0
  1  2  1  0
  2  3  1  0
  3  4  1  0
  4  5  1  0
  5  6  1  0
  6  7  1  0
  7  8  2  0
  8  9  1  0
  8 10  1  0
 10 11  2  0
 11 12  1  0
 12 13  1  0
  5 14  2  0
 14 15  1  0
 15 16  1  0
 16 17  1  0
 17 18  2  0
 17 19  1  0
 20 19  1  6
 20 21  1  0
 21 22  1  0
 22 23  1  0
 23 24  1  0
 24 25  1  0
 25 26  1  0
 26 27  1  0
 26 28  1  0
 24 29  1  0
 16  4  2  0
 28 20  1  0
 12  6  2  0
 29 20  1  0
 27 22  1  0
  1 30  1  0
  1 31  1  0
  1 32  1  0
  2 33  1  0
  2 34  1  0
  3 35  1  0
  3 36  1  0
  7 37  1  0
 10 38  1  0
 11 39  1  0
 15 40  1  0
 19 41  1  0
 21 42  1  0
 21 43  1  0
 22 44  1  6
 23 45  1  0
 23 46  1  0
 24 47  1  1
 25 48  1  0
 25 49  1  0
 26 50  1  1
 27 51  1  0
 27 52  1  0
 28 53  1  0
 28 54  1  0
 29 55  1  0
 29 56  1  0
M  END
>  <_SMILES>  (6) 
CCCc1c(-c2cc(Cl)ccc2Cl)n[nH]c1C(=O)N[C@]12C[C@H]3C[C@H](C[C@H](C3)C1)C2

$$$$

     RDKit          3D

 25 26  0  0  0  0  0  0  0  0999 V2000
   -1.8884    0.8814   -1.4144 C   0  0  0  0  0  0  0  0  0  0  0  0
   -1.8304    0.0225   -0.2023 C   0  0  0  0  0  0  0  0  0  0  0  0
   -2.9435   -0.5364    0.4989 C   0  0  0  0  0  0  0  0  0  0  0  0
   -4.3658   -0.3921    0.2056 C   0  0  0  0  0  0  0  0  0  0  0  0
   -4.8202    0.2595   -0.7319 O   0  0  0  0  0  0  0  0  0  0  0  0
   -2.5395   -1.2748    1.5456 N   0  0  0  0  0  0  0  0  0  0  0  0
   -1.2038   -1.1695    1.5244 N   0  0  0  0  0  0  0  0  0  0  0  0
   -0.7126   -0.4134    0.4936 C   0  0  0  0  0  0  0  0  0  0  0  0
    0.7150   -0.1755    0.3064 C   0  0  0  0  0  0  0  0  0  0  0  0
    1.6026   -1.2554    0.2048 C   0  0  0  0  0  0  0  0  0  0  0  0
    2.9731   -1.0326    0.0257 C   0  0  0  0  0  0  0  0  0  0  0  0
    3.4720    0.2729   -0.0527 C   0  0  0  0  0  0  0  0  0  0  0  0
    4.8757    0.4979   -0.2357 C   0  0  0  0  0  0  0  0  0  0  0  0
    6.0128    0.6761   -0.3812 N   0  0  0  0  0  0  0  0  0  0  0  0
    2.5958    1.3546    0.0480 C   0  0  0  0  0  0  0  0  0  0  0  0
    1.2329    1.1238    0.2250 C   0  0  0  0  0  0  0  0  0  0  0  0
    0.4208    2.1864    0.3301 F   0  0  0  0  0  0  0  0  0  0  0  0
   -0.9006    1.0170   -1.8648 H   0  0  0  0  0  0  0  0  0  0  0  0
   -2.5323    0.4311   -2.1766 H   0  0  0  0  0  0  0  0  0  0  0  0
   -2.2856    1.8693   -1.1609 H   0  0  0  0  0  0  0  0  0  0  0  0
   -5.0378   -0.9228    0.9011 H   0  0  0  0  0  0  0  0  0  0  0  0
   -0.6759   -1.6342    2.2555 H   0  0  0  0  0  0  0  0  0  0  0  0
    1.2360   -2.2798    0.2424 H   0  0  0  0  0  0  0  0  0  0  0  0
    3.6458   -1.8854   -0.0585 H   0  0  0  0  0  0  0  0  0  0  0  0
    2.9540    2.3793   -0.0079 H   0  0  0  0  0  0  0  0  0  0  0  0
  1  2  1  0
  2  3  1  0
  3  4  1  0
  4  5  2  0
  3  6  2  0
  6  7  1  0
  7  8  1  0
  8  9  1  0
  9 10  1  0
 10 11  2  0
 11 12  1  0
 12 13  1  0
 13 14  3  0
 12 15  2  0
 15 16  1  0
 16 17  1  0
  8  2  2  0
 16  9  2  0
  1 18  1  0
  1 19  1  0
  1 20  1  0
  4 21  1  0
  7 22  1  0
 10 23  1  0
 11 24  1  0
 15 25  1  0
M  END
>  <_SMILES>  (7) 
Cc1c(C=O)n[nH]c1-c1ccc(C#N)cc1F

$$$$

     RDKit          3D

 25 26  0  0  0  0  0  0  0  0999 V2000
   -1.3680    2.0065   -0.4119 C   0  0  0  0  0  0  0  0  0  0  0  0
   -1.6798    0.5865   -0.1030 C   0  0  0  0  0  0  0  0  0  0  0  0
   -0.7652   -0.5058    0.0644 C   0  0  0  0  0  0  0  0  0  0  0  0
    0.6952   -0.5113    0.0012 C   0  0  0  0  0  0  0  0  0  0  0  0
    1.3585   -1.5384   -0.6887 C   0  0  0  0  0  0  0  0  0  0  0  0
    2.7560   -1.5677   -0.7553 C   0  0  0  0  0  0  0  0  0  0  0  0
    3.5091   -0.5721   -0.1251 C   0  0  0  0  0  0  0  0  0  0  0  0
    4.9406   -0.5996   -0.1912 C   0  0  0  0  0  0  0  0  0  0  0  0
    6.0995   -0.6167   -0.2466 N   0  0  0  0  0  0  0  0  0  0  0  0
    2.8592    0.4477    0.5733 C   0  0  0  0  0  0  0  0  0  0  0  0
    1.4656    0.4684    0.6342 C   0  0  0  0  0  0  0  0  0  0  0  0
    0.8854    1.4539    1.3355 F   0  0  0  0  0  0  0  0  0  0  0  0
   -1.4282   -1.6541    0.2757 N   0  0  0  0  0  0  0  0  0  0  0  0
   -2.7185   -1.3006    0.3042 N   0  0  0  0  0  0  0  0  0  0  0  0
   -2.9338    0.0266    0.0807 C   0  0  0  0  0  0  0  0  0  0  0  0
   -4.2503    0.5968    0.0628 C   0  0  0  0  0  0  0  0  0  0  0  0
   -5.2742   -0.0592    0.2296 O   0  0  0  0  0  0  0  0  0  0  0  0
   -1.2795    2.5862    0.5120 H   0  0  0  0  0  0  0  0  0  0  0  0
   -0.4338    2.0983   -0.9741 H   0  0  0  0  0  0  0  0  0  0  0  0
   -2.1563    2.4574   -1.0232 H   0  0  0  0  0  0  0  0  0  0  0  0
    0.7832   -2.3257   -1.1748 H   0  0  0  0  0  0  0  0  0  0  0  0
    3.2462   -2.3755   -1.2969 H   0  0  0  0  0  0  0  0  0  0  0  0
    3.4204    1.2281    1.0811 H   0  0  0  0  0  0  0  0  0  0  0  0
   -3.4213   -2.0139    0.4765 H   0  0  0  0  0  0  0  0  0  0  0  0
   -4.3100    1.6844   -0.1115 H   0  0  0  0  0  0  0  0  0  0  0  0
  1  2  1  0
  2  3  1  0
  3  4  1  0
  4  5  1  0
  5  6  2  0
  6  7  1  0
  7  8  1  0
  8  9  3  0
  7 10  2  0
 10 11  1  0
 11 12  1  0
  3 13  2  0
 13 14  1  0
 14 15  1  0
 15 16  1  0
 16 17  2  0
 15  2  2  0
 11  4  2  0
  1 18  1  0
  1 19  1  0
  1 20  1  0
  5 21  1  0
  6 22  1  0
 10 23  1  0
 14 24  1  0
 16 25  1  0
M  END
>  <_SMILES>  (8) 
Cc1c(-c2ccc(C#N)cc2F)n[nH]c1C=O

$$$$

     RDKit          3D

 52 57  0  0  0  0  0  0  0  0999 V2000
    0.7677   -1.3429    2.5859 C   0  0  0  0  0  0  0  0  0  0  0  0
    1.5909   -0.7241    1.5715 N   0  0  0  0  0  0  0  0  0  0  0  0
    2.9017   -1.0228    1.5414 N   0  0  0  0  0  0  0  0  0  0  0  0
    3.4301   -0.1781    0.6414 C   0  0  0  0  0  0  0  0  0  0  0  0
    4.8724   -0.1536    0.3589 C   0  0  0  0  0  0  0  0  0  0  0  0
    5.7002   -1.1856    0.8420 C   0  0  0  0  0  0  0  0  0  0  0  0
    7.0827   -1.2067    0.5948 C   0  0  0  0  0  0  0  0  0  0  0  0
    7.6385   -0.1630   -0.1525 C   0  0  0  0  0  0  0  0  0  0  0  0
    8.9284    0.0776   -0.5432 N   0  0  0  0  0  0  0  0  0  0  0  0
    8.9448    1.2086   -1.2383 N   0  0  0  0  0  0  0  0  0  0  0  0
    7.6852    1.6718   -1.2815 N   0  0  0  0  0  0  0  0  0  0  0  0
    6.8155    0.8509   -0.6203 C   0  0  0  0  0  0  0  0  0  0  0  0
    5.4358    0.8976   -0.3910 C   0  0  0  0  0  0  0  0  0  0  0  0
    2.4037    0.6121    0.0613 C   0  0  0  0  0  0  0  0  0  0  0  0
    1.2144    0.1976    0.6320 C   0  0  0  0  0  0  0  0  0  0  0  0
   -0.1139    0.6837    0.3552 C   0  0  0  0  0  0  0  0  0  0  0  0
   -0.3415    1.8607    0.1054 O   0  0  0  0  0  0  0  0  0  0  0  0
   -1.0806   -0.3004    0.3363 N   0  0  0  0  0  0  0  0  0  0  0  0
   -2.4863   -0.0771   -0.0229 C   0  0  2  0  0  0  0  0  0  0  0  0
   -3.2433   -1.4250    0.1300 C   0  0  0  0  0  0  0  0  0  0  0  0
   -4.7274   -1.2705   -0.2377 C   0  0  1  0  0  0  0  0  0  0  0  0
   -5.3709   -0.2307    0.6922 C   0  0  0  0  0  0  0  0  0  0  0  0
   -4.6542    1.1200    0.5424 C   0  0  2  0  0  0  0  0  0  0  0  0
   -4.7610    1.5927   -0.9176 C   0  0  0  0  0  0  0  0  0  0  0  0
   -4.1195    0.5581   -1.8580 C   0  0  2  0  0  0  0  0  0  0  0  0
   -4.8385   -0.7903   -1.6934 C   0  0  0  0  0  0  0  0  0  0  0  0
   -2.6342    0.3911   -1.4912 C   0  0  0  0  0  0  0  0  0  0  0  0
   -3.1696    0.9529    0.9126 C   0  0  0  0  0  0  0  0  0  0  0  0
    0.0022   -0.6351    2.9123 H   0  0  0  0  0  0  0  0  0  0  0  0
    0.3141   -2.2393    2.1568 H   0  0  0  0  0  0  0  0  0  0  0  0
    1.3943   -1.6112    3.4410 H   0  0  0  0  0  0  0  0  0  0  0  0
    5.2679   -1.9980    1.4256 H   0  0  0  0  0  0  0  0  0  0  0  0
    7.7068   -2.0087    0.9732 H   0  0  0  0  0  0  0  0  0  0  0  0
    7.5016    2.5379   -1.7723 H   0  0  0  0  0  0  0  0  0  0  0  0
    4.8397    1.7194   -0.7712 H   0  0  0  0  0  0  0  0  0  0  0  0
    2.4948    1.3736   -0.7007 H   0  0  0  0  0  0  0  0  0  0  0  0
   -0.7357   -1.2433    0.2136 H   0  0  0  0  0  0  0  0  0  0  0  0
   -2.7842   -2.1906   -0.5099 H   0  0  0  0  0  0  0  0  0  0  0  0
   -3.1521   -1.7938    1.1606 H   0  0  0  0  0  0  0  0  0  0  0  0
   -5.2387   -2.2331   -0.1259 H   0  0  0  0  0  0  0  0  0  0  0  0
   -6.4352   -0.1195    0.4511 H   0  0  0  0  0  0  0  0  0  0  0  0
   -5.3142   -0.5720    1.7331 H   0  0  0  0  0  0  0  0  0  0  0  0
   -5.1183    1.8591    1.2049 H   0  0  0  0  0  0  0  0  0  0  0  0
   -5.8144    1.7394   -1.1866 H   0  0  0  0  0  0  0  0  0  0  0  0
   -4.2646    2.5639   -1.0345 H   0  0  0  0  0  0  0  0  0  0  0  0
   -4.2066    0.8982   -2.8960 H   0  0  0  0  0  0  0  0  0  0  0  0
   -5.8939   -0.6891   -1.9750 H   0  0  0  0  0  0  0  0  0  0  0  0
   -4.3988   -1.5346   -2.3686 H   0  0  0  0  0  0  0  0  0  0  0  0
   -2.1159    1.3438   -1.6521 H   0  0  0  0  0  0  0  0  0  0  0  0
   -2.1617   -0.3332   -2.1676 H   0  0  0  0  0  0  0  0  0  0  0  0
   -2.6797    1.9310    0.8497 H   0  0  0  0  0  0  0  0  0  0  0  0
   -3.0785    0.6309    1.9583 H   0  0  0  0  0  0  0  0  0  0  0  0
  1  2  1  0
  2  3  1  0
  3  4  2  0
  4  5  1  0
  5  6  2  0
  6  7  1  0
  7  8  2  0
  8  9  1  0
  9 10  2  0
 10 11  1  0
 11 12  1  0
 12 13  2  0
  4 14  1  0
 14 15  2  0
 15 16  1  0
 16 17  2  0
 16 18  1  0
 19 18  1  1
 19 20  1  0
 20 21  1  0
 21 22  1  0
 22 23  1  0
 23 24  1  0
 24 25  1  0
 25 26  1  0
 25 27  1  0
 23 28  1  0
 15  2  1  0
 27 19  1  0
 13  5  1  0
 28 19  1  0
 12  8  1  0
 26 21  1  0
  1 29  1  0
  1 30  1  0
  1 31  1  0
  6 32  1  0
  7 33  1  0
 11 34  1  0
 13 35  1  0
 14 36  1  0
 18 37  1  0
 20 38  1  0
 20 39  1  0
 21 40  1  6
 22 41  1  0
 22 42  1  0
 23 43  1  1
 24 44  1  0
 24 45  1  0
 25 46  1  6
 26 47  1  0
 26 48  1  0
 27 49  1  0
 27 50  1  0
 28 51  1  0
 28 52  1  0
M  END
>  <_SMILES>  (9) 
Cn1nc(-c2ccc3nn[nH]c3c2)cc1C(=O)N[C@]12C[C@H]3C[C@H](C[C@H](C3)C1)C2

$$$$

     RDKit          3D

 52 57  0  0  0  0  0  0  0  0999 V2000
    1.5886    3.4683    1.1616 C   0  0  0  0  0  0  0  0  0  0  0  0
    1.9698    2.1458    0.7165 N   0  0  0  0  0  0  0  0  0  0  0  0
    3.2699    1.8017    0.7584 N   0  0  0  0  0  0  0  0  0  0  0  0
    3.3173    0.5522    0.2789 C   0  0  0  0  0  0  0  0  0  0  0  0
    4.5882   -0.1708    0.1476 C   0  0  0  0  0  0  0  0  0  0  0  0
    4.6877   -1.3166   -0.6641 C   0  0  0  0  0  0  0  0  0  0  0  0
    5.8885   -2.0294   -0.8058 C   0  0  0  0  0  0  0  0  0  0  0  0
    6.9838   -1.5401   -0.0968 C   0  0  0  0  0  0  0  0  0  0  0  0
    8.2845   -1.9430    0.0186 N   0  0  0  0  0  0  0  0  0  0  0  0
    8.9881   -1.1425    0.8347 N   0  0  0  0  0  0  0  0  0  0  0  0
    8.1652   -0.1946    1.2671 N   0  0  0  0  0  0  0  0  0  0  0  0
    6.9323   -0.4139    0.7115 C   0  0  0  0  0  0  0  0  0  0  0  0
    5.7263    0.2874    0.8403 C   0  0  0  0  0  0  0  0  0  0  0  0
    2.0069    0.1065   -0.0420 C   0  0  0  0  0  0  0  0  0  0  0  0
    1.1436    1.1484    0.2583 C   0  0  0  0  0  0  0  0  0  0  0  0
   -0.2938    1.2685    0.1361 C   0  0  0  0  0  0  0  0  0  0  0  0
   -0.8834    2.3352    0.2672 O   0  0  0  0  0  0  0  0  0  0  0  0
   -0.9497    0.0832   -0.1227 N   0  0  0  0  0  0  0  0  0  0  0  0
   -2.4055   -0.0680   -0.2264 C   0  0  2  0  0  0  0  0  0  0  0  0
   -3.1135    0.2886    1.1041 C   0  0  0  0  0  0  0  0  0  0  0  0
   -4.6318    0.0667    0.9856 C   0  0  1  0  0  0  0  0  0  0  0  0
   -5.1858    0.9466   -0.1480 C   0  0  0  0  0  0  0  0  0  0  0  0
   -4.5175    0.5743   -1.4827 C   0  0  2  0  0  0  0  0  0  0  0  0
   -4.7929   -0.9051   -1.7927 C   0  0  0  0  0  0  0  0  0  0  0  0
   -4.2327   -1.7889   -0.6679 C   0  0  2  0  0  0  0  0  0  0  0  0
   -4.9058   -1.4102    0.6607 C   0  0  0  0  0  0  0  0  0  0  0  0
   -2.7184   -1.5550   -0.5502 C   0  0  0  0  0  0  0  0  0  0  0  0
   -2.9988    0.7966   -1.3676 C   0  0  0  0  0  0  0  0  0  0  0  0
    2.4723    3.9958    1.5314 H   0  0  0  0  0  0  0  0  0  0  0  0
    1.1682    4.0116    0.3120 H   0  0  0  0  0  0  0  0  0  0  0  0
    0.8612    3.3687    1.9707 H   0  0  0  0  0  0  0  0  0  0  0  0
    3.8231   -1.6722   -1.2206 H   0  0  0  0  0  0  0  0  0  0  0  0
    5.9529   -2.9082   -1.4381 H   0  0  0  0  0  0  0  0  0  0  0  0
    8.7525   -2.7294   -0.4136 H   0  0  0  0  0  0  0  0  0  0  0  0
    5.6854    1.1701    1.4713 H   0  0  0  0  0  0  0  0  0  0  0  0
    1.7356   -0.8565   -0.4475 H   0  0  0  0  0  0  0  0  0  0  0  0
   -0.4094   -0.7655   -0.0509 H   0  0  0  0  0  0  0  0  0  0  0  0
   -2.9255    1.3328    1.3803 H   0  0  0  0  0  0  0  0  0  0  0  0
   -2.7094   -0.3224    1.9220 H   0  0  0  0  0  0  0  0  0  0  0  0
   -5.1179    0.3327    1.9309 H   0  0  0  0  0  0  0  0  0  0  0  0
   -6.2722    0.8161   -0.2252 H   0  0  0  0  0  0  0  0  0  0  0  0
   -5.0077    2.0051    0.0780 H   0  0  0  0  0  0  0  0  0  0  0  0
   -4.9218    1.2008   -2.2857 H   0  0  0  0  0  0  0  0  0  0  0  0
   -5.8720   -1.0716   -1.8985 H   0  0  0  0  0  0  0  0  0  0  0  0
   -4.3331   -1.1796   -2.7500 H   0  0  0  0  0  0  0  0  0  0  0  0
   -4.4281   -2.8430   -0.8939 H   0  0  0  0  0  0  0  0  0  0  0  0
   -5.9868   -1.5856    0.5966 H   0  0  0  0  0  0  0  0  0  0  0  0
   -4.5272   -2.0484    1.4685 H   0  0  0  0  0  0  0  0  0  0  0  0
   -2.3051   -2.2064    0.2317 H   0  0  0  0  0  0  0  0  0  0  0  0
   -2.2240   -1.8491   -1.4858 H   0  0  0  0  0  0  0  0  0  0  0  0
   -2.5114    0.5499   -2.3200 H   0  0  0  0  0  0  0  0  0  0  0  0
   -2.8108    1.8623   -1.1947 H   0  0  0  0  0  0  0  0  0  0  0  0
  1  2  1  0
  2  3  1  0
  3  4  2  0
  4  5  1  0
  5  6  2  0
  6  7  1  0
  7  8  2  0
  8  9  1  0
  9 10  1  0
 10 11  2  0
 11 12  1  0
 12 13  2  0
  4 14  1  0
 14 15  2  0
 15 16  1  0
 16 17  2  0
 16 18  1  0
 19 18  1  1
 19 20  1  0
 20 21  1  0
 21 22  1  0
 22 23  1  0
 23 24  1  0
 24 25  1  0
 25 26  1  0
 25 27  1  0
 23 28  1  0
 15  2  1  0
 27 19  1  0
 13  5  1  0
 28 19  1  0
 12  8  1  0
 26 21  1  0
  1 29  1  0
  1 30  1  0
  1 31  1  0
  6 32  1  0
  7 33  1  0
  9 34  1  0
 13 35  1  0
 14 36  1  0
 18 37  1  0
 20 38  1  0
 20 39  1  0
 21 40  1  1
 22 41  1  0
 22 42  1  0
 23 43  1  6
 24 44  1  0
 24 45  1  0
 25 46  1  6
 26 47  1  0
 26 48  1  0
 27 49  1  0
 27 50  1  0
 28 51  1  0
 28 52  1  0
M  END
>  <_SMILES>  (10) 
Cn1nc(-c2ccc3[nH]nnc3c2)cc1C(=O)N[C@]12C[C@H]3C[C@H](C[C@H](C3)C1)C2

$$$$

     RDKit          3D

 52 57  0  0  0  0  0  0  0  0999 V2000
    1.2720    2.4576   -2.9082 C   0  0  0  0  0  0  0  0  0  0  0  0
    1.7805    1.5701   -1.8852 N   0  0  0  0  0  0  0  0  0  0  0  0
    3.1127    1.4746   -1.7197 N   0  0  0  0  0  0  0  0  0  0  0  0
    3.2810    0.5938   -0.7248 C   0  0  0  0  0  0  0  0  0  0  0  0
    4.6228    0.2127   -0.2521 C   0  0  0  0  0  0  0  0  0  0  0  0
    5.7716    0.6471   -0.9941 C   0  0  0  0  0  0  0  0  0  0  0  0
    7.1071    0.3483   -0.6473 C   0  0  0  0  0  0  0  0  0  0  0  0
    7.2386   -0.4278    0.5128 C   0  0  0  0  0  0  0  0  0  0  0  0
    8.3484   -0.8844    1.1149 N   0  0  0  0  0  0  0  0  0  0  0  0
    7.8488   -1.5505    2.1616 N   0  0  0  0  0  0  0  0  0  0  0  0
    6.5219   -1.5957    2.3326 N   0  0  0  0  0  0  0  0  0  0  0  0
    6.0783   -0.8800    1.2858 C   0  0  0  0  0  0  0  0  0  0  0  0
    4.7561   -0.5689    0.9191 C   0  0  0  0  0  0  0  0  0  0  0  0
    2.0154    0.1396   -0.2634 C   0  0  0  0  0  0  0  0  0  0  0  0
    1.0530    0.7891   -1.0203 C   0  0  0  0  0  0  0  0  0  0  0  0
   -0.3935    0.7202   -1.0010 C   0  0  0  0  0  0  0  0  0  0  0  0
   -1.0935    1.2671   -1.8459 O   0  0  0  0  0  0  0  0  0  0  0  0
   -0.9242    0.0022    0.0497 N   0  0  0  0  0  0  0  0  0  0  0  0
   -2.3569   -0.1736    0.3133 C   0  0  2  0  0  0  0  0  0  0  0  0
   -2.5143   -1.0630    1.5774 C   0  0  0  0  0  0  0  0  0  0  0  0
   -3.9967   -1.2857    1.9161 C   0  0  1  0  0  0  0  0  0  0  0  0
   -4.6651    0.0742    2.1713 C   0  0  0  0  0  0  0  0  0  0  0  0
   -4.5450    0.9606    0.9217 C   0  0  2  0  0  0  0  0  0  0  0  0
   -5.2280    0.2595   -0.2650 C   0  0  0  0  0  0  0  0  0  0  0  0
   -4.5654   -1.1036   -0.5281 C   0  0  2  0  0  0  0  0  0  0  0  0
   -4.6859   -1.9774    0.7300 C   0  0  0  0  0  0  0  0  0  0  0  0
   -3.0775   -0.8880   -0.8579 C   0  0  0  0  0  0  0  0  0  0  0  0
   -3.0573    1.1791    0.5937 C   0  0  0  0  0  0  0  0  0  0  0  0
    0.6119    3.1904   -2.4382 H   0  0  0  0  0  0  0  0  0  0  0  0
    0.7401    1.8602   -3.6524 H   0  0  0  0  0  0  0  0  0  0  0  0
    2.1074    2.9767   -3.3865 H   0  0  0  0  0  0  0  0  0  0  0  0
    5.6149    1.2504   -1.8915 H   0  0  0  0  0  0  0  0  0  0  0  0
    7.9554    0.6886   -1.2252 H   0  0  0  0  0  0  0  0  0  0  0  0
    8.4696   -2.0165    2.8188 H   0  0  0  0  0  0  0  0  0  0  0  0
    3.9262   -0.9141    1.5177 H   0  0  0  0  0  0  0  0  0  0  0  0
    1.8371   -0.5857    0.5162 H   0  0  0  0  0  0  0  0  0  0  0  0
   -0.2883   -0.3137    0.7659 H   0  0  0  0  0  0  0  0  0  0  0  0
   -2.0205   -2.0314    1.4208 H   0  0  0  0  0  0  0  0  0  0  0  0
   -2.0072   -0.5962    2.4326 H   0  0  0  0  0  0  0  0  0  0  0  0
   -4.0820   -1.9132    2.8103 H   0  0  0  0  0  0  0  0  0  0  0  0
   -4.1933    0.5692    3.0290 H   0  0  0  0  0  0  0  0  0  0  0  0
   -5.7217   -0.0699    2.4286 H   0  0  0  0  0  0  0  0  0  0  0  0
   -5.0272    1.9269    1.1073 H   0  0  0  0  0  0  0  0  0  0  0  0
   -6.2954    0.1212   -0.0532 H   0  0  0  0  0  0  0  0  0  0  0  0
   -5.1603    0.8884   -1.1612 H   0  0  0  0  0  0  0  0  0  0  0  0
   -5.0614   -1.5991   -1.3701 H   0  0  0  0  0  0  0  0  0  0  0  0
   -5.7429   -2.1562    0.9626 H   0  0  0  0  0  0  0  0  0  0  0  0
   -4.2291   -2.9584    0.5504 H   0  0  0  0  0  0  0  0  0  0  0  0
   -2.5965   -1.8532   -1.0640 H   0  0  0  0  0  0  0  0  0  0  0  0
   -3.0018   -0.3047   -1.7826 H   0  0  0  0  0  0  0  0  0  0  0  0
   -2.5627    1.6943    1.4276 H   0  0  0  0  0  0  0  0  0  0  0  0
   -2.9772    1.8488   -0.2705 H   0  0  0  0  0  0  0  0  0  0  0  0
  1  2  1  0
  2  3  1  0
  3  4  2  0
  4  5  1  0
  5  6  1  0
  6  7  2  0
  7  8  1  0
  8  9  2  0
  9 10  1  0
 10 11  1  0
 11 12  2  0
 12 13  1  0
  4 14  1  0
 14 15  2  0
 15 16  1  0
 16 17  2  0
 16 18  1  0
 19 18  1  6
 19 20  1  0
 20 21  1  0
 21 22  1  0
 22 23  1  0
 23 24  1  0
 24 25  1  0
 25 26  1  0
 25 27  1  0
 23 28  1  0
 15  2  1  0
 27 19  1  0
 13  5  2  0
 28 19  1  0
 12  8  1  0
 26 21  1  0
  1 29  1  0
  1 30  1  0
  1 31  1  0
  6 32  1  0
  7 33  1  0
 10 34  1  0
 13 35  1  0
 14 36  1  0
 18 37  1  0
 20 38  1  0
 20 39  1  0
 21 40  1  1
 22 41  1  0
 22 42  1  0
 23 43  1  1
 24 44  1  0
 24 45  1  0
 25 46  1  6
 26 47  1  0
 26 48  1  0
 27 49  1  0
 27 50  1  0
 28 51  1  0
 28 52  1  0
M  END
>  <_SMILES>  (11) 
Cn1nc(-c2ccc3n[nH]nc3c2)cc1C(=O)N[C@]12C[C@H]3C[C@H](C[C@H](C3)C1)C2

$$$$

     RDKit          3D

 48 51  0  0  0  0  0  0  0  0999 V2000
   -1.8681   -1.8010    1.3790 C   0  0  0  0  0  0  0  0  0  0  0  0
   -1.4669   -0.6659    0.5079 C   0  0  0  0  0  0  0  0  0  0  0  0
   -0.1515   -0.3827    0.0292 C   0  0  0  0  0  0  0  0  0  0  0  0
    1.0879   -1.1432    0.2820 C   0  0  0  0  0  0  0  0  0  0  0  0
    1.1373   -2.1471    0.9863 O   0  0  0  0  0  0  0  0  0  0  0  0
    2.1868   -0.5997   -0.3481 N   0  0  0  0  0  0  0  0  0  0  0  0
    3.5207   -1.0949   -0.1402 C   0  0  1  0  0  0  0  0  0  0  0  0
    4.6007   -0.4518   -1.0191 C   0  0  1  0  0  0  0  0  0  0  0  0
    4.6299    1.0123   -0.5358 C   0  0  0  0  0  0  0  0  0  0  0  0
    4.3338    0.8854    0.9660 C   0  0  0  0  0  0  0  0  0  0  0  0
    4.1905   -0.6364    1.1633 C   0  0  2  0  0  0  0  0  0  0  0  0
    5.5865   -1.2735    1.0197 C   0  0  0  0  0  0  0  0  0  0  0  0
    5.8674   -1.1517   -0.4889 C   0  0  0  0  0  0  0  0  0  0  0  0
   -0.1382    0.7343   -0.7278 N   0  0  0  0  0  0  0  0  0  0  0  0
   -1.4219    1.1380   -0.7439 N   0  0  0  0  0  0  0  0  0  0  0  0
   -1.7759    2.3112   -1.5110 C   0  0  0  0  0  0  0  0  0  0  0  0
   -2.2656    0.3449   -0.0063 C   0  0  0  0  0  0  0  0  0  0  0  0
   -3.6979    0.5836    0.1351 C   0  0  0  0  0  0  0  0  0  0  0  0
   -4.1646    1.6435    0.9179 C   0  0  0  0  0  0  0  0  0  0  0  0
   -5.5352    1.8467    1.0697 C   0  0  0  0  0  0  0  0  0  0  0  0
   -6.4418    1.0007    0.4271 C   0  0  0  0  0  0  0  0  0  0  0  0
   -5.9932   -0.0306   -0.4016 C   0  0  0  0  0  0  0  0  0  0  0  0
   -6.9036   -0.9470   -0.9405 N   0  0  0  0  0  0  0  0  0  0  0  0
   -4.6179   -0.2624   -0.4992 C   0  0  0  0  0  0  0  0  0  0  0  0
   -2.9265   -1.7529    1.6522 H   0  0  0  0  0  0  0  0  0  0  0  0
   -1.6969   -2.7531    0.8666 H   0  0  0  0  0  0  0  0  0  0  0  0
   -1.2879   -1.7950    2.3074 H   0  0  0  0  0  0  0  0  0  0  0  0
    2.0045    0.2758   -0.8330 H   0  0  0  0  0  0  0  0  0  0  0  0
    3.5008   -2.1887   -0.2288 H   0  0  0  0  0  0  0  0  0  0  0  0
    4.4616   -0.5498   -2.0979 H   0  0  0  0  0  0  0  0  0  0  0  0
    5.5945    1.4951   -0.7229 H   0  0  0  0  0  0  0  0  0  0  0  0
    3.8551    1.6100   -1.0283 H   0  0  0  0  0  0  0  0  0  0  0  0
    3.4015    1.4046    1.2147 H   0  0  0  0  0  0  0  0  0  0  0  0
    5.1331    1.3143    1.5788 H   0  0  0  0  0  0  0  0  0  0  0  0
    3.6773   -0.9060    2.0889 H   0  0  0  0  0  0  0  0  0  0  0  0
    6.3461   -0.7649    1.6216 H   0  0  0  0  0  0  0  0  0  0  0  0
    5.5661   -2.3287    1.3147 H   0  0  0  0  0  0  0  0  0  0  0  0
    5.9777   -2.1475   -0.9331 H   0  0  0  0  0  0  0  0  0  0  0  0
    6.7808   -0.5840   -0.6925 H   0  0  0  0  0  0  0  0  0  0  0  0
   -0.9659    2.5461   -2.2069 H   0  0  0  0  0  0  0  0  0  0  0  0
   -2.6888    2.1070   -2.0756 H   0  0  0  0  0  0  0  0  0  0  0  0
   -1.9241    3.1412   -0.8163 H   0  0  0  0  0  0  0  0  0  0  0  0
   -3.4664    2.2952    1.4377 H   0  0  0  0  0  0  0  0  0  0  0  0
   -5.8995    2.6502    1.7044 H   0  0  0  0  0  0  0  0  0  0  0  0
   -7.5067    1.1512    0.5845 H   0  0  0  0  0  0  0  0  0  0  0  0
   -7.8306   -0.5656   -1.0997 H   0  0  0  0  0  0  0  0  0  0  0  0
   -6.5508   -1.4583   -1.7433 H   0  0  0  0  0  0  0  0  0  0  0  0
   -4.2543   -1.1093   -1.0763 H   0  0  0  0  0  0  0  0  0  0  0  0
  1  2  1  0
  2  3  1  0
  3  4  1  0
  4  5  2  0
  4  6  1  0
  6  7  1  0
  7  8  1  0
  8  9  1  0
  9 10  1  0
 10 11  1  0
 11 12  1  0
 12 13  1  0
  3 14  2  0
 14 15  1  0
 15 16  1  0
 15 17  1  0
 17 18  1  0
 18 19  1  0
 19 20  2  0
 20 21  1  0
 21 22  2  0
 22 23  1  0
 22 24  1  0
 17  2  2  0
 24 18  2  0
 11  7  1  0
 13  8  1  0
  1 25  1  0
  1 26  1  0
  1 27  1  0
  6 28  1  0
  7 29  1  1
  8 30  1  6
  9 31  1  0
  9 32  1  0
 10 33  1  0
 10 34  1  0
 11 35  1  1
 12 36  1  0
 12 37  1  0
 13 38  1  0
 13 39  1  0
 16 40  1  0
 16 41  1  0
 16 42  1  0
 19 43  1  0
 20 44  1  0
 21 45  1  0
 23 46  1  0
 23 47  1  0
 24 48  1  0
M  END
>  <_SMILES>  (12) 
Cc1c(C(=O)N[C@H]2[C@H]3CC[C@@H]2CC3)nn(C)c1-c1cccc(N)c1

$$$$

     RDKit          3D

 54 57  0  0  0  0  0  0  0  0999 V2000
    5.5730    3.8026    0.8414 C   0  0  0  0  0  0  0  0  0  0  0  0
    4.6331    2.6647    0.9290 C   0  0  0  0  0  0  0  0  0  0  0  0
    3.3034    2.6598    1.0516 C   0  0  0  0  0  0  0  0  0  0  0  0
    2.8621    1.2623    1.0889 C   0  0  0  0  0  0  0  0  0  0  0  0
    1.6950    0.9232    1.1722 O   0  0  0  0  0  0  0  0  0  0  0  0
    3.9728    0.4892    0.9950 N   0  0  0  0  0  0  0  0  0  0  0  0
    3.9727   -0.9606    0.9946 C   0  0  0  0  0  0  0  0  0  0  0  0
    4.1418   -1.5684   -0.4112 C   0  0  1  0  0  0  0  0  0  0  0  0
    4.1013   -3.1076   -0.3436 C   0  0  0  0  0  0  0  0  0  0  0  0
    2.8866   -3.5522   -1.1638 C   0  0  0  0  0  0  0  0  0  0  0  0
    2.0005   -2.3161   -1.2650 C   0  0  1  0  0  0  0  0  0  0  0  0
    1.2563   -2.1919   -0.0505 O   0  0  0  0  0  0  0  0  0  0  0  0
    0.2930   -1.1625   -0.2078 N   0  0  0  0  0  0  0  0  0  0  0  0
   -1.0099   -1.6045   -0.3167 C   0  0  0  0  0  0  0  0  0  0  0  0
   -1.3330   -2.7583   -0.5897 O   0  0  0  0  0  0  0  0  0  0  0  0
   -1.9882   -0.5402   -0.0520 C   0  0  0  0  0  0  0  0  0  0  0  0
   -1.6040    0.7405    0.2884 N   0  0  0  0  0  0  0  0  0  0  0  0
   -2.7214    1.4041    0.4592 C   0  0  0  0  0  0  0  0  0  0  0  0
   -3.8458    0.6232    0.2851 N   0  0  0  0  0  0  0  0  0  0  0  0
   -5.1840    1.0638    0.5155 C   0  0  0  0  0  0  0  0  0  0  0  0
   -5.4995    2.4292    0.4110 C   0  0  0  0  0  0  0  0  0  0  0  0
   -6.8046    2.8748    0.6474 C   0  0  0  0  0  0  0  0  0  0  0  0
   -7.7965    1.9648    1.0008 C   0  0  0  0  0  0  0  0  0  0  0  0
   -9.3991    2.5149    1.2937 Cl  0  0  0  0  0  0  0  0  0  0  0  0
   -7.4935    0.6121    1.1249 C   0  0  0  0  0  0  0  0  0  0  0  0
   -6.1899    0.1616    0.8867 C   0  0  0  0  0  0  0  0  0  0  0  0
   -3.3766   -0.6221   -0.1242 C   0  0  0  0  0  0  0  0  0  0  0  0
   -4.2127   -1.7533   -0.6100 C   0  0  0  0  0  0  0  0  0  0  0  0
    3.0279   -1.1977   -1.4027 C   0  0  0  0  0  0  0  0  0  0  0  0
    5.0825    1.2625    0.8869 C   0  0  0  0  0  0  0  0  0  0  0  0
    6.2437    0.9151    0.7721 O   0  0  0  0  0  0  0  0  0  0  0  0
    5.0449    4.7604    0.8900 H   0  0  0  0  0  0  0  0  0  0  0  0
    6.2914    3.7725    1.6666 H   0  0  0  0  0  0  0  0  0  0  0  0
    6.1275    3.7718   -0.1017 H   0  0  0  0  0  0  0  0  0  0  0  0
    2.6274    3.4941    1.1118 H   0  0  0  0  0  0  0  0  0  0  0  0
    3.0528   -1.3107    1.4732 H   0  0  0  0  0  0  0  0  0  0  0  0
    4.8118   -1.2874    1.6214 H   0  0  0  0  0  0  0  0  0  0  0  0
    5.1054   -1.2361   -0.8168 H   0  0  0  0  0  0  0  0  0  0  0  0
    5.0174   -3.5429   -0.7583 H   0  0  0  0  0  0  0  0  0  0  0  0
    4.0148   -3.4673    0.6882 H   0  0  0  0  0  0  0  0  0  0  0  0
    3.2177   -3.8597   -2.1629 H   0  0  0  0  0  0  0  0  0  0  0  0
    2.3807   -4.3995   -0.6905 H   0  0  0  0  0  0  0  0  0  0  0  0
    1.3216   -2.3829   -2.1227 H   0  0  0  0  0  0  0  0  0  0  0  0
    0.4503   -0.3139    0.3468 H   0  0  0  0  0  0  0  0  0  0  0  0
   -2.7681    2.4408    0.7630 H   0  0  0  0  0  0  0  0  0  0  0  0
   -4.7623    3.1699    0.1111 H   0  0  0  0  0  0  0  0  0  0  0  0
   -7.0396    3.9318    0.5492 H   0  0  0  0  0  0  0  0  0  0  0  0
   -8.2625   -0.0981    1.4188 H   0  0  0  0  0  0  0  0  0  0  0  0
   -5.9869   -0.8921    1.0505 H   0  0  0  0  0  0  0  0  0  0  0  0
   -4.4664   -2.4272    0.2137 H   0  0  0  0  0  0  0  0  0  0  0  0
   -5.1310   -1.4061   -1.0924 H   0  0  0  0  0  0  0  0  0  0  0  0
   -3.6825   -2.3361   -1.3696 H   0  0  0  0  0  0  0  0  0  0  0  0
    2.6096   -0.2044   -1.2306 H   0  0  0  0  0  0  0  0  0  0  0  0
    3.4389   -1.2097   -2.4205 H   0  0  0  0  0  0  0  0  0  0  0  0
  1  2  1  0
  2  3  2  0
  3  4  1  0
  4  5  2  0
  4  6  1  0
  6  7  1  0
  7  8  1  0
  8  9  1  0
  9 10  1  0
 10 11  1  0
 11 12  1  0
 12 13  1  0
 13 14  1  0
 14 15  2  0
 14 16  1  0
 16 17  1  0
 17 18  2  0
 18 19  1  0
 19 20  1  0
 20 21  1  0
 21 22  2  0
 22 23  1  0
 23 24  1  0
 23 25  2  0
 25 26  1  0
 19 27  1  0
 27 28  1  0
 11 29  1  0
  6 30  1  0
 30 31  2  0
 30  2  1  0
 29  8  1  0
 27 16  2  0
 26 20  2  0
  1 32  1  0
  1 33  1  0
  1 34  1  0
  3 35  1  0
  7 36  1  0
  7 37  1  0
  8 38  1  6
  9 39  1  0
  9 40  1  0
 10 41  1  0
 10 42  1  0
 11 43  1  6
 13 44  1  0
 18 45  1  0
 21 46  1  0
 22 47  1  0
 25 48  1  0
 26 49  1  0
 28 50  1  0
 28 51  1  0
 28 52  1  0
 29 53  1  0
 29 54  1  0
M  END
>  <_SMILES>  (13) 
CC1=CC(=O)N(C[C@H]2CC[C@@H](ONC(=O)c3ncn(-c4ccc(Cl)cc4)c3C)C2)C1=O

$$$$

     RDKit          3D

 55 58  0  0  0  0  0  0  0  0999 V2000
    7.9156   -2.8500    0.0467 C   0  0  0  0  0  0  0  0  0  0  0  0
    7.3698   -1.5141    0.3694 C   0  0  0  0  0  0  0  0  0  0  0  0
    7.5921   -0.7315    1.4285 C   0  0  0  0  0  0  0  0  0  0  0  0
    6.7972    0.4883    1.2576 C   0  0  0  0  0  0  0  0  0  0  0  0
    6.7315    1.3793    2.0842 O   0  0  0  0  0  0  0  0  0  0  0  0
    6.1639    0.3903    0.0625 N   0  0  0  0  0  0  0  0  0  0  0  0
    5.2644    1.3920   -0.4741 C   0  0  0  0  0  0  0  0  0  0  0  0
    3.8669    1.3117    0.1440 C   0  0  1  0  0  0  0  0  0  0  0  0
    2.9532    2.4568   -0.3139 C   0  0  0  0  0  0  0  0  0  0  0  0
    1.5436    1.8690   -0.4045 C   0  0  0  0  0  0  0  0  0  0  0  0
    1.6531    0.4353    0.1084 C   0  0  1  0  0  0  0  0  0  0  0  0
    0.7465   -0.4443   -0.5505 O   0  0  0  0  0  0  0  0  0  0  0  0
   -0.5063   -0.4240    0.1228 N   0  0  0  0  0  0  0  0  0  0  0  0
   -1.5212    0.1289   -0.6545 C   0  0  0  0  0  0  0  0  0  0  0  0
   -1.3206    0.7523   -1.6922 O   0  0  0  0  0  0  0  0  0  0  0  0
   -2.8051   -0.1543   -0.0541 C   0  0  0  0  0  0  0  0  0  0  0  0
   -3.0856   -0.5251    1.2571 N   0  0  0  0  0  0  0  0  0  0  0  0
   -4.3996   -0.6645    1.4384 C   0  0  0  0  0  0  0  0  0  0  0  0
   -5.0151   -0.3713    0.2805 N   0  0  0  0  0  0  0  0  0  0  0  0
   -6.4751   -0.3401    0.1652 C   0  0  0  0  0  0  0  0  0  0  0  0
   -7.0862    0.6252   -0.6307 C   0  0  0  0  0  0  0  0  0  0  0  0
   -8.4817    0.6591   -0.7108 C   0  0  0  0  0  0  0  0  0  0  0  0
   -9.2438   -0.2644    0.0055 C   0  0  0  0  0  0  0  0  0  0  0  0
  -10.9577   -0.2195   -0.0957 Cl  0  0  0  0  0  0  0  0  0  0  0  0
   -8.6218   -1.2219    0.8081 C   0  0  0  0  0  0  0  0  0  0  0  0
   -7.2269   -1.2600    0.8960 C   0  0  0  0  0  0  0  0  0  0  0  0
   -4.0350   -0.0817   -0.7010 C   0  0  0  0  0  0  0  0  0  0  0  0
   -4.3180    0.1714   -2.1351 C   0  0  0  0  0  0  0  0  0  0  0  0
    3.0881    0.0536   -0.2330 C   0  0  0  0  0  0  0  0  0  0  0  0
    6.4221   -0.8116   -0.5121 C   0  0  0  0  0  0  0  0  0  0  0  0
    5.9625   -1.2743   -1.5402 O   0  0  0  0  0  0  0  0  0  0  0  0
    7.1083   -3.5835   -0.0446 H   0  0  0  0  0  0  0  0  0  0  0  0
    8.6011   -3.1994    0.8255 H   0  0  0  0  0  0  0  0  0  0  0  0
    8.4664   -2.8220   -0.8987 H   0  0  0  0  0  0  0  0  0  0  0  0
    8.2228   -0.9124    2.2810 H   0  0  0  0  0  0  0  0  0  0  0  0
    5.2111    1.2737   -1.5626 H   0  0  0  0  0  0  0  0  0  0  0  0
    5.6979    2.3763   -0.2607 H   0  0  0  0  0  0  0  0  0  0  0  0
    3.9491    1.3540    1.2390 H   0  0  0  0  0  0  0  0  0  0  0  0
    3.2519    2.8499   -1.2927 H   0  0  0  0  0  0  0  0  0  0  0  0
    2.9917    3.2902    0.3961 H   0  0  0  0  0  0  0  0  0  0  0  0
    1.1933    1.8926   -1.4431 H   0  0  0  0  0  0  0  0  0  0  0  0
    0.8251    2.4477    0.1856 H   0  0  0  0  0  0  0  0  0  0  0  0
    1.5144    0.3966    1.1978 H   0  0  0  0  0  0  0  0  0  0  0  0
   -0.6928   -1.3056    0.5889 H   0  0  0  0  0  0  0  0  0  0  0  0
   -2.4009   -0.5975    2.0054 H   0  0  0  0  0  0  0  0  0  0  0  0
   -4.8738   -0.9140    2.3805 H   0  0  0  0  0  0  0  0  0  0  0  0
   -6.5192    1.3814   -1.1608 H   0  0  0  0  0  0  0  0  0  0  0  0
   -8.9720    1.4126   -1.3251 H   0  0  0  0  0  0  0  0  0  0  0  0
   -9.2225   -1.9436    1.3591 H   0  0  0  0  0  0  0  0  0  0  0  0
   -6.7683   -2.0351    1.4998 H   0  0  0  0  0  0  0  0  0  0  0  0
   -5.2220   -0.3547   -2.4508 H   0  0  0  0  0  0  0  0  0  0  0  0
   -4.4323    1.2450   -2.3051 H   0  0  0  0  0  0  0  0  0  0  0  0
   -3.4986   -0.2005   -2.7565 H   0  0  0  0  0  0  0  0  0  0  0  0
    3.4135   -0.8280    0.3288 H   0  0  0  0  0  0  0  0  0  0  0  0
    3.1849   -0.1843   -1.2998 H   0  0  0  0  0  0  0  0  0  0  0  0
  1  2  1  0
  2  3  2  0
  3  4  1  0
  4  5  2  0
  4  6  1  0
  6  7  1  0
  7  8  1  0
  8  9  1  0
  9 10  1  0
 10 11  1  0
 11 12  1  0
 12 13  1  0
 13 14  1  0
 14 15  2  0
 14 16  1  0
 16 17  1  0
 17 18  2  0
 18 19  1  0
 19 20  1  0
 20 21  1  0
 21 22  2  0
 22 23  1  0
 23 24  1  0
 23 25  2  0
 25 26  1  0
 19 27  1  0
 27 28  1  0
 11 29  1  0
  6 30  1  0
 30 31  2  0
 30  2  1  0
 29  8  1  0
 27 16  2  0
 26 20  2  0
  1 32  1  0
  1 33  1  0
  1 34  1  0
  3 35  1  0
  7 36  1  0
  7 37  1  0
  8 38  1  1
  9 39  1  0
  9 40  1  0
 10 41  1  0
 10 42  1  0
 11 43  1  1
 13 44  1  0
 17 45  1  0
 18 46  1  0
 21 47  1  0
 22 48  1  0
 25 49  1  0
 26 50  1  0
 28 51  1  0
 28 52  1  0
 28 53  1  0
 29 54  1  0
 29 55  1  0
M  CHG  1  17   1
M  END
>  <_SMILES>  (14) 
CC1=CC(=O)N(C[C@H]2CC[C@@H](ONC(=O)c3[nH+]cn(-c4ccc(Cl)cc4)c3C)C2)C1=O

$$$$

     RDKit          3D

 61 65  0  0  0  0  0  0  0  0999 V2000
    1.5685   -2.6184    1.3570 C   0  0  0  0  0  0  0  0  0  0  0  0
    0.9915   -1.4197    0.8029 N   0  0  0  0  0  0  0  0  0  0  0  0
   -0.3503   -1.2946    0.7516 N   0  0  0  0  0  0  0  0  0  0  0  0
   -0.4932   -0.1323    0.0788 C   0  0  0  0  0  0  0  0  0  0  0  0
   -1.8205    0.4350   -0.2533 C   0  0  0  0  0  0  0  0  0  0  0  0
   -1.9733    1.4830   -0.8731 O   0  0  0  0  0  0  0  0  0  0  0  0
   -2.8659   -0.3457    0.2093 N   0  0  0  0  0  0  0  0  0  0  0  0
   -4.2883   -0.0626    0.0434 C   0  0  2  0  0  0  0  0  0  0  0  0
   -4.6887    1.2717    0.7203 C   0  0  0  0  0  0  0  0  0  0  0  0
   -6.2002    1.5211    0.5735 C   0  0  1  0  0  0  0  0  0  0  0  0
   -6.5624    1.5704   -0.9206 C   0  0  0  0  0  0  0  0  0  0  0  0
   -6.2025    0.2366   -1.5971 C   0  0  2  0  0  0  0  0  0  0  0  0
   -6.9742   -0.9030   -0.9134 C   0  0  0  0  0  0  0  0  0  0  0  0
   -6.6096   -0.9625    0.5783 C   0  0  2  0  0  0  0  0  0  0  0  0
   -6.9720    0.3740    1.2446 C   0  0  0  0  0  0  0  0  0  0  0  0
   -5.0979   -1.2020    0.7185 C   0  0  0  0  0  0  0  0  0  0  0  0
   -4.6909   -0.0134   -1.4514 C   0  0  0  0  0  0  0  0  0  0  0  0
    0.7048    0.4551   -0.2652 N   0  0  0  0  0  0  0  0  0  0  0  0
    1.6276   -0.3469    0.2297 C   0  0  0  0  0  0  0  0  0  0  0  0
    3.0714   -0.1442    0.1285 C   0  0  0  0  0  0  0  0  0  0  0  0
    3.6204    0.2827   -1.0825 C   0  0  0  0  0  0  0  0  0  0  0  0
    4.9993    0.4829   -1.2121 C   0  0  0  0  0  0  0  0  0  0  0  0
    5.8779    0.2759   -0.1323 C   0  0  0  0  0  0  0  0  0  0  0  0
    7.3885    0.5101   -0.3105 C   0  0  0  0  0  0  0  0  0  0  0  0
    8.2190    0.2242    0.9610 C   0  0  0  0  0  0  0  0  0  0  0  0
    7.6424    1.9819   -0.7015 C   0  0  0  0  0  0  0  0  0  0  0  0
    7.9298   -0.4122   -1.4245 C   0  0  0  0  0  0  0  0  0  0  0  0
    5.3098   -0.1287    1.0861 C   0  0  0  0  0  0  0  0  0  0  0  0
    3.9283   -0.3305    1.2167 C   0  0  0  0  0  0  0  0  0  0  0  0
    2.4570   -2.8940    0.7845 H   0  0  0  0  0  0  0  0  0  0  0  0
    1.8214   -2.4258    2.4020 H   0  0  0  0  0  0  0  0  0  0  0  0
    0.8386   -3.4303    1.2940 H   0  0  0  0  0  0  0  0  0  0  0  0
   -2.5717   -1.1850    0.7030 H   0  0  0  0  0  0  0  0  0  0  0  0
   -4.1435    2.1141    0.2784 H   0  0  0  0  0  0  0  0  0  0  0  0
   -4.4147    1.2528    1.7833 H   0  0  0  0  0  0  0  0  0  0  0  0
   -6.4649    2.4719    1.0495 H   0  0  0  0  0  0  0  0  0  0  0  0
   -6.0279    2.3945   -1.4089 H   0  0  0  0  0  0  0  0  0  0  0  0
   -7.6342    1.7720   -1.0388 H   0  0  0  0  0  0  0  0  0  0  0  0
   -6.4687    0.2772   -2.6592 H   0  0  0  0  0  0  0  0  0  0  0  0
   -6.7368   -1.8590   -1.3961 H   0  0  0  0  0  0  0  0  0  0  0  0
   -8.0538   -0.7472   -1.0295 H   0  0  0  0  0  0  0  0  0  0  0  0
   -7.1600   -1.7776    1.0612 H   0  0  0  0  0  0  0  0  0  0  0  0
   -6.7330    0.3368    2.3145 H   0  0  0  0  0  0  0  0  0  0  0  0
   -8.0515    0.5517    1.1655 H   0  0  0  0  0  0  0  0  0  0  0  0
   -4.8321   -1.2750    1.7817 H   0  0  0  0  0  0  0  0  0  0  0  0
   -4.8337   -2.1693    0.2704 H   0  0  0  0  0  0  0  0  0  0  0  0
   -4.4186   -0.9546   -1.9469 H   0  0  0  0  0  0  0  0  0  0  0  0
   -4.1458    0.7789   -1.9780 H   0  0  0  0  0  0  0  0  0  0  0  0
    2.9727    0.4677   -1.9384 H   0  0  0  0  0  0  0  0  0  0  0  0
    5.3754    0.8145   -2.1780 H   0  0  0  0  0  0  0  0  0  0  0  0
    9.2872    0.3967    0.7823 H   0  0  0  0  0  0  0  0  0  0  0  0
    8.1107   -0.8167    1.2878 H   0  0  0  0  0  0  0  0  0  0  0  0
    7.9233    0.8757    1.7916 H   0  0  0  0  0  0  0  0  0  0  0  0
    7.1759    2.2429   -1.6578 H   0  0  0  0  0  0  0  0  0  0  0  0
    7.2431    2.6660    0.0567 H   0  0  0  0  0  0  0  0  0  0  0  0
    8.7150    2.1847   -0.8022 H   0  0  0  0  0  0  0  0  0  0  0  0
    9.0125   -0.2909   -1.5467 H   0  0  0  0  0  0  0  0  0  0  0  0
    7.4728   -0.2003   -2.3973 H   0  0  0  0  0  0  0  0  0  0  0  0
    7.7363   -1.4662   -1.1924 H   0  0  0  0  0  0  0  0  0  0  0  0
    5.9220   -0.2856    1.9702 H   0  0  0  0  0  0  0  0  0  0  0  0
    3.5375   -0.6086    2.1922 H   0  0  0  0  0  0  0  0  0  0  0  0
  1  2  1  0
  2  3  1  0
  3  4  2  0
  4  5  1  0
  5  6  2  0
  5  7  1  0
  8  7  1  6
  8  9  1  0
  9 10  1  0
 10 11  1  0
 11 12  1  0
 12 13  1  0
 13 14  1  0
 14 15  1  0
 14 16  1  0
 12 17  1  0
  4 18  1  0
 18 19  2  0
 19 20  1  0
 20 21  1  0
 21 22  2  0
 22 23  1  0
 23 24  1  0
 24 25  1  0
 24 26  1  0
 24 27  1  0
 23 28  2  0
 28 29  1  0
 19  2  1  0
 29 20  2  0
 16  8  1  0
 17  8  1  0
 15 10  1  0
  1 30  1  0
  1 31  1  0
  1 32  1  0
  7 33  1  0
  9 34  1  0
  9 35  1  0
 10 36  1  1
 11 37  1  0
 11 38  1  0
 12 39  1  6
 13 40  1  0
 13 41  1  0
 14 42  1  1
 15 43  1  0
 15 44  1  0
 16 45  1  0
 16 46  1  0
 17 47  1  0
 17 48  1  0
 21 49  1  0
 22 50  1  0
 25 51  1  0
 25 52  1  0
 25 53  1  0
 26 54  1  0
 26 55  1  0
 26 56  1  0
 27 57  1  0
 27 58  1  0
 27 59  1  0
 28 60  1  0
 29 61  1  0
M  END
>  <_SMILES>  (15) 
Cn1nc(C(=O)N[C@]23C[C@H]4C[C@H](C[C@H](C4)C2)C3)nc1-c1ccc(C(C)(C)C)cc1

$$$$

     RDKit          3D

 61 66  0  0  0  0  0  0  0  0999 V2000
   -0.8818   -0.4433   -0.5618 O   0  0  0  0  0  0  0  0  0  0  0  0
   -1.2288   -0.5436    0.6125 C   0  0  0  0  0  0  0  0  0  0  0  0
   -2.5204   -0.4322    1.0689 N   0  0  0  0  0  0  0  0  0  0  0  0
   -3.6952   -0.2064    0.2218 C   0  0  2  0  0  0  0  0  0  0  0  0
   -3.8920   -1.3541   -0.7998 C   0  0  0  0  0  0  0  0  0  0  0  0
   -5.1583   -1.1180   -1.6419 C   0  0  1  0  0  0  0  0  0  0  0  0
   -6.3828   -1.0659   -0.7148 C   0  0  0  0  0  0  0  0  0  0  0  0
   -6.2251    0.0785    0.2985 C   0  0  2  0  0  0  0  0  0  0  0  0
   -6.0957    1.4115   -0.4549 C   0  0  0  0  0  0  0  0  0  0  0  0
   -4.8695    1.3741   -1.3805 C   0  0  2  0  0  0  0  0  0  0  0  0
   -5.0284    0.2216   -2.3868 C   0  0  0  0  0  0  0  0  0  0  0  0
   -3.6029    1.1401   -0.5382 C   0  0  0  0  0  0  0  0  0  0  0  0
   -4.9539   -0.1560    1.1298 C   0  0  0  0  0  0  0  0  0  0  0  0
   -0.1833   -0.7563    1.6768 C   0  0  0  0  0  0  0  0  0  0  0  0
   -0.3527   -1.7869    2.5256 C   0  0  0  0  0  0  0  0  0  0  0  0
   -1.4814   -2.5307    2.4853 F   0  0  0  0  0  0  0  0  0  0  0  0
    0.6322   -2.2307    3.4824 C   0  0  0  0  0  0  0  0  0  0  0  0
    1.8635   -2.6458    3.1518 C   0  0  0  0  0  0  0  0  0  0  0  0
    2.6558   -3.1422    4.1266 F   0  0  0  0  0  0  0  0  0  0  0  0
    2.4034   -2.7153    1.8117 C   0  0  0  0  0  0  0  0  0  0  0  0
    2.4694   -1.7143    0.9193 C   0  0  0  0  0  0  0  0  0  0  0  0
    2.0418   -0.3273    1.2586 C   0  0  0  0  0  0  0  0  0  0  0  0
    3.1280    0.6466    1.0765 C   0  0  0  0  0  0  0  0  0  0  0  0
    3.0462    1.9179    1.5119 N   0  0  0  0  0  0  0  0  0  0  0  0
    4.2480    2.4939    1.1328 O   0  0  0  0  0  0  0  0  0  0  0  0
    4.9522    1.5269    0.4940 C   0  0  0  0  0  0  0  0  0  0  0  0
    6.2744    1.9179   -0.0618 C   0  0  0  0  0  0  0  0  0  0  0  0
    6.7388    0.9911   -1.1441 N   0  0  0  0  0  0  0  0  0  0  0  0
    6.0389    1.2391   -2.4214 C   0  0  0  0  0  0  0  0  0  0  0  0
    7.3986    1.0816   -3.1182 C   0  0  0  0  0  0  0  0  0  0  0  0
    8.0055    1.4250   -1.7491 C   0  0  0  0  0  0  0  0  0  0  0  0
    4.3297    0.3704    0.4265 N   0  0  0  0  0  0  0  0  0  0  0  0
    0.8920    0.1084    1.6586 N   0  0  0  0  0  0  0  0  0  0  0  0
   -2.6755   -0.5084    2.0665 H   0  0  0  0  0  0  0  0  0  0  0  0
   -3.0282   -1.4347   -1.4701 H   0  0  0  0  0  0  0  0  0  0  0  0
   -3.9650   -2.3166   -0.2765 H   0  0  0  0  0  0  0  0  0  0  0  0
   -5.2774   -1.9328   -2.3649 H   0  0  0  0  0  0  0  0  0  0  0  0
   -6.4948   -2.0212   -0.1875 H   0  0  0  0  0  0  0  0  0  0  0  0
   -7.2949   -0.9199   -1.3063 H   0  0  0  0  0  0  0  0  0  0  0  0
   -7.0988    0.1104    0.9590 H   0  0  0  0  0  0  0  0  0  0  0  0
   -7.0030    1.5999   -1.0419 H   0  0  0  0  0  0  0  0  0  0  0  0
   -6.0012    2.2386    0.2594 H   0  0  0  0  0  0  0  0  0  0  0  0
   -4.7841    2.3250   -1.9182 H   0  0  0  0  0  0  0  0  0  0  0  0
   -5.9151    0.3897   -3.0104 H   0  0  0  0  0  0  0  0  0  0  0  0
   -4.1649    0.1924   -3.0627 H   0  0  0  0  0  0  0  0  0  0  0  0
   -2.7277    1.1588   -1.1982 H   0  0  0  0  0  0  0  0  0  0  0  0
   -3.4688    1.9661    0.1726 H   0  0  0  0  0  0  0  0  0  0  0  0
   -4.8484    0.6421    1.8769 H   0  0  0  0  0  0  0  0  0  0  0  0
   -5.0491   -1.0931    1.6948 H   0  0  0  0  0  0  0  0  0  0  0  0
    0.3043   -2.3018    4.5147 H   0  0  0  0  0  0  0  0  0  0  0  0
    2.8099   -3.6890    1.5452 H   0  0  0  0  0  0  0  0  0  0  0  0
    2.9221   -1.8637   -0.0543 H   0  0  0  0  0  0  0  0  0  0  0  0
    6.2514    2.9423   -0.4522 H   0  0  0  0  0  0  0  0  0  0  0  0
    7.0268    1.8625    0.7325 H   0  0  0  0  0  0  0  0  0  0  0  0
    6.7042    0.0037   -0.8529 H   0  0  0  0  0  0  0  0  0  0  0  0
    5.2941    0.4776   -2.6669 H   0  0  0  0  0  0  0  0  0  0  0  0
    5.5976    2.2369   -2.5210 H   0  0  0  0  0  0  0  0  0  0  0  0
    7.6120    0.0634   -3.4613 H   0  0  0  0  0  0  0  0  0  0  0  0
    7.6067    1.7907   -3.9229 H   0  0  0  0  0  0  0  0  0  0  0  0
    8.2381    2.4871   -1.6139 H   0  0  0  0  0  0  0  0  0  0  0  0
    8.8639    0.8184   -1.4496 H   0  0  0  0  0  0  0  0  0  0  0  0
  1  2  2  0
  2  3  1  0
  4  3  1  1
  4  5  1  0
  5  6  1  0
  6  7  1  0
  7  8  1  0
  8  9  1  0
  9 10  1  0
 10 11  1  0
 10 12  1  0
  8 13  1  0
  2 14  1  0
 14 15  2  0
 15 16  1  0
 15 17  1  0
 17 18  2  0
 18 19  1  0
 18 20  1  0
 20 21  2  0
 21 22  1  0
 22 23  1  0
 23 24  2  0
 24 25  1  0
 25 26  1  0
 26 27  1  0
 27 28  1  0
 28 29  1  0
 29 30  1  0
 30 31  1  0
 26 32  2  0
 22 33  2  0
 12  4  1  0
 33 14  1  0
 13  4  1  0
 32 23  1  0
 11  6  1  0
 31 28  1  0
  3 34  1  0
  5 35  1  0
  5 36  1  0
  6 37  1  6
  7 38  1  0
  7 39  1  0
  8 40  1  1
  9 41  1  0
  9 42  1  0
 10 43  1  6
 11 44  1  0
 11 45  1  0
 12 46  1  0
 12 47  1  0
 13 48  1  0
 13 49  1  0
 17 50  1  0
 20 51  1  0
 21 52  1  0
 27 53  1  0
 27 54  1  0
 28 55  1  0
 29 56  1  0
 29 57  1  0
 30 58  1  0
 30 59  1  0
 31 60  1  0
 31 61  1  0
M  CHG  1  28   1
M  END
>  <_SMILES>  (16) 
O=C(N[C@]12C[C@H]3C[C@H](C[C@H](C3)C1)C2)C1=C(F)/C=C(F)\C=C/C(c2noc(C[NH+]3CCC3)n2)=N\1

$$$$

     RDKit          3D

 54 58  0  0  0  0  0  0  0  0999 V2000
    3.9146   -3.9616   -0.4575 C   0  0  0  0  0  0  0  0  0  0  0  0
    3.6291   -2.4903   -0.4243 C   0  0  0  0  0  0  0  0  0  0  0  0
    2.3317   -2.0334   -0.5191 C   0  0  0  0  0  0  0  0  0  0  0  0
    2.1618   -0.6698   -0.4805 C   0  0  0  0  0  0  0  0  0  0  0  0
    0.9237   -0.0287   -0.5618 N   0  0  0  0  0  0  0  0  0  0  0  0
   -0.3244   -0.5950   -0.6954 C   0  0  0  0  0  0  0  0  0  0  0  0
   -0.5599   -1.7944   -0.7850 O   0  0  0  0  0  0  0  0  0  0  0  0
   -1.4173    0.4661   -0.7503 C   0  0  0  0  0  0  0  0  0  0  0  0
   -2.8431   -0.1160   -0.7133 C   0  0  1  0  0  0  0  0  0  0  0  0
   -3.2389   -0.7067    0.6684 C   0  0  2  0  0  0  0  0  0  0  0  0
   -4.6059   -1.4089    0.5243 C   0  0  0  0  0  0  0  0  0  0  0  0
   -5.6799   -0.3973    0.0862 C   0  0  1  0  0  0  0  0  0  0  0  0
   -5.7885    0.7137    1.1442 C   0  0  0  0  0  0  0  0  0  0  0  0
   -4.4339    1.4271    1.2968 C   0  0  1  0  0  0  0  0  0  0  0  0
   -3.3744    0.4013    1.7311 C   0  0  0  0  0  0  0  0  0  0  0  0
   -4.0314    2.0394   -0.0552 C   0  0  0  0  0  0  0  0  0  0  0  0
   -3.9083    0.9362   -1.1237 C   0  0  2  0  0  0  0  0  0  0  0  0
   -5.2722    0.2286   -1.2585 C   0  0  0  0  0  0  0  0  0  0  0  0
    3.1887    0.1857   -0.3570 N   0  0  0  0  0  0  0  0  0  0  0  0
    4.4221   -0.3350   -0.2695 C   0  0  0  0  0  0  0  0  0  0  0  0
    5.5723    0.5796   -0.1338 C   0  0  0  0  0  0  0  0  0  0  0  0
    6.8924    0.0775   -0.0662 C   0  0  0  0  0  0  0  0  0  0  0  0
    7.9965    0.9270    0.0621 C   0  0  0  0  0  0  0  0  0  0  0  0
    7.7990    2.2980    0.1254 C   0  0  0  0  0  0  0  0  0  0  0  0
    8.8537    3.1135    0.2483 F   0  0  0  0  0  0  0  0  0  0  0  0
    6.5232    2.8326    0.0633 C   0  0  0  0  0  0  0  0  0  0  0  0
    5.4275    1.9777   -0.0647 C   0  0  0  0  0  0  0  0  0  0  0  0
    4.2163    2.5541   -0.1181 F   0  0  0  0  0  0  0  0  0  0  0  0
    4.6807   -1.6566   -0.2998 N   0  0  0  0  0  0  0  0  0  0  0  0
    4.9894   -4.1519   -0.3719 H   0  0  0  0  0  0  0  0  0  0  0  0
    3.4125   -4.4635    0.3755 H   0  0  0  0  0  0  0  0  0  0  0  0
    3.5664   -4.3936   -1.4009 H   0  0  0  0  0  0  0  0  0  0  0  0
    1.5117   -2.7303   -0.6174 H   0  0  0  0  0  0  0  0  0  0  0  0
    1.0109    0.9783   -0.5127 H   0  0  0  0  0  0  0  0  0  0  0  0
   -1.2504    1.1796    0.0623 H   0  0  0  0  0  0  0  0  0  0  0  0
   -1.2762    1.0079   -1.6945 H   0  0  0  0  0  0  0  0  0  0  0  0
   -2.8790   -0.9286   -1.4533 H   0  0  0  0  0  0  0  0  0  0  0  0
   -2.4966   -1.4402    1.0009 H   0  0  0  0  0  0  0  0  0  0  0  0
   -4.8925   -1.8685    1.4783 H   0  0  0  0  0  0  0  0  0  0  0  0
   -4.5346   -2.2213   -0.2093 H   0  0  0  0  0  0  0  0  0  0  0  0
   -6.6456   -0.9042   -0.0185 H   0  0  0  0  0  0  0  0  0  0  0  0
   -6.5617    1.4352    0.8528 H   0  0  0  0  0  0  0  0  0  0  0  0
   -6.0981    0.2867    2.1060 H   0  0  0  0  0  0  0  0  0  0  0  0
   -4.5166    2.2169    2.0517 H   0  0  0  0  0  0  0  0  0  0  0  0
   -3.6620   -0.0427    2.6927 H   0  0  0  0  0  0  0  0  0  0  0  0
   -2.4137    0.8989    1.9004 H   0  0  0  0  0  0  0  0  0  0  0  0
   -3.0879    2.5875    0.0447 H   0  0  0  0  0  0  0  0  0  0  0  0
   -4.7843    2.7741   -0.3676 H   0  0  0  0  0  0  0  0  0  0  0  0
   -3.6415    1.3853   -2.0876 H   0  0  0  0  0  0  0  0  0  0  0  0
   -6.0353    0.9463   -1.5842 H   0  0  0  0  0  0  0  0  0  0  0  0
   -5.2174   -0.5476   -2.0317 H   0  0  0  0  0  0  0  0  0  0  0  0
    7.0694   -0.9971   -0.1144 H   0  0  0  0  0  0  0  0  0  0  0  0
    9.0031    0.5231    0.1123 H   0  0  0  0  0  0  0  0  0  0  0  0
    6.3747    3.9051    0.1138 H   0  0  0  0  0  0  0  0  0  0  0  0
  1  2  1  0
  2  3  1  0
  3  4  2  0
  4  5  1  0
  5  6  1  0
  6  7  2  0
  6  8  1  0
  8  9  1  0
  9 10  1  0
 10 11  1  0
 11 12  1  0
 12 13  1  0
 13 14  1  0
 14 15  1  0
 14 16  1  0
 16 17  1  0
 17 18  1  0
  4 19  1  0
 19 20  2  0
 20 21  1  0
 21 22  1  0
 22 23  2  0
 23 24  1  0
 24 25  1  0
 24 26  2  0
 26 27  1  0
 27 28  1  0
 20 29  1  0
 29  2  2  0
 17  9  1  0
 27 21  2  0
 15 10  1  0
 18 12  1  0
  1 30  1  0
  1 31  1  0
  1 32  1  0
  3 33  1  0
  5 34  1  0
  8 35  1  0
  8 36  1  0
  9 37  1  6
 10 38  1  1
 11 39  1  0
 11 40  1  0
 12 41  1  6
 13 42  1  0
 13 43  1  0
 14 44  1  1
 15 45  1  0
 15 46  1  0
 16 47  1  0
 16 48  1  0
 17 49  1  6
 18 50  1  0
 18 51  1  0
 22 52  1  0
 23 53  1  0
 26 54  1  0
M  END
>  <_SMILES>  (17) 
Cc1cc(NC(=O)C[C@H]2[C@@H]3C[C@H]4C[C@@H](C3)C[C@@H]2C4)nc(-c2ccc(F)cc2F)n1

$$$$

     RDKit          3D

 37 40  0  0  0  0  0  0  0  0999 V2000
   -2.7965    2.3370   -0.9898 C   0  0  0  0  0  0  0  0  0  0  0  0
   -1.8820    1.2277   -0.5535 C   0  0  0  0  0  0  0  0  0  0  0  0
   -0.5626    1.4406   -0.8065 N   0  0  0  0  0  0  0  0  0  0  0  0
    0.2565    0.4431   -0.3770 C   0  0  0  0  0  0  0  0  0  0  0  0
    1.6729    0.3928   -0.5059 C   0  0  0  0  0  0  0  0  0  0  0  0
    2.2169   -0.7596    0.0384 C   0  0  0  0  0  0  0  0  0  0  0  0
    3.6036   -1.2043    0.1184 C   0  0  0  0  0  0  0  0  0  0  0  0
    3.9828   -2.1403    0.8199 O   0  0  0  0  0  0  0  0  0  0  0  0
    4.4927   -0.4942   -0.6762 N   0  0  0  0  0  0  0  0  0  0  0  0
    5.8853   -0.8112   -0.7319 C   0  0  0  0  0  0  0  0  0  0  0  0
    6.8756   -0.0330    0.0888 C   0  0  0  0  0  0  0  0  0  0  0  0
    6.8572    0.1203   -1.4035 C   0  0  0  0  0  0  0  0  0  0  0  0
    0.9878   -1.7587    0.7181 S   0  0  0  0  0  0  0  0  0  0  0  0
   -0.2402   -0.6780    0.2698 C   0  0  0  0  0  0  0  0  0  0  0  0
   -1.5415   -0.9145    0.5343 N   0  0  0  0  0  0  0  0  0  0  0  0
   -2.3635    0.0686    0.0837 C   0  0  0  0  0  0  0  0  0  0  0  0
   -3.7829   -0.1870    0.3664 C   0  0  0  0  0  0  0  0  0  0  0  0
   -4.2280   -0.3490    1.6921 C   0  0  0  0  0  0  0  0  0  0  0  0
   -5.5738   -0.6044    1.9696 C   0  0  0  0  0  0  0  0  0  0  0  0
   -6.4822   -0.7097    0.9230 C   0  0  0  0  0  0  0  0  0  0  0  0
   -7.7711   -0.9540    1.1910 F   0  0  0  0  0  0  0  0  0  0  0  0
   -6.0726   -0.5704   -0.3942 C   0  0  0  0  0  0  0  0  0  0  0  0
   -4.7301   -0.3166   -0.6605 C   0  0  0  0  0  0  0  0  0  0  0  0
   -4.3506   -0.2010   -1.9422 F   0  0  0  0  0  0  0  0  0  0  0  0
   -3.4909    2.6111   -0.1896 H   0  0  0  0  0  0  0  0  0  0  0  0
   -3.3568    2.0460   -1.8821 H   0  0  0  0  0  0  0  0  0  0  0  0
   -2.2190    3.2341   -1.2389 H   0  0  0  0  0  0  0  0  0  0  0  0
    2.2422    1.1867   -0.9695 H   0  0  0  0  0  0  0  0  0  0  0  0
    4.1403    0.1933   -1.3265 H   0  0  0  0  0  0  0  0  0  0  0  0
    6.0767   -1.8771   -0.8463 H   0  0  0  0  0  0  0  0  0  0  0  0
    7.6940   -0.5834    0.5389 H   0  0  0  0  0  0  0  0  0  0  0  0
    6.5103    0.7880    0.6942 H   0  0  0  0  0  0  0  0  0  0  0  0
    6.4954    1.0574   -1.8085 H   0  0  0  0  0  0  0  0  0  0  0  0
    7.6715   -0.3210   -1.9672 H   0  0  0  0  0  0  0  0  0  0  0  0
   -3.5177   -0.2846    2.5156 H   0  0  0  0  0  0  0  0  0  0  0  0
   -5.9143   -0.7294    2.9932 H   0  0  0  0  0  0  0  0  0  0  0  0
   -6.7857   -0.6652   -1.2047 H   0  0  0  0  0  0  0  0  0  0  0  0
  1  2  1  0
  2  3  2  0
  3  4  1  0
  4  5  1  0
  5  6  2  0
  6  7  1  0
  7  8  2  0
  7  9  1  0
  9 10  1  0
 10 11  1  0
 11 12  1  0
  6 13  1  0
 13 14  1  0
 14 15  1  0
 15 16  2  0
 16 17  1  0
 17 18  1  0
 18 19  2  0
 19 20  1  0
 20 21  1  0
 20 22  2  0
 22 23  1  0
 23 24  1  0
 16  2  1  0
 23 17  2  0
 14  4  2  0
 12 10  1  0
  1 25  1  0
  1 26  1  0
  1 27  1  0
  5 28  1  0
  9 29  1  0
 10 30  1  0
 11 31  1  0
 11 32  1  0
 12 33  1  0
 12 34  1  0
 18 35  1  0
 19 36  1  0
 22 37  1  0
M  END
>  <_SMILES>  (18) 
Cc1nc2cc(C(=O)NC3CC3)sc2nc1-c1ccc(F)cc1F

$$$$

     RDKit          3D

 33 35  0  0  0  0  0  0  0  0999 V2000
   -3.7584    1.0111    1.1404 C   0  0  0  0  0  0  0  0  0  0  0  0
   -2.4425    0.8148    0.3869 C   0  0  2  0  0  0  0  0  0  0  0  0
   -2.5900   -0.0631   -0.8586 C   0  0  1  0  0  0  0  0  0  0  0  0
   -1.3201    0.0070   -1.7052 C   0  0  0  0  0  0  0  0  0  0  0  0
   -0.0650   -0.1554   -0.9459 N   0  0  0  0  0  0  0  0  0  0  0  0
    1.1079   -0.2586   -1.7027 C   0  0  0  0  0  0  0  0  0  0  0  0
    1.1457   -0.3087   -2.9265 O   0  0  0  0  0  0  0  0  0  0  0  0
    2.4240   -0.2820   -0.9605 C   0  0  0  0  0  0  0  0  0  0  0  0
    2.7815   -1.3591   -0.3248 N   0  0  0  0  0  0  0  0  0  0  0  0
    3.9963   -1.2973    0.3117 N   0  0  0  0  0  0  0  0  0  0  0  0
    4.8513   -0.2202    0.3204 C   0  0  0  0  0  0  0  0  0  0  0  0
    5.9306   -0.2281    0.8999 O   0  0  0  0  0  0  0  0  0  0  0  0
    4.3981    0.9834   -0.3987 C   0  0  0  0  0  0  0  0  0  0  0  0
    3.2221    0.9506   -1.0176 C   0  0  0  0  0  0  0  0  0  0  0  0
    2.7161    2.0108   -1.6716 F   0  0  0  0  0  0  0  0  0  0  0  0
   -0.0428    0.1107    0.5056 C   0  0  0  0  0  0  0  0  0  0  0  0
   -1.4196   -0.0249    1.1701 C   0  0  2  0  0  0  0  0  0  0  0  0
   -1.9367   -1.4096    0.9170 C   0  0  0  0  0  0  0  0  0  0  0  0
   -2.5732   -1.3923   -0.2198 N   0  0  0  0  0  0  0  0  0  0  0  0
   -3.1424   -2.4053   -0.7221 O   0  0  0  0  0  0  0  0  0  0  0  0
   -4.2277    0.0644    1.4266 H   0  0  0  0  0  0  0  0  0  0  0  0
   -4.4724    1.5622    0.5194 H   0  0  0  0  0  0  0  0  0  0  0  0
   -3.5898    1.5899    2.0546 H   0  0  0  0  0  0  0  0  0  0  0  0
   -2.0479    1.8071    0.1356 H   0  0  0  0  0  0  0  0  0  0  0  0
   -3.5120    0.0866   -1.4247 H   0  0  0  0  0  0  0  0  0  0  0  0
   -1.3409   -0.7524   -2.4965 H   0  0  0  0  0  0  0  0  0  0  0  0
   -1.2649    0.9862   -2.1970 H   0  0  0  0  0  0  0  0  0  0  0  0
    4.3024   -2.1412    0.7887 H   0  0  0  0  0  0  0  0  0  0  0  0
    5.0385    1.8529   -0.3924 H   0  0  0  0  0  0  0  0  0  0  0  0
    0.6632   -0.5778    0.9797 H   0  0  0  0  0  0  0  0  0  0  0  0
    0.3407    1.1290    0.6397 H   0  0  0  0  0  0  0  0  0  0  0  0
   -1.3899    0.2023    2.2383 H   0  0  0  0  0  0  0  0  0  0  0  0
   -1.7822   -2.2930    1.5390 H   0  0  0  0  0  0  0  0  0  0  0  0
  1  2  1  0
  2  3  1  0
  3  4  1  0
  4  5  1  0
  5  6  1  0
  6  7  2  0
  6  8  1  0
  8  9  2  0
  9 10  1  0
 10 11  1  0
 11 12  2  0
 11 13  1  0
 13 14  2  0
 14 15  1  0
  5 16  1  0
 16 17  1  0
 17 18  1  0
 18 19  2  0
 19 20  1  0
 17  2  1  0
 19  3  1  0
 14  8  1  0
  1 21  1  0
  1 22  1  0
  1 23  1  0
  2 24  1  6
  3 25  1  6
  4 26  1  0
  4 27  1  0
 10 28  1  0
 13 29  1  0
 16 30  1  0
 16 31  1  0
 17 32  1  1
 18 33  1  0
M  CHG  2  19   1  20  -1
M  END
>  <_SMILES>  (19) 
C[C@@H]1[C@H]2CN(C(=O)c3n[nH]c(=O)cc3F)C[C@@H]1C=[N+]2[O-]

$$$$

     RDKit          3D

 33 35  0  0  0  0  0  0  0  0999 V2000
   -3.8909    1.6232   -0.3422 C   0  0  0  0  0  0  0  0  0  0  0  0
   -2.4771    1.0757   -0.5416 C   0  0  2  0  0  0  0  0  0  0  0  0
   -2.4590   -0.3609   -1.0680 C   0  0  1  0  0  0  0  0  0  0  0  0
   -1.0455   -0.7479   -1.5002 C   0  0  0  0  0  0  0  0  0  0  0  0
    0.0148   -0.4125   -0.5248 N   0  0  0  0  0  0  0  0  0  0  0  0
    1.2843   -0.9700   -0.7743 C   0  0  0  0  0  0  0  0  0  0  0  0
    1.4644   -1.7893   -1.6759 O   0  0  0  0  0  0  0  0  0  0  0  0
    2.4554   -0.5796    0.0489 C   0  0  0  0  0  0  0  0  0  0  0  0
    2.6222    0.7389    0.3245 N   0  0  0  0  0  0  0  0  0  0  0  0
    3.7091    1.1389    1.0466 N   0  0  0  0  0  0  0  0  0  0  0  0
    4.5996    0.2139    1.4535 C   0  0  0  0  0  0  0  0  0  0  0  0
    5.6574    0.6863    2.1626 O   0  0  0  0  0  0  0  0  0  0  0  0
    4.4806   -1.1281    1.1938 C   0  0  0  0  0  0  0  0  0  0  0  0
    3.3732   -1.5292    0.4659 C   0  0  0  0  0  0  0  0  0  0  0  0
    3.2081   -2.8345    0.2115 F   0  0  0  0  0  0  0  0  0  0  0  0
   -0.2308    0.6497    0.4748 C   0  0  0  0  0  0  0  0  0  0  0  0
   -1.7189    0.8702    0.7800 C   0  0  2  0  0  0  0  0  0  0  0  0
   -2.3094   -0.4256    1.2484 C   0  0  0  0  0  0  0  0  0  0  0  0
   -2.7022   -1.0834    0.1946 N   0  0  0  0  0  0  0  0  0  0  0  0
   -3.2597   -2.2192    0.2447 O   0  0  0  0  0  0  0  0  0  0  0  0
   -3.8514    2.6264    0.0948 H   0  0  0  0  0  0  0  0  0  0  0  0
   -4.4090    1.6946   -1.3043 H   0  0  0  0  0  0  0  0  0  0  0  0
   -4.4989    0.9956    0.3172 H   0  0  0  0  0  0  0  0  0  0  0  0
   -1.9446    1.7581   -1.2156 H   0  0  0  0  0  0  0  0  0  0  0  0
   -3.2299   -0.5936   -1.8060 H   0  0  0  0  0  0  0  0  0  0  0  0
   -0.7914   -0.2225   -2.4291 H   0  0  0  0  0  0  0  0  0  0  0  0
   -0.9960   -1.8232   -1.7107 H   0  0  0  0  0  0  0  0  0  0  0  0
    5.4858    1.6454    2.1721 H   0  0  0  0  0  0  0  0  0  0  0  0
    5.2145   -1.8433    1.5399 H   0  0  0  0  0  0  0  0  0  0  0  0
    0.2984    0.3868    1.3971 H   0  0  0  0  0  0  0  0  0  0  0  0
    0.1973    1.5762    0.0756 H   0  0  0  0  0  0  0  0  0  0  0  0
   -1.8796    1.6697    1.5071 H   0  0  0  0  0  0  0  0  0  0  0  0
   -2.3708   -0.7869    2.2762 H   0  0  0  0  0  0  0  0  0  0  0  0
  1  2  1  0
  2  3  1  0
  3  4  1  0
  4  5  1  0
  5  6  1  0
  6  7  2  0
  6  8  1  0
  8  9  1  0
  9 10  2  0
 10 11  1  0
 11 12  1  0
 11 13  2  0
 13 14  1  0
 14 15  1  0
  5 16  1  0
 16 17  1  0
 17 18  1  0
 18 19  2  0
 19 20  1  0
 17  2  1  0
 19  3  1  0
 14  8  2  0
  1 21  1  0
  1 22  1  0
  1 23  1  0
  2 24  1  6
  3 25  1  6
  4 26  1  0
  4 27  1  0
 12 28  1  0
 13 29  1  0
 16 30  1  0
 16 31  1  0
 17 32  1  1
 18 33  1  0
M  CHG  2  19   1  20  -1
M  END
>  <_SMILES>  (20) 
C[C@@H]1[C@H]2CN(C(=O)c3nnc(O)cc3F)C[C@@H]1C=[N+]2[O-]

$$$$

     RDKit          3D

 64 67  0  0  0  0  0  0  0  0999 V2000
   -3.2973   -0.5816   -3.5183 C   0  0  0  0  0  0  0  0  0  0  0  0
   -3.4046    0.3546   -2.3540 C   0  0  0  0  0  0  0  0  0  0  0  0
   -3.4311    1.5722   -2.4478 O   0  0  0  0  0  0  0  0  0  0  0  0
   -3.4690   -0.3587   -1.1953 O   0  0  0  0  0  0  0  0  0  0  0  0
   -3.5646    0.3825    0.0465 C   0  0  2  0  0  0  0  0  0  0  0  0
   -2.3788   -0.0447    0.9385 C   0  0  2  0  0  0  0  0  0  0  0  0
   -1.0339    0.4288    0.3538 C   0  0  0  0  0  0  0  0  0  0  0  0
    0.0122   -0.3627    1.1329 C   0  0  2  0  0  0  0  0  0  0  0  0
    1.2640   -0.5414    0.4377 N   0  0  0  0  0  0  0  0  0  0  0  0
    2.1344    0.5134    0.2736 C   0  0  0  0  0  0  0  0  0  0  0  0
    1.8274    1.6633    0.5749 O   0  0  0  0  0  0  0  0  0  0  0  0
    3.4508    0.1584   -0.2620 C   0  0  0  0  0  0  0  0  0  0  0  0
    3.8479   -1.0673   -0.7853 C   0  0  0  0  0  0  0  0  0  0  0  0
    5.1562   -0.9797   -1.1928 N   0  0  0  0  0  0  0  0  0  0  0  0
    5.9158   -2.0597   -1.7814 C   0  0  0  0  0  0  0  0  0  0  0  0
    5.6149    0.2850   -0.9570 C   0  0  0  0  0  0  0  0  0  0  0  0
    4.5932    1.0116   -0.3738 C   0  0  0  0  0  0  0  0  0  0  0  0
    4.7493    2.4486    0.0100 C   0  0  0  0  0  0  0  0  0  0  0  0
    6.2326    2.8625    0.0374 C   0  0  0  0  0  0  0  0  0  0  0  0
    7.0061    2.3285   -1.1805 C   0  0  0  0  0  0  0  0  0  0  0  0
    6.9877    0.7912   -1.2488 C   0  0  0  0  0  0  0  0  0  0  0  0
   -0.6999   -1.6933    1.2931 C   0  0  0  0  0  0  0  0  0  0  0  0
   -0.1282   -2.7468    1.5577 O   0  0  0  0  0  0  0  0  0  0  0  0
   -2.1944   -1.5697    1.0546 C   0  0  1  0  0  0  0  0  0  0  0  0
   -2.9871   -2.2444    2.1646 C   0  0  0  0  0  0  0  0  0  0  0  0
   -4.3863   -1.7011    2.4360 C   0  0  0  0  0  0  0  0  0  0  0  0
   -5.1921   -1.2906    1.2018 C   0  0  0  0  0  0  0  0  0  0  0  0
   -4.9763    0.1571    0.6754 C   0  0  0  0  0  0  0  0  0  0  0  0
   -5.2201    1.1979    1.7920 C   0  0  0  0  0  0  0  0  0  0  0  0
   -6.0653    0.4088   -0.4003 C   0  0  0  0  0  0  0  0  0  0  0  0
   -4.1826   -1.2209   -3.5621 H   0  0  0  0  0  0  0  0  0  0  0  0
   -2.3904   -1.1846   -3.4260 H   0  0  0  0  0  0  0  0  0  0  0  0
   -3.2382   -0.0030   -4.4446 H   0  0  0  0  0  0  0  0  0  0  0  0
   -3.4542    1.4579   -0.1457 H   0  0  0  0  0  0  0  0  0  0  0  0
   -2.4737    0.4018    1.9361 H   0  0  0  0  0  0  0  0  0  0  0  0
   -0.9021    1.5091    0.4751 H   0  0  0  0  0  0  0  0  0  0  0  0
   -0.9628    0.2076   -0.7186 H   0  0  0  0  0  0  0  0  0  0  0  0
    0.1886    0.0682    2.1246 H   0  0  0  0  0  0  0  0  0  0  0  0
    1.6582   -1.4745    0.4407 H   0  0  0  0  0  0  0  0  0  0  0  0
    3.3030   -1.9928   -0.9143 H   0  0  0  0  0  0  0  0  0  0  0  0
    5.3296   -2.9815   -1.7461 H   0  0  0  0  0  0  0  0  0  0  0  0
    6.1367   -1.7980   -2.8192 H   0  0  0  0  0  0  0  0  0  0  0  0
    6.8382   -2.1884   -1.2095 H   0  0  0  0  0  0  0  0  0  0  0  0
    4.2133    3.0672   -0.7199 H   0  0  0  0  0  0  0  0  0  0  0  0
    4.3067    2.6365    0.9942 H   0  0  0  0  0  0  0  0  0  0  0  0
    6.7017    2.4777    0.9523 H   0  0  0  0  0  0  0  0  0  0  0  0
    6.3049    3.9552    0.0769 H   0  0  0  0  0  0  0  0  0  0  0  0
    8.0438    2.6792   -1.1479 H   0  0  0  0  0  0  0  0  0  0  0  0
    6.5579    2.7405   -2.0940 H   0  0  0  0  0  0  0  0  0  0  0  0
    7.3278    0.4656   -2.2377 H   0  0  0  0  0  0  0  0  0  0  0  0
    7.6829    0.3842   -0.5048 H   0  0  0  0  0  0  0  0  0  0  0  0
   -2.3922   -2.0670    0.0978 H   0  0  0  0  0  0  0  0  0  0  0  0
   -3.0694   -3.3112    1.9155 H   0  0  0  0  0  0  0  0  0  0  0  0
   -2.4260   -2.2187    3.1083 H   0  0  0  0  0  0  0  0  0  0  0  0
   -4.3250   -0.8825    3.1588 H   0  0  0  0  0  0  0  0  0  0  0  0
   -4.9419   -2.4931    2.9562 H   0  0  0  0  0  0  0  0  0  0  0  0
   -5.0291   -2.0166    0.3949 H   0  0  0  0  0  0  0  0  0  0  0  0
   -6.2523   -1.3895    1.4755 H   0  0  0  0  0  0  0  0  0  0  0  0
   -5.2335    2.2144    1.3811 H   0  0  0  0  0  0  0  0  0  0  0  0
   -4.4488    1.1815    2.5660 H   0  0  0  0  0  0  0  0  0  0  0  0
   -6.1859    1.0297    2.2822 H   0  0  0  0  0  0  0  0  0  0  0  0
   -5.9445    1.3948   -0.8630 H   0  0  0  0  0  0  0  0  0  0  0  0
   -6.0349   -0.3450   -1.1944 H   0  0  0  0  0  0  0  0  0  0  0  0
   -7.0694    0.3736    0.0387 H   0  0  0  0  0  0  0  0  0  0  0  0
  1  2  1  0
  2  3  2  0
  2  4  1  0
  4  5  1  0
  5  6  1  0
  6  7  1  0
  7  8  1  0
  8  9  1  0
  9 10  1  0
 10 11  2  0
 10 12  1  0
 12 13  2  0
 13 14  1  0
 14 15  1  0
 14 16  1  0
 16 17  2  0
 17 18  1  0
 18 19  1  0
 19 20  1  0
 20 21  1  0
  8 22  1  0
 22 23  2  0
 22 24  1  0
 24 25  1  0
 25 26  1  0
 26 27  1  0
 27 28  1  0
 28 29  1  0
 28 30  1  0
 28  5  1  0
 24  6  1  0
 17 12  1  0
 21 16  1  0
  1 31  1  0
  1 32  1  0
  1 33  1  0
  5 34  1  6
  6 35  1  1
  7 36  1  0
  7 37  1  0
  8 38  1  1
  9 39  1  0
 13 40  1  0
 15 41  1  0
 15 42  1  0
 15 43  1  0
 18 44  1  0
 18 45  1  0
 19 46  1  0
 19 47  1  0
 20 48  1  0
 20 49  1  0
 21 50  1  0
 21 51  1  0
 24 52  1  6
 25 53  1  0
 25 54  1  0
 26 55  1  0
 26 56  1  0
 27 57  1  0
 27 58  1  0
 29 59  1  0
 29 60  1  0
 29 61  1  0
 30 62  1  0
 30 63  1  0
 30 64  1  0
M  END
>  <_SMILES>  (21) 
CC(=O)O[C@@H]1[C@@H]2C[C@H](NC(=O)c3cn(C)c4c3CCCC4)C(=O)[C@H]2CCCC1(C)C

$$$$

     RDKit          3D

 52 56  0  0  0  0  0  0  0  0999 V2000
   -2.5982   -0.5828   -2.3637 C   0  0  0  0  0  0  0  0  0  0  0  0
   -2.5256   -0.2704   -0.9118 C   0  0  0  0  0  0  0  0  0  0  0  0
   -1.3334   -0.0562   -0.1546 C   0  0  0  0  0  0  0  0  0  0  0  0
    0.0681   -0.1346   -0.6178 C   0  0  0  0  0  0  0  0  0  0  0  0
    0.3792   -0.4506   -1.7611 O   0  0  0  0  0  0  0  0  0  0  0  0
    0.9698    0.1773    0.3765 N   0  0  0  0  0  0  0  0  0  0  0  0
    2.4232    0.1846    0.2563 C   0  0  2  0  0  0  0  0  0  0  0  0
    3.0289    0.5988    1.6238 C   0  0  0  0  0  0  0  0  0  0  0  0
    4.5644    0.6245    1.5612 C   0  0  1  0  0  0  0  0  0  0  0  0
    5.0771   -0.7752    1.1874 C   0  0  0  0  0  0  0  0  0  0  0  0
    4.5093   -1.1949   -0.1776 C   0  0  2  0  0  0  0  0  0  0  0  0
    4.9498   -0.1782   -1.2446 C   0  0  0  0  0  0  0  0  0  0  0  0
    4.4401    1.2264   -0.8798 C   0  0  2  0  0  0  0  0  0  0  0  0
    5.0083    1.6322    0.4892 C   0  0  0  0  0  0  0  0  0  0  0  0
    2.9030    1.2040   -0.8064 C   0  0  0  0  0  0  0  0  0  0  0  0
    2.9723   -1.2179   -0.1041 C   0  0  0  0  0  0  0  0  0  0  0  0
   -1.6193    0.2468    1.1268 N   0  0  0  0  0  0  0  0  0  0  0  0
   -2.9661    0.2303    1.1803 N   0  0  0  0  0  0  0  0  0  0  0  0
   -3.6067    0.5171    2.4453 C   0  0  0  0  0  0  0  0  0  0  0  0
   -3.5704   -0.1123   -0.0062 C   0  0  0  0  0  0  0  0  0  0  0  0
   -5.0147   -0.2454   -0.1717 C   0  0  0  0  0  0  0  0  0  0  0  0
   -5.5828   -1.3042   -0.8711 C   0  0  0  0  0  0  0  0  0  0  0  0
   -6.9691   -1.3586   -0.9908 C   0  0  0  0  0  0  0  0  0  0  0  0
   -7.7413   -0.3593   -0.4117 C   0  0  0  0  0  0  0  0  0  0  0  0
   -7.0917    0.6546    0.2719 C   0  0  0  0  0  0  0  0  0  0  0  0
   -5.7494    0.7298    0.4107 N   0  0  0  0  0  0  0  0  0  0  0  0
   -2.3380   -1.6312   -2.5398 H   0  0  0  0  0  0  0  0  0  0  0  0
   -3.5983   -0.4040   -2.7692 H   0  0  0  0  0  0  0  0  0  0  0  0
   -1.9094    0.0485   -2.9338 H   0  0  0  0  0  0  0  0  0  0  0  0
    0.5291    0.4016    1.2669 H   0  0  0  0  0  0  0  0  0  0  0  0
    2.6539    1.5882    1.9185 H   0  0  0  0  0  0  0  0  0  0  0  0
    2.7023   -0.0977    2.4077 H   0  0  0  0  0  0  0  0  0  0  0  0
    4.9697    0.9187    2.5357 H   0  0  0  0  0  0  0  0  0  0  0  0
    6.1735   -0.7761    1.1537 H   0  0  0  0  0  0  0  0  0  0  0  0
    4.7816   -1.5005    1.9555 H   0  0  0  0  0  0  0  0  0  0  0  0
    4.8808   -2.1915   -0.4412 H   0  0  0  0  0  0  0  0  0  0  0  0
    4.5621   -0.4743   -2.2271 H   0  0  0  0  0  0  0  0  0  0  0  0
    6.0439   -0.1699   -1.3237 H   0  0  0  0  0  0  0  0  0  0  0  0
    4.7624    1.9457   -1.6410 H   0  0  0  0  0  0  0  0  0  0  0  0
    6.1035    1.6728    0.4435 H   0  0  0  0  0  0  0  0  0  0  0  0
    4.6632    2.6390    0.7549 H   0  0  0  0  0  0  0  0  0  0  0  0
    2.5016    0.9556   -1.7961 H   0  0  0  0  0  0  0  0  0  0  0  0
    2.5260    2.2065   -0.5652 H   0  0  0  0  0  0  0  0  0  0  0  0
    2.5731   -1.5585   -1.0669 H   0  0  0  0  0  0  0  0  0  0  0  0
    2.6451   -1.9545    0.6415 H   0  0  0  0  0  0  0  0  0  0  0  0
   -4.3817   -0.2297    2.6333 H   0  0  0  0  0  0  0  0  0  0  0  0
   -4.0272    1.5242    2.3972 H   0  0  0  0  0  0  0  0  0  0  0  0
   -2.8625    0.4667    3.2454 H   0  0  0  0  0  0  0  0  0  0  0  0
   -4.9660   -2.0807   -1.3103 H   0  0  0  0  0  0  0  0  0  0  0  0
   -7.4404   -2.1738   -1.5325 H   0  0  0  0  0  0  0  0  0  0  0  0
   -8.8227   -0.3700   -0.4905 H   0  0  0  0  0  0  0  0  0  0  0  0
   -7.6509    1.4592    0.7410 H   0  0  0  0  0  0  0  0  0  0  0  0
  1  2  1  0
  2  3  1  0
  3  4  1  0
  4  5  2  0
  4  6  1  0
  7  6  1  1
  7  8  1  0
  8  9  1  0
  9 10  1  0
 10 11  1  0
 11 12  1  0
 12 13  1  0
 13 14  1  0
 13 15  1  0
 11 16  1  0
  3 17  2  0
 17 18  1  0
 18 19  1  0
 18 20  1  0
 20 21  1  0
 21 22  2  0
 22 23  1  0
 23 24  2  0
 24 25  1  0
 25 26  2  0
 20  2  2  0
 26 21  1  0
 15  7  1  0
 16  7  1  0
 14  9  1  0
  1 27  1  0
  1 28  1  0
  1 29  1  0
  6 30  1  0
  8 31  1  0
  8 32  1  0
  9 33  1  1
 10 34  1  0
 10 35  1  0
 11 36  1  6
 12 37  1  0
 12 38  1  0
 13 39  1  6
 14 40  1  0
 14 41  1  0
 15 42  1  0
 15 43  1  0
 16 44  1  0
 16 45  1  0
 19 46  1  0
 19 47  1  0
 19 48  1  0
 22 49  1  0
 23 50  1  0
 24 51  1  0
 25 52  1  0
M  END
>  <_SMILES>  (22) 
Cc1c(C(=O)N[C@]23C[C@H]4C[C@H](C[C@H](C4)C2)C3)nn(C)c1-c1ccccn1

$$$$

     RDKit          3D

 53 57  0  0  0  0  0  0  0  0999 V2000
    3.8464   -2.2333    1.1273 C   0  0  0  0  0  0  0  0  0  0  0  0
    3.0332   -1.1102    0.7101 N   0  0  0  0  0  0  0  0  0  0  0  0
    1.6589   -1.1027    0.7416 C   0  0  0  0  0  0  0  0  0  0  0  0
    1.2071    0.1031    0.2246 C   0  0  0  0  0  0  0  0  0  0  0  0
   -0.1807    0.5510    0.0792 C   0  0  0  0  0  0  0  0  0  0  0  0
   -0.4626    1.7264   -0.1356 O   0  0  0  0  0  0  0  0  0  0  0  0
   -1.1257   -0.4505    0.1857 N   0  0  0  0  0  0  0  0  0  0  0  0
   -2.5660   -0.2674   -0.0098 C   0  0  2  0  0  0  0  0  0  0  0  0
   -3.1646    0.7470    0.9977 C   0  0  0  0  0  0  0  0  0  0  0  0
   -4.6854    0.8757    0.7988 C   0  0  1  0  0  0  0  0  0  0  0  0
   -4.9695    1.3432   -0.6389 C   0  0  0  0  0  0  0  0  0  0  0  0
   -4.4132    0.3236   -1.6473 C   0  0  2  0  0  0  0  0  0  0  0  0
   -5.0745   -1.0422   -1.4041 C   0  0  0  0  0  0  0  0  0  0  0  0
   -4.7863   -1.5173    0.0287 C   0  0  2  0  0  0  0  0  0  0  0  0
   -5.3458   -0.4926    1.0273 C   0  0  0  0  0  0  0  0  0  0  0  0
   -3.2665   -1.6339    0.2249 C   0  0  0  0  0  0  0  0  0  0  0  0
   -2.8921    0.1946   -1.4514 C   0  0  0  0  0  0  0  0  0  0  0  0
    2.3838    0.8322   -0.1107 C   0  0  0  0  0  0  0  0  0  0  0  0
    2.4106    2.0669   -0.6494 N   0  0  0  0  0  0  0  0  0  0  0  0
    3.5037    0.0852    0.2056 C   0  0  0  0  0  0  0  0  0  0  0  0
    4.9212    0.4039    0.0386 C   0  0  0  0  0  0  0  0  0  0  0  0
    5.7503    0.5784    1.1538 C   0  0  0  0  0  0  0  0  0  0  0  0
    7.1033    0.8846    0.9860 C   0  0  0  0  0  0  0  0  0  0  0  0
    7.6276    1.0220   -0.2981 C   0  0  0  0  0  0  0  0  0  0  0  0
    9.2937    1.3980   -0.5043 Cl  0  0  0  0  0  0  0  0  0  0  0  0
    6.8109    0.8608   -1.4155 C   0  0  0  0  0  0  0  0  0  0  0  0
    5.4583    0.5550   -1.2461 C   0  0  0  0  0  0  0  0  0  0  0  0
    4.3185   -1.9808    2.0796 H   0  0  0  0  0  0  0  0  0  0  0  0
    3.2117   -3.1149    1.2507 H   0  0  0  0  0  0  0  0  0  0  0  0
    4.5963   -2.4347    0.3582 H   0  0  0  0  0  0  0  0  0  0  0  0
    1.1204   -1.9509    1.1418 H   0  0  0  0  0  0  0  0  0  0  0  0
   -0.7747   -1.3965    0.1698 H   0  0  0  0  0  0  0  0  0  0  0  0
   -2.9474    0.4298    2.0262 H   0  0  0  0  0  0  0  0  0  0  0  0
   -2.7089    1.7366    0.8800 H   0  0  0  0  0  0  0  0  0  0  0  0
   -5.0898    1.6038    1.5108 H   0  0  0  0  0  0  0  0  0  0  0  0
   -6.0500    1.4627   -0.7861 H   0  0  0  0  0  0  0  0  0  0  0  0
   -4.5144    2.3264   -0.8102 H   0  0  0  0  0  0  0  0  0  0  0  0
   -4.6259    0.6599   -2.6683 H   0  0  0  0  0  0  0  0  0  0  0  0
   -4.6959   -1.7761   -2.1261 H   0  0  0  0  0  0  0  0  0  0  0  0
   -6.1573   -0.9681   -1.5636 H   0  0  0  0  0  0  0  0  0  0  0  0
   -5.2572   -2.4923    0.1966 H   0  0  0  0  0  0  0  0  0  0  0  0
   -6.4331   -0.4088    0.9091 H   0  0  0  0  0  0  0  0  0  0  0  0
   -5.1623   -0.8308    2.0545 H   0  0  0  0  0  0  0  0  0  0  0  0
   -3.0501   -1.9995    1.2377 H   0  0  0  0  0  0  0  0  0  0  0  0
   -2.8634   -2.3879   -0.4647 H   0  0  0  0  0  0  0  0  0  0  0  0
   -2.4200    1.1600   -1.6691 H   0  0  0  0  0  0  0  0  0  0  0  0
   -2.4813   -0.5185   -2.1782 H   0  0  0  0  0  0  0  0  0  0  0  0
    3.2445    2.6400   -0.5681 H   0  0  0  0  0  0  0  0  0  0  0  0
    1.5485    2.6164   -0.6312 H   0  0  0  0  0  0  0  0  0  0  0  0
    5.3430    0.4907    2.1584 H   0  0  0  0  0  0  0  0  0  0  0  0
    7.7375    1.0206    1.8577 H   0  0  0  0  0  0  0  0  0  0  0  0
    7.2155    0.9744   -2.4174 H   0  0  0  0  0  0  0  0  0  0  0  0
    4.8197    0.4370   -2.1196 H   0  0  0  0  0  0  0  0  0  0  0  0
  1  2  1  0
  2  3  1  0
  3  4  2  0
  4  5  1  0
  5  6  2  0
  5  7  1  0
  8  7  1  6
  8  9  1  0
  9 10  1  0
 10 11  1  0
 11 12  1  0
 12 13  1  0
 13 14  1  0
 14 15  1  0
 14 16  1  0
 12 17  1  0
  4 18  1  0
 18 19  1  0
 18 20  2  0
 20 21  1  0
 21 22  1  0
 22 23  2  0
 23 24  1  0
 24 25  1  0
 24 26  2  0
 26 27  1  0
 20  2  1  0
 27 21  2  0
 16  8  1  0
 17  8  1  0
 15 10  1  0
  1 28  1  0
  1 29  1  0
  1 30  1  0
  3 31  1  0
  7 32  1  0
  9 33  1  0
  9 34  1  0
 10 35  1  1
 11 36  1  0
 11 37  1  0
 12 38  1  6
 13 39  1  0
 13 40  1  0
 14 41  1  1
 15 42  1  0
 15 43  1  0
 16 44  1  0
 16 45  1  0
 17 46  1  0
 17 47  1  0
 19 48  1  0
 19 49  1  0
 22 50  1  0
 23 51  1  0
 26 52  1  0
 27 53  1  0
M  END
>  <_SMILES>  (23) 
Cn1cc(C(=O)N[C@]23C[C@H]4C[C@H](C[C@H](C4)C2)C3)c(N)c1-c1ccc(Cl)cc1

$$$$

     RDKit          3D

 47 51  0  0  0  0  0  0  0  0999 V2000
   -0.5798    2.0471    1.9484 O   0  0  0  0  0  0  0  0  0  0  0  0
    0.1097    1.3142    1.2496 C   0  0  0  0  0  0  0  0  0  0  0  0
   -0.3805    0.4048    0.3388 N   0  0  0  0  0  0  0  0  0  0  0  0
   -1.7883    0.1626    0.0372 C   0  0  2  0  0  0  0  0  0  0  0  0
   -2.5635   -0.3283    1.2849 C   0  0  0  0  0  0  0  0  0  0  0  0
   -4.0317   -0.6218    0.9291 C   0  0  1  0  0  0  0  0  0  0  0  0
   -4.6865    0.6595    0.3854 C   0  0  0  0  0  0  0  0  0  0  0  0
   -3.9467    1.1381   -0.8755 C   0  0  2  0  0  0  0  0  0  0  0  0
   -3.9997    0.0346   -1.9438 C   0  0  0  0  0  0  0  0  0  0  0  0
   -3.3394   -1.2458   -1.4091 C   0  0  2  0  0  0  0  0  0  0  0  0
   -4.0844   -1.7151   -0.1496 C   0  0  0  0  0  0  0  0  0  0  0  0
   -1.8764   -0.9449   -1.0465 C   0  0  0  0  0  0  0  0  0  0  0  0
   -2.4784    1.4321   -0.5202 C   0  0  0  0  0  0  0  0  0  0  0  0
    1.5813    1.3281    1.3073 C   0  0  0  0  0  0  0  0  0  0  0  0
    2.3854    2.1399    2.1365 C   0  0  0  0  0  0  0  0  0  0  0  0
    3.6694    1.7736    1.8426 C   0  0  0  0  0  0  0  0  0  0  0  0
    4.7442    2.2120    2.5114 F   0  0  0  0  0  0  0  0  0  0  0  0
    3.6269    0.8392    0.8330 N   0  0  0  0  0  0  0  0  0  0  0  0
    4.6914    0.1730    0.1657 C   0  0  0  0  0  0  0  0  0  0  0  0
    4.4306   -1.1222   -0.3308 C   0  0  0  0  0  0  0  0  0  0  0  0
    5.4340   -1.8715   -0.9480 C   0  0  0  0  0  0  0  0  0  0  0  0
    6.7071   -1.3353   -1.0945 C   0  0  0  0  0  0  0  0  0  0  0  0
    6.9676   -0.0408   -0.6456 C   0  0  0  0  0  0  0  0  0  0  0  0
    5.9663    0.7250   -0.0271 C   0  0  0  0  0  0  0  0  0  0  0  0
    6.3851    2.3742    0.2758 Cl  0  0  0  0  0  0  0  0  0  0  0  0
    2.3307    0.5001    0.5493 N   0  0  0  0  0  0  0  0  0  0  0  0
    0.3383   -0.1108   -0.1635 H   0  0  0  0  0  0  0  0  0  0  0  0
   -2.5327    0.4211    2.0847 H   0  0  0  0  0  0  0  0  0  0  0  0
   -2.0902   -1.2314    1.6922 H   0  0  0  0  0  0  0  0  0  0  0  0
   -4.5674   -0.9596    1.8233 H   0  0  0  0  0  0  0  0  0  0  0  0
   -5.7410    0.4695    0.1504 H   0  0  0  0  0  0  0  0  0  0  0  0
   -4.6676    1.4443    1.1516 H   0  0  0  0  0  0  0  0  0  0  0  0
   -4.4221    2.0473   -1.2601 H   0  0  0  0  0  0  0  0  0  0  0  0
   -5.0413   -0.1686   -2.2214 H   0  0  0  0  0  0  0  0  0  0  0  0
   -3.4872    0.3691   -2.8541 H   0  0  0  0  0  0  0  0  0  0  0  0
   -3.3775   -2.0289   -2.1745 H   0  0  0  0  0  0  0  0  0  0  0  0
   -3.6328   -2.6394    0.2310 H   0  0  0  0  0  0  0  0  0  0  0  0
   -5.1275   -1.9485   -0.3963 H   0  0  0  0  0  0  0  0  0  0  0  0
   -1.3874   -1.8614   -0.6900 H   0  0  0  0  0  0  0  0  0  0  0  0
   -1.3282   -0.6364   -1.9468 H   0  0  0  0  0  0  0  0  0  0  0  0
   -2.4438    2.2487    0.2107 H   0  0  0  0  0  0  0  0  0  0  0  0
   -1.9442    1.7929   -1.4090 H   0  0  0  0  0  0  0  0  0  0  0  0
    2.0609    2.8595    2.8743 H   0  0  0  0  0  0  0  0  0  0  0  0
    3.4481   -1.5786   -0.2148 H   0  0  0  0  0  0  0  0  0  0  0  0
    5.2192   -2.8748   -1.3089 H   0  0  0  0  0  0  0  0  0  0  0  0
    7.4920   -1.9134   -1.5761 H   0  0  0  0  0  0  0  0  0  0  0  0
    7.9579    0.3814   -0.8069 H   0  0  0  0  0  0  0  0  0  0  0  0
  1  2  2  0
  2  3  1  0
  4  3  1  1
  4  5  1  0
  5  6  1  0
  6  7  1  0
  7  8  1  0
  8  9  1  0
  9 10  1  0
 10 11  1  0
 10 12  1  0
  8 13  1  0
  2 14  1  0
 14 15  1  0
 15 16  2  0
 16 17  1  0
 16 18  1  0
 18 19  1  0
 19 20  2  0
 20 21  1  0
 21 22  2  0
 22 23  1  0
 23 24  2  0
 24 25  1  0
 18 26  1  0
 12  4  1  0
 26 14  2  0
 13  4  1  0
 24 19  1  0
 11  6  1  0
  3 27  1  0
  5 28  1  0
  5 29  1  0
  6 30  1  1
  7 31  1  0
  7 32  1  0
  8 33  1  6
  9 34  1  0
  9 35  1  0
 10 36  1  6
 11 37  1  0
 11 38  1  0
 12 39  1  0
 12 40  1  0
 13 41  1  0
 13 42  1  0
 15 43  1  0
 20 44  1  0
 21 45  1  0
 22 46  1  0
 23 47  1  0
M  END
>  <_SMILES>  (24) 
O=C(N[C@]12C[C@H]3C[C@H](C[C@H](C3)C1)C2)c1cc(F)n(-c2ccccc2Cl)n1

$$$$

     RDKit          3D

 53 57  0  0  0  0  0  0  0  0999 V2000
   -0.3689    1.1616   -0.9141 O   0  0  0  0  0  0  0  0  0  0  0  0
   -0.2055   -0.0509   -0.8577 C   0  0  0  0  0  0  0  0  0  0  0  0
   -1.1180   -0.9536   -0.3641 N   0  0  0  0  0  0  0  0  0  0  0  0
   -2.4343   -0.5836    0.1843 C   0  0  2  0  0  0  0  0  0  0  0  0
   -3.1764   -1.8847    0.5957 C   0  0  0  0  0  0  0  0  0  0  0  0
   -4.5608   -1.5684    1.1836 C   0  0  1  0  0  0  0  0  0  0  0  0
   -4.3902   -0.6725    2.4205 C   0  0  0  0  0  0  0  0  0  0  0  0
   -3.6816    0.6339    2.0289 C   0  0  2  0  0  0  0  0  0  0  0  0
   -4.5194    1.3665    0.9670 C   0  0  0  0  0  0  0  0  0  0  0  0
   -4.6953    0.4770   -0.2757 C   0  0  2  0  0  0  0  0  0  0  0  0
   -5.3983   -0.8278    0.1298 C   0  0  0  0  0  0  0  0  0  0  0  0
   -3.3111    0.1485   -0.8630 C   0  0  0  0  0  0  0  0  0  0  0  0
   -2.2962    0.3060    1.4443 C   0  0  0  0  0  0  0  0  0  0  0  0
    1.0922   -0.5793   -1.3378 C   0  0  0  0  0  0  0  0  0  0  0  0
    1.3142   -1.9062   -1.6983 C   0  0  0  0  0  0  0  0  0  0  0  0
    2.5727   -2.2817   -2.1620 C   0  0  0  0  0  0  0  0  0  0  0  0
    3.5825   -1.3293   -2.2679 C   0  0  0  0  0  0  0  0  0  0  0  0
    3.3491   -0.0406   -1.9262 N   0  0  0  0  0  0  0  0  0  0  0  0
    4.4293    0.9710   -2.0561 C   0  0  0  0  0  0  0  0  0  0  0  0
    5.0728    1.2408   -0.7279 C   0  0  0  0  0  0  0  0  0  0  0  0
    4.7975    2.4052    0.0023 C   0  0  0  0  0  0  0  0  0  0  0  0
    5.4056    2.6142    1.2431 C   0  0  0  0  0  0  0  0  0  0  0  0
    6.2896    1.6681    1.7638 C   0  0  0  0  0  0  0  0  0  0  0  0
    6.5698    0.5084    1.0454 C   0  0  0  0  0  0  0  0  0  0  0  0
    5.9616    0.3069   -0.1876 C   0  0  0  0  0  0  0  0  0  0  0  0
    6.2267   -0.8140   -0.8729 F   0  0  0  0  0  0  0  0  0  0  0  0
    2.1314    0.3425   -1.4717 C   0  0  0  0  0  0  0  0  0  0  0  0
   -0.8262   -1.9040   -0.1830 H   0  0  0  0  0  0  0  0  0  0  0  0
   -2.5820   -2.4413    1.3327 H   0  0  0  0  0  0  0  0  0  0  0  0
   -3.2849   -2.5476   -0.2732 H   0  0  0  0  0  0  0  0  0  0  0  0
   -5.0637   -2.4994    1.4680 H   0  0  0  0  0  0  0  0  0  0  0  0
   -3.8092   -1.1987    3.1878 H   0  0  0  0  0  0  0  0  0  0  0  0
   -5.3703   -0.4500    2.8601 H   0  0  0  0  0  0  0  0  0  0  0  0
   -3.5670    1.2708    2.9132 H   0  0  0  0  0  0  0  0  0  0  0  0
   -4.0305    2.3080    0.6879 H   0  0  0  0  0  0  0  0  0  0  0  0
   -5.5010    1.6283    1.3809 H   0  0  0  0  0  0  0  0  0  0  0  0
   -5.2979    1.0032   -1.0244 H   0  0  0  0  0  0  0  0  0  0  0  0
   -6.3955   -0.6077    0.5303 H   0  0  0  0  0  0  0  0  0  0  0  0
   -5.5425   -1.4655   -0.7510 H   0  0  0  0  0  0  0  0  0  0  0  0
   -3.4235   -0.4728   -1.7612 H   0  0  0  0  0  0  0  0  0  0  0  0
   -2.8371    1.0801   -1.1923 H   0  0  0  0  0  0  0  0  0  0  0  0
   -1.6827   -0.2023    2.1996 H   0  0  0  0  0  0  0  0  0  0  0  0
   -1.7772    1.2423    1.2074 H   0  0  0  0  0  0  0  0  0  0  0  0
    0.5246   -2.6526   -1.6535 H   0  0  0  0  0  0  0  0  0  0  0  0
    2.7656   -3.3144   -2.4484 H   0  0  0  0  0  0  0  0  0  0  0  0
    4.5766   -1.5893   -2.6231 H   0  0  0  0  0  0  0  0  0  0  0  0
    5.1635    0.6113   -2.7863 H   0  0  0  0  0  0  0  0  0  0  0  0
    3.9779    1.8757   -2.4811 H   0  0  0  0  0  0  0  0  0  0  0  0
    4.1198    3.1684   -0.3777 H   0  0  0  0  0  0  0  0  0  0  0  0
    5.1960    3.5218    1.8083 H   0  0  0  0  0  0  0  0  0  0  0  0
    6.7630    1.8394    2.7291 H   0  0  0  0  0  0  0  0  0  0  0  0
    7.2594   -0.2321    1.4411 H   0  0  0  0  0  0  0  0  0  0  0  0
    2.0064    1.3924   -1.2169 H   0  0  0  0  0  0  0  0  0  0  0  0
  1  2  2  0
  2  3  1  0
  4  3  1  6
  4  5  1  0
  5  6  1  0
  6  7  1  0
  7  8  1  0
  8  9  1  0
  9 10  1  0
 10 11  1  0
 10 12  1  0
  8 13  1  0
  2 14  1  0
 14 15  1  0
 15 16  2  0
 16 17  1  0
 17 18  2  0
 18 19  1  0
 19 20  1  0
 20 21  2  0
 21 22  1  0
 22 23  2  0
 23 24  1  0
 24 25  2  0
 25 26  1  0
 18 27  1  0
 12  4  1  0
 27 14  2  0
 13  4  1  0
 25 20  1  0
 11  6  1  0
  3 28  1  0
  5 29  1  0
  5 30  1  0
  6 31  1  1
  7 32  1  0
  7 33  1  0
  8 34  1  1
  9 35  1  0
  9 36  1  0
 10 37  1  6
 11 38  1  0
 11 39  1  0
 12 40  1  0
 12 41  1  0
 13 42  1  0
 13 43  1  0
 15 44  1  0
 16 45  1  0
 17 46  1  0
 19 47  1  0
 19 48  1  0
 21 49  1  0
 22 50  1  0
 23 51  1  0
 24 52  1  0
 27 53  1  0
M  CHG  1  18   1
M  END
>  <_SMILES>  (25) 
O=C(N[C@]12C[C@H]3C[C@H](C[C@H](C3)C1)C2)c1ccc[n+](Cc2ccccc2F)c1

$$$$

     RDKit          3D

 48 51  0  0  0  0  0  0  0  0999 V2000
    1.2143    1.9929    3.0296 O   0  0  0  0  0  0  0  0  0  0  0  0
    1.0241    1.3267    2.0192 C   0  0  0  0  0  0  0  0  0  0  0  0
   -0.2003    1.1539    1.4077 N   0  0  0  0  0  0  0  0  0  0  0  0
   -1.4404    1.6712    1.8224 C   0  0  0  0  0  0  0  0  0  0  0  0
   -1.6966    2.4581    2.9654 C   0  0  0  0  0  0  0  0  0  0  0  0
   -3.0019    2.9421    3.3122 C   0  0  0  0  0  0  0  0  0  0  0  0
   -4.1678    2.6893    2.5594 C   0  0  0  0  0  0  0  0  0  0  0  0
   -3.8761    1.9125    1.4465 C   0  0  0  0  0  0  0  0  0  0  0  0
   -4.7784    1.4894    0.5130 C   0  0  0  0  0  0  0  0  0  0  0  0
   -4.0539    0.7548   -0.4042 N   0  0  0  0  0  0  0  0  0  0  0  0
   -4.5416    0.1016   -1.5741 C   0  0  0  0  0  0  0  0  0  0  0  0
   -5.8996    0.1439   -1.9205 C   0  0  0  0  0  0  0  0  0  0  0  0
   -6.3488   -0.5063   -3.0743 C   0  0  0  0  0  0  0  0  0  0  0  0
   -5.4521   -1.1988   -3.8860 C   0  0  0  0  0  0  0  0  0  0  0  0
   -4.1016   -1.2449   -3.5486 C   0  0  0  0  0  0  0  0  0  0  0  0
   -3.6452   -0.5984   -2.3978 C   0  0  0  0  0  0  0  0  0  0  0  0
   -2.7285    0.6931   -0.0826 N   0  0  0  0  0  0  0  0  0  0  0  0
   -2.5967    1.4030    1.0520 C   0  0  0  0  0  0  0  0  0  0  0  0
    2.1822    0.6426    1.3829 C   0  0  0  0  0  0  0  0  0  0  0  0
    2.1589    0.2165    0.0558 C   0  0  0  0  0  0  0  0  0  0  0  0
    1.0681    0.4023   -0.7045 F   0  0  0  0  0  0  0  0  0  0  0  0
    3.2657   -0.4098   -0.5257 C   0  0  0  0  0  0  0  0  0  0  0  0
    3.1701   -0.7751   -1.8140 F   0  0  0  0  0  0  0  0  0  0  0  0
    4.4365   -0.6592    0.2014 C   0  0  0  0  0  0  0  0  0  0  0  0
    5.6155   -1.2027   -0.3372 N   0  0  0  0  0  0  0  0  0  0  0  0
    5.5349   -2.0939   -1.4985 C   0  0  0  0  0  0  0  0  0  0  0  0
    6.9016   -2.7538   -1.7247 C   0  0  0  0  0  0  0  0  0  0  0  0
    7.2601   -3.5260   -0.5771 O   0  0  0  0  0  0  0  0  0  0  0  0
    4.4522   -0.1976    1.5281 C   0  0  0  0  0  0  0  0  0  0  0  0
    5.5584   -0.3856    2.2677 F   0  0  0  0  0  0  0  0  0  0  0  0
    3.3503    0.4288    2.1144 C   0  0  0  0  0  0  0  0  0  0  0  0
    3.4472    0.7931    3.4014 F   0  0  0  0  0  0  0  0  0  0  0  0
   -0.2639    0.6215    0.5411 H   0  0  0  0  0  0  0  0  0  0  0  0
   -0.8811    2.7257    3.6352 H   0  0  0  0  0  0  0  0  0  0  0  0
   -3.0918    3.5440    4.2181 H   0  0  0  0  0  0  0  0  0  0  0  0
   -5.1445    3.0616    2.8346 H   0  0  0  0  0  0  0  0  0  0  0  0
   -5.8417    1.6450    0.4243 H   0  0  0  0  0  0  0  0  0  0  0  0
   -6.6355    0.6696   -1.3208 H   0  0  0  0  0  0  0  0  0  0  0  0
   -7.4026   -0.4720   -3.3407 H   0  0  0  0  0  0  0  0  0  0  0  0
   -5.8058   -1.7023   -4.7821 H   0  0  0  0  0  0  0  0  0  0  0  0
   -3.4002   -1.7837   -4.1807 H   0  0  0  0  0  0  0  0  0  0  0  0
   -2.5847   -0.6487   -2.1579 H   0  0  0  0  0  0  0  0  0  0  0  0
    6.1994   -1.6196    0.3969 H   0  0  0  0  0  0  0  0  0  0  0  0
    4.7869   -2.8740   -1.3144 H   0  0  0  0  0  0  0  0  0  0  0  0
    5.2662   -1.5305   -2.3976 H   0  0  0  0  0  0  0  0  0  0  0  0
    6.8631   -3.4191   -2.5926 H   0  0  0  0  0  0  0  0  0  0  0  0
    7.6765   -1.9970   -1.8852 H   0  0  0  0  0  0  0  0  0  0  0  0
    8.1490   -3.8845   -0.7456 H   0  0  0  0  0  0  0  0  0  0  0  0
  1  2  2  0
  2  3  1  0
  3  4  1  0
  4  5  2  0
  5  6  1  0
  6  7  2  0
  7  8  1  0
  8  9  2  0
  9 10  1  0
 10 11  1  0
 11 12  2  0
 12 13  1  0
 13 14  2  0
 14 15  1  0
 15 16  2  0
 10 17  1  0
 17 18  2  0
  2 19  1  0
 19 20  1  0
 20 21  1  0
 20 22  2  0
 22 23  1  0
 22 24  1  0
 24 25  1  0
 25 26  1  0
 26 27  1  0
 27 28  1  0
 24 29  2  0
 29 30  1  0
 29 31  1  0
 31 32  1  0
 18  4  1  0
 31 19  2  0
 18  8  1  0
 16 11  1  0
  3 33  1  0
  5 34  1  0
  6 35  1  0
  7 36  1  0
  9 37  1  0
 12 38  1  0
 13 39  1  0
 14 40  1  0
 15 41  1  0
 16 42  1  0
 25 43  1  0
 26 44  1  0
 26 45  1  0
 27 46  1  0
 27 47  1  0
 28 48  1  0
M  END
>  <_SMILES>  (26) 
O=C(Nc1cccc2cn(-c3ccccc3)nc12)c1c(F)c(F)c(NCCO)c(F)c1F

$$$$

     RDKit          3D

 48 52  0  0  0  0  0  0  0  0999 V2000
   -1.2502    1.3653    3.1117 O   0  0  0  0  0  0  0  0  0  0  0  0
   -0.9810    0.8062    2.0555 C   0  0  0  0  0  0  0  0  0  0  0  0
    0.2863    0.6767    1.5271 N   0  0  0  0  0  0  0  0  0  0  0  0
    1.4938    1.1223    2.0931 C   0  0  0  0  0  0  0  0  0  0  0  0
    1.6646    1.7715    3.3344 C   0  0  0  0  0  0  0  0  0  0  0  0
    2.9422    2.1905    3.8350 C   0  0  0  0  0  0  0  0  0  0  0  0
    4.1623    2.0032    3.1523 C   0  0  0  0  0  0  0  0  0  0  0  0
    3.9538    1.3613    1.9393 C   0  0  0  0  0  0  0  0  0  0  0  0
    4.9244    1.0297    1.0375 C   0  0  0  0  0  0  0  0  0  0  0  0
    4.2687    0.4157   -0.0100 N   0  0  0  0  0  0  0  0  0  0  0  0
    4.8415   -0.1116   -1.2056 C   0  0  0  0  0  0  0  0  0  0  0  0
    4.0037   -0.7002   -2.1702 C   0  0  0  0  0  0  0  0  0  0  0  0
    4.5430   -1.2224   -3.3481 C   0  0  0  0  0  0  0  0  0  0  0  0
    5.9134   -1.1573   -3.5620 C   0  0  0  0  0  0  0  0  0  0  0  0
    6.4307   -1.6580   -4.6912 F   0  0  0  0  0  0  0  0  0  0  0  0
    6.7567   -0.5793   -2.6204 C   0  0  0  0  0  0  0  0  0  0  0  0
    6.2249   -0.0539   -1.4384 C   0  0  0  0  0  0  0  0  0  0  0  0
    2.9221    0.3415    0.1966 N   0  0  0  0  0  0  0  0  0  0  0  0
    2.7056    0.9217    1.3906 C   0  0  0  0  0  0  0  0  0  0  0  0
   -2.0887    0.2183    1.2579 C   0  0  0  0  0  0  0  0  0  0  0  0
   -1.9829    0.0058   -0.1142 C   0  0  0  0  0  0  0  0  0  0  0  0
   -0.8523    0.3038   -0.7727 F   0  0  0  0  0  0  0  0  0  0  0  0
   -3.0508   -0.5238   -0.8383 C   0  0  0  0  0  0  0  0  0  0  0  0
   -2.9086   -0.7151   -2.1604 F   0  0  0  0  0  0  0  0  0  0  0  0
   -4.2715   -0.8486   -0.2311 C   0  0  0  0  0  0  0  0  0  0  0  0
   -5.2888   -1.4366   -1.0232 N   0  0  0  0  0  0  0  0  0  0  0  0
   -6.6739   -1.5052   -0.5655 C   0  0  0  0  0  0  0  0  0  0  0  0
   -7.8054   -1.4297   -1.5525 C   0  0  0  0  0  0  0  0  0  0  0  0
   -7.5656   -0.2966   -0.5986 C   0  0  0  0  0  0  0  0  0  0  0  0
   -4.3566   -0.6568    1.1538 C   0  0  0  0  0  0  0  0  0  0  0  0
   -5.4704   -0.9909    1.8241 F   0  0  0  0  0  0  0  0  0  0  0  0
   -3.2890   -0.1248    1.8841 C   0  0  0  0  0  0  0  0  0  0  0  0
   -3.4441    0.0122    3.2094 F   0  0  0  0  0  0  0  0  0  0  0  0
    0.4134    0.2418    0.6145 H   0  0  0  0  0  0  0  0  0  0  0  0
    0.8006    1.9761    3.9645 H   0  0  0  0  0  0  0  0  0  0  0  0
    2.9645    2.6852    4.8076 H   0  0  0  0  0  0  0  0  0  0  0  0
    5.1170    2.3252    3.5441 H   0  0  0  0  0  0  0  0  0  0  0  0
    5.9926    1.1758    1.0516 H   0  0  0  0  0  0  0  0  0  0  0  0
    2.9271   -0.7585   -2.0193 H   0  0  0  0  0  0  0  0  0  0  0  0
    3.9018   -1.6774   -4.0965 H   0  0  0  0  0  0  0  0  0  0  0  0
    7.8247   -0.5413   -2.8127 H   0  0  0  0  0  0  0  0  0  0  0  0
    6.9159    0.3888   -0.7281 H   0  0  0  0  0  0  0  0  0  0  0  0
   -5.1359   -1.2742   -2.0194 H   0  0  0  0  0  0  0  0  0  0  0  0
   -6.8103   -2.2075    0.2544 H   0  0  0  0  0  0  0  0  0  0  0  0
   -7.5763   -1.2687   -2.5987 H   0  0  0  0  0  0  0  0  0  0  0  0
   -8.6670   -2.0645   -1.3803 H   0  0  0  0  0  0  0  0  0  0  0  0
   -7.1674    0.6287   -0.9966 H   0  0  0  0  0  0  0  0  0  0  0  0
   -8.2582   -0.1642    0.2246 H   0  0  0  0  0  0  0  0  0  0  0  0
  1  2  2  0
  2  3  1  0
  3  4  1  0
  4  5  2  0
  5  6  1  0
  6  7  2  0
  7  8  1  0
  8  9  2  0
  9 10  1  0
 10 11  1  0
 11 12  1  0
 12 13  2  0
 13 14  1  0
 14 15  1  0
 14 16  2  0
 16 17  1  0
 10 18  1  0
 18 19  2  0
  2 20  1  0
 20 21  1  0
 21 22  1  0
 21 23  2  0
 23 24  1  0
 23 25  1  0
 25 26  1  0
 26 27  1  0
 27 28  1  0
 28 29  1  0
 25 30  2  0
 30 31  1  0
 30 32  1  0
 32 33  1  0
 19  4  1  0
 32 20  2  0
 19  8  1  0
 29 27  1  0
 17 11  2  0
  3 34  1  0
  5 35  1  0
  6 36  1  0
  7 37  1  0
  9 38  1  0
 12 39  1  0
 13 40  1  0
 16 41  1  0
 17 42  1  0
 26 43  1  0
 27 44  1  0
 28 45  1  0
 28 46  1  0
 29 47  1  0
 29 48  1  0
M  END
>  <_SMILES>  (27) 
O=C(Nc1cccc2cn(-c3ccc(F)cc3)nc12)c1c(F)c(F)c(NC2CC2)c(F)c1F

$$$$

     RDKit          3D

 43 45  0  0  0  0  0  0  0  0999 V2000
    5.8593   -0.7121    0.1546 C   0  0  0  0  0  0  0  0  0  0  0  0
    4.7621    0.3117    0.4010 C   0  0  0  0  0  0  0  0  0  0  0  0
    4.4456    1.1084   -0.8673 C   0  0  0  0  0  0  0  0  0  0  0  0
    3.4835    2.1994   -0.5878 N   0  0  0  0  0  0  0  0  0  0  0  0
    3.6159    3.3507   -1.4908 C   0  0  0  0  0  0  0  0  0  0  0  0
    4.9565    4.3489   -0.8821 Cl  0  0  0  0  0  0  0  0  0  0  0  0
    2.1470    1.7223   -0.5132 C   0  0  0  0  0  0  0  0  0  0  0  0
    1.3688    1.4162   -1.6409 C   0  0  0  0  0  0  0  0  0  0  0  0
    1.8952    1.5677   -2.8671 F   0  0  0  0  0  0  0  0  0  0  0  0
    0.0600    0.9440   -1.5243 C   0  0  0  0  0  0  0  0  0  0  0  0
   -0.6014    0.6503   -2.6528 F   0  0  0  0  0  0  0  0  0  0  0  0
   -0.5216    0.7592   -0.2684 C   0  0  0  0  0  0  0  0  0  0  0  0
   -1.9206    0.2726   -0.1705 C   0  0  0  0  0  0  0  0  0  0  0  0
   -2.6821    0.5274   -1.0943 O   0  0  0  0  0  0  0  0  0  0  0  0
   -2.2656   -0.3512    1.0164 N   0  0  0  0  0  0  0  0  0  0  0  0
   -3.4652   -1.0585    1.2502 C   0  0  0  0  0  0  0  0  0  0  0  0
   -3.9213   -1.1371    2.5800 C   0  0  0  0  0  0  0  0  0  0  0  0
   -5.1041   -1.8057    2.9081 C   0  0  0  0  0  0  0  0  0  0  0  0
   -5.8696   -2.4439    1.9301 C   0  0  0  0  0  0  0  0  0  0  0  0
   -5.3774   -2.4060    0.6243 C   0  0  0  0  0  0  0  0  0  0  0  0
   -5.8483   -2.9497   -0.5449 N   0  0  0  0  0  0  0  0  0  0  0  0
   -4.9487   -2.6749   -1.5314 C   0  0  0  0  0  0  0  0  0  0  0  0
   -3.9355   -1.9793   -1.0761 N   0  0  0  0  0  0  0  0  0  0  0  0
   -4.2012   -1.7495    0.2585 C   0  0  0  0  0  0  0  0  0  0  0  0
    0.2397    1.0549    0.8608 C   0  0  0  0  0  0  0  0  0  0  0  0
   -0.2727    0.8986    2.0927 F   0  0  0  0  0  0  0  0  0  0  0  0
    1.5474    1.5263    0.7404 C   0  0  0  0  0  0  0  0  0  0  0  0
    2.2371    1.7956    1.8602 F   0  0  0  0  0  0  0  0  0  0  0  0
    5.5629   -1.4247   -0.6217 H   0  0  0  0  0  0  0  0  0  0  0  0
    6.7875   -0.2252   -0.1611 H   0  0  0  0  0  0  0  0  0  0  0  0
    6.0660   -1.2739    1.0709 H   0  0  0  0  0  0  0  0  0  0  0  0
    3.8688   -0.2118    0.7588 H   0  0  0  0  0  0  0  0  0  0  0  0
    5.0759    0.9930    1.2009 H   0  0  0  0  0  0  0  0  0  0  0  0
    4.0777    0.4441   -1.6604 H   0  0  0  0  0  0  0  0  0  0  0  0
    5.3856    1.5342   -1.2403 H   0  0  0  0  0  0  0  0  0  0  0  0
    2.7280    3.9920   -1.4801 H   0  0  0  0  0  0  0  0  0  0  0  0
    3.8408    3.0551   -2.5211 H   0  0  0  0  0  0  0  0  0  0  0  0
   -1.7029   -0.1505    1.8345 H   0  0  0  0  0  0  0  0  0  0  0  0
   -3.3683   -0.6441    3.3763 H   0  0  0  0  0  0  0  0  0  0  0  0
   -5.4380   -1.8243    3.9437 H   0  0  0  0  0  0  0  0  0  0  0  0
   -6.7885   -2.9615    2.1836 H   0  0  0  0  0  0  0  0  0  0  0  0
   -6.6986   -3.4825   -0.6517 H   0  0  0  0  0  0  0  0  0  0  0  0
   -5.0796   -3.0065   -2.5526 H   0  0  0  0  0  0  0  0  0  0  0  0
  1  2  1  0
  2  3  1  0
  3  4  1  0
  4  5  1  0
  5  6  1  0
  4  7  1  0
  7  8  1  0
  8  9  1  0
  8 10  2  0
 10 11  1  0
 10 12  1  0
 12 13  1  0
 13 14  2  0
 13 15  1  0
 15 16  1  0
 16 17  1  0
 17 18  2  0
 18 19  1  0
 19 20  2  0
 20 21  1  0
 21 22  1  0
 22 23  2  0
 23 24  1  0
 12 25  2  0
 25 26  1  0
 25 27  1  0
 27 28  1  0
 27  7  2  0
 24 16  2  0
 24 20  1  0
  1 29  1  0
  1 30  1  0
  1 31  1  0
  2 32  1  0
  2 33  1  0
  3 34  1  0
  3 35  1  0
  5 36  1  0
  5 37  1  0
 15 38  1  0
 17 39  1  0
 18 40  1  0
 19 41  1  0
 21 42  1  0
 22 43  1  0
M  END
>  <_SMILES>  (28) 
CCCN(CCl)c1c(F)c(F)c(C(=O)Nc2cccc3[nH]cnc23)c(F)c1F

$$$$

     RDKit          3D

 43 45  0  0  0  0  0  0  0  0999 V2000
    6.0944    1.4340    0.6265 C   0  0  0  0  0  0  0  0  0  0  0  0
    6.0104   -0.0756    0.8033 C   0  0  0  0  0  0  0  0  0  0  0  0
    4.5683   -0.5960    0.8229 C   0  0  0  0  0  0  0  0  0  0  0  0
    3.8340   -0.2807   -0.4157 N   0  0  0  0  0  0  0  0  0  0  0  0
    4.3130   -0.9046   -1.6588 C   0  0  0  0  0  0  0  0  0  0  0  0
    3.8808   -2.6299   -1.6743 Cl  0  0  0  0  0  0  0  0  0  0  0  0
    2.4319   -0.1303   -0.3382 C   0  0  0  0  0  0  0  0  0  0  0  0
    1.6326   -0.7130    0.6604 C   0  0  0  0  0  0  0  0  0  0  0  0
    2.1806   -1.4971    1.6028 F   0  0  0  0  0  0  0  0  0  0  0  0
    0.2451   -0.5392    0.6992 C   0  0  0  0  0  0  0  0  0  0  0  0
   -0.4383   -1.1434    1.6852 F   0  0  0  0  0  0  0  0  0  0  0  0
   -0.4172    0.2280   -0.2558 C   0  0  0  0  0  0  0  0  0  0  0  0
   -1.8929    0.4428   -0.2297 C   0  0  0  0  0  0  0  0  0  0  0  0
   -2.3673    1.3277   -0.9338 O   0  0  0  0  0  0  0  0  0  0  0  0
   -2.6242   -0.3854    0.6040 N   0  0  0  0  0  0  0  0  0  0  0  0
   -4.0216   -0.4096    0.8085 C   0  0  0  0  0  0  0  0  0  0  0  0
   -4.5228   -1.3455    1.7352 C   0  0  0  0  0  0  0  0  0  0  0  0
   -5.8879   -1.4602    2.0140 C   0  0  0  0  0  0  0  0  0  0  0  0
   -6.8152   -0.6374    1.3716 C   0  0  0  0  0  0  0  0  0  0  0  0
   -6.3483    0.3037    0.4440 C   0  0  0  0  0  0  0  0  0  0  0  0
   -7.0639    1.2098   -0.3023 N   0  0  0  0  0  0  0  0  0  0  0  0
   -6.1646    1.8537   -1.0090 C   0  0  0  0  0  0  0  0  0  0  0  0
   -4.9062    1.4004   -0.7495 N   0  0  0  0  0  0  0  0  0  0  0  0
   -4.9813    0.3974    0.1853 C   0  0  0  0  0  0  0  0  0  0  0  0
    0.3546    0.8172   -1.2568 C   0  0  0  0  0  0  0  0  0  0  0  0
   -0.2043    1.5592   -2.2243 F   0  0  0  0  0  0  0  0  0  0  0  0
    1.7416    0.6409   -1.2930 C   0  0  0  0  0  0  0  0  0  0  0  0
    2.4281    1.2585   -2.2691 F   0  0  0  0  0  0  0  0  0  0  0  0
    5.7041    1.7449   -0.3474 H   0  0  0  0  0  0  0  0  0  0  0  0
    5.5285    1.9526    1.4069 H   0  0  0  0  0  0  0  0  0  0  0  0
    7.1367    1.7625    0.6894 H   0  0  0  0  0  0  0  0  0  0  0  0
    6.4852   -0.3415    1.7557 H   0  0  0  0  0  0  0  0  0  0  0  0
    6.5975   -0.5680    0.0216 H   0  0  0  0  0  0  0  0  0  0  0  0
    4.0802   -0.1218    1.6843 H   0  0  0  0  0  0  0  0  0  0  0  0
    4.5757   -1.6772    1.0040 H   0  0  0  0  0  0  0  0  0  0  0  0
    5.3993   -0.8335   -1.7523 H   0  0  0  0  0  0  0  0  0  0  0  0
    3.8942   -0.4462   -2.5586 H   0  0  0  0  0  0  0  0  0  0  0  0
   -2.1092   -1.0587    1.1629 H   0  0  0  0  0  0  0  0  0  0  0  0
   -3.8407   -2.0099    2.2626 H   0  0  0  0  0  0  0  0  0  0  0  0
   -6.2346   -2.1951    2.7364 H   0  0  0  0  0  0  0  0  0  0  0  0
   -7.8771   -0.7148    1.5770 H   0  0  0  0  0  0  0  0  0  0  0  0
   -6.3599    2.6483   -1.7162 H   0  0  0  0  0  0  0  0  0  0  0  0
   -4.0393    1.7329   -1.1592 H   0  0  0  0  0  0  0  0  0  0  0  0
  1  2  1  0
  2  3  1  0
  3  4  1  0
  4  5  1  0
  5  6  1  0
  4  7  1  0
  7  8  1  0
  8  9  1  0
  8 10  2  0
 10 11  1  0
 10 12  1  0
 12 13  1  0
 13 14  2  0
 13 15  1  0
 15 16  1  0
 16 17  1  0
 17 18  2  0
 18 19  1  0
 19 20  2  0
 20 21  1  0
 21 22  2  0
 22 23  1  0
 23 24  1  0
 12 25  2  0
 25 26  1  0
 25 27  1  0
 27 28  1  0
 27  7  2  0
 24 16  2  0
 24 20  1  0
  1 29  1  0
  1 30  1  0
  1 31  1  0
  2 32  1  0
  2 33  1  0
  3 34  1  0
  3 35  1  0
  5 36  1  0
  5 37  1  0
 15 38  1  0
 17 39  1  0
 18 40  1  0
 19 41  1  0
 22 42  1  0
 23 43  1  0
M  END
>  <_SMILES>  (29) 
CCCN(CCl)c1c(F)c(F)c(C(=O)Nc2cccc3nc[nH]c23)c(F)c1F

$$$$

     RDKit          3D

 44 46  0  0  0  0  0  0  0  0999 V2000
   -6.6151   -0.4492    1.0151 C   0  0  0  0  0  0  0  0  0  0  0  0
   -5.3547   -1.0577    0.4178 C   0  0  0  0  0  0  0  0  0  0  0  0
   -4.8114   -0.2864   -0.7899 C   0  0  0  0  0  0  0  0  0  0  0  0
   -3.9664    0.8546   -0.3986 N   0  0  0  0  0  0  0  0  0  0  0  0
   -4.6563    2.1372   -0.2308 C   0  0  0  0  0  0  0  0  0  0  0  0
   -4.3800    2.7241    1.4239 Cl  0  0  0  0  0  0  0  0  0  0  0  0
   -2.5712    0.7483   -0.3802 C   0  0  0  0  0  0  0  0  0  0  0  0
   -1.9020   -0.4797   -0.1920 C   0  0  0  0  0  0  0  0  0  0  0  0
   -2.5891   -1.6217   -0.0344 F   0  0  0  0  0  0  0  0  0  0  0  0
   -0.5065   -0.5857   -0.1297 C   0  0  0  0  0  0  0  0  0  0  0  0
    0.0299   -1.8021    0.0658 F   0  0  0  0  0  0  0  0  0  0  0  0
    0.3116    0.5283   -0.2580 C   0  0  0  0  0  0  0  0  0  0  0  0
    1.7990    0.4473   -0.1942 C   0  0  0  0  0  0  0  0  0  0  0  0
    2.4717    1.4316   -0.4890 O   0  0  0  0  0  0  0  0  0  0  0  0
    2.3505   -0.7609    0.2041 N   0  0  0  0  0  0  0  0  0  0  0  0
    3.7247   -1.0567    0.3583 C   0  0  0  0  0  0  0  0  0  0  0  0
    4.0892   -2.3596    0.7644 C   0  0  0  0  0  0  0  0  0  0  0  0
    5.4359   -2.7473    0.9500 C   0  0  0  0  0  0  0  0  0  0  0  0
    6.4970   -1.8558    0.7418 C   0  0  0  0  0  0  0  0  0  0  0  0
    6.1357   -0.5759    0.3431 C   0  0  0  0  0  0  0  0  0  0  0  0
    6.9065    0.5365    0.0554 N   0  0  0  0  0  0  0  0  0  0  0  0
    6.1281    1.5670   -0.2915 C   0  0  0  0  0  0  0  0  0  0  0  0
    4.8748    1.1348   -0.2317 N   0  0  0  0  0  0  0  0  0  0  0  0
    4.8062   -0.1873    0.1569 C   0  0  0  0  0  0  0  0  0  0  0  0
   -0.3123    1.7544   -0.4614 C   0  0  0  0  0  0  0  0  0  0  0  0
    0.4056    2.8791   -0.6024 F   0  0  0  0  0  0  0  0  0  0  0  0
   -1.7092    1.8579   -0.5214 C   0  0  0  0  0  0  0  0  0  0  0  0
   -2.2035    3.0831   -0.7571 F   0  0  0  0  0  0  0  0  0  0  0  0
   -6.4173    0.5233    1.4705 H   0  0  0  0  0  0  0  0  0  0  0  0
   -7.3923   -0.3250    0.2545 H   0  0  0  0  0  0  0  0  0  0  0  0
   -7.0119   -1.1043    1.7975 H   0  0  0  0  0  0  0  0  0  0  0  0
   -4.5977   -1.1521    1.2037 H   0  0  0  0  0  0  0  0  0  0  0  0
   -5.6028   -2.0741    0.0884 H   0  0  0  0  0  0  0  0  0  0  0  0
   -4.2542   -0.9674   -1.4449 H   0  0  0  0  0  0  0  0  0  0  0  0
   -5.6439    0.0617   -1.4154 H   0  0  0  0  0  0  0  0  0  0  0  0
   -5.7398    2.0283   -0.3416 H   0  0  0  0  0  0  0  0  0  0  0  0
   -4.3469    2.8887   -0.9623 H   0  0  0  0  0  0  0  0  0  0  0  0
    1.7114   -1.5282    0.4031 H   0  0  0  0  0  0  0  0  0  0  0  0
    3.3171   -3.1087    0.9466 H   0  0  0  0  0  0  0  0  0  0  0  0
    5.6531   -3.7693    1.2649 H   0  0  0  0  0  0  0  0  0  0  0  0
    7.5322   -2.1427    0.8820 H   0  0  0  0  0  0  0  0  0  0  0  0
    7.9205    0.5729    0.0999 H   0  0  0  0  0  0  0  0  0  0  0  0
    6.4572    2.5613   -0.5684 H   0  0  0  0  0  0  0  0  0  0  0  0
    4.0268    1.6776   -0.4433 H   0  0  0  0  0  0  0  0  0  0  0  0
  1  2  1  0
  2  3  1  0
  3  4  1  0
  4  5  1  0
  5  6  1  0
  4  7  1  0
  7  8  1  0
  8  9  1  0
  8 10  2  0
 10 11  1  0
 10 12  1  0
 12 13  1  0
 13 14  2  0
 13 15  1  0
 15 16  1  0
 16 17  1  0
 17 18  2  0
 18 19  1  0
 19 20  2  0
 20 21  1  0
 21 22  1  0
 22 23  2  0
 23 24  1  0
 12 25  2  0
 25 26  1  0
 25 27  1  0
 27 28  1  0
 27  7  2  0
 24 16  2  0
 24 20  1  0
  1 29  1  0
  1 30  1  0
  1 31  1  0
  2 32  1  0
  2 33  1  0
  3 34  1  0
  3 35  1  0
  5 36  1  0
  5 37  1  0
 15 38  1  0
 17 39  1  0
 18 40  1  0
 19 41  1  0
 21 42  1  0
 22 43  1  0
 23 44  1  0
M  CHG  1  23   1
M  END
>  <_SMILES>  (30) 
CCCN(CCl)c1c(F)c(F)c(C(=O)Nc2cccc3[nH]c[nH+]c23)c(F)c1F

$$$$

     RDKit          3D

 40 43  0  0  0  0  0  0  0  0999 V2000
    0.9439    1.4282    2.1072 N   0  0  0  0  0  0  0  0  0  0  0  0
    1.9461    1.0843    1.6282 C   0  0  0  0  0  0  0  0  0  0  0  0
    3.2363    0.7104    1.1022 C   0  0  0  0  0  0  0  0  0  0  0  0
    4.3479    1.0949    1.8770 C   0  0  0  0  0  0  0  0  0  0  0  0
    5.6481    0.8122    1.4625 C   0  0  0  0  0  0  0  0  0  0  0  0
    5.8578    0.1412    0.2646 C   0  0  0  0  0  0  0  0  0  0  0  0
    4.7705   -0.2513   -0.5211 C   0  0  0  0  0  0  0  0  0  0  0  0
    3.4486    0.0229   -0.1164 C   0  0  0  0  0  0  0  0  0  0  0  0
    2.3645   -0.4050   -0.9466 N   0  0  0  0  0  0  0  0  0  0  0  0
    2.4284   -1.0096   -2.1904 C   0  0  0  0  0  0  0  0  0  0  0  0
    1.1321   -1.2152   -2.5744 C   0  0  0  0  0  0  0  0  0  0  0  0
    0.7109   -1.7865   -3.7677 C   0  0  0  0  0  0  0  0  0  0  0  0
   -0.7002   -1.8314   -3.8281 C   0  0  0  0  0  0  0  0  0  0  0  0
   -1.5718   -1.3518   -2.7920 C   0  0  0  0  0  0  0  0  0  0  0  0
   -1.0995   -0.7814   -1.5933 C   0  0  0  0  0  0  0  0  0  0  0  0
   -1.8584   -0.2879   -0.5202 N   0  0  0  0  0  0  0  0  0  0  0  0
   -3.2298   -0.2348   -0.4257 C   0  0  0  0  0  0  0  0  0  0  0  0
   -4.0332   -0.6066   -1.2717 O   0  0  0  0  0  0  0  0  0  0  0  0
   -3.7465    0.3406    0.8300 C   0  0  0  0  0  0  0  0  0  0  0  0
   -4.8087    1.2431    0.7901 C   0  0  0  0  0  0  0  0  0  0  0  0
   -5.3343    1.6440   -0.3763 F   0  0  0  0  0  0  0  0  0  0  0  0
   -5.3204    1.7710    1.9743 C   0  0  0  0  0  0  0  0  0  0  0  0
   -6.3335    2.6467    1.9341 F   0  0  0  0  0  0  0  0  0  0  0  0
   -4.7917    1.4072    3.2067 C   0  0  0  0  0  0  0  0  0  0  0  0
   -3.7372    0.5038    3.2409 C   0  0  0  0  0  0  0  0  0  0  0  0
   -3.2287    0.1396    4.4253 F   0  0  0  0  0  0  0  0  0  0  0  0
   -3.2142   -0.0292    2.0647 C   0  0  0  0  0  0  0  0  0  0  0  0
   -2.2073   -0.9115    2.1407 F   0  0  0  0  0  0  0  0  0  0  0  0
    0.3085   -0.7242   -1.5164 C   0  0  0  0  0  0  0  0  0  0  0  0
    1.0862   -0.2417   -0.5372 N   0  0  0  0  0  0  0  0  0  0  0  0
    4.2015    1.6264    2.8176 H   0  0  0  0  0  0  0  0  0  0  0  0
    6.4942    1.1170    2.0742 H   0  0  0  0  0  0  0  0  0  0  0  0
    6.8720   -0.0816   -0.0611 H   0  0  0  0  0  0  0  0  0  0  0  0
    4.9979   -0.7808   -1.4418 H   0  0  0  0  0  0  0  0  0  0  0  0
    3.3590   -1.2243   -2.6907 H   0  0  0  0  0  0  0  0  0  0  0  0
    1.3508   -2.1516   -4.5586 H   0  0  0  0  0  0  0  0  0  0  0  0
   -1.1655   -2.2575   -4.7188 H   0  0  0  0  0  0  0  0  0  0  0  0
   -2.6434   -1.4455   -2.9620 H   0  0  0  0  0  0  0  0  0  0  0  0
   -1.2860    0.0554    0.2517 H   0  0  0  0  0  0  0  0  0  0  0  0
   -5.1950    1.8205    4.1244 H   0  0  0  0  0  0  0  0  0  0  0  0
  1  2  3  0
  2  3  1  0
  3  4  2  0
  4  5  1  0
  5  6  2  0
  6  7  1  0
  7  8  2  0
  8  9  1  0
  9 10  1  0
 10 11  2  0
 11 12  1  0
 12 13  2  0
 13 14  1  0
 14 15  2  0
 15 16  1  0
 16 17  1  0
 17 18  2  0
 17 19  1  0
 19 20  2  0
 20 21  1  0
 20 22  1  0
 22 23  1  0
 22 24  2  0
 24 25  1  0
 25 26  1  0
 25 27  2  0
 27 28  1  0
 15 29  1  0
 29 30  2  0
  8  3  1  0
 30  9  1  0
 29 11  1  0
 27 19  1  0
  4 31  1  0
  5 32  1  0
  6 33  1  0
  7 34  1  0
 10 35  1  0
 12 36  1  0
 13 37  1  0
 14 38  1  0
 16 39  1  0
 24 40  1  0
M  END
>  <_SMILES>  (31) 
N#Cc1ccccc1-n1cc2cccc(NC(=O)c3c(F)c(F)cc(F)c3F)c2n1

$$$$

     RDKit          3D

 51 55  0  0  0  0  0  0  0  0999 V2000
   -0.5885   -3.6687   -0.9155 O   0  0  0  0  0  0  0  0  0  0  0  0
   -0.4526   -2.4761   -0.6702 C   0  0  0  0  0  0  0  0  0  0  0  0
    0.7491   -1.7996   -0.6609 N   0  0  0  0  0  0  0  0  0  0  0  0
    2.0218   -2.3210   -0.9522 C   0  0  0  0  0  0  0  0  0  0  0  0
    2.3331   -3.6414   -1.3409 C   0  0  0  0  0  0  0  0  0  0  0  0
    3.6679   -4.0857   -1.6220 C   0  0  0  0  0  0  0  0  0  0  0  0
    4.8110   -3.2629   -1.5441 C   0  0  0  0  0  0  0  0  0  0  0  0
    4.4646   -1.9742   -1.1615 C   0  0  0  0  0  0  0  0  0  0  0  0
    5.3327   -0.9335   -0.9939 C   0  0  0  0  0  0  0  0  0  0  0  0
    4.5585    0.1443   -0.6134 N   0  0  0  0  0  0  0  0  0  0  0  0
    4.9979    1.4677   -0.3153 C   0  0  0  0  0  0  0  0  0  0  0  0
    6.3526    1.8210   -0.3921 C   0  0  0  0  0  0  0  0  0  0  0  0
    6.7540    3.1269   -0.0939 C   0  0  0  0  0  0  0  0  0  0  0  0
    5.8128    4.0840    0.2810 C   0  0  0  0  0  0  0  0  0  0  0  0
    4.4653    3.7405    0.3599 C   0  0  0  0  0  0  0  0  0  0  0  0
    4.0565    2.4383    0.0635 C   0  0  0  0  0  0  0  0  0  0  0  0
    3.2332   -0.1750   -0.5382 N   0  0  0  0  0  0  0  0  0  0  0  0
    3.1538   -1.4761   -0.8691 C   0  0  0  0  0  0  0  0  0  0  0  0
   -1.6598   -1.6726   -0.3486 C   0  0  0  0  0  0  0  0  0  0  0  0
   -2.9139   -2.0987   -0.7717 C   0  0  0  0  0  0  0  0  0  0  0  0
   -3.0577   -3.2083   -1.5119 F   0  0  0  0  0  0  0  0  0  0  0  0
   -4.0687   -1.3693   -0.4582 C   0  0  0  0  0  0  0  0  0  0  0  0
   -5.2324   -1.8654   -0.9082 F   0  0  0  0  0  0  0  0  0  0  0  0
   -4.0435   -0.1763    0.2933 C   0  0  0  0  0  0  0  0  0  0  0  0
   -5.1807    0.5541    0.5943 N   0  0  0  0  0  0  0  0  0  0  0  0
   -5.1707    1.7600    1.4304 C   0  0  0  0  0  0  0  0  0  0  0  0
   -6.6187    2.2454    1.4418 C   0  0  0  0  0  0  0  0  0  0  0  0
   -7.4113    0.9679    1.2276 C   0  0  0  0  0  0  0  0  0  0  0  0
   -6.5513    0.1798    0.2381 C   0  0  1  0  0  0  0  0  0  0  0  0
   -6.8445    0.7329   -1.4290 Cl  0  0  0  0  0  0  0  0  0  0  0  0
   -2.7550    0.2217    0.7063 C   0  0  0  0  0  0  0  0  0  0  0  0
   -2.5880    1.3354    1.4391 F   0  0  0  0  0  0  0  0  0  0  0  0
   -1.5976   -0.5017    0.3944 C   0  0  0  0  0  0  0  0  0  0  0  0
   -0.4203   -0.0339    0.8387 F   0  0  0  0  0  0  0  0  0  0  0  0
    0.7754   -0.8165   -0.3939 H   0  0  0  0  0  0  0  0  0  0  0  0
    1.5394   -4.3798   -1.4415 H   0  0  0  0  0  0  0  0  0  0  0  0
    3.8006   -5.1287   -1.9150 H   0  0  0  0  0  0  0  0  0  0  0  0
    5.8106   -3.6133   -1.7596 H   0  0  0  0  0  0  0  0  0  0  0  0
    6.4030   -0.8697   -1.1080 H   0  0  0  0  0  0  0  0  0  0  0  0
    7.1220    1.1117   -0.6794 H   0  0  0  0  0  0  0  0  0  0  0  0
    7.8054    3.3984   -0.1545 H   0  0  0  0  0  0  0  0  0  0  0  0
    6.1295    5.0979    0.5120 H   0  0  0  0  0  0  0  0  0  0  0  0
    3.7295    4.4852    0.6527 H   0  0  0  0  0  0  0  0  0  0  0  0
    2.9977    2.1960    0.1340 H   0  0  0  0  0  0  0  0  0  0  0  0
   -4.8530    1.5100    2.4493 H   0  0  0  0  0  0  0  0  0  0  0  0
   -4.5226    2.5433    1.0236 H   0  0  0  0  0  0  0  0  0  0  0  0
   -6.8787    2.7543    2.3745 H   0  0  0  0  0  0  0  0  0  0  0  0
   -6.7906    2.9465    0.6167 H   0  0  0  0  0  0  0  0  0  0  0  0
   -8.4310    1.1532    0.8769 H   0  0  0  0  0  0  0  0  0  0  0  0
   -7.4757    0.4200    2.1763 H   0  0  0  0  0  0  0  0  0  0  0  0
   -6.7710   -0.8881    0.3239 H   0  0  0  0  0  0  0  0  0  0  0  0
  1  2  2  0
  2  3  1  0
  3  4  1  0
  4  5  2  0
  5  6  1  0
  6  7  2  0
  7  8  1  0
  8  9  2  0
  9 10  1  0
 10 11  1  0
 11 12  2  0
 12 13  1  0
 13 14  2  0
 14 15  1  0
 15 16  2  0
 10 17  1  0
 17 18  2  0
  2 19  1  0
 19 20  1  0
 20 21  1  0
 20 22  2  0
 22 23  1  0
 22 24  1  0
 24 25  1  0
 25 26  1  0
 26 27  1  0
 27 28  1  0
 28 29  1  0
 29 30  1  0
 24 31  2  0
 31 32  1  0
 31 33  1  0
 33 34  1  0
 18  4  1  0
 33 19  2  0
 18  8  1  0
 29 25  1  0
 16 11  1  0
  3 35  1  0
  5 36  1  0
  6 37  1  0
  7 38  1  0
  9 39  1  0
 12 40  1  0
 13 41  1  0
 14 42  1  0
 15 43  1  0
 16 44  1  0
 26 45  1  0
 26 46  1  0
 27 47  1  0
 27 48  1  0
 28 49  1  0
 28 50  1  0
 29 51  1  6
M  END
>  <_SMILES>  (32) 
O=C(Nc1cccc2cn(-c3ccccc3)nc12)c1c(F)c(F)c(N2CCC[C@H]2Cl)c(F)c1F

$$$$

     RDKit          3D

 58 62  0  0  0  0  0  0  0  0999 V2000
    0.8155    1.7001   -3.9416 O   0  0  0  0  0  0  0  0  0  0  0  0
    0.7617    1.2609   -2.7992 C   0  0  0  0  0  0  0  0  0  0  0  0
    1.8569    0.9380   -2.0254 N   0  0  0  0  0  0  0  0  0  0  0  0
    3.2122    1.0212   -2.3908 C   0  0  0  0  0  0  0  0  0  0  0  0
    3.7359    1.4288   -3.6362 C   0  0  0  0  0  0  0  0  0  0  0  0
    5.1411    1.4805   -3.9211 C   0  0  0  0  0  0  0  0  0  0  0  0
    6.1510    1.1329   -2.9997 C   0  0  0  0  0  0  0  0  0  0  0  0
    5.5978    0.7365   -1.7898 C   0  0  0  0  0  0  0  0  0  0  0  0
    6.2982    0.3366   -0.6878 C   0  0  0  0  0  0  0  0  0  0  0  0
    5.3511    0.0413    0.2714 N   0  0  0  0  0  0  0  0  0  0  0  0
    5.5755   -0.4168    1.6038 C   0  0  0  0  0  0  0  0  0  0  0  0
    6.8743   -0.6303    2.0924 C   0  0  0  0  0  0  0  0  0  0  0  0
    7.0622   -1.0798    3.4034 C   0  0  0  0  0  0  0  0  0  0  0  0
    5.9615   -1.3135    4.2195 C   0  0  0  0  0  0  0  0  0  0  0  0
    6.1501   -1.7437    5.4736 F   0  0  0  0  0  0  0  0  0  0  0  0
    4.6703   -1.1070    3.7526 C   0  0  0  0  0  0  0  0  0  0  0  0
    4.4739   -0.6586    2.4445 C   0  0  0  0  0  0  0  0  0  0  0  0
    4.0791    0.2330   -0.1832 N   0  0  0  0  0  0  0  0  0  0  0  0
    4.2078    0.6656   -1.4502 C   0  0  0  0  0  0  0  0  0  0  0  0
   -0.5727    1.0538   -2.1748 C   0  0  0  0  0  0  0  0  0  0  0  0
   -0.7438    0.9525   -0.7967 C   0  0  0  0  0  0  0  0  0  0  0  0
    0.3099    1.0238    0.0321 F   0  0  0  0  0  0  0  0  0  0  0  0
   -2.0120    0.7781   -0.2330 C   0  0  0  0  0  0  0  0  0  0  0  0
   -2.0894    0.7196    1.1064 F   0  0  0  0  0  0  0  0  0  0  0  0
   -3.1748    0.6978   -1.0191 C   0  0  0  0  0  0  0  0  0  0  0  0
   -4.4766    0.5212   -0.4945 N   0  0  0  0  0  0  0  0  0  0  0  0
   -5.4029    1.6215   -0.8127 C   0  0  0  0  0  0  0  0  0  0  0  0
   -4.9915    3.0585    0.1494 Cl  0  0  0  0  0  0  0  0  0  0  0  0
   -4.6071   -0.1148    0.8297 C   0  0  0  0  0  0  0  0  0  0  0  0
   -5.9372   -0.8490    0.9866 C   0  0  2  0  0  0  0  0  0  0  0  0
   -6.0659   -1.5979    2.2989 C   0  0  0  0  0  0  0  0  0  0  0  0
   -7.1751   -2.5801    1.9864 C   0  0  0  0  0  0  0  0  0  0  0  0
   -7.0754   -2.8853    0.5883 O   0  0  0  0  0  0  0  0  0  0  0  0
   -6.1413   -1.9743   -0.0132 C   0  0  0  0  0  0  0  0  0  0  0  0
   -2.9755    0.7964   -2.4099 C   0  0  0  0  0  0  0  0  0  0  0  0
   -4.0282    0.6872   -3.2379 F   0  0  0  0  0  0  0  0  0  0  0  0
   -1.7095    0.9706   -2.9771 C   0  0  0  0  0  0  0  0  0  0  0  0
   -1.6266    1.0238   -4.3145 F   0  0  0  0  0  0  0  0  0  0  0  0
    1.7247    0.6249   -1.0648 H   0  0  0  0  0  0  0  0  0  0  0  0
    3.0624    1.7234   -4.4393 H   0  0  0  0  0  0  0  0  0  0  0  0
    5.4414    1.8110   -4.9171 H   0  0  0  0  0  0  0  0  0  0  0  0
    7.2061    1.1777   -3.2307 H   0  0  0  0  0  0  0  0  0  0  0  0
    7.3576    0.2424   -0.5099 H   0  0  0  0  0  0  0  0  0  0  0  0
    7.7587   -0.4596    1.4867 H   0  0  0  0  0  0  0  0  0  0  0  0
    8.0612   -1.2491    3.7937 H   0  0  0  0  0  0  0  0  0  0  0  0
    3.8245   -1.2946    4.4065 H   0  0  0  0  0  0  0  0  0  0  0  0
    3.4549   -0.5004    2.0952 H   0  0  0  0  0  0  0  0  0  0  0  0
   -5.3845    1.9082   -1.8676 H   0  0  0  0  0  0  0  0  0  0  0  0
   -6.4366    1.3514   -0.5835 H   0  0  0  0  0  0  0  0  0  0  0  0
   -3.8108   -0.8588    0.9650 H   0  0  0  0  0  0  0  0  0  0  0  0
   -4.4969    0.6262    1.6304 H   0  0  0  0  0  0  0  0  0  0  0  0
   -6.7798   -0.1502    0.9180 H   0  0  0  0  0  0  0  0  0  0  0  0
   -5.1419   -2.1427    2.5279 H   0  0  0  0  0  0  0  0  0  0  0  0
   -6.3006   -0.9530    3.1504 H   0  0  0  0  0  0  0  0  0  0  0  0
   -7.0984   -3.5006    2.5717 H   0  0  0  0  0  0  0  0  0  0  0  0
   -8.1603   -2.1351    2.1616 H   0  0  0  0  0  0  0  0  0  0  0  0
   -5.2172   -2.5290   -0.2099 H   0  0  0  0  0  0  0  0  0  0  0  0
   -6.5451   -1.6212   -0.9667 H   0  0  0  0  0  0  0  0  0  0  0  0
  1  2  2  0
  2  3  1  0
  3  4  1  0
  4  5  2  0
  5  6  1  0
  6  7  2  0
  7  8  1  0
  8  9  2  0
  9 10  1  0
 10 11  1  0
 11 12  1  0
 12 13  2  0
 13 14  1  0
 14 15  1  0
 14 16  2  0
 16 17  1  0
 10 18  1  0
 18 19  2  0
  2 20  1  0
 20 21  1  0
 21 22  1  0
 21 23  2  0
 23 24  1  0
 23 25  1  0
 25 26  1  0
 26 27  1  0
 27 28  1  0
 26 29  1  0
 29 30  1  0
 30 31  1  0
 31 32  1  0
 32 33  1  0
 33 34  1  0
 25 35  2  0
 35 36  1  0
 35 37  1  0
 37 38  1  0
 19  4  1  0
 37 20  2  0
 19  8  1  0
 34 30  1  0
 17 11  2  0
  3 39  1  0
  5 40  1  0
  6 41  1  0
  7 42  1  0
  9 43  1  0
 12 44  1  0
 13 45  1  0
 16 46  1  0
 17 47  1  0
 27 48  1  0
 27 49  1  0
 29 50  1  0
 29 51  1  0
 30 52  1  1
 31 53  1  0
 31 54  1  0
 32 55  1  0
 32 56  1  0
 34 57  1  0
 34 58  1  0
M  END
>  <_SMILES>  (33) 
O=C(Nc1cccc2cn(-c3ccc(F)cc3)nc12)c1c(F)c(F)c(N(CCl)C[C@@H]2CCOC2)c(F)c1F

$$$$

     RDKit          3D

 58 62  0  0  0  0  0  0  0  0999 V2000
    0.2927   -3.3540   -1.5889 O   0  0  0  0  0  0  0  0  0  0  0  0
    0.4408   -2.1872   -1.2468 C   0  0  0  0  0  0  0  0  0  0  0  0
    1.6341   -1.6220   -0.8496 N   0  0  0  0  0  0  0  0  0  0  0  0
    2.8920   -2.2469   -0.7853 C   0  0  0  0  0  0  0  0  0  0  0  0
    3.2021   -3.5770   -1.1398 C   0  0  0  0  0  0  0  0  0  0  0  0
    4.5223   -4.1306   -1.0428 C   0  0  0  0  0  0  0  0  0  0  0  0
    5.6507   -3.4168   -0.5878 C   0  0  0  0  0  0  0  0  0  0  0  0
    5.3065   -2.1148   -0.2511 C   0  0  0  0  0  0  0  0  0  0  0  0
    6.1630   -1.1622    0.2220 C   0  0  0  0  0  0  0  0  0  0  0  0
    5.3953   -0.0327    0.4197 N   0  0  0  0  0  0  0  0  0  0  0  0
    5.8249    1.2368    0.9088 C   0  0  0  0  0  0  0  0  0  0  0  0
    4.8866    2.2754    1.0490 C   0  0  0  0  0  0  0  0  0  0  0  0
    5.2851    3.5262    1.5262 C   0  0  0  0  0  0  0  0  0  0  0  0
    6.6154    3.7392    1.8622 C   0  0  0  0  0  0  0  0  0  0  0  0
    6.9979    4.9382    2.3198 F   0  0  0  0  0  0  0  0  0  0  0  0
    7.5566    2.7249    1.7305 C   0  0  0  0  0  0  0  0  0  0  0  0
    7.1659    1.4696    1.2536 C   0  0  0  0  0  0  0  0  0  0  0  0
    4.0876   -0.2327    0.0856 N   0  0  0  0  0  0  0  0  0  0  0  0
    4.0100   -1.5104   -0.3273 C   0  0  0  0  0  0  0  0  0  0  0  0
   -0.7445   -1.2906   -1.2458 C   0  0  0  0  0  0  0  0  0  0  0  0
   -1.8548   -1.6062   -2.0272 C   0  0  0  0  0  0  0  0  0  0  0  0
   -1.8652   -2.6873   -2.8206 F   0  0  0  0  0  0  0  0  0  0  0  0
   -2.9921   -0.7917   -2.0230 C   0  0  0  0  0  0  0  0  0  0  0  0
   -4.0381   -1.1757   -2.7736 F   0  0  0  0  0  0  0  0  0  0  0  0
   -3.0810    0.3737   -1.2402 C   0  0  0  0  0  0  0  0  0  0  0  0
   -4.2122    1.2161   -1.2227 N   0  0  0  0  0  0  0  0  0  0  0  0
   -5.0761    1.2265   -2.4060 C   0  0  0  0  0  0  0  0  0  0  0  0
   -5.7987    2.8408   -2.5784 Cl  0  0  0  0  0  0  0  0  0  0  0  0
   -4.8532    1.3943    0.1031 C   0  0  0  0  0  0  0  0  0  0  0  0
   -5.6127    0.1327    0.5698 C   0  0  1  0  0  0  0  0  0  0  0  0
   -5.5480   -0.0327    2.0796 C   0  0  0  0  0  0  0  0  0  0  0  0
   -6.6322    0.9029    2.5710 C   0  0  0  0  0  0  0  0  0  0  0  0
   -7.6184    0.9682    1.5331 O   0  0  0  0  0  0  0  0  0  0  0  0
   -7.1165    0.2779    0.3798 C   0  0  0  0  0  0  0  0  0  0  0  0
   -1.9444    0.6705   -0.4645 C   0  0  0  0  0  0  0  0  0  0  0  0
   -1.9164    1.7825    0.2880 F   0  0  0  0  0  0  0  0  0  0  0  0
   -0.8054   -0.1398   -0.4663 C   0  0  0  0  0  0  0  0  0  0  0  0
    0.2322    0.2230    0.3038 F   0  0  0  0  0  0  0  0  0  0  0  0
    1.6564   -0.6540   -0.5317 H   0  0  0  0  0  0  0  0  0  0  0  0
    2.4199   -4.2380   -1.5094 H   0  0  0  0  0  0  0  0  0  0  0  0
    4.6554   -5.1717   -1.3424 H   0  0  0  0  0  0  0  0  0  0  0  0
    6.6392   -3.8493   -0.5209 H   0  0  0  0  0  0  0  0  0  0  0  0
    7.2208   -1.1921    0.4298 H   0  0  0  0  0  0  0  0  0  0  0  0
    3.8394    2.1256    0.7914 H   0  0  0  0  0  0  0  0  0  0  0  0
    4.5657    4.3315    1.6369 H   0  0  0  0  0  0  0  0  0  0  0  0
    8.5905    2.9183    2.0006 H   0  0  0  0  0  0  0  0  0  0  0  0
    7.9303    0.7041    1.1649 H   0  0  0  0  0  0  0  0  0  0  0  0
   -4.5084    1.0709   -3.3285 H   0  0  0  0  0  0  0  0  0  0  0  0
   -5.8761    0.4833   -2.3428 H   0  0  0  0  0  0  0  0  0  0  0  0
   -5.5232    2.2615    0.0797 H   0  0  0  0  0  0  0  0  0  0  0  0
   -4.0920    1.6651    0.8424 H   0  0  0  0  0  0  0  0  0  0  0  0
   -5.2392   -0.7623    0.0627 H   0  0  0  0  0  0  0  0  0  0  0  0
   -4.5701    0.1760    2.5224 H   0  0  0  0  0  0  0  0  0  0  0  0
   -5.8146   -1.0646    2.3411 H   0  0  0  0  0  0  0  0  0  0  0  0
   -6.2456    1.9147    2.7314 H   0  0  0  0  0  0  0  0  0  0  0  0
   -7.0956    0.5559    3.4989 H   0  0  0  0  0  0  0  0  0  0  0  0
   -7.5998   -0.7054    0.3520 H   0  0  0  0  0  0  0  0  0  0  0  0
   -7.4050    0.8224   -0.5227 H   0  0  0  0  0  0  0  0  0  0  0  0
  1  2  2  0
  2  3  1  0
  3  4  1  0
  4  5  2  0
  5  6  1  0
  6  7  2  0
  7  8  1  0
  8  9  2  0
  9 10  1  0
 10 11  1  0
 11 12  1  0
 12 13  2  0
 13 14  1  0
 14 15  1  0
 14 16  2  0
 16 17  1  0
 10 18  1  0
 18 19  2  0
  2 20  1  0
 20 21  1  0
 21 22  1  0
 21 23  2  0
 23 24  1  0
 23 25  1  0
 25 26  1  0
 26 27  1  0
 27 28  1  0
 26 29  1  0
 29 30  1  0
 30 31  1  0
 31 32  1  0
 32 33  1  0
 33 34  1  0
 25 35  2  0
 35 36  1  0
 35 37  1  0
 37 38  1  0
 19  4  1  0
 37 20  2  0
 19  8  1  0
 34 30  1  0
 17 11  2  0
  3 39  1  0
  5 40  1  0
  6 41  1  0
  7 42  1  0
  9 43  1  0
 12 44  1  0
 13 45  1  0
 16 46  1  0
 17 47  1  0
 27 48  1  0
 27 49  1  0
 29 50  1  0
 29 51  1  0
 30 52  1  6
 31 53  1  0
 31 54  1  0
 32 55  1  0
 32 56  1  0
 34 57  1  0
 34 58  1  0
M  END
>  <_SMILES>  (34) 
O=C(Nc1cccc2cn(-c3ccc(F)cc3)nc12)c1c(F)c(F)c(N(CCl)C[C@H]2CCOC2)c(F)c1F

$$$$

     RDKit          3D

 48 51  0  0  0  0  0  0  0  0999 V2000
    6.8642    1.2418    2.3907 C   0  0  0  0  0  0  0  0  0  0  0  0
    5.6858    1.4123    1.4332 C   0  0  0  0  0  0  0  0  0  0  0  0
    5.9153    2.6293    0.5421 C   0  0  0  0  0  0  0  0  0  0  0  0
    5.6351    0.2272    0.6330 O   0  0  0  0  0  0  0  0  0  0  0  0
    4.4433   -0.2222    0.1405 C   0  0  0  0  0  0  0  0  0  0  0  0
    4.4914   -1.4861   -0.4550 C   0  0  0  0  0  0  0  0  0  0  0  0
    5.6531   -2.1585   -0.4881 F   0  0  0  0  0  0  0  0  0  0  0  0
    3.3563   -2.0802   -1.0092 C   0  0  0  0  0  0  0  0  0  0  0  0
    3.4834   -3.3086   -1.5310 F   0  0  0  0  0  0  0  0  0  0  0  0
    2.1270   -1.4201   -0.9892 C   0  0  0  0  0  0  0  0  0  0  0  0
    0.9304   -2.0558   -1.6052 C   0  0  0  0  0  0  0  0  0  0  0  0
    1.1063   -2.9465   -2.4260 O   0  0  0  0  0  0  0  0  0  0  0  0
   -0.2902   -1.5704   -1.1935 N   0  0  0  0  0  0  0  0  0  0  0  0
   -1.5364   -2.0311   -1.6258 C   0  0  0  0  0  0  0  0  0  0  0  0
   -1.7254   -3.0629   -2.5058 N   0  0  0  0  0  0  0  0  0  0  0  0
   -2.9967   -3.4629   -2.8836 C   0  0  0  0  0  0  0  0  0  0  0  0
   -4.2279   -2.9369   -2.4730 C   0  0  0  0  0  0  0  0  0  0  0  0
   -3.9908   -1.9016   -1.5854 C   0  0  0  0  0  0  0  0  0  0  0  0
   -4.9443   -1.1433   -0.9684 C   0  0  0  0  0  0  0  0  0  0  0  0
   -4.2620   -0.2377   -0.1805 N   0  0  0  0  0  0  0  0  0  0  0  0
   -4.7875    0.7806    0.6640 C   0  0  0  0  0  0  0  0  0  0  0  0
   -3.9001    1.6065    1.3783 C   0  0  0  0  0  0  0  0  0  0  0  0
   -4.3846    2.6162    2.2155 C   0  0  0  0  0  0  0  0  0  0  0  0
   -5.7564    2.8138    2.3505 C   0  0  0  0  0  0  0  0  0  0  0  0
   -6.6429    2.0012    1.6475 C   0  0  0  0  0  0  0  0  0  0  0  0
   -6.1604    0.9930    0.8111 C   0  0  0  0  0  0  0  0  0  0  0  0
   -7.0712    0.2507    0.1681 F   0  0  0  0  0  0  0  0  0  0  0  0
   -2.9056   -0.4029   -0.2763 N   0  0  0  0  0  0  0  0  0  0  0  0
   -2.7211   -1.4199   -1.1390 C   0  0  0  0  0  0  0  0  0  0  0  0
    2.0767   -0.1573   -0.3988 C   0  0  0  0  0  0  0  0  0  0  0  0
    0.9234    0.5286   -0.3476 F   0  0  0  0  0  0  0  0  0  0  0  0
    3.2157    0.4346    0.1554 C   0  0  0  0  0  0  0  0  0  0  0  0
    3.0798    1.6574    0.6875 F   0  0  0  0  0  0  0  0  0  0  0  0
    6.7173    0.3569    3.0198 H   0  0  0  0  0  0  0  0  0  0  0  0
    6.9792    2.1152    3.0400 H   0  0  0  0  0  0  0  0  0  0  0  0
    7.7996    1.0849    1.8421 H   0  0  0  0  0  0  0  0  0  0  0  0
    4.7883    1.5263    2.0499 H   0  0  0  0  0  0  0  0  0  0  0  0
    5.9949    3.5445    1.1369 H   0  0  0  0  0  0  0  0  0  0  0  0
    5.1011    2.7562   -0.1777 H   0  0  0  0  0  0  0  0  0  0  0  0
    6.8324    2.5144   -0.0466 H   0  0  0  0  0  0  0  0  0  0  0  0
   -0.3493   -0.7909   -0.5463 H   0  0  0  0  0  0  0  0  0  0  0  0
   -2.9829   -4.2942   -3.5897 H   0  0  0  0  0  0  0  0  0  0  0  0
   -5.1856   -3.3005   -2.8102 H   0  0  0  0  0  0  0  0  0  0  0  0
   -6.0209   -1.1725   -1.0259 H   0  0  0  0  0  0  0  0  0  0  0  0
   -2.8219    1.4793    1.2939 H   0  0  0  0  0  0  0  0  0  0  0  0
   -3.6872    3.2480    2.7613 H   0  0  0  0  0  0  0  0  0  0  0  0
   -6.1337    3.5988    3.0013 H   0  0  0  0  0  0  0  0  0  0  0  0
   -7.7152    2.1453    1.7444 H   0  0  0  0  0  0  0  0  0  0  0  0
  1  2  1  0
  2  3  1  0
  2  4  1  0
  4  5  1  0
  5  6  1  0
  6  7  1  0
  6  8  2  0
  8  9  1  0
  8 10  1  0
 10 11  1  0
 11 12  2  0
 11 13  1  0
 13 14  1  0
 14 15  2  0
 15 16  1  0
 16 17  2  0
 17 18  1  0
 18 19  2  0
 19 20  1  0
 20 21  1  0
 21 22  2  0
 22 23  1  0
 23 24  2  0
 24 25  1  0
 25 26  2  0
 26 27  1  0
 20 28  1  0
 28 29  2  0
 10 30  2  0
 30 31  1  0
 30 32  1  0
 32 33  1  0
 32  5  2  0
 29 14  1  0
 29 18  1  0
 26 21  1  0
  1 34  1  0
  1 35  1  0
  1 36  1  0
  2 37  1  0
  3 38  1  0
  3 39  1  0
  3 40  1  0
 13 41  1  0
 16 42  1  0
 17 43  1  0
 19 44  1  0
 22 45  1  0
 23 46  1  0
 24 47  1  0
 25 48  1  0
M  END
>  <_SMILES>  (35) 
CC(C)Oc1c(F)c(F)c(C(=O)Nc2nccc3cn(-c4ccccc4F)nc23)c(F)c1F

$$$$

     RDKit          3D

 47 50  0  0  0  0  0  0  0  0999 V2000
    8.9200   -0.3338    0.5040 N   0  0  0  0  0  0  0  0  0  0  0  0
    7.7835   -0.4518    0.3077 C   0  0  0  0  0  0  0  0  0  0  0  0
    6.3755   -0.6037    0.0612 C   0  0  0  0  0  0  0  0  0  0  0  0
    5.4922    0.3459    0.6018 C   0  0  0  0  0  0  0  0  0  0  0  0
    4.1051    0.2492    0.3945 C   0  0  0  0  0  0  0  0  0  0  0  0
    3.2239    1.2936    0.9986 C   0  0  0  0  0  0  0  0  0  0  0  0
    3.7601    2.1845    1.6510 O   0  0  0  0  0  0  0  0  0  0  0  0
    1.8717    1.1735    0.7743 N   0  0  0  0  0  0  0  0  0  0  0  0
    0.8520    2.0254    1.2321 C   0  0  0  0  0  0  0  0  0  0  0  0
    1.0006    3.1871    2.0195 C   0  0  0  0  0  0  0  0  0  0  0  0
   -0.1045    3.9995    2.4409 C   0  0  0  0  0  0  0  0  0  0  0  0
   -1.4526    3.7342    2.1206 C   0  0  0  0  0  0  0  0  0  0  0  0
   -1.5574    2.5861    1.3473 C   0  0  0  0  0  0  0  0  0  0  0  0
   -2.7174    2.0515    0.8678 C   0  0  0  0  0  0  0  0  0  0  0  0
   -2.3494    0.9222    0.1565 N   0  0  0  0  0  0  0  0  0  0  0  0
   -3.2567    0.0466   -0.5208 C   0  0  0  0  0  0  0  0  0  0  0  0
   -4.6312    0.1334   -0.6043 C   0  0  0  0  0  0  0  0  0  0  0  0
   -4.9987   -0.9478   -1.3591 N   0  0  0  0  0  0  0  0  0  0  0  0
   -6.3465   -1.3134   -1.7318 C   0  0  0  0  0  0  0  0  0  0  0  0
   -6.9734   -2.2878   -0.7436 C   0  0  0  0  0  0  0  0  0  0  0  0
   -8.2957   -2.6026   -1.1641 O   0  0  0  0  0  0  0  0  0  0  0  0
   -3.8649   -1.6240   -1.7092 C   0  0  0  0  0  0  0  0  0  0  0  0
   -2.7931   -1.0541   -1.2073 N   0  0  0  0  0  0  0  0  0  0  0  0
   -0.9980    0.7270    0.1732 N   0  0  0  0  0  0  0  0  0  0  0  0
   -0.4925    1.7386    0.8983 C   0  0  0  0  0  0  0  0  0  0  0  0
    3.6224   -0.8160   -0.3638 C   0  0  0  0  0  0  0  0  0  0  0  0
    2.3113   -0.9642   -0.5967 F   0  0  0  0  0  0  0  0  0  0  0  0
    4.4877   -1.7663   -0.9069 C   0  0  0  0  0  0  0  0  0  0  0  0
    5.8752   -1.6738   -0.7023 C   0  0  0  0  0  0  0  0  0  0  0  0
    6.8008   -2.7093   -1.2957 C   0  0  0  0  0  0  0  0  0  0  0  0
    7.7015   -2.1673   -2.1561 F   0  0  0  0  0  0  0  0  0  0  0  0
    7.5144   -3.3706   -0.3475 F   0  0  0  0  0  0  0  0  0  0  0  0
    6.1438   -3.6700   -2.0027 F   0  0  0  0  0  0  0  0  0  0  0  0
    5.8892    1.1734    1.1932 H   0  0  0  0  0  0  0  0  0  0  0  0
    1.5184    0.3945    0.2172 H   0  0  0  0  0  0  0  0  0  0  0  0
    1.9923    3.5051    2.3361 H   0  0  0  0  0  0  0  0  0  0  0  0
    0.1191    4.8785    3.0480 H   0  0  0  0  0  0  0  0  0  0  0  0
   -2.2739    4.3571    2.4459 H   0  0  0  0  0  0  0  0  0  0  0  0
   -3.7506    2.3503    0.9543 H   0  0  0  0  0  0  0  0  0  0  0  0
   -5.3495    0.8384   -0.2098 H   0  0  0  0  0  0  0  0  0  0  0  0
   -6.3186   -1.7458   -2.7390 H   0  0  0  0  0  0  0  0  0  0  0  0
   -6.9439   -0.3969   -1.8037 H   0  0  0  0  0  0  0  0  0  0  0  0
   -7.0219   -1.8512    0.2596 H   0  0  0  0  0  0  0  0  0  0  0  0
   -6.3956   -3.2167   -0.6888 H   0  0  0  0  0  0  0  0  0  0  0  0
   -8.6628   -3.2309   -0.5166 H   0  0  0  0  0  0  0  0  0  0  0  0
   -3.8734   -2.5175   -2.3208 H   0  0  0  0  0  0  0  0  0  0  0  0
    4.0614   -2.5802   -1.4924 H   0  0  0  0  0  0  0  0  0  0  0  0
  1  2  3  0
  2  3  1  0
  3  4  2  0
  4  5  1  0
  5  6  1  0
  6  7  2  0
  6  8  1  0
  8  9  1  0
  9 10  2  0
 10 11  1  0
 11 12  2  0
 12 13  1  0
 13 14  2  0
 14 15  1  0
 15 16  1  0
 16 17  2  0
 17 18  1  0
 18 19  1  0
 19 20  1  0
 20 21  1  0
 18 22  1  0
 22 23  2  0
 15 24  1  0
 24 25  2  0
  5 26  2  0
 26 27  1  0
 26 28  1  0
 28 29  2  0
 29 30  1  0
 30 31  1  0
 30 32  1  0
 30 33  1  0
 29  3  1  0
 25  9  1  0
 25 13  1  0
 23 16  1  0
  4 34  1  0
  8 35  1  0
 10 36  1  0
 11 37  1  0
 12 38  1  0
 14 39  1  0
 17 40  1  0
 19 41  1  0
 19 42  1  0
 20 43  1  0
 20 44  1  0
 21 45  1  0
 22 46  1  0
 28 47  1  0
M  END
>  <_SMILES>  (36) 
N#Cc1cc(C(=O)Nc2cccc3cn(-c4cn(CCO)cn4)nc23)c(F)cc1C(F)(F)F

$$$$

     RDKit          3D

 48 51  0  0  0  0  0  0  0  0999 V2000
   -8.2896    1.3951   -1.4740 N   0  0  0  0  0  0  0  0  0  0  0  0
   -7.1449    1.3731   -1.2949 C   0  0  0  0  0  0  0  0  0  0  0  0
   -5.7250    1.3512   -1.0722 C   0  0  0  0  0  0  0  0  0  0  0  0
   -5.0745    0.1078   -0.9983 C   0  0  0  0  0  0  0  0  0  0  0  0
   -3.6879    0.0244   -0.7818 C   0  0  0  0  0  0  0  0  0  0  0  0
   -3.0615   -1.3303   -0.7141 C   0  0  0  0  0  0  0  0  0  0  0  0
   -3.7910   -2.3056   -0.8578 O   0  0  0  0  0  0  0  0  0  0  0  0
   -1.7013   -1.3807   -0.4929 N   0  0  0  0  0  0  0  0  0  0  0  0
   -0.9017   -2.5332   -0.3919 C   0  0  0  0  0  0  0  0  0  0  0  0
   -1.3317   -3.8739   -0.4980 C   0  0  0  0  0  0  0  0  0  0  0  0
   -0.4512   -5.0007   -0.3831 C   0  0  0  0  0  0  0  0  0  0  0  0
    0.9360   -4.9045   -0.1525 C   0  0  0  0  0  0  0  0  0  0  0  0
    1.3247   -3.5765   -0.0534 C   0  0  0  0  0  0  0  0  0  0  0  0
    2.5999   -3.1395    0.1680 C   0  0  0  0  0  0  0  0  0  0  0  0
    2.5091   -1.7710    0.1907 N   0  0  0  0  0  0  0  0  0  0  0  0
    3.6759   -0.8541    0.4063 C   0  0  0  0  0  0  0  0  0  0  0  0
    3.6209    0.5187    0.4428 C   0  0  0  0  0  0  0  0  0  0  0  0
    4.9115    0.9891    0.6639 N   0  0  0  0  0  0  0  0  0  0  0  0
    5.2898    2.4100    0.7800 C   0  0  0  0  0  0  0  0  0  0  0  0
    4.8731    3.0125    2.1267 C   0  0  0  0  0  0  0  0  0  0  0  0
    3.4515    3.0309    2.2391 O   0  0  0  0  0  0  0  0  0  0  0  0
    5.7488   -0.0493    0.7649 C   0  0  0  0  0  0  0  0  0  0  0  0
    5.0226   -1.1592    0.6102 N   0  0  0  0  0  0  0  0  0  0  0  0
    1.2513   -1.3076   -0.0060 N   0  0  0  0  0  0  0  0  0  0  0  0
    0.4894   -2.4097   -0.1599 C   0  0  0  0  0  0  0  0  0  0  0  0
   -2.9666    1.2092   -0.6413 C   0  0  0  0  0  0  0  0  0  0  0  0
   -1.6413    1.1946   -0.4332 F   0  0  0  0  0  0  0  0  0  0  0  0
   -3.5991    2.4507   -0.7125 C   0  0  0  0  0  0  0  0  0  0  0  0
   -4.9859    2.5390   -0.9287 C   0  0  0  0  0  0  0  0  0  0  0  0
   -5.6580    3.8911   -1.0032 C   0  0  0  0  0  0  0  0  0  0  0  0
   -4.7836    4.9230   -0.8418 F   0  0  0  0  0  0  0  0  0  0  0  0
   -6.6038    4.0527   -0.0432 F   0  0  0  0  0  0  0  0  0  0  0  0
   -6.2653    4.1025   -2.1984 F   0  0  0  0  0  0  0  0  0  0  0  0
   -5.6573   -0.8091   -1.1111 H   0  0  0  0  0  0  0  0  0  0  0  0
   -1.1867   -0.5097   -0.3857 H   0  0  0  0  0  0  0  0  0  0  0  0
   -2.3829   -4.0972   -0.6768 H   0  0  0  0  0  0  0  0  0  0  0  0
   -0.8922   -5.9952   -0.4819 H   0  0  0  0  0  0  0  0  0  0  0  0
    1.5800   -5.7696   -0.0695 H   0  0  0  0  0  0  0  0  0  0  0  0
    3.5328   -3.6643    0.3078 H   0  0  0  0  0  0  0  0  0  0  0  0
    2.8137    1.2276    0.3447 H   0  0  0  0  0  0  0  0  0  0  0  0
    4.8057    2.9436   -0.0460 H   0  0  0  0  0  0  0  0  0  0  0  0
    6.3748    2.4859    0.6522 H   0  0  0  0  0  0  0  0  0  0  0  0
    5.2761    2.4218    2.9550 H   0  0  0  0  0  0  0  0  0  0  0  0
    5.2382    4.0411    2.2047 H   0  0  0  0  0  0  0  0  0  0  0  0
    3.2303    3.4992    3.0667 H   0  0  0  0  0  0  0  0  0  0  0  0
    6.8178   -0.0048    0.9383 H   0  0  0  0  0  0  0  0  0  0  0  0
    5.4059   -2.0995    0.6390 H   0  0  0  0  0  0  0  0  0  0  0  0
   -2.9965    3.3508   -0.5972 H   0  0  0  0  0  0  0  0  0  0  0  0
  1  2  3  0
  2  3  1  0
  3  4  2  0
  4  5  1  0
  5  6  1  0
  6  7  2  0
  6  8  1  0
  8  9  1  0
  9 10  2  0
 10 11  1  0
 11 12  2  0
 12 13  1  0
 13 14  2  0
 14 15  1  0
 15 16  1  0
 16 17  2  0
 17 18  1  0
 18 19  1  0
 19 20  1  0
 20 21  1  0
 18 22  1  0
 22 23  2  0
 15 24  1  0
 24 25  2  0
  5 26  2  0
 26 27  1  0
 26 28  1  0
 28 29  2  0
 29 30  1  0
 30 31  1  0
 30 32  1  0
 30 33  1  0
 29  3  1  0
 25  9  1  0
 25 13  1  0
 23 16  1  0
  4 34  1  0
  8 35  1  0
 10 36  1  0
 11 37  1  0
 12 38  1  0
 14 39  1  0
 17 40  1  0
 19 41  1  0
 19 42  1  0
 20 43  1  0
 20 44  1  0
 21 45  1  0
 22 46  1  0
 23 47  1  0
 28 48  1  0
M  CHG  1  23   1
M  END
>  <_SMILES>  (37) 
N#Cc1cc(C(=O)Nc2cccc3cn(-c4cn(CCO)c[nH+]4)nc23)c(F)cc1C(F)(F)F

$$$$

     RDKit          3D

 53 56  0  0  0  0  0  0  0  0999 V2000
   -6.6435    2.5829    1.1919 C   0  0  0  0  0  0  0  0  0  0  0  0
   -5.2886    2.4818    0.5068 C   0  0  0  0  0  0  0  0  0  0  0  0
   -5.2846    1.5594   -0.7171 C   0  0  0  0  0  0  0  0  0  0  0  0
   -5.1837    0.1386   -0.3475 N   0  0  0  0  0  0  0  0  0  0  0  0
   -6.4494   -0.5825   -0.2129 C   0  0  0  0  0  0  0  0  0  0  0  0
   -6.5212   -1.3335    1.3955 Cl  0  0  0  0  0  0  0  0  0  0  0  0
   -3.9546   -0.5300   -0.4496 C   0  0  0  0  0  0  0  0  0  0  0  0
   -3.8425   -1.9181   -0.6862 C   0  0  0  0  0  0  0  0  0  0  0  0
   -4.9320   -2.6739   -0.8898 F   0  0  0  0  0  0  0  0  0  0  0  0
   -2.6156   -2.5876   -0.7645 C   0  0  0  0  0  0  0  0  0  0  0  0
   -1.4147   -1.8952   -0.6068 C   0  0  0  0  0  0  0  0  0  0  0  0
   -0.1349   -2.6559   -0.7046 C   0  0  0  0  0  0  0  0  0  0  0  0
   -0.1992   -3.8540   -0.9629 O   0  0  0  0  0  0  0  0  0  0  0  0
    1.0269   -1.9474   -0.4967 N   0  0  0  0  0  0  0  0  0  0  0  0
    2.3436   -2.4383   -0.5335 C   0  0  0  0  0  0  0  0  0  0  0  0
    2.7504   -3.7652   -0.7899 C   0  0  0  0  0  0  0  0  0  0  0  0
    4.1241   -4.1789   -0.8073 C   0  0  0  0  0  0  0  0  0  0  0  0
    5.2153   -3.3164   -0.5727 C   0  0  0  0  0  0  0  0  0  0  0  0
    4.7760   -2.0231   -0.3248 C   0  0  0  0  0  0  0  0  0  0  0  0
    5.5758   -0.9484   -0.0600 C   0  0  0  0  0  0  0  0  0  0  0  0
    4.7210    0.1206    0.1208 N   0  0  0  0  0  0  0  0  0  0  0  0
    5.0686    1.4704    0.4213 C   0  0  0  0  0  0  0  0  0  0  0  0
    6.4064    1.8632    0.5703 C   0  0  0  0  0  0  0  0  0  0  0  0
    6.7167    3.1945    0.8652 C   0  0  0  0  0  0  0  0  0  0  0  0
    5.7012    4.1376    1.0129 C   0  0  0  0  0  0  0  0  0  0  0  0
    4.3700    3.7548    0.8664 C   0  0  0  0  0  0  0  0  0  0  0  0
    4.0520    2.4272    0.5717 C   0  0  0  0  0  0  0  0  0  0  0  0
    3.4119   -0.2381   -0.0211 N   0  0  0  0  0  0  0  0  0  0  0  0
    3.4225   -1.5544   -0.2949 C   0  0  0  0  0  0  0  0  0  0  0  0
   -1.4816   -0.5285   -0.3740 C   0  0  0  0  0  0  0  0  0  0  0  0
   -0.3636    0.1978   -0.2149 F   0  0  0  0  0  0  0  0  0  0  0  0
   -2.7148    0.1309   -0.2982 C   0  0  0  0  0  0  0  0  0  0  0  0
   -2.6693    1.4506   -0.0509 F   0  0  0  0  0  0  0  0  0  0  0  0
   -6.9309    1.6374    1.6568 H   0  0  0  0  0  0  0  0  0  0  0  0
   -6.6075    3.3402    1.9818 H   0  0  0  0  0  0  0  0  0  0  0  0
   -7.4244    2.8736    0.4823 H   0  0  0  0  0  0  0  0  0  0  0  0
   -4.5412    2.1674    1.2431 H   0  0  0  0  0  0  0  0  0  0  0  0
   -5.0077    3.4887    0.1750 H   0  0  0  0  0  0  0  0  0  0  0  0
   -4.4693    1.8448   -1.3933 H   0  0  0  0  0  0  0  0  0  0  0  0
   -6.1924    1.7294   -1.3110 H   0  0  0  0  0  0  0  0  0  0  0  0
   -7.3040    0.0998   -0.2631 H   0  0  0  0  0  0  0  0  0  0  0  0
   -6.6095   -1.3274   -0.9973 H   0  0  0  0  0  0  0  0  0  0  0  0
   -2.6219   -3.6592   -0.9552 H   0  0  0  0  0  0  0  0  0  0  0  0
    0.9782   -0.9503   -0.2895 H   0  0  0  0  0  0  0  0  0  0  0  0
    2.0048   -4.5335   -0.9868 H   0  0  0  0  0  0  0  0  0  0  0  0
    4.3315   -5.2299   -1.0157 H   0  0  0  0  0  0  0  0  0  0  0  0
    6.2453   -3.6439   -0.5890 H   0  0  0  0  0  0  0  0  0  0  0  0
    6.6475   -0.8552    0.0138 H   0  0  0  0  0  0  0  0  0  0  0  0
    7.2311    1.1660    0.4650 H   0  0  0  0  0  0  0  0  0  0  0  0
    7.7550    3.4967    0.9805 H   0  0  0  0  0  0  0  0  0  0  0  0
    5.9470    5.1713    1.2425 H   0  0  0  0  0  0  0  0  0  0  0  0
    3.5760    4.4885    0.9815 H   0  0  0  0  0  0  0  0  0  0  0  0
    3.0037    2.1545    0.4628 H   0  0  0  0  0  0  0  0  0  0  0  0
  1  2  1  0
  2  3  1  0
  3  4  1  0
  4  5  1  0
  5  6  1  0
  4  7  1  0
  7  8  1  0
  8  9  1  0
  8 10  2  0
 10 11  1  0
 11 12  1  0
 12 13  2  0
 12 14  1  0
 14 15  1  0
 15 16  2  0
 16 17  1  0
 17 18  2  0
 18 19  1  0
 19 20  2  0
 20 21  1  0
 21 22  1  0
 22 23  2  0
 23 24  1  0
 24 25  2  0
 25 26  1  0
 26 27  2  0
 21 28  1  0
 28 29  2  0
 11 30  2  0
 30 31  1  0
 30 32  1  0
 32 33  1  0
 32  7  2  0
 29 15  1  0
 29 19  1  0
 27 22  1  0
  1 34  1  0
  1 35  1  0
  1 36  1  0
  2 37  1  0
  2 38  1  0
  3 39  1  0
  3 40  1  0
  5 41  1  0
  5 42  1  0
 10 43  1  0
 14 44  1  0
 16 45  1  0
 17 46  1  0
 18 47  1  0
 20 48  1  0
 23 49  1  0
 24 50  1  0
 25 51  1  0
 26 52  1  0
 27 53  1  0
M  END
>  <_SMILES>  (38) 
CCCN(CCl)c1c(F)cc(C(=O)Nc2cccc3cn(-c4ccccc4)nc23)c(F)c1F

$$$$

     RDKit          3D

 56 59  0  0  0  0  0  0  0  0999 V2000
   -7.4174   -1.7880    0.6350 C   0  0  0  0  0  0  0  0  0  0  0  0
   -6.7626   -0.4521    0.9532 C   0  0  0  0  0  0  0  0  0  0  0  0
   -5.9855    0.1512   -0.2221 C   0  0  0  0  0  0  0  0  0  0  0  0
   -4.6828   -0.5143   -0.4236 N   0  0  0  0  0  0  0  0  0  0  0  0
   -4.6609   -1.5826   -1.4352 C   0  0  0  0  0  0  0  0  0  0  0  0
   -3.9260   -2.8178   -0.9300 C   0  0  0  0  0  0  0  0  0  0  0  0
   -3.5218    0.2105   -0.0965 C   0  0  0  0  0  0  0  0  0  0  0  0
   -3.4615    1.0480    1.0420 C   0  0  0  0  0  0  0  0  0  0  0  0
   -4.5231    1.1753    1.8542 F   0  0  0  0  0  0  0  0  0  0  0  0
   -2.3194    1.7658    1.4078 C   0  0  0  0  0  0  0  0  0  0  0  0
   -1.1582    1.6657    0.6474 C   0  0  0  0  0  0  0  0  0  0  0  0
    0.0375    2.4492    1.0628 C   0  0  0  0  0  0  0  0  0  0  0  0
   -0.1390    3.5061    1.6570 O   0  0  0  0  0  0  0  0  0  0  0  0
    1.2522    1.8797    0.7529 N   0  0  0  0  0  0  0  0  0  0  0  0
    2.5270    2.4146    1.0025 C   0  0  0  0  0  0  0  0  0  0  0  0
    2.8262    3.6695    1.5733 C   0  0  0  0  0  0  0  0  0  0  0  0
    4.1655    4.1362    1.7882 C   0  0  0  0  0  0  0  0  0  0  0  0
    5.3243    3.4032    1.4556 C   0  0  0  0  0  0  0  0  0  0  0  0
    4.9885    2.1782    0.8951 C   0  0  0  0  0  0  0  0  0  0  0  0
    5.8721    1.2314    0.4623 C   0  0  0  0  0  0  0  0  0  0  0  0
    5.1030    0.1891   -0.0155 N   0  0  0  0  0  0  0  0  0  0  0  0
    5.5585   -1.0399   -0.5771 C   0  0  0  0  0  0  0  0  0  0  0  0
    6.9263   -1.3204   -0.7051 C   0  0  0  0  0  0  0  0  0  0  0  0
    7.3437   -2.5343   -1.2600 C   0  0  0  0  0  0  0  0  0  0  0  0
    6.4055   -3.4715   -1.6885 C   0  0  0  0  0  0  0  0  0  0  0  0
    5.0450   -3.2002   -1.5645 C   0  0  0  0  0  0  0  0  0  0  0  0
    4.6203   -1.9901   -1.0114 C   0  0  0  0  0  0  0  0  0  0  0  0
    3.7652    0.4423    0.0970 N   0  0  0  0  0  0  0  0  0  0  0  0
    3.6741    1.6617    0.6578 C   0  0  0  0  0  0  0  0  0  0  0  0
   -1.1662    0.8637   -0.4900 C   0  0  0  0  0  0  0  0  0  0  0  0
   -2.3223    0.1551   -0.8400 C   0  0  0  0  0  0  0  0  0  0  0  0
   -2.2347   -0.5744   -1.9635 F   0  0  0  0  0  0  0  0  0  0  0  0
   -8.0511   -1.7156   -0.2544 H   0  0  0  0  0  0  0  0  0  0  0  0
   -6.6725   -2.5700    0.4694 H   0  0  0  0  0  0  0  0  0  0  0  0
   -8.0469   -2.1053    1.4727 H   0  0  0  0  0  0  0  0  0  0  0  0
   -7.5555    0.2513    1.2347 H   0  0  0  0  0  0  0  0  0  0  0  0
   -6.1178   -0.5746    1.8299 H   0  0  0  0  0  0  0  0  0  0  0  0
   -6.5878    0.0837   -1.1378 H   0  0  0  0  0  0  0  0  0  0  0  0
   -5.8620    1.2295   -0.0609 H   0  0  0  0  0  0  0  0  0  0  0  0
   -5.6866   -1.8982   -1.6633 H   0  0  0  0  0  0  0  0  0  0  0  0
   -4.2620   -1.2280   -2.3909 H   0  0  0  0  0  0  0  0  0  0  0  0
   -4.3652   -3.1801    0.0051 H   0  0  0  0  0  0  0  0  0  0  0  0
   -3.9914   -3.6221   -1.6696 H   0  0  0  0  0  0  0  0  0  0  0  0
   -2.8666   -2.6247   -0.7409 H   0  0  0  0  0  0  0  0  0  0  0  0
   -2.3525    2.3917    2.2964 H   0  0  0  0  0  0  0  0  0  0  0  0
    1.2858    0.9466    0.3534 H   0  0  0  0  0  0  0  0  0  0  0  0
    2.0188    4.3356    1.8734 H   0  0  0  0  0  0  0  0  0  0  0  0
    4.2894    5.1228    2.2382 H   0  0  0  0  0  0  0  0  0  0  0  0
    6.3272    3.7696    1.6242 H   0  0  0  0  0  0  0  0  0  0  0  0
    6.9501    1.2105    0.4539 H   0  0  0  0  0  0  0  0  0  0  0  0
    7.6944   -0.6232   -0.3863 H   0  0  0  0  0  0  0  0  0  0  0  0
    8.4052   -2.7494   -1.3581 H   0  0  0  0  0  0  0  0  0  0  0  0
    6.7346   -4.4139   -2.1191 H   0  0  0  0  0  0  0  0  0  0  0  0
    4.3117   -3.9303   -1.8978 H   0  0  0  0  0  0  0  0  0  0  0  0
    3.5515   -1.8039   -0.9256 H   0  0  0  0  0  0  0  0  0  0  0  0
   -0.3043    0.7876   -1.1459 H   0  0  0  0  0  0  0  0  0  0  0  0
  1  2  1  0
  2  3  1  0
  3  4  1  0
  4  5  1  0
  5  6  1  0
  4  7  1  0
  7  8  1  0
  8  9  1  0
  8 10  2  0
 10 11  1  0
 11 12  1  0
 12 13  2  0
 12 14  1  0
 14 15  1  0
 15 16  2  0
 16 17  1  0
 17 18  2  0
 18 19  1  0
 19 20  2  0
 20 21  1  0
 21 22  1  0
 22 23  2  0
 23 24  1  0
 24 25  2  0
 25 26  1  0
 26 27  2  0
 21 28  1  0
 28 29  2  0
 11 30  2  0
 30 31  1  0
 31 32  1  0
 31  7  2  0
 29 15  1  0
 29 19  1  0
 27 22  1  0
  1 33  1  0
  1 34  1  0
  1 35  1  0
  2 36  1  0
  2 37  1  0
  3 38  1  0
  3 39  1  0
  5 40  1  0
  5 41  1  0
  6 42  1  0
  6 43  1  0
  6 44  1  0
 10 45  1  0
 14 46  1  0
 16 47  1  0
 17 48  1  0
 18 49  1  0
 20 50  1  0
 23 51  1  0
 24 52  1  0
 25 53  1  0
 26 54  1  0
 27 55  1  0
 30 56  1  0
M  END
>  <_SMILES>  (39) 
CCCN(CC)c1c(F)cc(C(=O)Nc2cccc3cn(-c4ccccc4)nc23)cc1F

$$$$

     RDKit          3D

 58 61  0  0  0  0  0  0  0  0999 V2000
   -7.4238   -1.3133    2.1301 C   0  0  0  0  0  0  0  0  0  0  0  0
   -6.3219   -2.0277    1.3601 C   0  0  0  0  0  0  0  0  0  0  0  0
   -6.3855   -1.7616   -0.1476 C   0  0  0  0  0  0  0  0  0  0  0  0
   -6.1435   -0.3394   -0.4746 N   0  0  0  0  0  0  0  0  0  0  0  0
   -6.7214    0.0560   -1.7701 C   0  0  0  0  0  0  0  0  0  0  0  0
   -6.7901    1.8294   -1.8693 Cl  0  0  0  0  0  0  0  0  0  0  0  0
   -4.7753    0.0242   -0.3423 C   0  0  0  0  0  0  0  0  0  0  0  0
   -4.3929    0.9137    0.6743 C   0  0  0  0  0  0  0  0  0  0  0  0
   -5.3147    1.3964    1.5225 F   0  0  0  0  0  0  0  0  0  0  0  0
   -3.0659    1.3120    0.8377 C   0  0  0  0  0  0  0  0  0  0  0  0
   -2.7739    2.1663    1.8325 F   0  0  0  0  0  0  0  0  0  0  0  0
   -2.0644    0.8356   -0.0067 C   0  0  0  0  0  0  0  0  0  0  0  0
   -0.6440    1.2530    0.1347 C   0  0  0  0  0  0  0  0  0  0  0  0
    0.0696    1.1905   -0.8569 O   0  0  0  0  0  0  0  0  0  0  0  0
   -0.2758    1.7472    1.3742 N   0  0  0  0  0  0  0  0  0  0  0  0
    1.0314    2.0539    1.8018 C   0  0  0  0  0  0  0  0  0  0  0  0
    1.1946    2.9094    2.9241 C   0  0  0  0  0  0  0  0  0  0  0  0
    2.4639    3.2990    3.4574 C   0  0  0  0  0  0  0  0  0  0  0  0
    3.6965    2.8628    2.9391 C   0  0  0  0  0  0  0  0  0  0  0  0
    3.5087    1.9997    1.8678 C   0  0  0  0  0  0  0  0  0  0  0  0
    4.5168    1.3912    1.1738 C   0  0  0  0  0  0  0  0  0  0  0  0
    3.8899    0.6291    0.2134 N   0  0  0  0  0  0  0  0  0  0  0  0
    4.4946   -0.1738   -0.7981 C   0  0  0  0  0  0  0  0  0  0  0  0
    3.6752   -0.8265   -1.7367 C   0  0  0  0  0  0  0  0  0  0  0  0
    4.2352   -1.6078   -2.7511 C   0  0  0  0  0  0  0  0  0  0  0  0
    5.6172   -1.7543   -2.8346 C   0  0  0  0  0  0  0  0  0  0  0  0
    6.4317   -1.1189   -1.8929 C   0  0  0  0  0  0  0  0  0  0  0  0
    8.1900   -1.3229   -2.0043 S   0  0  0  0  0  0  0  0  0  0  0  0
    8.3959   -2.8463   -1.3163 N   0  0  0  0  0  0  0  0  0  0  0  0
    8.5538   -1.4057   -3.3977 O   0  0  0  0  0  0  0  0  0  0  0  0
    8.8176   -0.3995   -1.0865 O   0  0  0  0  0  0  0  0  0  0  0  0
    5.8852   -0.3185   -0.8812 C   0  0  0  0  0  0  0  0  0  0  0  0
    2.5420    0.6759    0.3253 N   0  0  0  0  0  0  0  0  0  0  0  0
    2.2610    1.5701    1.2852 C   0  0  0  0  0  0  0  0  0  0  0  0
   -2.4266   -0.0568   -1.0185 C   0  0  0  0  0  0  0  0  0  0  0  0
   -1.5125   -0.5885   -1.8433 F   0  0  0  0  0  0  0  0  0  0  0  0
   -3.7562   -0.4515   -1.1816 C   0  0  0  0  0  0  0  0  0  0  0  0
   -4.0551   -1.3195   -2.1620 F   0  0  0  0  0  0  0  0  0  0  0  0
   -7.3375   -0.2265    2.0401 H   0  0  0  0  0  0  0  0  0  0  0  0
   -8.4121   -1.6105    1.7653 H   0  0  0  0  0  0  0  0  0  0  0  0
   -7.3655   -1.5677    3.1932 H   0  0  0  0  0  0  0  0  0  0  0  0
   -6.4267   -3.1065    1.5266 H   0  0  0  0  0  0  0  0  0  0  0  0
   -5.3468   -1.7412    1.7689 H   0  0  0  0  0  0  0  0  0  0  0  0
   -7.3846   -2.0531   -0.4969 H   0  0  0  0  0  0  0  0  0  0  0  0
   -5.6789   -2.4177   -0.6706 H   0  0  0  0  0  0  0  0  0  0  0  0
   -6.1678   -0.3314   -2.6312 H   0  0  0  0  0  0  0  0  0  0  0  0
   -7.7565   -0.2916   -1.8463 H   0  0  0  0  0  0  0  0  0  0  0  0
   -1.0170    2.0336    2.0035 H   0  0  0  0  0  0  0  0  0  0  0  0
    0.3087    3.3214    3.4081 H   0  0  0  0  0  0  0  0  0  0  0  0
    2.4735    3.9761    4.3128 H   0  0  0  0  0  0  0  0  0  0  0  0
    4.6519    3.1627    3.3470 H   0  0  0  0  0  0  0  0  0  0  0  0
    5.5895    1.4483    1.2693 H   0  0  0  0  0  0  0  0  0  0  0  0
    2.5899   -0.7160   -1.7011 H   0  0  0  0  0  0  0  0  0  0  0  0
    3.5867   -2.0896   -3.4796 H   0  0  0  0  0  0  0  0  0  0  0  0
    6.0510   -2.3522   -3.6342 H   0  0  0  0  0  0  0  0  0  0  0  0
    8.9421   -2.7515   -0.4585 H   0  0  0  0  0  0  0  0  0  0  0  0
    7.5192   -3.3418   -1.1589 H   0  0  0  0  0  0  0  0  0  0  0  0
    6.5538    0.1722   -0.1804 H   0  0  0  0  0  0  0  0  0  0  0  0
  1  2  1  0
  2  3  1  0
  3  4  1  0
  4  5  1  0
  5  6  1  0
  4  7  1  0
  7  8  1  0
  8  9  1  0
  8 10  2  0
 10 11  1  0
 10 12  1  0
 12 13  1  0
 13 14  2  0
 13 15  1  0
 15 16  1  0
 16 17  2  0
 17 18  1  0
 18 19  2  0
 19 20  1  0
 20 21  2  0
 21 22  1  0
 22 23  1  0
 23 24  1  0
 24 25  2  0
 25 26  1  0
 26 27  2  0
 27 28  1  0
 28 29  1  0
 28 30  2  0
 28 31  2  0
 27 32  1  0
 22 33  1  0
 33 34  2  0
 12 35  2  0
 35 36  1  0
 35 37  1  0
 37 38  1  0
 37  7  2  0
 34 16  1  0
 34 20  1  0
 32 23  2  0
  1 39  1  0
  1 40  1  0
  1 41  1  0
  2 42  1  0
  2 43  1  0
  3 44  1  0
  3 45  1  0
  5 46  1  0
  5 47  1  0
 15 48  1  0
 17 49  1  0
 18 50  1  0
 19 51  1  0
 21 52  1  0
 24 53  1  0
 25 54  1  0
 26 55  1  0
 29 56  1  0
 29 57  1  0
 32 58  1  0
M  END
>  <_SMILES>  (40) 
CCCN(CCl)c1c(F)c(F)c(C(=O)Nc2cccc3cn(-c4cccc(S(N)(=O)=O)c4)nc23)c(F)c1F

$$$$

     RDKit          3D

 55 58  0  0  0  0  0  0  0  0999 V2000
    5.8165    0.3588    2.2705 C   0  0  0  0  0  0  0  0  0  0  0  0
    4.5140    1.0383    1.8720 C   0  0  0  0  0  0  0  0  0  0  0  0
    4.4745    1.4512    0.3968 C   0  0  0  0  0  0  0  0  0  0  0  0
    4.4606    0.2881   -0.5080 N   0  0  0  0  0  0  0  0  0  0  0  0
    5.7334    0.0213   -1.1998 C   0  0  0  0  0  0  0  0  0  0  0  0
    5.7690    0.6968   -2.5633 C   0  0  0  0  0  0  0  0  0  0  0  0
    3.2941   -0.4285   -0.7923 C   0  0  0  0  0  0  0  0  0  0  0  0
    3.3167   -1.5374   -1.6623 C   0  0  0  0  0  0  0  0  0  0  0  0
    2.1708   -2.2804   -1.9663 C   0  0  0  0  0  0  0  0  0  0  0  0
    0.9519   -1.9395   -1.4021 C   0  0  0  0  0  0  0  0  0  0  0  0
   -0.1208   -2.6629   -1.7511 F   0  0  0  0  0  0  0  0  0  0  0  0
    0.8586   -0.8596   -0.5333 C   0  0  0  0  0  0  0  0  0  0  0  0
   -0.4591   -0.5273    0.0713 C   0  0  0  0  0  0  0  0  0  0  0  0
   -1.2372   -1.4456    0.2930 O   0  0  0  0  0  0  0  0  0  0  0  0
   -0.6523    0.8055    0.3911 N   0  0  0  0  0  0  0  0  0  0  0  0
   -1.8456    1.4063    0.8361 C   0  0  0  0  0  0  0  0  0  0  0  0
   -1.7663    2.6723    1.4768 C   0  0  0  0  0  0  0  0  0  0  0  0
   -2.8974    3.3920    1.9770 C   0  0  0  0  0  0  0  0  0  0  0  0
   -4.2226    2.9327    1.8754 C   0  0  0  0  0  0  0  0  0  0  0  0
   -4.2778    1.7123    1.2158 C   0  0  0  0  0  0  0  0  0  0  0  0
   -5.4276    1.0298    0.9420 C   0  0  0  0  0  0  0  0  0  0  0  0
   -5.0257   -0.1064    0.2743 N   0  0  0  0  0  0  0  0  0  0  0  0
   -5.8836   -1.1519   -0.1857 C   0  0  0  0  0  0  0  0  0  0  0  0
   -5.3195   -2.2565   -0.8232 C   0  0  0  0  0  0  0  0  0  0  0  0
   -6.1622   -3.2727   -1.2665 C   0  0  0  0  0  0  0  0  0  0  0  0
   -7.5326   -3.1606   -1.0637 C   0  0  0  0  0  0  0  0  0  0  0  0
   -8.0113   -2.0311   -0.4203 C   0  0  0  0  0  0  0  0  0  0  0  0
   -7.2255   -1.0258    0.0235 N   0  0  0  0  0  0  0  0  0  0  0  0
   -3.6858   -0.1363    0.0633 N   0  0  0  0  0  0  0  0  0  0  0  0
   -3.1769    0.9375    0.6884 C   0  0  0  0  0  0  0  0  0  0  0  0
    2.0204   -0.1242   -0.2421 C   0  0  0  0  0  0  0  0  0  0  0  0
    1.8918    0.9159    0.6011 F   0  0  0  0  0  0  0  0  0  0  0  0
    5.9429   -0.5959    1.7510 H   0  0  0  0  0  0  0  0  0  0  0  0
    5.8206    0.1557    3.3462 H   0  0  0  0  0  0  0  0  0  0  0  0
    6.6779    0.9948    2.0435 H   0  0  0  0  0  0  0  0  0  0  0  0
    4.3925    1.9388    2.4858 H   0  0  0  0  0  0  0  0  0  0  0  0
    3.6816    0.3717    2.1196 H   0  0  0  0  0  0  0  0  0  0  0  0
    3.6277    2.1156    0.1939 H   0  0  0  0  0  0  0  0  0  0  0  0
    5.3522    2.0783    0.1897 H   0  0  0  0  0  0  0  0  0  0  0  0
    6.5699    0.4097   -0.6049 H   0  0  0  0  0  0  0  0  0  0  0  0
    5.9367   -1.0515   -1.2826 H   0  0  0  0  0  0  0  0  0  0  0  0
    5.6297    1.7789   -2.4684 H   0  0  0  0  0  0  0  0  0  0  0  0
    4.9852    0.3176   -3.2257 H   0  0  0  0  0  0  0  0  0  0  0  0
    6.7348    0.5200   -3.0469 H   0  0  0  0  0  0  0  0  0  0  0  0
    4.2351   -1.8636   -2.1409 H   0  0  0  0  0  0  0  0  0  0  0  0
    2.2259   -3.1257   -2.6466 H   0  0  0  0  0  0  0  0  0  0  0  0
    0.1737    1.3908    0.4252 H   0  0  0  0  0  0  0  0  0  0  0  0
   -0.7873    3.1290    1.6226 H   0  0  0  0  0  0  0  0  0  0  0  0
   -2.7191    4.3501    2.4668 H   0  0  0  0  0  0  0  0  0  0  0  0
   -5.0740    3.4806    2.2546 H   0  0  0  0  0  0  0  0  0  0  0  0
   -6.4715    1.2158    1.1494 H   0  0  0  0  0  0  0  0  0  0  0  0
   -4.2446   -2.3386   -0.9692 H   0  0  0  0  0  0  0  0  0  0  0  0
   -5.7465   -4.1451   -1.7630 H   0  0  0  0  0  0  0  0  0  0  0  0
   -8.2116   -3.9373   -1.3973 H   0  0  0  0  0  0  0  0  0  0  0  0
   -9.0745   -1.9018   -0.2387 H   0  0  0  0  0  0  0  0  0  0  0  0
  1  2  1  0
  2  3  1  0
  3  4  1  0
  4  5  1  0
  5  6  1  0
  4  7  1  0
  7  8  1  0
  8  9  2  0
  9 10  1  0
 10 11  1  0
 10 12  2  0
 12 13  1  0
 13 14  2  0
 13 15  1  0
 15 16  1  0
 16 17  2  0
 17 18  1  0
 18 19  2  0
 19 20  1  0
 20 21  2  0
 21 22  1  0
 22 23  1  0
 23 24  2  0
 24 25  1  0
 25 26  2  0
 26 27  1  0
 27 28  2  0
 22 29  1  0
 29 30  2  0
 12 31  1  0
 31 32  1  0
 31  7  2  0
 30 16  1  0
 30 20  1  0
 28 23  1  0
  1 33  1  0
  1 34  1  0
  1 35  1  0
  2 36  1  0
  2 37  1  0
  3 38  1  0
  3 39  1  0
  5 40  1  0
  5 41  1  0
  6 42  1  0
  6 43  1  0
  6 44  1  0
  8 45  1  0
  9 46  1  0
 15 47  1  0
 17 48  1  0
 18 49  1  0
 19 50  1  0
 21 51  1  0
 24 52  1  0
 25 53  1  0
 26 54  1  0
 27 55  1  0
M  END
>  <_SMILES>  (41) 
CCCN(CC)c1ccc(F)c(C(=O)Nc2cccc3cn(-c4ccccn4)nc23)c1F

$$$$

     RDKit          3D

 60 64  0  0  0  0  0  0  0  0999 V2000
   -8.5889    1.2223   -0.2712 C   0  0  0  0  0  0  0  0  0  0  0  0
   -7.8213    1.0894    1.0185 N   0  0  0  0  0  0  0  0  0  0  0  0
   -8.6019    1.6767    2.1687 C   0  0  0  0  0  0  0  0  0  0  0  0
   -6.4188    1.6737    0.9496 C   0  0  0  0  0  0  0  0  0  0  0  0
   -5.4878    0.9556   -0.0011 C   0  0  0  0  0  0  0  0  0  0  0  0
   -4.0172    1.4099    0.0774 C   0  0  0  0  0  0  0  0  0  0  0  0
   -3.6720    0.0233   -0.0388 N   0  0  0  0  0  0  0  0  0  0  0  0
   -2.4114   -0.5683    0.1938 C   0  0  0  0  0  0  0  0  0  0  0  0
   -2.3055   -1.9420    0.4306 C   0  0  0  0  0  0  0  0  0  0  0  0
   -1.0603   -2.5388    0.6564 C   0  0  0  0  0  0  0  0  0  0  0  0
   -1.0494   -3.8636    0.8578 F   0  0  0  0  0  0  0  0  0  0  0  0
    0.1195   -1.7913    0.6465 C   0  0  0  0  0  0  0  0  0  0  0  0
    1.4176   -2.4562    0.9301 C   0  0  0  0  0  0  0  0  0  0  0  0
    1.4099   -3.5028    1.5671 O   0  0  0  0  0  0  0  0  0  0  0  0
    2.5438   -1.8237    0.4495 N   0  0  0  0  0  0  0  0  0  0  0  0
    3.8768   -2.2560    0.5641 C   0  0  0  0  0  0  0  0  0  0  0  0
    4.3391   -3.4413    1.1744 C   0  0  0  0  0  0  0  0  0  0  0  0
    5.7259   -3.8025    1.2417 C   0  0  0  0  0  0  0  0  0  0  0  0
    6.7755   -3.0238    0.7106 C   0  0  0  0  0  0  0  0  0  0  0  0
    6.2813   -1.8696    0.1184 C   0  0  0  0  0  0  0  0  0  0  0  0
    7.0307   -0.9036   -0.4894 C   0  0  0  0  0  0  0  0  0  0  0  0
    6.1328    0.0479   -0.9299 N   0  0  0  0  0  0  0  0  0  0  0  0
    6.4213    1.2583   -1.6261 C   0  0  0  0  0  0  0  0  0  0  0  0
    5.3683    2.1124   -1.9916 C   0  0  0  0  0  0  0  0  0  0  0  0
    5.6292    3.3028   -2.6741 C   0  0  0  0  0  0  0  0  0  0  0  0
    6.9391    3.6496   -2.9965 C   0  0  0  0  0  0  0  0  0  0  0  0
    7.9902    2.8079   -2.6374 C   0  0  0  0  0  0  0  0  0  0  0  0
    7.7372    1.6145   -1.9539 C   0  0  0  0  0  0  0  0  0  0  0  0
    4.8419   -0.2822   -0.6259 N   0  0  0  0  0  0  0  0  0  0  0  0
    4.9128   -1.4588    0.0221 C   0  0  0  0  0  0  0  0  0  0  0  0
    0.0205   -0.4260    0.3927 C   0  0  0  0  0  0  0  0  0  0  0  0
    1.1147    0.3504    0.3652 F   0  0  0  0  0  0  0  0  0  0  0  0
   -1.2203    0.1736    0.1683 C   0  0  0  0  0  0  0  0  0  0  0  0
   -1.2594    1.4954   -0.0653 F   0  0  0  0  0  0  0  0  0  0  0  0
   -4.9469   -0.4193    0.4361 C   0  0  0  0  0  0  0  0  0  0  0  0
   -9.5872    0.8037   -0.1172 H   0  0  0  0  0  0  0  0  0  0  0  0
   -8.0717    0.6473   -1.0418 H   0  0  0  0  0  0  0  0  0  0  0  0
   -8.6460    2.2813   -0.5361 H   0  0  0  0  0  0  0  0  0  0  0  0
   -7.7367    0.0834    1.2156 H   0  0  0  0  0  0  0  0  0  0  0  0
   -8.7164    2.7506    1.9989 H   0  0  0  0  0  0  0  0  0  0  0  0
   -9.5740    1.1782    2.2091 H   0  0  0  0  0  0  0  0  0  0  0  0
   -8.0474    1.4801    3.0900 H   0  0  0  0  0  0  0  0  0  0  0  0
   -6.5329    2.7260    0.6639 H   0  0  0  0  0  0  0  0  0  0  0  0
   -6.0234    1.6415    1.9718 H   0  0  0  0  0  0  0  0  0  0  0  0
   -5.8494    0.9607   -1.0385 H   0  0  0  0  0  0  0  0  0  0  0  0
   -3.6992    1.8455    1.0308 H   0  0  0  0  0  0  0  0  0  0  0  0
   -3.6708    2.0187   -0.7613 H   0  0  0  0  0  0  0  0  0  0  0  0
   -3.1823   -2.5832    0.4349 H   0  0  0  0  0  0  0  0  0  0  0  0
    2.4602   -0.9275   -0.0278 H   0  0  0  0  0  0  0  0  0  0  0  0
    3.6302   -4.1349    1.6234 H   0  0  0  0  0  0  0  0  0  0  0  0
    5.9796   -4.7419    1.7363 H   0  0  0  0  0  0  0  0  0  0  0  0
    7.8162   -3.3107    0.7694 H   0  0  0  0  0  0  0  0  0  0  0  0
    8.0946   -0.8140   -0.6409 H   0  0  0  0  0  0  0  0  0  0  0  0
    4.3363    1.8653   -1.7509 H   0  0  0  0  0  0  0  0  0  0  0  0
    4.8088    3.9587   -2.9534 H   0  0  0  0  0  0  0  0  0  0  0  0
    7.1417    4.5762   -3.5278 H   0  0  0  0  0  0  0  0  0  0  0  0
    9.0120    3.0817   -2.8907 H   0  0  0  0  0  0  0  0  0  0  0  0
    8.5888    0.9929   -1.6966 H   0  0  0  0  0  0  0  0  0  0  0  0
   -4.9521   -0.6154    1.5136 H   0  0  0  0  0  0  0  0  0  0  0  0
   -5.3457   -1.2754   -0.1135 H   0  0  0  0  0  0  0  0  0  0  0  0
  1  2  1  0
  2  3  1  0
  2  4  1  0
  4  5  1  0
  5  6  1  0
  6  7  1  0
  7  8  1  0
  8  9  1  0
  9 10  2  0
 10 11  1  0
 10 12  1  0
 12 13  1  0
 13 14  2  0
 13 15  1  0
 15 16  1  0
 16 17  2  0
 17 18  1  0
 18 19  2  0
 19 20  1  0
 20 21  2  0
 21 22  1  0
 22 23  1  0
 23 24  2  0
 24 25  1  0
 25 26  2  0
 26 27  1  0
 27 28  2  0
 22 29  1  0
 29 30  2  0
 12 31  2  0
 31 32  1  0
 31 33  1  0
 33 34  1  0
  7 35  1  0
 35  5  1  0
 33  8  2  0
 30 16  1  0
 30 20  1  0
 28 23  1  0
  1 36  1  0
  1 37  1  0
  1 38  1  0
  2 39  1  0
  3 40  1  0
  3 41  1  0
  3 42  1  0
  4 43  1  0
  4 44  1  0
  5 45  1  0
  6 46  1  0
  6 47  1  0
  9 48  1  0
 15 49  1  0
 17 50  1  0
 18 51  1  0
 19 52  1  0
 21 53  1  0
 24 54  1  0
 25 55  1  0
 26 56  1  0
 27 57  1  0
 28 58  1  0
 35 59  1  0
 35 60  1  0
M  CHG  1   2   1
M  END
>  <_SMILES>  (42) 
C[NH+](C)CC1CN(c2cc(F)c(C(=O)Nc3cccc4cn(-c5ccccc5)nc34)c(F)c2F)C1

$$$$

     RDKit          3D

 71 75  0  0  0  0  0  0  0  0999 V2000
   -5.2679   -2.2794   -1.6512 C   0  0  0  0  0  0  0  0  0  0  0  0
   -3.8252   -1.9536   -1.2916 C   0  0  0  0  0  0  0  0  0  0  0  0
   -3.7375   -0.7827   -0.3421 N   0  0  0  0  0  0  0  0  0  0  0  0
   -4.1287   -1.2295    1.0475 C   0  0  0  0  0  0  0  0  0  0  0  0
   -3.9894   -0.1469    2.1078 C   0  0  0  0  0  0  0  0  0  0  0  0
   -2.3396   -0.3642   -0.3787 C   0  0  0  0  0  0  0  0  0  0  0  0
   -1.3288   -1.1861    0.1788 C   0  0  0  0  0  0  0  0  0  0  0  0
    0.0225   -0.8028    0.2076 C   0  0  0  0  0  0  0  0  0  0  0  0
    1.0077   -1.7345    0.8337 C   0  0  0  0  0  0  0  0  0  0  0  0
    0.5758   -2.7731    1.3260 O   0  0  0  0  0  0  0  0  0  0  0  0
    2.3283   -1.3506    0.8086 N   0  0  0  0  0  0  0  0  0  0  0  0
    3.4314   -2.0509    1.3266 C   0  0  0  0  0  0  0  0  0  0  0  0
    3.4154   -3.3009    1.9814 C   0  0  0  0  0  0  0  0  0  0  0  0
    4.5974   -3.9436    2.4795 C   0  0  0  0  0  0  0  0  0  0  0  0
    5.8974   -3.4062    2.3733 C   0  0  0  0  0  0  0  0  0  0  0  0
    5.8717   -2.1792    1.7247 C   0  0  0  0  0  0  0  0  0  0  0  0
    6.9586   -1.3963    1.4601 C   0  0  0  0  0  0  0  0  0  0  0  0
    6.4701   -0.2823    0.8075 N   0  0  0  0  0  0  0  0  0  0  0  0
    7.2112    0.8338    0.3197 C   0  0  0  0  0  0  0  0  0  0  0  0
    8.6033    0.9064    0.4705 C   0  0  0  0  0  0  0  0  0  0  0  0
    9.3040    2.0134   -0.0183 C   0  0  0  0  0  0  0  0  0  0  0  0
    8.6254    3.0496   -0.6571 C   0  0  0  0  0  0  0  0  0  0  0  0
    7.2426    2.9848   -0.8107 C   0  0  0  0  0  0  0  0  0  0  0  0
    6.5355    1.8825   -0.3252 C   0  0  0  0  0  0  0  0  0  0  0  0
    5.1136   -0.3311    0.6507 N   0  0  0  0  0  0  0  0  0  0  0  0
    4.7262   -1.4921    1.2083 C   0  0  0  0  0  0  0  0  0  0  0  0
    0.3672    0.4239   -0.3402 C   0  0  0  0  0  0  0  0  0  0  0  0
    1.6364    0.8556   -0.3408 F   0  0  0  0  0  0  0  0  0  0  0  0
   -0.5991    1.2444   -0.9163 C   0  0  0  0  0  0  0  0  0  0  0  0
   -1.9557    0.8721   -0.9687 C   0  0  0  0  0  0  0  0  0  0  0  0
   -2.8088    1.7745   -1.5992 N   0  0  0  0  0  0  0  0  0  0  0  0
   -3.2856    2.9077   -0.7943 C   0  0  0  0  0  0  0  0  0  0  0  0
   -4.7302    2.6958   -0.2899 C   0  0  0  0  0  0  0  0  0  0  0  0
   -5.3716    1.4863   -0.9469 N   0  0  0  0  0  0  0  0  0  0  0  0
   -6.7793    1.2590   -0.5391 C   0  0  0  0  0  0  0  0  0  0  0  0
   -5.1452    1.5090   -2.4422 C   0  0  0  0  0  0  0  0  0  0  0  0
   -3.6386    1.3457   -2.7337 C   0  0  0  0  0  0  0  0  0  0  0  0
   -5.2949   -3.0868   -2.3902 H   0  0  0  0  0  0  0  0  0  0  0  0
   -5.7772   -1.4151   -2.0809 H   0  0  0  0  0  0  0  0  0  0  0  0
   -5.8411   -2.6112   -0.7811 H   0  0  0  0  0  0  0  0  0  0  0  0
   -3.2937   -1.7306   -2.2248 H   0  0  0  0  0  0  0  0  0  0  0  0
   -3.3577   -2.8486   -0.8607 H   0  0  0  0  0  0  0  0  0  0  0  0
   -5.1883   -1.5085    1.0220 H   0  0  0  0  0  0  0  0  0  0  0  0
   -3.5868   -2.1302    1.3578 H   0  0  0  0  0  0  0  0  0  0  0  0
   -4.2595   -0.5536    3.0881 H   0  0  0  0  0  0  0  0  0  0  0  0
   -2.9721    0.2466    2.1823 H   0  0  0  0  0  0  0  0  0  0  0  0
   -4.6654    0.6851    1.9071 H   0  0  0  0  0  0  0  0  0  0  0  0
   -1.5851   -2.1548    0.6035 H   0  0  0  0  0  0  0  0  0  0  0  0
    2.5876   -0.4641    0.3769 H   0  0  0  0  0  0  0  0  0  0  0  0
    2.4737   -3.8259    2.1292 H   0  0  0  0  0  0  0  0  0  0  0  0
    4.4782   -4.9107    2.9713 H   0  0  0  0  0  0  0  0  0  0  0  0
    6.7788   -3.9036    2.7539 H   0  0  0  0  0  0  0  0  0  0  0  0
    8.0069   -1.5327    1.6733 H   0  0  0  0  0  0  0  0  0  0  0  0
    9.1765    0.1256    0.9600 H   0  0  0  0  0  0  0  0  0  0  0  0
   10.3839    2.0672    0.0998 H   0  0  0  0  0  0  0  0  0  0  0  0
    9.1755    3.9078   -1.0354 H   0  0  0  0  0  0  0  0  0  0  0  0
    6.7129    3.7924   -1.3093 H   0  0  0  0  0  0  0  0  0  0  0  0
    5.4559    1.8561   -0.4584 H   0  0  0  0  0  0  0  0  0  0  0  0
   -0.2760    2.1865   -1.3542 H   0  0  0  0  0  0  0  0  0  0  0  0
   -3.2664    3.8030   -1.4284 H   0  0  0  0  0  0  0  0  0  0  0  0
   -2.6235    3.1280    0.0525 H   0  0  0  0  0  0  0  0  0  0  0  0
   -5.3545    3.5683   -0.5131 H   0  0  0  0  0  0  0  0  0  0  0  0
   -4.7431    2.5257    0.7891 H   0  0  0  0  0  0  0  0  0  0  0  0
   -4.7830    0.6756   -0.6322 H   0  0  0  0  0  0  0  0  0  0  0  0
   -6.8143    1.1912    0.5511 H   0  0  0  0  0  0  0  0  0  0  0  0
   -7.1197    0.3190   -0.9794 H   0  0  0  0  0  0  0  0  0  0  0  0
   -7.3857    2.0956   -0.8959 H   0  0  0  0  0  0  0  0  0  0  0  0
   -5.7232    0.7016   -2.9002 H   0  0  0  0  0  0  0  0  0  0  0  0
   -5.5247    2.4690   -2.8102 H   0  0  0  0  0  0  0  0  0  0  0  0
   -3.4208    0.3153   -3.0287 H   0  0  0  0  0  0  0  0  0  0  0  0
   -3.3836    1.9583   -3.6068 H   0  0  0  0  0  0  0  0  0  0  0  0
  1  2  1  0
  2  3  1  0
  3  4  1  0
  4  5  1  0
  3  6  1  0
  6  7  1  0
  7  8  2  0
  8  9  1  0
  9 10  2  0
  9 11  1  0
 11 12  1  0
 12 13  2  0
 13 14  1  0
 14 15  2  0
 15 16  1  0
 16 17  2  0
 17 18  1  0
 18 19  1  0
 19 20  2  0
 20 21  1  0
 21 22  2  0
 22 23  1  0
 23 24  2  0
 18 25  1  0
 25 26  2  0
  8 27  1  0
 27 28  1  0
 27 29  2  0
 29 30  1  0
 30 31  1  0
 31 32  1  0
 32 33  1  0
 33 34  1  0
 34 35  1  0
 34 36  1  0
 36 37  1  0
 30  6  2  0
 37 31  1  0
 26 12  1  0
 26 16  1  0
 24 19  1  0
  1 38  1  0
  1 39  1  0
  1 40  1  0
  2 41  1  0
  2 42  1  0
  4 43  1  0
  4 44  1  0
  5 45  1  0
  5 46  1  0
  5 47  1  0
  7 48  1  0
 11 49  1  0
 13 50  1  0
 14 51  1  0
 15 52  1  0
 17 53  1  0
 20 54  1  0
 21 55  1  0
 22 56  1  0
 23 57  1  0
 24 58  1  0
 29 59  1  0
 32 60  1  0
 32 61  1  0
 33 62  1  0
 33 63  1  0
 34 64  1  0
 35 65  1  0
 35 66  1  0
 35 67  1  0
 36 68  1  0
 36 69  1  0
 37 70  1  0
 37 71  1  0
M  CHG  1  34   1
M  END
>  <_SMILES>  (43) 
CCN(CC)c1cc(C(=O)Nc2cccc3cn(-c4ccccc4)nc23)c(F)cc1N1CC[NH+](C)CC1

$$$$

     RDKit          3D

 54 57  0  0  0  0  0  0  0  0999 V2000
   -3.3103   -3.2734    2.4417 O   0  0  0  0  0  0  0  0  0  0  0  0
   -2.7291   -3.4846    1.1073 C   0  0  0  0  0  0  0  0  0  0  0  0
   -2.2576   -2.1074    0.6115 C   0  0  0  0  0  0  0  0  0  0  0  0
   -1.7668   -2.0760   -0.7651 N   0  0  0  0  0  0  0  0  0  0  0  0
   -1.3325   -0.8611   -1.3381 C   0  0  0  0  0  0  0  0  0  0  0  0
   -0.5548   -0.9210   -2.5104 C   0  0  0  0  0  0  0  0  0  0  0  0
   -0.1830   -2.1249   -2.9785 F   0  0  0  0  0  0  0  0  0  0  0  0
   -0.1455    0.2261   -3.1929 C   0  0  0  0  0  0  0  0  0  0  0  0
    0.5984    0.1004   -4.3016 F   0  0  0  0  0  0  0  0  0  0  0  0
   -0.5122    1.4914   -2.7461 C   0  0  0  0  0  0  0  0  0  0  0  0
   -0.0201    2.7309   -3.4327 C   0  0  0  0  0  0  0  0  0  0  0  0
    1.3958    2.9119   -3.2818 O   0  0  0  0  0  0  0  0  0  0  0  0
    1.6888    3.5645   -2.1115 C   0  0  0  0  0  0  0  0  0  0  0  0
    1.8826    4.9605   -2.0892 C   0  0  0  0  0  0  0  0  0  0  0  0
    2.2068    5.6797   -0.8963 C   0  0  0  0  0  0  0  0  0  0  0  0
    2.3784    5.0744    0.3680 C   0  0  0  0  0  0  0  0  0  0  0  0
    2.2072    3.6964    0.2946 C   0  0  0  0  0  0  0  0  0  0  0  0
    2.3104    2.8257    1.3418 C   0  0  0  0  0  0  0  0  0  0  0  0
    2.0768    1.5743    0.8103 N   0  0  0  0  0  0  0  0  0  0  0  0
    2.0560    0.3255    1.4957 C   0  0  0  0  0  0  0  0  0  0  0  0
    2.1686    0.2580    2.8910 C   0  0  0  0  0  0  0  0  0  0  0  0
    2.1309   -0.9821    3.5354 C   0  0  0  0  0  0  0  0  0  0  0  0
    1.9885   -2.1550    2.7960 C   0  0  0  0  0  0  0  0  0  0  0  0
    1.8855   -2.0959    1.4084 C   0  0  0  0  0  0  0  0  0  0  0  0
    1.9158   -0.8616    0.7583 C   0  0  0  0  0  0  0  0  0  0  0  0
    1.8264    1.6217   -0.5272 N   0  0  0  0  0  0  0  0  0  0  0  0
    1.8882    2.9193   -0.8697 C   0  0  0  0  0  0  0  0  0  0  0  0
   -1.3113    1.5685   -1.6065 C   0  0  0  0  0  0  0  0  0  0  0  0
   -1.7020    2.7698   -1.1531 F   0  0  0  0  0  0  0  0  0  0  0  0
   -1.7183    0.4204   -0.9183 C   0  0  0  0  0  0  0  0  0  0  0  0
   -2.4938    0.5851    0.1648 F   0  0  0  0  0  0  0  0  0  0  0  0
   -1.5707   -4.4561    1.1754 C   0  0  0  0  0  0  0  0  0  0  0  0
   -0.6179   -4.0215    2.0366 F   0  0  0  0  0  0  0  0  0  0  0  0
   -1.9434   -5.6840    1.5967 F   0  0  0  0  0  0  0  0  0  0  0  0
   -0.9577   -4.6105   -0.0217 F   0  0  0  0  0  0  0  0  0  0  0  0
   -3.7516   -4.1016    0.1738 C   0  0  0  0  0  0  0  0  0  0  0  0
   -3.2877   -4.3677   -1.0608 F   0  0  0  0  0  0  0  0  0  0  0  0
   -4.2490   -5.2572    0.6733 F   0  0  0  0  0  0  0  0  0  0  0  0
   -4.8149   -3.2652    0.0437 F   0  0  0  0  0  0  0  0  0  0  0  0
   -4.2083   -2.9060    2.3221 H   0  0  0  0  0  0  0  0  0  0  0  0
   -1.4881   -1.7180    1.2910 H   0  0  0  0  0  0  0  0  0  0  0  0
   -3.1182   -1.4345    0.7059 H   0  0  0  0  0  0  0  0  0  0  0  0
   -1.1175   -2.8288   -1.0272 H   0  0  0  0  0  0  0  0  0  0  0  0
   -0.5726    3.6255   -3.1145 H   0  0  0  0  0  0  0  0  0  0  0  0
   -0.2164    2.6347   -4.5077 H   0  0  0  0  0  0  0  0  0  0  0  0
    1.7809    5.5171   -3.0198 H   0  0  0  0  0  0  0  0  0  0  0  0
    2.3314    6.7611   -0.9712 H   0  0  0  0  0  0  0  0  0  0  0  0
    2.6216    5.6313    1.2624 H   0  0  0  0  0  0  0  0  0  0  0  0
    2.5365    2.9814    2.3846 H   0  0  0  0  0  0  0  0  0  0  0  0
    2.2733    1.1447    3.5079 H   0  0  0  0  0  0  0  0  0  0  0  0
    2.2119   -1.0341    4.6187 H   0  0  0  0  0  0  0  0  0  0  0  0
    1.9580   -3.1178    3.3009 H   0  0  0  0  0  0  0  0  0  0  0  0
    1.7849   -3.0121    0.8317 H   0  0  0  0  0  0  0  0  0  0  0  0
    1.8475   -0.8426   -0.3276 H   0  0  0  0  0  0  0  0  0  0  0  0
  1  2  1  0
  2  3  1  0
  3  4  1  0
  4  5  1  0
  5  6  1  0
  6  7  1  0
  6  8  2  0
  8  9  1  0
  8 10  1  0
 10 11  1  0
 11 12  1  0
 12 13  1  0
 13 14  2  0
 14 15  1  0
 15 16  2  0
 16 17  1  0
 17 18  2  0
 18 19  1  0
 19 20  1  0
 20 21  2  0
 21 22  1  0
 22 23  2  0
 23 24  1  0
 24 25  2  0
 19 26  1  0
 26 27  2  0
 10 28  2  0
 28 29  1  0
 28 30  1  0
 30 31  1  0
  2 32  1  0
 32 33  1  0
 32 34  1  0
 32 35  1  0
  2 36  1  0
 36 37  1  0
 36 38  1  0
 36 39  1  0
 30  5  2  0
 27 13  1  0
 27 17  1  0
 25 20  1  0
  1 40  1  0
  3 41  1  0
  3 42  1  0
  4 43  1  0
 11 44  1  0
 11 45  1  0
 14 46  1  0
 15 47  1  0
 16 48  1  0
 18 49  1  0
 21 50  1  0
 22 51  1  0
 23 52  1  0
 24 53  1  0
 25 54  1  0
M  END
>  <_SMILES>  (44) 
OC(CNc1c(F)c(F)c(COc2cccc3cn(-c4ccccc4)nc23)c(F)c1F)(C(F)(F)F)C(F)(F)F

$$$$

     RDKit          3D

 56 59  0  0  0  0  0  0  0  0999 V2000
   -6.4779    1.0640    2.9086 C   0  0  0  0  0  0  0  0  0  0  0  0
   -6.6090    1.2227    1.5833 C   0  0  0  0  0  0  0  0  0  0  0  0
   -6.7670    0.1353    0.5249 C   0  0  0  0  0  0  0  0  0  0  0  0
   -6.7016   -1.3141    1.0557 C   0  0  0  0  0  0  0  0  0  0  0  0
   -8.2006    0.3411   -0.0261 C   0  0  0  0  0  0  0  0  0  0  0  0
   -5.7093    0.3726   -0.5030 N   0  0  0  0  0  0  0  0  0  0  0  0
   -6.0098    0.1190   -1.8988 C   0  0  0  0  0  0  0  0  0  0  0  0
   -5.0092    0.8320   -2.7511 C   0  0  0  0  0  0  0  0  0  0  0  0
   -3.7633    0.9387   -2.4292 N   0  0  0  0  0  0  0  0  0  0  0  0
   -3.4209    0.4351   -1.1936 N   0  0  0  0  0  0  0  0  0  0  0  0
   -2.0137    0.3229   -0.9752 C   0  0  0  0  0  0  0  0  0  0  0  0
   -1.4862   -0.7149   -0.2013 C   0  0  0  0  0  0  0  0  0  0  0  0
   -2.2755   -1.6955    0.2651 F   0  0  0  0  0  0  0  0  0  0  0  0
   -0.1123   -0.8249    0.0124 C   0  0  0  0  0  0  0  0  0  0  0  0
    0.3519   -1.8497    0.7475 F   0  0  0  0  0  0  0  0  0  0  0  0
    0.7987    0.0798   -0.5434 C   0  0  0  0  0  0  0  0  0  0  0  0
    2.1591   -0.1524   -0.2460 N   0  0  0  0  0  0  0  0  0  0  0  0
    3.2871    0.5151   -0.6688 C   0  0  0  0  0  0  0  0  0  0  0  0
    3.3532    1.4706   -1.4270 O   0  0  0  0  0  0  0  0  0  0  0  0
    4.4935   -0.0844   -0.0874 C   0  0  0  0  0  0  0  0  0  0  0  0
    5.7971    0.3259   -0.2712 C   0  0  0  0  0  0  0  0  0  0  0  0
    6.5897   -0.5075    0.4917 N   0  0  0  0  0  0  0  0  0  0  0  0
    8.0114   -0.4572    0.5890 C   0  0  0  0  0  0  0  0  0  0  0  0
    8.7236    0.1027   -0.4921 C   0  0  0  0  0  0  0  0  0  0  0  0
   10.1201    0.1476   -0.4892 C   0  0  0  0  0  0  0  0  0  0  0  0
   10.8298   -0.3561    0.5931 C   0  0  0  0  0  0  0  0  0  0  0  0
   10.1410   -0.8922    1.6793 C   0  0  0  0  0  0  0  0  0  0  0  0
    8.7380   -0.9415    1.6915 C   0  0  0  0  0  0  0  0  0  0  0  0
    8.0390   -1.4888    3.1760 Cl  0  0  0  0  0  0  0  0  0  0  0  0
    5.7181   -1.4142    1.0579 C   0  0  0  0  0  0  0  0  0  0  0  0
    4.4597   -1.1818    0.7484 N   0  0  0  0  0  0  0  0  0  0  0  0
    0.2780    1.1048   -1.3336 C   0  0  0  0  0  0  0  0  0  0  0  0
    1.0604    2.0298   -1.9006 F   0  0  0  0  0  0  0  0  0  0  0  0
   -1.1016    1.2177   -1.5519 C   0  0  0  0  0  0  0  0  0  0  0  0
   -1.5285    2.2564   -2.2893 F   0  0  0  0  0  0  0  0  0  0  0  0
   -4.3480    0.2407   -0.1335 C   0  0  0  0  0  0  0  0  0  0  0  0
   -3.9926    0.0493    1.0294 O   0  0  0  0  0  0  0  0  0  0  0  0
   -6.3540    1.9263    3.5565 H   0  0  0  0  0  0  0  0  0  0  0  0
   -6.4573    0.0874    3.3795 H   0  0  0  0  0  0  0  0  0  0  0  0
   -6.5913    2.2434    1.2018 H   0  0  0  0  0  0  0  0  0  0  0  0
   -7.5193   -1.5213    1.7562 H   0  0  0  0  0  0  0  0  0  0  0  0
   -6.7847   -2.0318    0.2310 H   0  0  0  0  0  0  0  0  0  0  0  0
   -5.7658   -1.5351    1.5777 H   0  0  0  0  0  0  0  0  0  0  0  0
   -8.4574   -0.4156   -0.7767 H   0  0  0  0  0  0  0  0  0  0  0  0
   -8.9494    0.2609    0.7722 H   0  0  0  0  0  0  0  0  0  0  0  0
   -8.3212    1.3282   -0.4892 H   0  0  0  0  0  0  0  0  0  0  0  0
   -5.9785   -0.9547   -2.1059 H   0  0  0  0  0  0  0  0  0  0  0  0
   -6.9843    0.5263   -2.1737 H   0  0  0  0  0  0  0  0  0  0  0  0
   -5.3464    1.2053   -3.7310 H   0  0  0  0  0  0  0  0  0  0  0  0
    2.3620   -0.9418    0.3708 H   0  0  0  0  0  0  0  0  0  0  0  0
    6.1873    1.1586   -0.8391 H   0  0  0  0  0  0  0  0  0  0  0  0
    8.2171    0.4787   -1.3788 H   0  0  0  0  0  0  0  0  0  0  0  0
   10.6517    0.5708   -1.3390 H   0  0  0  0  0  0  0  0  0  0  0  0
   11.9165   -0.3211    0.5992 H   0  0  0  0  0  0  0  0  0  0  0  0
   10.7096   -1.2554    2.5336 H   0  0  0  0  0  0  0  0  0  0  0  0
    6.0429   -2.2576    1.6503 H   0  0  0  0  0  0  0  0  0  0  0  0
  1  2  2  0
  2  3  1  0
  3  4  1  0
  3  5  1  0
  3  6  1  0
  6  7  1  0
  7  8  1  0
  8  9  2  0
  9 10  1  0
 10 11  1  0
 11 12  1  0
 12 13  1  0
 12 14  2  0
 14 15  1  0
 14 16  1  0
 16 17  1  0
 17 18  1  0
 18 19  2  0
 18 20  1  0
 20 21  2  0
 21 22  1  0
 22 23  1  0
 23 24  2  0
 24 25  1  0
 25 26  2  0
 26 27  1  0
 27 28  2  0
 28 29  1  0
 22 30  1  0
 30 31  2  0
 16 32  2  0
 32 33  1  0
 32 34  1  0
 34 35  1  0
 10 36  1  0
 36 37  2  0
 36  6  1  0
 34 11  2  0
 31 20  1  0
 28 23  1  0
  1 38  1  0
  1 39  1  0
  2 40  1  0
  4 41  1  0
  4 42  1  0
  4 43  1  0
  5 44  1  0
  5 45  1  0
  5 46  1  0
  7 47  1  0
  7 48  1  0
  8 49  1  0
 17 50  1  0
 21 51  1  0
 24 52  1  0
 25 53  1  0
 26 54  1  0
 27 55  1  0
 30 56  1  0
M  END
>  <_SMILES>  (45) 
C=CC(C)(C)N1CC=NN(c2c(F)c(F)c(NC(=O)c3cn(-c4ccccc4Cl)cn3)c(F)c2F)C1=O

$$$$

     RDKit          3D

 56 59  0  0  0  0  0  0  0  0999 V2000
   -6.6579    1.9913   -2.4325 C   0  0  0  0  0  0  0  0  0  0  0  0
   -6.0463    0.9052   -1.9364 C   0  0  0  0  0  0  0  0  0  0  0  0
   -6.5004   -0.0234   -0.8073 C   0  0  0  0  0  0  0  0  0  0  0  0
   -7.9823    0.2515   -0.4202 C   0  0  0  0  0  0  0  0  0  0  0  0
   -6.5027   -1.4891   -1.3145 C   0  0  0  0  0  0  0  0  0  0  0  0
   -5.5291    0.1600    0.3340 N   0  0  0  0  0  0  0  0  0  0  0  0
   -5.9451    0.7420    1.5289 C   0  0  0  0  0  0  0  0  0  0  0  0
   -5.1199    0.8080    2.5737 C   0  0  0  0  0  0  0  0  0  0  0  0
   -3.8536    0.3097    2.5168 N   0  0  0  0  0  0  0  0  0  0  0  0
   -3.2880    0.0818    1.2481 N   0  0  0  0  0  0  0  0  0  0  0  0
   -1.8643   -0.0598    1.1786 C   0  0  0  0  0  0  0  0  0  0  0  0
   -1.0901   -0.3621    2.3098 C   0  0  0  0  0  0  0  0  0  0  0  0
   -1.6651   -0.4744    3.5194 F   0  0  0  0  0  0  0  0  0  0  0  0
    0.2980   -0.5340    2.2374 C   0  0  0  0  0  0  0  0  0  0  0  0
    0.9565   -0.7239    3.3879 F   0  0  0  0  0  0  0  0  0  0  0  0
    0.9723   -0.4048    1.0247 C   0  0  0  0  0  0  0  0  0  0  0  0
    2.3646   -0.5656    0.8266 N   0  0  0  0  0  0  0  0  0  0  0  0
    3.2409   -1.2864    1.6233 C   0  0  0  0  0  0  0  0  0  0  0  0
    2.8977   -1.9928    2.5638 O   0  0  0  0  0  0  0  0  0  0  0  0
    4.6516   -1.1972    1.1968 C   0  0  0  0  0  0  0  0  0  0  0  0
    5.2208   -0.3372    0.2708 C   0  0  0  0  0  0  0  0  0  0  0  0
    6.5700   -0.6228    0.2261 N   0  0  0  0  0  0  0  0  0  0  0  0
    7.5791   -0.0297   -0.5872 C   0  0  0  0  0  0  0  0  0  0  0  0
    8.6763   -0.8333   -0.9612 C   0  0  0  0  0  0  0  0  0  0  0  0
    9.6829   -0.3347   -1.7920 C   0  0  0  0  0  0  0  0  0  0  0  0
    9.6178    0.9726   -2.2564 C   0  0  0  0  0  0  0  0  0  0  0  0
    8.5515    1.7864   -1.8786 C   0  0  0  0  0  0  0  0  0  0  0  0
    7.5340    1.3004   -1.0425 C   0  0  0  0  0  0  0  0  0  0  0  0
    6.3728    2.4812   -0.5407 Cl  0  0  0  0  0  0  0  0  0  0  0  0
    6.7464   -1.6698    1.1045 C   0  0  0  0  0  0  0  0  0  0  0  0
    5.6332   -2.0241    1.7015 N   0  0  0  0  0  0  0  0  0  0  0  0
    0.2212   -0.0211   -0.0866 C   0  0  0  0  0  0  0  0  0  0  0  0
    0.8538    0.2053   -1.2507 F   0  0  0  0  0  0  0  0  0  0  0  0
   -1.1624    0.1542   -0.0158 C   0  0  0  0  0  0  0  0  0  0  0  0
   -1.7728    0.6505   -1.1024 F   0  0  0  0  0  0  0  0  0  0  0  0
   -4.1593   -0.2252    0.1625 C   0  0  0  0  0  0  0  0  0  0  0  0
   -3.7530   -0.7918   -0.8548 O   0  0  0  0  0  0  0  0  0  0  0  0
   -7.6048    2.3622   -2.0585 H   0  0  0  0  0  0  0  0  0  0  0  0
   -6.2007    2.5484   -3.2458 H   0  0  0  0  0  0  0  0  0  0  0  0
   -5.0955    0.6326   -2.3981 H   0  0  0  0  0  0  0  0  0  0  0  0
   -8.6554    0.0735   -1.2685 H   0  0  0  0  0  0  0  0  0  0  0  0
   -8.1525    1.2849   -0.0988 H   0  0  0  0  0  0  0  0  0  0  0  0
   -8.3063   -0.4099    0.3925 H   0  0  0  0  0  0  0  0  0  0  0  0
   -5.5835   -1.7754   -1.8324 H   0  0  0  0  0  0  0  0  0  0  0  0
   -6.6440   -2.1870   -0.4810 H   0  0  0  0  0  0  0  0  0  0  0  0
   -7.3128   -1.6590   -2.0347 H   0  0  0  0  0  0  0  0  0  0  0  0
   -6.9522    1.1228    1.6231 H   0  0  0  0  0  0  0  0  0  0  0  0
   -5.4153    1.2332    3.5272 H   0  0  0  0  0  0  0  0  0  0  0  0
   -3.2174    0.6423    3.2407 H   0  0  0  0  0  0  0  0  0  0  0  0
    2.7064   -0.2912   -0.0872 H   0  0  0  0  0  0  0  0  0  0  0  0
    4.7734    0.4114   -0.3626 H   0  0  0  0  0  0  0  0  0  0  0  0
    8.7563   -1.8751   -0.6571 H   0  0  0  0  0  0  0  0  0  0  0  0
   10.5143   -0.9738   -2.0828 H   0  0  0  0  0  0  0  0  0  0  0  0
   10.4005    1.3637   -2.9021 H   0  0  0  0  0  0  0  0  0  0  0  0
    8.5297    2.8177   -2.2262 H   0  0  0  0  0  0  0  0  0  0  0  0
    7.7106   -2.1183    1.3031 H   0  0  0  0  0  0  0  0  0  0  0  0
  1  2  2  0
  2  3  1  0
  3  4  1  0
  3  5  1  0
  3  6  1  0
  6  7  1  0
  7  8  2  0
  8  9  1  0
  9 10  1  0
 10 11  1  0
 11 12  1  0
 12 13  1  0
 12 14  2  0
 14 15  1  0
 14 16  1  0
 16 17  1  0
 17 18  1  0
 18 19  2  0
 18 20  1  0
 20 21  2  0
 21 22  1  0
 22 23  1  0
 23 24  2  0
 24 25  1  0
 25 26  2  0
 26 27  1  0
 27 28  2  0
 28 29  1  0
 22 30  1  0
 30 31  2  0
 16 32  2  0
 32 33  1  0
 32 34  1  0
 34 35  1  0
 10 36  1  0
 36 37  2  0
 36  6  1  0
 34 11  2  0
 31 20  1  0
 28 23  1  0
  1 38  1  0
  1 39  1  0
  2 40  1  0
  4 41  1  0
  4 42  1  0
  4 43  1  0
  5 44  1  0
  5 45  1  0
  5 46  1  0
  7 47  1  0
  8 48  1  0
  9 49  1  0
 17 50  1  0
 21 51  1  0
 24 52  1  0
 25 53  1  0
 26 54  1  0
 27 55  1  0
 30 56  1  0
M  END
>  <_SMILES>  (46) 
C=CC(C)(C)N1C=CNN(c2c(F)c(F)c(NC(=O)c3cn(-c4ccccc4Cl)cn3)c(F)c2F)C1=O

$$$$

     RDKit          3D

 57 60  0  0  0  0  0  0  0  0999 V2000
   -5.9406    2.7296    1.6654 C   0  0  0  0  0  0  0  0  0  0  0  0
   -6.2244    2.0870    0.5230 C   0  0  0  0  0  0  0  0  0  0  0  0
   -6.7009    0.6468    0.3555 C   0  0  0  0  0  0  0  0  0  0  0  0
   -8.1282    0.7797   -0.2327 C   0  0  0  0  0  0  0  0  0  0  0  0
   -6.8320   -0.1568    1.6680 C   0  0  0  0  0  0  0  0  0  0  0  0
   -5.7523   -0.0129   -0.5925 N   0  0  0  0  0  0  0  0  0  0  0  0
   -6.2517   -1.0797   -1.4395 C   0  0  0  0  0  0  0  0  0  0  0  0
   -5.2794   -1.3773   -2.5356 C   0  0  0  0  0  0  0  0  0  0  0  0
   -4.0019   -1.2239   -2.4202 N   0  0  0  0  0  0  0  0  0  0  0  0
   -3.5573   -0.6918   -1.2306 N   0  0  0  0  0  0  0  0  0  0  0  0
   -2.1351   -0.6642   -1.1210 C   0  0  0  0  0  0  0  0  0  0  0  0
   -1.4565    0.4461   -0.5968 C   0  0  0  0  0  0  0  0  0  0  0  0
   -2.1157    1.5792   -0.3105 F   0  0  0  0  0  0  0  0  0  0  0  0
   -0.0627    0.4626   -0.4862 C   0  0  0  0  0  0  0  0  0  0  0  0
    0.5320    1.6004   -0.0999 F   0  0  0  0  0  0  0  0  0  0  0  0
    0.6998   -0.6341   -0.8886 C   0  0  0  0  0  0  0  0  0  0  0  0
    2.1174   -0.7152   -0.8132 N   0  0  0  0  0  0  0  0  0  0  0  0
    2.9050   -0.0402    0.1103 C   0  0  0  0  0  0  0  0  0  0  0  0
    2.4646    0.5444    1.0923 O   0  0  0  0  0  0  0  0  0  0  0  0
    4.3016   -0.1999   -0.2133 C   0  0  0  0  0  0  0  0  0  0  0  0
    5.3392    0.1457    0.6210 C   0  0  0  0  0  0  0  0  0  0  0  0
    6.5377   -0.1138   -0.0441 N   0  0  0  0  0  0  0  0  0  0  0  0
    7.8994    0.1046    0.4762 C   0  0  0  0  0  0  0  0  0  0  0  0
    8.0873   -0.0966    1.8467 C   0  0  0  0  0  0  0  0  0  0  0  0
    9.3589    0.0652    2.3997 C   0  0  0  0  0  0  0  0  0  0  0  0
   10.4324    0.4335    1.5900 C   0  0  0  0  0  0  0  0  0  0  0  0
   10.2388    0.6513    0.2244 C   0  0  0  0  0  0  0  0  0  0  0  0
    8.9704    0.4928   -0.3428 C   0  0  0  0  0  0  0  0  0  0  0  0
    8.8024    0.9070   -2.0095 Cl  0  0  0  0  0  0  0  0  0  0  0  0
    6.2477   -0.6222   -1.2533 C   0  0  0  0  0  0  0  0  0  0  0  0
    4.9140   -0.6591   -1.3748 N   0  0  0  0  0  0  0  0  0  0  0  0
    0.0302   -1.7132   -1.4664 C   0  0  0  0  0  0  0  0  0  0  0  0
    0.7528   -2.7599   -1.9007 F   0  0  0  0  0  0  0  0  0  0  0  0
   -1.3593   -1.7360   -1.5806 C   0  0  0  0  0  0  0  0  0  0  0  0
   -1.9273   -2.8412   -2.0883 F   0  0  0  0  0  0  0  0  0  0  0  0
   -4.3901   -0.1238   -0.2336 C   0  0  0  0  0  0  0  0  0  0  0  0
   -3.9522    0.2327    0.8601 O   0  0  0  0  0  0  0  0  0  0  0  0
   -5.5946    3.7587    1.6468 H   0  0  0  0  0  0  0  0  0  0  0  0
   -6.0156    2.2538    2.6370 H   0  0  0  0  0  0  0  0  0  0  0  0
   -6.0967    2.6457   -0.4042 H   0  0  0  0  0  0  0  0  0  0  0  0
   -8.1174    1.2593   -1.2192 H   0  0  0  0  0  0  0  0  0  0  0  0
   -8.6139   -0.1970   -0.3415 H   0  0  0  0  0  0  0  0  0  0  0  0
   -8.7739    1.3813    0.4196 H   0  0  0  0  0  0  0  0  0  0  0  0
   -7.1485   -1.1862    1.4634 H   0  0  0  0  0  0  0  0  0  0  0  0
   -5.8942   -0.2173    2.2278 H   0  0  0  0  0  0  0  0  0  0  0  0
   -7.5787    0.2891    2.3357 H   0  0  0  0  0  0  0  0  0  0  0  0
   -6.4196   -1.9851   -0.8486 H   0  0  0  0  0  0  0  0  0  0  0  0
   -7.1791   -0.7814   -1.9327 H   0  0  0  0  0  0  0  0  0  0  0  0
   -5.6819   -1.8198   -3.4611 H   0  0  0  0  0  0  0  0  0  0  0  0
    2.5115   -1.5275   -1.2767 H   0  0  0  0  0  0  0  0  0  0  0  0
    5.3535    0.5809    1.6083 H   0  0  0  0  0  0  0  0  0  0  0  0
    7.2795   -0.4121    2.4988 H   0  0  0  0  0  0  0  0  0  0  0  0
    9.5182   -0.1000    3.4647 H   0  0  0  0  0  0  0  0  0  0  0  0
   11.4227    0.5628    2.0258 H   0  0  0  0  0  0  0  0  0  0  0  0
   11.0850    0.9647   -0.3856 H   0  0  0  0  0  0  0  0  0  0  0  0
    6.9405   -0.9850   -2.0021 H   0  0  0  0  0  0  0  0  0  0  0  0
    4.4392   -0.9316   -2.2312 H   0  0  0  0  0  0  0  0  0  0  0  0
  1  2  2  0
  2  3  1  0
  3  4  1  0
  3  5  1  0
  3  6  1  0
  6  7  1  0
  7  8  1  0
  8  9  2  0
  9 10  1  0
 10 11  1  0
 11 12  1  0
 12 13  1  0
 12 14  2  0
 14 15  1  0
 14 16  1  0
 16 17  1  0
 17 18  1  0
 18 19  2  0
 18 20  1  0
 20 21  2  0
 21 22  1  0
 22 23  1  0
 23 24  2  0
 24 25  1  0
 25 26  2  0
 26 27  1  0
 27 28  2  0
 28 29  1  0
 22 30  1  0
 30 31  2  0
 16 32  2  0
 32 33  1  0
 32 34  1  0
 34 35  1  0
 10 36  1  0
 36 37  2  0
 36  6  1  0
 34 11  2  0
 31 20  1  0
 28 23  1  0
  1 38  1  0
  1 39  1  0
  2 40  1  0
  4 41  1  0
  4 42  1  0
  4 43  1  0
  5 44  1  0
  5 45  1  0
  5 46  1  0
  7 47  1  0
  7 48  1  0
  8 49  1  0
 17 50  1  0
 21 51  1  0
 24 52  1  0
 25 53  1  0
 26 54  1  0
 27 55  1  0
 30 56  1  0
 31 57  1  0
M  CHG  1  31   1
M  END
>  <_SMILES>  (47) 
C=CC(C)(C)N1CC=NN(c2c(F)c(F)c(NC(=O)c3cn(-c4ccccc4Cl)c[nH+]3)c(F)c2F)C1=O

$$$$

     RDKit          3D

 57 60  0  0  0  0  0  0  0  0999 V2000
   -9.1773    0.7419    0.3352 C   0  0  0  0  0  0  0  0  0  0  0  0
   -8.0741    0.7139   -0.4283 C   0  0  0  0  0  0  0  0  0  0  0  0
   -6.6327    1.0801   -0.0377 C   0  0  0  0  0  0  0  0  0  0  0  0
   -6.2730    2.2292   -1.0128 C   0  0  0  0  0  0  0  0  0  0  0  0
   -6.5231    1.6048    1.4092 C   0  0  0  0  0  0  0  0  0  0  0  0
   -5.7320   -0.1201   -0.1945 N   0  0  0  0  0  0  0  0  0  0  0  0
   -6.2601   -1.4089   -0.1339 C   0  0  0  0  0  0  0  0  0  0  0  0
   -5.4745   -2.4690   -0.3222 C   0  0  0  0  0  0  0  0  0  0  0  0
   -4.1386   -2.3370   -0.5700 N   0  0  0  0  0  0  0  0  0  0  0  0
   -3.5276   -1.1174   -0.2117 N   0  0  0  0  0  0  0  0  0  0  0  0
   -2.1006   -1.0988   -0.1171 C   0  0  0  0  0  0  0  0  0  0  0  0
   -1.3000   -2.0463   -0.7692 C   0  0  0  0  0  0  0  0  0  0  0  0
   -1.8455   -3.0485   -1.4761 F   0  0  0  0  0  0  0  0  0  0  0  0
    0.0935   -1.9781   -0.7149 C   0  0  0  0  0  0  0  0  0  0  0  0
    0.8302   -2.8963   -1.3628 F   0  0  0  0  0  0  0  0  0  0  0  0
    0.7495   -0.9723   -0.0079 C   0  0  0  0  0  0  0  0  0  0  0  0
    2.1715   -0.9736   -0.0297 N   0  0  0  0  0  0  0  0  0  0  0  0
    2.9610    0.1583    0.1404 C   0  0  0  0  0  0  0  0  0  0  0  0
    2.5257    1.3029    0.1448 O   0  0  0  0  0  0  0  0  0  0  0  0
    4.3506   -0.2157    0.2322 C   0  0  0  0  0  0  0  0  0  0  0  0
    5.4069    0.6572    0.1166 C   0  0  0  0  0  0  0  0  0  0  0  0
    6.5859   -0.0681    0.2796 N   0  0  0  0  0  0  0  0  0  0  0  0
    7.9683    0.4300    0.2077 C   0  0  0  0  0  0  0  0  0  0  0  0
    8.8741   -0.0964    1.1330 C   0  0  0  0  0  0  0  0  0  0  0  0
   10.1949    0.3557    1.1336 C   0  0  0  0  0  0  0  0  0  0  0  0
   10.6055    1.3192    0.2126 C   0  0  0  0  0  0  0  0  0  0  0  0
    9.7002    1.8315   -0.7195 C   0  0  0  0  0  0  0  0  0  0  0  0
    8.3742    1.3889   -0.7318 C   0  0  0  0  0  0  0  0  0  0  0  0
    7.3615    1.9756   -1.9995 Cl  0  0  0  0  0  0  0  0  0  0  0  0
    6.2658   -1.3434    0.5528 C   0  0  0  0  0  0  0  0  0  0  0  0
    4.9325   -1.4502    0.5127 N   0  0  0  0  0  0  0  0  0  0  0  0
   -0.0352   -0.0834    0.7248 C   0  0  0  0  0  0  0  0  0  0  0  0
    0.5331    0.7671    1.5917 F   0  0  0  0  0  0  0  0  0  0  0  0
   -1.4322   -0.1482    0.6735 C   0  0  0  0  0  0  0  0  0  0  0  0
   -2.1136    0.6399    1.5188 F   0  0  0  0  0  0  0  0  0  0  0  0
   -4.3176    0.0702   -0.2056 C   0  0  0  0  0  0  0  0  0  0  0  0
   -3.8001    1.1888   -0.2218 O   0  0  0  0  0  0  0  0  0  0  0  0
  -10.1415    0.4643   -0.0822 H   0  0  0  0  0  0  0  0  0  0  0  0
   -9.1638    1.0386    1.3785 H   0  0  0  0  0  0  0  0  0  0  0  0
   -8.1978    0.4077   -1.4686 H   0  0  0  0  0  0  0  0  0  0  0  0
   -6.1012    1.8508   -2.0276 H   0  0  0  0  0  0  0  0  0  0  0  0
   -5.3807    2.7825   -0.7062 H   0  0  0  0  0  0  0  0  0  0  0  0
   -7.0767    2.9752   -1.0654 H   0  0  0  0  0  0  0  0  0  0  0  0
   -5.5002    1.9156    1.6489 H   0  0  0  0  0  0  0  0  0  0  0  0
   -7.1704    2.4738    1.5744 H   0  0  0  0  0  0  0  0  0  0  0  0
   -6.7974    0.8303    2.1350 H   0  0  0  0  0  0  0  0  0  0  0  0
   -7.3200   -1.5424    0.0470 H   0  0  0  0  0  0  0  0  0  0  0  0
   -5.8543   -3.4855   -0.3069 H   0  0  0  0  0  0  0  0  0  0  0  0
   -3.5938   -3.1770   -0.3828 H   0  0  0  0  0  0  0  0  0  0  0  0
    2.5828   -1.7707   -0.5058 H   0  0  0  0  0  0  0  0  0  0  0  0
    5.4420    1.7243   -0.0382 H   0  0  0  0  0  0  0  0  0  0  0  0
    8.5764   -0.8142    1.8896 H   0  0  0  0  0  0  0  0  0  0  0  0
   10.9083   -0.0317    1.8602 H   0  0  0  0  0  0  0  0  0  0  0  0
   11.6369    1.6708    0.2159 H   0  0  0  0  0  0  0  0  0  0  0  0
   10.0455    2.5675   -1.4444 H   0  0  0  0  0  0  0  0  0  0  0  0
    6.9521   -2.1595    0.7471 H   0  0  0  0  0  0  0  0  0  0  0  0
    4.4265   -2.3038    0.7327 H   0  0  0  0  0  0  0  0  0  0  0  0
  1  2  2  0
  2  3  1  0
  3  4  1  0
  3  5  1  0
  3  6  1  0
  6  7  1  0
  7  8  2  0
  8  9  1  0
  9 10  1  0
 10 11  1  0
 11 12  1  0
 12 13  1  0
 12 14  2  0
 14 15  1  0
 14 16  1  0
 16 17  1  0
 17 18  1  0
 18 19  2  0
 18 20  1  0
 20 21  2  0
 21 22  1  0
 22 23  1  0
 23 24  2  0
 24 25  1  0
 25 26  2  0
 26 27  1  0
 27 28  2  0
 28 29  1  0
 22 30  1  0
 30 31  2  0
 16 32  2  0
 32 33  1  0
 32 34  1  0
 34 35  1  0
 10 36  1  0
 36 37  2  0
 36  6  1  0
 34 11  2  0
 31 20  1  0
 28 23  1  0
  1 38  1  0
  1 39  1  0
  2 40  1  0
  4 41  1  0
  4 42  1  0
  4 43  1  0
  5 44  1  0
  5 45  1  0
  5 46  1  0
  7 47  1  0
  8 48  1  0
  9 49  1  0
 17 50  1  0
 21 51  1  0
 24 52  1  0
 25 53  1  0
 26 54  1  0
 27 55  1  0
 30 56  1  0
 31 57  1  0
M  CHG  1  31   1
M  END
>  <_SMILES>  (48) 
C=CC(C)(C)N1C=CNN(c2c(F)c(F)c(NC(=O)c3cn(-c4ccccc4Cl)c[nH+]3)c(F)c2F)C1=O

$$$$

     RDKit          3D

 39 42  0  0  0  0  0  0  0  0999 V2000
    3.5520   -2.1575    0.9581 O   0  0  0  0  0  0  0  0  0  0  0  0
    3.0154   -1.1104    0.6243 C   0  0  0  0  0  0  0  0  0  0  0  0
    1.6713   -0.8792    0.4381 N   0  0  0  0  0  0  0  0  0  0  0  0
    0.6263   -1.8057    0.5773 C   0  0  0  0  0  0  0  0  0  0  0  0
    0.7425   -3.1638    0.9415 C   0  0  0  0  0  0  0  0  0  0  0  0
   -0.3827   -4.0451    1.0607 C   0  0  0  0  0  0  0  0  0  0  0  0
   -1.7201   -3.6593    0.8305 C   0  0  0  0  0  0  0  0  0  0  0  0
   -1.7926   -2.3189    0.4757 C   0  0  0  0  0  0  0  0  0  0  0  0
   -2.9373   -1.6334    0.1861 C   0  0  0  0  0  0  0  0  0  0  0  0
   -2.5395   -0.3452   -0.1105 N   0  0  0  0  0  0  0  0  0  0  0  0
   -3.3670    0.7560   -0.4793 C   0  0  0  0  0  0  0  0  0  0  0  0
   -4.7592    0.6207   -0.5788 C   0  0  0  0  0  0  0  0  0  0  0  0
   -5.5455    1.7183   -0.9427 C   0  0  0  0  0  0  0  0  0  0  0  0
   -4.9527    2.9513   -1.2087 C   0  0  0  0  0  0  0  0  0  0  0  0
   -3.5705    3.0934   -1.1124 C   0  0  0  0  0  0  0  0  0  0  0  0
   -2.7783    2.0019   -0.7493 C   0  0  0  0  0  0  0  0  0  0  0  0
   -1.1859   -0.1889   -0.0150 N   0  0  0  0  0  0  0  0  0  0  0  0
   -0.7066   -1.3944    0.3413 C   0  0  0  0  0  0  0  0  0  0  0  0
    3.8548    0.0876    0.4149 C   0  0  0  0  0  0  0  0  0  0  0  0
    3.6780    1.1798    1.2785 C   0  0  0  0  0  0  0  0  0  0  0  0
    4.4607    2.3239    1.1224 C   0  0  0  0  0  0  0  0  0  0  0  0
    5.4180    2.3790    0.1099 C   0  0  0  0  0  0  0  0  0  0  0  0
    5.5944    1.2909   -0.7490 C   0  0  0  0  0  0  0  0  0  0  0  0
    4.8146    0.1397   -0.5998 C   0  0  0  0  0  0  0  0  0  0  0  0
    5.0518   -1.1456   -1.7270 Cl  0  0  0  0  0  0  0  0  0  0  0  0
    1.3630    0.0441    0.1444 H   0  0  0  0  0  0  0  0  0  0  0  0
    1.7247   -3.5883    1.1445 H   0  0  0  0  0  0  0  0  0  0  0  0
   -0.1846   -5.0795    1.3469 H   0  0  0  0  0  0  0  0  0  0  0  0
   -2.5574   -4.3365    0.9240 H   0  0  0  0  0  0  0  0  0  0  0  0
   -3.9699   -1.9431    0.1649 H   0  0  0  0  0  0  0  0  0  0  0  0
   -5.2668   -0.3180   -0.3819 H   0  0  0  0  0  0  0  0  0  0  0  0
   -6.6250    1.6106   -1.0193 H   0  0  0  0  0  0  0  0  0  0  0  0
   -5.5681    3.8015   -1.4918 H   0  0  0  0  0  0  0  0  0  0  0  0
   -3.1062    4.0541   -1.3204 H   0  0  0  0  0  0  0  0  0  0  0  0
   -1.7010    2.1397   -0.6824 H   0  0  0  0  0  0  0  0  0  0  0  0
    2.9459    1.1336    2.0820 H   0  0  0  0  0  0  0  0  0  0  0  0
    4.3302    3.1692    1.7945 H   0  0  0  0  0  0  0  0  0  0  0  0
    6.0310    3.2696   -0.0111 H   0  0  0  0  0  0  0  0  0  0  0  0
    6.3423    1.3480   -1.5368 H   0  0  0  0  0  0  0  0  0  0  0  0
  1  2  2  0
  2  3  1  0
  3  4  1  0
  4  5  2  0
  5  6  1  0
  6  7  2  0
  7  8  1  0
  8  9  2  0
  9 10  1  0
 10 11  1  0
 11 12  2  0
 12 13  1  0
 13 14  2  0
 14 15  1  0
 15 16  2  0
 10 17  1  0
 17 18  2  0
  2 19  1  0
 19 20  2  0
 20 21  1  0
 21 22  2  0
 22 23  1  0
 23 24  2  0
 24 25  1  0
 18  4  1  0
 24 19  1  0
 18  8  1  0
 16 11  1  0
  3 26  1  0
  5 27  1  0
  6 28  1  0
  7 29  1  0
  9 30  1  0
 12 31  1  0
 13 32  1  0
 14 33  1  0
 15 34  1  0
 16 35  1  0
 20 36  1  0
 21 37  1  0
 22 38  1  0
 23 39  1  0
M  END
>  <_SMILES>  (49) 
O=C(Nc1cccc2cn(-c3ccccc3)nc12)c1ccccc1Cl

$$$$

     RDKit          3D

 41 43  0  0  0  0  0  0  0  0999 V2000
   -2.9778    0.3107    2.5826 C   0  0  0  0  0  0  0  0  0  0  0  0
   -3.6636    0.0545    1.2317 C   0  0  0  0  0  0  0  0  0  0  0  0
   -3.5679   -1.4343    0.8638 C   0  0  0  0  0  0  0  0  0  0  0  0
   -5.1507    0.4328    1.3581 C   0  0  0  0  0  0  0  0  0  0  0  0
   -3.0044    0.9167    0.1299 C   0  0  0  0  0  0  0  0  0  0  0  0
   -3.6466    1.7540   -0.4997 O   0  0  0  0  0  0  0  0  0  0  0  0
   -1.6641    0.6518   -0.0613 N   0  0  0  0  0  0  0  0  0  0  0  0
   -0.7926    1.2607   -0.9787 C   0  0  0  0  0  0  0  0  0  0  0  0
   -1.1041    2.2783   -1.9050 C   0  0  0  0  0  0  0  0  0  0  0  0
   -0.1424    2.8423   -2.8078 C   0  0  0  0  0  0  0  0  0  0  0  0
    1.2108    2.4489   -2.8729 C   0  0  0  0  0  0  0  0  0  0  0  0
    1.4777    1.4482   -1.9484 C   0  0  0  0  0  0  0  0  0  0  0  0
    2.6881    0.8471   -1.7536 C   0  0  0  0  0  0  0  0  0  0  0  0
    2.4914   -0.0774   -0.7474 N   0  0  0  0  0  0  0  0  0  0  0  0
    3.4554   -0.9619   -0.1802 C   0  0  0  0  0  0  0  0  0  0  0  0
    3.0677   -1.8401    0.8446 C   0  0  0  0  0  0  0  0  0  0  0  0
    3.9960   -2.7146    1.4139 C   0  0  0  0  0  0  0  0  0  0  0  0
    5.3151   -2.7201    0.9668 C   0  0  0  0  0  0  0  0  0  0  0  0
    5.7087   -1.8519   -0.0499 C   0  0  0  0  0  0  0  0  0  0  0  0
    4.7851   -0.9733   -0.6249 C   0  0  0  0  0  0  0  0  0  0  0  0
    1.2014   -0.0835   -0.2983 N   0  0  0  0  0  0  0  0  0  0  0  0
    0.5605    0.8494   -1.0256 C   0  0  0  0  0  0  0  0  0  0  0  0
   -3.4919   -0.2173    3.3937 H   0  0  0  0  0  0  0  0  0  0  0  0
   -1.9354   -0.0255    2.5849 H   0  0  0  0  0  0  0  0  0  0  0  0
   -2.9750    1.3799    2.8241 H   0  0  0  0  0  0  0  0  0  0  0  0
   -4.1134   -2.0555    1.5832 H   0  0  0  0  0  0  0  0  0  0  0  0
   -3.9895   -1.6201   -0.1307 H   0  0  0  0  0  0  0  0  0  0  0  0
   -2.5315   -1.7883    0.8485 H   0  0  0  0  0  0  0  0  0  0  0  0
   -5.6489   -0.1614    2.1324 H   0  0  0  0  0  0  0  0  0  0  0  0
   -5.2705    1.4903    1.6208 H   0  0  0  0  0  0  0  0  0  0  0  0
   -5.6845    0.2663    0.4152 H   0  0  0  0  0  0  0  0  0  0  0  0
   -1.2130   -0.0594    0.5060 H   0  0  0  0  0  0  0  0  0  0  0  0
   -2.1173    2.6732   -1.9581 H   0  0  0  0  0  0  0  0  0  0  0  0
   -0.4862    3.6258   -3.4853 H   0  0  0  0  0  0  0  0  0  0  0  0
    1.9232    2.8843   -3.5595 H   0  0  0  0  0  0  0  0  0  0  0  0
    3.6440    0.9937   -2.2305 H   0  0  0  0  0  0  0  0  0  0  0  0
    2.0437   -1.8562    1.2124 H   0  0  0  0  0  0  0  0  0  0  0  0
    3.6872   -3.3912    2.2068 H   0  0  0  0  0  0  0  0  0  0  0  0
    6.0366   -3.4013    1.4108 H   0  0  0  0  0  0  0  0  0  0  0  0
    6.7395   -1.8587   -0.3967 H   0  0  0  0  0  0  0  0  0  0  0  0
    5.1394   -0.3169   -1.4131 H   0  0  0  0  0  0  0  0  0  0  0  0
  1  2  1  0
  2  3  1  0
  2  4  1  0
  2  5  1  0
  5  6  2  0
  5  7  1  0
  7  8  1  0
  8  9  2  0
  9 10  1  0
 10 11  2  0
 11 12  1  0
 12 13  2  0
 13 14  1  0
 14 15  1  0
 15 16  2  0
 16 17  1  0
 17 18  2  0
 18 19  1  0
 19 20  2  0
 14 21  1  0
 21 22  2  0
 22  8  1  0
 22 12  1  0
 20 15  1  0
  1 23  1  0
  1 24  1  0
  1 25  1  0
  3 26  1  0
  3 27  1  0
  3 28  1  0
  4 29  1  0
  4 30  1  0
  4 31  1  0
  7 32  1  0
  9 33  1  0
 10 34  1  0
 11 35  1  0
 13 36  1  0
 16 37  1  0
 17 38  1  0
 18 39  1  0
 19 40  1  0
 20 41  1  0
M  END
>  <_SMILES>  (50) 
CC(C)(C)C(=O)Nc1cccc2cn(-c3ccccc3)nc12

$$$$

     RDKit          3D

 59 62  0  0  0  0  0  0  0  0999 V2000
    5.7865   -0.8227   -2.7631 C   0  0  0  0  0  0  0  0  0  0  0  0
    4.8995    0.4143   -2.7505 C   0  0  0  0  0  0  0  0  0  0  0  0
    5.0580    1.2559   -1.4800 C   0  0  0  0  0  0  0  0  0  0  0  0
    4.5861    0.5470   -0.2749 N   0  0  0  0  0  0  0  0  0  0  0  0
    5.6434    0.0306    0.6126 C   0  0  0  0  0  0  0  0  0  0  0  0
    5.8451    0.9052    1.8545 C   0  0  0  0  0  0  0  0  0  0  0  0
    6.3731    2.2957    1.5328 C   0  0  0  0  0  0  0  0  0  0  0  0
    3.2274    0.4110    0.0177 C   0  0  0  0  0  0  0  0  0  0  0  0
    2.7889   -0.3859    1.0906 C   0  0  0  0  0  0  0  0  0  0  0  0
    1.4333   -0.5429    1.4070 C   0  0  0  0  0  0  0  0  0  0  0  0
    1.1266   -1.3258    2.4542 F   0  0  0  0  0  0  0  0  0  0  0  0
    0.4356    0.0848    0.6728 C   0  0  0  0  0  0  0  0  0  0  0  0
   -1.0065   -0.0543    1.0033 C   0  0  0  0  0  0  0  0  0  0  0  0
   -1.7580    0.8612    0.6970 O   0  0  0  0  0  0  0  0  0  0  0  0
   -1.3557   -1.1912    1.7123 N   0  0  0  0  0  0  0  0  0  0  0  0
   -2.6631   -1.6313    1.9962 C   0  0  0  0  0  0  0  0  0  0  0  0
   -2.8551   -2.5458    3.0658 C   0  0  0  0  0  0  0  0  0  0  0  0
   -4.1293   -3.0674    3.4549 C   0  0  0  0  0  0  0  0  0  0  0  0
   -5.3358   -2.7463    2.8068 C   0  0  0  0  0  0  0  0  0  0  0  0
   -5.1152   -1.8830    1.7416 C   0  0  0  0  0  0  0  0  0  0  0  0
   -6.0884   -1.4202    0.9016 C   0  0  0  0  0  0  0  0  0  0  0  0
   -5.4357   -0.6195   -0.0108 N   0  0  0  0  0  0  0  0  0  0  0  0
   -6.0074    0.1261   -1.0826 C   0  0  0  0  0  0  0  0  0  0  0  0
   -5.1730    0.9144   -1.8916 C   0  0  0  0  0  0  0  0  0  0  0  0
   -5.7089    1.6553   -2.9469 C   0  0  0  0  0  0  0  0  0  0  0  0
   -7.0776    1.6162   -3.2027 C   0  0  0  0  0  0  0  0  0  0  0  0
   -7.9135    0.8382   -2.4027 C   0  0  0  0  0  0  0  0  0  0  0  0
   -7.3846    0.0941   -1.3432 C   0  0  0  0  0  0  0  0  0  0  0  0
   -4.0951   -0.6125    0.1876 N   0  0  0  0  0  0  0  0  0  0  0  0
   -3.8611   -1.3238    1.3006 C   0  0  0  0  0  0  0  0  0  0  0  0
    0.8334    0.8758   -0.3977 C   0  0  0  0  0  0  0  0  0  0  0  0
   -0.0669    1.4907   -1.1803 F   0  0  0  0  0  0  0  0  0  0  0  0
    2.1896    1.0326   -0.7152 C   0  0  0  0  0  0  0  0  0  0  0  0
    2.4638    1.8145   -1.7720 F   0  0  0  0  0  0  0  0  0  0  0  0
    5.6909   -1.3440   -3.7210 H   0  0  0  0  0  0  0  0  0  0  0  0
    5.5037   -1.5243   -1.9725 H   0  0  0  0  0  0  0  0  0  0  0  0
    6.8389   -0.5537   -2.6283 H   0  0  0  0  0  0  0  0  0  0  0  0
    3.8594    0.1033   -2.8926 H   0  0  0  0  0  0  0  0  0  0  0  0
    5.1635    1.0380   -3.6128 H   0  0  0  0  0  0  0  0  0  0  0  0
    6.1190    1.5175   -1.3727 H   0  0  0  0  0  0  0  0  0  0  0  0
    4.5609    2.2260   -1.5830 H   0  0  0  0  0  0  0  0  0  0  0  0
    6.5964   -0.0352    0.0717 H   0  0  0  0  0  0  0  0  0  0  0  0
    5.4305   -1.0039    0.9055 H   0  0  0  0  0  0  0  0  0  0  0  0
    4.9142    1.0023    2.4230 H   0  0  0  0  0  0  0  0  0  0  0  0
    6.5656    0.4062    2.5136 H   0  0  0  0  0  0  0  0  0  0  0  0
    7.3057    2.2404    0.9626 H   0  0  0  0  0  0  0  0  0  0  0  0
    6.5748    2.8443    2.4584 H   0  0  0  0  0  0  0  0  0  0  0  0
    5.6463    2.8746    0.9550 H   0  0  0  0  0  0  0  0  0  0  0  0
    3.4880   -0.9209    1.7249 H   0  0  0  0  0  0  0  0  0  0  0  0
   -0.6113   -1.6961    2.1778 H   0  0  0  0  0  0  0  0  0  0  0  0
   -1.9917   -2.8628    3.6509 H   0  0  0  0  0  0  0  0  0  0  0  0
   -4.1650   -3.7510    4.3041 H   0  0  0  0  0  0  0  0  0  0  0  0
   -6.2952   -3.1454    3.1053 H   0  0  0  0  0  0  0  0  0  0  0  0
   -7.1538   -1.5819    0.8776 H   0  0  0  0  0  0  0  0  0  0  0  0
   -4.1002    0.9681   -1.7039 H   0  0  0  0  0  0  0  0  0  0  0  0
   -5.0533    2.2646   -3.5639 H   0  0  0  0  0  0  0  0  0  0  0  0
   -7.4925    2.1947   -4.0238 H   0  0  0  0  0  0  0  0  0  0  0  0
   -8.9816    0.8119   -2.6040 H   0  0  0  0  0  0  0  0  0  0  0  0
   -8.0728   -0.4961   -0.7476 H   0  0  0  0  0  0  0  0  0  0  0  0
  1  2  1  0
  2  3  1  0
  3  4  1  0
  4  5  1  0
  5  6  1  0
  6  7  1  0
  4  8  1  0
  8  9  1  0
  9 10  2  0
 10 11  1  0
 10 12  1  0
 12 13  1  0
 13 14  2  0
 13 15  1  0
 15 16  1  0
 16 17  2  0
 17 18  1  0
 18 19  2  0
 19 20  1  0
 20 21  2  0
 21 22  1  0
 22 23  1  0
 23 24  2  0
 24 25  1  0
 25 26  2  0
 26 27  1  0
 27 28  2  0
 22 29  1  0
 29 30  2  0
 12 31  2  0
 31 32  1  0
 31 33  1  0
 33 34  1  0
 33  8  2  0
 30 16  1  0
 30 20  1  0
 28 23  1  0
  1 35  1  0
  1 36  1  0
  1 37  1  0
  2 38  1  0
  2 39  1  0
  3 40  1  0
  3 41  1  0
  5 42  1  0
  5 43  1  0
  6 44  1  0
  6 45  1  0
  7 46  1  0
  7 47  1  0
  7 48  1  0
  9 49  1  0
 15 50  1  0
 17 51  1  0
 18 52  1  0
 19 53  1  0
 21 54  1  0
 24 55  1  0
 25 56  1  0
 26 57  1  0
 27 58  1  0
 28 59  1  0
M  END
>  <_SMILES>  (51) 
CCCN(CCC)c1cc(F)c(C(=O)Nc2cccc3cn(-c4ccccc4)nc23)c(F)c1F

$$$$

     RDKit          3D

 48 52  0  0  0  0  0  0  0  0999 V2000
    1.5100    0.0618    3.4352 O   0  0  0  0  0  0  0  0  0  0  0  0
    1.1862    0.0370    2.2554 C   0  0  0  0  0  0  0  0  0  0  0  0
   -0.0870   -0.0236    1.7380 N   0  0  0  0  0  0  0  0  0  0  0  0
   -1.2889   -0.0921    2.4617 C   0  0  0  0  0  0  0  0  0  0  0  0
   -1.4340   -0.1273    3.8646 C   0  0  0  0  0  0  0  0  0  0  0  0
   -2.7071   -0.1995    4.5215 C   0  0  0  0  0  0  0  0  0  0  0  0
   -3.9461   -0.2441    3.8481 C   0  0  0  0  0  0  0  0  0  0  0  0
   -3.7611   -0.2094    2.4725 C   0  0  0  0  0  0  0  0  0  0  0  0
   -4.7531   -0.2385    1.5348 C   0  0  0  0  0  0  0  0  0  0  0  0
   -4.1160   -0.1846    0.3111 N   0  0  0  0  0  0  0  0  0  0  0  0
   -4.7174   -0.1861   -0.9818 C   0  0  0  0  0  0  0  0  0  0  0  0
   -6.1093   -0.2511   -1.1384 C   0  0  0  0  0  0  0  0  0  0  0  0
   -6.6710   -0.2509   -2.4191 C   0  0  0  0  0  0  0  0  0  0  0  0
   -5.8535   -0.1858   -3.5459 C   0  0  0  0  0  0  0  0  0  0  0  0
   -4.4701   -0.1206   -3.3984 C   0  0  0  0  0  0  0  0  0  0  0  0
   -3.9015   -0.1206   -2.1227 C   0  0  0  0  0  0  0  0  0  0  0  0
   -2.7571   -0.1269    0.4399 N   0  0  0  0  0  0  0  0  0  0  0  0
   -2.5187   -0.1375    1.7638 C   0  0  0  0  0  0  0  0  0  0  0  0
    2.2573    0.0806    1.2467 C   0  0  0  0  0  0  0  0  0  0  0  0
    2.2969    1.1537    0.3616 C   0  0  0  0  0  0  0  0  0  0  0  0
    1.3476    2.1007    0.3971 F   0  0  0  0  0  0  0  0  0  0  0  0
    3.3218    1.2610   -0.5749 C   0  0  0  0  0  0  0  0  0  0  0  0
    3.3088    2.3098   -1.4129 F   0  0  0  0  0  0  0  0  0  0  0  0
    4.3449    0.3051   -0.6539 C   0  0  0  0  0  0  0  0  0  0  0  0
    5.3754    0.4047   -1.6184 N   0  0  0  0  0  0  0  0  0  0  0  0
    5.8572    1.5995   -2.2556 C   0  0  0  0  0  0  0  0  0  0  0  0
    7.0745    0.7778   -2.6891 C   0  0  0  0  0  0  0  0  0  0  0  0
    6.6909   -0.1700   -1.5491 C   0  0  0  0  0  0  0  0  0  0  0  0
    4.2785   -0.7770    0.2431 C   0  0  0  0  0  0  0  0  0  0  0  0
    5.2209   -1.7342    0.1862 F   0  0  0  0  0  0  0  0  0  0  0  0
    3.2523   -0.8966    1.1906 C   0  0  0  0  0  0  0  0  0  0  0  0
    3.2355   -2.2906    2.2133 Cl  0  0  0  0  0  0  0  0  0  0  0  0
   -0.2281   -0.0027    0.7309 H   0  0  0  0  0  0  0  0  0  0  0  0
   -0.5520   -0.1000    4.5026 H   0  0  0  0  0  0  0  0  0  0  0  0
   -2.7108   -0.2215    5.6127 H   0  0  0  0  0  0  0  0  0  0  0  0
   -4.8974   -0.2985    4.3586 H   0  0  0  0  0  0  0  0  0  0  0  0
   -5.8258   -0.2901    1.6305 H   0  0  0  0  0  0  0  0  0  0  0  0
   -6.7869   -0.3032   -0.2925 H   0  0  0  0  0  0  0  0  0  0  0  0
   -7.7509   -0.3014   -2.5377 H   0  0  0  0  0  0  0  0  0  0  0  0
   -6.2947   -0.1855   -4.5394 H   0  0  0  0  0  0  0  0  0  0  0  0
   -3.8309   -0.0690   -4.2762 H   0  0  0  0  0  0  0  0  0  0  0  0
   -2.8181   -0.0678   -2.0357 H   0  0  0  0  0  0  0  0  0  0  0  0
    6.0709    2.4037   -1.5441 H   0  0  0  0  0  0  0  0  0  0  0  0
    5.2168    1.9533   -3.0666 H   0  0  0  0  0  0  0  0  0  0  0  0
    8.0432    1.2737   -2.5900 H   0  0  0  0  0  0  0  0  0  0  0  0
    6.9888    0.3381   -3.6891 H   0  0  0  0  0  0  0  0  0  0  0  0
    6.7189   -1.2339   -1.7944 H   0  0  0  0  0  0  0  0  0  0  0  0
    7.1906    0.0269   -0.5950 H   0  0  0  0  0  0  0  0  0  0  0  0
  1  2  2  0
  2  3  1  0
  3  4  1  0
  4  5  2  0
  5  6  1  0
  6  7  2  0
  7  8  1  0
  8  9  2  0
  9 10  1  0
 10 11  1  0
 11 12  2  0
 12 13  1  0
 13 14  2  0
 14 15  1  0
 15 16  2  0
 10 17  1  0
 17 18  2  0
  2 19  1  0
 19 20  1  0
 20 21  1  0
 20 22  2  0
 22 23  1  0
 22 24  1  0
 24 25  1  0
 25 26  1  0
 26 27  1  0
 27 28  1  0
 24 29  2  0
 29 30  1  0
 29 31  1  0
 31 32  1  0
 18  4  1  0
 31 19  2  0
 18  8  1  0
 28 25  1  0
 16 11  1  0
  3 33  1  0
  5 34  1  0
  6 35  1  0
  7 36  1  0
  9 37  1  0
 12 38  1  0
 13 39  1  0
 14 40  1  0
 15 41  1  0
 16 42  1  0
 26 43  1  0
 26 44  1  0
 27 45  1  0
 27 46  1  0
 28 47  1  0
 28 48  1  0
M  END
>  <_SMILES>  (52) 
O=C(Nc1cccc2cn(-c3ccccc3)nc12)c1c(F)c(F)c(N2CCC2)c(F)c1Cl

$$$$

     RDKit          3D

 39 42  0  0  0  0  0  0  0  0999 V2000
    1.0724   -2.1554   -0.5638 O   0  0  0  0  0  0  0  0  0  0  0  0
    1.5708   -1.0648   -0.2919 C   0  0  0  0  0  0  0  0  0  0  0  0
    0.7778    0.0283    0.0372 N   0  0  0  0  0  0  0  0  0  0  0  0
   -0.6871    0.0281    0.1011 C   0  0  2  0  0  0  0  0  0  0  0  0
   -1.3232   -0.3078   -1.2709 C   0  0  0  0  0  0  0  0  0  0  0  0
   -2.8587   -0.2462   -1.1854 C   0  0  1  0  0  0  0  0  0  0  0  0
   -3.3476   -1.2497   -0.1269 C   0  0  0  0  0  0  0  0  0  0  0  0
   -2.7524   -0.9017    1.2482 C   0  0  2  0  0  0  0  0  0  0  0  0
   -3.1831    0.5198    1.6420 C   0  0  0  0  0  0  0  0  0  0  0  0
   -2.6889    1.5270    0.5922 C   0  0  2  0  0  0  0  0  0  0  0  0
   -3.2887    1.1713   -0.7770 C   0  0  0  0  0  0  0  0  0  0  0  0
   -1.1563    1.4529    0.5053 C   0  0  0  0  0  0  0  0  0  0  0  0
   -1.2168   -0.9641    1.1662 C   0  0  0  0  0  0  0  0  0  0  0  0
    3.0221   -0.8232   -0.2902 C   0  0  0  0  0  0  0  0  0  0  0  0
    3.9067   -1.7591   -0.5808 N   0  0  0  0  0  0  0  0  0  0  0  0
    5.1860   -1.2490   -0.4993 C   0  0  0  0  0  0  0  0  0  0  0  0
    5.2763    0.0792   -0.1455 C   0  0  0  0  0  0  0  0  0  0  0  0
    6.4848    0.9157    0.0270 C   0  0  0  0  0  0  0  0  0  0  0  0
    6.4947    1.9778   -0.8181 F   0  0  0  0  0  0  0  0  0  0  0  0
    7.6253    0.2178   -0.2108 F   0  0  0  0  0  0  0  0  0  0  0  0
    6.5866    1.4110    1.2866 F   0  0  0  0  0  0  0  0  0  0  0  0
    3.7008    0.7133    0.0940 S   0  0  0  0  0  0  0  0  0  0  0  0
    1.2575    0.8937    0.2493 H   0  0  0  0  0  0  0  0  0  0  0  0
   -1.0264   -1.3075   -1.6082 H   0  0  0  0  0  0  0  0  0  0  0  0
   -0.9630    0.3931   -2.0354 H   0  0  0  0  0  0  0  0  0  0  0  0
   -3.2923   -0.4967   -2.1601 H   0  0  0  0  0  0  0  0  0  0  0  0
   -3.0580   -2.2681   -0.4138 H   0  0  0  0  0  0  0  0  0  0  0  0
   -4.4432   -1.2333   -0.0747 H   0  0  0  0  0  0  0  0  0  0  0  0
   -3.1108   -1.6165    1.9975 H   0  0  0  0  0  0  0  0  0  0  0  0
   -4.2757    0.5710    1.7255 H   0  0  0  0  0  0  0  0  0  0  0  0
   -2.7761    0.7754    2.6280 H   0  0  0  0  0  0  0  0  0  0  0  0
   -2.9950    2.5394    0.8782 H   0  0  0  0  0  0  0  0  0  0  0  0
   -2.9577    1.8956   -1.5313 H   0  0  0  0  0  0  0  0  0  0  0  0
   -4.3831    1.2336   -0.7344 H   0  0  0  0  0  0  0  0  0  0  0  0
   -0.7914    2.1906   -0.2221 H   0  0  0  0  0  0  0  0  0  0  0  0
   -0.7174    1.7343    1.4721 H   0  0  0  0  0  0  0  0  0  0  0  0
   -0.9155   -1.9915    0.9314 H   0  0  0  0  0  0  0  0  0  0  0  0
   -0.7804   -0.7333    2.1469 H   0  0  0  0  0  0  0  0  0  0  0  0
    6.0269   -1.9011   -0.7116 H   0  0  0  0  0  0  0  0  0  0  0  0
  1  2  2  0
  2  3  1  0
  4  3  1  6
  4  5  1  0
  5  6  1  0
  6  7  1  0
  7  8  1  0
  8  9  1  0
  9 10  1  0
 10 11  1  0
 10 12  1  0
  8 13  1  0
  2 14  1  0
 14 15  2  0
 15 16  1  0
 16 17  2  0
 17 18  1  0
 18 19  1  0
 18 20  1  0
 18 21  1  0
 17 22  1  0
 12  4  1  0
 22 14  1  0
 13  4  1  0
 11  6  1  0
  3 23  1  0
  5 24  1  0
  5 25  1  0
  6 26  1  6
  7 27  1  0
  7 28  1  0
  8 29  1  1
  9 30  1  0
  9 31  1  0
 10 32  1  1
 11 33  1  0
 11 34  1  0
 12 35  1  0
 12 36  1  0
 13 37  1  0
 13 38  1  0
 16 39  1  0
M  END
>  <_SMILES>  (53) 
O=C(N[C@]12C[C@H]3C[C@H](C[C@H](C3)C1)C2)c1ncc(C(F)(F)F)s1

$$$$

     RDKit          3D

 49 53  0  0  0  0  0  0  0  0999 V2000
   -0.6043   -1.4209   -1.7218 O   0  0  0  0  0  0  0  0  0  0  0  0
   -0.2303   -0.9419   -0.6540 C   0  0  0  0  0  0  0  0  0  0  0  0
   -1.0793   -0.2559    0.1977 N   0  0  0  0  0  0  0  0  0  0  0  0
   -2.4986    0.0096   -0.0275 C   0  0  2  0  0  0  0  0  0  0  0  0
   -3.0471    0.8072    1.1862 C   0  0  0  0  0  0  0  0  0  0  0  0
   -4.5415    1.1204    1.0109 C   0  0  1  0  0  0  0  0  0  0  0  0
   -4.7355    1.9527   -0.2663 C   0  0  0  0  0  0  0  0  0  0  0  0
   -4.2224    1.1702   -1.4854 C   0  0  2  0  0  0  0  0  0  0  0  0
   -4.9999   -0.1519   -1.6035 C   0  0  0  0  0  0  0  0  0  0  0  0
   -4.8113   -0.9928   -0.3294 C   0  0  2  0  0  0  0  0  0  0  0  0
   -5.3210   -0.1977    0.8829 C   0  0  0  0  0  0  0  0  0  0  0  0
   -3.3151   -1.3015   -0.1431 C   0  0  0  0  0  0  0  0  0  0  0  0
   -2.7259    0.8629   -1.2998 C   0  0  0  0  0  0  0  0  0  0  0  0
    1.1360   -1.0239   -0.1380 C   0  0  0  0  0  0  0  0  0  0  0  0
    1.4940   -0.4979    1.0219 N   0  0  0  0  0  0  0  0  0  0  0  0
    2.8407   -0.7307    1.2271 C   0  0  0  0  0  0  0  0  0  0  0  0
    3.4910   -1.4351    0.2319 C   0  0  0  0  0  0  0  0  0  0  0  0
    4.9239   -1.8596    0.1506 C   0  0  0  0  0  0  0  0  0  0  0  0
    5.8808   -0.6899    0.1006 C   0  0  0  0  0  0  0  0  0  0  0  0
    6.6146   -0.3169    1.2361 C   0  0  0  0  0  0  0  0  0  0  0  0
    7.4875    0.7714    1.1880 C   0  0  0  0  0  0  0  0  0  0  0  0
    7.6337    1.4983    0.0081 C   0  0  0  0  0  0  0  0  0  0  0  0
    6.9073    1.1391   -1.1255 C   0  0  0  0  0  0  0  0  0  0  0  0
    6.0343    0.0512   -1.0806 C   0  0  0  0  0  0  0  0  0  0  0  0
    2.3740   -1.8184   -1.0140 S   0  0  0  0  0  0  0  0  0  0  0  0
   -0.6355    0.0947    1.0435 H   0  0  0  0  0  0  0  0  0  0  0  0
   -2.4851    1.7430    1.3078 H   0  0  0  0  0  0  0  0  0  0  0  0
   -2.8950    0.2368    2.1124 H   0  0  0  0  0  0  0  0  0  0  0  0
   -4.9061    1.6829    1.8776 H   0  0  0  0  0  0  0  0  0  0  0  0
   -5.7969    2.1968   -0.3970 H   0  0  0  0  0  0  0  0  0  0  0  0
   -4.1982    2.9050   -0.1787 H   0  0  0  0  0  0  0  0  0  0  0  0
   -4.3666    1.7661   -2.3936 H   0  0  0  0  0  0  0  0  0  0  0  0
   -4.6520   -0.7143   -2.4787 H   0  0  0  0  0  0  0  0  0  0  0  0
   -6.0657    0.0543   -1.7608 H   0  0  0  0  0  0  0  0  0  0  0  0
   -5.3727   -1.9296   -0.4186 H   0  0  0  0  0  0  0  0  0  0  0  0
   -5.2049   -0.7925    1.7972 H   0  0  0  0  0  0  0  0  0  0  0  0
   -6.3924    0.0096    0.7718 H   0  0  0  0  0  0  0  0  0  0  0  0
   -3.1696   -1.9172    0.7542 H   0  0  0  0  0  0  0  0  0  0  0  0
   -2.9681   -1.9063   -0.9891 H   0  0  0  0  0  0  0  0  0  0  0  0
   -2.1577    1.8000   -1.2323 H   0  0  0  0  0  0  0  0  0  0  0  0
   -2.3551    0.3436   -2.1914 H   0  0  0  0  0  0  0  0  0  0  0  0
    3.3083   -0.3583    2.1314 H   0  0  0  0  0  0  0  0  0  0  0  0
    5.1048   -2.4954   -0.7258 H   0  0  0  0  0  0  0  0  0  0  0  0
    5.1540   -2.4900    1.0195 H   0  0  0  0  0  0  0  0  0  0  0  0
    6.5128   -0.8710    2.1664 H   0  0  0  0  0  0  0  0  0  0  0  0
    8.0537    1.0534    2.0720 H   0  0  0  0  0  0  0  0  0  0  0  0
    8.3128    2.3461   -0.0280 H   0  0  0  0  0  0  0  0  0  0  0  0
    7.0188    1.7076   -2.0452 H   0  0  0  0  0  0  0  0  0  0  0  0
    5.4708   -0.2137   -1.9730 H   0  0  0  0  0  0  0  0  0  0  0  0
  1  2  2  0
  2  3  1  0
  4  3  1  1
  4  5  1  0
  5  6  1  0
  6  7  1  0
  7  8  1  0
  8  9  1  0
  9 10  1  0
 10 11  1  0
 10 12  1  0
  8 13  1  0
  2 14  1  0
 14 15  2  0
 15 16  1  0
 16 17  2  0
 17 18  1  0
 18 19  1  0
 19 20  2  0
 20 21  1  0
 21 22  2  0
 22 23  1  0
 23 24  2  0
 17 25  1  0
 12  4  1  0
 25 14  1  0
 13  4  1  0
 24 19  1  0
 11  6  1  0
  3 26  1  0
  5 27  1  0
  5 28  1  0
  6 29  1  1
  7 30  1  0
  7 31  1  0
  8 32  1  6
  9 33  1  0
  9 34  1  0
 10 35  1  6
 11 36  1  0
 11 37  1  0
 12 38  1  0
 12 39  1  0
 13 40  1  0
 13 41  1  0
 16 42  1  0
 18 43  1  0
 18 44  1  0
 20 45  1  0
 21 46  1  0
 22 47  1  0
 23 48  1  0
 24 49  1  0
M  END
>  <_SMILES>  (54) 
O=C(N[C@]12C[C@H]3C[C@H](C[C@H](C3)C1)C2)c1ncc(Cc2ccccc2)s1

$$$$

     RDKit          3D

 36 39  0  0  0  0  0  0  0  0999 V2000
    1.8115   -1.8730    0.8446 O   0  0  0  0  0  0  0  0  0  0  0  0
    2.2001   -0.9024    0.2001 C   0  0  0  0  0  0  0  0  0  0  0  0
    1.3389    0.0561   -0.3055 N   0  0  0  0  0  0  0  0  0  0  0  0
   -0.1159    0.0700   -0.1612 C   0  0  2  0  0  0  0  0  0  0  0  0
   -0.6687    1.3272   -0.8851 C   0  0  0  0  0  0  0  0  0  0  0  0
   -2.1996    1.4017   -0.7703 C   0  0  1  0  0  0  0  0  0  0  0  0
   -2.8142    0.1452   -1.4065 C   0  0  0  0  0  0  0  0  0  0  0  0
   -2.3001   -1.1119   -0.6873 C   0  0  2  0  0  0  0  0  0  0  0  0
   -2.6871   -1.0398    0.7997 C   0  0  0  0  0  0  0  0  0  0  0  0
   -2.0757    0.2151    1.4459 C   0  0  2  0  0  0  0  0  0  0  0  0
   -2.5911    1.4643    0.7143 C   0  0  0  0  0  0  0  0  0  0  0  0
   -0.5427    0.1510    1.3255 C   0  0  0  0  0  0  0  0  0  0  0  0
   -0.7673   -1.1769   -0.8091 C   0  0  0  0  0  0  0  0  0  0  0  0
    3.6001   -0.6253   -0.1195 C   0  0  0  0  0  0  0  0  0  0  0  0
    3.9793    0.4351   -0.8189 N   0  0  0  0  0  0  0  0  0  0  0  0
    5.3579    0.4154   -0.9516 C   0  0  0  0  0  0  0  0  0  0  0  0
    5.9817   -0.6516   -0.3536 C   0  0  0  0  0  0  0  0  0  0  0  0
    7.8618   -0.9513   -0.3650 Br  0  0  0  0  0  0  0  0  0  0  0  0
    4.8564   -1.6732    0.4001 S   0  0  0  0  0  0  0  0  0  0  0  0
    1.7925    0.8070   -0.8203 H   0  0  0  0  0  0  0  0  0  0  0  0
   -0.2214    2.2353   -0.4588 H   0  0  0  0  0  0  0  0  0  0  0  0
   -0.3776    1.3114   -1.9440 H   0  0  0  0  0  0  0  0  0  0  0  0
   -2.5666    2.2952   -1.2875 H   0  0  0  0  0  0  0  0  0  0  0  0
   -3.9085    0.1910   -1.3452 H   0  0  0  0  0  0  0  0  0  0  0  0
   -2.5566    0.0995   -2.4717 H   0  0  0  0  0  0  0  0  0  0  0  0
   -2.7442   -2.0046   -1.1419 H   0  0  0  0  0  0  0  0  0  0  0  0
   -3.7792   -1.0178    0.9009 H   0  0  0  0  0  0  0  0  0  0  0  0
   -2.3373   -1.9387    1.3220 H   0  0  0  0  0  0  0  0  0  0  0  0
   -2.3608    0.2626    2.5028 H   0  0  0  0  0  0  0  0  0  0  0  0
   -2.1730    2.3678    1.1748 H   0  0  0  0  0  0  0  0  0  0  0  0
   -3.6816    1.5328    0.8118 H   0  0  0  0  0  0  0  0  0  0  0  0
   -0.1771   -0.7173    1.8863 H   0  0  0  0  0  0  0  0  0  0  0  0
   -0.0935    1.0335    1.7996 H   0  0  0  0  0  0  0  0  0  0  0  0
   -0.4792   -1.2468   -1.8663 H   0  0  0  0  0  0  0  0  0  0  0  0
   -0.4106   -2.0977   -0.3329 H   0  0  0  0  0  0  0  0  0  0  0  0
    5.8496    1.2111   -1.4982 H   0  0  0  0  0  0  0  0  0  0  0  0
  1  2  2  0
  2  3  1  0
  4  3  1  1
  4  5  1  0
  5  6  1  0
  6  7  1  0
  7  8  1  0
  8  9  1  0
  9 10  1  0
 10 11  1  0
 10 12  1  0
  8 13  1  0
  2 14  1  0
 14 15  2  0
 15 16  1  0
 16 17  2  0
 17 18  1  0
 17 19  1  0
 12  4  1  0
 19 14  1  0
 13  4  1  0
 11  6  1  0
  3 20  1  0
  5 21  1  0
  5 22  1  0
  6 23  1  6
  7 24  1  0
  7 25  1  0
  8 26  1  6
  9 27  1  0
  9 28  1  0
 10 29  1  1
 11 30  1  0
 11 31  1  0
 12 32  1  0
 12 33  1  0
 13 34  1  0
 13 35  1  0
 16 36  1  0
M  END
>  <_SMILES>  (55) 
O=C(N[C@]12C[C@H]3C[C@H](C[C@H](C3)C1)C2)c1ncc(Br)s1

$$$$

     RDKit          3D

 34 37  0  0  0  0  0  0  0  0999 V2000
    4.2781   -0.1729    0.6659 C   0  0  0  0  0  0  0  0  0  0  0  0
    5.0511    0.4124   -0.3099 C   0  0  0  0  0  0  0  0  0  0  0  0
    4.0487    0.9350   -1.5942 S   0  0  0  0  0  0  0  0  0  0  0  0
    2.6600    0.3388   -0.7544 C   0  0  0  0  0  0  0  0  0  0  0  0
    1.4398    0.4735   -1.3234 N   0  0  0  0  0  0  0  0  0  0  0  0
    0.1867    0.2926   -0.5929 C   0  0  2  0  0  0  0  0  0  0  0  0
    0.0067   -1.1614   -0.0947 C   0  0  0  0  0  0  0  0  0  0  0  0
   -1.3545   -1.3243    0.6063 C   0  0  1  0  0  0  0  0  0  0  0  0
   -1.4343   -0.3454    1.7909 C   0  0  0  0  0  0  0  0  0  0  0  0
   -1.2976    1.1043    1.2932 C   0  0  2  0  0  0  0  0  0  0  0  0
   -2.4240    1.4039    0.2915 C   0  0  0  0  0  0  0  0  0  0  0  0
   -2.3402    0.4344   -0.8978 C   0  0  2  0  0  0  0  0  0  0  0  0
   -2.4808   -1.0084   -0.3897 C   0  0  0  0  0  0  0  0  0  0  0  0
   -0.9742    0.5957   -1.5836 C   0  0  0  0  0  0  0  0  0  0  0  0
    0.0637    1.2755    0.5949 C   0  0  0  0  0  0  0  0  0  0  0  0
    2.9232   -0.2086    0.4091 N   0  0  0  0  0  0  0  0  0  0  0  0
    4.6516   -0.5931    1.5914 H   0  0  0  0  0  0  0  0  0  0  0  0
    6.1217    0.5524   -0.3292 H   0  0  0  0  0  0  0  0  0  0  0  0
    1.3963    1.1172   -2.1056 H   0  0  0  0  0  0  0  0  0  0  0  0
    0.7958   -1.4429    0.6110 H   0  0  0  0  0  0  0  0  0  0  0  0
    0.0816   -1.8634   -0.9355 H   0  0  0  0  0  0  0  0  0  0  0  0
   -1.4611   -2.3528    0.9691 H   0  0  0  0  0  0  0  0  0  0  0  0
   -0.6419   -0.5689    2.5158 H   0  0  0  0  0  0  0  0  0  0  0  0
   -2.3897   -0.4712    2.3150 H   0  0  0  0  0  0  0  0  0  0  0  0
   -1.3655    1.7943    2.1417 H   0  0  0  0  0  0  0  0  0  0  0  0
   -3.3993    1.3090    0.7846 H   0  0  0  0  0  0  0  0  0  0  0  0
   -2.3456    2.4393   -0.0621 H   0  0  0  0  0  0  0  0  0  0  0  0
   -3.1416    0.6548   -1.6118 H   0  0  0  0  0  0  0  0  0  0  0  0
   -3.4568   -1.1430    0.0925 H   0  0  0  0  0  0  0  0  0  0  0  0
   -2.4431   -1.7088   -1.2330 H   0  0  0  0  0  0  0  0  0  0  0  0
   -0.9141   -0.0735   -2.4525 H   0  0  0  0  0  0  0  0  0  0  0  0
   -0.8801    1.6170   -1.9770 H   0  0  0  0  0  0  0  0  0  0  0  0
    0.8615    1.1089    1.3284 H   0  0  0  0  0  0  0  0  0  0  0  0
    0.1777    2.3103    0.2461 H   0  0  0  0  0  0  0  0  0  0  0  0
  1  2  2  0
  2  3  1  0
  3  4  1  0
  4  5  1  0
  6  5  1  6
  6  7  1  0
  7  8  1  0
  8  9  1  0
  9 10  1  0
 10 11  1  0
 11 12  1  0
 12 13  1  0
 12 14  1  0
 10 15  1  0
  4 16  2  0
 16  1  1  0
 14  6  1  0
 15  6  1  0
 13  8  1  0
  1 17  1  0
  2 18  1  0
  5 19  1  0
  7 20  1  0
  7 21  1  0
  8 22  1  1
  9 23  1  0
  9 24  1  0
 10 25  1  1
 11 26  1  0
 11 27  1  0
 12 28  1  6
 13 29  1  0
 13 30  1  0
 14 31  1  0
 14 32  1  0
 15 33  1  0
 15 34  1  0
M  END
>  <_SMILES>  (56) 
c1csc(N[C@]23C[C@H]4C[C@H](C[C@H](C4)C2)C3)n1

$$$$

     RDKit          3D

 34 37  0  0  0  0  0  0  0  0999 V2000
    4.3684    0.4821   -0.5479 C   0  0  0  0  0  0  0  0  0  0  0  0
    4.9500    1.0944    0.4915 C   0  0  0  0  0  0  0  0  0  0  0  0
    3.7653    1.5115    1.7130 S   0  0  0  0  0  0  0  0  0  0  0  0
    2.4424    0.8040    0.7234 C   0  0  0  0  0  0  0  0  0  0  0  0
    1.2596    0.8441    1.1879 N   0  0  0  0  0  0  0  0  0  0  0  0
    0.0889    0.3105    0.4975 C   0  0  2  0  0  0  0  0  0  0  0  0
   -0.1803    1.0335   -0.8389 C   0  0  0  0  0  0  0  0  0  0  0  0
   -1.4732    0.4977   -1.4807 C   0  0  1  0  0  0  0  0  0  0  0  0
   -1.3370   -1.0189   -1.7064 C   0  0  0  0  0  0  0  0  0  0  0  0
   -1.1110   -1.7401   -0.3653 C   0  0  2  0  0  0  0  0  0  0  0  0
   -2.2970   -1.4547    0.5698 C   0  0  0  0  0  0  0  0  0  0  0  0
   -2.4244    0.0582    0.8076 C   0  0  2  0  0  0  0  0  0  0  0  0
   -2.6564    0.7655   -0.5368 C   0  0  0  0  0  0  0  0  0  0  0  0
   -1.1210    0.5810    1.4331 C   0  0  0  0  0  0  0  0  0  0  0  0
    0.1836   -1.2146    0.2816 C   0  0  0  0  0  0  0  0  0  0  0  0
    3.0122    0.3225   -0.4276 N   0  0  0  0  0  0  0  0  0  0  0  0
    4.8646    0.1188   -1.4380 H   0  0  0  0  0  0  0  0  0  0  0  0
    6.0022    1.3168    0.5959 H   0  0  0  0  0  0  0  0  0  0  0  0
    0.6459    0.8942   -1.5433 H   0  0  0  0  0  0  0  0  0  0  0  0
   -0.2626    2.1160   -0.6757 H   0  0  0  0  0  0  0  0  0  0  0  0
   -1.6449    1.0005   -2.4391 H   0  0  0  0  0  0  0  0  0  0  0  0
   -0.5009   -1.2227   -2.3866 H   0  0  0  0  0  0  0  0  0  0  0  0
   -2.2423   -1.4064   -2.1897 H   0  0  0  0  0  0  0  0  0  0  0  0
   -1.0266   -2.8193   -0.5351 H   0  0  0  0  0  0  0  0  0  0  0  0
   -3.2233   -1.8450    0.1308 H   0  0  0  0  0  0  0  0  0  0  0  0
   -2.1541   -1.9739    1.5255 H   0  0  0  0  0  0  0  0  0  0  0  0
   -3.2654    0.2576    1.4809 H   0  0  0  0  0  0  0  0  0  0  0  0
   -2.7722    1.8446   -0.3778 H   0  0  0  0  0  0  0  0  0  0  0  0
   -3.5882    0.4089   -0.9927 H   0  0  0  0  0  0  0  0  0  0  0  0
   -1.2110    1.6572    1.6332 H   0  0  0  0  0  0  0  0  0  0  0  0
   -0.9593    0.1022    2.4083 H   0  0  0  0  0  0  0  0  0  0  0  0
    0.3590   -1.7238    1.2383 H   0  0  0  0  0  0  0  0  0  0  0  0
    1.0297   -1.4764   -0.3616 H   0  0  0  0  0  0  0  0  0  0  0  0
    2.4793   -0.1259   -1.1541 H   0  0  0  0  0  0  0  0  0  0  0  0
  1  2  2  0
  2  3  1  0
  3  4  1  0
  4  5  2  0
  6  5  1  1
  6  7  1  0
  7  8  1  0
  8  9  1  0
  9 10  1  0
 10 11  1  0
 11 12  1  0
 12 13  1  0
 12 14  1  0
 10 15  1  0
  4 16  1  0
 16  1  1  0
 14  6  1  0
 15  6  1  0
 13  8  1  0
  1 17  1  0
  2 18  1  0
  7 19  1  0
  7 20  1  0
  8 21  1  6
  9 22  1  0
  9 23  1  0
 10 24  1  6
 11 25  1  0
 11 26  1  0
 12 27  1  1
 13 28  1  0
 13 29  1  0
 14 30  1  0
 14 31  1  0
 15 32  1  0
 15 33  1  0
 16 34  1  0
M  END
>  <_SMILES>  (57) 
c1cs/c(=N/[C@]23C[C@H]4C[C@H](C[C@H](C4)C2)C3)[nH]1

$$$$

     RDKit          3D

 34 37  0  0  0  0  0  0  0  0999 V2000
    1.5705    4.7066    0.1195 C   0  0  0  0  0  0  0  0  0  0  0  0
    2.5204    4.0245    0.7722 C   0  0  0  0  0  0  0  0  0  0  0  0
    2.1285    2.3165    0.8301 S   0  0  0  0  0  0  0  0  0  0  0  0
    0.6173    2.5852   -0.0739 C   0  0  0  0  0  0  0  0  0  0  0  0
   -0.2679    1.7414   -0.4388 N   0  0  0  0  0  0  0  0  0  0  0  0
   -0.2903    0.2996   -0.2145 C   0  0  2  0  0  0  0  0  0  0  0  0
    0.8789   -0.4314   -0.9057 C   0  0  0  0  0  0  0  0  0  0  0  0
    0.7339   -1.9547   -0.7293 C   0  0  1  0  0  0  0  0  0  0  0  0
    0.6959   -2.2905    0.7726 C   0  0  0  0  0  0  0  0  0  0  0  0
   -0.5031   -1.5971    1.4448 C   0  0  2  0  0  0  0  0  0  0  0  0
   -1.8021   -2.0653    0.7709 C   0  0  0  0  0  0  0  0  0  0  0  0
   -1.7696   -1.7161   -0.7247 C   0  0  2  0  0  0  0  0  0  0  0  0
   -0.5750   -2.4200   -1.3858 C   0  0  0  0  0  0  0  0  0  0  0  0
   -1.6069   -0.1962   -0.8820 C   0  0  0  0  0  0  0  0  0  0  0  0
   -0.3652   -0.0718    1.2808 C   0  0  0  0  0  0  0  0  0  0  0  0
    0.5422    3.9293   -0.3377 N   0  0  0  0  0  0  0  0  0  0  0  0
    1.5520    5.7719   -0.0662 H   0  0  0  0  0  0  0  0  0  0  0  0
    3.4158    4.4376    1.2138 H   0  0  0  0  0  0  0  0  0  0  0  0
    0.9091   -0.1776   -1.9733 H   0  0  0  0  0  0  0  0  0  0  0  0
    1.8448   -0.1277   -0.4930 H   0  0  0  0  0  0  0  0  0  0  0  0
    1.5831   -2.4623   -1.2004 H   0  0  0  0  0  0  0  0  0  0  0  0
    0.6227   -3.3764    0.9096 H   0  0  0  0  0  0  0  0  0  0  0  0
    1.6298   -1.9715    1.2515 H   0  0  0  0  0  0  0  0  0  0  0  0
   -0.5281   -1.8521    2.5102 H   0  0  0  0  0  0  0  0  0  0  0  0
   -2.6660   -1.5875    1.2492 H   0  0  0  0  0  0  0  0  0  0  0  0
   -1.9240   -3.1475    0.9014 H   0  0  0  0  0  0  0  0  0  0  0  0
   -2.7011   -2.0414   -1.2011 H   0  0  0  0  0  0  0  0  0  0  0  0
   -0.5556   -2.1975   -2.4598 H   0  0  0  0  0  0  0  0  0  0  0  0
   -0.6784   -3.5076   -1.2877 H   0  0  0  0  0  0  0  0  0  0  0  0
   -2.4711    0.3163   -0.4380 H   0  0  0  0  0  0  0  0  0  0  0  0
   -1.6118    0.0680   -1.9483 H   0  0  0  0  0  0  0  0  0  0  0  0
   -1.2137    0.4360    1.7575 H   0  0  0  0  0  0  0  0  0  0  0  0
    0.5275    0.2530    1.8222 H   0  0  0  0  0  0  0  0  0  0  0  0
   -0.2426    4.3063   -0.8462 H   0  0  0  0  0  0  0  0  0  0  0  0
  1  2  2  0
  2  3  1  0
  3  4  1  0
  4  5  2  0
  6  5  1  1
  6  7  1  0
  7  8  1  0
  8  9  1  0
  9 10  1  0
 10 11  1  0
 11 12  1  0
 12 13  1  0
 12 14  1  0
 10 15  1  0
  4 16  1  0
 16  1  1  0
 14  6  1  0
 15  6  1  0
 13  8  1  0
  1 17  1  0
  2 18  1  0
  7 19  1  0
  7 20  1  0
  8 21  1  6
  9 22  1  0
  9 23  1  0
 10 24  1  1
 11 25  1  0
 11 26  1  0
 12 27  1  6
 13 28  1  0
 13 29  1  0
 14 30  1  0
 14 31  1  0
 15 32  1  0
 15 33  1  0
 16 34  1  0
M  END
>  <_SMILES>  (58) 
c1cs/c(=N\[C@]23C[C@H]4C[C@H](C[C@H](C4)C2)C3)[nH]1

$$$$

     RDKit          3D

 30 31  0  0  0  0  0  0  0  0999 V2000
    4.7167   -1.4557    0.0655 C   0  0  0  0  0  0  0  0  0  0  0  0
    3.6590   -0.4705   -0.4069 C   0  0  0  0  0  0  0  0  0  0  0  0
    3.4011    0.6164    0.6389 C   0  0  0  0  0  0  0  0  0  0  0  0
    2.3745    1.6432    0.1693 C   0  0  0  0  0  0  0  0  0  0  0  0
    1.0542    1.0730    0.0353 N   0  0  0  0  0  0  0  0  0  0  0  0
    0.0537    1.6956   -0.6934 C   0  0  0  0  0  0  0  0  0  0  0  0
    0.2764    2.6832   -1.3913 O   0  0  0  0  0  0  0  0  0  0  0  0
   -1.2534    1.0650   -0.5230 C   0  0  0  0  0  0  0  0  0  0  0  0
   -1.4464    0.0399    0.2878 N   0  0  0  0  0  0  0  0  0  0  0  0
   -2.7791   -0.3371    0.2402 C   0  0  0  0  0  0  0  0  0  0  0  0
   -3.3640   -1.3946    0.9663 C   0  0  0  0  0  0  0  0  0  0  0  0
   -4.7287   -1.6665    0.8230 C   0  0  0  0  0  0  0  0  0  0  0  0
   -5.5141   -0.8998   -0.0318 C   0  0  0  0  0  0  0  0  0  0  0  0
   -4.9588    0.1547   -0.7632 C   0  0  0  0  0  0  0  0  0  0  0  0
   -3.5874    0.4193   -0.6123 C   0  0  0  0  0  0  0  0  0  0  0  0
   -2.6268    1.6332   -1.3668 S   0  0  0  0  0  0  0  0  0  0  0  0
    4.8865   -2.2235   -0.6958 H   0  0  0  0  0  0  0  0  0  0  0  0
    4.4032   -1.9552    0.9878 H   0  0  0  0  0  0  0  0  0  0  0  0
    5.6684   -0.9491    0.2550 H   0  0  0  0  0  0  0  0  0  0  0  0
    3.9894   -0.0118   -1.3462 H   0  0  0  0  0  0  0  0  0  0  0  0
    2.7340   -1.0180   -0.6208 H   0  0  0  0  0  0  0  0  0  0  0  0
    4.3414    1.1369    0.8573 H   0  0  0  0  0  0  0  0  0  0  0  0
    3.0634    0.1543    1.5747 H   0  0  0  0  0  0  0  0  0  0  0  0
    2.2984    2.4533    0.9031 H   0  0  0  0  0  0  0  0  0  0  0  0
    2.6778    2.0900   -0.7841 H   0  0  0  0  0  0  0  0  0  0  0  0
    0.7340    0.3688    0.6952 H   0  0  0  0  0  0  0  0  0  0  0  0
   -2.7495   -1.9919    1.6325 H   0  0  0  0  0  0  0  0  0  0  0  0
   -5.1760   -2.4835    1.3847 H   0  0  0  0  0  0  0  0  0  0  0  0
   -6.5745   -1.1219   -0.1341 H   0  0  0  0  0  0  0  0  0  0  0  0
   -5.5731    0.7523   -1.4302 H   0  0  0  0  0  0  0  0  0  0  0  0
  1  2  1  0
  2  3  1  0
  3  4  1  0
  4  5  1  0
  5  6  1  0
  6  7  2  0
  6  8  1  0
  8  9  2  0
  9 10  1  0
 10 11  2  0
 11 12  1  0
 12 13  2  0
 13 14  1  0
 14 15  2  0
 15 16  1  0
 16  8  1  0
 15 10  1  0
  1 17  1  0
  1 18  1  0
  1 19  1  0
  2 20  1  0
  2 21  1  0
  3 22  1  0
  3 23  1  0
  4 24  1  0
  4 25  1  0
  5 26  1  0
 11 27  1  0
 12 28  1  0
 13 29  1  0
 14 30  1  0
M  END
>  <_SMILES>  (59) 
CCCCNC(=O)c1nc2ccccc2s1

$$$$

     RDKit          3D

 44 47  0  0  0  0  0  0  0  0999 V2000
    2.0626   -3.6740   -2.0924 C   0  0  0  0  0  0  0  0  0  0  0  0
    2.4086   -3.1478   -0.7940 N   0  0  0  0  0  0  0  0  0  0  0  0
    3.4151   -3.6058    0.0090 C   0  0  0  0  0  0  0  0  0  0  0  0
    3.3755   -2.8044    1.1219 C   0  0  0  0  0  0  0  0  0  0  0  0
    4.2353   -2.9750    2.1397 O   0  0  0  0  0  0  0  0  0  0  0  0
    4.0525   -1.9946    3.1405 C   0  0  0  0  0  0  0  0  0  0  0  0
    4.7384   -2.4134    4.2384 F   0  0  0  0  0  0  0  0  0  0  0  0
    4.6456   -0.8400    2.7425 F   0  0  0  0  0  0  0  0  0  0  0  0
    2.3682   -1.8829    1.0297 N   0  0  0  0  0  0  0  0  0  0  0  0
    1.7937   -2.0990   -0.1490 C   0  0  0  0  0  0  0  0  0  0  0  0
    0.6752   -1.3082   -0.6466 C   0  0  0  0  0  0  0  0  0  0  0  0
    0.1237   -1.5108   -1.7233 O   0  0  0  0  0  0  0  0  0  0  0  0
    0.3094   -0.3046    0.2238 N   0  0  0  0  0  0  0  0  0  0  0  0
   -0.7389    0.6893    0.0040 C   0  0  2  0  0  0  0  0  0  0  0  0
   -2.1287    0.0278   -0.1698 C   0  0  0  0  0  0  0  0  0  0  0  0
   -3.2191    1.0986   -0.3512 C   0  0  1  0  0  0  0  0  0  0  0  0
   -3.2535    2.0043    0.8898 C   0  0  0  0  0  0  0  0  0  0  0  0
   -1.8914    2.6909    1.0759 C   0  0  2  0  0  0  0  0  0  0  0  0
   -1.5734    3.5364   -0.1674 C   0  0  0  0  0  0  0  0  0  0  0  0
   -1.5295    2.6398   -1.4148 C   0  0  2  0  0  0  0  0  0  0  0  0
   -2.8923    1.9486   -1.5909 C   0  0  0  0  0  0  0  0  0  0  0  0
   -0.4383    1.5697   -1.2340 C   0  0  0  0  0  0  0  0  0  0  0  0
   -0.8050    1.6172    1.2467 C   0  0  0  0  0  0  0  0  0  0  0  0
    2.7325   -4.5023   -2.3384 H   0  0  0  0  0  0  0  0  0  0  0  0
    2.1779   -2.8795   -2.8337 H   0  0  0  0  0  0  0  0  0  0  0  0
    1.0321   -4.0362   -2.0593 H   0  0  0  0  0  0  0  0  0  0  0  0
    4.0591   -4.4297   -0.2646 H   0  0  0  0  0  0  0  0  0  0  0  0
    3.0103   -1.8206    3.4325 H   0  0  0  0  0  0  0  0  0  0  0  0
    0.8919   -0.2365    1.0542 H   0  0  0  0  0  0  0  0  0  0  0  0
   -2.3607   -0.5978    0.7021 H   0  0  0  0  0  0  0  0  0  0  0  0
   -2.1389   -0.6412   -1.0383 H   0  0  0  0  0  0  0  0  0  0  0  0
   -4.1934    0.6144   -0.4815 H   0  0  0  0  0  0  0  0  0  0  0  0
   -4.0421    2.7591    0.7815 H   0  0  0  0  0  0  0  0  0  0  0  0
   -3.4997    1.4120    1.7796 H   0  0  0  0  0  0  0  0  0  0  0  0
   -1.9194    3.3336    1.9628 H   0  0  0  0  0  0  0  0  0  0  0  0
   -0.6109    4.0464   -0.0381 H   0  0  0  0  0  0  0  0  0  0  0  0
   -2.3331    4.3175   -0.2938 H   0  0  0  0  0  0  0  0  0  0  0  0
   -1.3066    3.2479   -2.2987 H   0  0  0  0  0  0  0  0  0  0  0  0
   -2.8785    1.3153   -2.4865 H   0  0  0  0  0  0  0  0  0  0  0  0
   -3.6757    2.7009   -1.7452 H   0  0  0  0  0  0  0  0  0  0  0  0
    0.5425    2.0511   -1.1258 H   0  0  0  0  0  0  0  0  0  0  0  0
   -0.3814    0.9592   -2.1432 H   0  0  0  0  0  0  0  0  0  0  0  0
    0.1683    2.0993    1.4099 H   0  0  0  0  0  0  0  0  0  0  0  0
   -1.0080    1.0252    2.1492 H   0  0  0  0  0  0  0  0  0  0  0  0
  1  2  1  0
  2  3  1  0
  3  4  2  0
  4  5  1  0
  5  6  1  0
  6  7  1  0
  6  8  1  0
  4  9  1  0
  9 10  2  0
 10 11  1  0
 11 12  2  0
 11 13  1  0
 14 13  1  1
 14 15  1  0
 15 16  1  0
 16 17  1  0
 17 18  1  0
 18 19  1  0
 19 20  1  0
 20 21  1  0
 20 22  1  0
 18 23  1  0
 10  2  1  0
 22 14  1  0
 23 14  1  0
 21 16  1  0
  1 24  1  0
  1 25  1  0
  1 26  1  0
  3 27  1  0
  6 28  1  0
 13 29  1  0
 15 30  1  0
 15 31  1  0
 16 32  1  6
 17 33  1  0
 17 34  1  0
 18 35  1  1
 19 36  1  0
 19 37  1  0
 20 38  1  6
 21 39  1  0
 21 40  1  0
 22 41  1  0
 22 42  1  0
 23 43  1  0
 23 44  1  0
M  END
>  <_SMILES>  (60) 
Cn1cc(OC(F)F)nc1C(=O)N[C@]12C[C@H]3C[C@H](C[C@H](C3)C1)C2

$$$$

     RDKit          3D

 45 48  0  0  0  0  0  0  0  0999 V2000
    3.3856   -2.3681    1.2184 C   0  0  0  0  0  0  0  0  0  0  0  0
    3.4971   -1.0919    0.5053 N   0  0  0  0  0  0  0  0  0  0  0  0
    4.6773   -0.4093    0.2485 C   0  0  0  0  0  0  0  0  0  0  0  0
    4.3416    0.7098   -0.4657 C   0  0  0  0  0  0  0  0  0  0  0  0
    5.1174    1.7564   -0.9642 O   0  0  0  0  0  0  0  0  0  0  0  0
    6.4418    1.3860   -1.2934 C   0  0  0  0  0  0  0  0  0  0  0  0
    7.0461    0.8949   -0.1860 F   0  0  0  0  0  0  0  0  0  0  0  0
    7.1000    2.5138   -1.6392 F   0  0  0  0  0  0  0  0  0  0  0  0
    2.9770    0.6902   -0.5743 N   0  0  0  0  0  0  0  0  0  0  0  0
    2.4335   -0.3944    0.0200 C   0  0  0  0  0  0  0  0  0  0  0  0
    1.0478   -0.7261    0.0946 C   0  0  0  0  0  0  0  0  0  0  0  0
    0.6979   -1.8718    0.3498 O   0  0  0  0  0  0  0  0  0  0  0  0
    0.1784    0.3339   -0.1255 N   0  0  0  0  0  0  0  0  0  0  0  0
   -1.2897    0.2168   -0.0483 C   0  0  2  0  0  0  0  0  0  0  0  0
   -1.8436   -0.8202   -1.0585 C   0  0  0  0  0  0  0  0  0  0  0  0
   -3.3800   -0.8784   -0.9872 C   0  0  1  0  0  0  0  0  0  0  0  0
   -3.8057   -1.2641    0.4399 C   0  0  0  0  0  0  0  0  0  0  0  0
   -3.2931   -0.2199    1.4464 C   0  0  2  0  0  0  0  0  0  0  0  0
   -3.8706    1.1579    1.0852 C   0  0  0  0  0  0  0  0  0  0  0  0
   -3.4410    1.5511   -0.3370 C   0  0  2  0  0  0  0  0  0  0  0  0
   -3.9580    0.5024   -1.3335 C   0  0  0  0  0  0  0  0  0  0  0  0
   -1.9063    1.5973   -0.4052 C   0  0  0  0  0  0  0  0  0  0  0  0
   -1.7566   -0.1614    1.3786 C   0  0  0  0  0  0  0  0  0  0  0  0
    3.0121   -3.1305    0.5303 H   0  0  0  0  0  0  0  0  0  0  0  0
    4.3679   -2.6735    1.5896 H   0  0  0  0  0  0  0  0  0  0  0  0
    2.7081   -2.2491    2.0679 H   0  0  0  0  0  0  0  0  0  0  0  0
    5.6022   -0.8213    0.6156 H   0  0  0  0  0  0  0  0  0  0  0  0
    6.4869    0.6620   -2.1139 H   0  0  0  0  0  0  0  0  0  0  0  0
    2.4435    1.3868   -1.0824 H   0  0  0  0  0  0  0  0  0  0  0  0
    0.5352    1.2745   -0.0181 H   0  0  0  0  0  0  0  0  0  0  0  0
   -1.5256   -0.5614   -2.0770 H   0  0  0  0  0  0  0  0  0  0  0  0
   -1.4442   -1.8207   -0.8580 H   0  0  0  0  0  0  0  0  0  0  0  0
   -3.7540   -1.6235   -1.6984 H   0  0  0  0  0  0  0  0  0  0  0  0
   -4.8990   -1.3332    0.4976 H   0  0  0  0  0  0  0  0  0  0  0  0
   -3.4104   -2.2552    0.6940 H   0  0  0  0  0  0  0  0  0  0  0  0
   -3.6069   -0.4974    2.4589 H   0  0  0  0  0  0  0  0  0  0  0  0
   -3.5230    1.9103    1.8037 H   0  0  0  0  0  0  0  0  0  0  0  0
   -4.9652    1.1349    1.1530 H   0  0  0  0  0  0  0  0  0  0  0  0
   -3.8525    2.5348   -0.5889 H   0  0  0  0  0  0  0  0  0  0  0  0
   -5.0540    0.4677   -1.3067 H   0  0  0  0  0  0  0  0  0  0  0  0
   -3.6732    0.7827   -2.3550 H   0  0  0  0  0  0  0  0  0  0  0  0
   -1.5312    2.3675    0.2822 H   0  0  0  0  0  0  0  0  0  0  0  0
   -1.5880    1.9037   -1.4106 H   0  0  0  0  0  0  0  0  0  0  0  0
   -1.3782    0.5693    2.1055 H   0  0  0  0  0  0  0  0  0  0  0  0
   -1.3475   -1.1330    1.6797 H   0  0  0  0  0  0  0  0  0  0  0  0
  1  2  1  0
  2  3  1  0
  3  4  2  0
  4  5  1  0
  5  6  1  0
  6  7  1  0
  6  8  1  0
  4  9  1  0
  9 10  2  0
 10 11  1  0
 11 12  2  0
 11 13  1  0
 14 13  1  1
 14 15  1  0
 15 16  1  0
 16 17  1  0
 17 18  1  0
 18 19  1  0
 19 20  1  0
 20 21  1  0
 20 22  1  0
 18 23  1  0
 10  2  1  0
 22 14  1  0
 23 14  1  0
 21 16  1  0
  1 24  1  0
  1 25  1  0
  1 26  1  0
  3 27  1  0
  6 28  1  0
  9 29  1  0
 13 30  1  0
 15 31  1  0
 15 32  1  0
 16 33  1  6
 17 34  1  0
 17 35  1  0
 18 36  1  1
 19 37  1  0
 19 38  1  0
 20 39  1  6
 21 40  1  0
 21 41  1  0
 22 42  1  0
 22 43  1  0
 23 44  1  0
 23 45  1  0
M  CHG  1   9   1
M  END
>  <_SMILES>  (61) 
Cn1cc(OC(F)F)[nH+]c1C(=O)N[C@]12C[C@H]3C[C@H](C[C@H](C3)C1)C2

$$$$

     RDKit          3D

 45 48  0  0  0  0  0  0  0  0999 V2000
    6.1050   -3.1923   -2.0014 C   0  0  0  0  0  0  0  0  0  0  0  0
    6.4488   -2.4630   -0.7140 C   0  0  0  0  0  0  0  0  0  0  0  0
    5.4096   -0.9907   -0.4808 S   0  0  0  0  0  0  0  0  0  0  0  0
    3.9223   -1.6415    0.0950 C   0  0  0  0  0  0  0  0  0  0  0  0
    3.4667   -2.8747    0.4852 C   0  0  0  0  0  0  0  0  0  0  0  0
    2.1509   -2.8009    0.8730 N   0  0  0  0  0  0  0  0  0  0  0  0
    1.7932   -1.5360    0.7207 C   0  0  0  0  0  0  0  0  0  0  0  0
    0.4700   -1.0106    1.0286 C   0  0  0  0  0  0  0  0  0  0  0  0
   -0.2806   -1.5007    1.8664 O   0  0  0  0  0  0  0  0  0  0  0  0
    0.1137    0.1012    0.2730 N   0  0  0  0  0  0  0  0  0  0  0  0
   -1.2021    0.7525    0.3460 C   0  0  1  0  0  0  0  0  0  0  0  0
   -1.1947    1.9661   -0.6245 C   0  0  0  0  0  0  0  0  0  0  0  0
   -2.5459    2.6988   -0.6056 C   0  0  2  0  0  0  0  0  0  0  0  0
   -2.8260    3.2038    0.8182 C   0  0  0  0  0  0  0  0  0  0  0  0
   -2.8620    2.0200    1.7971 C   0  0  1  0  0  0  0  0  0  0  0  0
   -3.9660    1.0401    1.3693 C   0  0  0  0  0  0  0  0  0  0  0  0
   -3.6925    0.5278   -0.0552 C   0  0  1  0  0  0  0  0  0  0  0  0
   -4.7291   -0.3549   -0.4607 O   0  0  0  0  0  0  0  0  0  0  0  0
   -3.6529    1.7209   -1.0235 C   0  0  0  0  0  0  0  0  0  0  0  0
   -2.3384   -0.2012   -0.0903 C   0  0  0  0  0  0  0  0  0  0  0  0
   -1.5048    1.2943    1.7679 C   0  0  0  0  0  0  0  0  0  0  0  0
    2.8613   -0.8002    0.2621 N   0  0  0  0  0  0  0  0  0  0  0  0
    5.0788   -3.5725   -1.9969 H   0  0  0  0  0  0  0  0  0  0  0  0
    6.2304   -2.5432   -2.8747 H   0  0  0  0  0  0  0  0  0  0  0  0
    6.7728   -4.0507   -2.1305 H   0  0  0  0  0  0  0  0  0  0  0  0
    6.3682   -3.1312    0.1490 H   0  0  0  0  0  0  0  0  0  0  0  0
    7.4896   -2.1263   -0.7620 H   0  0  0  0  0  0  0  0  0  0  0  0
    3.9998   -3.8154    0.5175 H   0  0  0  0  0  0  0  0  0  0  0  0
    0.6075    0.2073   -0.6028 H   0  0  0  0  0  0  0  0  0  0  0  0
   -0.9737    1.6303   -1.6467 H   0  0  0  0  0  0  0  0  0  0  0  0
   -0.3907    2.6626   -0.3512 H   0  0  0  0  0  0  0  0  0  0  0  0
   -2.5180    3.5459   -1.2999 H   0  0  0  0  0  0  0  0  0  0  0  0
   -2.0510    3.9182    1.1221 H   0  0  0  0  0  0  0  0  0  0  0  0
   -3.7821    3.7409    0.8441 H   0  0  0  0  0  0  0  0  0  0  0  0
   -3.0636    2.3852    2.8104 H   0  0  0  0  0  0  0  0  0  0  0  0
   -4.9487    1.5274    1.4124 H   0  0  0  0  0  0  0  0  0  0  0  0
   -4.0226    0.1973    2.0703 H   0  0  0  0  0  0  0  0  0  0  0  0
   -4.7349   -1.1112    0.1527 H   0  0  0  0  0  0  0  0  0  0  0  0
   -3.4868    1.3692   -2.0501 H   0  0  0  0  0  0  0  0  0  0  0  0
   -4.6266    2.2278   -1.0390 H   0  0  0  0  0  0  0  0  0  0  0  0
   -2.3875   -1.0873    0.5545 H   0  0  0  0  0  0  0  0  0  0  0  0
   -2.1476   -0.5942   -1.0984 H   0  0  0  0  0  0  0  0  0  0  0  0
   -0.7080    1.9788    2.0874 H   0  0  0  0  0  0  0  0  0  0  0  0
   -1.5259    0.4845    2.5055 H   0  0  0  0  0  0  0  0  0  0  0  0
    2.8742    0.1978    0.1150 H   0  0  0  0  0  0  0  0  0  0  0  0
  1  2  1  0
  2  3  1  0
  3  4  1  0
  4  5  2  0
  5  6  1  0
  6  7  2  0
  7  8  1  0
  8  9  2  0
  8 10  1  0
 11 10  1  1
 11 12  1  0
 12 13  1  0
 13 14  1  0
 14 15  1  0
 15 16  1  0
 16 17  1  0
 17 18  1  6
 17 19  1  0
 17 20  1  0
 15 21  1  0
  7 22  1  0
 22  4  1  0
 20 11  1  0
 21 11  1  0
 19 13  1  0
  1 23  1  0
  1 24  1  0
  1 25  1  0
  2 26  1  0
  2 27  1  0
  5 28  1  0
 10 29  1  0
 12 30  1  0
 12 31  1  0
 13 32  1  6
 14 33  1  0
 14 34  1  0
 15 35  1  1
 16 36  1  0
 16 37  1  0
 18 38  1  0
 19 39  1  0
 19 40  1  0
 20 41  1  0
 20 42  1  0
 21 43  1  0
 21 44  1  0
 22 45  1  0
M  END
>  <_SMILES>  (62) 
CCSc1cnc(C(=O)N[C@@]23C[C@@H]4C[C@@H](C[C@@](O)(C4)C2)C3)[nH]1

$$$$

     RDKit          3D

 45 48  0  0  0  0  0  0  0  0999 V2000
    5.0272   -2.6168   -3.3357 C   0  0  0  0  0  0  0  0  0  0  0  0
    5.7046   -1.6050   -2.4269 C   0  0  0  0  0  0  0  0  0  0  0  0
    5.8669   -2.2298   -0.7282 S   0  0  0  0  0  0  0  0  0  0  0  0
    4.2521   -2.0015   -0.1173 C   0  0  0  0  0  0  0  0  0  0  0  0
    3.7897   -2.4523    1.0942 C   0  0  0  0  0  0  0  0  0  0  0  0
    2.4846   -2.0527    1.1443 N   0  0  0  0  0  0  0  0  0  0  0  0
    2.2002   -1.3635   -0.0131 C   0  0  0  0  0  0  0  0  0  0  0  0
    0.9126   -0.7765   -0.3585 C   0  0  0  0  0  0  0  0  0  0  0  0
    0.5099   -0.6505   -1.5099 O   0  0  0  0  0  0  0  0  0  0  0  0
    0.1725   -0.3593    0.7428 N   0  0  0  0  0  0  0  0  0  0  0  0
   -1.1118    0.3507    0.6448 C   0  0  1  0  0  0  0  0  0  0  0  0
   -1.6432    0.5764    2.0882 C   0  0  0  0  0  0  0  0  0  0  0  0
   -2.9862    1.3235    2.0750 C   0  0  2  0  0  0  0  0  0  0  0  0
   -4.0162    0.4971    1.2896 C   0  0  0  0  0  0  0  0  0  0  0  0
   -3.5260    0.2781   -0.1501 C   0  0  1  0  0  0  0  0  0  0  0  0
   -3.3285    1.6410   -0.8332 C   0  0  0  0  0  0  0  0  0  0  0  0
   -2.2996    2.4772   -0.0522 C   0  0  1  0  0  0  0  0  0  0  0  0
   -2.1190    3.7414   -0.6740 O   0  0  0  0  0  0  0  0  0  0  0  0
   -2.7962    2.6828    1.3884 C   0  0  0  0  0  0  0  0  0  0  0  0
   -0.9527    1.7336   -0.0277 C   0  0  0  0  0  0  0  0  0  0  0  0
   -2.1817   -0.4713   -0.1211 C   0  0  0  0  0  0  0  0  0  0  0  0
    3.2668   -1.3357   -0.7934 N   0  0  0  0  0  0  0  0  0  0  0  0
    4.0005   -2.8291   -3.0218 H   0  0  0  0  0  0  0  0  0  0  0  0
    5.5823   -3.5605   -3.3675 H   0  0  0  0  0  0  0  0  0  0  0  0
    4.9838   -2.2256   -4.3577 H   0  0  0  0  0  0  0  0  0  0  0  0
    5.1726   -0.6483   -2.4390 H   0  0  0  0  0  0  0  0  0  0  0  0
    6.7152   -1.4116   -2.8019 H   0  0  0  0  0  0  0  0  0  0  0  0
    4.2573   -3.0152    1.8893 H   0  0  0  0  0  0  0  0  0  0  0  0
    1.8197   -2.2590    1.8763 H   0  0  0  0  0  0  0  0  0  0  0  0
    0.7202   -0.1503    1.5664 H   0  0  0  0  0  0  0  0  0  0  0  0
   -1.7597   -0.3875    2.6017 H   0  0  0  0  0  0  0  0  0  0  0  0
   -0.9113    1.1483    2.6746 H   0  0  0  0  0  0  0  0  0  0  0  0
   -3.3373    1.4730    3.1020 H   0  0  0  0  0  0  0  0  0  0  0  0
   -4.9839    1.0137    1.2816 H   0  0  0  0  0  0  0  0  0  0  0  0
   -4.1754   -0.4699    1.7824 H   0  0  0  0  0  0  0  0  0  0  0  0
   -4.2645   -0.3105   -0.7057 H   0  0  0  0  0  0  0  0  0  0  0  0
   -2.9967    1.5073   -1.8709 H   0  0  0  0  0  0  0  0  0  0  0  0
   -4.2841    2.1778   -0.8946 H   0  0  0  0  0  0  0  0  0  0  0  0
   -2.9910    4.1610   -0.7708 H   0  0  0  0  0  0  0  0  0  0  0  0
   -2.0829    3.3006    1.9492 H   0  0  0  0  0  0  0  0  0  0  0  0
   -3.7383    3.2462    1.3873 H   0  0  0  0  0  0  0  0  0  0  0  0
   -0.5709    1.6377   -1.0521 H   0  0  0  0  0  0  0  0  0  0  0  0
   -0.2000    2.3350    0.5005 H   0  0  0  0  0  0  0  0  0  0  0  0
   -2.3109   -1.4540    0.3510 H   0  0  0  0  0  0  0  0  0  0  0  0
   -1.8709   -0.6661   -1.1531 H   0  0  0  0  0  0  0  0  0  0  0  0
  1  2  1  0
  2  3  1  0
  3  4  1  0
  4  5  2  0
  5  6  1  0
  6  7  1  0
  7  8  1  0
  8  9  2  0
  8 10  1  0
 11 10  1  1
 11 12  1  0
 12 13  1  0
 13 14  1  0
 14 15  1  0
 15 16  1  0
 16 17  1  0
 17 18  1  6
 17 19  1  0
 17 20  1  0
 15 21  1  0
  7 22  2  0
 22  4  1  0
 20 11  1  0
 21 11  1  0
 19 13  1  0
  1 23  1  0
  1 24  1  0
  1 25  1  0
  2 26  1  0
  2 27  1  0
  5 28  1  0
  6 29  1  0
 10 30  1  0
 12 31  1  0
 12 32  1  0
 13 33  1  1
 14 34  1  0
 14 35  1  0
 15 36  1  6
 16 37  1  0
 16 38  1  0
 18 39  1  0
 19 40  1  0
 19 41  1  0
 20 42  1  0
 20 43  1  0
 21 44  1  0
 21 45  1  0
M  END
>  <_SMILES>  (63) 
CCSc1c[nH]c(C(=O)N[C@@]23C[C@@H]4C[C@@H](C[C@@](O)(C4)C2)C3)n1

$$$$

     RDKit          3D

 46 49  0  0  0  0  0  0  0  0999 V2000
    7.1628    0.9972   -0.7312 C   0  0  0  0  0  0  0  0  0  0  0  0
    6.8723   -0.1699   -1.6589 C   0  0  0  0  0  0  0  0  0  0  0  0
    5.4594   -1.1525   -1.0789 S   0  0  0  0  0  0  0  0  0  0  0  0
    4.0585   -0.1437   -1.4661 C   0  0  0  0  0  0  0  0  0  0  0  0
    3.9057    0.8668   -2.3733 C   0  0  0  0  0  0  0  0  0  0  0  0
    2.6069    1.2948   -2.2565 N   0  0  0  0  0  0  0  0  0  0  0  0
    1.9289    0.5764   -1.3347 C   0  0  0  0  0  0  0  0  0  0  0  0
    0.5660    0.7612   -0.9873 C   0  0  0  0  0  0  0  0  0  0  0  0
   -0.0255    1.7331   -1.4403 O   0  0  0  0  0  0  0  0  0  0  0  0
    0.0073   -0.2041   -0.1643 N   0  0  0  0  0  0  0  0  0  0  0  0
   -1.4201   -0.2270    0.2102 C   0  0  1  0  0  0  0  0  0  0  0  0
   -1.8534    1.0667    0.9470 C   0  0  0  0  0  0  0  0  0  0  0  0
   -3.3346    0.9860    1.3602 C   0  0  2  0  0  0  0  0  0  0  0  0
   -3.5333   -0.2090    2.3061 C   0  0  0  0  0  0  0  0  0  0  0  0
   -3.1276   -1.5121    1.5997 C   0  0  1  0  0  0  0  0  0  0  0  0
   -3.9959   -1.7024    0.3477 C   0  0  0  0  0  0  0  0  0  0  0  0
   -3.8005   -0.5149   -0.6084 C   0  0  1  0  0  0  0  0  0  0  0  0
   -4.5866   -0.7001   -1.7747 O   0  0  0  0  0  0  0  0  0  0  0  0
   -4.1992    0.7886    0.1042 C   0  0  0  0  0  0  0  0  0  0  0  0
   -2.3224   -0.4342   -1.0263 C   0  0  0  0  0  0  0  0  0  0  0  0
   -1.6518   -1.4196    1.1788 C   0  0  0  0  0  0  0  0  0  0  0  0
    2.8356   -0.2963   -0.8537 N   0  0  0  0  0  0  0  0  0  0  0  0
    7.3754    0.6558    0.2876 H   0  0  0  0  0  0  0  0  0  0  0  0
    8.0436    1.5424   -1.0866 H   0  0  0  0  0  0  0  0  0  0  0  0
    6.3311    1.7075   -0.6927 H   0  0  0  0  0  0  0  0  0  0  0  0
    7.7446   -0.8312   -1.6857 H   0  0  0  0  0  0  0  0  0  0  0  0
    6.7022    0.1774   -2.6825 H   0  0  0  0  0  0  0  0  0  0  0  0
    4.5421    1.3514   -3.0917 H   0  0  0  0  0  0  0  0  0  0  0  0
    2.1499    2.0484   -2.7730 H   0  0  0  0  0  0  0  0  0  0  0  0
    0.4951   -1.0803   -0.0382 H   0  0  0  0  0  0  0  0  0  0  0  0
   -1.2252    1.2238    1.8335 H   0  0  0  0  0  0  0  0  0  0  0  0
   -1.7150    1.9494    0.3130 H   0  0  0  0  0  0  0  0  0  0  0  0
   -3.6266    1.9116    1.8686 H   0  0  0  0  0  0  0  0  0  0  0  0
   -4.5818   -0.2655    2.6233 H   0  0  0  0  0  0  0  0  0  0  0  0
   -2.9328   -0.0721    3.2138 H   0  0  0  0  0  0  0  0  0  0  0  0
   -3.2667   -2.3603    2.2792 H   0  0  0  0  0  0  0  0  0  0  0  0
   -5.0538   -1.7948    0.6256 H   0  0  0  0  0  0  0  0  0  0  0  0
   -3.7398   -2.6420   -0.1590 H   0  0  0  0  0  0  0  0  0  0  0  0
   -5.5253   -0.7082   -1.5148 H   0  0  0  0  0  0  0  0  0  0  0  0
   -4.0877    1.6416   -0.5777 H   0  0  0  0  0  0  0  0  0  0  0  0
   -5.2629    0.7620    0.3738 H   0  0  0  0  0  0  0  0  0  0  0  0
   -2.0332   -1.3467   -1.5660 H   0  0  0  0  0  0  0  0  0  0  0  0
   -2.1943    0.3773   -1.7541 H   0  0  0  0  0  0  0  0  0  0  0  0
   -1.3473   -2.3598    0.6995 H   0  0  0  0  0  0  0  0  0  0  0  0
   -1.0177   -1.3106    2.0689 H   0  0  0  0  0  0  0  0  0  0  0  0
    2.6736   -0.9617   -0.1066 H   0  0  0  0  0  0  0  0  0  0  0  0
  1  2  1  0
  2  3  1  0
  3  4  1  0
  4  5  2  0
  5  6  1  0
  6  7  2  0
  7  8  1  0
  8  9  2  0
  8 10  1  0
 11 10  1  6
 11 12  1  0
 12 13  1  0
 13 14  1  0
 14 15  1  0
 15 16  1  0
 16 17  1  0
 17 18  1  6
 17 19  1  0
 17 20  1  0
 15 21  1  0
  7 22  1  0
 22  4  1  0
 20 11  1  0
 21 11  1  0
 19 13  1  0
  1 23  1  0
  1 24  1  0
  1 25  1  0
  2 26  1  0
  2 27  1  0
  5 28  1  0
  6 29  1  0
 10 30  1  0
 12 31  1  0
 12 32  1  0
 13 33  1  1
 14 34  1  0
 14 35  1  0
 15 36  1  1
 16 37  1  0
 16 38  1  0
 18 39  1  0
 19 40  1  0
 19 41  1  0
 20 42  1  0
 20 43  1  0
 21 44  1  0
 21 45  1  0
 22 46  1  0
M  CHG  1   6   1
M  END
>  <_SMILES>  (64) 
CCSc1c[nH+]c(C(=O)N[C@@]23C[C@@H]4C[C@@H](C[C@@](O)(C4)C2)C3)[nH]1

$$$$

     RDKit          3D

 51 53  0  0  0  0  0  0  0  0999 V2000
    7.9939   -1.5592    2.2337 C   0  0  0  0  0  0  0  0  0  0  0  0
    6.5914   -1.0435    1.9527 C   0  0  0  0  0  0  0  0  0  0  0  0
    6.6241    0.3419    1.3054 C   0  0  0  0  0  0  0  0  0  0  0  0
    5.2460    0.8584    1.0427 C   0  0  0  0  0  0  0  0  0  0  0  0
    4.4161    1.5857    1.8700 C   0  0  0  0  0  0  0  0  0  0  0  0
    3.1872    1.9221    1.3410 N   0  0  0  0  0  0  0  0  0  0  0  0
    3.0826    1.4618    0.1058 C   0  0  0  0  0  0  0  0  0  0  0  0
    1.8910    1.6611   -0.7175 C   0  0  0  0  0  0  0  0  0  0  0  0
    0.9140    2.4091   -0.2962 N   0  0  0  0  0  0  0  0  0  0  0  0
   -0.1806    2.4848   -1.1922 O   0  0  0  0  0  0  0  0  0  0  0  0
   -0.7773    1.2782   -1.2159 C   0  0  0  0  0  0  0  0  0  0  0  0
   -2.1782    1.3013   -0.6205 C   0  0  0  0  0  0  0  0  0  0  0  0
   -2.8304    2.3314   -0.6380 O   0  0  0  0  0  0  0  0  0  0  0  0
   -2.5379    0.0713   -0.1382 N   0  0  0  0  0  0  0  0  0  0  0  0
   -3.7459   -0.2412    0.4551 C   0  0  0  0  0  0  0  0  0  0  0  0
   -3.8612   -1.5282    0.8276 N   0  0  0  0  0  0  0  0  0  0  0  0
   -5.0362   -1.8585    1.4150 C   0  0  0  0  0  0  0  0  0  0  0  0
   -6.0555   -0.9594    1.6249 C   0  0  0  0  0  0  0  0  0  0  0  0
   -7.2123   -1.3992    2.2234 O   0  0  0  0  0  0  0  0  0  0  0  0
   -8.2004   -0.3864    2.4317 C   0  0  0  0  0  0  0  0  0  0  0  0
   -9.0883   -0.2365    1.2078 C   0  0  0  0  0  0  0  0  0  0  0  0
   -5.8993    0.3129    1.2316 N   0  0  0  0  0  0  0  0  0  0  0  0
   -4.7188    0.6749    0.6366 N   0  0  0  0  0  0  0  0  0  0  0  0
   -0.2420    0.1820   -1.6537 N   0  0  0  0  0  0  0  0  0  0  0  0
    0.9218    0.3286   -2.3568 C   0  0  0  0  0  0  0  0  0  0  0  0
    1.0171   -0.3289   -3.5717 N   0  0  0  0  0  0  0  0  0  0  0  0
    0.0598   -1.3661   -3.9301 C   0  0  0  0  0  0  0  0  0  0  0  0
    2.3012   -0.3948   -4.2598 C   0  0  0  0  0  0  0  0  0  0  0  0
    1.9209    1.0362   -1.9324 N   0  0  0  0  0  0  0  0  0  0  0  0
    4.4596    0.5909   -0.4562 S   0  0  0  0  0  0  0  0  0  0  0  0
    8.5284   -0.8903    2.9158 H   0  0  0  0  0  0  0  0  0  0  0  0
    8.5736   -1.6429    1.3089 H   0  0  0  0  0  0  0  0  0  0  0  0
    7.9478   -2.5500    2.6965 H   0  0  0  0  0  0  0  0  0  0  0  0
    6.0723   -1.7549    1.2988 H   0  0  0  0  0  0  0  0  0  0  0  0
    6.0270   -1.0076    2.8927 H   0  0  0  0  0  0  0  0  0  0  0  0
    7.2015    0.3057    0.3731 H   0  0  0  0  0  0  0  0  0  0  0  0
    7.1485    1.0441    1.9661 H   0  0  0  0  0  0  0  0  0  0  0  0
    4.6573    1.8996    2.8788 H   0  0  0  0  0  0  0  0  0  0  0  0
   -1.8926   -0.7007   -0.2299 H   0  0  0  0  0  0  0  0  0  0  0  0
   -5.1361   -2.8943    1.7194 H   0  0  0  0  0  0  0  0  0  0  0  0
   -7.7661    0.5701    2.7469 H   0  0  0  0  0  0  0  0  0  0  0  0
   -8.8195   -0.7277    3.2692 H   0  0  0  0  0  0  0  0  0  0  0  0
   -8.5177    0.1112    0.3413 H   0  0  0  0  0  0  0  0  0  0  0  0
   -9.8948    0.4766    1.4009 H   0  0  0  0  0  0  0  0  0  0  0  0
   -9.5286   -1.2007    0.9329 H   0  0  0  0  0  0  0  0  0  0  0  0
    0.1659   -1.6649   -4.9785 H   0  0  0  0  0  0  0  0  0  0  0  0
    0.2072   -2.2533   -3.3054 H   0  0  0  0  0  0  0  0  0  0  0  0
   -0.9699   -1.0136   -3.8074 H   0  0  0  0  0  0  0  0  0  0  0  0
    2.7669    0.5945   -4.3250 H   0  0  0  0  0  0  0  0  0  0  0  0
    2.9813   -1.0726   -3.7334 H   0  0  0  0  0  0  0  0  0  0  0  0
    2.1853   -0.7554   -5.2875 H   0  0  0  0  0  0  0  0  0  0  0  0
  1  2  1  0
  2  3  1  0
  3  4  1  0
  4  5  2  0
  5  6  1  0
  6  7  2  0
  7  8  1  0
  8  9  2  0
  9 10  1  0
 10 11  1  0
 11 12  1  0
 12 13  2  0
 12 14  1  0
 14 15  1  0
 15 16  2  0
 16 17  1  0
 17 18  2  0
 18 19  1  0
 19 20  1  0
 20 21  1  0
 18 22  1  0
 22 23  2  0
 11 24  2  0
 24 25  1  0
 25 26  1  0
 26 27  1  0
 26 28  1  0
 25 29  2  0
  7 30  1  0
 30  4  1  0
 29  8  1  0
 23 15  1  0
  1 31  1  0
  1 32  1  0
  1 33  1  0
  2 34  1  0
  2 35  1  0
  3 36  1  0
  3 37  1  0
  5 38  1  0
 14 39  1  0
 17 40  1  0
 20 41  1  0
 20 42  1  0
 21 43  1  0
 21 44  1  0
 21 45  1  0
 27 46  1  0
 27 47  1  0
 27 48  1  0
 28 49  1  0
 28 50  1  0
 28 51  1  0
M  END
>  <_SMILES>  (65) 
CCCc1cnc(C2=NOC(C(=O)Nc3ncc(OCC)nn3)=NC(N(C)C)=N2)s1

$$$$

     RDKit          3D

 51 53  0  0  0  0  0  0  0  0999 V2000
   -7.8867    3.0367    2.2536 C   0  0  0  0  0  0  0  0  0  0  0  0
   -7.7925    2.3862    0.8822 C   0  0  0  0  0  0  0  0  0  0  0  0
   -6.4526    2.6351    0.2526 C   0  0  0  0  0  0  0  0  0  0  0  0
   -5.5008    1.7311   -0.0074 C   0  0  0  0  0  0  0  0  0  0  0  0
   -5.5310    0.2818    0.2776 C   0  0  0  0  0  0  0  0  0  0  0  0
   -4.5088   -0.4465   -0.0428 N   0  0  0  0  0  0  0  0  0  0  0  0
   -3.5531    0.3804   -0.6193 C   0  0  0  0  0  0  0  0  0  0  0  0
   -2.3425   -0.0719   -1.0708 C   0  0  0  0  0  0  0  0  0  0  0  0
   -2.1120   -1.4213   -0.9656 N   0  0  0  0  0  0  0  0  0  0  0  0
   -0.9405   -1.9697   -0.8412 C   0  0  0  0  0  0  0  0  0  0  0  0
   -0.8758   -3.3536   -0.7177 N   0  0  0  0  0  0  0  0  0  0  0  0
   -2.0833   -4.1455   -0.9223 C   0  0  0  0  0  0  0  0  0  0  0  0
    0.3823   -4.0621   -0.8820 C   0  0  0  0  0  0  0  0  0  0  0  0
    0.2561   -1.3065   -0.7866 N   0  0  0  0  0  0  0  0  0  0  0  0
    0.4922   -0.3242   -1.5942 C   0  0  0  0  0  0  0  0  0  0  0  0
    1.8958    0.2726   -1.6897 C   0  0  0  0  0  0  0  0  0  0  0  0
    2.1716    1.0424   -2.5951 O   0  0  0  0  0  0  0  0  0  0  0  0
    2.6949   -0.1854   -0.6748 N   0  0  0  0  0  0  0  0  0  0  0  0
    4.0200    0.1440   -0.4625 C   0  0  0  0  0  0  0  0  0  0  0  0
    4.6666    0.9919   -1.2709 N   0  0  0  0  0  0  0  0  0  0  0  0
    5.9599    1.2333   -0.9582 C   0  0  0  0  0  0  0  0  0  0  0  0
    6.5945    0.6545    0.1149 C   0  0  0  0  0  0  0  0  0  0  0  0
    7.9114    0.9688    0.3527 O   0  0  0  0  0  0  0  0  0  0  0  0
    8.4933    0.3085    1.4793 C   0  0  0  0  0  0  0  0  0  0  0  0
    8.2409    1.0921    2.7564 C   0  0  0  0  0  0  0  0  0  0  0  0
    5.9137   -0.1926    0.9034 N   0  0  0  0  0  0  0  0  0  0  0  0
    4.6024   -0.4499    0.6053 N   0  0  0  0  0  0  0  0  0  0  0  0
   -0.3771    0.3072   -2.4045 O   0  0  0  0  0  0  0  0  0  0  0  0
   -1.4449    0.8060   -1.6640 N   0  0  0  0  0  0  0  0  0  0  0  0
   -3.9840    2.1020   -0.7509 S   0  0  0  0  0  0  0  0  0  0  0  0
   -7.1421    2.6200    2.9404 H   0  0  0  0  0  0  0  0  0  0  0  0
   -7.7271    4.1186    2.1925 H   0  0  0  0  0  0  0  0  0  0  0  0
   -8.8781    2.8662    2.6854 H   0  0  0  0  0  0  0  0  0  0  0  0
   -8.0128    1.3189    0.9741 H   0  0  0  0  0  0  0  0  0  0  0  0
   -8.5659    2.8058    0.2283 H   0  0  0  0  0  0  0  0  0  0  0  0
   -6.2652    3.6735   -0.0206 H   0  0  0  0  0  0  0  0  0  0  0  0
   -6.4188   -0.1524    0.7579 H   0  0  0  0  0  0  0  0  0  0  0  0
   -2.3724   -4.1350   -1.9785 H   0  0  0  0  0  0  0  0  0  0  0  0
   -2.9153   -3.7629   -0.3212 H   0  0  0  0  0  0  0  0  0  0  0  0
   -1.9337   -5.1878   -0.6206 H   0  0  0  0  0  0  0  0  0  0  0  0
    0.2914   -5.1159   -0.5973 H   0  0  0  0  0  0  0  0  0  0  0  0
    0.7111   -4.0184   -1.9255 H   0  0  0  0  0  0  0  0  0  0  0  0
    1.1649   -3.6334   -0.2468 H   0  0  0  0  0  0  0  0  0  0  0  0
    2.2903   -0.8350   -0.0118 H   0  0  0  0  0  0  0  0  0  0  0  0
    6.4799    1.9230   -1.6133 H   0  0  0  0  0  0  0  0  0  0  0  0
    8.1753   -0.7374    1.5669 H   0  0  0  0  0  0  0  0  0  0  0  0
    9.5737    0.2816    1.2969 H   0  0  0  0  0  0  0  0  0  0  0  0
    7.1729    1.1415    2.9894 H   0  0  0  0  0  0  0  0  0  0  0  0
    8.7593    0.6302    3.6016 H   0  0  0  0  0  0  0  0  0  0  0  0
    8.5915    2.1239    2.6491 H   0  0  0  0  0  0  0  0  0  0  0  0
   -1.8890    1.6294   -2.0662 H   0  0  0  0  0  0  0  0  0  0  0  0
  1  2  1  0
  2  3  1  0
  3  4  2  0
  4  5  1  0
  5  6  2  0
  6  7  1  0
  7  8  2  0
  8  9  1  0
  9 10  2  0
 10 11  1  0
 11 12  1  0
 11 13  1  0
 10 14  1  0
 14 15  2  0
 15 16  1  0
 16 17  2  0
 16 18  1  0
 18 19  1  0
 19 20  2  0
 20 21  1  0
 21 22  2  0
 22 23  1  0
 23 24  1  0
 24 25  1  0
 22 26  1  0
 26 27  2  0
 15 28  1  0
 28 29  1  0
  7 30  1  0
 30  4  1  0
 29  8  1  0
 27 19  1  0
  1 31  1  0
  1 32  1  0
  1 33  1  0
  2 34  1  0
  2 35  1  0
  3 36  1  0
  5 37  1  0
 12 38  1  0
 12 39  1  0
 12 40  1  0
 13 41  1  0
 13 42  1  0
 13 43  1  0
 18 44  1  0
 21 45  1  0
 24 46  1  0
 24 47  1  0
 25 48  1  0
 25 49  1  0
 25 50  1  0
 29 51  1  0
M  END
>  <_SMILES>  (66) 
CC/C=c1\cn/c(=C2\N=C(N(C)C)N=C(C(=O)Nc3ncc(OCC)nn3)ON2)s1

$$$$

     RDKit          3D

 51 53  0  0  0  0  0  0  0  0999 V2000
   -7.0279    4.3172    3.4729 C   0  0  0  0  0  0  0  0  0  0  0  0
   -5.9649    4.4758    2.3966 C   0  0  0  0  0  0  0  0  0  0  0  0
   -6.1280    3.4450    1.3147 C   0  0  0  0  0  0  0  0  0  0  0  0
   -5.2760    2.4605    1.0079 C   0  0  0  0  0  0  0  0  0  0  0  0
   -5.5251    1.4968   -0.0834 C   0  0  0  0  0  0  0  0  0  0  0  0
   -4.6520    0.5693   -0.3150 N   0  0  0  0  0  0  0  0  0  0  0  0
   -3.6106    0.7244    0.5924 C   0  0  0  0  0  0  0  0  0  0  0  0
   -2.5120   -0.0917    0.6222 C   0  0  0  0  0  0  0  0  0  0  0  0
   -2.4897   -1.1262   -0.2802 N   0  0  0  0  0  0  0  0  0  0  0  0
   -1.4133   -1.6683   -0.7661 C   0  0  0  0  0  0  0  0  0  0  0  0
   -1.5590   -2.6928   -1.6953 N   0  0  0  0  0  0  0  0  0  0  0  0
   -0.4381   -3.5469   -2.0503 C   0  0  0  0  0  0  0  0  0  0  0  0
   -2.8848   -3.2470   -1.9444 C   0  0  0  0  0  0  0  0  0  0  0  0
   -0.1266   -1.3033   -0.4732 N   0  0  0  0  0  0  0  0  0  0  0  0
    0.2153   -1.0503    0.7483 C   0  0  0  0  0  0  0  0  0  0  0  0
    1.6876   -0.8601    1.1111 C   0  0  0  0  0  0  0  0  0  0  0  0
    2.0301   -0.8381    2.2818 O   0  0  0  0  0  0  0  0  0  0  0  0
    2.4601   -0.7415   -0.0148 N   0  0  0  0  0  0  0  0  0  0  0  0
    3.8302   -0.5662   -0.0543 C   0  0  0  0  0  0  0  0  0  0  0  0
    4.5560   -0.4848    1.0669 N   0  0  0  0  0  0  0  0  0  0  0  0
    5.8866   -0.3140    0.8960 C   0  0  0  0  0  0  0  0  0  0  0  0
    6.4807   -0.2268   -0.3404 C   0  0  0  0  0  0  0  0  0  0  0  0
    7.8434   -0.0601   -0.4091 O   0  0  0  0  0  0  0  0  0  0  0  0
    8.3694    0.0521   -1.7336 C   0  0  0  0  0  0  0  0  0  0  0  0
    8.6752   -1.3190   -2.3126 C   0  0  0  0  0  0  0  0  0  0  0  0
    5.7205   -0.3169   -1.4435 N   0  0  0  0  0  0  0  0  0  0  0  0
    4.3706   -0.4887   -1.2930 N   0  0  0  0  0  0  0  0  0  0  0  0
   -0.5878   -0.9000    1.8176 O   0  0  0  0  0  0  0  0  0  0  0  0
   -1.5221    0.1031    1.5763 N   0  0  0  0  0  0  0  0  0  0  0  0
   -3.7738    2.0681    1.7500 S   0  0  0  0  0  0  0  0  0  0  0  0
   -6.9086    5.0904    4.2387 H   0  0  0  0  0  0  0  0  0  0  0  0
   -6.9513    3.3406    3.9629 H   0  0  0  0  0  0  0  0  0  0  0  0
   -8.0355    4.4107    3.0536 H   0  0  0  0  0  0  0  0  0  0  0  0
   -4.9752    4.4339    2.8620 H   0  0  0  0  0  0  0  0  0  0  0  0
   -6.0535    5.4703    1.9439 H   0  0  0  0  0  0  0  0  0  0  0  0
   -7.0417    3.5410    0.7298 H   0  0  0  0  0  0  0  0  0  0  0  0
   -6.4503    1.5925   -0.6723 H   0  0  0  0  0  0  0  0  0  0  0  0
   -0.1646   -4.1878   -1.2056 H   0  0  0  0  0  0  0  0  0  0  0  0
    0.4357   -2.9541   -2.3414 H   0  0  0  0  0  0  0  0  0  0  0  0
   -0.6768   -4.1911   -2.9033 H   0  0  0  0  0  0  0  0  0  0  0  0
   -2.8836   -3.9100   -2.8164 H   0  0  0  0  0  0  0  0  0  0  0  0
   -3.2265   -3.8239   -1.0786 H   0  0  0  0  0  0  0  0  0  0  0  0
   -3.6125   -2.4557   -2.1551 H   0  0  0  0  0  0  0  0  0  0  0  0
    1.9961   -0.7929   -0.9133 H   0  0  0  0  0  0  0  0  0  0  0  0
    6.4717   -0.2488    1.8064 H   0  0  0  0  0  0  0  0  0  0  0  0
    7.7266    0.6456   -2.3950 H   0  0  0  0  0  0  0  0  0  0  0  0
    9.3093    0.6089   -1.6462 H   0  0  0  0  0  0  0  0  0  0  0  0
    9.3391   -1.8781   -1.6450 H   0  0  0  0  0  0  0  0  0  0  0  0
    7.7648   -1.9151   -2.4283 H   0  0  0  0  0  0  0  0  0  0  0  0
    9.1559   -1.2266   -3.2907 H   0  0  0  0  0  0  0  0  0  0  0  0
   -1.8534    0.5807    2.4125 H   0  0  0  0  0  0  0  0  0  0  0  0
  1  2  1  0
  2  3  1  0
  3  4  2  0
  4  5  1  0
  5  6  2  0
  6  7  1  0
  7  8  2  0
  8  9  1  0
  9 10  2  0
 10 11  1  0
 11 12  1  0
 11 13  1  0
 10 14  1  0
 14 15  2  0
 15 16  1  0
 16 17  2  0
 16 18  1  0
 18 19  1  0
 19 20  2  0
 20 21  1  0
 21 22  2  0
 22 23  1  0
 23 24  1  0
 24 25  1  0
 22 26  1  0
 26 27  2  0
 15 28  1  0
 28 29  1  0
  7 30  1  0
 30  4  1  0
 29  8  1  0
 27 19  1  0
  1 31  1  0
  1 32  1  0
  1 33  1  0
  2 34  1  0
  2 35  1  0
  3 36  1  0
  5 37  1  0
 12 38  1  0
 12 39  1  0
 12 40  1  0
 13 41  1  0
 13 42  1  0
 13 43  1  0
 18 44  1  0
 21 45  1  0
 24 46  1  0
 24 47  1  0
 25 48  1  0
 25 49  1  0
 25 50  1  0
 29 51  1  0
M  END
>  <_SMILES>  (67) 
CC/C=c1/cn/c(=C2\N=C(N(C)C)N=C(C(=O)Nc3ncc(OCC)nn3)ON2)s1

$$$$

     RDKit          3D

 51 53  0  0  0  0  0  0  0  0999 V2000
   -8.1920   -1.4188    3.2282 C   0  0  0  0  0  0  0  0  0  0  0  0
   -7.7841   -2.0574    1.9096 C   0  0  0  0  0  0  0  0  0  0  0  0
   -6.9907   -1.1033    1.0652 C   0  0  0  0  0  0  0  0  0  0  0  0
   -5.7000   -1.2022    0.7262 C   0  0  0  0  0  0  0  0  0  0  0  0
   -4.7435   -2.2601    1.1152 C   0  0  0  0  0  0  0  0  0  0  0  0
   -3.5183   -2.1946    0.6929 N   0  0  0  0  0  0  0  0  0  0  0  0
   -3.4043   -1.0433   -0.0826 C   0  0  0  0  0  0  0  0  0  0  0  0
   -2.2178   -0.7126   -0.6736 C   0  0  0  0  0  0  0  0  0  0  0  0
   -2.1664    0.3923   -1.4825 N   0  0  0  0  0  0  0  0  0  0  0  0
   -1.0854    1.0551   -1.7711 C   0  0  0  0  0  0  0  0  0  0  0  0
   -1.2059    2.1613   -2.6076 N   0  0  0  0  0  0  0  0  0  0  0  0
   -2.5354    2.6482   -2.9599 C   0  0  0  0  0  0  0  0  0  0  0  0
   -0.1369    3.1442   -2.6953 C   0  0  0  0  0  0  0  0  0  0  0  0
    0.1759    0.7927   -1.3082 N   0  0  0  0  0  0  0  0  0  0  0  0
    0.6138   -0.4230   -1.2361 C   0  0  0  0  0  0  0  0  0  0  0  0
    2.0915   -0.6929   -0.9506 C   0  0  0  0  0  0  0  0  0  0  0  0
    2.5524   -1.8144   -1.0836 O   0  0  0  0  0  0  0  0  0  0  0  0
    2.7392    0.4500   -0.5632 N   0  0  0  0  0  0  0  0  0  0  0  0
    4.0766    0.5549   -0.2374 C   0  0  0  0  0  0  0  0  0  0  0  0
    4.4687    1.7963    0.1002 N   0  0  0  0  0  0  0  0  0  0  0  0
    5.7774    1.9228    0.4253 C   0  0  0  0  0  0  0  0  0  0  0  0
    6.6639    0.8715    0.4153 C   0  0  0  0  0  0  0  0  0  0  0  0
    7.9717    1.1062    0.7679 O   0  0  0  0  0  0  0  0  0  0  0  0
    8.8225   -0.0420    0.7096 C   0  0  0  0  0  0  0  0  0  0  0  0
    8.7761   -0.8176    2.0154 C   0  0  0  0  0  0  0  0  0  0  0  0
    6.2298   -0.3496    0.0713 N   0  0  0  0  0  0  0  0  0  0  0  0
    4.9093   -0.5061   -0.2613 N   0  0  0  0  0  0  0  0  0  0  0  0
   -0.0835   -1.5670   -1.3589 O   0  0  0  0  0  0  0  0  0  0  0  0
   -1.1490   -1.5726   -0.4660 N   0  0  0  0  0  0  0  0  0  0  0  0
   -4.8647   -0.0599   -0.2668 S   0  0  0  0  0  0  0  0  0  0  0  0
   -8.7927   -0.5177    3.0647 H   0  0  0  0  0  0  0  0  0  0  0  0
   -7.3137   -1.1409    3.8207 H   0  0  0  0  0  0  0  0  0  0  0  0
   -8.7904   -2.1201    3.8186 H   0  0  0  0  0  0  0  0  0  0  0  0
   -7.2362   -2.9822    2.1118 H   0  0  0  0  0  0  0  0  0  0  0  0
   -8.6836   -2.3468    1.3536 H   0  0  0  0  0  0  0  0  0  0  0  0
   -7.5555   -0.2491    0.6916 H   0  0  0  0  0  0  0  0  0  0  0  0
   -5.0869   -3.0831    1.7574 H   0  0  0  0  0  0  0  0  0  0  0  0
   -2.4867    3.4011   -3.7540 H   0  0  0  0  0  0  0  0  0  0  0  0
   -3.0201    3.1016   -2.0889 H   0  0  0  0  0  0  0  0  0  0  0  0
   -3.1675    1.8371   -3.3376 H   0  0  0  0  0  0  0  0  0  0  0  0
    0.8244    2.6662   -2.9123 H   0  0  0  0  0  0  0  0  0  0  0  0
   -0.0517    3.7011   -1.7563 H   0  0  0  0  0  0  0  0  0  0  0  0
   -0.3173    3.8622   -3.5026 H   0  0  0  0  0  0  0  0  0  0  0  0
    2.2078    1.3087   -0.5123 H   0  0  0  0  0  0  0  0  0  0  0  0
    6.0998    2.9204    0.7019 H   0  0  0  0  0  0  0  0  0  0  0  0
    8.6132   -0.6799   -0.1576 H   0  0  0  0  0  0  0  0  0  0  0  0
    9.8412    0.3364    0.5674 H   0  0  0  0  0  0  0  0  0  0  0  0
    9.0146   -0.1621    2.8596 H   0  0  0  0  0  0  0  0  0  0  0  0
    9.4917   -1.6446    1.9988 H   0  0  0  0  0  0  0  0  0  0  0  0
    7.7781   -1.2258    2.2016 H   0  0  0  0  0  0  0  0  0  0  0  0
   -1.4598   -2.4981   -0.1638 H   0  0  0  0  0  0  0  0  0  0  0  0
  1  2  1  0
  2  3  1  0
  3  4  2  0
  4  5  1  0
  5  6  2  0
  6  7  1  0
  7  8  2  0
  8  9  1  0
  9 10  2  0
 10 11  1  0
 11 12  1  0
 11 13  1  0
 10 14  1  0
 14 15  2  0
 15 16  1  0
 16 17  2  0
 16 18  1  0
 18 19  1  0
 19 20  2  0
 20 21  1  0
 21 22  2  0
 22 23  1  0
 23 24  1  0
 24 25  1  0
 22 26  1  0
 26 27  2  0
 15 28  1  0
 28 29  1  0
  7 30  1  0
 30  4  1  0
 29  8  1  0
 27 19  1  0
  1 31  1  0
  1 32  1  0
  1 33  1  0
  2 34  1  0
  2 35  1  0
  3 36  1  0
  5 37  1  0
 12 38  1  0
 12 39  1  0
 12 40  1  0
 13 41  1  0
 13 42  1  0
 13 43  1  0
 18 44  1  0
 21 45  1  0
 24 46  1  0
 24 47  1  0
 25 48  1  0
 25 49  1  0
 25 50  1  0
 29 51  1  0
M  END
>  <_SMILES>  (68) 
CC/C=c1\cn/c(=C2/N=C(N(C)C)N=C(C(=O)Nc3ncc(OCC)nn3)ON2)s1

$$$$

     RDKit          3D

 51 53  0  0  0  0  0  0  0  0999 V2000
    8.7382    2.5347    0.6168 C   0  0  0  0  0  0  0  0  0  0  0  0
    7.5825    2.1724    1.5369 C   0  0  0  0  0  0  0  0  0  0  0  0
    6.4285    3.1194    1.3598 C   0  0  0  0  0  0  0  0  0  0  0  0
    5.2129    2.8225    0.8871 C   0  0  0  0  0  0  0  0  0  0  0  0
    4.1374    3.8275    0.7552 C   0  0  0  0  0  0  0  0  0  0  0  0
    2.9857    3.4628    0.2832 N   0  0  0  0  0  0  0  0  0  0  0  0
    3.0655    2.1003    0.0009 C   0  0  0  0  0  0  0  0  0  0  0  0
    1.9950    1.4294   -0.5190 C   0  0  0  0  0  0  0  0  0  0  0  0
    2.1378    0.1059   -0.8441 N   0  0  0  0  0  0  0  0  0  0  0  0
    1.1606   -0.7455   -0.9491 C   0  0  0  0  0  0  0  0  0  0  0  0
    1.4772   -2.0593   -1.2837 N   0  0  0  0  0  0  0  0  0  0  0  0
    0.5132   -3.1296   -1.0791 C   0  0  0  0  0  0  0  0  0  0  0  0
    2.8764   -2.4724   -1.3060 C   0  0  0  0  0  0  0  0  0  0  0  0
   -0.1667   -0.4888   -0.7333 N   0  0  0  0  0  0  0  0  0  0  0  0
   -0.7085    0.6023   -1.1709 C   0  0  0  0  0  0  0  0  0  0  0  0
   -2.2283    0.7709   -1.1394 C   0  0  0  0  0  0  0  0  0  0  0  0
   -2.7550    1.6998   -1.7291 O   0  0  0  0  0  0  0  0  0  0  0  0
   -2.8173   -0.2250   -0.4047 N   0  0  0  0  0  0  0  0  0  0  0  0
   -4.1701   -0.3858   -0.1750 C   0  0  0  0  0  0  0  0  0  0  0  0
   -5.0698    0.4721   -0.6695 N   0  0  0  0  0  0  0  0  0  0  0  0
   -6.3623    0.2051   -0.3749 C   0  0  0  0  0  0  0  0  0  0  0  0
   -6.7532   -0.8730    0.3830 C   0  0  0  0  0  0  0  0  0  0  0  0
   -8.0937   -1.0623    0.6214 O   0  0  0  0  0  0  0  0  0  0  0  0
   -8.4050   -2.1901    1.4428 C   0  0  0  0  0  0  0  0  0  0  0  0
   -8.5456   -3.4488    0.6034 C   0  0  0  0  0  0  0  0  0  0  0  0
   -5.8219   -1.7147    0.8599 N   0  0  0  0  0  0  0  0  0  0  0  0
   -4.5071   -1.4620    0.5741 N   0  0  0  0  0  0  0  0  0  0  0  0
   -0.0974    1.6960   -1.6614 O   0  0  0  0  0  0  0  0  0  0  0  0
    0.8417    2.1651   -0.7500 N   0  0  0  0  0  0  0  0  0  0  0  0
    4.6142    1.3074    0.3344 S   0  0  0  0  0  0  0  0  0  0  0  0
    9.0930    3.5536    0.8060 H   0  0  0  0  0  0  0  0  0  0  0  0
    8.4417    2.4663   -0.4354 H   0  0  0  0  0  0  0  0  0  0  0  0
    9.5776    1.8505    0.7770 H   0  0  0  0  0  0  0  0  0  0  0  0
    7.2952    1.1316    1.3580 H   0  0  0  0  0  0  0  0  0  0  0  0
    7.9186    2.2270    2.5790 H   0  0  0  0  0  0  0  0  0  0  0  0
    6.6314    4.1449    1.6644 H   0  0  0  0  0  0  0  0  0  0  0  0
    4.3438    4.8648    1.0615 H   0  0  0  0  0  0  0  0  0  0  0  0
   -0.4493   -2.8905   -1.5438 H   0  0  0  0  0  0  0  0  0  0  0  0
    0.8533   -4.0676   -1.5311 H   0  0  0  0  0  0  0  0  0  0  0  0
    0.3566   -3.3037   -0.0094 H   0  0  0  0  0  0  0  0  0  0  0  0
    2.9915   -3.4664   -1.7515 H   0  0  0  0  0  0  0  0  0  0  0  0
    3.2820   -2.5050   -0.2893 H   0  0  0  0  0  0  0  0  0  0  0  0
    3.4823   -1.7880   -1.9098 H   0  0  0  0  0  0  0  0  0  0  0  0
   -2.2139   -0.9246    0.0079 H   0  0  0  0  0  0  0  0  0  0  0  0
   -7.0886    0.9018   -0.7779 H   0  0  0  0  0  0  0  0  0  0  0  0
   -9.3731   -1.9743    1.9090 H   0  0  0  0  0  0  0  0  0  0  0  0
   -7.6944   -2.3213    2.2678 H   0  0  0  0  0  0  0  0  0  0  0  0
   -9.2797   -3.2976   -0.1950 H   0  0  0  0  0  0  0  0  0  0  0  0
   -8.8670   -4.2916    1.2221 H   0  0  0  0  0  0  0  0  0  0  0  0
   -7.6002   -3.7137    0.1203 H   0  0  0  0  0  0  0  0  0  0  0  0
    1.0343    3.1674   -0.7995 H   0  0  0  0  0  0  0  0  0  0  0  0
  1  2  1  0
  2  3  1  0
  3  4  2  0
  4  5  1  0
  5  6  2  0
  6  7  1  0
  7  8  2  0
  8  9  1  0
  9 10  2  0
 10 11  1  0
 11 12  1  0
 11 13  1  0
 10 14  1  0
 14 15  2  0
 15 16  1  0
 16 17  2  0
 16 18  1  0
 18 19  1  0
 19 20  2  0
 20 21  1  0
 21 22  2  0
 22 23  1  0
 23 24  1  0
 24 25  1  0
 22 26  1  0
 26 27  2  0
 15 28  1  0
 28 29  1  0
  7 30  1  0
 30  4  1  0
 29  8  1  0
 27 19  1  0
  1 31  1  0
  1 32  1  0
  1 33  1  0
  2 34  1  0
  2 35  1  0
  3 36  1  0
  5 37  1  0
 12 38  1  0
 12 39  1  0
 12 40  1  0
 13 41  1  0
 13 42  1  0
 13 43  1  0
 18 44  1  0
 21 45  1  0
 24 46  1  0
 24 47  1  0
 25 48  1  0
 25 49  1  0
 25 50  1  0
 29 51  1  0
M  END
>  <_SMILES>  (69) 
CC/C=c1/cn/c(=C2/N=C(N(C)C)N=C(C(=O)Nc3ncc(OCC)nn3)ON2)s1

$$$$

     RDKit          3D

 37 40  0  0  0  0  0  0  0  0999 V2000
    1.9066    0.4160    1.6519 O   0  0  0  0  0  0  0  0  0  0  0  0
    2.1844   -0.0541    0.5522 C   0  0  0  0  0  0  0  0  0  0  0  0
    1.2182   -0.2852   -0.4135 N   0  0  0  0  0  0  0  0  0  0  0  0
   -0.2137   -0.0086   -0.2552 C   0  0  2  0  0  0  0  0  0  0  0  0
   -0.4861    1.4967   -0.0099 C   0  0  0  0  0  0  0  0  0  0  0  0
   -1.9982    1.7633    0.0971 C   0  0  1  0  0  0  0  0  0  0  0  0
   -2.6819    1.3469   -1.2144 C   0  0  0  0  0  0  0  0  0  0  0  0
   -2.4470   -0.1488   -1.4760 C   0  0  2  0  0  0  0  0  0  0  0  0
   -3.0293   -0.9669   -0.3132 C   0  0  0  0  0  0  0  0  0  0  0  0
   -2.3477   -0.5645    1.0039 C   0  0  2  0  0  0  0  0  0  0  0  0
   -2.5777    0.9353    1.2568 C   0  0  0  0  0  0  0  0  0  0  0  0
   -0.8362   -0.8347    0.8983 C   0  0  0  0  0  0  0  0  0  0  0  0
   -0.9359   -0.4125   -1.5704 C   0  0  0  0  0  0  0  0  0  0  0  0
    3.5387   -0.4110    0.1579 C   0  0  0  0  0  0  0  0  0  0  0  0
    4.0911   -0.9437   -0.9968 C   0  0  0  0  0  0  0  0  0  0  0  0
    5.4855   -1.0659   -0.7728 C   0  0  0  0  0  0  0  0  0  0  0  0
    5.7078   -0.6034    0.5003 C   0  0  0  0  0  0  0  0  0  0  0  0
    4.5439   -0.2067    1.0700 O   0  0  0  0  0  0  0  0  0  0  0  0
    1.5173   -0.6735   -1.2948 H   0  0  0  0  0  0  0  0  0  0  0  0
   -0.0578    2.0952   -0.8246 H   0  0  0  0  0  0  0  0  0  0  0  0
    0.0004    1.8401    0.9103 H   0  0  0  0  0  0  0  0  0  0  0  0
   -2.1722    2.8294    0.2813 H   0  0  0  0  0  0  0  0  0  0  0  0
   -2.2870    1.9403   -2.0482 H   0  0  0  0  0  0  0  0  0  0  0  0
   -3.7578    1.5532   -1.1584 H   0  0  0  0  0  0  0  0  0  0  0  0
   -2.9331   -0.4410   -2.4135 H   0  0  0  0  0  0  0  0  0  0  0  0
   -4.1111   -0.7998   -0.2419 H   0  0  0  0  0  0  0  0  0  0  0  0
   -2.8843   -2.0383   -0.4984 H   0  0  0  0  0  0  0  0  0  0  0  0
   -2.7693   -1.1475    1.8304 H   0  0  0  0  0  0  0  0  0  0  0  0
   -3.6512    1.1364    1.3594 H   0  0  0  0  0  0  0  0  0  0  0  0
   -2.1065    1.2326    2.2017 H   0  0  0  0  0  0  0  0  0  0  0  0
   -0.3644   -0.5901    1.8569 H   0  0  0  0  0  0  0  0  0  0  0  0
   -0.6585   -1.9056    0.7337 H   0  0  0  0  0  0  0  0  0  0  0  0
   -0.5158    0.1459   -2.4179 H   0  0  0  0  0  0  0  0  0  0  0  0
   -0.7591   -1.4747   -1.7867 H   0  0  0  0  0  0  0  0  0  0  0  0
    3.5636   -1.2160   -1.8991 H   0  0  0  0  0  0  0  0  0  0  0  0
    6.2351   -1.4437   -1.4539 H   0  0  0  0  0  0  0  0  0  0  0  0
    6.5891   -0.4953    1.1174 H   0  0  0  0  0  0  0  0  0  0  0  0
  1  2  2  0
  2  3  1  0
  4  3  1  6
  4  5  1  0
  5  6  1  0
  6  7  1  0
  7  8  1  0
  8  9  1  0
  9 10  1  0
 10 11  1  0
 10 12  1  0
  8 13  1  0
  2 14  1  0
 14 15  2  0
 15 16  1  0
 16 17  2  0
 17 18  1  0
 12  4  1  0
 18 14  1  0
 13  4  1  0
 11  6  1  0
  3 19  1  0
  5 20  1  0
  5 21  1  0
  6 22  1  1
  7 23  1  0
  7 24  1  0
  8 25  1  6
  9 26  1  0
  9 27  1  0
 10 28  1  1
 11 29  1  0
 11 30  1  0
 12 31  1  0
 12 32  1  0
 13 33  1  0
 13 34  1  0
 15 35  1  0
 16 36  1  0
 17 37  1  0
M  END
>  <_SMILES>  (70) 
O=C(N[C@]12C[C@H]3C[C@H](C[C@H](C3)C1)C2)c1ccco1

$$$$

     RDKit          3D

 38 41  0  0  0  0  0  0  0  0999 V2000
    7.7114   -0.3664   -0.4701 C   0  0  0  0  0  0  0  0  0  0  0  0
    6.6389   -0.2972    0.0651 C   0  0  0  0  0  0  0  0  0  0  0  0
    5.3679   -0.2152    0.7002 C   0  0  0  0  0  0  0  0  0  0  0  0
    5.1443   -0.1501    2.0577 C   0  0  0  0  0  0  0  0  0  0  0  0
    3.8190   -0.0759    2.4424 N   0  0  0  0  0  0  0  0  0  0  0  0
    3.0413   -0.0850    1.3752 C   0  0  0  0  0  0  0  0  0  0  0  0
    1.5746   -0.0170    1.4548 C   0  0  0  0  0  0  0  0  0  0  0  0
    0.9616    0.0534    2.5186 O   0  0  0  0  0  0  0  0  0  0  0  0
    0.9037   -0.0369    0.2376 N   0  0  0  0  0  0  0  0  0  0  0  0
   -0.5510    0.0204    0.0658 C   0  0  2  0  0  0  0  0  0  0  0  0
   -1.2574   -1.1866    0.7320 C   0  0  0  0  0  0  0  0  0  0  0  0
   -2.7758   -1.1277    0.4879 C   0  0  1  0  0  0  0  0  0  0  0  0
   -3.3316    0.1840    1.0683 C   0  0  0  0  0  0  0  0  0  0  0  0
   -2.6646    1.3903    0.3854 C   0  0  2  0  0  0  0  0  0  0  0  0
   -2.9392    1.3333   -1.1255 C   0  0  0  0  0  0  0  0  0  0  0  0
   -2.3775    0.0287   -1.7114 C   0  0  2  0  0  0  0  0  0  0  0  0
   -3.0497   -1.1696   -1.0236 C   0  0  0  0  0  0  0  0  0  0  0  0
   -0.8632   -0.0278   -1.4553 C   0  0  0  0  0  0  0  0  0  0  0  0
   -1.1460    1.3349    0.6293 C   0  0  0  0  0  0  0  0  0  0  0  0
    3.8744   -0.1831   -0.1305 S   0  0  0  0  0  0  0  0  0  0  0  0
    8.6629   -0.4278   -0.9453 H   0  0  0  0  0  0  0  0  0  0  0  0
    5.9131   -0.1530    2.8215 H   0  0  0  0  0  0  0  0  0  0  0  0
    1.4751   -0.0961   -0.5958 H   0  0  0  0  0  0  0  0  0  0  0  0
   -0.8513   -2.1268    0.3362 H   0  0  0  0  0  0  0  0  0  0  0  0
   -1.0720   -1.2040    1.8122 H   0  0  0  0  0  0  0  0  0  0  0  0
   -3.2606   -1.9816    0.9743 H   0  0  0  0  0  0  0  0  0  0  0  0
   -4.4180    0.2261    0.9228 H   0  0  0  0  0  0  0  0  0  0  0  0
   -3.1538    0.2202    2.1501 H   0  0  0  0  0  0  0  0  0  0  0  0
   -3.0706    2.3202    0.7991 H   0  0  0  0  0  0  0  0  0  0  0  0
   -4.0182    1.3946   -1.3131 H   0  0  0  0  0  0  0  0  0  0  0  0
   -2.4800    2.1964   -1.6229 H   0  0  0  0  0  0  0  0  0  0  0  0
   -2.5724   -0.0066   -2.7891 H   0  0  0  0  0  0  0  0  0  0  0  0
   -2.6701   -2.1072   -1.4477 H   0  0  0  0  0  0  0  0  0  0  0  0
   -4.1306   -1.1507   -1.2094 H   0  0  0  0  0  0  0  0  0  0  0  0
   -0.4478   -0.9437   -1.8967 H   0  0  0  0  0  0  0  0  0  0  0  0
   -0.3703    0.8092   -1.9681 H   0  0  0  0  0  0  0  0  0  0  0  0
   -0.6602    2.2005    0.1600 H   0  0  0  0  0  0  0  0  0  0  0  0
   -0.9559    1.4235    1.7052 H   0  0  0  0  0  0  0  0  0  0  0  0
  1  2  3  0
  2  3  1  0
  3  4  2  0
  4  5  1  0
  5  6  2  0
  6  7  1  0
  7  8  2  0
  7  9  1  0
 10  9  1  6
 10 11  1  0
 11 12  1  0
 12 13  1  0
 13 14  1  0
 14 15  1  0
 15 16  1  0
 16 17  1  0
 16 18  1  0
 14 19  1  0
  6 20  1  0
 20  3  1  0
 18 10  1  0
 19 10  1  0
 17 12  1  0
  1 21  1  0
  4 22  1  0
  9 23  1  0
 11 24  1  0
 11 25  1  0
 12 26  1  1
 13 27  1  0
 13 28  1  0
 14 29  1  1
 15 30  1  0
 15 31  1  0
 16 32  1  6
 17 33  1  0
 17 34  1  0
 18 35  1  0
 18 36  1  0
 19 37  1  0
 19 38  1  0
M  END
>  <_SMILES>  (71) 
C#Cc1cnc(C(=O)N[C@]23C[C@H]4C[C@H](C[C@H](C4)C2)C3)s1

$$$$

     RDKit          3D

 45 48  0  0  0  0  0  0  0  0999 V2000
    5.5777    0.8312    1.5943 C   0  0  0  0  0  0  0  0  0  0  0  0
    6.2029   -0.2564    0.7322 C   0  0  0  0  0  0  0  0  0  0  0  0
    5.2570   -1.4277    0.4700 C   0  0  0  0  0  0  0  0  0  0  0  0
    4.1195   -1.0817   -0.3530 N   0  0  0  0  0  0  0  0  0  0  0  0
    2.8182   -0.9365    0.0277 C   0  0  0  0  0  0  0  0  0  0  0  0
    2.1536   -0.6270   -1.1465 C   0  0  0  0  0  0  0  0  0  0  0  0
    0.7331   -0.3576   -1.3735 C   0  0  0  0  0  0  0  0  0  0  0  0
    0.2725   -0.1902   -2.4976 O   0  0  0  0  0  0  0  0  0  0  0  0
   -0.0428   -0.2989   -0.2270 N   0  0  0  0  0  0  0  0  0  0  0  0
   -1.4783    0.0011   -0.2029 C   0  0  2  0  0  0  0  0  0  0  0  0
   -2.3012   -1.0418   -1.0009 C   0  0  0  0  0  0  0  0  0  0  0  0
   -3.8055   -0.7289   -0.9112 C   0  0  1  0  0  0  0  0  0  0  0  0
   -4.2476   -0.7748    0.5596 C   0  0  0  0  0  0  0  0  0  0  0  0
   -3.4624    0.2639    1.3751 C   0  0  2  0  0  0  0  0  0  0  0  0
   -3.7273    1.6658    0.8044 C   0  0  0  0  0  0  0  0  0  0  0  0
   -3.2824    1.7265   -0.6653 C   0  0  2  0  0  0  0  0  0  0  0  0
   -4.0643    0.6785   -1.4756 C   0  0  0  0  0  0  0  0  0  0  0  0
   -1.7774    1.4172   -0.7548 C   0  0  0  0  0  0  0  0  0  0  0  0
   -1.9607   -0.0462    1.2733 C   0  0  0  0  0  0  0  0  0  0  0  0
    3.0756   -0.6108   -2.1703 N   0  0  0  0  0  0  0  0  0  0  0  0
    4.2711   -0.8917   -1.6702 N   0  0  0  0  0  0  0  0  0  0  0  0
    6.3156    1.6106    1.8098 H   0  0  0  0  0  0  0  0  0  0  0  0
    4.7307    1.3047    1.0886 H   0  0  0  0  0  0  0  0  0  0  0  0
    5.2274    0.4236    2.5478 H   0  0  0  0  0  0  0  0  0  0  0  0
    6.5389    0.1830   -0.2143 H   0  0  0  0  0  0  0  0  0  0  0  0
    7.0953   -0.6360    1.2436 H   0  0  0  0  0  0  0  0  0  0  0  0
    4.8787   -1.8395    1.4125 H   0  0  0  0  0  0  0  0  0  0  0  0
    5.7907   -2.2327   -0.0486 H   0  0  0  0  0  0  0  0  0  0  0  0
    2.4999   -1.0662    1.0500 H   0  0  0  0  0  0  0  0  0  0  0  0
    0.4312   -0.3508    0.6615 H   0  0  0  0  0  0  0  0  0  0  0  0
   -2.1055   -2.0512   -0.6157 H   0  0  0  0  0  0  0  0  0  0  0  0
   -2.0054   -1.0543   -2.0561 H   0  0  0  0  0  0  0  0  0  0  0  0
   -4.3708   -1.4685   -1.4893 H   0  0  0  0  0  0  0  0  0  0  0  0
   -5.3236   -0.5747    0.6342 H   0  0  0  0  0  0  0  0  0  0  0  0
   -4.0812   -1.7782    0.9702 H   0  0  0  0  0  0  0  0  0  0  0  0
   -3.7780    0.2259    2.4237 H   0  0  0  0  0  0  0  0  0  0  0  0
   -3.1864    2.4182    1.3913 H   0  0  0  0  0  0  0  0  0  0  0  0
   -4.7944    1.9072    0.8834 H   0  0  0  0  0  0  0  0  0  0  0  0
   -3.4777    2.7264   -1.0687 H   0  0  0  0  0  0  0  0  0  0  0  0
   -3.7649    0.7203   -2.5301 H   0  0  0  0  0  0  0  0  0  0  0  0
   -5.1373    0.9035   -1.4403 H   0  0  0  0  0  0  0  0  0  0  0  0
   -1.4566    1.5071   -1.7992 H   0  0  0  0  0  0  0  0  0  0  0  0
   -1.2075    2.1690   -0.1932 H   0  0  0  0  0  0  0  0  0  0  0  0
   -1.7567   -1.0354    1.7049 H   0  0  0  0  0  0  0  0  0  0  0  0
   -1.3938    0.6740    1.8785 H   0  0  0  0  0  0  0  0  0  0  0  0
  1  2  1  0
  2  3  1  0
  3  4  1  0
  4  5  1  0
  5  6  2  0
  6  7  1  0
  7  8  2  0
  7  9  1  0
 10  9  1  1
 10 11  1  0
 11 12  1  0
 12 13  1  0
 13 14  1  0
 14 15  1  0
 15 16  1  0
 16 17  1  0
 16 18  1  0
 14 19  1  0
  6 20  1  0
 20 21  2  0
 21  4  1  0
 18 10  1  0
 19 10  1  0
 17 12  1  0
  1 22  1  0
  1 23  1  0
  1 24  1  0
  2 25  1  0
  2 26  1  0
  3 27  1  0
  3 28  1  0
  5 29  1  0
  9 30  1  0
 11 31  1  0
 11 32  1  0
 12 33  1  6
 13 34  1  0
 13 35  1  0
 14 36  1  1
 15 37  1  0
 15 38  1  0
 16 39  1  6
 17 40  1  0
 17 41  1  0
 18 42  1  0
 18 43  1  0
 19 44  1  0
 19 45  1  0
M  END
>  <_SMILES>  (72) 
CCCn1cc(C(=O)N[C@]23C[C@H]4C[C@H](C[C@H](C4)C2)C3)nn1

$$$$

     RDKit          3D

 50 54  0  0  0  0  0  0  0  0999 V2000
   -0.9023   -0.0666    2.6013 O   0  0  0  0  0  0  0  0  0  0  0  0
   -0.4808   -0.3308    1.4783 C   0  0  0  0  0  0  0  0  0  0  0  0
   -1.2469   -0.1773    0.3354 N   0  0  0  0  0  0  0  0  0  0  0  0
   -2.6232    0.3124    0.2792 C   0  0  2  0  0  0  0  0  0  0  0  0
   -3.5895   -0.6027    1.0716 C   0  0  0  0  0  0  0  0  0  0  0  0
   -5.0368   -0.0927    0.9539 C   0  0  1  0  0  0  0  0  0  0  0  0
   -5.1144    1.3416    1.5043 C   0  0  0  0  0  0  0  0  0  0  0  0
   -4.1857    2.2681    0.7010 C   0  0  2  0  0  0  0  0  0  0  0  0
   -4.6105    2.2552   -0.7758 C   0  0  0  0  0  0  0  0  0  0  0  0
   -4.5265    0.8257   -1.3333 C   0  0  2  0  0  0  0  0  0  0  0  0
   -5.4567   -0.0918   -0.5244 C   0  0  0  0  0  0  0  0  0  0  0  0
   -3.0814    0.3185   -1.2042 C   0  0  0  0  0  0  0  0  0  0  0  0
   -2.7378    1.7598    0.8185 C   0  0  0  0  0  0  0  0  0  0  0  0
    0.8623   -0.8341    1.1915 C   0  0  0  0  0  0  0  0  0  0  0  0
    1.2740   -1.1091   -0.0340 N   0  0  0  0  0  0  0  0  0  0  0  0
    2.5815   -1.5570    0.0247 C   0  0  0  0  0  0  0  0  0  0  0  0
    3.1546   -1.6304    1.2843 C   0  0  0  0  0  0  0  0  0  0  0  0
    4.3647   -2.0058    1.7192 O   0  0  0  0  0  0  0  0  0  0  0  0
    5.2940   -2.4934    0.7503 C   0  0  0  0  0  0  0  0  0  0  0  0
    5.9875   -1.3812   -0.0060 C   0  0  0  0  0  0  0  0  0  0  0  0
    6.3835   -0.2038    0.6438 C   0  0  0  0  0  0  0  0  0  0  0  0
    7.0425    0.8088   -0.0580 C   0  0  0  0  0  0  0  0  0  0  0  0
    7.3255    0.6540   -1.4171 C   0  0  0  0  0  0  0  0  0  0  0  0
    8.1419    1.9456   -2.2225 Cl  0  0  0  0  0  0  0  0  0  0  0  0
    6.9501   -0.5224   -2.0729 C   0  0  0  0  0  0  0  0  0  0  0  0
    7.2714   -0.7927   -3.7492 Cl  0  0  0  0  0  0  0  0  0  0  0  0
    6.2894   -1.5359   -1.3676 C   0  0  0  0  0  0  0  0  0  0  0  0
    1.9971   -1.0991    2.4412 S   0  0  0  0  0  0  0  0  0  0  0  0
   -0.7735   -0.4253   -0.5301 H   0  0  0  0  0  0  0  0  0  0  0  0
   -3.3111   -0.6431    2.1311 H   0  0  0  0  0  0  0  0  0  0  0  0
   -3.5249   -1.6331    0.6980 H   0  0  0  0  0  0  0  0  0  0  0  0
   -5.7052   -0.7450    1.5269 H   0  0  0  0  0  0  0  0  0  0  0  0
   -4.8297    1.3525    2.5636 H   0  0  0  0  0  0  0  0  0  0  0  0
   -6.1469    1.7079    1.4485 H   0  0  0  0  0  0  0  0  0  0  0  0
   -4.2511    3.2886    1.0948 H   0  0  0  0  0  0  0  0  0  0  0  0
   -3.9641    2.9235   -1.3578 H   0  0  0  0  0  0  0  0  0  0  0  0
   -5.6342    2.6366   -0.8748 H   0  0  0  0  0  0  0  0  0  0  0  0
   -4.8277    0.8214   -2.3868 H   0  0  0  0  0  0  0  0  0  0  0  0
   -5.4191   -1.1121   -0.9255 H   0  0  0  0  0  0  0  0  0  0  0  0
   -6.4949    0.2494   -0.6190 H   0  0  0  0  0  0  0  0  0  0  0  0
   -3.0052   -0.6924   -1.6268 H   0  0  0  0  0  0  0  0  0  0  0  0
   -2.4127    0.9513   -1.8031 H   0  0  0  0  0  0  0  0  0  0  0  0
   -2.0624    2.4240    0.2634 H   0  0  0  0  0  0  0  0  0  0  0  0
   -2.4253    1.8128    1.8680 H   0  0  0  0  0  0  0  0  0  0  0  0
    3.0729   -1.8183   -0.9037 H   0  0  0  0  0  0  0  0  0  0  0  0
    6.0619   -3.0543    1.2961 H   0  0  0  0  0  0  0  0  0  0  0  0
    4.8077   -3.2093    0.0754 H   0  0  0  0  0  0  0  0  0  0  0  0
    6.1752   -0.0648    1.7044 H   0  0  0  0  0  0  0  0  0  0  0  0
    7.3335    1.7176    0.4643 H   0  0  0  0  0  0  0  0  0  0  0  0
    6.0092   -2.4507   -1.8867 H   0  0  0  0  0  0  0  0  0  0  0  0
  1  2  2  0
  2  3  1  0
  4  3  1  6
  4  5  1  0
  5  6  1  0
  6  7  1  0
  7  8  1  0
  8  9  1  0
  9 10  1  0
 10 11  1  0
 10 12  1  0
  8 13  1  0
  2 14  1  0
 14 15  2  0
 15 16  1  0
 16 17  2  0
 17 18  1  0
 18 19  1  0
 19 20  1  0
 20 21  1  0
 21 22  2  0
 22 23  1  0
 23 24  1  0
 23 25  2  0
 25 26  1  0
 25 27  1  0
 17 28  1  0
 12  4  1  0
 28 14  1  0
 13  4  1  0
 27 20  2  0
 11  6  1  0
  3 29  1  0
  5 30  1  0
  5 31  1  0
  6 32  1  1
  7 33  1  0
  7 34  1  0
  8 35  1  1
  9 36  1  0
  9 37  1  0
 10 38  1  6
 11 39  1  0
 11 40  1  0
 12 41  1  0
 12 42  1  0
 13 43  1  0
 13 44  1  0
 16 45  1  0
 19 46  1  0
 19 47  1  0
 21 48  1  0
 22 49  1  0
 27 50  1  0
M  END
>  <_SMILES>  (73) 
O=C(N[C@]12C[C@H]3C[C@H](C[C@H](C3)C1)C2)c1ncc(OCc2ccc(Cl)c(Cl)c2)s1

$$$$

     RDKit          3D

 37 39  0  0  0  0  0  0  0  0999 V2000
   -7.3294    1.6260   -0.0214 C   0  0  0  0  0  0  0  0  0  0  0  0
   -6.1304    1.7264    0.7365 O   0  0  0  0  0  0  0  0  0  0  0  0
   -5.0953    0.9053    0.3803 C   0  0  0  0  0  0  0  0  0  0  0  0
   -5.1093   -0.0217   -0.6592 C   0  0  0  0  0  0  0  0  0  0  0  0
   -3.9864   -0.8138   -0.9358 C   0  0  0  0  0  0  0  0  0  0  0  0
   -2.8428   -0.6513   -0.1387 C   0  0  0  0  0  0  0  0  0  0  0  0
   -1.3293   -1.4646   -0.2291 S   0  0  0  0  0  0  0  0  0  0  0  0
   -0.7506   -0.5481    1.1044 C   0  0  0  0  0  0  0  0  0  0  0  0
    0.6050   -0.7200    1.6409 C   0  0  0  0  0  0  0  0  0  0  0  0
    1.0443   -0.0926    2.6042 O   0  0  0  0  0  0  0  0  0  0  0  0
    1.4108   -1.6495    0.9892 N   0  0  0  0  0  0  0  0  0  0  0  0
    2.7040   -2.0494    1.5067 C   0  0  0  0  0  0  0  0  0  0  0  0
    3.7794   -0.9702    1.4059 C   0  0  0  0  0  0  0  0  0  0  0  0
    3.9696   -0.4719   -0.0224 C   0  0  0  0  0  0  0  0  0  0  0  0
    5.1008    0.4219   -0.1355 N   0  0  0  0  0  0  0  0  0  0  0  0
    5.1164    1.7727    0.0125 C   0  0  0  0  0  0  0  0  0  0  0  0
    6.3356    2.2190   -0.1861 N   0  0  0  0  0  0  0  0  0  0  0  0
    7.0394    1.0787   -0.4523 C   0  0  0  0  0  0  0  0  0  0  0  0
    6.3245   -0.0499   -0.4352 N   0  0  0  0  0  0  0  0  0  0  0  0
   -1.6076    0.3180    1.6050 N   0  0  0  0  0  0  0  0  0  0  0  0
   -2.8023    0.2693    0.9079 C   0  0  0  0  0  0  0  0  0  0  0  0
   -3.9446    1.0526    1.1644 C   0  0  0  0  0  0  0  0  0  0  0  0
   -8.0462    2.3430    0.3903 H   0  0  0  0  0  0  0  0  0  0  0  0
   -7.1569    1.8918   -1.0695 H   0  0  0  0  0  0  0  0  0  0  0  0
   -7.7692    0.6271    0.0667 H   0  0  0  0  0  0  0  0  0  0  0  0
   -5.9863   -0.1592   -1.2848 H   0  0  0  0  0  0  0  0  0  0  0  0
   -4.0052   -1.5344   -1.7480 H   0  0  0  0  0  0  0  0  0  0  0  0
    0.9676   -2.2405    0.2957 H   0  0  0  0  0  0  0  0  0  0  0  0
    3.0111   -2.9375    0.9436 H   0  0  0  0  0  0  0  0  0  0  0  0
    2.5748   -2.3457    2.5537 H   0  0  0  0  0  0  0  0  0  0  0  0
    4.7220   -1.3845    1.7858 H   0  0  0  0  0  0  0  0  0  0  0  0
    3.5367   -0.1225    2.0573 H   0  0  0  0  0  0  0  0  0  0  0  0
    3.0875    0.0754   -0.3732 H   0  0  0  0  0  0  0  0  0  0  0  0
    4.1405   -1.3063   -0.7125 H   0  0  0  0  0  0  0  0  0  0  0  0
    4.2439    2.3619    0.2586 H   0  0  0  0  0  0  0  0  0  0  0  0
    8.1008    1.0722   -0.6650 H   0  0  0  0  0  0  0  0  0  0  0  0
   -3.9228    1.7723    1.9775 H   0  0  0  0  0  0  0  0  0  0  0  0
  1  2  1  0
  2  3  1  0
  3  4  2  0
  4  5  1  0
  5  6  2  0
  6  7  1  0
  7  8  1  0
  8  9  1  0
  9 10  2  0
  9 11  1  0
 11 12  1  0
 12 13  1  0
 13 14  1  0
 14 15  1  0
 15 16  1  0
 16 17  2  0
 17 18  1  0
 18 19  2  0
  8 20  2  0
 20 21  1  0
 21 22  2  0
 22  3  1  0
 21  6  1  0
 19 15  1  0
  1 23  1  0
  1 24  1  0
  1 25  1  0
  4 26  1  0
  5 27  1  0
 11 28  1  0
 12 29  1  0
 12 30  1  0
 13 31  1  0
 13 32  1  0
 14 33  1  0
 14 34  1  0
 16 35  1  0
 18 36  1  0
 22 37  1  0
M  END
>  <_SMILES>  (74) 
COc1ccc2sc(C(=O)NCCCn3cncn3)nc2c1

$$$$

     RDKit          3D

 40 42  0  0  0  0  0  0  0  0999 V2000
    3.1601    2.1979   -0.0099 O   0  0  0  0  0  0  0  0  0  0  0  0
    3.2008    0.9825   -0.1664 C   0  0  0  0  0  0  0  0  0  0  0  0
    2.1008    0.2467   -0.5717 N   0  0  0  0  0  0  0  0  0  0  0  0
    0.8452    0.9093   -0.9243 C   0  0  1  0  0  0  0  0  0  0  0  0
   -0.0953   -0.0741   -1.6397 C   0  0  0  0  0  0  0  0  0  0  0  0
   -0.8900   -0.9389   -0.6616 C   0  0  0  0  0  0  0  0  0  0  0  0
   -1.7037   -0.1096    0.3564 C   0  0  2  0  0  0  0  0  0  0  0  0
   -3.2038   -0.2908    0.2113 C   0  0  0  0  0  0  0  0  0  0  0  0
   -3.9604   -0.7580    1.2981 C   0  0  0  0  0  0  0  0  0  0  0  0
   -5.3392   -0.9214    1.1760 C   0  0  0  0  0  0  0  0  0  0  0  0
   -6.0428   -1.3703    2.2233 F   0  0  0  0  0  0  0  0  0  0  0  0
   -5.9965   -0.6266   -0.0125 C   0  0  0  0  0  0  0  0  0  0  0  0
   -5.2613   -0.1587   -1.0987 C   0  0  0  0  0  0  0  0  0  0  0  0
   -3.8813    0.0056   -0.9800 C   0  0  0  0  0  0  0  0  0  0  0  0
   -3.2039    0.4596   -2.0431 F   0  0  0  0  0  0  0  0  0  0  0  0
   -1.3208    1.3809    0.3517 C   0  0  0  0  0  0  0  0  0  0  0  0
    0.1948    1.5494    0.3187 C   0  0  0  0  0  0  0  0  0  0  0  0
    4.4039    0.1989    0.0231 C   0  0  0  0  0  0  0  0  0  0  0  0
    5.7159    0.6467    0.0362 C   0  0  0  0  0  0  0  0  0  0  0  0
    6.5630   -0.4634    0.2626 C   0  0  0  0  0  0  0  0  0  0  0  0
    5.7547   -1.5658    0.4101 C   0  0  0  0  0  0  0  0  0  0  0  0
    4.4544   -1.1545    0.2820 N   0  0  0  0  0  0  0  0  0  0  0  0
    2.3076   -0.6220   -1.0426 H   0  0  0  0  0  0  0  0  0  0  0  0
    1.1046    1.7025   -1.6376 H   0  0  0  0  0  0  0  0  0  0  0  0
   -0.7944    0.4946   -2.2642 H   0  0  0  0  0  0  0  0  0  0  0  0
    0.4674   -0.7186   -2.3260 H   0  0  0  0  0  0  0  0  0  0  0  0
   -1.5269   -1.6350   -1.2206 H   0  0  0  0  0  0  0  0  0  0  0  0
   -0.1807   -1.5690   -0.1080 H   0  0  0  0  0  0  0  0  0  0  0  0
   -1.4264   -0.5020    1.3460 H   0  0  0  0  0  0  0  0  0  0  0  0
   -3.4919   -0.9982    2.2486 H   0  0  0  0  0  0  0  0  0  0  0  0
   -7.0710   -0.7610   -0.0828 H   0  0  0  0  0  0  0  0  0  0  0  0
   -5.7506    0.0814   -2.0376 H   0  0  0  0  0  0  0  0  0  0  0  0
   -1.7252    1.8689    1.2475 H   0  0  0  0  0  0  0  0  0  0  0  0
   -1.7607    1.9061   -0.5053 H   0  0  0  0  0  0  0  0  0  0  0  0
    0.6118    1.1168    1.2380 H   0  0  0  0  0  0  0  0  0  0  0  0
    0.4414    2.6178    0.3484 H   0  0  0  0  0  0  0  0  0  0  0  0
    6.0196    1.6765   -0.1112 H   0  0  0  0  0  0  0  0  0  0  0  0
    7.6438   -0.4543    0.3234 H   0  0  0  0  0  0  0  0  0  0  0  0
    5.9925   -2.6020    0.6110 H   0  0  0  0  0  0  0  0  0  0  0  0
    3.6446   -1.7480    0.4006 H   0  0  0  0  0  0  0  0  0  0  0  0
  1  2  2  0
  2  3  1  0
  3  4  1  0
  4  5  1  0
  5  6  1  0
  6  7  1  0
  7  8  1  0
  8  9  1  0
  9 10  2  0
 10 11  1  0
 10 12  1  0
 12 13  2  0
 13 14  1  0
 14 15  1  0
  7 16  1  0
 16 17  1  0
  2 18  1  0
 18 19  2  0
 19 20  1  0
 20 21  2  0
 21 22  1  0
 17  4  1  0
 22 18  1  0
 14  8  2  0
  3 23  1  0
  4 24  1  6
  5 25  1  0
  5 26  1  0
  6 27  1  0
  6 28  1  0
  7 29  1  1
  9 30  1  0
 12 31  1  0
 13 32  1  0
 16 33  1  0
 16 34  1  0
 17 35  1  0
 17 36  1  0
 19 37  1  0
 20 38  1  0
 21 39  1  0
 22 40  1  0
M  END
>  <_SMILES>  (75) 
O=C(N[C@H]1CC[C@H](c2cc(F)ccc2F)CC1)c1ccc[nH]1

$$$$

     RDKit          3D

 37 40  0  0  0  0  0  0  0  0999 V2000
    1.9709   -1.8314    0.6279 O   0  0  0  0  0  0  0  0  0  0  0  0
    2.2027   -0.7796    0.0384 C   0  0  0  0  0  0  0  0  0  0  0  0
    1.1900    0.0901   -0.3326 N   0  0  0  0  0  0  0  0  0  0  0  0
   -0.2329   -0.1004   -0.0288 C   0  0  2  0  0  0  0  0  0  0  0  0
   -0.4968   -0.1050    1.4972 C   0  0  0  0  0  0  0  0  0  0  0  0
   -2.0019   -0.2463    1.7857 C   0  0  1  0  0  0  0  0  0  0  0  0
   -2.7531    0.9387    1.1586 C   0  0  0  0  0  0  0  0  0  0  0  0
   -2.5280    0.9576   -0.3613 C   0  0  2  0  0  0  0  0  0  0  0  0
   -3.0451   -0.3551   -0.9692 C   0  0  0  0  0  0  0  0  0  0  0  0
   -2.2951   -1.5473   -0.3555 C   0  0  2  0  0  0  0  0  0  0  0  0
   -2.5160   -1.5574    1.1668 C   0  0  0  0  0  0  0  0  0  0  0  0
   -0.7903   -1.4077   -0.6476 C   0  0  0  0  0  0  0  0  0  0  0  0
   -1.0234    1.0863   -0.6464 C   0  0  0  0  0  0  0  0  0  0  0  0
    3.5464   -0.3276   -0.3138 C   0  0  0  0  0  0  0  0  0  0  0  0
    3.9597    0.6427   -1.2125 C   0  0  0  0  0  0  0  0  0  0  0  0
    5.3789    0.7823   -1.2590 C   0  0  0  0  0  0  0  0  0  0  0  0
    6.0096   -0.0890   -0.4019 C   0  0  0  0  0  0  0  0  0  0  0  0
    4.8981   -1.0713    0.4447 S   0  0  0  0  0  0  0  0  0  0  0  0
    1.4701    1.0140   -0.6266 H   0  0  0  0  0  0  0  0  0  0  0  0
    0.0391   -0.9276    1.9852 H   0  0  0  0  0  0  0  0  0  0  0  0
   -0.1152    0.8201    1.9488 H   0  0  0  0  0  0  0  0  0  0  0  0
   -2.1699   -0.2581    2.8685 H   0  0  0  0  0  0  0  0  0  0  0  0
   -3.8252    0.8613    1.3778 H   0  0  0  0  0  0  0  0  0  0  0  0
   -2.4049    1.8800    1.6013 H   0  0  0  0  0  0  0  0  0  0  0  0
   -3.0626    1.8056   -0.8037 H   0  0  0  0  0  0  0  0  0  0  0  0
   -4.1220   -0.4548   -0.7859 H   0  0  0  0  0  0  0  0  0  0  0  0
   -2.9070   -0.3449   -2.0574 H   0  0  0  0  0  0  0  0  0  0  0  0
   -2.6695   -2.4812   -0.7894 H   0  0  0  0  0  0  0  0  0  0  0  0
   -1.9961   -2.4128    1.6154 H   0  0  0  0  0  0  0  0  0  0  0  0
   -3.5832   -1.6818    1.3884 H   0  0  0  0  0  0  0  0  0  0  0  0
   -0.2719   -2.2869   -0.2491 H   0  0  0  0  0  0  0  0  0  0  0  0
   -0.6174   -1.4151   -1.7318 H   0  0  0  0  0  0  0  0  0  0  0  0
   -0.8535    1.1287   -1.7307 H   0  0  0  0  0  0  0  0  0  0  0  0
   -0.6527    2.0378   -0.2417 H   0  0  0  0  0  0  0  0  0  0  0  0
    3.2868    1.2240   -1.8300 H   0  0  0  0  0  0  0  0  0  0  0  0
    5.9095    1.4809   -1.8947 H   0  0  0  0  0  0  0  0  0  0  0  0
    7.0719   -0.2043   -0.2351 H   0  0  0  0  0  0  0  0  0  0  0  0
  1  2  2  0
  2  3  1  0
  4  3  1  1
  4  5  1  0
  5  6  1  0
  6  7  1  0
  7  8  1  0
  8  9  1  0
  9 10  1  0
 10 11  1  0
 10 12  1  0
  8 13  1  0
  2 14  1  0
 14 15  2  0
 15 16  1  0
 16 17  2  0
 17 18  1  0
 12  4  1  0
 18 14  1  0
 13  4  1  0
 11  6  1  0
  3 19  1  0
  5 20  1  0
  5 21  1  0
  6 22  1  1
  7 23  1  0
  7 24  1  0
  8 25  1  6
  9 26  1  0
  9 27  1  0
 10 28  1  6
 11 29  1  0
 11 30  1  0
 12 31  1  0
 12 32  1  0
 13 33  1  0
 13 34  1  0
 15 35  1  0
 16 36  1  0
 17 37  1  0
M  END
>  <_SMILES>  (76) 
O=C(N[C@]12C[C@H]3C[C@H](C[C@H](C3)C1)C2)c1cccs1

$$$$

     RDKit          3D

 46 50  0  0  0  0  0  0  0  0999 V2000
   -0.0050   -1.5386    1.0572 O   0  0  0  0  0  0  0  0  0  0  0  0
    0.2728   -0.5676    0.3579 C   0  0  0  0  0  0  0  0  0  0  0  0
   -0.6922    0.2463   -0.2108 N   0  0  0  0  0  0  0  0  0  0  0  0
   -2.1394    0.0916   -0.0774 C   0  0  2  0  0  0  0  0  0  0  0  0
   -2.5938    0.2094    1.3986 C   0  0  0  0  0  0  0  0  0  0  0  0
   -4.1248    0.0934    1.5045 C   0  0  1  0  0  0  0  0  0  0  0  0
   -4.7774    1.2243    0.6940 C   0  0  0  0  0  0  0  0  0  0  0  0
   -4.3602    1.1204   -0.7813 C   0  0  2  0  0  0  0  0  0  0  0  0
   -4.8091   -0.2376   -1.3430 C   0  0  0  0  0  0  0  0  0  0  0  0
   -4.1567   -1.3771   -0.5445 C   0  0  2  0  0  0  0  0  0  0  0  0
   -4.5705   -1.2632    0.9327 C   0  0  0  0  0  0  0  0  0  0  0  0
   -2.6257   -1.2621   -0.6518 C   0  0  0  0  0  0  0  0  0  0  0  0
   -2.8301    1.2262   -0.8810 C   0  0  0  0  0  0  0  0  0  0  0  0
    1.6326   -0.1381    0.0323 C   0  0  0  0  0  0  0  0  0  0  0  0
    1.8853    0.9176   -0.7227 N   0  0  0  0  0  0  0  0  0  0  0  0
    3.2551    1.0633   -0.8436 C   0  0  0  0  0  0  0  0  0  0  0  0
    4.0347    0.1282   -0.1832 C   0  0  0  0  0  0  0  0  0  0  0  0
    5.4944   -0.0031   -0.1316 C   0  0  0  0  0  0  0  0  0  0  0  0
    6.1624   -0.3495    1.0529 C   0  0  0  0  0  0  0  0  0  0  0  0
    7.5558   -0.4574    1.0836 C   0  0  0  0  0  0  0  0  0  0  0  0
    8.3005   -0.2185   -0.0686 C   0  0  0  0  0  0  0  0  0  0  0  0
    7.6541    0.1296   -1.2518 C   0  0  0  0  0  0  0  0  0  0  0  0
    6.2609    0.2384   -1.2826 C   0  0  0  0  0  0  0  0  0  0  0  0
    2.9973   -0.9879    0.6159 S   0  0  0  0  0  0  0  0  0  0  0  0
   -0.3237    1.0166   -0.7639 H   0  0  0  0  0  0  0  0  0  0  0  0
   -2.1336   -0.5725    2.0140 H   0  0  0  0  0  0  0  0  0  0  0  0
   -2.2616    1.1670    1.8205 H   0  0  0  0  0  0  0  0  0  0  0  0
   -4.4284    0.1695    2.5546 H   0  0  0  0  0  0  0  0  0  0  0  0
   -5.8693    1.1652    0.7798 H   0  0  0  0  0  0  0  0  0  0  0  0
   -4.4783    2.1981    1.1009 H   0  0  0  0  0  0  0  0  0  0  0  0
   -4.8254    1.9298   -1.3549 H   0  0  0  0  0  0  0  0  0  0  0  0
   -5.9016   -0.3218   -1.2920 H   0  0  0  0  0  0  0  0  0  0  0  0
   -4.5328   -0.3156   -2.4017 H   0  0  0  0  0  0  0  0  0  0  0  0
   -4.4829   -2.3429   -0.9462 H   0  0  0  0  0  0  0  0  0  0  0  0
   -5.6585   -1.3683    1.0250 H   0  0  0  0  0  0  0  0  0  0  0  0
   -4.1218   -2.0797    1.5116 H   0  0  0  0  0  0  0  0  0  0  0  0
   -2.1669   -2.1023   -0.1175 H   0  0  0  0  0  0  0  0  0  0  0  0
   -2.3163   -1.3600   -1.7007 H   0  0  0  0  0  0  0  0  0  0  0  0
   -2.5244    1.1821   -1.9350 H   0  0  0  0  0  0  0  0  0  0  0  0
   -2.5022    2.2060   -0.5085 H   0  0  0  0  0  0  0  0  0  0  0  0
    3.6423    1.8878   -1.4310 H   0  0  0  0  0  0  0  0  0  0  0  0
    5.6087   -0.5303    1.9717 H   0  0  0  0  0  0  0  0  0  0  0  0
    8.0578   -0.7270    2.0095 H   0  0  0  0  0  0  0  0  0  0  0  0
    9.3838   -0.3041   -0.0441 H   0  0  0  0  0  0  0  0  0  0  0  0
    8.2331    0.3137   -2.1532 H   0  0  0  0  0  0  0  0  0  0  0  0
    5.7810    0.5006   -2.2229 H   0  0  0  0  0  0  0  0  0  0  0  0
  1  2  2  0
  2  3  1  0
  4  3  1  1
  4  5  1  0
  5  6  1  0
  6  7  1  0
  7  8  1  0
  8  9  1  0
  9 10  1  0
 10 11  1  0
 10 12  1  0
  8 13  1  0
  2 14  1  0
 14 15  2  0
 15 16  1  0
 16 17  2  0
 17 18  1  0
 18 19  2  0
 19 20  1  0
 20 21  2  0
 21 22  1  0
 22 23  2  0
 17 24  1  0
 12  4  1  0
 24 14  1  0
 13  4  1  0
 23 18  1  0
 11  6  1  0
  3 25  1  0
  5 26  1  0
  5 27  1  0
  6 28  1  1
  7 29  1  0
  7 30  1  0
  8 31  1  6
  9 32  1  0
  9 33  1  0
 10 34  1  6
 11 35  1  0
 11 36  1  0
 12 37  1  0
 12 38  1  0
 13 39  1  0
 13 40  1  0
 16 41  1  0
 19 42  1  0
 20 43  1  0
 21 44  1  0
 22 45  1  0
 23 46  1  0
M  END
>  <_SMILES>  (77) 
O=C(N[C@]12C[C@H]3C[C@H](C[C@H](C3)C1)C2)c1ncc(-c2ccccc2)s1

$$$$

     RDKit          3D

 42 44  0  0  0  0  0  0  0  0999 V2000
    4.4146    0.3548   -0.5263 C   0  0  0  0  0  0  0  0  0  0  0  0
    3.2800   -0.0534    0.4303 C   0  0  0  0  0  0  0  0  0  0  0  0
    3.4511   -1.5370    0.7897 C   0  0  0  0  0  0  0  0  0  0  0  0
    3.3704    0.8122    1.6962 C   0  0  0  0  0  0  0  0  0  0  0  0
    1.9199    0.1678   -0.2640 C   0  0  0  0  0  0  0  0  0  0  0  0
    1.8314    0.6060   -1.4073 O   0  0  0  0  0  0  0  0  0  0  0  0
    0.8198   -0.1647    0.5000 N   0  0  0  0  0  0  0  0  0  0  0  0
   -0.5762   -0.0446    0.0643 C   0  0  2  0  0  0  0  0  0  0  0  0
   -0.9522    1.4225   -0.2613 C   0  0  0  0  0  0  0  0  0  0  0  0
   -2.4342    1.5251   -0.6636 C   0  0  1  0  0  0  0  0  0  0  0  0
   -2.6870    0.6391   -1.8955 C   0  0  0  0  0  0  0  0  0  0  0  0
   -2.3534   -0.8272   -1.5712 C   0  0  2  0  0  0  0  0  0  0  0  0
   -3.2314   -1.3003   -0.4022 C   0  0  0  0  0  0  0  0  0  0  0  0
   -2.9757   -0.4239    0.8337 C   0  0  2  0  0  0  0  0  0  0  0  0
   -3.3117    1.0378    0.4999 C   0  0  0  0  0  0  0  0  0  0  0  0
   -1.4925   -0.5235    1.2238 C   0  0  0  0  0  0  0  0  0  0  0  0
   -0.8713   -0.9329   -1.1701 C   0  0  0  0  0  0  0  0  0  0  0  0
    4.3893   -0.2379   -1.4482 H   0  0  0  0  0  0  0  0  0  0  0  0
    4.3327    1.4098   -0.8124 H   0  0  0  0  0  0  0  0  0  0  0  0
    5.3975    0.2101   -0.0639 H   0  0  0  0  0  0  0  0  0  0  0  0
    3.3179   -2.1722   -0.0936 H   0  0  0  0  0  0  0  0  0  0  0  0
    4.4488   -1.7325    1.1988 H   0  0  0  0  0  0  0  0  0  0  0  0
    2.7221   -1.8651    1.5383 H   0  0  0  0  0  0  0  0  0  0  0  0
    2.6405    0.5087    2.4543 H   0  0  0  0  0  0  0  0  0  0  0  0
    3.1791    1.8664    1.4647 H   0  0  0  0  0  0  0  0  0  0  0  0
    4.3638    0.7418    2.1535 H   0  0  0  0  0  0  0  0  0  0  0  0
    0.9803   -0.5191    1.4326 H   0  0  0  0  0  0  0  0  0  0  0  0
   -0.7554    2.0640    0.6077 H   0  0  0  0  0  0  0  0  0  0  0  0
   -0.3346    1.8149   -1.0775 H   0  0  0  0  0  0  0  0  0  0  0  0
   -2.6805    2.5662   -0.9005 H   0  0  0  0  0  0  0  0  0  0  0  0
   -3.7353    0.7234   -2.2074 H   0  0  0  0  0  0  0  0  0  0  0  0
   -2.0755    0.9851   -2.7379 H   0  0  0  0  0  0  0  0  0  0  0  0
   -2.5425   -1.4524   -2.4511 H   0  0  0  0  0  0  0  0  0  0  0  0
   -4.2902   -1.2506   -0.6845 H   0  0  0  0  0  0  0  0  0  0  0  0
   -3.0128   -2.3498   -0.1698 H   0  0  0  0  0  0  0  0  0  0  0  0
   -3.6011   -0.7664    1.6656 H   0  0  0  0  0  0  0  0  0  0  0  0
   -4.3719    1.1272    0.2330 H   0  0  0  0  0  0  0  0  0  0  0  0
   -3.1509    1.6705    1.3814 H   0  0  0  0  0  0  0  0  0  0  0  0
   -1.2498   -1.5604    1.4924 H   0  0  0  0  0  0  0  0  0  0  0  0
   -1.3061    0.0771    2.1243 H   0  0  0  0  0  0  0  0  0  0  0  0
   -0.2503   -0.6383   -2.0241 H   0  0  0  0  0  0  0  0  0  0  0  0
   -0.6165   -1.9783   -0.9520 H   0  0  0  0  0  0  0  0  0  0  0  0
  1  2  1  0
  2  3  1  0
  2  4  1  0
  2  5  1  0
  5  6  2  0
  5  7  1  0
  8  7  1  1
  8  9  1  0
  9 10  1  0
 10 11  1  0
 11 12  1  0
 12 13  1  0
 13 14  1  0
 14 15  1  0
 14 16  1  0
 12 17  1  0
 16  8  1  0
 17  8  1  0
 15 10  1  0
  1 18  1  0
  1 19  1  0
  1 20  1  0
  3 21  1  0
  3 22  1  0
  3 23  1  0
  4 24  1  0
  4 25  1  0
  4 26  1  0
  7 27  1  0
  9 28  1  0
  9 29  1  0
 10 30  1  6
 11 31  1  0
 11 32  1  0
 12 33  1  6
 13 34  1  0
 13 35  1  0
 14 36  1  1
 15 37  1  0
 15 38  1  0
 16 39  1  0
 16 40  1  0
 17 41  1  0
 17 42  1  0
M  END
>  <_SMILES>  (78) 
CC(C)(C)C(=O)N[C@]12C[C@H]3C[C@H](C[C@H](C3)C1)C2

$$$$

     RDKit          3D

 41 45  0  0  0  0  0  0  0  0999 V2000
    0.8367    0.6823    1.8224 O   0  0  0  0  0  0  0  0  0  0  0  0
    1.2193    0.2937    0.7203 C   0  0  0  0  0  0  0  0  0  0  0  0
    0.3148   -0.0869   -0.2636 N   0  0  0  0  0  0  0  0  0  0  0  0
   -1.1450   -0.0773   -0.1281 C   0  0  2  0  0  0  0  0  0  0  0  0
   -1.6890    1.3484    0.1390 C   0  0  0  0  0  0  0  0  0  0  0  0
   -3.2258    1.3349    0.2217 C   0  0  1  0  0  0  0  0  0  0  0  0
   -3.8022    0.8293   -1.1100 C   0  0  0  0  0  0  0  0  0  0  0  0
   -3.2960   -0.5935   -1.3936 C   0  0  2  0  0  0  0  0  0  0  0  0
   -3.7385   -1.5277   -0.2569 C   0  0  0  0  0  0  0  0  0  0  0  0
   -3.1617   -1.0363    1.0800 C   0  0  2  0  0  0  0  0  0  0  0  0
   -3.6637    0.3915    1.3551 C   0  0  0  0  0  0  0  0  0  0  0  0
   -1.6248   -1.0261    0.9985 C   0  0  0  0  0  0  0  0  0  0  0  0
   -1.7608   -0.5774   -1.4638 C   0  0  0  0  0  0  0  0  0  0  0  0
    2.6395    0.1993    0.3536 C   0  0  0  0  0  0  0  0  0  0  0  0
    3.6125    0.5270    1.1861 N   0  0  0  0  0  0  0  0  0  0  0  0
    4.8337    0.3367    0.5694 C   0  0  0  0  0  0  0  0  0  0  0  0
    6.1125    0.5645    1.1034 C   0  0  0  0  0  0  0  0  0  0  0  0
    7.2165    0.3008    0.2926 C   0  0  0  0  0  0  0  0  0  0  0  0
    7.0048   -0.1713   -0.9958 C   0  0  0  0  0  0  0  0  0  0  0  0
    5.7993   -0.4083   -1.5606 N   0  0  0  0  0  0  0  0  0  0  0  0
    4.7660   -0.1378   -0.7362 C   0  0  0  0  0  0  0  0  0  0  0  0
    3.1437   -0.3499   -1.2011 S   0  0  0  0  0  0  0  0  0  0  0  0
    0.7029   -0.3958   -1.1462 H   0  0  0  0  0  0  0  0  0  0  0  0
   -1.2868    1.7542    1.0744 H   0  0  0  0  0  0  0  0  0  0  0  0
   -1.3634    2.0315   -0.6565 H   0  0  0  0  0  0  0  0  0  0  0  0
   -3.5929    2.3478    0.4215 H   0  0  0  0  0  0  0  0  0  0  0  0
   -4.8984    0.8364   -1.0709 H   0  0  0  0  0  0  0  0  0  0  0  0
   -3.5083    1.5017   -1.9252 H   0  0  0  0  0  0  0  0  0  0  0  0
   -3.7065   -0.9490   -2.3453 H   0  0  0  0  0  0  0  0  0  0  0  0
   -4.8336   -1.5605   -0.2033 H   0  0  0  0  0  0  0  0  0  0  0  0
   -3.3987   -2.5510   -0.4583 H   0  0  0  0  0  0  0  0  0  0  0  0
   -3.4834   -1.7031    1.8878 H   0  0  0  0  0  0  0  0  0  0  0  0
   -3.2691    0.7493    2.3141 H   0  0  0  0  0  0  0  0  0  0  0  0
   -4.7573    0.3929    1.4406 H   0  0  0  0  0  0  0  0  0  0  0  0
   -1.2199   -0.7200    1.9700 H   0  0  0  0  0  0  0  0  0  0  0  0
   -1.2533   -2.0435    0.8184 H   0  0  0  0  0  0  0  0  0  0  0  0
   -1.4356    0.0654   -2.2930 H   0  0  0  0  0  0  0  0  0  0  0  0
   -1.3910   -1.5853   -1.6955 H   0  0  0  0  0  0  0  0  0  0  0  0
    6.2260    0.9343    2.1165 H   0  0  0  0  0  0  0  0  0  0  0  0
    8.2241    0.4617    0.6619 H   0  0  0  0  0  0  0  0  0  0  0  0
    7.8537   -0.3829   -1.6435 H   0  0  0  0  0  0  0  0  0  0  0  0
  1  2  2  0
  2  3  1  0
  4  3  1  6
  4  5  1  0
  5  6  1  0
  6  7  1  0
  7  8  1  0
  8  9  1  0
  9 10  1  0
 10 11  1  0
 10 12  1  0
  8 13  1  0
  2 14  1  0
 14 15  2  0
 15 16  1  0
 16 17  1  0
 17 18  2  0
 18 19  1  0
 19 20  2  0
 20 21  1  0
 21 22  1  0
 12  4  1  0
 22 14  1  0
 13  4  1  0
 21 16  2  0
 11  6  1  0
  3 23  1  0
  5 24  1  0
  5 25  1  0
  6 26  1  1
  7 27  1  0
  7 28  1  0
  8 29  1  6
  9 30  1  0
  9 31  1  0
 10 32  1  1
 11 33  1  0
 11 34  1  0
 12 35  1  0
 12 36  1  0
 13 37  1  0
 13 38  1  0
 17 39  1  0
 18 40  1  0
 19 41  1  0
M  END
>  <_SMILES>  (79) 
O=C(N[C@]12C[C@H]3C[C@H](C[C@H](C3)C1)C2)c1nc2cccnc2s1

$$$$

     RDKit          3D

 59 63  0  0  0  0  0  0  0  0999 V2000
    9.7278    0.0548    0.9078 C   0  0  0  0  0  0  0  0  0  0  0  0
    8.3122    0.1599    0.4228 C   0  0  0  0  0  0  0  0  0  0  0  0
    7.6649   -0.9553   -0.1228 C   0  0  0  0  0  0  0  0  0  0  0  0
    6.3581   -0.8492   -0.6082 C   0  0  0  0  0  0  0  0  0  0  0  0
    5.6816    0.3747   -0.5565 C   0  0  0  0  0  0  0  0  0  0  0  0
    4.3159    0.4962   -1.0585 C   0  0  0  0  0  0  0  0  0  0  0  0
    4.0295    1.3889   -2.0145 N   0  0  0  0  0  0  0  0  0  0  0  0
    2.7311    1.2003   -2.2644 N   0  0  0  0  0  0  0  0  0  0  0  0
    2.1229    0.2765   -1.4584 C   0  0  0  0  0  0  0  0  0  0  0  0
    0.7097    0.0303   -1.6094 C   0  0  0  0  0  0  0  0  0  0  0  0
    0.0813    0.4659   -2.5703 O   0  0  0  0  0  0  0  0  0  0  0  0
    0.1035   -0.6820   -0.6013 N   0  0  0  0  0  0  0  0  0  0  0  0
   -1.3278   -0.9161   -0.5828 C   0  0  0  0  0  0  0  0  0  0  0  0
   -2.0781    0.2800    0.0084 C   0  0  0  0  0  0  0  0  0  0  0  0
   -3.6169    0.1354    0.0933 C   0  0  2  0  0  0  0  0  0  0  0  0
   -4.1982    1.4310    0.7252 C   0  0  0  0  0  0  0  0  0  0  0  0
   -5.7290    1.3517    0.8369 C   0  0  1  0  0  0  0  0  0  0  0  0
   -6.3274    1.1666   -0.5661 C   0  0  0  0  0  0  0  0  0  0  0  0
   -5.7906   -0.1265   -1.1990 C   0  0  2  0  0  0  0  0  0  0  0  0
   -6.1719   -1.3220   -0.3102 C   0  0  0  0  0  0  0  0  0  0  0  0
   -5.5706   -1.1468    1.0942 C   0  0  2  0  0  0  0  0  0  0  0  0
   -6.1083    0.1508    1.7170 C   0  0  0  0  0  0  0  0  0  0  0  0
   -4.0373   -1.0631    0.9814 C   0  0  0  0  0  0  0  0  0  0  0  0
   -4.2569   -0.0449   -1.3069 C   0  0  0  0  0  0  0  0  0  0  0  0
    3.1430   -0.2292   -0.6575 C   0  0  0  0  0  0  0  0  0  0  0  0
    3.0618   -1.2817    0.3890 C   0  0  0  0  0  0  0  0  0  0  0  0
    6.3389    1.4966   -0.0389 C   0  0  0  0  0  0  0  0  0  0  0  0
    7.6451    1.3903    0.4466 C   0  0  0  0  0  0  0  0  0  0  0  0
   10.4211    0.2608    0.0866 H   0  0  0  0  0  0  0  0  0  0  0  0
    9.9166    0.7668    1.7182 H   0  0  0  0  0  0  0  0  0  0  0  0
    9.9322   -0.9464    1.3015 H   0  0  0  0  0  0  0  0  0  0  0  0
    8.1771   -1.9130   -0.1815 H   0  0  0  0  0  0  0  0  0  0  0  0
    5.8803   -1.7235   -1.0430 H   0  0  0  0  0  0  0  0  0  0  0  0
    2.2862    1.7486   -2.9945 H   0  0  0  0  0  0  0  0  0  0  0  0
    0.6129   -0.8363    0.2536 H   0  0  0  0  0  0  0  0  0  0  0  0
   -1.6571   -1.1234   -1.6052 H   0  0  0  0  0  0  0  0  0  0  0  0
   -1.4830   -1.8154    0.0198 H   0  0  0  0  0  0  0  0  0  0  0  0
   -1.6804    0.4742    1.0142 H   0  0  0  0  0  0  0  0  0  0  0  0
   -1.8375    1.1752   -0.5809 H   0  0  0  0  0  0  0  0  0  0  0  0
   -3.7670    1.5911    1.7221 H   0  0  0  0  0  0  0  0  0  0  0  0
   -3.9208    2.3038    0.1198 H   0  0  0  0  0  0  0  0  0  0  0  0
   -6.1153    2.2743    1.2844 H   0  0  0  0  0  0  0  0  0  0  0  0
   -6.0750    2.0265   -1.1985 H   0  0  0  0  0  0  0  0  0  0  0  0
   -7.4219    1.1273   -0.5043 H   0  0  0  0  0  0  0  0  0  0  0  0
   -6.2236   -0.2560   -2.1973 H   0  0  0  0  0  0  0  0  0  0  0  0
   -7.2636   -1.4050   -0.2424 H   0  0  0  0  0  0  0  0  0  0  0  0
   -5.8094   -2.2545   -0.7598 H   0  0  0  0  0  0  0  0  0  0  0  0
   -5.8475   -2.0003    1.7232 H   0  0  0  0  0  0  0  0  0  0  0  0
   -7.1987    0.0925    1.8215 H   0  0  0  0  0  0  0  0  0  0  0  0
   -5.6984    0.2804    2.7262 H   0  0  0  0  0  0  0  0  0  0  0  0
   -3.6638   -2.0052    0.5628 H   0  0  0  0  0  0  0  0  0  0  0  0
   -3.5980   -0.9643    1.9823 H   0  0  0  0  0  0  0  0  0  0  0  0
   -3.8891   -0.9599   -1.7862 H   0  0  0  0  0  0  0  0  0  0  0  0
   -3.9764    0.7904   -1.9612 H   0  0  0  0  0  0  0  0  0  0  0  0
    4.0460   -1.6226    0.7187 H   0  0  0  0  0  0  0  0  0  0  0  0
    2.5248   -2.1590    0.0142 H   0  0  0  0  0  0  0  0  0  0  0  0
    2.5406   -0.8986    1.2721 H   0  0  0  0  0  0  0  0  0  0  0  0
    5.8355    2.4609   -0.0213 H   0  0  0  0  0  0  0  0  0  0  0  0
    8.1388    2.2774    0.8367 H   0  0  0  0  0  0  0  0  0  0  0  0
  1  2  1  0
  2  3  1  0
  3  4  2  0
  4  5  1  0
  5  6  1  0
  6  7  2  0
  7  8  1  0
  8  9  1  0
  9 10  1  0
 10 11  2  0
 10 12  1  0
 12 13  1  0
 13 14  1  0
 15 14  1  6
 15 16  1  0
 16 17  1  0
 17 18  1  0
 18 19  1  0
 19 20  1  0
 20 21  1  0
 21 22  1  0
 21 23  1  0
 19 24  1  0
  9 25  2  0
 25 26  1  0
  5 27  2  0
 27 28  1  0
 28  2  2  0
 25  6  1  0
 23 15  1  0
 24 15  1  0
 22 17  1  0
  1 29  1  0
  1 30  1  0
  1 31  1  0
  3 32  1  0
  4 33  1  0
  8 34  1  0
 12 35  1  0
 13 36  1  0
 13 37  1  0
 14 38  1  0
 14 39  1  0
 16 40  1  0
 16 41  1  0
 17 42  1  1
 18 43  1  0
 18 44  1  0
 19 45  1  6
 20 46  1  0
 20 47  1  0
 21 48  1  1
 22 49  1  0
 22 50  1  0
 23 51  1  0
 23 52  1  0
 24 53  1  0
 24 54  1  0
 26 55  1  0
 26 56  1  0
 26 57  1  0
 27 58  1  0
 28 59  1  0
M  END
>  <_SMILES>  (80) 
Cc1ccc(-c2n[nH]c(C(=O)NCC[C@]34C[C@H]5C[C@H](C[C@H](C5)C3)C4)c2C)cc1

$$$$

     RDKit          3D

 59 63  0  0  0  0  0  0  0  0999 V2000
    9.0781    0.1953    1.7467 C   0  0  0  0  0  0  0  0  0  0  0  0
    7.6690    0.2447    1.2348 C   0  0  0  0  0  0  0  0  0  0  0  0
    6.6177    0.6072    2.0840 C   0  0  0  0  0  0  0  0  0  0  0  0
    5.3004    0.6211    1.6159 C   0  0  0  0  0  0  0  0  0  0  0  0
    5.0123    0.2611    0.2943 C   0  0  0  0  0  0  0  0  0  0  0  0
    3.6411    0.2865   -0.2000 C   0  0  0  0  0  0  0  0  0  0  0  0
    2.8514    1.4001   -0.1046 N   0  0  0  0  0  0  0  0  0  0  0  0
    1.6265    1.2613   -0.6325 N   0  0  0  0  0  0  0  0  0  0  0  0
    1.6140   -0.0067   -1.0961 C   0  0  0  0  0  0  0  0  0  0  0  0
    0.4222   -0.5563   -1.7733 C   0  0  0  0  0  0  0  0  0  0  0  0
    0.3861   -1.6736   -2.2797 O   0  0  0  0  0  0  0  0  0  0  0  0
   -0.6383    0.3249   -1.7887 N   0  0  0  0  0  0  0  0  0  0  0  0
   -1.8329    0.0877   -2.5583 C   0  0  0  0  0  0  0  0  0  0  0  0
   -3.0300    0.8989   -2.0595 C   0  0  0  0  0  0  0  0  0  0  0  0
   -3.7369    0.4107   -0.7665 C   0  0  2  0  0  0  0  0  0  0  0  0
   -4.9187    1.3792   -0.4719 C   0  0  0  0  0  0  0  0  0  0  0  0
   -5.6843    0.9540    0.7905 C   0  0  1  0  0  0  0  0  0  0  0  0
   -6.2388   -0.4645    0.5889 C   0  0  0  0  0  0  0  0  0  0  0  0
   -5.0858   -1.4467    0.3314 C   0  0  2  0  0  0  0  0  0  0  0  0
   -4.1285   -1.4291    1.5344 C   0  0  0  0  0  0  0  0  0  0  0  0
   -3.5641   -0.0130    1.7365 C   0  0  2  0  0  0  0  0  0  0  0  0
   -4.7227    0.9632    1.9881 C   0  0  0  0  0  0  0  0  0  0  0  0
   -2.8005    0.4107    0.4679 C   0  0  0  0  0  0  0  0  0  0  0  0
   -4.3196   -1.0167   -0.9335 C   0  0  0  0  0  0  0  0  0  0  0  0
    2.8603   -0.6619   -0.8423 C   0  0  0  0  0  0  0  0  0  0  0  0
    3.2104   -2.0632   -1.1917 C   0  0  0  0  0  0  0  0  0  0  0  0
    6.0623   -0.1174   -0.5489 C   0  0  0  0  0  0  0  0  0  0  0  0
    7.3796   -0.1301   -0.0817 C   0  0  0  0  0  0  0  0  0  0  0  0
    9.2921   -0.7959    2.1582 H   0  0  0  0  0  0  0  0  0  0  0  0
    9.7927    0.4079    0.9446 H   0  0  0  0  0  0  0  0  0  0  0  0
    9.2359    0.9453    2.5289 H   0  0  0  0  0  0  0  0  0  0  0  0
    6.8168    0.8762    3.1191 H   0  0  0  0  0  0  0  0  0  0  0  0
    4.5024    0.8939    2.3025 H   0  0  0  0  0  0  0  0  0  0  0  0
    3.1042    2.2957    0.2985 H   0  0  0  0  0  0  0  0  0  0  0  0
   -0.4023    1.2611   -1.4673 H   0  0  0  0  0  0  0  0  0  0  0  0
   -1.5965    0.3975   -3.5832 H   0  0  0  0  0  0  0  0  0  0  0  0
   -2.0484   -0.9837   -2.5961 H   0  0  0  0  0  0  0  0  0  0  0  0
   -3.7742    0.9060   -2.8677 H   0  0  0  0  0  0  0  0  0  0  0  0
   -2.7182    1.9436   -1.9255 H   0  0  0  0  0  0  0  0  0  0  0  0
   -5.6089    1.4031   -1.3254 H   0  0  0  0  0  0  0  0  0  0  0  0
   -4.5435    2.4031   -0.3437 H   0  0  0  0  0  0  0  0  0  0  0  0
   -6.5099    1.6505    0.9743 H   0  0  0  0  0  0  0  0  0  0  0  0
   -6.9386   -0.4778   -0.2556 H   0  0  0  0  0  0  0  0  0  0  0  0
   -6.8046   -0.7750    1.4760 H   0  0  0  0  0  0  0  0  0  0  0  0
   -5.4861   -2.4574    0.1933 H   0  0  0  0  0  0  0  0  0  0  0  0
   -4.6572   -1.7542    2.4389 H   0  0  0  0  0  0  0  0  0  0  0  0
   -3.3091   -2.1401    1.3722 H   0  0  0  0  0  0  0  0  0  0  0  0
   -2.8832   -0.0067    2.5951 H   0  0  0  0  0  0  0  0  0  0  0  0
   -4.3321    1.9756    2.1487 H   0  0  0  0  0  0  0  0  0  0  0  0
   -5.2596    0.6805    2.9019 H   0  0  0  0  0  0  0  0  0  0  0  0
   -1.9683   -0.2868    0.3230 H   0  0  0  0  0  0  0  0  0  0  0  0
   -2.3645    1.4071    0.6133 H   0  0  0  0  0  0  0  0  0  0  0  0
   -3.5194   -1.7418   -1.1226 H   0  0  0  0  0  0  0  0  0  0  0  0
   -4.9912   -1.0521   -1.8007 H   0  0  0  0  0  0  0  0  0  0  0  0
    3.3361   -2.1644   -2.2742 H   0  0  0  0  0  0  0  0  0  0  0  0
    2.4237   -2.7511   -0.8656 H   0  0  0  0  0  0  0  0  0  0  0  0
    4.1390   -2.3833   -0.7099 H   0  0  0  0  0  0  0  0  0  0  0  0
    5.8642   -0.4011   -1.5802 H   0  0  0  0  0  0  0  0  0  0  0  0
    8.1780   -0.4344   -0.7549 H   0  0  0  0  0  0  0  0  0  0  0  0
  1  2  1  0
  2  3  1  0
  3  4  2  0
  4  5  1  0
  5  6  1  0
  6  7  1  0
  7  8  1  0
  8  9  2  0
  9 10  1  0
 10 11  2  0
 10 12  1  0
 12 13  1  0
 13 14  1  0
 15 14  1  6
 15 16  1  0
 16 17  1  0
 17 18  1  0
 18 19  1  0
 19 20  1  0
 20 21  1  0
 21 22  1  0
 21 23  1  0
 19 24  1  0
  9 25  1  0
 25 26  1  0
  5 27  2  0
 27 28  1  0
 28  2  2  0
 25  6  2  0
 23 15  1  0
 24 15  1  0
 22 17  1  0
  1 29  1  0
  1 30  1  0
  1 31  1  0
  3 32  1  0
  4 33  1  0
  7 34  1  0
 12 35  1  0
 13 36  1  0
 13 37  1  0
 14 38  1  0
 14 39  1  0
 16 40  1  0
 16 41  1  0
 17 42  1  1
 18 43  1  0
 18 44  1  0
 19 45  1  6
 20 46  1  0
 20 47  1  0
 21 48  1  1
 22 49  1  0
 22 50  1  0
 23 51  1  0
 23 52  1  0
 24 53  1  0
 24 54  1  0
 26 55  1  0
 26 56  1  0
 26 57  1  0
 27 58  1  0
 28 59  1  0
M  END
>  <_SMILES>  (81) 
Cc1ccc(-c2[nH]nc(C(=O)NCC[C@]34C[C@H]5C[C@H](C[C@H](C5)C3)C4)c2C)cc1

$$$$

     RDKit          3D

 56 59  0  0  0  0  0  0  0  0999 V2000
    7.6572    2.4501   -1.5881 C   0  0  0  0  0  0  0  0  0  0  0  0
    7.4850    1.0826   -1.9412 O   0  0  0  0  0  0  0  0  0  0  0  0
    6.2214    0.5572   -1.5226 C   0  0  0  0  0  0  0  0  0  0  0  0
    6.2581    0.1195   -0.0640 C   0  0  0  0  0  0  0  0  0  0  0  0
    5.0439   -0.5670    0.3260 N   0  0  0  0  0  0  0  0  0  0  0  0
    4.8964   -1.8955    0.5754 C   0  0  0  0  0  0  0  0  0  0  0  0
    3.5751   -2.0765    0.9465 C   0  0  0  0  0  0  0  0  0  0  0  0
    2.8983   -3.3226    1.3627 C   0  0  0  0  0  0  0  0  0  0  0  0
    1.9005   -3.6493    0.4980 F   0  0  0  0  0  0  0  0  0  0  0  0
    3.7434   -4.3840    1.3987 F   0  0  0  0  0  0  0  0  0  0  0  0
    2.3393   -3.2198    2.5924 F   0  0  0  0  0  0  0  0  0  0  0  0
    2.9920   -0.7735    0.8702 C   0  0  0  0  0  0  0  0  0  0  0  0
    1.6023   -0.3604    1.1620 C   0  0  0  0  0  0  0  0  0  0  0  0
    1.3223    0.7310    1.6507 O   0  0  0  0  0  0  0  0  0  0  0  0
    0.6305   -1.2854    0.8199 N   0  0  0  0  0  0  0  0  0  0  0  0
   -0.7809   -0.9862    0.9707 C   0  0  0  0  0  0  0  0  0  0  0  0
   -1.3117   -0.1946   -0.2272 C   0  0  0  0  0  0  0  0  0  0  0  0
   -2.8158    0.1681   -0.1822 C   0  0  2  0  0  0  0  0  0  0  0  0
   -3.1713    0.9517   -1.4766 C   0  0  0  0  0  0  0  0  0  0  0  0
   -4.6572    1.3444   -1.4933 C   0  0  1  0  0  0  0  0  0  0  0  0
   -5.5153    0.0716   -1.4261 C   0  0  0  0  0  0  0  0  0  0  0  0
   -5.2033   -0.7041   -0.1371 C   0  0  2  0  0  0  0  0  0  0  0  0
   -5.5042    0.1896    1.0775 C   0  0  0  0  0  0  0  0  0  0  0  0
   -4.6437    1.4627    1.0206 C   0  0  2  0  0  0  0  0  0  0  0  0
   -4.9582    2.2289   -0.2736 C   0  0  0  0  0  0  0  0  0  0  0  0
   -3.1553    1.0686    1.0329 C   0  0  0  0  0  0  0  0  0  0  0  0
   -3.7138   -1.0937   -0.1222 C   0  0  0  0  0  0  0  0  0  0  0  0
    3.9139    0.1324    0.4900 N   0  0  0  0  0  0  0  0  0  0  0  0
    8.6305    2.7792   -1.9621 H   0  0  0  0  0  0  0  0  0  0  0  0
    7.6434    2.5783   -0.5024 H   0  0  0  0  0  0  0  0  0  0  0  0
    6.8810    3.0664   -2.0517 H   0  0  0  0  0  0  0  0  0  0  0  0
    6.0196   -0.3129   -2.1583 H   0  0  0  0  0  0  0  0  0  0  0  0
    5.4201    1.2809   -1.7157 H   0  0  0  0  0  0  0  0  0  0  0  0
    6.3838    0.9739    0.6101 H   0  0  0  0  0  0  0  0  0  0  0  0
    7.1066   -0.5511    0.1146 H   0  0  0  0  0  0  0  0  0  0  0  0
    5.7205   -2.5925    0.4922 H   0  0  0  0  0  0  0  0  0  0  0  0
    0.8765   -2.0758    0.2368 H   0  0  0  0  0  0  0  0  0  0  0  0
   -0.9196   -0.4327    1.9040 H   0  0  0  0  0  0  0  0  0  0  0  0
   -1.2893   -1.9501    1.0619 H   0  0  0  0  0  0  0  0  0  0  0  0
   -1.1096   -0.7724   -1.1397 H   0  0  0  0  0  0  0  0  0  0  0  0
   -0.7265    0.7294   -0.3285 H   0  0  0  0  0  0  0  0  0  0  0  0
   -2.5536    1.8562   -1.5521 H   0  0  0  0  0  0  0  0  0  0  0  0
   -2.9445    0.3423   -2.3611 H   0  0  0  0  0  0  0  0  0  0  0  0
   -4.8838    1.8945   -2.4134 H   0  0  0  0  0  0  0  0  0  0  0  0
   -5.3189   -0.5603   -2.3010 H   0  0  0  0  0  0  0  0  0  0  0  0
   -6.5796    0.3355   -1.4565 H   0  0  0  0  0  0  0  0  0  0  0  0
   -5.8208   -1.6082   -0.0920 H   0  0  0  0  0  0  0  0  0  0  0  0
   -6.5680    0.4570    1.0913 H   0  0  0  0  0  0  0  0  0  0  0  0
   -5.3021   -0.3586    2.0059 H   0  0  0  0  0  0  0  0  0  0  0  0
   -4.8641    2.0962    1.8871 H   0  0  0  0  0  0  0  0  0  0  0  0
   -4.3613    3.1481   -0.3198 H   0  0  0  0  0  0  0  0  0  0  0  0
   -6.0121    2.5330   -0.2824 H   0  0  0  0  0  0  0  0  0  0  0  0
   -2.5335    1.9728    1.0188 H   0  0  0  0  0  0  0  0  0  0  0  0
   -2.9373    0.5489    1.9734 H   0  0  0  0  0  0  0  0  0  0  0  0
   -3.5106   -1.6707    0.7877 H   0  0  0  0  0  0  0  0  0  0  0  0
   -3.4959   -1.7534   -0.9717 H   0  0  0  0  0  0  0  0  0  0  0  0
  1  2  1  0
  2  3  1  0
  3  4  1  0
  4  5  1  0
  5  6  1  0
  6  7  2  0
  7  8  1  0
  8  9  1  0
  8 10  1  0
  8 11  1  0
  7 12  1  0
 12 13  1  0
 13 14  2  0
 13 15  1  0
 15 16  1  0
 16 17  1  0
 18 17  1  6
 18 19  1  0
 19 20  1  0
 20 21  1  0
 21 22  1  0
 22 23  1  0
 23 24  1  0
 24 25  1  0
 24 26  1  0
 22 27  1  0
 12 28  2  0
 28  5  1  0
 26 18  1  0
 27 18  1  0
 25 20  1  0
  1 29  1  0
  1 30  1  0
  1 31  1  0
  3 32  1  0
  3 33  1  0
  4 34  1  0
  4 35  1  0
  6 36  1  0
 15 37  1  0
 16 38  1  0
 16 39  1  0
 17 40  1  0
 17 41  1  0
 19 42  1  0
 19 43  1  0
 20 44  1  6
 21 45  1  0
 21 46  1  0
 22 47  1  1
 23 48  1  0
 23 49  1  0
 24 50  1  1
 25 51  1  0
 25 52  1  0
 26 53  1  0
 26 54  1  0
 27 55  1  0
 27 56  1  0
M  END
>  <_SMILES>  (82) 
COCCn1cc(C(F)(F)F)c(C(=O)NCC[C@]23C[C@H]4C[C@H](C[C@H](C4)C2)C3)n1

$$$$

     RDKit          3D

 70 75  0  0  0  0  0  0  0  0999 V2000
   -7.8064    3.2964    0.0565 C   0  0  0  0  0  0  0  0  0  0  0  0
   -7.1600    2.1649   -0.6283 C   0  0  0  0  0  0  0  0  0  0  0  0
   -5.9334    2.0449   -1.0788 N   0  0  0  0  0  0  0  0  0  0  0  0
   -5.9321    0.7675   -1.5900 C   0  0  0  0  0  0  0  0  0  0  0  0
   -4.7615    0.1531   -2.2575 C   0  0  0  0  0  0  0  0  0  0  0  0
   -3.5912    0.1009   -1.3869 N   0  0  0  0  0  0  0  0  0  0  0  0
   -2.4856    0.7818   -1.7516 N   0  0  0  0  0  0  0  0  0  0  0  0
   -1.5744    0.5063   -0.8042 C   0  0  0  0  0  0  0  0  0  0  0  0
   -0.2261    1.1089   -0.8565 C   0  0  0  0  0  0  0  0  0  0  0  0
   -0.0135    2.2635   -1.2180 O   0  0  0  0  0  0  0  0  0  0  0  0
    0.7971    0.2430   -0.4984 N   0  0  0  0  0  0  0  0  0  0  0  0
    2.1803    0.6329   -0.6847 C   0  0  0  0  0  0  0  0  0  0  0  0
    3.1161   -0.3127    0.0677 C   0  0  0  0  0  0  0  0  0  0  0  0
    4.6277   -0.0008   -0.0489 C   0  0  2  0  0  0  0  0  0  0  0  0
    5.4137   -1.0657    0.7658 C   0  0  0  0  0  0  0  0  0  0  0  0
    6.9276   -0.8115    0.6902 C   0  0  1  0  0  0  0  0  0  0  0  0
    7.3759   -0.8721   -0.7781 C   0  0  0  0  0  0  0  0  0  0  0  0
    6.6342    0.1950   -1.5978 C   0  0  2  0  0  0  0  0  0  0  0  0
    6.9434    1.5851   -1.0176 C   0  0  0  0  0  0  0  0  0  0  0  0
    6.4911    1.6554    0.4504 C   0  0  2  0  0  0  0  0  0  0  0  0
    7.2335    0.5819    1.2610 C   0  0  0  0  0  0  0  0  0  0  0  0
    4.9752    1.3963    0.5259 C   0  0  0  0  0  0  0  0  0  0  0  0
    5.1180   -0.0610   -1.5180 C   0  0  0  0  0  0  0  0  0  0  0  0
   -2.1031   -0.4188    0.1543 C   0  0  0  0  0  0  0  0  0  0  0  0
   -1.4219   -0.9694    1.3557 C   0  0  0  0  0  0  0  0  0  0  0  0
   -3.3968   -0.6853   -0.2725 C   0  0  0  0  0  0  0  0  0  0  0  0
   -4.4090   -1.5741    0.2945 C   0  0  0  0  0  0  0  0  0  0  0  0
   -4.5802   -2.8427   -0.2812 C   0  0  0  0  0  0  0  0  0  0  0  0
   -5.5285   -3.7312    0.2242 C   0  0  0  0  0  0  0  0  0  0  0  0
   -6.3082   -3.3639    1.3159 C   0  0  0  0  0  0  0  0  0  0  0  0
   -6.1404   -2.1094    1.9029 C   0  0  0  0  0  0  0  0  0  0  0  0
   -5.1993   -1.1968    1.3981 C   0  0  0  0  0  0  0  0  0  0  0  0
   -5.0350    0.1289    2.0916 C   0  0  0  0  0  0  0  0  0  0  0  0
   -7.1127    0.1341   -1.4992 N   0  0  0  0  0  0  0  0  0  0  0  0
   -7.9266    1.0580   -0.8428 O   0  0  0  0  0  0  0  0  0  0  0  0
   -7.1096    4.1331    0.1627 H   0  0  0  0  0  0  0  0  0  0  0  0
   -8.6746    3.6439   -0.5112 H   0  0  0  0  0  0  0  0  0  0  0  0
   -8.1396    2.9998    1.0554 H   0  0  0  0  0  0  0  0  0  0  0  0
   -4.4949    0.7365   -3.1463 H   0  0  0  0  0  0  0  0  0  0  0  0
   -4.9638   -0.8726   -2.5844 H   0  0  0  0  0  0  0  0  0  0  0  0
    0.5728   -0.7415   -0.5485 H   0  0  0  0  0  0  0  0  0  0  0  0
    2.2956    1.6639   -0.3370 H   0  0  0  0  0  0  0  0  0  0  0  0
    2.3731    0.6127   -1.7618 H   0  0  0  0  0  0  0  0  0  0  0  0
    2.9344   -1.3369   -0.2865 H   0  0  0  0  0  0  0  0  0  0  0  0
    2.8307   -0.3122    1.1288 H   0  0  0  0  0  0  0  0  0  0  0  0
    5.0926   -1.0507    1.8156 H   0  0  0  0  0  0  0  0  0  0  0  0
    5.1928   -2.0714    0.3847 H   0  0  0  0  0  0  0  0  0  0  0  0
    7.4598   -1.5734    1.2707 H   0  0  0  0  0  0  0  0  0  0  0  0
    7.1757   -1.8685   -1.1910 H   0  0  0  0  0  0  0  0  0  0  0  0
    8.4589   -0.7112   -0.8461 H   0  0  0  0  0  0  0  0  0  0  0  0
    6.9606    0.1504   -2.6429 H   0  0  0  0  0  0  0  0  0  0  0  0
    6.4333    2.3586   -1.6048 H   0  0  0  0  0  0  0  0  0  0  0  0
    8.0188    1.7896   -1.0883 H   0  0  0  0  0  0  0  0  0  0  0  0
    6.7159    2.6471    0.8587 H   0  0  0  0  0  0  0  0  0  0  0  0
    6.9309    0.6310    2.3142 H   0  0  0  0  0  0  0  0  0  0  0  0
    8.3138    0.7700    1.2311 H   0  0  0  0  0  0  0  0  0  0  0  0
    4.4559    2.1848   -0.0315 H   0  0  0  0  0  0  0  0  0  0  0  0
    4.6392    1.4705    1.5680 H   0  0  0  0  0  0  0  0  0  0  0  0
    4.6020    0.6888   -2.1293 H   0  0  0  0  0  0  0  0  0  0  0  0
    4.8853   -1.0408   -1.9542 H   0  0  0  0  0  0  0  0  0  0  0  0
   -0.7703   -1.8025    1.0745 H   0  0  0  0  0  0  0  0  0  0  0  0
   -0.8162   -0.2015    1.8473 H   0  0  0  0  0  0  0  0  0  0  0  0
   -2.1383   -1.3399    2.0949 H   0  0  0  0  0  0  0  0  0  0  0  0
   -3.9688   -3.1484   -1.1273 H   0  0  0  0  0  0  0  0  0  0  0  0
   -5.6556   -4.7096   -0.2312 H   0  0  0  0  0  0  0  0  0  0  0  0
   -7.0468   -4.0548    1.7144 H   0  0  0  0  0  0  0  0  0  0  0  0
   -6.7545   -1.8441    2.7611 H   0  0  0  0  0  0  0  0  0  0  0  0
   -4.8533    0.9390    1.3801 H   0  0  0  0  0  0  0  0  0  0  0  0
   -5.9416    0.3967    2.6452 H   0  0  0  0  0  0  0  0  0  0  0  0
   -4.2018    0.0800    2.7994 H   0  0  0  0  0  0  0  0  0  0  0  0
  1  2  1  0
  2  3  2  0
  3  4  1  0
  4  5  1  0
  5  6  1  0
  6  7  1  0
  7  8  2  0
  8  9  1  0
  9 10  2  0
  9 11  1  0
 11 12  1  0
 12 13  1  0
 14 13  1  6
 14 15  1  0
 15 16  1  0
 16 17  1  0
 17 18  1  0
 18 19  1  0
 19 20  1  0
 20 21  1  0
 20 22  1  0
 18 23  1  0
  8 24  1  0
 24 25  1  0
 24 26  2  0
 26 27  1  0
 27 28  2  0
 28 29  1  0
 29 30  2  0
 30 31  1  0
 31 32  2  0
 32 33  1  0
  4 34  2  0
 34 35  1  0
 35  2  1  0
 26  6  1  0
 32 27  1  0
 22 14  1  0
 23 14  1  0
 21 16  1  0
  1 36  1  0
  1 37  1  0
  1 38  1  0
  5 39  1  0
  5 40  1  0
 11 41  1  0
 12 42  1  0
 12 43  1  0
 13 44  1  0
 13 45  1  0
 15 46  1  0
 15 47  1  0
 16 48  1  1
 17 49  1  0
 17 50  1  0
 18 51  1  6
 19 52  1  0
 19 53  1  0
 20 54  1  1
 21 55  1  0
 21 56  1  0
 22 57  1  0
 22 58  1  0
 23 59  1  0
 23 60  1  0
 25 61  1  0
 25 62  1  0
 25 63  1  0
 28 64  1  0
 29 65  1  0
 30 66  1  0
 31 67  1  0
 33 68  1  0
 33 69  1  0
 33 70  1  0
M  END
>  <_SMILES>  (83) 
Cc1nc(Cn2nc(C(=O)NCC[C@]34C[C@H]5C[C@H](C[C@H](C5)C3)C4)c(C)c2-c2ccccc2C)no1

$$$$

     RDKit          3D

 65 69  0  0  0  0  0  0  0  0999 V2000
    9.5094    2.0187   -1.5400 C   0  0  0  0  0  0  0  0  0  0  0  0
    8.7894    0.7378   -1.1474 C   0  0  0  0  0  0  0  0  0  0  0  0
    8.8185    0.5234    0.3675 C   0  0  0  0  0  0  0  0  0  0  0  0
    8.1781   -0.7975    0.7958 C   0  0  0  0  0  0  0  0  0  0  0  0
    6.7454   -0.8443    0.5776 N   0  0  0  0  0  0  0  0  0  0  0  0
    5.7848   -0.2897    1.3708 C   0  0  0  0  0  0  0  0  0  0  0  0
    4.5781   -0.5969    0.7825 C   0  0  0  0  0  0  0  0  0  0  0  0
    3.2435   -0.2067    1.2290 C   0  0  0  0  0  0  0  0  0  0  0  0
    3.0652    0.8844    1.9805 N   0  0  0  0  0  0  0  0  0  0  0  0
    1.7446    0.9212    2.1851 N   0  0  0  0  0  0  0  0  0  0  0  0
    1.0472   -0.0782    1.5614 C   0  0  0  0  0  0  0  0  0  0  0  0
   -0.3905   -0.1134    1.6582 C   0  0  0  0  0  0  0  0  0  0  0  0
   -0.9962    0.5265    2.5124 O   0  0  0  0  0  0  0  0  0  0  0  0
   -1.0345   -0.8577    0.6974 N   0  0  0  0  0  0  0  0  0  0  0  0
   -2.4812   -0.8982    0.6029 C   0  0  0  0  0  0  0  0  0  0  0  0
   -3.0209    0.3063   -0.1725 C   0  0  0  0  0  0  0  0  0  0  0  0
   -4.5576    0.3598   -0.3503 C   0  0  2  0  0  0  0  0  0  0  0  0
   -4.9140    1.6345   -1.1652 C   0  0  0  0  0  0  0  0  0  0  0  0
   -6.4322    1.7479   -1.3763 C   0  0  1  0  0  0  0  0  0  0  0  0
   -6.9284    0.5101   -2.1394 C   0  0  0  0  0  0  0  0  0  0  0  0
   -6.6149   -0.7619   -1.3365 C   0  0  2  0  0  0  0  0  0  0  0  0
   -7.3115   -0.6818    0.0321 C   0  0  0  0  0  0  0  0  0  0  0  0
   -6.8145    0.5515    0.8045 C   0  0  2  0  0  0  0  0  0  0  0  0
   -7.1272    1.8176   -0.0078 C   0  0  0  0  0  0  0  0  0  0  0  0
   -5.2929    0.4395    1.0119 C   0  0  0  0  0  0  0  0  0  0  0  0
   -5.0937   -0.8711   -1.1245 C   0  0  0  0  0  0  0  0  0  0  0  0
    2.0156   -0.8914    0.9775 C   0  0  0  0  0  0  0  0  0  0  0  0
    1.8235   -2.1965    0.2933 C   0  0  0  0  0  0  0  0  0  0  0  0
    4.9249   -1.3260   -0.3702 C   0  0  0  0  0  0  0  0  0  0  0  0
    6.2456   -1.5034   -0.4875 N   0  0  0  0  0  0  0  0  0  0  0  0
   10.5600    1.9881   -1.2341 H   0  0  0  0  0  0  0  0  0  0  0  0
    9.4758    2.1546   -2.6255 H   0  0  0  0  0  0  0  0  0  0  0  0
    9.0403    2.8909   -1.0735 H   0  0  0  0  0  0  0  0  0  0  0  0
    9.2643   -0.1108   -1.6531 H   0  0  0  0  0  0  0  0  0  0  0  0
    7.7548    0.7927   -1.5035 H   0  0  0  0  0  0  0  0  0  0  0  0
    8.3184    1.3627    0.8664 H   0  0  0  0  0  0  0  0  0  0  0  0
    9.8612    0.5256    0.7084 H   0  0  0  0  0  0  0  0  0  0  0  0
    8.3376   -0.9570    1.8687 H   0  0  0  0  0  0  0  0  0  0  0  0
    8.6308   -1.6451    0.2684 H   0  0  0  0  0  0  0  0  0  0  0  0
    6.0230    0.2732    2.2623 H   0  0  0  0  0  0  0  0  0  0  0  0
    1.3540    1.6689    2.7510 H   0  0  0  0  0  0  0  0  0  0  0  0
   -0.5025   -1.1688   -0.1014 H   0  0  0  0  0  0  0  0  0  0  0  0
   -2.7287   -1.8355    0.0969 H   0  0  0  0  0  0  0  0  0  0  0  0
   -2.8921   -0.9323    1.6162 H   0  0  0  0  0  0  0  0  0  0  0  0
   -2.5449    0.3209   -1.1628 H   0  0  0  0  0  0  0  0  0  0  0  0
   -2.6889    1.2266    0.3270 H   0  0  0  0  0  0  0  0  0  0  0  0
   -4.5497    2.5297   -0.6444 H   0  0  0  0  0  0  0  0  0  0  0  0
   -4.4102    1.6123   -2.1404 H   0  0  0  0  0  0  0  0  0  0  0  0
   -6.6587    2.6522   -1.9522 H   0  0  0  0  0  0  0  0  0  0  0  0
   -8.0087    0.5861   -2.3143 H   0  0  0  0  0  0  0  0  0  0  0  0
   -6.4492    0.4592   -3.1248 H   0  0  0  0  0  0  0  0  0  0  0  0
   -6.9746   -1.6410   -1.8827 H   0  0  0  0  0  0  0  0  0  0  0  0
   -7.1099   -1.5924    0.6095 H   0  0  0  0  0  0  0  0  0  0  0  0
   -8.3985   -0.6255   -0.1038 H   0  0  0  0  0  0  0  0  0  0  0  0
   -7.3158    0.6042    1.7775 H   0  0  0  0  0  0  0  0  0  0  0  0
   -6.7909    2.7069    0.5393 H   0  0  0  0  0  0  0  0  0  0  0  0
   -8.2111    1.9180   -0.1429 H   0  0  0  0  0  0  0  0  0  0  0  0
   -4.9336    1.3034    1.5855 H   0  0  0  0  0  0  0  0  0  0  0  0
   -5.0853   -0.4509    1.6170 H   0  0  0  0  0  0  0  0  0  0  0  0
   -4.5904   -0.9552   -2.0961 H   0  0  0  0  0  0  0  0  0  0  0  0
   -4.8809   -1.7964   -0.5760 H   0  0  0  0  0  0  0  0  0  0  0  0
    0.9513   -2.7280    0.6864 H   0  0  0  0  0  0  0  0  0  0  0  0
    1.6860   -2.0482   -0.7821 H   0  0  0  0  0  0  0  0  0  0  0  0
    2.6798   -2.8595    0.4492 H   0  0  0  0  0  0  0  0  0  0  0  0
    4.2844   -1.7351   -1.1390 H   0  0  0  0  0  0  0  0  0  0  0  0
  1  2  1  0
  2  3  1  0
  3  4  1  0
  4  5  1  0
  5  6  1  0
  6  7  2  0
  7  8  1  0
  8  9  2  0
  9 10  1  0
 10 11  1  0
 11 12  1  0
 12 13  2  0
 12 14  1  0
 14 15  1  0
 15 16  1  0
 17 16  1  1
 17 18  1  0
 18 19  1  0
 19 20  1  0
 20 21  1  0
 21 22  1  0
 22 23  1  0
 23 24  1  0
 23 25  1  0
 21 26  1  0
 11 27  2  0
 27 28  1  0
  7 29  1  0
 29 30  2  0
 30  5  1  0
 27  8  1  0
 25 17  1  0
 26 17  1  0
 24 19  1  0
  1 31  1  0
  1 32  1  0
  1 33  1  0
  2 34  1  0
  2 35  1  0
  3 36  1  0
  3 37  1  0
  4 38  1  0
  4 39  1  0
  6 40  1  0
 10 41  1  0
 14 42  1  0
 15 43  1  0
 15 44  1  0
 16 45  1  0
 16 46  1  0
 18 47  1  0
 18 48  1  0
 19 49  1  6
 20 50  1  0
 20 51  1  0
 21 52  1  6
 22 53  1  0
 22 54  1  0
 23 55  1  1
 24 56  1  0
 24 57  1  0
 25 58  1  0
 25 59  1  0
 26 60  1  0
 26 61  1  0
 28 62  1  0
 28 63  1  0
 28 64  1  0
 29 65  1  0
M  END
>  <_SMILES>  (84) 
CCCCn1cc(-c2n[nH]c(C(=O)NCC[C@]34C[C@H]5C[C@H](C[C@H](C5)C3)C4)c2C)cn1

$$$$

     RDKit          3D

 65 69  0  0  0  0  0  0  0  0999 V2000
    9.3537   -2.1356   -1.1819 C   0  0  0  0  0  0  0  0  0  0  0  0
    8.7295   -0.8353   -1.6635 C   0  0  0  0  0  0  0  0  0  0  0  0
    8.8612    0.3152   -0.6611 C   0  0  0  0  0  0  0  0  0  0  0  0
    8.1590    0.0953    0.6798 C   0  0  0  0  0  0  0  0  0  0  0  0
    6.7178   -0.0208    0.5660 N   0  0  0  0  0  0  0  0  0  0  0  0
    5.8231    1.0057    0.4353 C   0  0  0  0  0  0  0  0  0  0  0  0
    4.5810    0.4181    0.3695 C   0  0  0  0  0  0  0  0  0  0  0  0
    3.2434    1.1793    0.2127 C   0  0  0  0  0  0  0  0  0  0  0  0
    3.1409    2.5364    0.1341 N   0  0  0  0  0  0  0  0  0  0  0  0
    1.8858    2.9858    0.0376 N   0  0  0  0  0  0  0  0  0  0  0  0
    1.1324    1.8720    0.0280 C   0  0  0  0  0  0  0  0  0  0  0  0
   -0.3381    1.9562   -0.0486 C   0  0  0  0  0  0  0  0  0  0  0  0
   -0.9333    2.6534   -0.8652 O   0  0  0  0  0  0  0  0  0  0  0  0
   -0.9908    1.1875    0.8994 N   0  0  0  0  0  0  0  0  0  0  0  0
   -2.4351    1.1595    0.9993 C   0  0  0  0  0  0  0  0  0  0  0  0
   -3.0339    0.1421    0.0254 C   0  0  0  0  0  0  0  0  0  0  0  0
   -4.5759    0.0108    0.0509 C   0  0  2  0  0  0  0  0  0  0  0  0
   -5.2739    1.3410   -0.3311 C   0  0  0  0  0  0  0  0  0  0  0  0
   -6.8035    1.1666   -0.3558 C   0  0  1  0  0  0  0  0  0  0  0  0
   -7.1781    0.0906   -1.3867 C   0  0  0  0  0  0  0  0  0  0  0  0
   -6.5208   -1.2466   -1.0119 C   0  0  2  0  0  0  0  0  0  0  0  0
   -7.0005   -1.6791    0.3822 C   0  0  0  0  0  0  0  0  0  0  0  0
   -6.6251   -0.6109    1.4210 C   0  0  2  0  0  0  0  0  0  0  0  0
   -7.2843    0.7239    1.0361 C   0  0  0  0  0  0  0  0  0  0  0  0
   -5.0959   -0.4327    1.4419 C   0  0  0  0  0  0  0  0  0  0  0  0
   -4.9945   -1.0681   -0.9867 C   0  0  0  0  0  0  0  0  0  0  0  0
    1.9528    0.6928    0.1152 C   0  0  0  0  0  0  0  0  0  0  0  0
    1.4981   -0.7200    0.0735 C   0  0  0  0  0  0  0  0  0  0  0  0
    4.8330   -0.9611    0.4857 C   0  0  0  0  0  0  0  0  0  0  0  0
    6.1351   -1.2326    0.6143 N   0  0  0  0  0  0  0  0  0  0  0  0
    8.8198   -2.5434   -0.3189 H   0  0  0  0  0  0  0  0  0  0  0  0
    9.3174   -2.8864   -1.9778 H   0  0  0  0  0  0  0  0  0  0  0  0
   10.4019   -1.9887   -0.9032 H   0  0  0  0  0  0  0  0  0  0  0  0
    7.6767   -1.0049   -1.9148 H   0  0  0  0  0  0  0  0  0  0  0  0
    9.2261   -0.5372   -2.5950 H   0  0  0  0  0  0  0  0  0  0  0  0
    9.9257    0.4991   -0.4700 H   0  0  0  0  0  0  0  0  0  0  0  0
    8.4684    1.2259   -1.1306 H   0  0  0  0  0  0  0  0  0  0  0  0
    8.3524    0.9495    1.3398 H   0  0  0  0  0  0  0  0  0  0  0  0
    8.5346   -0.7956    1.1941 H   0  0  0  0  0  0  0  0  0  0  0  0
    6.1532    2.0333    0.3949 H   0  0  0  0  0  0  0  0  0  0  0  0
    3.8923    3.2159    0.1516 H   0  0  0  0  0  0  0  0  0  0  0  0
   -0.4390    0.7359    1.6159 H   0  0  0  0  0  0  0  0  0  0  0  0
   -2.6679    0.8967    2.0350 H   0  0  0  0  0  0  0  0  0  0  0  0
   -2.8153    2.1667    0.8047 H   0  0  0  0  0  0  0  0  0  0  0  0
   -2.5870   -0.8400    0.2339 H   0  0  0  0  0  0  0  0  0  0  0  0
   -2.7159    0.3992   -0.9941 H   0  0  0  0  0  0  0  0  0  0  0  0
   -5.0218    2.1309    0.3861 H   0  0  0  0  0  0  0  0  0  0  0  0
   -4.9251    1.6822   -1.3142 H   0  0  0  0  0  0  0  0  0  0  0  0
   -7.2782    2.1168   -0.6252 H   0  0  0  0  0  0  0  0  0  0  0  0
   -6.8538    0.4010   -2.3875 H   0  0  0  0  0  0  0  0  0  0  0  0
   -8.2681   -0.0262   -1.4273 H   0  0  0  0  0  0  0  0  0  0  0  0
   -6.7915   -2.0107   -1.7491 H   0  0  0  0  0  0  0  0  0  0  0  0
   -8.0871   -1.8289    0.3747 H   0  0  0  0  0  0  0  0  0  0  0  0
   -6.5484   -2.6410    0.6533 H   0  0  0  0  0  0  0  0  0  0  0  0
   -6.9732   -0.9220    2.4124 H   0  0  0  0  0  0  0  0  0  0  0  0
   -8.3760    0.6169    1.0386 H   0  0  0  0  0  0  0  0  0  0  0  0
   -7.0384    1.4919    1.7797 H   0  0  0  0  0  0  0  0  0  0  0  0
   -4.8391    0.3102    2.2063 H   0  0  0  0  0  0  0  0  0  0  0  0
   -4.6182   -1.3743    1.7414 H   0  0  0  0  0  0  0  0  0  0  0  0
   -4.5184   -2.0278   -0.7464 H   0  0  0  0  0  0  0  0  0  0  0  0
   -4.6431   -0.7857   -1.9877 H   0  0  0  0  0  0  0  0  0  0  0  0
    2.0890   -1.2959   -0.6456 H   0  0  0  0  0  0  0  0  0  0  0  0
    1.5947   -1.1820    1.0608 H   0  0  0  0  0  0  0  0  0  0  0  0
    0.4541   -0.8051   -0.2415 H   0  0  0  0  0  0  0  0  0  0  0  0
    4.1361   -1.7870    0.4901 H   0  0  0  0  0  0  0  0  0  0  0  0
  1  2  1  0
  2  3  1  0
  3  4  1  0
  4  5  1  0
  5  6  1  0
  6  7  2  0
  7  8  1  0
  8  9  1  0
  9 10  1  0
 10 11  2  0
 11 12  1  0
 12 13  2  0
 12 14  1  0
 14 15  1  0
 15 16  1  0
 17 16  1  1
 17 18  1  0
 18 19  1  0
 19 20  1  0
 20 21  1  0
 21 22  1  0
 22 23  1  0
 23 24  1  0
 23 25  1  0
 21 26  1  0
 11 27  1  0
 27 28  1  0
  7 29  1  0
 29 30  2  0
 30  5  1  0
 27  8  2  0
 25 17  1  0
 26 17  1  0
 24 19  1  0
  1 31  1  0
  1 32  1  0
  1 33  1  0
  2 34  1  0
  2 35  1  0
  3 36  1  0
  3 37  1  0
  4 38  1  0
  4 39  1  0
  6 40  1  0
  9 41  1  0
 14 42  1  0
 15 43  1  0
 15 44  1  0
 16 45  1  0
 16 46  1  0
 18 47  1  0
 18 48  1  0
 19 49  1  6
 20 50  1  0
 20 51  1  0
 21 52  1  6
 22 53  1  0
 22 54  1  0
 23 55  1  1
 24 56  1  0
 24 57  1  0
 25 58  1  0
 25 59  1  0
 26 60  1  0
 26 61  1  0
 28 62  1  0
 28 63  1  0
 28 64  1  0
 29 65  1  0
M  END
>  <_SMILES>  (85) 
CCCCn1cc(-c2[nH]nc(C(=O)NCC[C@]34C[C@H]5C[C@H](C[C@H](C5)C3)C4)c2C)cn1

$$$$

     RDKit          3D

 69 74  0  0  0  0  0  0  0  0999 V2000
    2.7451    2.0446    1.8521 C   0  0  0  0  0  0  0  0  0  0  0  0
    3.1197    0.8394    1.0634 C   0  0  0  0  0  0  0  0  0  0  0  0
    2.3257   -0.3281    0.8470 C   0  0  0  0  0  0  0  0  0  0  0  0
    0.9301   -0.5799    1.2562 C   0  0  0  0  0  0  0  0  0  0  0  0
    0.5400   -1.6570    1.6983 O   0  0  0  0  0  0  0  0  0  0  0  0
    0.0828    0.4997    1.0663 N   0  0  0  0  0  0  0  0  0  0  0  0
   -1.3441    0.3877    1.2878 C   0  0  0  0  0  0  0  0  0  0  0  0
   -2.0544   -0.2122    0.0726 C   0  0  0  0  0  0  0  0  0  0  0  0
   -3.5615   -0.5007    0.2977 C   0  0  1  0  0  0  0  0  0  0  0  0
   -4.3531    0.7901    0.5730 C   0  0  0  0  0  0  0  0  0  0  0  0
   -5.8507    0.6400    0.9423 C   0  0  1  0  0  0  0  0  0  0  0  0
   -6.7767    1.3654   -0.0652 C   0  0  0  0  0  0  0  0  0  0  0  0
   -7.1773    0.5032   -1.2774 C   0  0  2  0  0  0  0  0  0  0  0  0
   -7.8260   -0.7944   -0.7981 C   0  0  0  0  0  0  0  0  0  0  0  0
   -6.6155   -1.5027   -0.1793 C   0  0  2  0  0  0  0  0  0  0  0  0
   -6.3070   -0.8102    1.1513 C   0  0  0  0  0  0  0  0  0  0  0  0
   -5.5494   -1.3103   -1.2801 C   0  0  1  0  0  0  0  0  0  0  0  0
   -5.9515   -0.0186   -2.0283 C   0  0  0  0  0  0  0  0  0  0  0  0
   -4.0727   -1.3508   -0.8869 C   0  0  0  0  0  0  0  0  0  0  0  0
    3.0363   -1.2772    0.2239 N   0  0  0  0  0  0  0  0  0  0  0  0
    4.2061   -0.6912   -0.1215 N   0  0  0  0  0  0  0  0  0  0  0  0
    5.1279   -1.4338   -0.9059 C   0  0  0  0  0  0  0  0  0  0  0  0
    5.3097   -2.7881   -0.5662 C   0  0  0  0  0  0  0  0  0  0  0  0
    6.2501   -3.5679   -1.2396 C   0  0  0  0  0  0  0  0  0  0  0  0
    6.9999   -3.0121   -2.2713 C   0  0  0  0  0  0  0  0  0  0  0  0
    6.7851   -1.6865   -2.6524 C   0  0  0  0  0  0  0  0  0  0  0  0
    5.8382   -0.8950   -1.9864 C   0  0  0  0  0  0  0  0  0  0  0  0
    5.4463    0.7806   -2.7962 Br  0  0  0  0  0  0  0  0  0  0  0  0
    4.3501    0.5612    0.4728 C   0  0  0  0  0  0  0  0  0  0  0  0
    5.6031    1.3222    0.5689 C   0  0  0  0  0  0  0  0  0  0  0  0
    6.7690    0.7225    1.0646 C   0  0  0  0  0  0  0  0  0  0  0  0
    7.9548    1.4534    1.1693 C   0  0  0  0  0  0  0  0  0  0  0  0
    7.9850    2.7934    0.7894 C   0  0  0  0  0  0  0  0  0  0  0  0
    6.8296    3.4056    0.3093 C   0  0  0  0  0  0  0  0  0  0  0  0
    5.6435    2.6755    0.2047 C   0  0  0  0  0  0  0  0  0  0  0  0
    2.0031    1.8036    2.6197 H   0  0  0  0  0  0  0  0  0  0  0  0
    3.6100    2.4691    2.3712 H   0  0  0  0  0  0  0  0  0  0  0  0
    2.3261    2.8120    1.1937 H   0  0  0  0  0  0  0  0  0  0  0  0
    0.4207    1.2672    0.5020 H   0  0  0  0  0  0  0  0  0  0  0  0
   -1.5190   -0.2271    2.1773 H   0  0  0  0  0  0  0  0  0  0  0  0
   -1.7009    1.4009    1.4924 H   0  0  0  0  0  0  0  0  0  0  0  0
   -1.9280    0.4591   -0.7872 H   0  0  0  0  0  0  0  0  0  0  0  0
   -1.5546   -1.1518   -0.1988 H   0  0  0  0  0  0  0  0  0  0  0  0
   -3.6090   -1.1269    1.1973 H   0  0  0  0  0  0  0  0  0  0  0  0
   -4.2159    1.4940   -0.2558 H   0  0  0  0  0  0  0  0  0  0  0  0
   -3.8891    1.2909    1.4323 H   0  0  0  0  0  0  0  0  0  0  0  0
   -5.9738    1.1605    1.9027 H   0  0  0  0  0  0  0  0  0  0  0  0
   -7.6969    1.6515    0.4621 H   0  0  0  0  0  0  0  0  0  0  0  0
   -6.3189    2.3025   -0.4036 H   0  0  0  0  0  0  0  0  0  0  0  0
   -7.8420    1.0716   -1.9356 H   0  0  0  0  0  0  0  0  0  0  0  0
   -8.2249   -1.3688   -1.6434 H   0  0  0  0  0  0  0  0  0  0  0  0
   -8.6418   -0.6268   -0.0873 H   0  0  0  0  0  0  0  0  0  0  0  0
   -6.8263   -2.5630   -0.0040 H   0  0  0  0  0  0  0  0  0  0  0  0
   -5.5869   -1.3869    1.7385 H   0  0  0  0  0  0  0  0  0  0  0  0
   -7.2198   -0.8038    1.7632 H   0  0  0  0  0  0  0  0  0  0  0  0
   -5.6892   -2.1293   -2.0021 H   0  0  0  0  0  0  0  0  0  0  0  0
   -6.2394   -0.2806   -3.0549 H   0  0  0  0  0  0  0  0  0  0  0  0
   -5.1519    0.7222   -2.1122 H   0  0  0  0  0  0  0  0  0  0  0  0
   -3.8127   -2.3960   -0.6677 H   0  0  0  0  0  0  0  0  0  0  0  0
   -3.4946   -1.0989   -1.7870 H   0  0  0  0  0  0  0  0  0  0  0  0
    4.7377   -3.2368    0.2459 H   0  0  0  0  0  0  0  0  0  0  0  0
    6.3945   -4.6079   -0.9570 H   0  0  0  0  0  0  0  0  0  0  0  0
    7.7303   -3.6187   -2.8012 H   0  0  0  0  0  0  0  0  0  0  0  0
    7.3407   -1.2880   -3.4986 H   0  0  0  0  0  0  0  0  0  0  0  0
    6.7660   -0.3172    1.3844 H   0  0  0  0  0  0  0  0  0  0  0  0
    8.8534    0.9759    1.5516 H   0  0  0  0  0  0  0  0  0  0  0  0
    8.9085    3.3610    0.8702 H   0  0  0  0  0  0  0  0  0  0  0  0
    6.8513    4.4509    0.0124 H   0  0  0  0  0  0  0  0  0  0  0  0
    4.7547    3.1677   -0.1826 H   0  0  0  0  0  0  0  0  0  0  0  0
  1  2  1  0
  2  3  1  0
  3  4  1  0
  4  5  2  0
  4  6  1  0
  6  7  1  0
  7  8  1  0
  8  9  1  0
  9 10  1  0
 10 11  1  0
 11 12  1  0
 12 13  1  0
 13 14  1  0
 14 15  1  0
 15 16  1  0
 15 17  1  0
 17 18  1  0
 17 19  1  0
  3 20  2  0
 20 21  1  0
 21 22  1  0
 22 23  2  0
 23 24  1  0
 24 25  2  0
 25 26  1  0
 26 27  2  0
 27 28  1  0
 21 29  1  0
 29 30  1  0
 30 31  2  0
 31 32  1  0
 32 33  2  0
 33 34  1  0
 34 35  2  0
 29  2  2  0
 35 30  1  0
 19  9  1  0
 27 22  1  0
 16 11  1  0
 18 13  1  0
  1 36  1  0
  1 37  1  0
  1 38  1  0
  6 39  1  0
  7 40  1  0
  7 41  1  0
  8 42  1  0
  8 43  1  0
  9 44  1  1
 10 45  1  0
 10 46  1  0
 11 47  1  1
 12 48  1  0
 12 49  1  0
 13 50  1  6
 14 51  1  0
 14 52  1  0
 15 53  1  1
 16 54  1  0
 16 55  1  0
 17 56  1  6
 18 57  1  0
 18 58  1  0
 19 59  1  0
 19 60  1  0
 23 61  1  0
 24 62  1  0
 25 63  1  0
 26 64  1  0
 31 65  1  0
 32 66  1  0
 33 67  1  0
 34 68  1  0
 35 69  1  0
M  END
>  <_SMILES>  (86) 
Cc1c(C(=O)NCC[C@H]2C[C@H]3C[C@@H]4C[C@H](C3)[C@@H](C4)C2)nn(-c2ccccc2Br)c1-c1ccccc1

$$$$

     RDKit          3D

 58 62  0  0  0  0  0  0  0  0999 V2000
    3.3369   -0.6193   -2.1944 C   0  0  0  0  0  0  0  0  0  0  0  0
    4.5115   -0.4122   -1.3030 C   0  0  0  0  0  0  0  0  0  0  0  0
    5.7716   -0.7261   -1.7518 N   0  0  0  0  0  0  0  0  0  0  0  0
    6.7080   -0.5151   -0.7702 C   0  0  0  0  0  0  0  0  0  0  0  0
    8.0936   -0.7177   -0.7789 C   0  0  0  0  0  0  0  0  0  0  0  0
    8.8918   -1.3261   -2.1739 Cl  0  0  0  0  0  0  0  0  0  0  0  0
    8.8182   -0.4158    0.3730 C   0  0  0  0  0  0  0  0  0  0  0  0
    8.1631    0.0754    1.4965 C   0  0  0  0  0  0  0  0  0  0  0  0
    9.0732    0.4444    2.9122 Cl  0  0  0  0  0  0  0  0  0  0  0  0
    6.7781    0.2776    1.5009 C   0  0  0  0  0  0  0  0  0  0  0  0
    6.0270   -0.0249    0.3428 C   0  0  0  0  0  0  0  0  0  0  0  0
    4.6314    0.0647   -0.0008 C   0  0  0  0  0  0  0  0  0  0  0  0
    3.5665    0.5359    0.8886 C   0  0  0  0  0  0  0  0  0  0  0  0
    3.6948    0.5457    2.1154 O   0  0  0  0  0  0  0  0  0  0  0  0
    2.2089    1.0265    0.3662 C   0  0  0  0  0  0  0  0  0  0  0  0
    2.1179    1.6811   -0.6607 O   0  0  0  0  0  0  0  0  0  0  0  0
    1.1498    0.6827    1.1893 N   0  0  0  0  0  0  0  0  0  0  0  0
   -0.1628    1.2555    0.9872 C   0  0  0  0  0  0  0  0  0  0  0  0
   -1.2313    0.4557    1.7294 C   0  0  0  0  0  0  0  0  0  0  0  0
   -2.6432    1.0280    1.5427 C   0  0  0  0  0  0  0  0  0  0  0  0
   -3.5263    0.3769    0.4463 C   0  0  2  0  0  0  0  0  0  0  0  0
   -4.8500    1.1865    0.3407 C   0  0  0  0  0  0  0  0  0  0  0  0
   -5.7856    0.5824   -0.7188 C   0  0  1  0  0  0  0  0  0  0  0  0
   -5.0781    0.5964   -2.0824 C   0  0  0  0  0  0  0  0  0  0  0  0
   -3.7837   -0.2280   -2.0097 C   0  0  2  0  0  0  0  0  0  0  0  0
   -4.1247   -1.6749   -1.6168 C   0  0  0  0  0  0  0  0  0  0  0  0
   -4.8279   -1.6968   -0.2499 C   0  0  2  0  0  0  0  0  0  0  0  0
   -6.1182   -0.8664   -0.3308 C   0  0  0  0  0  0  0  0  0  0  0  0
   -3.8941   -1.0865    0.8112 C   0  0  0  0  0  0  0  0  0  0  0  0
   -2.8502    0.3779   -0.9459 C   0  0  0  0  0  0  0  0  0  0  0  0
    3.0805    0.3101   -2.7115 H   0  0  0  0  0  0  0  0  0  0  0  0
    2.4676   -0.9639   -1.6266 H   0  0  0  0  0  0  0  0  0  0  0  0
    3.5480   -1.3788   -2.9550 H   0  0  0  0  0  0  0  0  0  0  0  0
    5.9932   -1.0846   -2.6724 H   0  0  0  0  0  0  0  0  0  0  0  0
    9.8945   -0.5647    0.3912 H   0  0  0  0  0  0  0  0  0  0  0  0
    6.2837    0.6623    2.3896 H   0  0  0  0  0  0  0  0  0  0  0  0
    1.4206    0.3913    2.1260 H   0  0  0  0  0  0  0  0  0  0  0  0
   -0.1265    2.2864    1.3573 H   0  0  0  0  0  0  0  0  0  0  0  0
   -0.3635    1.2990   -0.0868 H   0  0  0  0  0  0  0  0  0  0  0  0
   -1.1801   -0.5996    1.4438 H   0  0  0  0  0  0  0  0  0  0  0  0
   -0.9893    0.4862    2.8003 H   0  0  0  0  0  0  0  0  0  0  0  0
   -3.1709    0.9217    2.5008 H   0  0  0  0  0  0  0  0  0  0  0  0
   -2.5735    2.1092    1.3646 H   0  0  0  0  0  0  0  0  0  0  0  0
   -4.6332    2.2312    0.0818 H   0  0  0  0  0  0  0  0  0  0  0  0
   -5.3607    1.2038    1.3124 H   0  0  0  0  0  0  0  0  0  0  0  0
   -6.7084    1.1706   -0.7754 H   0  0  0  0  0  0  0  0  0  0  0  0
   -5.7416    0.1851   -2.8530 H   0  0  0  0  0  0  0  0  0  0  0  0
   -4.8497    1.6281   -2.3766 H   0  0  0  0  0  0  0  0  0  0  0  0
   -3.2850   -0.2186   -2.9854 H   0  0  0  0  0  0  0  0  0  0  0  0
   -3.2097   -2.2787   -1.5777 H   0  0  0  0  0  0  0  0  0  0  0  0
   -4.7719   -2.1271   -2.3783 H   0  0  0  0  0  0  0  0  0  0  0  0
   -5.0709   -2.7297    0.0237 H   0  0  0  0  0  0  0  0  0  0  0  0
   -6.8006   -1.3049   -1.0692 H   0  0  0  0  0  0  0  0  0  0  0  0
   -6.6384   -0.8866    0.6347 H   0  0  0  0  0  0  0  0  0  0  0  0
   -2.9940   -1.7071    0.8887 H   0  0  0  0  0  0  0  0  0  0  0  0
   -4.3839   -1.1195    1.7929 H   0  0  0  0  0  0  0  0  0  0  0  0
   -1.9224   -0.2061   -0.9234 H   0  0  0  0  0  0  0  0  0  0  0  0
   -2.5801    1.4016   -1.2341 H   0  0  0  0  0  0  0  0  0  0  0  0
  1  2  1  0
  2  3  1  0
  3  4  1  0
  4  5  2  0
  5  6  1  0
  5  7  1  0
  7  8  2  0
  8  9  1  0
  8 10  1  0
 10 11  2  0
 11 12  1  0
 12 13  1  0
 13 14  2  0
 13 15  1  0
 15 16  2  0
 15 17  1  0
 17 18  1  0
 18 19  1  0
 19 20  1  0
 21 20  1  1
 21 22  1  0
 22 23  1  0
 23 24  1  0
 24 25  1  0
 25 26  1  0
 26 27  1  0
 27 28  1  0
 27 29  1  0
 25 30  1  0
 12  2  2  0
 29 21  1  0
 11  4  1  0
 30 21  1  0
 28 23  1  0
  1 31  1  0
  1 32  1  0
  1 33  1  0
  3 34  1  0
  7 35  1  0
 10 36  1  0
 17 37  1  0
 18 38  1  0
 18 39  1  0
 19 40  1  0
 19 41  1  0
 20 42  1  0
 20 43  1  0
 22 44  1  0
 22 45  1  0
 23 46  1  6
 24 47  1  0
 24 48  1  0
 25 49  1  6
 26 50  1  0
 26 51  1  0
 27 52  1  1
 28 53  1  0
 28 54  1  0
 29 55  1  0
 29 56  1  0
 30 57  1  0
 30 58  1  0
M  END
>  <_SMILES>  (87) 
Cc1[nH]c2c(Cl)cc(Cl)cc2c1C(=O)C(=O)NCCC[C@]12C[C@H]3C[C@H](C[C@H](C3)C1)C2

$$$$

     RDKit          3D

 58 62  0  0  0  0  0  0  0  0999 V2000
    5.1773   -1.1710   -2.9948 C   0  0  0  0  0  0  0  0  0  0  0  0
    4.8480   -1.0296   -1.7048 C   0  0  0  0  0  0  0  0  0  0  0  0
    5.5351   -1.6168   -0.6606 N   0  0  0  0  0  0  0  0  0  0  0  0
    5.2839   -0.8844    0.5193 C   0  0  0  0  0  0  0  0  0  0  0  0
    5.8595   -1.0861    1.7674 C   0  0  0  0  0  0  0  0  0  0  0  0
    7.1168   -2.2392    1.9925 Cl  0  0  0  0  0  0  0  0  0  0  0  0
    5.4034   -0.3370    2.8484 C   0  0  0  0  0  0  0  0  0  0  0  0
    4.3606    0.5793    2.6650 C   0  0  0  0  0  0  0  0  0  0  0  0
    3.7848    1.4737    4.0216 Cl  0  0  0  0  0  0  0  0  0  0  0  0
    3.7640    0.7730    1.4131 C   0  0  0  0  0  0  0  0  0  0  0  0
    4.2365    0.0495    0.3290 C   0  0  0  0  0  0  0  0  0  0  0  0
    3.8630   -0.0783   -1.1159 C   0  0  0  0  0  0  0  0  0  0  0  0
    2.7885    0.4425   -1.7518 C   0  0  0  0  0  0  0  0  0  0  0  0
    2.3219   -0.0519   -2.9716 O   0  0  0  0  0  0  0  0  0  0  0  0
    1.9632    1.5585   -1.1780 C   0  0  0  0  0  0  0  0  0  0  0  0
    2.4451    2.5312   -0.6140 O   0  0  0  0  0  0  0  0  0  0  0  0
    0.6208    1.3863   -1.4171 N   0  0  0  0  0  0  0  0  0  0  0  0
   -0.3731    2.3497   -1.0050 C   0  0  0  0  0  0  0  0  0  0  0  0
   -0.6434    2.3315    0.4974 C   0  0  0  0  0  0  0  0  0  0  0  0
   -0.9688    0.9725    1.1371 C   0  0  0  0  0  0  0  0  0  0  0  0
   -2.2903    0.2505    0.7602 C   0  0  2  0  0  0  0  0  0  0  0  0
   -2.5920   -0.8014    1.8708 C   0  0  0  0  0  0  0  0  0  0  0  0
   -3.8907   -1.5686    1.5769 C   0  0  1  0  0  0  0  0  0  0  0  0
   -5.0569   -0.5718    1.4954 C   0  0  0  0  0  0  0  0  0  0  0  0
   -4.7964    0.4499    0.3780 C   0  0  2  0  0  0  0  0  0  0  0  0
   -4.6485   -0.2908   -0.9613 C   0  0  0  0  0  0  0  0  0  0  0  0
   -3.4800   -1.2875   -0.8857 C   0  0  2  0  0  0  0  0  0  0  0  0
   -3.7492   -2.3014    0.2353 C   0  0  0  0  0  0  0  0  0  0  0  0
   -2.1797   -0.5206   -0.5811 C   0  0  0  0  0  0  0  0  0  0  0  0
   -3.4963    1.2178    0.6792 C   0  0  0  0  0  0  0  0  0  0  0  0
    4.7207   -0.5884   -3.7873 H   0  0  0  0  0  0  0  0  0  0  0  0
    5.9720   -1.8481   -3.2925 H   0  0  0  0  0  0  0  0  0  0  0  0
    6.4784   -1.9519   -0.8151 H   0  0  0  0  0  0  0  0  0  0  0  0
    5.8423   -0.4728    3.8331 H   0  0  0  0  0  0  0  0  0  0  0  0
    2.9439    1.4746    1.3301 H   0  0  0  0  0  0  0  0  0  0  0  0
    2.7061   -0.9370   -3.0933 H   0  0  0  0  0  0  0  0  0  0  0  0
    0.3559    0.6238   -2.0296 H   0  0  0  0  0  0  0  0  0  0  0  0
   -1.2862    2.1605   -1.5744 H   0  0  0  0  0  0  0  0  0  0  0  0
   -0.0197    3.3467   -1.2935 H   0  0  0  0  0  0  0  0  0  0  0  0
    0.2501    2.7158    1.0076 H   0  0  0  0  0  0  0  0  0  0  0  0
   -1.4373    3.0519    0.7256 H   0  0  0  0  0  0  0  0  0  0  0  0
   -0.9878    1.1598    2.2203 H   0  0  0  0  0  0  0  0  0  0  0  0
   -0.1252    0.2870    0.9831 H   0  0  0  0  0  0  0  0  0  0  0  0
   -2.6812   -0.3054    2.8464 H   0  0  0  0  0  0  0  0  0  0  0  0
   -1.7574   -1.5098    1.9546 H   0  0  0  0  0  0  0  0  0  0  0  0
   -4.0803   -2.2942    2.3758 H   0  0  0  0  0  0  0  0  0  0  0  0
   -5.9946   -1.1074    1.3024 H   0  0  0  0  0  0  0  0  0  0  0  0
   -5.1774   -0.0552    2.4555 H   0  0  0  0  0  0  0  0  0  0  0  0
   -5.6341    1.1539    0.3195 H   0  0  0  0  0  0  0  0  0  0  0  0
   -4.4761    0.4288   -1.7711 H   0  0  0  0  0  0  0  0  0  0  0  0
   -5.5783   -0.8216   -1.2002 H   0  0  0  0  0  0  0  0  0  0  0  0
   -3.3815   -1.8134   -1.8420 H   0  0  0  0  0  0  0  0  0  0  0  0
   -2.9297   -3.0285    0.2887 H   0  0  0  0  0  0  0  0  0  0  0  0
   -4.6635   -2.8674    0.0184 H   0  0  0  0  0  0  0  0  0  0  0  0
   -1.3375   -1.2235   -0.5459 H   0  0  0  0  0  0  0  0  0  0  0  0
   -1.9859    0.1601   -1.4130 H   0  0  0  0  0  0  0  0  0  0  0  0
   -3.3399    1.9642   -0.1086 H   0  0  0  0  0  0  0  0  0  0  0  0
   -3.6032    1.7679    1.6229 H   0  0  0  0  0  0  0  0  0  0  0  0
  1  2  2  0
  2  3  1  0
  3  4  1  0
  4  5  2  0
  5  6  1  0
  5  7  1  0
  7  8  2  0
  8  9  1  0
  8 10  1  0
 10 11  2  0
 11 12  1  0
 12 13  2  0
 13 14  1  0
 13 15  1  0
 15 16  2  0
 15 17  1  0
 17 18  1  0
 18 19  1  0
 19 20  1  0
 21 20  1  1
 21 22  1  0
 22 23  1  0
 23 24  1  0
 24 25  1  0
 25 26  1  0
 26 27  1  0
 27 28  1  0
 27 29  1  0
 25 30  1  0
 12  2  1  0
 29 21  1  0
 11  4  1  0
 30 21  1  0
 28 23  1  0
  1 31  1  0
  1 32  1  0
  3 33  1  0
  7 34  1  0
 10 35  1  0
 14 36  1  0
 17 37  1  0
 18 38  1  0
 18 39  1  0
 19 40  1  0
 19 41  1  0
 20 42  1  0
 20 43  1  0
 22 44  1  0
 22 45  1  0
 23 46  1  1
 24 47  1  0
 24 48  1  0
 25 49  1  6
 26 50  1  0
 26 51  1  0
 27 52  1  6
 28 53  1  0
 28 54  1  0
 29 55  1  0
 29 56  1  0
 30 57  1  0
 30 58  1  0
M  END
>  <_SMILES>  (88) 
C=c1[nH]c2c(Cl)cc(Cl)cc2/c1=C(/O)C(=O)NCCC[C@]12C[C@H]3C[C@H](C[C@H](C3)C1)C2

$$$$

     RDKit          3D

 58 62  0  0  0  0  0  0  0  0999 V2000
    4.5086   -2.9641   -0.1944 C   0  0  0  0  0  0  0  0  0  0  0  0
    5.1441   -1.7877   -0.1923 C   0  0  0  0  0  0  0  0  0  0  0  0
    6.4684   -1.6349    0.1865 N   0  0  0  0  0  0  0  0  0  0  0  0
    6.7150   -0.2859    0.4954 C   0  0  0  0  0  0  0  0  0  0  0  0
    7.8772    0.2759    1.0020 C   0  0  0  0  0  0  0  0  0  0  0  0
    9.2258   -0.7017    1.4330 Cl  0  0  0  0  0  0  0  0  0  0  0  0
    7.9377    1.6584    1.1747 C   0  0  0  0  0  0  0  0  0  0  0  0
    6.8392    2.4548    0.8211 C   0  0  0  0  0  0  0  0  0  0  0  0
    6.9325    4.1611    1.0444 Cl  0  0  0  0  0  0  0  0  0  0  0  0
    5.6725    1.8973    0.2897 C   0  0  0  0  0  0  0  0  0  0  0  0
    5.6203    0.5227    0.1200 C   0  0  0  0  0  0  0  0  0  0  0  0
    4.5929   -0.4240   -0.4103 C   0  0  0  0  0  0  0  0  0  0  0  0
    3.4497   -0.0275   -1.0055 C   0  0  0  0  0  0  0  0  0  0  0  0
    3.0800    1.3163   -1.0589 O   0  0  0  0  0  0  0  0  0  0  0  0
    2.4865   -0.9751   -1.6603 C   0  0  0  0  0  0  0  0  0  0  0  0
    2.8115   -1.8493   -2.4483 O   0  0  0  0  0  0  0  0  0  0  0  0
    1.1823   -0.6716   -1.3165 N   0  0  0  0  0  0  0  0  0  0  0  0
    0.1017   -1.5477   -1.7219 C   0  0  0  0  0  0  0  0  0  0  0  0
   -1.2724   -0.8963   -1.5632 C   0  0  0  0  0  0  0  0  0  0  0  0
   -1.6802   -0.7356   -0.0917 C   0  0  0  0  0  0  0  0  0  0  0  0
   -3.0837   -0.1276    0.1592 C   0  0  2  0  0  0  0  0  0  0  0  0
   -4.2124   -1.0040   -0.4413 C   0  0  0  0  0  0  0  0  0  0  0  0
   -5.5953   -0.4062   -0.1231 C   0  0  1  0  0  0  0  0  0  0  0  0
   -5.7799   -0.3281    1.4002 C   0  0  0  0  0  0  0  0  0  0  0  0
   -4.6888    0.5613    2.0156 C   0  0  2  0  0  0  0  0  0  0  0  0
   -4.7778    1.9716    1.4125 C   0  0  0  0  0  0  0  0  0  0  0  0
   -4.5890    1.9037   -0.1108 C   0  0  2  0  0  0  0  0  0  0  0  0
   -5.6829    1.0093   -0.7174 C   0  0  0  0  0  0  0  0  0  0  0  0
   -3.2083    1.3011   -0.4290 C   0  0  0  0  0  0  0  0  0  0  0  0
   -3.3103   -0.0376    1.6947 C   0  0  0  0  0  0  0  0  0  0  0  0
    5.0434   -3.8816    0.0274 H   0  0  0  0  0  0  0  0  0  0  0  0
    3.4553   -3.0736   -0.4149 H   0  0  0  0  0  0  0  0  0  0  0  0
    6.9286   -2.3622    0.7166 H   0  0  0  0  0  0  0  0  0  0  0  0
    8.8354    2.1187    1.5787 H   0  0  0  0  0  0  0  0  0  0  0  0
    4.8388    2.5343    0.0187 H   0  0  0  0  0  0  0  0  0  0  0  0
    2.3630    1.3710   -1.7202 H   0  0  0  0  0  0  0  0  0  0  0  0
    1.0594   -0.1093   -0.4819 H   0  0  0  0  0  0  0  0  0  0  0  0
    0.1743   -2.4683   -1.1319 H   0  0  0  0  0  0  0  0  0  0  0  0
    0.2573   -1.8180   -2.7727 H   0  0  0  0  0  0  0  0  0  0  0  0
   -2.0018   -1.5307   -2.0774 H   0  0  0  0  0  0  0  0  0  0  0  0
   -1.2684    0.0762   -2.0669 H   0  0  0  0  0  0  0  0  0  0  0  0
   -0.9366   -0.1102    0.4180 H   0  0  0  0  0  0  0  0  0  0  0  0
   -1.6311   -1.7212    0.3905 H   0  0  0  0  0  0  0  0  0  0  0  0
   -4.1507   -2.0248   -0.0433 H   0  0  0  0  0  0  0  0  0  0  0  0
   -4.1065   -1.0809   -1.5298 H   0  0  0  0  0  0  0  0  0  0  0  0
   -6.3783   -1.0378   -0.5576 H   0  0  0  0  0  0  0  0  0  0  0  0
   -6.7713    0.0770    1.6373 H   0  0  0  0  0  0  0  0  0  0  0  0
   -5.7345   -1.3338    1.8356 H   0  0  0  0  0  0  0  0  0  0  0  0
   -4.8248    0.6148    3.1016 H   0  0  0  0  0  0  0  0  0  0  0  0
   -5.7505    2.4198    1.6500 H   0  0  0  0  0  0  0  0  0  0  0  0
   -4.0120    2.6192    1.8569 H   0  0  0  0  0  0  0  0  0  0  0  0
   -4.6580    2.9111   -0.5363 H   0  0  0  0  0  0  0  0  0  0  0  0
   -5.5703    0.9661   -1.8077 H   0  0  0  0  0  0  0  0  0  0  0  0
   -6.6720    1.4392   -0.5168 H   0  0  0  0  0  0  0  0  0  0  0  0
   -2.4203    1.9475   -0.0220 H   0  0  0  0  0  0  0  0  0  0  0  0
   -3.0746    1.2850   -1.5171 H   0  0  0  0  0  0  0  0  0  0  0  0
   -3.2309   -1.0348    2.1470 H   0  0  0  0  0  0  0  0  0  0  0  0
   -2.5280    0.5791    2.1563 H   0  0  0  0  0  0  0  0  0  0  0  0
  1  2  2  0
  2  3  1  0
  3  4  1  0
  4  5  2  0
  5  6  1  0
  5  7  1  0
  7  8  2  0
  8  9  1  0
  8 10  1  0
 10 11  2  0
 11 12  1  0
 12 13  2  0
 13 14  1  0
 13 15  1  0
 15 16  2  0
 15 17  1  0
 17 18  1  0
 18 19  1  0
 19 20  1  0
 21 20  1  1
 21 22  1  0
 22 23  1  0
 23 24  1  0
 24 25  1  0
 25 26  1  0
 26 27  1  0
 27 28  1  0
 27 29  1  0
 25 30  1  0
 12  2  1  0
 29 21  1  0
 11  4  1  0
 30 21  1  0
 28 23  1  0
  1 31  1  0
  1 32  1  0
  3 33  1  0
  7 34  1  0
 10 35  1  0
 14 36  1  0
 17 37  1  0
 18 38  1  0
 18 39  1  0
 19 40  1  0
 19 41  1  0
 20 42  1  0
 20 43  1  0
 22 44  1  0
 22 45  1  0
 23 46  1  6
 24 47  1  0
 24 48  1  0
 25 49  1  1
 26 50  1  0
 26 51  1  0
 27 52  1  6
 28 53  1  0
 28 54  1  0
 29 55  1  0
 29 56  1  0
 30 57  1  0
 30 58  1  0
M  END
>  <_SMILES>  (89) 
C=c1[nH]c2c(Cl)cc(Cl)cc2/c1=C(\O)C(=O)NCCC[C@]12C[C@H]3C[C@H](C[C@H](C3)C1)C2

$$$$

     RDKit          3D

 56 60  0  0  0  0  0  0  0  0999 V2000
    2.2290    0.2159   -0.5662 C   0  0  0  0  0  0  0  0  0  0  0  0
    2.6765    1.0377    0.5882 C   0  0  0  0  0  0  0  0  0  0  0  0
    4.0242    1.1819    1.0649 C   0  0  0  0  0  0  0  0  0  0  0  0
    5.2589    0.6388    0.4982 C   0  0  0  0  0  0  0  0  0  0  0  0
    5.5336    0.7509   -0.8715 C   0  0  0  0  0  0  0  0  0  0  0  0
    6.7150    0.2253   -1.4014 C   0  0  0  0  0  0  0  0  0  0  0  0
    7.6332   -0.4096   -0.5664 C   0  0  0  0  0  0  0  0  0  0  0  0
    7.3764   -0.5142    0.7996 C   0  0  0  0  0  0  0  0  0  0  0  0
    6.1962    0.0112    1.3302 C   0  0  0  0  0  0  0  0  0  0  0  0
    4.0592    1.9059    2.1917 N   0  0  0  0  0  0  0  0  0  0  0  0
    2.7845    2.2382    2.4140 N   0  0  0  0  0  0  0  0  0  0  0  0
    1.9053    1.7932    1.4652 C   0  0  0  0  0  0  0  0  0  0  0  0
    0.5082    2.1309    1.5783 C   0  0  0  0  0  0  0  0  0  0  0  0
    0.0392    2.5874    2.6170 O   0  0  0  0  0  0  0  0  0  0  0  0
   -0.2492    1.9630    0.4423 N   0  0  0  0  0  0  0  0  0  0  0  0
   -1.6433    2.3538    0.3857 C   0  0  0  0  0  0  0  0  0  0  0  0
   -2.5877    1.3471    1.0525 C   0  0  0  0  0  0  0  0  0  0  0  0
   -2.9794    0.0878    0.2348 C   0  0  2  0  0  0  0  0  0  0  0  0
   -1.7526   -0.7405   -0.2166 C   0  0  0  0  0  0  0  0  0  0  0  0
   -2.1926   -2.0116   -0.9657 C   0  0  1  0  0  0  0  0  0  0  0  0
   -3.0671   -2.8736   -0.0431 C   0  0  0  0  0  0  0  0  0  0  0  0
   -4.3112   -2.0826    0.3885 C   0  0  2  0  0  0  0  0  0  0  0  0
   -5.1166   -1.6756   -0.8548 C   0  0  0  0  0  0  0  0  0  0  0  0
   -4.2499   -0.8078   -1.7802 C   0  0  2  0  0  0  0  0  0  0  0  0
   -3.0075   -1.6075   -2.2056 C   0  0  0  0  0  0  0  0  0  0  0  0
   -3.8052    0.4588   -1.0251 C   0  0  0  0  0  0  0  0  0  0  0  0
   -3.8668   -0.8167    1.1375 C   0  0  0  0  0  0  0  0  0  0  0  0
    1.2858   -0.2900   -0.3416 H   0  0  0  0  0  0  0  0  0  0  0  0
    2.0920    0.8424   -1.4528 H   0  0  0  0  0  0  0  0  0  0  0  0
    2.9515   -0.5690   -0.8091 H   0  0  0  0  0  0  0  0  0  0  0  0
    4.8407    1.2630   -1.5335 H   0  0  0  0  0  0  0  0  0  0  0  0
    6.9226    0.3193   -2.4641 H   0  0  0  0  0  0  0  0  0  0  0  0
    8.5541   -0.8146   -0.9780 H   0  0  0  0  0  0  0  0  0  0  0  0
    8.0954   -0.9986    1.4549 H   0  0  0  0  0  0  0  0  0  0  0  0
    6.0074   -0.0663    2.3992 H   0  0  0  0  0  0  0  0  0  0  0  0
    2.5568    2.7924    3.2341 H   0  0  0  0  0  0  0  0  0  0  0  0
    0.2211    1.7567   -0.4250 H   0  0  0  0  0  0  0  0  0  0  0  0
   -1.8986    2.5217   -0.6636 H   0  0  0  0  0  0  0  0  0  0  0  0
   -1.7357    3.3187    0.8984 H   0  0  0  0  0  0  0  0  0  0  0  0
   -3.5136    1.8851    1.2983 H   0  0  0  0  0  0  0  0  0  0  0  0
   -2.1592    1.0321    2.0128 H   0  0  0  0  0  0  0  0  0  0  0  0
   -1.1188   -0.1508   -0.8880 H   0  0  0  0  0  0  0  0  0  0  0  0
   -1.1396   -1.0149    0.6510 H   0  0  0  0  0  0  0  0  0  0  0  0
   -1.3089   -2.5809   -1.2749 H   0  0  0  0  0  0  0  0  0  0  0  0
   -2.4923   -3.1808    0.8391 H   0  0  0  0  0  0  0  0  0  0  0  0
   -3.3684   -3.7917   -0.5624 H   0  0  0  0  0  0  0  0  0  0  0  0
   -4.9329   -2.7015    1.0450 H   0  0  0  0  0  0  0  0  0  0  0  0
   -6.0156   -1.1228   -0.5556 H   0  0  0  0  0  0  0  0  0  0  0  0
   -5.4568   -2.5705   -1.3903 H   0  0  0  0  0  0  0  0  0  0  0  0
   -4.8274   -0.5238   -2.6671 H   0  0  0  0  0  0  0  0  0  0  0  0
   -3.3105   -2.5025   -2.7628 H   0  0  0  0  0  0  0  0  0  0  0  0
   -2.3880   -1.0062   -2.8823 H   0  0  0  0  0  0  0  0  0  0  0  0
   -3.2162    1.0856   -1.7045 H   0  0  0  0  0  0  0  0  0  0  0  0
   -4.6880    1.0451   -0.7398 H   0  0  0  0  0  0  0  0  0  0  0  0
   -3.3148   -1.1036    2.0421 H   0  0  0  0  0  0  0  0  0  0  0  0
   -4.7524   -0.2616    1.4736 H   0  0  0  0  0  0  0  0  0  0  0  0
  1  2  1  0
  2  3  1  0
  3  4  1  0
  4  5  2  0
  5  6  1  0
  6  7  2  0
  7  8  1  0
  8  9  2  0
  3 10  2  0
 10 11  1  0
 11 12  1  0
 12 13  1  0
 13 14  2  0
 13 15  1  0
 15 16  1  0
 16 17  1  0
 18 17  1  1
 18 19  1  0
 19 20  1  0
 20 21  1  0
 21 22  1  0
 22 23  1  0
 23 24  1  0
 24 25  1  0
 24 26  1  0
 22 27  1  0
 12  2  2  0
 26 18  1  0
  9  4  1  0
 27 18  1  0
 25 20  1  0
  1 28  1  0
  1 29  1  0
  1 30  1  0
  5 31  1  0
  6 32  1  0
  7 33  1  0
  8 34  1  0
  9 35  1  0
 11 36  1  0
 15 37  1  0
 16 38  1  0
 16 39  1  0
 17 40  1  0
 17 41  1  0
 19 42  1  0
 19 43  1  0
 20 44  1  6
 21 45  1  0
 21 46  1  0
 22 47  1  1
 23 48  1  0
 23 49  1  0
 24 50  1  6
 25 51  1  0
 25 52  1  0
 26 53  1  0
 26 54  1  0
 27 55  1  0
 27 56  1  0
M  END
>  <_SMILES>  (90) 
Cc1c(-c2ccccc2)n[nH]c1C(=O)NCC[C@]12C[C@H]3C[C@H](C[C@H](C3)C1)C2

$$$$

     RDKit          3D

 56 60  0  0  0  0  0  0  0  0999 V2000
    3.4884   -1.8284   -0.3691 C   0  0  0  0  0  0  0  0  0  0  0  0
    3.7030   -0.3626   -0.4885 C   0  0  0  0  0  0  0  0  0  0  0  0
    2.7578    0.6287   -0.9231 C   0  0  0  0  0  0  0  0  0  0  0  0
    1.3389    0.4474   -1.2908 C   0  0  0  0  0  0  0  0  0  0  0  0
    0.8023    1.0350   -2.2264 O   0  0  0  0  0  0  0  0  0  0  0  0
    0.6474   -0.4247   -0.4651 N   0  0  0  0  0  0  0  0  0  0  0  0
   -0.7826   -0.6163   -0.5981 C   0  0  0  0  0  0  0  0  0  0  0  0
   -1.5619    0.4922    0.1143 C   0  0  0  0  0  0  0  0  0  0  0  0
   -3.1044    0.3789    0.0515 C   0  0  2  0  0  0  0  0  0  0  0  0
   -3.6278    0.4392   -1.4063 C   0  0  0  0  0  0  0  0  0  0  0  0
   -5.1663    0.3843   -1.4360 C   0  0  1  0  0  0  0  0  0  0  0  0
   -5.6381   -0.9251   -0.7822 C   0  0  0  0  0  0  0  0  0  0  0  0
   -5.1536   -0.9901    0.6757 C   0  0  2  0  0  0  0  0  0  0  0  0
   -5.7223    0.2077    1.4521 C   0  0  0  0  0  0  0  0  0  0  0  0
   -5.2531    1.5212    0.8076 C   0  0  2  0  0  0  0  0  0  0  0  0
   -5.7349    1.5760   -0.6503 C   0  0  0  0  0  0  0  0  0  0  0  0
   -3.7173    1.5744    0.8331 C   0  0  0  0  0  0  0  0  0  0  0  0
   -3.6152   -0.9324    0.7009 C   0  0  0  0  0  0  0  0  0  0  0  0
    3.3304    1.8443   -0.9647 N   0  0  0  0  0  0  0  0  0  0  0  0
    4.5892    1.6381   -0.5658 N   0  0  0  0  0  0  0  0  0  0  0  0
    4.8767    0.3381   -0.2511 C   0  0  0  0  0  0  0  0  0  0  0  0
    6.1922   -0.0806    0.2191 C   0  0  0  0  0  0  0  0  0  0  0  0
    7.3486    0.2713   -0.4895 C   0  0  0  0  0  0  0  0  0  0  0  0
    8.6076   -0.1253   -0.0322 C   0  0  0  0  0  0  0  0  0  0  0  0
    8.7213   -0.8753    1.1368 C   0  0  0  0  0  0  0  0  0  0  0  0
    7.5774   -1.2316    1.8484 C   0  0  0  0  0  0  0  0  0  0  0  0
    6.3181   -0.8367    1.3910 C   0  0  0  0  0  0  0  0  0  0  0  0
    3.0981   -2.0759    0.6229 H   0  0  0  0  0  0  0  0  0  0  0  0
    4.4215   -2.3812   -0.5182 H   0  0  0  0  0  0  0  0  0  0  0  0
    2.7793   -2.1863   -1.1221 H   0  0  0  0  0  0  0  0  0  0  0  0
    1.0870   -0.6861    0.4064 H   0  0  0  0  0  0  0  0  0  0  0  0
   -1.0283   -0.6502   -1.6635 H   0  0  0  0  0  0  0  0  0  0  0  0
   -1.0017   -1.5945   -0.1611 H   0  0  0  0  0  0  0  0  0  0  0  0
   -1.2468    0.5142    1.1667 H   0  0  0  0  0  0  0  0  0  0  0  0
   -1.2600    1.4622   -0.3035 H   0  0  0  0  0  0  0  0  0  0  0  0
   -3.2814    1.3590   -1.8945 H   0  0  0  0  0  0  0  0  0  0  0  0
   -3.2349   -0.3988   -1.9941 H   0  0  0  0  0  0  0  0  0  0  0  0
   -5.5163    0.4258   -2.4735 H   0  0  0  0  0  0  0  0  0  0  0  0
   -5.2531   -1.7849   -1.3442 H   0  0  0  0  0  0  0  0  0  0  0  0
   -6.7328   -0.9873   -0.8162 H   0  0  0  0  0  0  0  0  0  0  0  0
   -5.4947   -1.9240    1.1365 H   0  0  0  0  0  0  0  0  0  0  0  0
   -5.3962    0.1653    2.4985 H   0  0  0  0  0  0  0  0  0  0  0  0
   -6.8183    0.1641    1.4583 H   0  0  0  0  0  0  0  0  0  0  0  0
   -5.6617    2.3721    1.3640 H   0  0  0  0  0  0  0  0  0  0  0  0
   -6.8312    1.5580   -0.6834 H   0  0  0  0  0  0  0  0  0  0  0  0
   -5.4179    2.5175   -1.1154 H   0  0  0  0  0  0  0  0  0  0  0  0
   -3.3774    2.5236    0.3985 H   0  0  0  0  0  0  0  0  0  0  0  0
   -3.3685    1.5635    1.8740 H   0  0  0  0  0  0  0  0  0  0  0  0
   -3.2596   -1.0048    1.7366 H   0  0  0  0  0  0  0  0  0  0  0  0
   -3.2220   -1.8068    0.1689 H   0  0  0  0  0  0  0  0  0  0  0  0
    5.2117    2.4369   -0.5140 H   0  0  0  0  0  0  0  0  0  0  0  0
    7.2812    0.8398   -1.4143 H   0  0  0  0  0  0  0  0  0  0  0  0
    9.4990    0.1465   -0.5919 H   0  0  0  0  0  0  0  0  0  0  0  0
    9.7012   -1.1843    1.4918 H   0  0  0  0  0  0  0  0  0  0  0  0
    7.6650   -1.8158    2.7608 H   0  0  0  0  0  0  0  0  0  0  0  0
    5.4369   -1.1151    1.9639 H   0  0  0  0  0  0  0  0  0  0  0  0
  1  2  1  0
  2  3  1  0
  3  4  1  0
  4  5  2  0
  4  6  1  0
  6  7  1  0
  7  8  1  0
  9  8  1  6
  9 10  1  0
 10 11  1  0
 11 12  1  0
 12 13  1  0
 13 14  1  0
 14 15  1  0
 15 16  1  0
 15 17  1  0
 13 18  1  0
  3 19  2  0
 19 20  1  0
 20 21  1  0
 21 22  1  0
 22 23  2  0
 23 24  1  0
 24 25  2  0
 25 26  1  0
 26 27  2  0
 21  2  2  0
 27 22  1  0
 17  9  1  0
 18  9  1  0
 16 11  1  0
  1 28  1  0
  1 29  1  0
  1 30  1  0
  6 31  1  0
  7 32  1  0
  7 33  1  0
  8 34  1  0
  8 35  1  0
 10 36  1  0
 10 37  1  0
 11 38  1  6
 12 39  1  0
 12 40  1  0
 13 41  1  1
 14 42  1  0
 14 43  1  0
 15 44  1  1
 16 45  1  0
 16 46  1  0
 17 47  1  0
 17 48  1  0
 18 49  1  0
 18 50  1  0
 20 51  1  0
 23 52  1  0
 24 53  1  0
 25 54  1  0
 26 55  1  0
 27 56  1  0
M  END
>  <_SMILES>  (91) 
Cc1c(C(=O)NCC[C@]23C[C@H]4C[C@H](C[C@H](C4)C2)C3)n[nH]c1-c1ccccc1

$$$$

     RDKit          3D

 62 66  0  0  0  0  0  0  0  0999 V2000
    4.8536   -2.1696    2.6563 C   0  0  0  0  0  0  0  0  0  0  0  0
    4.9175   -0.6525    2.6654 C   0  0  0  0  0  0  0  0  0  0  0  0
    4.0250   -0.0588    1.6848 N   0  0  0  0  0  0  0  0  0  0  0  0
    2.7442    0.1485    2.0299 N   0  0  0  0  0  0  0  0  0  0  0  0
    2.1799    0.7133    0.9495 C   0  0  0  0  0  0  0  0  0  0  0  0
    0.7501    1.0819    0.9493 C   0  0  0  0  0  0  0  0  0  0  0  0
    0.1795    1.5783    1.9172 O   0  0  0  0  0  0  0  0  0  0  0  0
    0.0904    0.7904   -0.2341 N   0  0  0  0  0  0  0  0  0  0  0  0
   -1.3427    0.9611   -0.3611 C   0  0  0  0  0  0  0  0  0  0  0  0
   -2.1000   -0.2351    0.2214 C   0  0  0  0  0  0  0  0  0  0  0  0
   -3.6434   -0.1679    0.1242 C   0  0  2  0  0  0  0  0  0  0  0  0
   -4.2175    1.0448    0.9003 C   0  0  0  0  0  0  0  0  0  0  0  0
   -5.7559    1.0541    0.8370 C   0  0  1  0  0  0  0  0  0  0  0  0
   -6.2008    1.1366   -0.6326 C   0  0  0  0  0  0  0  0  0  0  0  0
   -5.6656   -0.0750   -1.4137 C   0  0  2  0  0  0  0  0  0  0  0  0
   -6.2103   -1.3654   -0.7820 C   0  0  0  0  0  0  0  0  0  0  0  0
   -5.7677   -1.4581    0.6864 C   0  0  2  0  0  0  0  0  0  0  0  0
   -6.3002   -0.2413    1.4588 C   0  0  0  0  0  0  0  0  0  0  0  0
   -4.2321   -1.4629    0.7505 C   0  0  0  0  0  0  0  0  0  0  0  0
   -4.1274   -0.0818   -1.3456 C   0  0  0  0  0  0  0  0  0  0  0  0
    3.1420    0.8658   -0.1028 C   0  0  0  0  0  0  0  0  0  0  0  0
    2.9376    1.4808   -1.4403 C   0  0  0  0  0  0  0  0  0  0  0  0
    4.3209    0.3377    0.4044 C   0  0  0  0  0  0  0  0  0  0  0  0
    5.6347    0.2159   -0.2122 C   0  0  0  0  0  0  0  0  0  0  0  0
    6.5586    1.2628   -0.1125 C   0  0  0  0  0  0  0  0  0  0  0  0
    7.8181    1.1479   -0.7053 C   0  0  0  0  0  0  0  0  0  0  0  0
    8.1505   -0.0135   -1.4007 C   0  0  0  0  0  0  0  0  0  0  0  0
    9.8545   -0.1704   -2.2034 Br  0  0  0  0  0  0  0  0  0  0  0  0
    7.2356   -1.0596   -1.5111 C   0  0  0  0  0  0  0  0  0  0  0  0
    5.9763   -0.9431   -0.9181 C   0  0  0  0  0  0  0  0  0  0  0  0
    5.5320   -2.5823    3.4093 H   0  0  0  0  0  0  0  0  0  0  0  0
    3.8414   -2.5238    2.8785 H   0  0  0  0  0  0  0  0  0  0  0  0
    5.1407   -2.5737    1.6804 H   0  0  0  0  0  0  0  0  0  0  0  0
    5.9360   -0.3069    2.4642 H   0  0  0  0  0  0  0  0  0  0  0  0
    4.6306   -0.2627    3.6489 H   0  0  0  0  0  0  0  0  0  0  0  0
    0.5602    0.1816   -0.8896 H   0  0  0  0  0  0  0  0  0  0  0  0
   -1.6253    1.8906    0.1417 H   0  0  0  0  0  0  0  0  0  0  0  0
   -1.5437    1.0711   -1.4304 H   0  0  0  0  0  0  0  0  0  0  0  0
   -1.8157   -0.3551    1.2756 H   0  0  0  0  0  0  0  0  0  0  0  0
   -1.7485   -1.1455   -0.2836 H   0  0  0  0  0  0  0  0  0  0  0  0
   -3.8910    1.0123    1.9476 H   0  0  0  0  0  0  0  0  0  0  0  0
   -3.8429    1.9859    0.4808 H   0  0  0  0  0  0  0  0  0  0  0  0
   -6.1420    1.9186    1.3885 H   0  0  0  0  0  0  0  0  0  0  0  0
   -5.8332    2.0662   -1.0842 H   0  0  0  0  0  0  0  0  0  0  0  0
   -7.2958    1.1660   -0.6913 H   0  0  0  0  0  0  0  0  0  0  0  0
   -5.9877   -0.0116   -2.4592 H   0  0  0  0  0  0  0  0  0  0  0  0
   -7.3054   -1.3801   -0.8447 H   0  0  0  0  0  0  0  0  0  0  0  0
   -5.8478   -2.2379   -1.3393 H   0  0  0  0  0  0  0  0  0  0  0  0
   -6.1592   -2.3791    1.1328 H   0  0  0  0  0  0  0  0  0  0  0  0
   -6.0024   -0.3056    2.5125 H   0  0  0  0  0  0  0  0  0  0  0  0
   -7.3970   -0.2350    1.4378 H   0  0  0  0  0  0  0  0  0  0  0  0
   -3.8473   -2.3458    0.2235 H   0  0  0  0  0  0  0  0  0  0  0  0
   -3.9104   -1.5568    1.7959 H   0  0  0  0  0  0  0  0  0  0  0  0
   -3.7505    0.8295   -1.8247 H   0  0  0  0  0  0  0  0  0  0  0  0
   -3.7358   -0.9291   -1.9228 H   0  0  0  0  0  0  0  0  0  0  0  0
    2.2312    2.3150   -1.3858 H   0  0  0  0  0  0  0  0  0  0  0  0
    2.5479    0.7383   -2.1437 H   0  0  0  0  0  0  0  0  0  0  0  0
    3.8737    1.8756   -1.8477 H   0  0  0  0  0  0  0  0  0  0  0  0
    6.3010    2.1729    0.4254 H   0  0  0  0  0  0  0  0  0  0  0  0
    8.5273    1.9671   -0.6206 H   0  0  0  0  0  0  0  0  0  0  0  0
    7.4905   -1.9649   -2.0558 H   0  0  0  0  0  0  0  0  0  0  0  0
    5.2639   -1.7600   -1.0109 H   0  0  0  0  0  0  0  0  0  0  0  0
  1  2  1  0
  2  3  1  0
  3  4  1  0
  4  5  2  0
  5  6  1  0
  6  7  2  0
  6  8  1  0
  8  9  1  0
  9 10  1  0
 11 10  1  6
 11 12  1  0
 12 13  1  0
 13 14  1  0
 14 15  1  0
 15 16  1  0
 16 17  1  0
 17 18  1  0
 17 19  1  0
 15 20  1  0
  5 21  1  0
 21 22  1  0
 21 23  2  0
 23 24  1  0
 24 25  1  0
 25 26  2  0
 26 27  1  0
 27 28  1  0
 27 29  2  0
 29 30  1  0
 23  3  1  0
 30 24  2  0
 19 11  1  0
 20 11  1  0
 18 13  1  0
  1 31  1  0
  1 32  1  0
  1 33  1  0
  2 34  1  0
  2 35  1  0
  8 36  1  0
  9 37  1  0
  9 38  1  0
 10 39  1  0
 10 40  1  0
 12 41  1  0
 12 42  1  0
 13 43  1  1
 14 44  1  0
 14 45  1  0
 15 46  1  6
 16 47  1  0
 16 48  1  0
 17 49  1  1
 18 50  1  0
 18 51  1  0
 19 52  1  0
 19 53  1  0
 20 54  1  0
 20 55  1  0
 22 56  1  0
 22 57  1  0
 22 58  1  0
 25 59  1  0
 26 60  1  0
 29 61  1  0
 30 62  1  0
M  END
>  <_SMILES>  (92) 
CCn1nc(C(=O)NCC[C@]23C[C@H]4C[C@H](C[C@H](C4)C2)C3)c(C)c1-c1ccc(Br)cc1

$$$$

     RDKit          3D

 55 58  0  0  0  0  0  0  0  0999 V2000
    5.3699    2.5024   -1.5523 C   0  0  0  0  0  0  0  0  0  0  0  0
    5.1754    1.0385   -1.2520 C   0  0  0  0  0  0  0  0  0  0  0  0
    4.5127    0.2662   -2.3600 C   0  0  0  0  0  0  0  0  0  0  0  0
    5.5781    0.5209   -0.0743 C   0  0  0  0  0  0  0  0  0  0  0  0
    5.4575   -0.8989    0.4149 C   0  0  0  0  0  0  0  0  0  0  0  0
    4.7606   -0.9664    1.6925 N   0  0  0  0  0  0  0  0  0  0  0  0
    5.4797   -0.9526    2.8355 N   0  0  0  0  0  0  0  0  0  0  0  0
    4.6282   -0.9830    3.8477 N   0  0  0  0  0  0  0  0  0  0  0  0
    3.3673   -1.0081    3.3314 C   0  0  0  0  0  0  0  0  0  0  0  0
    3.4101   -0.9858    1.9504 C   0  0  0  0  0  0  0  0  0  0  0  0
    2.3612   -1.0016    0.9690 C   0  0  0  0  0  0  0  0  0  0  0  0
    2.5401   -1.3037   -0.2060 O   0  0  0  0  0  0  0  0  0  0  0  0
    1.1181   -0.6354    1.4462 N   0  0  0  0  0  0  0  0  0  0  0  0
    0.0012   -0.4586    0.5364 C   0  0  0  0  0  0  0  0  0  0  0  0
   -1.3206   -0.3935    1.3010 C   0  0  0  0  0  0  0  0  0  0  0  0
   -2.5914   -0.2068    0.4370 C   0  0  2  0  0  0  0  0  0  0  0  0
   -2.7949   -1.3824   -0.5526 C   0  0  0  0  0  0  0  0  0  0  0  0
   -4.0952   -1.1996   -1.3567 C   0  0  1  0  0  0  0  0  0  0  0  0
   -5.2892   -1.1456   -0.3911 C   0  0  0  0  0  0  0  0  0  0  0  0
   -5.1242    0.0320    0.5819 C   0  0  2  0  0  0  0  0  0  0  0  0
   -5.0440    1.3445   -0.2128 C   0  0  0  0  0  0  0  0  0  0  0  0
   -3.8489    1.3015   -1.1777 C   0  0  2  0  0  0  0  0  0  0  0  0
   -4.0210    0.1186   -2.1450 C   0  0  0  0  0  0  0  0  0  0  0  0
   -2.5491    1.1134   -0.3741 C   0  0  0  0  0  0  0  0  0  0  0  0
   -3.8246   -0.1532    1.3814 C   0  0  0  0  0  0  0  0  0  0  0  0
    6.0057    2.6275   -2.4349 H   0  0  0  0  0  0  0  0  0  0  0  0
    4.4042    2.9801   -1.7477 H   0  0  0  0  0  0  0  0  0  0  0  0
    5.8434    3.0382   -0.7229 H   0  0  0  0  0  0  0  0  0  0  0  0
    5.0546    0.4186   -3.2997 H   0  0  0  0  0  0  0  0  0  0  0  0
    4.4831   -0.8105   -2.1835 H   0  0  0  0  0  0  0  0  0  0  0  0
    3.4833    0.6134   -2.4964 H   0  0  0  0  0  0  0  0  0  0  0  0
    6.0591    1.1869    0.6438 H   0  0  0  0  0  0  0  0  0  0  0  0
    6.4629   -1.3069    0.5754 H   0  0  0  0  0  0  0  0  0  0  0  0
    4.9550   -1.5762   -0.2761 H   0  0  0  0  0  0  0  0  0  0  0  0
    2.5046   -1.0519    3.9804 H   0  0  0  0  0  0  0  0  0  0  0  0
    1.0840   -0.1412    2.3268 H   0  0  0  0  0  0  0  0  0  0  0  0
    0.1886    0.4670   -0.0165 H   0  0  0  0  0  0  0  0  0  0  0  0
    0.0059   -1.2883   -0.1770 H   0  0  0  0  0  0  0  0  0  0  0  0
   -1.4233   -1.3114    1.8961 H   0  0  0  0  0  0  0  0  0  0  0  0
   -1.2610    0.4264    2.0301 H   0  0  0  0  0  0  0  0  0  0  0  0
   -2.8286   -2.3341   -0.0071 H   0  0  0  0  0  0  0  0  0  0  0  0
   -1.9547   -1.4487   -1.2539 H   0  0  0  0  0  0  0  0  0  0  0  0
   -4.2199   -2.0382   -2.0509 H   0  0  0  0  0  0  0  0  0  0  0  0
   -6.2233   -1.0367   -0.9558 H   0  0  0  0  0  0  0  0  0  0  0  0
   -5.3628   -2.0868    0.1674 H   0  0  0  0  0  0  0  0  0  0  0  0
   -5.9781    0.0670    1.2676 H   0  0  0  0  0  0  0  0  0  0  0  0
   -4.9412    2.1937    0.4739 H   0  0  0  0  0  0  0  0  0  0  0  0
   -5.9735    1.4999   -0.7742 H   0  0  0  0  0  0  0  0  0  0  0  0
   -3.7989    2.2377   -1.7449 H   0  0  0  0  0  0  0  0  0  0  0  0
   -4.9330    0.2510   -2.7400 H   0  0  0  0  0  0  0  0  0  0  0  0
   -3.1823    0.0866   -2.8513 H   0  0  0  0  0  0  0  0  0  0  0  0
   -1.7021    1.1131   -1.0704 H   0  0  0  0  0  0  0  0  0  0  0  0
   -2.4050    1.9670    0.3005 H   0  0  0  0  0  0  0  0  0  0  0  0
   -3.7159    0.6714    2.0979 H   0  0  0  0  0  0  0  0  0  0  0  0
   -3.8877   -1.0761    1.9726 H   0  0  0  0  0  0  0  0  0  0  0  0
  1  2  1  0
  2  3  1  0
  2  4  2  3
  4  5  1  0
  5  6  1  0
  6  7  1  0
  7  8  2  0
  8  9  1  0
  9 10  2  0
 10 11  1  0
 11 12  2  0
 11 13  1  0
 13 14  1  0
 14 15  1  0
 16 15  1  1
 16 17  1  0
 17 18  1  0
 18 19  1  0
 19 20  1  0
 20 21  1  0
 21 22  1  0
 22 23  1  0
 22 24  1  0
 20 25  1  0
 10  6  1  0
 24 16  1  0
 25 16  1  0
 23 18  1  0
  1 26  1  0
  1 27  1  0
  1 28  1  0
  3 29  1  0
  3 30  1  0
  3 31  1  0
  4 32  1  0
  5 33  1  0
  5 34  1  0
  9 35  1  0
 13 36  1  0
 14 37  1  0
 14 38  1  0
 15 39  1  0
 15 40  1  0
 17 41  1  0
 17 42  1  0
 18 43  1  6
 19 44  1  0
 19 45  1  0
 20 46  1  1
 21 47  1  0
 21 48  1  0
 22 49  1  6
 23 50  1  0
 23 51  1  0
 24 52  1  0
 24 53  1  0
 25 54  1  0
 25 55  1  0
M  END
>  <_SMILES>  (93) 
CC(C)=CCn1nncc1C(=O)NCC[C@]12C[C@H]3C[C@H](C[C@H](C3)C1)C2

$$$$

     RDKit          3D

 63 67  0  0  0  0  0  0  0  0999 V2000
    2.5019    1.0048   -1.3076 C   0  0  0  0  0  0  0  0  0  0  0  0
    3.0708    0.3530   -0.0989 C   0  0  0  0  0  0  0  0  0  0  0  0
    2.3667   -0.3399    0.9399 C   0  0  0  0  0  0  0  0  0  0  0  0
    0.9118   -0.5375    1.0905 C   0  0  0  0  0  0  0  0  0  0  0  0
    0.4095   -1.5951    1.4624 O   0  0  0  0  0  0  0  0  0  0  0  0
    0.1531    0.5820    0.7940 N   0  0  0  0  0  0  0  0  0  0  0  0
   -1.2887    0.5815    0.9281 C   0  0  0  0  0  0  0  0  0  0  0  0
   -1.9581   -0.0073   -0.3160 C   0  0  0  0  0  0  0  0  0  0  0  0
   -3.5035   -0.0846   -0.2775 C   0  0  2  0  0  0  0  0  0  0  0  0
   -4.1490    1.3122   -0.0941 C   0  0  0  0  0  0  0  0  0  0  0  0
   -5.6852    1.2095   -0.1171 C   0  0  2  0  0  0  0  0  0  0  0  0
   -6.1471    0.2858    1.0219 C   0  0  0  0  0  0  0  0  0  0  0  0
   -5.5401   -1.1185    0.8405 C   0  0  2  0  0  0  0  0  0  0  0  0
   -4.0044   -1.0075    0.8645 C   0  0  0  0  0  0  0  0  0  0  0  0
   -5.9775   -1.7127   -0.5108 C   0  0  1  0  0  0  0  0  0  0  0  0
   -7.3907   -1.8804   -0.5518 O   0  0  0  0  0  0  0  0  0  0  0  0
   -5.5330   -0.7811   -1.6524 C   0  0  1  0  0  0  0  0  0  0  0  0
   -6.1371    0.6222   -1.4627 C   0  0  0  0  0  0  0  0  0  0  0  0
   -3.9999   -0.6707   -1.6301 C   0  0  0  0  0  0  0  0  0  0  0  0
    3.2268   -0.8432    1.8416 N   0  0  0  0  0  0  0  0  0  0  0  0
    4.4411   -0.4688    1.4096 N   0  0  0  0  0  0  0  0  0  0  0  0
    5.5989   -0.8737    2.1803 C   0  0  0  0  0  0  0  0  0  0  0  0
    5.9368   -2.3298    1.9514 C   0  0  0  0  0  0  0  0  0  0  0  0
    7.0935   -2.6206    2.6100 F   0  0  0  0  0  0  0  0  0  0  0  0
    4.4112    0.2578    0.2464 C   0  0  0  0  0  0  0  0  0  0  0  0
    5.5937    0.7635   -0.4372 C   0  0  0  0  0  0  0  0  0  0  0  0
    6.2776   -0.0434   -1.3530 C   0  0  0  0  0  0  0  0  0  0  0  0
    7.4140    0.4412   -2.0027 C   0  0  0  0  0  0  0  0  0  0  0  0
    7.8683    1.7336   -1.7429 C   0  0  0  0  0  0  0  0  0  0  0  0
    7.1863    2.5444   -0.8363 C   0  0  0  0  0  0  0  0  0  0  0  0
    6.0497    2.0618   -0.1854 C   0  0  0  0  0  0  0  0  0  0  0  0
    3.2257    1.0276   -2.1285 H   0  0  0  0  0  0  0  0  0  0  0  0
    1.6206    0.4650   -1.6682 H   0  0  0  0  0  0  0  0  0  0  0  0
    2.2116    2.0355   -1.0815 H   0  0  0  0  0  0  0  0  0  0  0  0
    0.6302    1.4600    0.6447 H   0  0  0  0  0  0  0  0  0  0  0  0
   -1.5866    1.6235    1.0765 H   0  0  0  0  0  0  0  0  0  0  0  0
   -1.5510    0.0166    1.8274 H   0  0  0  0  0  0  0  0  0  0  0  0
   -1.6493    0.5876   -1.1868 H   0  0  0  0  0  0  0  0  0  0  0  0
   -1.5580   -1.0151   -0.4920 H   0  0  0  0  0  0  0  0  0  0  0  0
   -3.8405    1.7593    0.8583 H   0  0  0  0  0  0  0  0  0  0  0  0
   -3.8120    1.9915   -0.8874 H   0  0  0  0  0  0  0  0  0  0  0  0
   -6.1219    2.2057    0.0158 H   0  0  0  0  0  0  0  0  0  0  0  0
   -5.8396    0.7027    1.9890 H   0  0  0  0  0  0  0  0  0  0  0  0
   -7.2421    0.2288    1.0385 H   0  0  0  0  0  0  0  0  0  0  0  0
   -5.8846   -1.7597    1.6602 H   0  0  0  0  0  0  0  0  0  0  0  0
   -3.6950   -0.6182    1.8415 H   0  0  0  0  0  0  0  0  0  0  0  0
   -3.5598   -2.0061    0.7662 H   0  0  0  0  0  0  0  0  0  0  0  0
   -5.5310   -2.7050   -0.6489 H   0  0  0  0  0  0  0  0  0  0  0  0
   -7.6347   -2.4696    0.1824 H   0  0  0  0  0  0  0  0  0  0  0  0
   -5.8705   -1.1830   -2.6148 H   0  0  0  0  0  0  0  0  0  0  0  0
   -5.8199    1.2789   -2.2823 H   0  0  0  0  0  0  0  0  0  0  0  0
   -7.2319    0.5754   -1.5035 H   0  0  0  0  0  0  0  0  0  0  0  0
   -3.6666   -0.0359   -2.4615 H   0  0  0  0  0  0  0  0  0  0  0  0
   -3.5589   -1.6622   -1.7967 H   0  0  0  0  0  0  0  0  0  0  0  0
    5.3809   -0.6886    3.2383 H   0  0  0  0  0  0  0  0  0  0  0  0
    6.4494   -0.2354    1.9227 H   0  0  0  0  0  0  0  0  0  0  0  0
    6.0936   -2.5499    0.8909 H   0  0  0  0  0  0  0  0  0  0  0  0
    5.1556   -2.9956    2.3310 H   0  0  0  0  0  0  0  0  0  0  0  0
    5.9278   -1.0502   -1.5697 H   0  0  0  0  0  0  0  0  0  0  0  0
    7.9436   -0.1884   -2.7133 H   0  0  0  0  0  0  0  0  0  0  0  0
    8.7534    2.1103   -2.2498 H   0  0  0  0  0  0  0  0  0  0  0  0
    7.5397    3.5529   -0.6368 H   0  0  0  0  0  0  0  0  0  0  0  0
    5.5245    2.7029    0.5187 H   0  0  0  0  0  0  0  0  0  0  0  0
  1  2  1  0
  2  3  1  0
  3  4  1  0
  4  5  2  0
  4  6  1  0
  6  7  1  0
  7  8  1  0
  9  8  1  6
  9 10  1  0
 10 11  1  0
 11 12  1  0
 12 13  1  0
 13 14  1  0
 13 15  1  0
 15 16  1  0
 15 17  1  0
 17 18  1  0
 17 19  1  0
  3 20  2  0
 20 21  1  0
 21 22  1  0
 22 23  1  0
 23 24  1  0
 21 25  1  0
 25 26  1  0
 26 27  2  0
 27 28  1  0
 28 29  2  0
 29 30  1  0
 30 31  2  0
 25  2  2  0
 31 26  1  0
 14  9  1  0
 19  9  1  0
 18 11  1  0
  1 32  1  0
  1 33  1  0
  1 34  1  0
  6 35  1  0
  7 36  1  0
  7 37  1  0
  8 38  1  0
  8 39  1  0
 10 40  1  0
 10 41  1  0
 11 42  1  1
 12 43  1  0
 12 44  1  0
 13 45  1  1
 14 46  1  0
 14 47  1  0
 15 48  1  6
 16 49  1  0
 17 50  1  6
 18 51  1  0
 18 52  1  0
 19 53  1  0
 19 54  1  0
 22 55  1  0
 22 56  1  0
 23 57  1  0
 23 58  1  0
 27 59  1  0
 28 60  1  0
 29 61  1  0
 30 62  1  0
 31 63  1  0
M  END
>  <_SMILES>  (94) 
Cc1c(C(=O)NCC[C@]23C[C@@H]4C[C@H](C2)[C@@H](O)[C@@H](C4)C3)nn(CCF)c1-c1ccccc1

$$$$

     RDKit          3D

 46 50  0  0  0  0  0  0  0  0999 V2000
    4.9990   -2.1182   -0.5441 C   0  0  0  0  0  0  0  0  0  0  0  0
    4.6126   -0.7841   -0.1641 N   0  0  0  0  0  0  0  0  0  0  0  0
    3.3216   -0.3279    0.0910 C   0  0  0  0  0  0  0  0  0  0  0  0
    2.4091   -1.2124    0.5760 N   0  0  0  0  0  0  0  0  0  0  0  0
    1.0815   -0.7846    0.9976 C   0  0  0  0  0  0  0  0  0  0  0  0
    0.1562   -0.6587   -0.2169 C   0  0  0  0  0  0  0  0  0  0  0  0
   -1.2924   -0.2003    0.0826 C   0  0  2  0  0  0  0  0  0  0  0  0
   -1.3293    1.2194    0.7042 C   0  0  0  0  0  0  0  0  0  0  0  0
   -2.7815    1.6759    0.9353 C   0  0  1  0  0  0  0  0  0  0  0  0
   -3.5295    1.6979   -0.4066 C   0  0  0  0  0  0  0  0  0  0  0  0
   -3.5320    0.2932   -1.0289 C   0  0  2  0  0  0  0  0  0  0  0  0
   -4.2219   -0.6896   -0.0704 C   0  0  0  0  0  0  0  0  0  0  0  0
   -3.4772   -0.7222    1.2731 C   0  0  2  0  0  0  0  0  0  0  0  0
   -3.4768    0.6879    1.8867 C   0  0  0  0  0  0  0  0  0  0  0  0
   -2.0234   -1.1737    1.0417 C   0  0  0  0  0  0  0  0  0  0  0  0
   -2.0810   -0.1597   -1.2564 C   0  0  0  0  0  0  0  0  0  0  0  0
    3.1188    0.9512   -0.1821 N   0  0  0  0  0  0  0  0  0  0  0  0
    4.3479    1.2855   -0.6700 N   0  0  0  0  0  0  0  0  0  0  0  0
    4.9545    2.3589   -1.2212 C   0  0  0  0  0  0  0  0  0  0  0  0
    6.1788    2.0057   -1.5878 N   0  0  0  0  0  0  0  0  0  0  0  0
    6.3615    0.6529   -1.2677 N   0  0  0  0  0  0  0  0  0  0  0  0
    5.2507    0.2737   -0.6994 C   0  0  0  0  0  0  0  0  0  0  0  0
    6.0895   -2.2273   -0.5591 H   0  0  0  0  0  0  0  0  0  0  0  0
    4.6138   -2.3678   -1.5389 H   0  0  0  0  0  0  0  0  0  0  0  0
    4.6135   -2.8557    0.1672 H   0  0  0  0  0  0  0  0  0  0  0  0
    2.8075   -1.9235    1.1778 H   0  0  0  0  0  0  0  0  0  0  0  0
    0.6905   -1.5427    1.6836 H   0  0  0  0  0  0  0  0  0  0  0  0
    1.1516    0.1525    1.5587 H   0  0  0  0  0  0  0  0  0  0  0  0
    0.6018    0.0382   -0.9390 H   0  0  0  0  0  0  0  0  0  0  0  0
    0.1250   -1.6311   -0.7280 H   0  0  0  0  0  0  0  0  0  0  0  0
   -0.8179    1.9335    0.0463 H   0  0  0  0  0  0  0  0  0  0  0  0
   -0.7988    1.2367    1.6634 H   0  0  0  0  0  0  0  0  0  0  0  0
   -2.7864    2.6787    1.3769 H   0  0  0  0  0  0  0  0  0  0  0  0
   -4.5599    2.0426   -0.2558 H   0  0  0  0  0  0  0  0  0  0  0  0
   -3.0523    2.4107   -1.0903 H   0  0  0  0  0  0  0  0  0  0  0  0
   -4.0669    0.3137   -1.9850 H   0  0  0  0  0  0  0  0  0  0  0  0
   -4.2425   -1.6933   -0.5123 H   0  0  0  0  0  0  0  0  0  0  0  0
   -5.2653   -0.3895    0.0867 H   0  0  0  0  0  0  0  0  0  0  0  0
   -3.9757   -1.4208    1.9544 H   0  0  0  0  0  0  0  0  0  0  0  0
   -2.9627    0.6752    2.8556 H   0  0  0  0  0  0  0  0  0  0  0  0
   -4.5068    1.0135    2.0774 H   0  0  0  0  0  0  0  0  0  0  0  0
   -1.5120   -1.2200    2.0104 H   0  0  0  0  0  0  0  0  0  0  0  0
   -2.0134   -2.1903    0.6283 H   0  0  0  0  0  0  0  0  0  0  0  0
   -1.5914    0.5238   -1.9624 H   0  0  0  0  0  0  0  0  0  0  0  0
   -2.0775   -1.1517   -1.7267 H   0  0  0  0  0  0  0  0  0  0  0  0
    4.4889    3.3239   -1.3409 H   0  0  0  0  0  0  0  0  0  0  0  0
  1  2  1  0
  2  3  1  0
  3  4  1  0
  4  5  1  0
  5  6  1  0
  7  6  1  6
  7  8  1  0
  8  9  1  0
  9 10  1  0
 10 11  1  0
 11 12  1  0
 12 13  1  0
 13 14  1  0
 13 15  1  0
 11 16  1  0
  3 17  2  0
 17 18  1  0
 18 19  1  0
 19 20  2  0
 20 21  1  0
 21 22  2  0
 22  2  1  0
 15  7  1  0
 22 18  1  0
 16  7  1  0
 14  9  1  0
  1 23  1  0
  1 24  1  0
  1 25  1  0
  4 26  1  0
  5 27  1  0
  5 28  1  0
  6 29  1  0
  6 30  1  0
  8 31  1  0
  8 32  1  0
  9 33  1  1
 10 34  1  0
 10 35  1  0
 11 36  1  6
 12 37  1  0
 12 38  1  0
 13 39  1  1
 14 40  1  0
 14 41  1  0
 15 42  1  0
 15 43  1  0
 16 44  1  0
 16 45  1  0
 19 46  1  0
M  END
>  <_SMILES>  (95) 
Cn1c(NCC[C@]23C[C@H]4C[C@H](C[C@H](C4)C2)C3)nn2cnnc12

$$$$

     RDKit          3D

 46 50  0  0  0  0  0  0  0  0999 V2000
    5.2411    1.0256    1.2625 C   0  0  0  0  0  0  0  0  0  0  0  0
    4.5663    1.0313   -0.0076 N   0  0  0  0  0  0  0  0  0  0  0  0
    3.1753    1.0751   -0.1802 C   0  0  0  0  0  0  0  0  0  0  0  0
    2.3366    1.2924    0.7678 N   0  0  0  0  0  0  0  0  0  0  0  0
    0.9067    1.3083    0.4552 C   0  0  0  0  0  0  0  0  0  0  0  0
    0.3090   -0.0622    0.7832 C   0  0  0  0  0  0  0  0  0  0  0  0
   -1.1987   -0.2337    0.4777 C   0  0  2  0  0  0  0  0  0  0  0  0
   -1.6313   -1.6585    0.9238 C   0  0  0  0  0  0  0  0  0  0  0  0
   -3.1238   -1.8952    0.6435 C   0  0  1  0  0  0  0  0  0  0  0  0
   -3.9521   -0.8550    1.4134 C   0  0  0  0  0  0  0  0  0  0  0  0
   -3.5633    0.5621    0.9643 C   0  0  2  0  0  0  0  0  0  0  0  0
   -3.8233    0.7046   -0.5445 C   0  0  0  0  0  0  0  0  0  0  0  0
   -2.9923   -0.3294   -1.3222 C   0  0  2  0  0  0  0  0  0  0  0  0
   -3.3838   -1.7424   -0.8630 C   0  0  0  0  0  0  0  0  0  0  0  0
   -1.4974   -0.0949   -1.0374 C   0  0  0  0  0  0  0  0  0  0  0  0
   -2.0673    0.7953    1.2444 C   0  0  0  0  0  0  0  0  0  0  0  0
    2.9027    0.7500   -1.5301 N   0  0  0  0  0  0  0  0  0  0  0  0
    4.1395    0.3759   -2.0037 N   0  0  0  0  0  0  0  0  0  0  0  0
    4.6808   -0.1426   -3.1246 C   0  0  0  0  0  0  0  0  0  0  0  0
    5.9756   -0.3220   -2.9102 N   0  0  0  0  0  0  0  0  0  0  0  0
    6.2691    0.1055   -1.6077 N   0  0  0  0  0  0  0  0  0  0  0  0
    5.1403    0.5300   -1.1117 C   0  0  0  0  0  0  0  0  0  0  0  0
    6.3057    1.2601    1.1506 H   0  0  0  0  0  0  0  0  0  0  0  0
    4.8127    1.7769    1.9345 H   0  0  0  0  0  0  0  0  0  0  0  0
    5.1528    0.0454    1.7432 H   0  0  0  0  0  0  0  0  0  0  0  0
    0.7173    1.5985   -0.5827 H   0  0  0  0  0  0  0  0  0  0  0  0
    0.4449    2.0804    1.0791 H   0  0  0  0  0  0  0  0  0  0  0  0
    0.8704   -0.8337    0.2390 H   0  0  0  0  0  0  0  0  0  0  0  0
    0.4852   -0.2667    1.8484 H   0  0  0  0  0  0  0  0  0  0  0  0
   -1.4351   -1.7944    1.9953 H   0  0  0  0  0  0  0  0  0  0  0  0
   -1.0358   -2.4160    0.3975 H   0  0  0  0  0  0  0  0  0  0  0  0
   -3.4051   -2.9038    0.9665 H   0  0  0  0  0  0  0  0  0  0  0  0
   -5.0217   -1.0235    1.2379 H   0  0  0  0  0  0  0  0  0  0  0  0
   -3.7852   -0.9656    2.4919 H   0  0  0  0  0  0  0  0  0  0  0  0
   -4.1599    1.2997    1.5128 H   0  0  0  0  0  0  0  0  0  0  0  0
   -3.5658    1.7183   -0.8755 H   0  0  0  0  0  0  0  0  0  0  0  0
   -4.8904    0.5626   -0.7557 H   0  0  0  0  0  0  0  0  0  0  0  0
   -3.1834   -0.2243   -2.3960 H   0  0  0  0  0  0  0  0  0  0  0  0
   -2.8085   -2.4911   -1.4212 H   0  0  0  0  0  0  0  0  0  0  0  0
   -4.4429   -1.9273   -1.0810 H   0  0  0  0  0  0  0  0  0  0  0  0
   -1.2240    0.9038   -1.3973 H   0  0  0  0  0  0  0  0  0  0  0  0
   -0.8954   -0.8130   -1.6087 H   0  0  0  0  0  0  0  0  0  0  0  0
   -1.8091    1.8183    0.9458 H   0  0  0  0  0  0  0  0  0  0  0  0
   -1.8772    0.7215    2.3227 H   0  0  0  0  0  0  0  0  0  0  0  0
    2.2047    0.0218   -1.6074 H   0  0  0  0  0  0  0  0  0  0  0  0
    4.1364   -0.3683   -4.0282 H   0  0  0  0  0  0  0  0  0  0  0  0
  1  2  1  0
  2  3  1  0
  3  4  2  0
  4  5  1  0
  5  6  1  0
  7  6  1  6
  7  8  1  0
  8  9  1  0
  9 10  1  0
 10 11  1  0
 11 12  1  0
 12 13  1  0
 13 14  1  0
 13 15  1  0
 11 16  1  0
  3 17  1  0
 17 18  1  0
 18 19  1  0
 19 20  2  0
 20 21  1  0
 21 22  2  0
 22  2  1  0
 15  7  1  0
 22 18  1  0
 16  7  1  0
 14  9  1  0
  1 23  1  0
  1 24  1  0
  1 25  1  0
  5 26  1  0
  5 27  1  0
  6 28  1  0
  6 29  1  0
  8 30  1  0
  8 31  1  0
  9 32  1  1
 10 33  1  0
 10 34  1  0
 11 35  1  1
 12 36  1  0
 12 37  1  0
 13 38  1  6
 14 39  1  0
 14 40  1  0
 15 41  1  0
 15 42  1  0
 16 43  1  0
 16 44  1  0
 17 45  1  0
 19 46  1  0
M  END
>  <_SMILES>  (96) 
Cn1/c(=N/CC[C@]23C[C@H]4C[C@H](C[C@H](C4)C2)C3)[nH]n2cnnc12

$$$$

     RDKit          3D

 46 50  0  0  0  0  0  0  0  0999 V2000
    3.7166   -1.0886   -1.5908 C   0  0  0  0  0  0  0  0  0  0  0  0
    3.7228   -0.5497   -0.2586 N   0  0  0  0  0  0  0  0  0  0  0  0
    2.8605    0.3983    0.3237 C   0  0  0  0  0  0  0  0  0  0  0  0
    1.7976    1.0074   -0.0443 N   0  0  0  0  0  0  0  0  0  0  0  0
    1.1385    0.7747   -1.3164 C   0  0  0  0  0  0  0  0  0  0  0  0
    0.1500   -0.3919   -1.2218 C   0  0  0  0  0  0  0  0  0  0  0  0
   -1.2174   -0.1185   -0.5392 C   0  0  2  0  0  0  0  0  0  0  0  0
   -2.0167   -1.4534   -0.5142 C   0  0  0  0  0  0  0  0  0  0  0  0
   -3.3961   -1.2629    0.1353 C   0  0  1  0  0  0  0  0  0  0  0  0
   -3.2085   -0.7660    1.5766 C   0  0  0  0  0  0  0  0  0  0  0  0
   -2.4520    0.5708    1.5753 C   0  0  2  0  0  0  0  0  0  0  0  0
   -3.2531    1.6063    0.7687 C   0  0  0  0  0  0  0  0  0  0  0  0
   -3.4375    1.1179   -0.6775 C   0  0  2  0  0  0  0  0  0  0  0  0
   -4.1907   -0.2211   -0.6667 C   0  0  0  0  0  0  0  0  0  0  0  0
   -2.0550    0.9224   -1.3275 C   0  0  0  0  0  0  0  0  0  0  0  0
   -1.0715    0.3795    0.9202 C   0  0  0  0  0  0  0  0  0  0  0  0
    3.4106    0.7443    1.5789 N   0  0  0  0  0  0  0  0  0  0  0  0
    4.6449    0.1645    1.5518 N   0  0  0  0  0  0  0  0  0  0  0  0
    5.7620    0.1114    2.3042 C   0  0  0  0  0  0  0  0  0  0  0  0
    6.6367   -0.6680    1.6855 N   0  0  0  0  0  0  0  0  0  0  0  0
    6.0466   -1.1391    0.5048 N   0  0  0  0  0  0  0  0  0  0  0  0
    4.8484   -0.6239    0.4776 C   0  0  0  0  0  0  0  0  0  0  0  0
    4.4416   -1.9040   -1.7028 H   0  0  0  0  0  0  0  0  0  0  0  0
    3.9711   -0.3163   -2.3241 H   0  0  0  0  0  0  0  0  0  0  0  0
    2.7405   -1.5122   -1.8409 H   0  0  0  0  0  0  0  0  0  0  0  0
    1.8619    0.5953   -2.1155 H   0  0  0  0  0  0  0  0  0  0  0  0
    0.6261    1.6942   -1.6143 H   0  0  0  0  0  0  0  0  0  0  0  0
    0.6368   -1.2335   -0.7121 H   0  0  0  0  0  0  0  0  0  0  0  0
   -0.0487   -0.7332   -2.2469 H   0  0  0  0  0  0  0  0  0  0  0  0
   -2.1441   -1.8362   -1.5354 H   0  0  0  0  0  0  0  0  0  0  0  0
   -1.4560   -2.2181    0.0392 H   0  0  0  0  0  0  0  0  0  0  0  0
   -3.9370   -2.2158    0.1406 H   0  0  0  0  0  0  0  0  0  0  0  0
   -2.6542   -1.5102    2.1615 H   0  0  0  0  0  0  0  0  0  0  0  0
   -4.1851   -0.6436    2.0608 H   0  0  0  0  0  0  0  0  0  0  0  0
   -2.3249    0.9237    2.6049 H   0  0  0  0  0  0  0  0  0  0  0  0
   -4.2317    1.7699    1.2366 H   0  0  0  0  0  0  0  0  0  0  0  0
   -2.7323    2.5716    0.7751 H   0  0  0  0  0  0  0  0  0  0  0  0
   -4.0103    1.8586   -1.2468 H   0  0  0  0  0  0  0  0  0  0  0  0
   -5.1859   -0.0878   -0.2251 H   0  0  0  0  0  0  0  0  0  0  0  0
   -4.3430   -0.5741   -1.6940 H   0  0  0  0  0  0  0  0  0  0  0  0
   -2.1806    0.5970   -2.3681 H   0  0  0  0  0  0  0  0  0  0  0  0
   -1.5420    1.8904   -1.3589 H   0  0  0  0  0  0  0  0  0  0  0  0
   -0.5419    1.3385    0.9499 H   0  0  0  0  0  0  0  0  0  0  0  0
   -0.4793   -0.3343    1.5067 H   0  0  0  0  0  0  0  0  0  0  0  0
    3.3828    1.7440    1.7294 H   0  0  0  0  0  0  0  0  0  0  0  0
    5.8996    0.6219    3.2446 H   0  0  0  0  0  0  0  0  0  0  0  0
  1  2  1  0
  2  3  1  0
  3  4  2  0
  4  5  1  0
  5  6  1  0
  7  6  1  6
  7  8  1  0
  8  9  1  0
  9 10  1  0
 10 11  1  0
 11 12  1  0
 12 13  1  0
 13 14  1  0
 13 15  1  0
 11 16  1  0
  3 17  1  0
 17 18  1  0
 18 19  1  0
 19 20  2  0
 20 21  1  0
 21 22  2  0
 22  2  1  0
 15  7  1  0
 22 18  1  0
 16  7  1  0
 14  9  1  0
  1 23  1  0
  1 24  1  0
  1 25  1  0
  5 26  1  0
  5 27  1  0
  6 28  1  0
  6 29  1  0
  8 30  1  0
  8 31  1  0
  9 32  1  1
 10 33  1  0
 10 34  1  0
 11 35  1  1
 12 36  1  0
 12 37  1  0
 13 38  1  6
 14 39  1  0
 14 40  1  0
 15 41  1  0
 15 42  1  0
 16 43  1  0
 16 44  1  0
 17 45  1  0
 19 46  1  0
M  END
>  <_SMILES>  (97) 
Cn1/c(=N\CC[C@]23C[C@H]4C[C@H](C[C@H](C4)C2)C3)[nH]n2cnnc12

$$$$

     RDKit          3D

 24 25  0  0  0  0  0  0  0  0999 V2000
    2.3494   -1.2993   -1.5371 O   0  0  0  0  0  0  0  0  0  0  0  0
    2.8434   -0.4780   -0.7571 C   0  0  0  0  0  0  0  0  0  0  0  0
    2.0548    0.3658    0.0443 N   0  0  0  0  0  0  0  0  0  0  0  0
    0.6895    0.4783    0.1511 C   0  0  0  0  0  0  0  0  0  0  0  0
   -0.2251   -0.2322   -0.5236 C   0  0  0  0  0  0  0  0  0  0  0  0
   -1.6927   -0.1110   -0.4085 C   0  0  0  0  0  0  0  0  0  0  0  0
   -2.4873   -0.9510   -1.2064 C   0  0  0  0  0  0  0  0  0  0  0  0
   -3.8810   -0.8853   -1.1441 C   0  0  0  0  0  0  0  0  0  0  0  0
   -4.9236   -2.0296   -2.2311 Br  0  0  0  0  0  0  0  0  0  0  0  0
   -4.5120    0.0132   -0.2906 C   0  0  0  0  0  0  0  0  0  0  0  0
   -3.7320    0.8484    0.5029 C   0  0  0  0  0  0  0  0  0  0  0  0
   -4.5746    2.0771    1.6700 Br  0  0  0  0  0  0  0  0  0  0  0  0
   -2.3360    0.7923    0.4496 C   0  0  0  0  0  0  0  0  0  0  0  0
    4.2614   -0.1825   -0.4764 C   0  0  0  0  0  0  0  0  0  0  0  0
    4.6605    0.7678    0.4261 N   0  0  0  0  0  0  0  0  0  0  0  0
    6.0100    0.7296    0.3898 N   0  0  0  0  0  0  0  0  0  0  0  0
    6.4088   -0.2049   -0.4977 N   0  0  0  0  0  0  0  0  0  0  0  0
    5.3251   -0.7940   -1.0572 N   0  0  0  0  0  0  0  0  0  0  0  0
    2.6284    0.9817    0.6292 H   0  0  0  0  0  0  0  0  0  0  0  0
    0.3978    1.2362    0.8709 H   0  0  0  0  0  0  0  0  0  0  0  0
    0.1080   -0.9826   -1.2363 H   0  0  0  0  0  0  0  0  0  0  0  0
   -2.0150   -1.6624   -1.8822 H   0  0  0  0  0  0  0  0  0  0  0  0
   -5.5957    0.0619   -0.2444 H   0  0  0  0  0  0  0  0  0  0  0  0
   -1.7621    1.4605    1.0844 H   0  0  0  0  0  0  0  0  0  0  0  0
  1  2  2  0
  2  3  1  0
  3  4  1  0
  4  5  2  0
  5  6  1  0
  6  7  2  0
  7  8  1  0
  8  9  1  0
  8 10  2  0
 10 11  1  0
 11 12  1  0
 11 13  2  0
  2 14  1  0
 14 15  2  0
 15 16  1  0
 16 17  2  0
 17 18  1  0
 13  6  1  0
 18 14  1  0
  3 19  1  0
  4 20  1  0
  5 21  1  0
  7 22  1  0
 10 23  1  0
 13 24  1  0
M  CHG  1  18  -1
M  END
>  <_SMILES>  (98) 
O=C(N/C=C/c1cc(Br)cc(Br)c1)c1nnn[n-]1

$$$$

     RDKit          3D

 24 25  0  0  0  0  0  0  0  0999 V2000
    3.2016    0.9277    2.2827 O   0  0  0  0  0  0  0  0  0  0  0  0
    2.7334    0.5413    1.2036 C   0  0  0  0  0  0  0  0  0  0  0  0
    1.3458    0.4312    1.0272 N   0  0  0  0  0  0  0  0  0  0  0  0
    0.4059    0.7230    1.9781 C   0  0  0  0  0  0  0  0  0  0  0  0
   -0.9170    0.6096    1.7969 C   0  0  0  0  0  0  0  0  0  0  0  0
   -1.5883    0.1356    0.5820 C   0  0  0  0  0  0  0  0  0  0  0  0
   -1.3605   -1.1518    0.0793 C   0  0  0  0  0  0  0  0  0  0  0  0
   -2.0337   -1.5827   -1.0645 C   0  0  0  0  0  0  0  0  0  0  0  0
   -1.7313   -3.3273   -1.7293 Br  0  0  0  0  0  0  0  0  0  0  0  0
   -2.9381   -0.7468   -1.7158 C   0  0  0  0  0  0  0  0  0  0  0  0
   -3.1686    0.5296   -1.2085 C   0  0  0  0  0  0  0  0  0  0  0  0
   -4.4028    1.6717   -2.0751 Br  0  0  0  0  0  0  0  0  0  0  0  0
   -2.5048    0.9733   -0.0638 C   0  0  0  0  0  0  0  0  0  0  0  0
    3.4040    0.1355   -0.0419 C   0  0  0  0  0  0  0  0  0  0  0  0
    4.7469    0.1185   -0.2411 N   0  0  0  0  0  0  0  0  0  0  0  0
    4.9010   -0.3201   -1.5130 N   0  0  0  0  0  0  0  0  0  0  0  0
    3.6911   -0.5593   -2.0599 N   0  0  0  0  0  0  0  0  0  0  0  0
    2.7265   -0.2811   -1.1563 N   0  0  0  0  0  0  0  0  0  0  0  0
    1.0697    0.1177    0.0943 H   0  0  0  0  0  0  0  0  0  0  0  0
    0.7968    1.0811    2.9292 H   0  0  0  0  0  0  0  0  0  0  0  0
   -1.5799    0.9005    2.6082 H   0  0  0  0  0  0  0  0  0  0  0  0
   -0.6555   -1.8149    0.5772 H   0  0  0  0  0  0  0  0  0  0  0  0
   -3.4540   -1.0868   -2.6088 H   0  0  0  0  0  0  0  0  0  0  0  0
   -2.6883    1.9744    0.3191 H   0  0  0  0  0  0  0  0  0  0  0  0
  1  2  2  0
  2  3  1  0
  3  4  1  0
  4  5  2  0
  5  6  1  0
  6  7  2  0
  7  8  1  0
  8  9  1  0
  8 10  2  0
 10 11  1  0
 11 12  1  0
 11 13  2  0
  2 14  1  0
 14 15  2  0
 15 16  1  0
 16 17  2  0
 17 18  1  0
 13  6  1  0
 18 14  1  0
  3 19  1  0
  4 20  1  0
  5 21  1  0
  7 22  1  0
 10 23  1  0
 13 24  1  0
M  CHG  1  18  -1
M  END
>  <_SMILES>  (99) 
O=C(N/C=C\c1cc(Br)cc(Br)c1)c1nnn[n-]1

$$$$

     RDKit          3D

 71 77  0  0  0  0  0  0  0  0999 V2000
   -0.5208    3.5151   -0.3182 C   0  0  0  0  0  0  0  0  0  0  0  0
   -1.0776    2.1652   -0.5958 C   0  0  0  0  0  0  0  0  0  0  0  0
   -0.3877    1.0178   -1.0996 C   0  0  0  0  0  0  0  0  0  0  0  0
    1.0469    0.8636   -1.4116 C   0  0  0  0  0  0  0  0  0  0  0  0
    1.4589    0.2457   -2.3897 O   0  0  0  0  0  0  0  0  0  0  0  0
    1.8925    1.4427   -0.4812 N   0  0  0  0  0  0  0  0  0  0  0  0
    3.3317    1.2939   -0.5455 C   0  0  0  0  0  0  0  0  0  0  0  0
    3.8885    0.1567    0.3415 C   0  0  2  0  0  0  0  0  0  0  0  0
    3.3543   -1.2334   -0.0886 C   0  0  0  0  0  0  0  0  0  0  0  0
    3.9647   -2.3457    0.7829 C   0  0  1  0  0  0  0  0  0  0  0  0
    5.4939   -2.3282    0.6340 C   0  0  0  0  0  0  0  0  0  0  0  0
    6.0494   -0.9677    1.0829 C   0  0  2  0  0  0  0  0  0  0  0  0
    5.6712   -0.7221    2.5520 C   0  0  0  0  0  0  0  0  0  0  0  0
    4.1425   -0.7322    2.7098 C   0  0  2  0  0  0  0  0  0  0  0  0
    3.5948   -2.0947    2.2541 C   0  0  0  0  0  0  0  0  0  0  0  0
    3.5327    0.3777    1.8349 C   0  0  0  0  0  0  0  0  0  0  0  0
    5.4359    0.1403    0.2114 C   0  0  0  0  0  0  0  0  0  0  0  0
   -1.2380   -0.0039   -1.2821 N   0  0  0  0  0  0  0  0  0  0  0  0
   -2.4319    0.4409   -0.8566 N   0  0  0  0  0  0  0  0  0  0  0  0
   -3.6063   -0.4242   -0.9037 C   0  0  2  0  0  0  0  0  0  0  0  0
   -4.1203   -0.8437    0.4742 C   0  0  0  0  0  0  0  0  0  0  0  0
   -4.5820   -2.1136    0.3752 C   0  0  0  0  0  0  0  0  0  0  0  0
   -4.7736   -2.4823   -1.0754 C   0  0  0  0  0  0  0  0  0  0  0  0
   -3.4611   -1.8476   -1.5747 C   0  0  1  0  0  0  0  0  0  0  0  0
   -3.4074   -1.7994   -3.0980 C   0  0  0  0  0  0  0  0  0  0  0  0
   -2.3261   -2.7408   -0.9847 C   0  0  0  0  0  0  0  0  0  0  0  0
   -2.4243   -3.3255    0.2315 C   0  0  0  0  0  0  0  0  0  0  0  0
   -3.6452   -3.0546    1.0671 C   0  0  0  0  0  0  0  0  0  0  0  0
   -3.8339   -3.5260    2.1741 O   0  0  0  0  0  0  0  0  0  0  0  0
   -2.3978    1.7612   -0.4571 C   0  0  0  0  0  0  0  0  0  0  0  0
   -3.5591    2.5157   -0.0005 C   0  0  0  0  0  0  0  0  0  0  0  0
   -3.7777    2.7120    1.3673 C   0  0  0  0  0  0  0  0  0  0  0  0
   -4.8902    3.4328    1.8044 C   0  0  0  0  0  0  0  0  0  0  0  0
   -5.7837    3.9673    0.8769 C   0  0  0  0  0  0  0  0  0  0  0  0
   -5.5647    3.7856   -0.4880 C   0  0  0  0  0  0  0  0  0  0  0  0
   -4.4535    3.0638   -0.9268 C   0  0  0  0  0  0  0  0  0  0  0  0
   -1.2844    4.2923   -0.4240 H   0  0  0  0  0  0  0  0  0  0  0  0
   -0.1278    3.5604    0.7023 H   0  0  0  0  0  0  0  0  0  0  0  0
    0.2875    3.7591   -1.0146 H   0  0  0  0  0  0  0  0  0  0  0  0
    1.4842    1.7900    0.3750 H   0  0  0  0  0  0  0  0  0  0  0  0
    3.7498    2.2554   -0.2252 H   0  0  0  0  0  0  0  0  0  0  0  0
    3.6313    1.1414   -1.5889 H   0  0  0  0  0  0  0  0  0  0  0  0
    3.5919   -1.4199   -1.1437 H   0  0  0  0  0  0  0  0  0  0  0  0
    2.2623   -1.2732    0.0038 H   0  0  0  0  0  0  0  0  0  0  0  0
    3.5739   -3.3189    0.4651 H   0  0  0  0  0  0  0  0  0  0  0  0
    5.7713   -2.5213   -0.4095 H   0  0  0  0  0  0  0  0  0  0  0  0
    5.9381   -3.1310    1.2352 H   0  0  0  0  0  0  0  0  0  0  0  0
    7.1398   -0.9605    0.9760 H   0  0  0  0  0  0  0  0  0  0  0  0
    6.0766    0.2401    2.8881 H   0  0  0  0  0  0  0  0  0  0  0  0
    6.1186   -1.4956    3.1882 H   0  0  0  0  0  0  0  0  0  0  0  0
    3.8788   -0.5607    3.7594 H   0  0  0  0  0  0  0  0  0  0  0  0
    2.5050   -2.1209    2.3766 H   0  0  0  0  0  0  0  0  0  0  0  0
    4.0051   -2.8930    2.8847 H   0  0  0  0  0  0  0  0  0  0  0  0
    2.4446    0.3851    1.9751 H   0  0  0  0  0  0  0  0  0  0  0  0
    3.9011    1.3556    2.1705 H   0  0  0  0  0  0  0  0  0  0  0  0
    5.8504    1.1121    0.5100 H   0  0  0  0  0  0  0  0  0  0  0  0
    5.7248   -0.0154   -0.8362 H   0  0  0  0  0  0  0  0  0  0  0  0
   -4.3862    0.1526   -1.4191 H   0  0  0  0  0  0  0  0  0  0  0  0
   -3.6370   -0.4632    1.3694 H   0  0  0  0  0  0  0  0  0  0  0  0
   -5.6753   -2.0169   -1.4910 H   0  0  0  0  0  0  0  0  0  0  0  0
   -4.8299   -3.5637   -1.2466 H   0  0  0  0  0  0  0  0  0  0  0  0
   -3.4499   -2.8068   -3.5274 H   0  0  0  0  0  0  0  0  0  0  0  0
   -4.2504   -1.2307   -3.5059 H   0  0  0  0  0  0  0  0  0  0  0  0
   -2.4856   -1.3262   -3.4520 H   0  0  0  0  0  0  0  0  0  0  0  0
   -1.4154   -2.8561   -1.5691 H   0  0  0  0  0  0  0  0  0  0  0  0
   -1.6477   -3.9394    0.6678 H   0  0  0  0  0  0  0  0  0  0  0  0
   -3.0868    2.3015    2.1000 H   0  0  0  0  0  0  0  0  0  0  0  0
   -5.0598    3.5778    2.8684 H   0  0  0  0  0  0  0  0  0  0  0  0
   -6.6494    4.5295    1.2185 H   0  0  0  0  0  0  0  0  0  0  0  0
   -6.2575    4.2098   -1.2105 H   0  0  0  0  0  0  0  0  0  0  0  0
   -4.2867    2.9381   -1.9942 H   0  0  0  0  0  0  0  0  0  0  0  0
  1  2  1  0
  2  3  1  0
  3  4  1  0
  4  5  2  0
  4  6  1  0
  6  7  1  0
  8  7  1  6
  8  9  1  0
  9 10  1  0
 10 11  1  0
 11 12  1  0
 12 13  1  0
 13 14  1  0
 14 15  1  0
 14 16  1  0
 12 17  1  0
  3 18  2  0
 18 19  1  0
 19 20  1  0
 20 21  1  0
 21 22  2  0
 22 23  1  0
 23 24  1  0
 24 25  1  6
 24 26  1  0
 26 27  2  0
 27 28  1  0
 28 29  2  0
 19 30  1  0
 30 31  1  0
 31 32  2  0
 32 33  1  0
 33 34  2  0
 34 35  1  0
 35 36  2  0
 30  2  2  0
 36 31  1  0
 16  8  1  0
 24 20  1  0
 17  8  1  0
 28 22  1  0
 15 10  1  0
  1 37  1  0
  1 38  1  0
  1 39  1  0
  6 40  1  0
  7 41  1  0
  7 42  1  0
  9 43  1  0
  9 44  1  0
 10 45  1  6
 11 46  1  0
 11 47  1  0
 12 48  1  1
 13 49  1  0
 13 50  1  0
 14 51  1  1
 15 52  1  0
 15 53  1  0
 16 54  1  0
 16 55  1  0
 17 56  1  0
 17 57  1  0
 20 58  1  6
 21 59  1  0
 23 60  1  0
 23 61  1  0
 25 62  1  0
 25 63  1  0
 25 64  1  0
 26 65  1  0
 27 66  1  0
 32 67  1  0
 33 68  1  0
 34 69  1  0
 35 70  1  0
 36 71  1  0
M  END
>  <_SMILES>  (100) 
Cc1c(C(=O)NC[C@]23C[C@H]4C[C@H](C[C@H](C4)C2)C3)nn([C@@H]2C=C3C[C@]2(C)C=CC3=O)c1-c1ccccc1

$$$$

     RDKit          3D

 71 77  0  0  0  0  0  0  0  0999 V2000
    0.0955    1.7027    0.9733 C   0  0  0  0  0  0  0  0  0  0  0  0
   -0.9280    0.6870    0.6110 C   0  0  0  0  0  0  0  0  0  0  0  0
   -0.7617   -0.7329    0.5379 C   0  0  0  0  0  0  0  0  0  0  0  0
    0.4607   -1.5295    0.7656 C   0  0  0  0  0  0  0  0  0  0  0  0
    0.4601   -2.6165    1.3372 O   0  0  0  0  0  0  0  0  0  0  0  0
    1.6114   -0.9563    0.2465 N   0  0  0  0  0  0  0  0  0  0  0  0
    2.8543   -1.6995    0.2248 C   0  0  0  0  0  0  0  0  0  0  0  0
    4.1005   -0.8174    0.0038 C   0  0  2  0  0  0  0  0  0  0  0  0
    4.0718   -0.1171   -1.3795 C   0  0  0  0  0  0  0  0  0  0  0  0
    5.3451    0.7217   -1.5899 C   0  0  1  0  0  0  0  0  0  0  0  0
    5.4387    1.7848   -0.4828 C   0  0  0  0  0  0  0  0  0  0  0  0
    5.4992    1.1067    0.8960 C   0  0  2  0  0  0  0  0  0  0  0  0
    6.7295    0.1874    0.9551 C   0  0  0  0  0  0  0  0  0  0  0  0
    6.6404   -0.8818   -0.1453 C   0  0  2  0  0  0  0  0  0  0  0  0
    6.5762   -0.1951   -1.5185 C   0  0  0  0  0  0  0  0  0  0  0  0
    5.3654   -1.7157    0.0624 C   0  0  0  0  0  0  0  0  0  0  0  0
    4.2262    0.2672    1.1043 C   0  0  0  0  0  0  0  0  0  0  0  0
   -1.9166   -1.3299    0.2052 N   0  0  0  0  0  0  0  0  0  0  0  0
   -2.8098   -0.3328    0.0756 N   0  0  0  0  0  0  0  0  0  0  0  0
   -4.1951   -0.6264   -0.2666 C   0  0  1  0  0  0  0  0  0  0  0  0
   -4.3577   -0.9969   -1.7422 C   0  0  0  0  0  0  0  0  0  0  0  0
   -4.7750   -2.2849   -1.8133 C   0  0  0  0  0  0  0  0  0  0  0  0
   -4.4766   -3.0089   -0.5204 C   0  0  0  0  0  0  0  0  0  0  0  0
   -4.8960   -1.8615    0.4133 C   0  0  1  0  0  0  0  0  0  0  0  0
   -4.5424   -2.1125    1.8746 C   0  0  0  0  0  0  0  0  0  0  0  0
   -6.4506   -1.7394    0.2613 C   0  0  0  0  0  0  0  0  0  0  0  0
   -7.0738   -1.9896   -0.9138 C   0  0  0  0  0  0  0  0  0  0  0  0
   -6.2407   -2.3157   -2.1265 C   0  0  0  0  0  0  0  0  0  0  0  0
   -6.7101   -2.5405   -3.2278 O   0  0  0  0  0  0  0  0  0  0  0  0
   -2.2568    0.9127    0.2822 C   0  0  0  0  0  0  0  0  0  0  0  0
   -2.9938    2.1653    0.1740 C   0  0  0  0  0  0  0  0  0  0  0  0
   -3.2254    2.7396   -1.0808 C   0  0  0  0  0  0  0  0  0  0  0  0
   -3.9435    3.9319   -1.1846 C   0  0  0  0  0  0  0  0  0  0  0  0
   -4.4292    4.5560   -0.0360 C   0  0  0  0  0  0  0  0  0  0  0  0
   -4.1957    3.9913    1.2175 C   0  0  0  0  0  0  0  0  0  0  0  0
   -3.4784    2.7987    1.3235 C   0  0  0  0  0  0  0  0  0  0  0  0
    0.7119    1.9487    0.1030 H   0  0  0  0  0  0  0  0  0  0  0  0
   -0.3635    2.6280    1.3347 H   0  0  0  0  0  0  0  0  0  0  0  0
    0.7481    1.3326    1.7704 H   0  0  0  0  0  0  0  0  0  0  0  0
    1.4580   -0.2633   -0.4730 H   0  0  0  0  0  0  0  0  0  0  0  0
    2.9450   -2.2469    1.1711 H   0  0  0  0  0  0  0  0  0  0  0  0
    2.7659   -2.4484   -0.5717 H   0  0  0  0  0  0  0  0  0  0  0  0
    3.9852   -0.8639   -2.1791 H   0  0  0  0  0  0  0  0  0  0  0  0
    3.1979    0.5397   -1.4653 H   0  0  0  0  0  0  0  0  0  0  0  0
    5.3061    1.2113   -2.5694 H   0  0  0  0  0  0  0  0  0  0  0  0
    4.5723    2.4558   -0.5329 H   0  0  0  0  0  0  0  0  0  0  0  0
    6.3306    2.4051   -0.6341 H   0  0  0  0  0  0  0  0  0  0  0  0
    5.5701    1.8692    1.6797 H   0  0  0  0  0  0  0  0  0  0  0  0
    7.6450    0.7785    0.8297 H   0  0  0  0  0  0  0  0  0  0  0  0
    6.7925   -0.2919    1.9398 H   0  0  0  0  0  0  0  0  0  0  0  0
    7.5199   -1.5337   -0.0990 H   0  0  0  0  0  0  0  0  0  0  0  0
    7.4890    0.3892   -1.6882 H   0  0  0  0  0  0  0  0  0  0  0  0
    6.5288   -0.9494   -2.3135 H   0  0  0  0  0  0  0  0  0  0  0  0
    5.4192   -2.2303    1.0306 H   0  0  0  0  0  0  0  0  0  0  0  0
    5.3089   -2.4977   -0.7060 H   0  0  0  0  0  0  0  0  0  0  0  0
    4.2519   -0.2020    2.0962 H   0  0  0  0  0  0  0  0  0  0  0  0
    3.3531    0.9314    1.0922 H   0  0  0  0  0  0  0  0  0  0  0  0
   -4.7878    0.2698   -0.0492 H   0  0  0  0  0  0  0  0  0  0  0  0
   -4.6947   -0.2267   -2.4293 H   0  0  0  0  0  0  0  0  0  0  0  0
   -5.0801   -3.9148   -0.3865 H   0  0  0  0  0  0  0  0  0  0  0  0
   -3.4233   -3.2962   -0.4536 H   0  0  0  0  0  0  0  0  0  0  0  0
   -3.4910   -2.3824    2.0076 H   0  0  0  0  0  0  0  0  0  0  0  0
   -4.7413   -1.2233    2.4831 H   0  0  0  0  0  0  0  0  0  0  0  0
   -5.1341   -2.9380    2.2876 H   0  0  0  0  0  0  0  0  0  0  0  0
   -7.0338   -1.4492    1.1316 H   0  0  0  0  0  0  0  0  0  0  0  0
   -8.1451   -1.9295   -1.0548 H   0  0  0  0  0  0  0  0  0  0  0  0
   -2.8453    2.2649   -1.9827 H   0  0  0  0  0  0  0  0  0  0  0  0
   -4.1212    4.3761   -2.1609 H   0  0  0  0  0  0  0  0  0  0  0  0
   -4.9865    5.4861   -0.1177 H   0  0  0  0  0  0  0  0  0  0  0  0
   -4.5704    4.4815    2.1126 H   0  0  0  0  0  0  0  0  0  0  0  0
   -3.2993    2.3677    2.3060 H   0  0  0  0  0  0  0  0  0  0  0  0
  1  2  1  0
  2  3  1  0
  3  4  1  0
  4  5  2  0
  4  6  1  0
  6  7  1  0
  8  7  1  1
  8  9  1  0
  9 10  1  0
 10 11  1  0
 11 12  1  0
 12 13  1  0
 13 14  1  0
 14 15  1  0
 14 16  1  0
 12 17  1  0
  3 18  2  0
 18 19  1  0
 19 20  1  0
 20 21  1  0
 21 22  2  0
 22 23  1  0
 23 24  1  0
 24 25  1  1
 24 26  1  0
 26 27  2  0
 27 28  1  0
 28 29  2  0
 19 30  1  0
 30 31  1  0
 31 32  2  0
 32 33  1  0
 33 34  2  0
 34 35  1  0
 35 36  2  0
 30  2  2  0
 36 31  1  0
 16  8  1  0
 24 20  1  0
 17  8  1  0
 28 22  1  0
 15 10  1  0
  1 37  1  0
  1 38  1  0
  1 39  1  0
  6 40  1  0
  7 41  1  0
  7 42  1  0
  9 43  1  0
  9 44  1  0
 10 45  1  6
 11 46  1  0
 11 47  1  0
 12 48  1  1
 13 49  1  0
 13 50  1  0
 14 51  1  6
 15 52  1  0
 15 53  1  0
 16 54  1  0
 16 55  1  0
 17 56  1  0
 17 57  1  0
 20 58  1  6
 21 59  1  0
 23 60  1  0
 23 61  1  0
 25 62  1  0
 25 63  1  0
 25 64  1  0
 26 65  1  0
 27 66  1  0
 32 67  1  0
 33 68  1  0
 34 69  1  0
 35 70  1  0
 36 71  1  0
M  END
>  <_SMILES>  (101) 
Cc1c(C(=O)NC[C@]23C[C@H]4C[C@H](C[C@H](C4)C2)C3)nn([C@H]2C=C3C[C@]2(C)C=CC3=O)c1-c1ccccc1

$$$$

     RDKit          3D

 71 77  0  0  0  0  0  0  0  0999 V2000
   -0.6830   -1.1825    3.2124 C   0  0  0  0  0  0  0  0  0  0  0  0
   -1.1330   -0.2288    2.1628 C   0  0  0  0  0  0  0  0  0  0  0  0
   -0.3758    0.8136    1.5487 C   0  0  0  0  0  0  0  0  0  0  0  0
    1.0452    1.1671    1.7414 C   0  0  0  0  0  0  0  0  0  0  0  0
    1.4529    2.3253    1.7646 O   0  0  0  0  0  0  0  0  0  0  0  0
    1.8907    0.0763    1.8503 N   0  0  0  0  0  0  0  0  0  0  0  0
    3.3300    0.2169    1.9300 C   0  0  0  0  0  0  0  0  0  0  0  0
    4.0555    0.0424    0.5761 C   0  0  2  0  0  0  0  0  0  0  0  0
    3.7807   -1.3555   -0.0372 C   0  0  0  0  0  0  0  0  0  0  0  0
    4.5549   -1.5330   -1.3557 C   0  0  1  0  0  0  0  0  0  0  0  0
    4.1152   -0.4468   -2.3512 C   0  0  0  0  0  0  0  0  0  0  0  0
    4.4083    0.9474   -1.7729 C   0  0  2  0  0  0  0  0  0  0  0  0
    5.9148    1.0770   -1.4997 C   0  0  0  0  0  0  0  0  0  0  0  0
    6.3619   -0.0022   -0.5014 C   0  0  2  0  0  0  0  0  0  0  0  0
    6.0609   -1.3919   -1.0843 C   0  0  0  0  0  0  0  0  0  0  0  0
    5.5845    0.1733    0.8133 C   0  0  0  0  0  0  0  0  0  0  0  0
    3.6337    1.1209   -0.4542 C   0  0  0  0  0  0  0  0  0  0  0  0
   -1.1417    1.5098    0.6971 N   0  0  0  0  0  0  0  0  0  0  0  0
   -2.3533    0.9123    0.7169 N   0  0  0  0  0  0  0  0  0  0  0  0
   -3.3612    1.5104   -0.1597 C   0  0  2  0  0  0  0  0  0  0  0  0
   -4.8149    1.1285    0.0918 C   0  0  0  0  0  0  0  0  0  0  0  0
   -5.2670    0.4273   -0.9758 C   0  0  0  0  0  0  0  0  0  0  0  0
   -4.1061   -0.1044   -1.7772 C   0  0  0  0  0  0  0  0  0  0  0  0
   -3.2497    1.1683   -1.6966 C   0  0  2  0  0  0  0  0  0  0  0  0
   -1.8501    0.9399   -2.2572 C   0  0  0  0  0  0  0  0  0  0  0  0
   -3.9981    2.2454   -2.5482 C   0  0  0  0  0  0  0  0  0  0  0  0
   -5.3487    2.2795   -2.6297 C   0  0  0  0  0  0  0  0  0  0  0  0
   -6.1520    1.3003   -1.8134 C   0  0  0  0  0  0  0  0  0  0  0  0
   -7.3685    1.2458   -1.8243 O   0  0  0  0  0  0  0  0  0  0  0  0
   -2.4031   -0.1434    1.6021 C   0  0  0  0  0  0  0  0  0  0  0  0
   -3.5659   -0.9693    1.9086 C   0  0  0  0  0  0  0  0  0  0  0  0
   -3.7202   -2.2223    1.3050 C   0  0  0  0  0  0  0  0  0  0  0  0
   -4.8202   -3.0230    1.6172 C   0  0  0  0  0  0  0  0  0  0  0  0
   -5.7623   -2.5825    2.5458 C   0  0  0  0  0  0  0  0  0  0  0  0
   -5.6018   -1.3463    3.1700 C   0  0  0  0  0  0  0  0  0  0  0  0
   -4.5025   -0.5445    2.8587 C   0  0  0  0  0  0  0  0  0  0  0  0
   -1.5142   -1.5002    3.8497 H   0  0  0  0  0  0  0  0  0  0  0  0
   -0.2464   -2.0742    2.7517 H   0  0  0  0  0  0  0  0  0  0  0  0
    0.0660   -0.7251    3.8665 H   0  0  0  0  0  0  0  0  0  0  0  0
    1.5078   -0.8400    1.6671 H   0  0  0  0  0  0  0  0  0  0  0  0
    3.5732    1.1924    2.3670 H   0  0  0  0  0  0  0  0  0  0  0  0
    3.6702   -0.5489    2.6369 H   0  0  0  0  0  0  0  0  0  0  0  0
    4.0723   -2.1425    0.6701 H   0  0  0  0  0  0  0  0  0  0  0  0
    2.7091   -1.4872   -0.2322 H   0  0  0  0  0  0  0  0  0  0  0  0
    4.3466   -2.5238   -1.7747 H   0  0  0  0  0  0  0  0  0  0  0  0
    4.6439   -0.5758   -3.3036 H   0  0  0  0  0  0  0  0  0  0  0  0
    3.0441   -0.5463   -2.5659 H   0  0  0  0  0  0  0  0  0  0  0  0
    4.0954    1.7167   -2.4879 H   0  0  0  0  0  0  0  0  0  0  0  0
    6.1392    2.0738   -1.1005 H   0  0  0  0  0  0  0  0  0  0  0  0
    6.4757    0.9758   -2.4369 H   0  0  0  0  0  0  0  0  0  0  0  0
    7.4367    0.0935   -0.3107 H   0  0  0  0  0  0  0  0  0  0  0  0
    6.6245   -1.5382   -2.0139 H   0  0  0  0  0  0  0  0  0  0  0  0
    6.3908   -2.1711   -0.3862 H   0  0  0  0  0  0  0  0  0  0  0  0
    5.9199   -0.5785    1.5396 H   0  0  0  0  0  0  0  0  0  0  0  0
    5.8164    1.1545    1.2478 H   0  0  0  0  0  0  0  0  0  0  0  0
    2.5596    1.0544   -0.6652 H   0  0  0  0  0  0  0  0  0  0  0  0
    3.8172    2.1239   -0.0483 H   0  0  0  0  0  0  0  0  0  0  0  0
   -3.2640    2.5965   -0.0170 H   0  0  0  0  0  0  0  0  0  0  0  0
   -5.4380    1.8179    0.6541 H   0  0  0  0  0  0  0  0  0  0  0  0
   -4.3798   -0.3788   -2.8029 H   0  0  0  0  0  0  0  0  0  0  0  0
   -3.6454   -0.9758   -1.3032 H   0  0  0  0  0  0  0  0  0  0  0  0
   -1.8879    0.7071   -3.3281 H   0  0  0  0  0  0  0  0  0  0  0  0
   -1.3482    0.0993   -1.7664 H   0  0  0  0  0  0  0  0  0  0  0  0
   -1.2248    1.8313   -2.1367 H   0  0  0  0  0  0  0  0  0  0  0  0
   -3.4039    2.9845   -3.0803 H   0  0  0  0  0  0  0  0  0  0  0  0
   -5.9008    3.0027   -3.2157 H   0  0  0  0  0  0  0  0  0  0  0  0
   -2.9868   -2.5814    0.5876 H   0  0  0  0  0  0  0  0  0  0  0  0
   -4.9427   -3.9906    1.1377 H   0  0  0  0  0  0  0  0  0  0  0  0
   -6.6207   -3.2047    2.7866 H   0  0  0  0  0  0  0  0  0  0  0  0
   -6.3327   -1.0066    3.8993 H   0  0  0  0  0  0  0  0  0  0  0  0
   -4.3825    0.4140    3.3584 H   0  0  0  0  0  0  0  0  0  0  0  0
  1  2  1  0
  2  3  1  0
  3  4  1  0
  4  5  2  0
  4  6  1  0
  6  7  1  0
  8  7  1  1
  8  9  1  0
  9 10  1  0
 10 11  1  0
 11 12  1  0
 12 13  1  0
 13 14  1  0
 14 15  1  0
 14 16  1  0
 12 17  1  0
  3 18  2  0
 18 19  1  0
 19 20  1  0
 20 21  1  0
 21 22  2  0
 22 23  1  0
 23 24  1  0
 24 25  1  6
 24 26  1  0
 26 27  2  0
 27 28  1  0
 28 29  2  0
 19 30  1  0
 30 31  1  0
 31 32  2  0
 32 33  1  0
 33 34  2  0
 34 35  1  0
 35 36  2  0
 30  2  2  0
 36 31  1  0
 16  8  1  0
 24 20  1  0
 17  8  1  0
 28 22  1  0
 15 10  1  0
  1 37  1  0
  1 38  1  0
  1 39  1  0
  6 40  1  0
  7 41  1  0
  7 42  1  0
  9 43  1  0
  9 44  1  0
 10 45  1  6
 11 46  1  0
 11 47  1  0
 12 48  1  6
 13 49  1  0
 13 50  1  0
 14 51  1  1
 15 52  1  0
 15 53  1  0
 16 54  1  0
 16 55  1  0
 17 56  1  0
 17 57  1  0
 20 58  1  6
 21 59  1  0
 23 60  1  0
 23 61  1  0
 25 62  1  0
 25 63  1  0
 25 64  1  0
 26 65  1  0
 27 66  1  0
 32 67  1  0
 33 68  1  0
 34 69  1  0
 35 70  1  0
 36 71  1  0
M  END
>  <_SMILES>  (102) 
Cc1c(C(=O)NC[C@]23C[C@H]4C[C@H](C[C@H](C4)C2)C3)nn([C@@H]2C=C3C[C@@]2(C)C=CC3=O)c1-c1ccccc1

$$$$

     RDKit          3D

 71 77  0  0  0  0  0  0  0  0999 V2000
   -0.8198    2.8142   -0.8609 C   0  0  0  0  0  0  0  0  0  0  0  0
   -1.1975    1.4211   -0.4992 C   0  0  0  0  0  0  0  0  0  0  0  0
   -0.5265    0.2172   -0.8611 C   0  0  0  0  0  0  0  0  0  0  0  0
    0.7159    0.0463   -1.6395 C   0  0  0  0  0  0  0  0  0  0  0  0
    0.8651   -0.8381   -2.4784 O   0  0  0  0  0  0  0  0  0  0  0  0
    1.7130    0.9512   -1.3195 N   0  0  0  0  0  0  0  0  0  0  0  0
    3.0360    0.8866   -1.9050 C   0  0  0  0  0  0  0  0  0  0  0  0
    4.0800    0.1593   -1.0274 C   0  0  2  0  0  0  0  0  0  0  0  0
    4.2406    0.8506    0.3517 C   0  0  0  0  0  0  0  0  0  0  0  0
    5.3235    0.1477    1.1899 C   0  0  1  0  0  0  0  0  0  0  0  0
    4.9248   -1.3220    1.4023 C   0  0  0  0  0  0  0  0  0  0  0  0
    4.7905   -2.0327    0.0454 C   0  0  2  0  0  0  0  0  0  0  0  0
    6.1335   -1.9646   -0.6981 C   0  0  0  0  0  0  0  0  0  0  0  0
    6.5373   -0.4986   -0.9190 C   0  0  2  0  0  0  0  0  0  0  0  0
    6.6642    0.2059    0.4409 C   0  0  0  0  0  0  0  0  0  0  0  0
    5.4527    0.2035   -1.7522 C   0  0  0  0  0  0  0  0  0  0  0  0
    3.7080   -1.3265   -0.7905 C   0  0  0  0  0  0  0  0  0  0  0  0
   -1.1782   -0.8466   -0.3739 N   0  0  0  0  0  0  0  0  0  0  0  0
   -2.2655   -0.3574    0.2657 N   0  0  0  0  0  0  0  0  0  0  0  0
   -3.1470   -1.3811    0.8392 C   0  0  1  0  0  0  0  0  0  0  0  0
   -4.2013   -1.0095    1.8726 C   0  0  0  0  0  0  0  0  0  0  0  0
   -5.3079   -1.7510    1.6242 C   0  0  0  0  0  0  0  0  0  0  0  0
   -4.9611   -2.9120    0.7281 C   0  0  0  0  0  0  0  0  0  0  0  0
   -4.0522   -2.1153   -0.2248 C   0  0  2  0  0  0  0  0  0  0  0  0
   -3.3048   -3.0515   -1.1698 C   0  0  0  0  0  0  0  0  0  0  0  0
   -4.9952   -1.1555   -1.0084 C   0  0  0  0  0  0  0  0  0  0  0  0
   -6.1048   -0.6268   -0.4410 C   0  0  0  0  0  0  0  0  0  0  0  0
   -6.3789   -0.8976    1.0159 C   0  0  0  0  0  0  0  0  0  0  0  0
   -7.3488   -0.4707    1.6157 O   0  0  0  0  0  0  0  0  0  0  0  0
   -2.2938    1.0211    0.2590 C   0  0  0  0  0  0  0  0  0  0  0  0
   -3.2706    1.8856    0.9074 C   0  0  0  0  0  0  0  0  0  0  0  0
   -3.0331    2.3590    2.2043 C   0  0  0  0  0  0  0  0  0  0  0  0
   -3.9555    3.2032    2.8244 C   0  0  0  0  0  0  0  0  0  0  0  0
   -5.1100    3.5911    2.1462 C   0  0  0  0  0  0  0  0  0  0  0  0
   -5.3366    3.1485    0.8437 C   0  0  0  0  0  0  0  0  0  0  0  0
   -4.4134    2.3070    0.2212 C   0  0  0  0  0  0  0  0  0  0  0  0
   -0.3353    2.8495   -1.8417 H   0  0  0  0  0  0  0  0  0  0  0  0
   -0.1307    3.2251   -0.1165 H   0  0  0  0  0  0  0  0  0  0  0  0
   -1.6960    3.4680   -0.9125 H   0  0  0  0  0  0  0  0  0  0  0  0
    1.5717    1.5444   -0.5141 H   0  0  0  0  0  0  0  0  0  0  0  0
    2.9709    0.4092   -2.8897 H   0  0  0  0  0  0  0  0  0  0  0  0
    3.3453    1.9256   -2.0685 H   0  0  0  0  0  0  0  0  0  0  0  0
    4.5072    1.9067    0.2163 H   0  0  0  0  0  0  0  0  0  0  0  0
    3.2933    0.8324    0.9048 H   0  0  0  0  0  0  0  0  0  0  0  0
    5.4208    0.6478    2.1600 H   0  0  0  0  0  0  0  0  0  0  0  0
    3.9764   -1.3778    1.9505 H   0  0  0  0  0  0  0  0  0  0  0  0
    5.6782   -1.8291    2.0175 H   0  0  0  0  0  0  0  0  0  0  0  0
    4.5090   -3.0798    0.2036 H   0  0  0  0  0  0  0  0  0  0  0  0
    6.0551   -2.4818   -1.6622 H   0  0  0  0  0  0  0  0  0  0  0  0
    6.9083   -2.4836   -0.1205 H   0  0  0  0  0  0  0  0  0  0  0  0
    7.4957   -0.4551   -1.4483 H   0  0  0  0  0  0  0  0  0  0  0  0
    6.9678    1.2499    0.2959 H   0  0  0  0  0  0  0  0  0  0  0  0
    7.4487   -0.2735    1.0393 H   0  0  0  0  0  0  0  0  0  0  0  0
    5.7494    1.2444   -1.9361 H   0  0  0  0  0  0  0  0  0  0  0  0
    5.3761   -0.2793   -2.7352 H   0  0  0  0  0  0  0  0  0  0  0  0
    2.7490   -1.4053   -0.2644 H   0  0  0  0  0  0  0  0  0  0  0  0
    3.5880   -1.8441   -1.7507 H   0  0  0  0  0  0  0  0  0  0  0  0
   -2.4661   -2.0961    1.3265 H   0  0  0  0  0  0  0  0  0  0  0  0
   -4.2543   -0.0329    2.3294 H   0  0  0  0  0  0  0  0  0  0  0  0
   -5.8326   -3.3565    0.2332 H   0  0  0  0  0  0  0  0  0  0  0  0
   -4.4361   -3.7003    1.2808 H   0  0  0  0  0  0  0  0  0  0  0  0
   -2.6338   -3.7186   -0.6177 H   0  0  0  0  0  0  0  0  0  0  0  0
   -2.7048   -2.4966   -1.8984 H   0  0  0  0  0  0  0  0  0  0  0  0
   -4.0031   -3.6794   -1.7354 H   0  0  0  0  0  0  0  0  0  0  0  0
   -4.7431   -0.9169   -2.0388 H   0  0  0  0  0  0  0  0  0  0  0  0
   -6.7921    0.0311   -0.9563 H   0  0  0  0  0  0  0  0  0  0  0  0
   -2.1339    2.0654    2.7409 H   0  0  0  0  0  0  0  0  0  0  0  0
   -3.7757    3.5568    3.8364 H   0  0  0  0  0  0  0  0  0  0  0  0
   -5.8328    4.2428    2.6310 H   0  0  0  0  0  0  0  0  0  0  0  0
   -6.2331    3.4597    0.3135 H   0  0  0  0  0  0  0  0  0  0  0  0
   -4.5901    1.9860   -0.8020 H   0  0  0  0  0  0  0  0  0  0  0  0
  1  2  1  0
  2  3  1  0
  3  4  1  0
  4  5  2  0
  4  6  1  0
  6  7  1  0
  8  7  1  6
  8  9  1  0
  9 10  1  0
 10 11  1  0
 11 12  1  0
 12 13  1  0
 13 14  1  0
 14 15  1  0
 14 16  1  0
 12 17  1  0
  3 18  2  0
 18 19  1  0
 19 20  1  0
 20 21  1  0
 21 22  2  0
 22 23  1  0
 23 24  1  0
 24 25  1  6
 24 26  1  0
 26 27  2  0
 27 28  1  0
 28 29  2  0
 19 30  1  0
 30 31  1  0
 31 32  2  0
 32 33  1  0
 33 34  2  0
 34 35  1  0
 35 36  2  0
 30  2  2  0
 36 31  1  0
 16  8  1  0
 24 20  1  0
 17  8  1  0
 28 22  1  0
 15 10  1  0
  1 37  1  0
  1 38  1  0
  1 39  1  0
  6 40  1  0
  7 41  1  0
  7 42  1  0
  9 43  1  0
  9 44  1  0
 10 45  1  1
 11 46  1  0
 11 47  1  0
 12 48  1  1
 13 49  1  0
 13 50  1  0
 14 51  1  6
 15 52  1  0
 15 53  1  0
 16 54  1  0
 16 55  1  0
 17 56  1  0
 17 57  1  0
 20 58  1  1
 21 59  1  0
 23 60  1  0
 23 61  1  0
 25 62  1  0
 25 63  1  0
 25 64  1  0
 26 65  1  0
 27 66  1  0
 32 67  1  0
 33 68  1  0
 34 69  1  0
 35 70  1  0
 36 71  1  0
M  END
>  <_SMILES>  (103) 
Cc1c(C(=O)NC[C@]23C[C@H]4C[C@H](C[C@H](C4)C2)C3)nn([C@H]2C=C3C[C@@]2(C)C=CC3=O)c1-c1ccccc1

$$$$

     RDKit          3D

 43 45  0  0  0  0  0  0  0  0999 V2000
   -1.9573    2.7221    1.6136 C   0  0  0  0  0  0  0  0  0  0  0  0
   -2.1274    1.3226    2.2256 C   0  0  0  0  0  0  0  0  0  0  0  0
   -3.5975    0.9030    2.0827 C   0  0  0  0  0  0  0  0  0  0  0  0
   -1.6986    1.3790    3.6977 C   0  0  0  0  0  0  0  0  0  0  0  0
   -1.2434    0.4773    1.4609 O   0  0  0  0  0  0  0  0  0  0  0  0
   -1.3096   -0.8719    1.6720 C   0  0  0  0  0  0  0  0  0  0  0  0
   -0.9406   -1.7483    0.7360 C   0  0  0  0  0  0  0  0  0  0  0  0
   -0.4312   -1.5080   -0.5579 N   0  0  0  0  0  0  0  0  0  0  0  0
    0.0604   -2.7366   -0.9664 N   0  0  0  0  0  0  0  0  0  0  0  0
    0.7957   -3.2403   -1.9893 C   0  0  0  0  0  0  0  0  0  0  0  0
    1.3846   -2.5008   -3.0785 C   0  0  0  0  0  0  0  0  0  0  0  0
    2.3629   -2.8805   -3.7177 O   0  0  0  0  0  0  0  0  0  0  0  0
    0.7913   -1.2747   -3.3399 N   0  0  0  0  0  0  0  0  0  0  0  0
    1.6039   -0.1780   -3.8233 C   0  0  0  0  0  0  0  0  0  0  0  0
    2.1077    0.6667   -2.6617 C   0  0  0  0  0  0  0  0  0  0  0  0
    3.1718    1.5423   -2.8675 C   0  0  0  0  0  0  0  0  0  0  0  0
    3.5929    2.3485   -1.8141 C   0  0  0  0  0  0  0  0  0  0  0  0
    2.9382    2.2726   -0.5913 C   0  0  0  0  0  0  0  0  0  0  0  0
    1.8840    1.3846   -0.4660 C   0  0  0  0  0  0  0  0  0  0  0  0
    1.4521    0.5742   -1.4632 N   0  0  0  0  0  0  0  0  0  0  0  0
    0.9518   -4.5424   -1.7534 N   0  0  0  0  0  0  0  0  0  0  0  0
    0.2972   -4.8720   -0.5562 N   0  0  0  0  0  0  0  0  0  0  0  0
   -0.2059   -3.7520   -0.1160 C   0  0  0  0  0  0  0  0  0  0  0  0
   -0.8987   -3.2571    1.0271 C   0  0  0  0  0  0  0  0  0  0  0  0
   -1.3276   -3.8185    2.0203 O   0  0  0  0  0  0  0  0  0  0  0  0
   -2.5803    3.4668    2.1200 H   0  0  0  0  0  0  0  0  0  0  0  0
   -2.2206    2.7160    0.5494 H   0  0  0  0  0  0  0  0  0  0  0  0
   -0.9121    3.0483    1.6708 H   0  0  0  0  0  0  0  0  0  0  0  0
   -4.2677    1.6325    2.5500 H   0  0  0  0  0  0  0  0  0  0  0  0
   -3.8735    0.8031    1.0268 H   0  0  0  0  0  0  0  0  0  0  0  0
   -3.7880   -0.0681    2.5522 H   0  0  0  0  0  0  0  0  0  0  0  0
   -0.6311    1.6117    3.7833 H   0  0  0  0  0  0  0  0  0  0  0  0
   -1.8519    0.4194    4.2019 H   0  0  0  0  0  0  0  0  0  0  0  0
   -2.2656    2.1360    4.2501 H   0  0  0  0  0  0  0  0  0  0  0  0
   -1.6423   -1.1815    2.6533 H   0  0  0  0  0  0  0  0  0  0  0  0
    0.2545   -0.7419   -0.5649 H   0  0  0  0  0  0  0  0  0  0  0  0
    0.0317   -0.9745   -2.7415 H   0  0  0  0  0  0  0  0  0  0  0  0
    0.9672    0.4436   -4.4608 H   0  0  0  0  0  0  0  0  0  0  0  0
    2.4459   -0.5553   -4.4123 H   0  0  0  0  0  0  0  0  0  0  0  0
    3.6703    1.5997   -3.8306 H   0  0  0  0  0  0  0  0  0  0  0  0
    4.4243    3.0353   -1.9489 H   0  0  0  0  0  0  0  0  0  0  0  0
    3.2417    2.8937    0.2444 H   0  0  0  0  0  0  0  0  0  0  0  0
    1.3407    1.3035    0.4726 H   0  0  0  0  0  0  0  0  0  0  0  0
  1  2  1  0
  2  3  1  0
  2  4  1  0
  2  5  1  0
  5  6  1  0
  6  7  2  0
  7  8  1  0
  8  9  1  0
  9 10  1  0
 10 11  1  0
 11 12  2  0
 11 13  1  0
 13 14  1  0
 14 15  1  0
 15 16  2  0
 16 17  1  0
 17 18  2  0
 18 19  1  0
 19 20  2  0
 10 21  2  0
 21 22  1  0
 22 23  2  0
 23 24  1  0
 24 25  2  0
 24  7  1  0
 23  9  1  0
 20 15  1  0
  1 26  1  0
  1 27  1  0
  1 28  1  0
  3 29  1  0
  3 30  1  0
  3 31  1  0
  4 32  1  0
  4 33  1  0
  4 34  1  0
  6 35  1  0
  8 36  1  0
 13 37  1  0
 14 38  1  0
 14 39  1  0
 16 40  1  0
 17 41  1  0
 18 42  1  0
 19 43  1  0
M  END
>  <_SMILES>  (104) 
CC(C)(C)O/C=c1\[nH]n2c(C(=O)NCc3ccccn3)nnc2c1=O

$$$$

     RDKit          3D

 43 45  0  0  0  0  0  0  0  0999 V2000
   -5.0811    1.7397    0.8260 C   0  0  0  0  0  0  0  0  0  0  0  0
   -3.7516    1.7945    0.0579 C   0  0  0  0  0  0  0  0  0  0  0  0
   -4.0252    1.4650   -1.4169 C   0  0  0  0  0  0  0  0  0  0  0  0
   -3.1527    3.1982    0.2152 C   0  0  0  0  0  0  0  0  0  0  0  0
   -2.9157    0.8053    0.6906 O   0  0  0  0  0  0  0  0  0  0  0  0
   -1.7389    0.4769    0.0889 C   0  0  0  0  0  0  0  0  0  0  0  0
   -1.2148   -0.7525    0.1009 C   0  0  0  0  0  0  0  0  0  0  0  0
    0.0373   -1.1483   -0.4329 N   0  0  0  0  0  0  0  0  0  0  0  0
    0.1907   -2.4621   -0.0072 N   0  0  0  0  0  0  0  0  0  0  0  0
    1.1556   -3.4159   -0.0292 C   0  0  0  0  0  0  0  0  0  0  0  0
    2.4937   -3.2773   -0.5488 C   0  0  0  0  0  0  0  0  0  0  0  0
    3.4450   -3.9717   -0.1990 O   0  0  0  0  0  0  0  0  0  0  0  0
    2.6611   -2.2405   -1.4578 N   0  0  0  0  0  0  0  0  0  0  0  0
    3.9133   -1.5150   -1.4679 C   0  0  0  0  0  0  0  0  0  0  0  0
    3.8943   -0.3887   -0.4424 C   0  0  0  0  0  0  0  0  0  0  0  0
    5.1054    0.1512   -0.0122 C   0  0  0  0  0  0  0  0  0  0  0  0
    5.0889    1.1973    0.9048 C   0  0  0  0  0  0  0  0  0  0  0  0
    3.8718    1.6837    1.3629 C   0  0  0  0  0  0  0  0  0  0  0  0
    2.7105    1.1032    0.8821 C   0  0  0  0  0  0  0  0  0  0  0  0
    2.6811    0.0825   -0.0109 N   0  0  0  0  0  0  0  0  0  0  0  0
    0.6672   -4.4791    0.6070 N   0  0  0  0  0  0  0  0  0  0  0  0
   -0.6378   -4.1921    1.0373 N   0  0  0  0  0  0  0  0  0  0  0  0
   -0.8679   -2.9644    0.6597 C   0  0  0  0  0  0  0  0  0  0  0  0
   -1.8859   -1.9731    0.7783 C   0  0  0  0  0  0  0  0  0  0  0  0
   -2.9920   -2.0381    1.2831 O   0  0  0  0  0  0  0  0  0  0  0  0
   -4.9247    1.9454    1.8914 H   0  0  0  0  0  0  0  0  0  0  0  0
   -5.5236    0.7384    0.7664 H   0  0  0  0  0  0  0  0  0  0  0  0
   -5.8063    2.4622    0.4372 H   0  0  0  0  0  0  0  0  0  0  0  0
   -4.3924    0.4382   -1.5255 H   0  0  0  0  0  0  0  0  0  0  0  0
   -4.7667    2.1468   -1.8471 H   0  0  0  0  0  0  0  0  0  0  0  0
   -3.1155    1.5413   -2.0224 H   0  0  0  0  0  0  0  0  0  0  0  0
   -2.8958    3.3968    1.2618 H   0  0  0  0  0  0  0  0  0  0  0  0
   -3.8506    3.9709   -0.1251 H   0  0  0  0  0  0  0  0  0  0  0  0
   -2.2289    3.3110   -0.3616 H   0  0  0  0  0  0  0  0  0  0  0  0
   -1.2309    1.3052   -0.3828 H   0  0  0  0  0  0  0  0  0  0  0  0
    0.8010   -0.5404   -0.1063 H   0  0  0  0  0  0  0  0  0  0  0  0
    1.8585   -1.6625   -1.6703 H   0  0  0  0  0  0  0  0  0  0  0  0
    4.7455   -2.1981   -1.2689 H   0  0  0  0  0  0  0  0  0  0  0  0
    4.0341   -1.0822   -2.4661 H   0  0  0  0  0  0  0  0  0  0  0  0
    6.0518   -0.2382   -0.3759 H   0  0  0  0  0  0  0  0  0  0  0  0
    6.0210    1.6281    1.2612 H   0  0  0  0  0  0  0  0  0  0  0  0
    3.8301    2.4967    2.0798 H   0  0  0  0  0  0  0  0  0  0  0  0
    1.7410    1.4615    1.2190 H   0  0  0  0  0  0  0  0  0  0  0  0
  1  2  1  0
  2  3  1  0
  2  4  1  0
  2  5  1  0
  5  6  1  0
  6  7  2  0
  7  8  1  0
  8  9  1  0
  9 10  1  0
 10 11  1  0
 11 12  2  0
 11 13  1  0
 13 14  1  0
 14 15  1  0
 15 16  2  0
 16 17  1  0
 17 18  2  0
 18 19  1  0
 19 20  2  0
 10 21  2  0
 21 22  1  0
 22 23  2  0
 23 24  1  0
 24 25  2  0
 24  7  1  0
 23  9  1  0
 20 15  1  0
  1 26  1  0
  1 27  1  0
  1 28  1  0
  3 29  1  0
  3 30  1  0
  3 31  1  0
  4 32  1  0
  4 33  1  0
  4 34  1  0
  6 35  1  0
  8 36  1  0
 13 37  1  0
 14 38  1  0
 14 39  1  0
 16 40  1  0
 17 41  1  0
 18 42  1  0
 19 43  1  0
M  END
>  <_SMILES>  (105) 
CC(C)(C)O/C=c1/[nH]n2c(C(=O)NCc3ccccn3)nnc2c1=O

$$$$

     RDKit          3D

 56 60  0  0  0  0  0  0  0  0999 V2000
    0.3608   -0.7394    2.9803 O   0  0  0  0  0  0  0  0  0  0  0  0
    1.0249   -0.0213    2.2393 C   0  0  0  0  0  0  0  0  0  0  0  0
    0.4803    0.8989    1.3701 N   0  0  0  0  0  0  0  0  0  0  0  0
   -0.9412    1.0466    1.1634 C   0  0  0  0  0  0  0  0  0  0  0  0
   -1.4606    0.0280    0.1463 C   0  0  0  0  0  0  0  0  0  0  0  0
   -2.9742    0.1017   -0.1694 C   0  0  2  0  0  0  0  0  0  0  0  0
   -3.3111   -0.9935   -1.2196 C   0  0  0  0  0  0  0  0  0  0  0  0
   -4.8058   -0.9740   -1.5769 C   0  0  1  0  0  0  0  0  0  0  0  0
   -5.6309   -1.2280   -0.3059 C   0  0  0  0  0  0  0  0  0  0  0  0
   -5.3376   -0.1380    0.7365 C   0  0  2  0  0  0  0  0  0  0  0  0
   -5.6995    1.2360    0.1486 C   0  0  0  0  0  0  0  0  0  0  0  0
   -4.8723    1.5001   -1.1205 C   0  0  2  0  0  0  0  0  0  0  0  0
   -5.1677    0.4029   -2.1548 C   0  0  0  0  0  0  0  0  0  0  0  0
   -3.3749    1.4762   -0.7628 C   0  0  0  0  0  0  0  0  0  0  0  0
   -3.8392   -0.1584    1.0903 C   0  0  0  0  0  0  0  0  0  0  0  0
    2.4951   -0.0661    2.1844 C   0  0  0  0  0  0  0  0  0  0  0  0
    3.3523   -0.8881    2.9599 C   0  0  0  0  0  0  0  0  0  0  0  0
    4.6262   -0.5764    2.5529 C   0  0  0  0  0  0  0  0  0  0  0  0
    4.4901    0.3700    1.5776 N   0  0  0  0  0  0  0  0  0  0  0  0
    5.5699    1.0356    0.8584 C   0  0  0  0  0  0  0  0  0  0  0  0
    6.1866    0.1379   -0.1852 C   0  0  0  0  0  0  0  0  0  0  0  0
    5.4536   -0.2436   -1.3196 C   0  0  0  0  0  0  0  0  0  0  0  0
    6.0236   -1.0727   -2.2864 C   0  0  0  0  0  0  0  0  0  0  0  0
    7.3314   -1.5275   -2.1320 C   0  0  0  0  0  0  0  0  0  0  0  0
    8.0705   -1.1546   -1.0110 C   0  0  0  0  0  0  0  0  0  0  0  0
    7.5026   -0.3258   -0.0416 C   0  0  0  0  0  0  0  0  0  0  0  0
    3.2049    0.7152    1.3406 N   0  0  0  0  0  0  0  0  0  0  0  0
    1.1498    1.3719    0.7684 H   0  0  0  0  0  0  0  0  0  0  0  0
   -1.0981    2.0706    0.8137 H   0  0  0  0  0  0  0  0  0  0  0  0
   -1.4418    0.9277    2.1289 H   0  0  0  0  0  0  0  0  0  0  0  0
   -0.8936    0.1511   -0.7869 H   0  0  0  0  0  0  0  0  0  0  0  0
   -1.2210   -0.9823    0.5052 H   0  0  0  0  0  0  0  0  0  0  0  0
   -3.0411   -1.9844   -0.8317 H   0  0  0  0  0  0  0  0  0  0  0  0
   -2.7160   -0.8400   -2.1293 H   0  0  0  0  0  0  0  0  0  0  0  0
   -5.0190   -1.7530   -2.3175 H   0  0  0  0  0  0  0  0  0  0  0  0
   -6.7006   -1.2359   -0.5491 H   0  0  0  0  0  0  0  0  0  0  0  0
   -5.3910   -2.2157    0.1064 H   0  0  0  0  0  0  0  0  0  0  0  0
   -5.9315   -0.3212    1.6390 H   0  0  0  0  0  0  0  0  0  0  0  0
   -6.7700    1.2719   -0.0880 H   0  0  0  0  0  0  0  0  0  0  0  0
   -5.5111    2.0225    0.8896 H   0  0  0  0  0  0  0  0  0  0  0  0
   -5.1362    2.4792   -1.5358 H   0  0  0  0  0  0  0  0  0  0  0  0
   -6.2287    0.4255   -2.4325 H   0  0  0  0  0  0  0  0  0  0  0  0
   -4.5947    0.5877   -3.0717 H   0  0  0  0  0  0  0  0  0  0  0  0
   -3.1718    2.2813   -0.0468 H   0  0  0  0  0  0  0  0  0  0  0  0
   -2.7777    1.6899   -1.6584 H   0  0  0  0  0  0  0  0  0  0  0  0
   -3.6484    0.6033    1.8554 H   0  0  0  0  0  0  0  0  0  0  0  0
   -3.5777   -1.1271    1.5350 H   0  0  0  0  0  0  0  0  0  0  0  0
    3.0592   -1.6078    3.7120 H   0  0  0  0  0  0  0  0  0  0  0  0
    5.5943   -0.9484    2.8582 H   0  0  0  0  0  0  0  0  0  0  0  0
    5.1682    1.9427    0.3920 H   0  0  0  0  0  0  0  0  0  0  0  0
    6.3054    1.3491    1.6083 H   0  0  0  0  0  0  0  0  0  0  0  0
    4.4282    0.0990   -1.4515 H   0  0  0  0  0  0  0  0  0  0  0  0
    5.4452   -1.3660   -3.1589 H   0  0  0  0  0  0  0  0  0  0  0  0
    7.7740   -2.1745   -2.8850 H   0  0  0  0  0  0  0  0  0  0  0  0
    9.0905   -1.5113   -0.8917 H   0  0  0  0  0  0  0  0  0  0  0  0
    8.0975   -0.0478    0.8258 H   0  0  0  0  0  0  0  0  0  0  0  0
  1  2  2  0
  2  3  1  0
  3  4  1  0
  4  5  1  0
  6  5  1  1
  6  7  1  0
  7  8  1  0
  8  9  1  0
  9 10  1  0
 10 11  1  0
 11 12  1  0
 12 13  1  0
 12 14  1  0
 10 15  1  0
  2 16  1  0
 16 17  1  0
 17 18  2  0
 18 19  1  0
 19 20  1  0
 20 21  1  0
 21 22  2  0
 22 23  1  0
 23 24  2  0
 24 25  1  0
 25 26  2  0
 19 27  1  0
 14  6  1  0
 27 16  2  0
 15  6  1  0
 26 21  1  0
 13  8  1  0
  3 28  1  0
  4 29  1  0
  4 30  1  0
  5 31  1  0
  5 32  1  0
  7 33  1  0
  7 34  1  0
  8 35  1  6
  9 36  1  0
  9 37  1  0
 10 38  1  1
 11 39  1  0
 11 40  1  0
 12 41  1  6
 13 42  1  0
 13 43  1  0
 14 44  1  0
 14 45  1  0
 15 46  1  0
 15 47  1  0
 17 48  1  0
 18 49  1  0
 20 50  1  0
 20 51  1  0
 22 52  1  0
 23 53  1  0
 24 54  1  0
 25 55  1  0
 26 56  1  0
M  END
>  <_SMILES>  (106) 
O=C(NCC[C@]12C[C@H]3C[C@H](C[C@H](C3)C1)C2)c1ccn(Cc2ccccc2)n1

$$$$

     RDKit          3D

 52 56  0  0  0  0  0  0  0  0999 V2000
    1.5410   -1.3414   -0.1596 O   0  0  0  0  0  0  0  0  0  0  0  0
    1.7637   -0.3545    0.5393 C   0  0  0  0  0  0  0  0  0  0  0  0
    0.7746    0.2441    1.3036 N   0  0  0  0  0  0  0  0  0  0  0  0
   -0.6056   -0.1884    1.2798 C   0  0  0  0  0  0  0  0  0  0  0  0
   -1.3624    0.4417    0.1083 C   0  0  0  0  0  0  0  0  0  0  0  0
   -2.8581    0.0613   -0.0109 C   0  0  2  0  0  0  0  0  0  0  0  0
   -3.0503   -1.4620   -0.2240 C   0  0  0  0  0  0  0  0  0  0  0  0
   -4.5413   -1.8044   -0.3985 C   0  0  1  0  0  0  0  0  0  0  0  0
   -5.3107   -1.3679    0.8593 C   0  0  0  0  0  0  0  0  0  0  0  0
   -5.1569    0.1474    1.0714 C   0  0  2  0  0  0  0  0  0  0  0  0
   -5.7109    0.8890   -0.1550 C   0  0  0  0  0  0  0  0  0  0  0  0
   -4.9454    0.4614   -1.4167 C   0  0  2  0  0  0  0  0  0  0  0  0
   -5.0980   -1.0541   -1.6183 C   0  0  0  0  0  0  0  0  0  0  0  0
   -3.4563    0.7989   -1.2413 C   0  0  0  0  0  0  0  0  0  0  0  0
   -3.6646    0.4855    1.2428 C   0  0  0  0  0  0  0  0  0  0  0  0
    3.0567    0.3070    0.6508 C   0  0  0  0  0  0  0  0  0  0  0  0
    3.3122    1.3832    1.3806 N   0  0  0  0  0  0  0  0  0  0  0  0
    4.6474    1.6120    1.1513 C   0  0  0  0  0  0  0  0  0  0  0  0
    5.1620    0.6682    0.2873 C   0  0  0  0  0  0  0  0  0  0  0  0
    6.4636    0.3969   -0.3084 C   0  0  0  0  0  0  0  0  0  0  0  0
    6.6530   -0.6861   -1.1807 C   0  0  0  0  0  0  0  0  0  0  0  0
    7.9043   -0.9412   -1.7491 C   0  0  0  0  0  0  0  0  0  0  0  0
    8.9859   -0.1161   -1.4531 C   0  0  0  0  0  0  0  0  0  0  0  0
    8.8172    0.9633   -0.5897 C   0  0  0  0  0  0  0  0  0  0  0  0
    7.5650    1.2179   -0.0214 C   0  0  0  0  0  0  0  0  0  0  0  0
    4.1341   -0.1783   -0.0395 O   0  0  0  0  0  0  0  0  0  0  0  0
    1.0347    1.0929    1.7977 H   0  0  0  0  0  0  0  0  0  0  0  0
   -1.0392    0.1118    2.2377 H   0  0  0  0  0  0  0  0  0  0  0  0
   -0.6225   -1.2804    1.2182 H   0  0  0  0  0  0  0  0  0  0  0  0
   -1.2758    1.5342    0.1884 H   0  0  0  0  0  0  0  0  0  0  0  0
   -0.8518    0.1736   -0.8267 H   0  0  0  0  0  0  0  0  0  0  0  0
   -2.6581   -2.0254    0.6309 H   0  0  0  0  0  0  0  0  0  0  0  0
   -2.4892   -1.7940   -1.1068 H   0  0  0  0  0  0  0  0  0  0  0  0
   -4.6565   -2.8841   -0.5453 H   0  0  0  0  0  0  0  0  0  0  0  0
   -6.3720   -1.6259    0.7575 H   0  0  0  0  0  0  0  0  0  0  0  0
   -4.9345   -1.9094    1.7360 H   0  0  0  0  0  0  0  0  0  0  0  0
   -5.7089    0.4524    1.9675 H   0  0  0  0  0  0  0  0  0  0  0  0
   -6.7795    0.6714   -0.2734 H   0  0  0  0  0  0  0  0  0  0  0  0
   -5.6208    1.9726   -0.0103 H   0  0  0  0  0  0  0  0  0  0  0  0
   -5.3445    0.9920   -2.2884 H   0  0  0  0  0  0  0  0  0  0  0  0
   -4.5674   -1.3676   -2.5257 H   0  0  0  0  0  0  0  0  0  0  0  0
   -6.1552   -1.3080   -1.7641 H   0  0  0  0  0  0  0  0  0  0  0  0
   -3.3390    1.8842   -1.1245 H   0  0  0  0  0  0  0  0  0  0  0  0
   -2.9089    0.5205   -2.1513 H   0  0  0  0  0  0  0  0  0  0  0  0
   -3.2886   -0.0263    2.1366 H   0  0  0  0  0  0  0  0  0  0  0  0
   -3.5478    1.5621    1.4209 H   0  0  0  0  0  0  0  0  0  0  0  0
    5.1637    2.4394    1.6176 H   0  0  0  0  0  0  0  0  0  0  0  0
    5.8242   -1.3469   -1.4290 H   0  0  0  0  0  0  0  0  0  0  0  0
    8.0306   -1.7852   -2.4225 H   0  0  0  0  0  0  0  0  0  0  0  0
    9.9589   -0.3145   -1.8951 H   0  0  0  0  0  0  0  0  0  0  0  0
    9.6605    1.6088   -0.3573 H   0  0  0  0  0  0  0  0  0  0  0  0
    7.4672    2.0684    0.6485 H   0  0  0  0  0  0  0  0  0  0  0  0
  1  2  2  0
  2  3  1  0
  3  4  1  0
  4  5  1  0
  6  5  1  1
  6  7  1  0
  7  8  1  0
  8  9  1  0
  9 10  1  0
 10 11  1  0
 11 12  1  0
 12 13  1  0
 12 14  1  0
 10 15  1  0
  2 16  1  0
 16 17  2  0
 17 18  1  0
 18 19  2  0
 19 20  1  0
 20 21  2  0
 21 22  1  0
 22 23  2  0
 23 24  1  0
 24 25  2  0
 19 26  1  0
 14  6  1  0
 26 16  1  0
 15  6  1  0
 25 20  1  0
 13  8  1  0
  3 27  1  0
  4 28  1  0
  4 29  1  0
  5 30  1  0
  5 31  1  0
  7 32  1  0
  7 33  1  0
  8 34  1  6
  9 35  1  0
  9 36  1  0
 10 37  1  1
 11 38  1  0
 11 39  1  0
 12 40  1  6
 13 41  1  0
 13 42  1  0
 14 43  1  0
 14 44  1  0
 15 45  1  0
 15 46  1  0
 18 47  1  0
 21 48  1  0
 22 49  1  0
 23 50  1  0
 24 51  1  0
 25 52  1  0
M  END
>  <_SMILES>  (107) 
O=C(NCC[C@]12C[C@H]3C[C@H](C[C@H](C3)C1)C2)c1ncc(-c2ccccc2)o1

$$$$

     RDKit          3D

 56 60  0  0  0  0  0  0  0  0999 V2000
    0.6685   -2.0457   -2.8929 O   0  0  0  0  0  0  0  0  0  0  0  0
    1.2381   -1.6217   -1.8910 C   0  0  0  0  0  0  0  0  0  0  0  0
    0.5637   -0.9343   -0.8922 N   0  0  0  0  0  0  0  0  0  0  0  0
   -0.8225   -0.5542   -1.0765 C   0  0  0  0  0  0  0  0  0  0  0  0
   -1.4464   -0.1118    0.2469 C   0  0  0  0  0  0  0  0  0  0  0  0
   -2.9314    0.3203    0.1823 C   0  0  2  0  0  0  0  0  0  0  0  0
   -3.3833    0.7417    1.6084 C   0  0  0  0  0  0  0  0  0  0  0  0
   -4.8553    1.1839    1.6127 C   0  0  1  0  0  0  0  0  0  0  0  0
   -5.0255    2.3772    0.6599 C   0  0  0  0  0  0  0  0  0  0  0  0
   -4.6142    1.9741   -0.7646 C   0  0  2  0  0  0  0  0  0  0  0  0
   -5.4953    0.8047   -1.2345 C   0  0  0  0  0  0  0  0  0  0  0  0
   -5.3249   -0.3960   -0.2891 C   0  0  2  0  0  0  0  0  0  0  0  0
   -5.7331    0.0176    1.1333 C   0  0  0  0  0  0  0  0  0  0  0  0
   -3.8494   -0.8358   -0.2905 C   0  0  0  0  0  0  0  0  0  0  0  0
   -3.1402    1.5292   -0.7650 C   0  0  0  0  0  0  0  0  0  0  0  0
    2.6834   -1.7759   -1.6628 C   0  0  0  0  0  0  0  0  0  0  0  0
    3.3849   -1.5939   -0.4809 C   0  0  0  0  0  0  0  0  0  0  0  0
    4.6956   -1.8482   -0.7860 N   0  0  0  0  0  0  0  0  0  0  0  0
    5.8201   -1.8231    0.1341 C   0  0  0  0  0  0  0  0  0  0  0  0
    6.1091   -0.4287    0.6304 C   0  0  0  0  0  0  0  0  0  0  0  0
    6.5926    0.5578   -0.2431 C   0  0  0  0  0  0  0  0  0  0  0  0
    6.8581    1.8470    0.2212 C   0  0  0  0  0  0  0  0  0  0  0  0
    6.6468    2.1640    1.5612 C   0  0  0  0  0  0  0  0  0  0  0  0
    6.1695    1.1931    2.4392 C   0  0  0  0  0  0  0  0  0  0  0  0
    5.9019   -0.0969    1.9778 C   0  0  0  0  0  0  0  0  0  0  0  0
    4.7558   -2.1910   -2.1041 C   0  0  0  0  0  0  0  0  0  0  0  0
    3.5680   -2.1577   -2.6605 N   0  0  0  0  0  0  0  0  0  0  0  0
    1.1308   -0.3732   -0.2729 H   0  0  0  0  0  0  0  0  0  0  0  0
   -0.8335    0.2551   -1.8132 H   0  0  0  0  0  0  0  0  0  0  0  0
   -1.3587   -1.4084   -1.5010 H   0  0  0  0  0  0  0  0  0  0  0  0
   -0.8506    0.7176    0.6524 H   0  0  0  0  0  0  0  0  0  0  0  0
   -1.3427   -0.9317    0.9710 H   0  0  0  0  0  0  0  0  0  0  0  0
   -2.7542    1.5626    1.9767 H   0  0  0  0  0  0  0  0  0  0  0  0
   -3.2506   -0.0935    2.3086 H   0  0  0  0  0  0  0  0  0  0  0  0
   -5.1505    1.4759    2.6267 H   0  0  0  0  0  0  0  0  0  0  0  0
   -6.0686    2.7164    0.6670 H   0  0  0  0  0  0  0  0  0  0  0  0
   -4.4140    3.2212    1.0021 H   0  0  0  0  0  0  0  0  0  0  0  0
   -4.7417    2.8270   -1.4407 H   0  0  0  0  0  0  0  0  0  0  0  0
   -6.5472    1.1150   -1.2599 H   0  0  0  0  0  0  0  0  0  0  0  0
   -5.2237    0.5179   -2.2579 H   0  0  0  0  0  0  0  0  0  0  0  0
   -5.9566   -1.2249   -0.6278 H   0  0  0  0  0  0  0  0  0  0  0  0
   -6.7894    0.3127    1.1492 H   0  0  0  0  0  0  0  0  0  0  0  0
   -5.6304   -0.8349    1.8158 H   0  0  0  0  0  0  0  0  0  0  0  0
   -3.5791   -1.1557   -1.3037 H   0  0  0  0  0  0  0  0  0  0  0  0
   -3.7237   -1.7092    0.3620 H   0  0  0  0  0  0  0  0  0  0  0  0
   -2.5016    2.3664   -0.4558 H   0  0  0  0  0  0  0  0  0  0  0  0
   -2.8508    1.2718   -1.7908 H   0  0  0  0  0  0  0  0  0  0  0  0
    3.0729   -1.3212    0.5171 H   0  0  0  0  0  0  0  0  0  0  0  0
    5.5720   -2.5028    0.9576 H   0  0  0  0  0  0  0  0  0  0  0  0
    6.7010   -2.2306   -0.3754 H   0  0  0  0  0  0  0  0  0  0  0  0
    6.7609    0.3324   -1.2945 H   0  0  0  0  0  0  0  0  0  0  0  0
    7.2287    2.6053   -0.4643 H   0  0  0  0  0  0  0  0  0  0  0  0
    6.8543    3.1686    1.9211 H   0  0  0  0  0  0  0  0  0  0  0  0
    6.0063    1.4419    3.4849 H   0  0  0  0  0  0  0  0  0  0  0  0
    5.5301   -0.8394    2.6809 H   0  0  0  0  0  0  0  0  0  0  0  0
    5.6762   -2.4563   -2.6084 H   0  0  0  0  0  0  0  0  0  0  0  0
  1  2  2  0
  2  3  1  0
  3  4  1  0
  4  5  1  0
  6  5  1  1
  6  7  1  0
  7  8  1  0
  8  9  1  0
  9 10  1  0
 10 11  1  0
 11 12  1  0
 12 13  1  0
 12 14  1  0
 10 15  1  0
  2 16  1  0
 16 17  2  0
 17 18  1  0
 18 19  1  0
 19 20  1  0
 20 21  2  0
 21 22  1  0
 22 23  2  0
 23 24  1  0
 24 25  2  0
 18 26  1  0
 26 27  2  0
 14  6  1  0
 27 16  1  0
 15  6  1  0
 25 20  1  0
 13  8  1  0
  3 28  1  0
  4 29  1  0
  4 30  1  0
  5 31  1  0
  5 32  1  0
  7 33  1  0
  7 34  1  0
  8 35  1  1
  9 36  1  0
  9 37  1  0
 10 38  1  6
 11 39  1  0
 11 40  1  0
 12 41  1  6
 13 42  1  0
 13 43  1  0
 14 44  1  0
 14 45  1  0
 15 46  1  0
 15 47  1  0
 17 48  1  0
 19 49  1  0
 19 50  1  0
 21 51  1  0
 22 52  1  0
 23 53  1  0
 24 54  1  0
 25 55  1  0
 26 56  1  0
M  END
>  <_SMILES>  (108) 
O=C(NCC[C@]12C[C@H]3C[C@H](C[C@H](C3)C1)C2)c1cn(Cc2ccccc2)cn1

$$$$

     RDKit          3D

 57 61  0  0  0  0  0  0  0  0999 V2000
    0.6605   -2.0648   -2.1142 O   0  0  0  0  0  0  0  0  0  0  0  0
    0.7052   -0.9495   -1.6048 C   0  0  0  0  0  0  0  0  0  0  0  0
   -0.3072   -0.0192   -1.7794 N   0  0  0  0  0  0  0  0  0  0  0  0
   -1.4943   -0.3378   -2.5507 C   0  0  0  0  0  0  0  0  0  0  0  0
   -2.4998   -1.2389   -1.8239 C   0  0  0  0  0  0  0  0  0  0  0  0
   -3.2358   -0.6704   -0.5801 C   0  0  2  0  0  0  0  0  0  0  0  0
   -3.8534    0.7247   -0.8465 C   0  0  0  0  0  0  0  0  0  0  0  0
   -4.6410    1.2187    0.3812 C   0  0  1  0  0  0  0  0  0  0  0  0
   -5.7704    0.2265    0.6978 C   0  0  0  0  0  0  0  0  0  0  0  0
   -5.1813   -1.1597    1.0009 C   0  0  2  0  0  0  0  0  0  0  0  0
   -4.2317   -1.0613    2.2035 C   0  0  0  0  0  0  0  0  0  0  0  0
   -3.0957   -0.0762    1.8921 C   0  0  2  0  0  0  0  0  0  0  0  0
   -3.6929    1.3079    1.5886 C   0  0  0  0  0  0  0  0  0  0  0  0
   -2.3115   -0.5686    0.6613 C   0  0  0  0  0  0  0  0  0  0  0  0
   -4.3930   -1.6500   -0.2232 C   0  0  0  0  0  0  0  0  0  0  0  0
    1.7524   -0.4361   -0.7591 C   0  0  0  0  0  0  0  0  0  0  0  0
    2.7702   -1.1970   -0.2331 C   0  0  0  0  0  0  0  0  0  0  0  0
    3.5868   -0.3559    0.5111 N   0  0  0  0  0  0  0  0  0  0  0  0
    4.7888   -0.7585    1.2523 C   0  0  0  0  0  0  0  0  0  0  0  0
    5.9150    0.1813    0.9131 C   0  0  0  0  0  0  0  0  0  0  0  0
    6.4310    0.2316   -0.3918 C   0  0  0  0  0  0  0  0  0  0  0  0
    7.4596    1.1180   -0.7119 C   0  0  0  0  0  0  0  0  0  0  0  0
    7.9844    1.9597    0.2661 C   0  0  0  0  0  0  0  0  0  0  0  0
    7.4857    1.9145    1.5662 C   0  0  0  0  0  0  0  0  0  0  0  0
    6.4565    1.0296    1.8911 C   0  0  0  0  0  0  0  0  0  0  0  0
    3.1097    0.8954    0.4434 C   0  0  0  0  0  0  0  0  0  0  0  0
    2.0105    0.8610   -0.3171 N   0  0  0  0  0  0  0  0  0  0  0  0
   -0.3465    0.8286   -1.2363 H   0  0  0  0  0  0  0  0  0  0  0  0
   -1.1686   -0.8450   -3.4669 H   0  0  0  0  0  0  0  0  0  0  0  0
   -1.9526    0.6070   -2.8570 H   0  0  0  0  0  0  0  0  0  0  0  0
   -2.0070   -2.1789   -1.5432 H   0  0  0  0  0  0  0  0  0  0  0  0
   -3.2586   -1.5122   -2.5702 H   0  0  0  0  0  0  0  0  0  0  0  0
   -3.0692    1.4561   -1.0759 H   0  0  0  0  0  0  0  0  0  0  0  0
   -4.5172    0.6838   -1.7195 H   0  0  0  0  0  0  0  0  0  0  0  0
   -5.0660    2.2069    0.1723 H   0  0  0  0  0  0  0  0  0  0  0  0
   -6.4628    0.1631   -0.1507 H   0  0  0  0  0  0  0  0  0  0  0  0
   -6.3520    0.5823    1.5571 H   0  0  0  0  0  0  0  0  0  0  0  0
   -5.9904   -1.8636    1.2259 H   0  0  0  0  0  0  0  0  0  0  0  0
   -3.8176   -2.0498    2.4374 H   0  0  0  0  0  0  0  0  0  0  0  0
   -4.7838   -0.7291    3.0912 H   0  0  0  0  0  0  0  0  0  0  0  0
   -2.4221   -0.0062    2.7536 H   0  0  0  0  0  0  0  0  0  0  0  0
   -4.2366    1.6815    2.4650 H   0  0  0  0  0  0  0  0  0  0  0  0
   -2.8898    2.0262    1.3827 H   0  0  0  0  0  0  0  0  0  0  0  0
   -1.4894    0.1303    0.4832 H   0  0  0  0  0  0  0  0  0  0  0  0
   -1.8584   -1.5444    0.8778 H   0  0  0  0  0  0  0  0  0  0  0  0
   -5.0773   -1.7525   -1.0757 H   0  0  0  0  0  0  0  0  0  0  0  0
   -3.9900   -2.6515   -0.0229 H   0  0  0  0  0  0  0  0  0  0  0  0
    3.0109   -2.2462   -0.3016 H   0  0  0  0  0  0  0  0  0  0  0  0
    5.0642   -1.7857    0.9896 H   0  0  0  0  0  0  0  0  0  0  0  0
    4.5447   -0.7332    2.3200 H   0  0  0  0  0  0  0  0  0  0  0  0
    6.0421   -0.4231   -1.1698 H   0  0  0  0  0  0  0  0  0  0  0  0
    7.8625    1.1478   -1.7225 H   0  0  0  0  0  0  0  0  0  0  0  0
    8.7936    2.6437    0.0176 H   0  0  0  0  0  0  0  0  0  0  0  0
    7.9106    2.5642    2.3292 H   0  0  0  0  0  0  0  0  0  0  0  0
    6.0959    1.0069    2.9182 H   0  0  0  0  0  0  0  0  0  0  0  0
    3.5361    1.7793    0.9053 H   0  0  0  0  0  0  0  0  0  0  0  0
    1.4870    1.6891   -0.5808 H   0  0  0  0  0  0  0  0  0  0  0  0
  1  2  2  0
  2  3  1  0
  3  4  1  0
  4  5  1  0
  6  5  1  6
  6  7  1  0
  7  8  1  0
  8  9  1  0
  9 10  1  0
 10 11  1  0
 11 12  1  0
 12 13  1  0
 12 14  1  0
 10 15  1  0
  2 16  1  0
 16 17  2  0
 17 18  1  0
 18 19  1  0
 19 20  1  0
 20 21  2  0
 21 22  1  0
 22 23  2  0
 23 24  1  0
 24 25  2  0
 18 26  1  0
 26 27  2  0
 14  6  1  0
 27 16  1  0
 15  6  1  0
 25 20  1  0
 13  8  1  0
  3 28  1  0
  4 29  1  0
  4 30  1  0
  5 31  1  0
  5 32  1  0
  7 33  1  0
  7 34  1  0
  8 35  1  6
  9 36  1  0
  9 37  1  0
 10 38  1  1
 11 39  1  0
 11 40  1  0
 12 41  1  1
 13 42  1  0
 13 43  1  0
 14 44  1  0
 14 45  1  0
 15 46  1  0
 15 47  1  0
 17 48  1  0
 19 49  1  0
 19 50  1  0
 21 51  1  0
 22 52  1  0
 23 53  1  0
 24 54  1  0
 25 55  1  0
 26 56  1  0
 27 57  1  0
M  CHG  1  27   1
M  END
>  <_SMILES>  (109) 
O=C(NCC[C@]12C[C@H]3C[C@H](C[C@H](C3)C1)C2)c1cn(Cc2ccccc2)c[nH+]1

$$$$

     RDKit          3D

 58 61  0  0  0  0  0  0  0  0999 V2000
    7.6637   -0.5620   -2.1043 C   0  0  0  0  0  0  0  0  0  0  0  0
    6.2434   -1.0037   -1.8062 C   0  0  0  0  0  0  0  0  0  0  0  0
    5.8472   -0.5402   -0.5069 O   0  0  0  0  0  0  0  0  0  0  0  0
    6.1333   -1.3656    0.5385 C   0  0  0  0  0  0  0  0  0  0  0  0
    6.7735   -2.4078    0.4389 O   0  0  0  0  0  0  0  0  0  0  0  0
    5.6917   -0.8020    1.8594 C   0  0  0  0  0  0  0  0  0  0  0  0
    4.4696   -0.0222    1.7728 N   0  0  0  0  0  0  0  0  0  0  0  0
    3.2907   -0.6652    1.8365 N   0  0  0  0  0  0  0  0  0  0  0  0
    2.3546    0.2989    1.7744 C   0  0  0  0  0  0  0  0  0  0  0  0
    0.9108   -0.0221    1.8053 C   0  0  0  0  0  0  0  0  0  0  0  0
    0.4698   -1.1238    2.1258 O   0  0  0  0  0  0  0  0  0  0  0  0
    0.0739    1.0177    1.4266 N   0  0  0  0  0  0  0  0  0  0  0  0
   -1.3589    0.8301    1.3107 C   0  0  0  0  0  0  0  0  0  0  0  0
   -1.7312    0.2166   -0.0415 C   0  0  0  0  0  0  0  0  0  0  0  0
   -3.2425   -0.0157   -0.2832 C   0  0  2  0  0  0  0  0  0  0  0  0
   -3.8455   -1.0045    0.7471 C   0  0  0  0  0  0  0  0  0  0  0  0
   -5.3335   -1.2635    0.4481 C   0  0  1  0  0  0  0  0  0  0  0  0
   -6.1013    0.0672    0.5139 C   0  0  0  0  0  0  0  0  0  0  0  0
   -5.5368    1.0526   -0.5229 C   0  0  2  0  0  0  0  0  0  0  0  0
   -5.6772    0.4454   -1.9274 C   0  0  0  0  0  0  0  0  0  0  0  0
   -4.9100   -0.8836   -2.0035 C   0  0  2  0  0  0  0  0  0  0  0  0
   -5.4748   -1.8604   -0.9606 C   0  0  0  0  0  0  0  0  0  0  0  0
   -3.4253   -0.6264   -1.7008 C   0  0  0  0  0  0  0  0  0  0  0  0
   -4.0484    1.3067   -0.2218 C   0  0  0  0  0  0  0  0  0  0  0  0
    2.9796    1.5753    1.6938 C   0  0  0  0  0  0  0  0  0  0  0  0
    4.3384    1.3414    1.7019 C   0  0  0  0  0  0  0  0  0  0  0  0
    5.4804    2.2856    1.6460 C   0  0  0  0  0  0  0  0  0  0  0  0
    7.9584   -0.8591   -3.1147 H   0  0  0  0  0  0  0  0  0  0  0  0
    7.7546    0.5255   -2.0148 H   0  0  0  0  0  0  0  0  0  0  0  0
    8.3691   -1.0000   -1.3911 H   0  0  0  0  0  0  0  0  0  0  0  0
    5.5574   -0.5513   -2.5298 H   0  0  0  0  0  0  0  0  0  0  0  0
    6.1334   -2.0906   -1.8942 H   0  0  0  0  0  0  0  0  0  0  0  0
    6.4869   -0.1733    2.2687 H   0  0  0  0  0  0  0  0  0  0  0  0
    5.4999   -1.6251    2.5564 H   0  0  0  0  0  0  0  0  0  0  0  0
    0.4807    1.8389    1.0052 H   0  0  0  0  0  0  0  0  0  0  0  0
   -1.6933    0.1971    2.1379 H   0  0  0  0  0  0  0  0  0  0  0  0
   -1.8077    1.8201    1.4304 H   0  0  0  0  0  0  0  0  0  0  0  0
   -1.2026   -0.7396   -0.1542 H   0  0  0  0  0  0  0  0  0  0  0  0
   -1.3372    0.8661   -0.8355 H   0  0  0  0  0  0  0  0  0  0  0  0
   -3.2942   -1.9533    0.7279 H   0  0  0  0  0  0  0  0  0  0  0  0
   -3.7556   -0.6065    1.7647 H   0  0  0  0  0  0  0  0  0  0  0  0
   -5.7415   -1.9618    1.1874 H   0  0  0  0  0  0  0  0  0  0  0  0
   -6.0231    0.4961    1.5204 H   0  0  0  0  0  0  0  0  0  0  0  0
   -7.1677   -0.1060    0.3240 H   0  0  0  0  0  0  0  0  0  0  0  0
   -6.0892    1.9977   -0.4727 H   0  0  0  0  0  0  0  0  0  0  0  0
   -5.2915    1.1453   -2.6788 H   0  0  0  0  0  0  0  0  0  0  0  0
   -6.7364    0.2803   -2.1601 H   0  0  0  0  0  0  0  0  0  0  0  0
   -5.0138   -1.3131   -3.0062 H   0  0  0  0  0  0  0  0  0  0  0  0
   -6.5302   -2.0686   -1.1753 H   0  0  0  0  0  0  0  0  0  0  0  0
   -4.9436   -2.8185   -1.0170 H   0  0  0  0  0  0  0  0  0  0  0  0
   -3.0096    0.0495   -2.4594 H   0  0  0  0  0  0  0  0  0  0  0  0
   -2.8676   -1.5686   -1.7808 H   0  0  0  0  0  0  0  0  0  0  0  0
   -3.6439    2.0296   -0.9417 H   0  0  0  0  0  0  0  0  0  0  0  0
   -3.9640    1.7660    0.7702 H   0  0  0  0  0  0  0  0  0  0  0  0
    2.5046    2.5450    1.6544 H   0  0  0  0  0  0  0  0  0  0  0  0
    5.1305    3.3110    1.4883 H   0  0  0  0  0  0  0  0  0  0  0  0
    6.1573    2.0340    0.8236 H   0  0  0  0  0  0  0  0  0  0  0  0
    6.0447    2.2640    2.5836 H   0  0  0  0  0  0  0  0  0  0  0  0
  1  2  1  0
  2  3  1  0
  3  4  1  0
  4  5  2  0
  4  6  1  0
  6  7  1  0
  7  8  1  0
  8  9  2  0
  9 10  1  0
 10 11  2  0
 10 12  1  0
 12 13  1  0
 13 14  1  0
 15 14  1  1
 15 16  1  0
 16 17  1  0
 17 18  1  0
 18 19  1  0
 19 20  1  0
 20 21  1  0
 21 22  1  0
 21 23  1  0
 19 24  1  0
  9 25  1  0
 25 26  2  0
 26 27  1  0
 26  7  1  0
 23 15  1  0
 24 15  1  0
 22 17  1  0
  1 28  1  0
  1 29  1  0
  1 30  1  0
  2 31  1  0
  2 32  1  0
  6 33  1  0
  6 34  1  0
 12 35  1  0
 13 36  1  0
 13 37  1  0
 14 38  1  0
 14 39  1  0
 16 40  1  0
 16 41  1  0
 17 42  1  1
 18 43  1  0
 18 44  1  0
 19 45  1  6
 20 46  1  0
 20 47  1  0
 21 48  1  6
 22 49  1  0
 22 50  1  0
 23 51  1  0
 23 52  1  0
 24 53  1  0
 24 54  1  0
 25 55  1  0
 27 56  1  0
 27 57  1  0
 27 58  1  0
M  END
>  <_SMILES>  (110) 
CCOC(=O)Cn1nc(C(=O)NCC[C@]23C[C@H]4C[C@H](C[C@H](C4)C2)C3)cc1C

$$$$

     RDKit          3D

 49 52  0  0  0  0  0  0  0  0999 V2000
   -7.8575   -0.0270    0.1714 N   0  0  0  0  0  0  0  0  0  0  0  0
   -6.4745    0.5155    0.1062 C   0  0  1  0  0  0  0  0  0  0  0  0
   -5.6769   -0.0334    1.2846 C   0  0  0  0  0  0  0  0  0  0  0  0
   -4.2115    0.3884    1.2013 C   0  0  0  0  0  0  0  0  0  0  0  0
   -3.5776   -0.0273   -0.1377 C   0  0  2  0  0  0  0  0  0  0  0  0
   -2.1893    0.3866   -0.2079 N   0  0  0  0  0  0  0  0  0  0  0  0
   -1.2202   -0.2987    0.5068 C   0  0  0  0  0  0  0  0  0  0  0  0
   -1.4883   -1.2316    1.2557 O   0  0  0  0  0  0  0  0  0  0  0  0
    0.1904    0.1215    0.2882 C   0  0  0  0  0  0  0  0  0  0  0  0
    0.5232    1.4432   -0.0322 C   0  0  0  0  0  0  0  0  0  0  0  0
    1.8557    1.8210   -0.2372 C   0  0  0  0  0  0  0  0  0  0  0  0
    2.8363    0.8315   -0.1034 C   0  0  0  0  0  0  0  0  0  0  0  0
    4.2040    0.9109   -0.2389 N   0  0  0  0  0  0  0  0  0  0  0  0
    4.7966   -0.3127   -0.0153 C   0  0  0  0  0  0  0  0  0  0  0  0
    6.2437   -0.5226   -0.0815 C   0  0  0  0  0  0  0  0  0  0  0  0
    7.0304    0.1462   -1.0301 C   0  0  0  0  0  0  0  0  0  0  0  0
    8.4119   -0.0598   -1.0828 C   0  0  0  0  0  0  0  0  0  0  0  0
    9.0219   -0.9370   -0.1891 C   0  0  0  0  0  0  0  0  0  0  0  0
    8.2517   -1.6116    0.7550 C   0  0  0  0  0  0  0  0  0  0  0  0
    6.8704   -1.4069    0.8068 C   0  0  0  0  0  0  0  0  0  0  0  0
    3.7709   -1.1906    0.2906 C   0  0  0  0  0  0  0  0  0  0  0  0
    2.5379   -0.4865    0.2314 C   0  0  0  0  0  0  0  0  0  0  0  0
    1.1937   -0.8491    0.4373 C   0  0  0  0  0  0  0  0  0  0  0  0
   -4.3839    0.5506   -1.3080 C   0  0  0  0  0  0  0  0  0  0  0  0
   -5.8538    0.1334   -1.2364 C   0  0  0  0  0  0  0  0  0  0  0  0
   -8.3193    0.2306    1.0546 H   0  0  0  0  0  0  0  0  0  0  0  0
   -8.4443    0.3345   -0.5925 H   0  0  0  0  0  0  0  0  0  0  0  0
   -7.8718   -1.0547    0.1109 H   0  0  0  0  0  0  0  0  0  0  0  0
   -6.5695    1.6047    0.1845 H   0  0  0  0  0  0  0  0  0  0  0  0
   -6.1052    0.3228    2.2293 H   0  0  0  0  0  0  0  0  0  0  0  0
   -5.7332   -1.1297    1.3050 H   0  0  0  0  0  0  0  0  0  0  0  0
   -3.6674   -0.0545    2.0431 H   0  0  0  0  0  0  0  0  0  0  0  0
   -4.1354    1.4768    1.3252 H   0  0  0  0  0  0  0  0  0  0  0  0
   -3.5970   -1.1231   -0.2102 H   0  0  0  0  0  0  0  0  0  0  0  0
   -1.8802    0.9735   -0.9737 H   0  0  0  0  0  0  0  0  0  0  0  0
   -0.2427    2.2108   -0.0985 H   0  0  0  0  0  0  0  0  0  0  0  0
    2.1162    2.8469   -0.4788 H   0  0  0  0  0  0  0  0  0  0  0  0
    4.7100    1.7593   -0.4489 H   0  0  0  0  0  0  0  0  0  0  0  0
    6.5788    0.8182   -1.7546 H   0  0  0  0  0  0  0  0  0  0  0  0
    9.0112    0.4596   -1.8264 H   0  0  0  0  0  0  0  0  0  0  0  0
   10.0962   -1.0982   -0.2307 H   0  0  0  0  0  0  0  0  0  0  0  0
    8.7248   -2.2974    1.4532 H   0  0  0  0  0  0  0  0  0  0  0  0
    6.2902   -1.9377    1.5579 H   0  0  0  0  0  0  0  0  0  0  0  0
    3.8945   -2.2404    0.5247 H   0  0  0  0  0  0  0  0  0  0  0  0
    0.9401   -1.8716    0.7057 H   0  0  0  0  0  0  0  0  0  0  0  0
   -3.9554    0.2131   -2.2597 H   0  0  0  0  0  0  0  0  0  0  0  0
   -4.3138    1.6463   -1.3067 H   0  0  0  0  0  0  0  0  0  0  0  0
   -5.9252   -0.9510   -1.3919 H   0  0  0  0  0  0  0  0  0  0  0  0
   -6.4069    0.6074   -2.0562 H   0  0  0  0  0  0  0  0  0  0  0  0
  1  2  1  0
  2  3  1  0
  3  4  1  0
  4  5  1  0
  5  6  1  0
  6  7  1  0
  7  8  2  0
  7  9  1  0
  9 10  2  0
 10 11  1  0
 11 12  2  0
 12 13  1  0
 13 14  1  0
 14 15  1  0
 15 16  2  0
 16 17  1  0
 17 18  2  0
 18 19  1  0
 19 20  2  0
 14 21  2  0
 21 22  1  0
 22 23  2  0
  5 24  1  0
 24 25  1  0
 25  2  1  0
 23  9  1  0
 22 12  1  0
 20 15  1  0
  1 26  1  0
  1 27  1  0
  1 28  1  0
  2 29  1  1
  3 30  1  0
  3 31  1  0
  4 32  1  0
  4 33  1  0
  5 34  1  6
  6 35  1  0
 10 36  1  0
 11 37  1  0
 13 38  1  0
 16 39  1  0
 17 40  1  0
 18 41  1  0
 19 42  1  0
 20 43  1  0
 21 44  1  0
 23 45  1  0
 24 46  1  0
 24 47  1  0
 25 48  1  0
 25 49  1  0
M  CHG  1   1   1
M  END
>  <_SMILES>  (111) 
[NH3+][C@H]1CC[C@H](NC(=O)c2ccc3[nH]c(-c4ccccc4)cc3c2)CC1

$$$$

     RDKit          3D

 45 49  0  0  0  0  0  0  0  0999 V2000
    7.3495    0.9343    0.5234 C   0  0  0  0  0  0  0  0  0  0  0  0
    6.0398    0.2485    0.4779 C   0  0  0  0  0  0  0  0  0  0  0  0
    4.7813    0.7885    0.3181 C   0  0  0  0  0  0  0  0  0  0  0  0
    3.9168   -0.2699    0.3467 N   0  0  0  0  0  0  0  0  0  0  0  0
    2.5623   -0.1827    0.2225 N   0  0  0  0  0  0  0  0  0  0  0  0
    1.9799   -1.3485    0.2856 C   0  0  0  0  0  0  0  0  0  0  0  0
    0.4506   -1.3937    0.1593 C   0  0  0  0  0  0  0  0  0  0  0  0
   -0.1405   -2.4592    0.2119 O   0  0  0  0  0  0  0  0  0  0  0  0
   -0.1093   -0.1491   -0.0090 N   0  0  0  0  0  0  0  0  0  0  0  0
   -1.5350    0.1326   -0.1581 C   0  0  2  0  0  0  0  0  0  0  0  0
   -2.3371   -0.3162    1.0884 C   0  0  0  0  0  0  0  0  0  0  0  0
   -3.8273    0.0324    0.9273 C   0  0  1  0  0  0  0  0  0  0  0  0
   -3.9782    1.5526    0.7599 C   0  0  0  0  0  0  0  0  0  0  0  0
   -3.2080    2.0228   -0.4840 C   0  0  2  0  0  0  0  0  0  0  0  0
   -3.7658    1.3119   -1.7270 C   0  0  0  0  0  0  0  0  0  0  0  0
   -3.6136   -0.2098   -1.5740 C   0  0  2  0  0  0  0  0  0  0  0  0
   -4.3797   -0.6730   -0.3231 C   0  0  0  0  0  0  0  0  0  0  0  0
   -2.1234   -0.5584   -1.4130 C   0  0  0  0  0  0  0  0  0  0  0  0
   -1.7222    1.6641   -0.3223 C   0  0  0  0  0  0  0  0  0  0  0  0
    2.6660   -2.6596    0.4711 C   0  0  0  0  0  0  0  0  0  0  0  0
    4.0000   -2.6438    0.5835 C   0  0  0  0  0  0  0  0  0  0  0  0
    4.6827   -1.4097    0.5224 C   0  0  0  0  0  0  0  0  0  0  0  0
    5.9643   -1.1208    0.6039 N   0  0  0  0  0  0  0  0  0  0  0  0
    7.9961    0.5714   -0.2814 H   0  0  0  0  0  0  0  0  0  0  0  0
    7.8457    0.7417    1.4795 H   0  0  0  0  0  0  0  0  0  0  0  0
    7.2361    2.0169    0.4090 H   0  0  0  0  0  0  0  0  0  0  0  0
    4.4309    1.8011    0.1902 H   0  0  0  0  0  0  0  0  0  0  0  0
    0.5575    0.6198   -0.0265 H   0  0  0  0  0  0  0  0  0  0  0  0
   -1.9359    0.1663    1.9894 H   0  0  0  0  0  0  0  0  0  0  0  0
   -2.2373   -1.3964    1.2489 H   0  0  0  0  0  0  0  0  0  0  0  0
   -4.3812   -0.2982    1.8131 H   0  0  0  0  0  0  0  0  0  0  0  0
   -3.6005    2.0674    1.6519 H   0  0  0  0  0  0  0  0  0  0  0  0
   -5.0389    1.8159    0.6657 H   0  0  0  0  0  0  0  0  0  0  0  0
   -3.3167    3.1071   -0.5983 H   0  0  0  0  0  0  0  0  0  0  0  0
   -3.2352    1.6534   -2.6243 H   0  0  0  0  0  0  0  0  0  0  0  0
   -4.8228    1.5709   -1.8642 H   0  0  0  0  0  0  0  0  0  0  0  0
   -4.0161   -0.7120   -2.4608 H   0  0  0  0  0  0  0  0  0  0  0  0
   -5.4481   -0.4514   -0.4358 H   0  0  0  0  0  0  0  0  0  0  0  0
   -4.2904   -1.7604   -0.2102 H   0  0  0  0  0  0  0  0  0  0  0  0
   -2.0156   -1.6476   -1.3458 H   0  0  0  0  0  0  0  0  0  0  0  0
   -1.5687   -0.2498   -2.3089 H   0  0  0  0  0  0  0  0  0  0  0  0
   -1.1581    2.0220   -1.1942 H   0  0  0  0  0  0  0  0  0  0  0  0
   -1.3069    2.1906    0.5475 H   0  0  0  0  0  0  0  0  0  0  0  0
    2.0794   -3.5689    0.5090 H   0  0  0  0  0  0  0  0  0  0  0  0
    4.5738   -3.5530    0.7205 H   0  0  0  0  0  0  0  0  0  0  0  0
  1  2  1  0
  2  3  2  0
  3  4  1  0
  4  5  1  0
  5  6  2  0
  6  7  1  0
  7  8  2  0
  7  9  1  0
 10  9  1  1
 10 11  1  0
 11 12  1  0
 12 13  1  0
 13 14  1  0
 14 15  1  0
 15 16  1  0
 16 17  1  0
 16 18  1  0
 14 19  1  0
  6 20  1  0
 20 21  2  0
 21 22  1  0
 22 23  2  0
 23  2  1  0
 22  4  1  0
 18 10  1  0
 19 10  1  0
 17 12  1  0
  1 24  1  0
  1 25  1  0
  1 26  1  0
  3 27  1  0
  9 28  1  0
 11 29  1  0
 11 30  1  0
 12 31  1  1
 13 32  1  0
 13 33  1  0
 14 34  1  6
 15 35  1  0
 15 36  1  0
 16 37  1  6
 17 38  1  0
 17 39  1  0
 18 40  1  0
 18 41  1  0
 19 42  1  0
 19 43  1  0
 20 44  1  0
 21 45  1  0
M  END
>  <_SMILES>  (112) 
Cc1cn2nc(C(=O)N[C@]34C[C@H]5C[C@H](C[C@H](C5)C3)C4)ccc2n1

$$$$

     RDKit          3D

 46 50  0  0  0  0  0  0  0  0999 V2000
    7.1754    1.9023    0.1644 C   0  0  0  0  0  0  0  0  0  0  0  0
    5.9372    1.1071    0.1352 C   0  0  0  0  0  0  0  0  0  0  0  0
    4.6213    1.4650   -0.0662 C   0  0  0  0  0  0  0  0  0  0  0  0
    3.8712    0.3120    0.0095 N   0  0  0  0  0  0  0  0  0  0  0  0
    2.4675    0.2333   -0.1521 N   0  0  0  0  0  0  0  0  0  0  0  0
    2.0216   -0.9899   -0.0479 C   0  0  0  0  0  0  0  0  0  0  0  0
    0.5136   -1.1855   -0.2217 C   0  0  0  0  0  0  0  0  0  0  0  0
    0.1128   -2.2440   -0.6767 O   0  0  0  0  0  0  0  0  0  0  0  0
   -0.2530   -0.1128    0.1734 N   0  0  0  0  0  0  0  0  0  0  0  0
   -1.7148   -0.0440    0.0523 C   0  0  2  0  0  0  0  0  0  0  0  0
   -2.1662   -0.1276   -1.4265 C   0  0  0  0  0  0  0  0  0  0  0  0
   -3.6964   -0.0028   -1.5325 C   0  0  1  0  0  0  0  0  0  0  0  0
   -4.3542   -1.1360   -0.7267 C   0  0  0  0  0  0  0  0  0  0  0  0
   -3.9416   -1.0428    0.7523 C   0  0  2  0  0  0  0  0  0  0  0  0
   -4.3812    0.3172    1.3166 C   0  0  0  0  0  0  0  0  0  0  0  0
   -3.7200    1.4534    0.5211 C   0  0  2  0  0  0  0  0  0  0  0  0
   -4.1370    1.3515   -0.9546 C   0  0  0  0  0  0  0  0  0  0  0  0
   -2.1925    1.3180    0.6238 C   0  0  0  0  0  0  0  0  0  0  0  0
   -2.4114   -1.1681    0.8597 C   0  0  0  0  0  0  0  0  0  0  0  0
    2.7827   -2.2574    0.2226 C   0  0  0  0  0  0  0  0  0  0  0  0
    4.1078   -2.1519    0.3691 C   0  0  0  0  0  0  0  0  0  0  0  0
    4.6742   -0.7338    0.2431 C   0  0  0  0  0  0  0  0  0  0  0  0
    5.9200   -0.2722    0.3257 N   0  0  0  0  0  0  0  0  0  0  0  0
    6.9546    2.9604   -0.0015 H   0  0  0  0  0  0  0  0  0  0  0  0
    7.6615    1.7890    1.1371 H   0  0  0  0  0  0  0  0  0  0  0  0
    7.8538    1.5537   -0.6189 H   0  0  0  0  0  0  0  0  0  0  0  0
    4.1137    2.3939   -0.2573 H   0  0  0  0  0  0  0  0  0  0  0  0
    0.2325    0.7380    0.4341 H   0  0  0  0  0  0  0  0  0  0  0  0
   -1.8515   -1.0763   -1.8776 H   0  0  0  0  0  0  0  0  0  0  0  0
   -1.6852    0.6659   -2.0134 H   0  0  0  0  0  0  0  0  0  0  0  0
   -4.0000   -0.0720   -2.5831 H   0  0  0  0  0  0  0  0  0  0  0  0
   -5.4457   -1.0723   -0.8148 H   0  0  0  0  0  0  0  0  0  0  0  0
   -4.0581   -2.1090   -1.1378 H   0  0  0  0  0  0  0  0  0  0  0  0
   -4.4183   -1.8494    1.3204 H   0  0  0  0  0  0  0  0  0  0  0  0
   -4.1052    0.3907    2.3757 H   0  0  0  0  0  0  0  0  0  0  0  0
   -5.4730    0.4094    1.2650 H   0  0  0  0  0  0  0  0  0  0  0  0
   -4.0341    2.4211    0.9280 H   0  0  0  0  0  0  0  0  0  0  0  0
   -3.6852    2.1693   -1.5295 H   0  0  0  0  0  0  0  0  0  0  0  0
   -5.2246    1.4617   -1.0452 H   0  0  0  0  0  0  0  0  0  0  0  0
   -1.7118    2.1439    0.0825 H   0  0  0  0  0  0  0  0  0  0  0  0
   -1.8811    1.4172    1.6723 H   0  0  0  0  0  0  0  0  0  0  0  0
   -2.1054   -1.1213    1.9130 H   0  0  0  0  0  0  0  0  0  0  0  0
   -2.1099   -2.1574    0.4965 H   0  0  0  0  0  0  0  0  0  0  0  0
    2.2458   -3.1978    0.2790 H   0  0  0  0  0  0  0  0  0  0  0  0
    4.7538   -2.9978    0.5593 H   0  0  0  0  0  0  0  0  0  0  0  0
    6.7366   -0.8519    0.4971 H   0  0  0  0  0  0  0  0  0  0  0  0
  1  2  1  0
  2  3  2  0
  3  4  1  0
  4  5  1  0
  5  6  2  0
  6  7  1  0
  7  8  2  0
  7  9  1  0
 10  9  1  6
 10 11  1  0
 11 12  1  0
 12 13  1  0
 13 14  1  0
 14 15  1  0
 15 16  1  0
 16 17  1  0
 16 18  1  0
 14 19  1  0
  6 20  1  0
 20 21  2  0
 21 22  1  0
 22 23  2  0
 23  2  1  0
 22  4  1  0
 18 10  1  0
 19 10  1  0
 17 12  1  0
  1 24  1  0
  1 25  1  0
  1 26  1  0
  3 27  1  0
  9 28  1  0
 11 29  1  0
 11 30  1  0
 12 31  1  6
 13 32  1  0
 13 33  1  0
 14 34  1  1
 15 35  1  0
 15 36  1  0
 16 37  1  1
 17 38  1  0
 17 39  1  0
 18 40  1  0
 18 41  1  0
 19 42  1  0
 19 43  1  0
 20 44  1  0
 21 45  1  0
 23 46  1  0
M  CHG  1  23   1
M  END
>  <_SMILES>  (113) 
Cc1cn2nc(C(=O)N[C@]34C[C@H]5C[C@H](C[C@H](C5)C3)C4)ccc2[nH+]1

$$$$

     RDKit          3D

 58 63  0  0  0  0  0  0  0  0999 V2000
   -1.3576   -1.9632   -1.2368 O   0  0  0  0  0  0  0  0  0  0  0  0
   -1.2401   -0.8260   -0.7983 C   0  0  0  0  0  0  0  0  0  0  0  0
   -2.2648   -0.0933   -0.2327 N   0  0  0  0  0  0  0  0  0  0  0  0
   -3.6294   -0.5942   -0.0325 C   0  0  2  0  0  0  0  0  0  0  0  0
   -4.4798    0.5460    0.5915 C   0  0  0  0  0  0  0  0  0  0  0  0
   -5.9258    0.0865    0.8363 C   0  0  1  0  0  0  0  0  0  0  0  0
   -6.5555   -0.3293   -0.5019 C   0  0  0  0  0  0  0  0  0  0  0  0
   -5.7450   -1.4744   -1.1285 C   0  0  2  0  0  0  0  0  0  0  0  0
   -5.7324   -2.6740   -0.1657 C   0  0  0  0  0  0  0  0  0  0  0  0
   -5.1034   -2.2683    1.1782 C   0  0  2  0  0  0  0  0  0  0  0  0
   -5.9171   -1.1176    1.7913 C   0  0  0  0  0  0  0  0  0  0  0  0
   -3.6573   -1.7987    0.9402 C   0  0  0  0  0  0  0  0  0  0  0  0
   -4.2996   -1.0034   -1.3689 C   0  0  0  0  0  0  0  0  0  0  0  0
    0.0937   -0.1631   -0.8177 C   0  0  0  0  0  0  0  0  0  0  0  0
    0.2199    1.2245   -0.9547 C   0  0  0  0  0  0  0  0  0  0  0  0
    1.4790    1.8354   -0.9689 C   0  0  0  0  0  0  0  0  0  0  0  0
    2.6012    1.0079   -0.8509 C   0  0  0  0  0  0  0  0  0  0  0  0
    3.9395    1.3258   -0.8377 N   0  0  0  0  0  0  0  0  0  0  0  0
    4.7046    0.1893   -0.7093 C   0  0  0  0  0  0  0  0  0  0  0  0
    6.1965    0.2503   -0.6734 C   0  0  1  0  0  0  0  0  0  0  0  0
    6.5810    0.7175   -1.9627 O   0  0  0  0  0  0  0  0  0  0  0  0
    6.7331    1.1460    0.4288 C   0  0  0  0  0  0  0  0  0  0  0  0
    7.4766    2.3047    0.1536 C   0  0  0  0  0  0  0  0  0  0  0  0
    7.9579    3.1093    1.1891 C   0  0  0  0  0  0  0  0  0  0  0  0
    7.7052    2.7668    2.5153 C   0  0  0  0  0  0  0  0  0  0  0  0
    6.9734    1.6188    2.8085 C   0  0  0  0  0  0  0  0  0  0  0  0
    6.4930    0.8133    1.7741 C   0  0  0  0  0  0  0  0  0  0  0  0
    3.8358   -0.8820   -0.6433 C   0  0  0  0  0  0  0  0  0  0  0  0
    2.5089   -0.3780   -0.7299 C   0  0  0  0  0  0  0  0  0  0  0  0
    1.2346   -0.9757   -0.7193 C   0  0  0  0  0  0  0  0  0  0  0  0
   -1.9963    0.7151    0.3125 H   0  0  0  0  0  0  0  0  0  0  0  0
   -4.4758    1.4238   -0.0687 H   0  0  0  0  0  0  0  0  0  0  0  0
   -4.0330    0.8747    1.5395 H   0  0  0  0  0  0  0  0  0  0  0  0
   -6.5045    0.9050    1.2787 H   0  0  0  0  0  0  0  0  0  0  0  0
   -7.5938   -0.6466   -0.3453 H   0  0  0  0  0  0  0  0  0  0  0  0
   -6.5841    0.5279   -1.1857 H   0  0  0  0  0  0  0  0  0  0  0  0
   -6.1996   -1.7697   -2.0808 H   0  0  0  0  0  0  0  0  0  0  0  0
   -5.1679   -3.5040   -0.6083 H   0  0  0  0  0  0  0  0  0  0  0  0
   -6.7558   -3.0350   -0.0053 H   0  0  0  0  0  0  0  0  0  0  0  0
   -5.1049   -3.1256    1.8606 H   0  0  0  0  0  0  0  0  0  0  0  0
   -6.9446   -1.4479    1.9872 H   0  0  0  0  0  0  0  0  0  0  0  0
   -5.4865   -0.8271    2.7574 H   0  0  0  0  0  0  0  0  0  0  0  0
   -3.1923   -1.5229    1.8958 H   0  0  0  0  0  0  0  0  0  0  0  0
   -3.0695   -2.6351    0.5437 H   0  0  0  0  0  0  0  0  0  0  0  0
   -4.2932   -0.1572   -2.0685 H   0  0  0  0  0  0  0  0  0  0  0  0
   -3.7432   -1.8102   -1.8592 H   0  0  0  0  0  0  0  0  0  0  0  0
   -0.6597    1.8507   -1.0815 H   0  0  0  0  0  0  0  0  0  0  0  0
    1.5768    2.9109   -1.0793 H   0  0  0  0  0  0  0  0  0  0  0  0
    4.3179    2.2615   -0.9123 H   0  0  0  0  0  0  0  0  0  0  0  0
    6.6268   -0.7504   -0.5468 H   0  0  0  0  0  0  0  0  0  0  0  0
    6.2002    0.0864   -2.5972 H   0  0  0  0  0  0  0  0  0  0  0  0
    7.6912    2.5875   -0.8753 H   0  0  0  0  0  0  0  0  0  0  0  0
    8.5337    4.0017    0.9579 H   0  0  0  0  0  0  0  0  0  0  0  0
    8.0814    3.3928    3.3200 H   0  0  0  0  0  0  0  0  0  0  0  0
    6.7764    1.3488    3.8427 H   0  0  0  0  0  0  0  0  0  0  0  0
    5.9208   -0.0788    2.0226 H   0  0  0  0  0  0  0  0  0  0  0  0
    4.1192   -1.9221   -0.5427 H   0  0  0  0  0  0  0  0  0  0  0  0
    1.1345   -2.0546   -0.6322 H   0  0  0  0  0  0  0  0  0  0  0  0
  1  2  2  0
  2  3  1  0
  4  3  1  6
  4  5  1  0
  5  6  1  0
  6  7  1  0
  7  8  1  0
  8  9  1  0
  9 10  1  0
 10 11  1  0
 10 12  1  0
  8 13  1  0
  2 14  1  0
 14 15  2  0
 15 16  1  0
 16 17  2  0
 17 18  1  0
 18 19  1  0
 19 20  1  0
 20 21  1  0
 20 22  1  0
 22 23  2  0
 23 24  1  0
 24 25  2  0
 25 26  1  0
 26 27  2  0
 19 28  2  0
 28 29  1  0
 29 30  2  0
 12  4  1  0
 30 14  1  0
 13  4  1  0
 29 17  1  0
 11  6  1  0
 27 22  1  0
  3 31  1  0
  5 32  1  0
  5 33  1  0
  6 34  1  1
  7 35  1  0
  7 36  1  0
  8 37  1  6
  9 38  1  0
  9 39  1  0
 10 40  1  1
 11 41  1  0
 11 42  1  0
 12 43  1  0
 12 44  1  0
 13 45  1  0
 13 46  1  0
 15 47  1  0
 16 48  1  0
 18 49  1  0
 20 50  1  1
 21 51  1  0
 23 52  1  0
 24 53  1  0
 25 54  1  0
 26 55  1  0
 27 56  1  0
 28 57  1  0
 30 58  1  0
M  END
>  <_SMILES>  (114) 
O=C(N[C@]12C[C@H]3C[C@H](C[C@H](C3)C1)C2)c1ccc2[nH]c([C@@H](O)c3ccccc3)cc2c1

$$$$

     RDKit          3D

 58 63  0  0  0  0  0  0  0  0999 V2000
   -1.9923    2.4434    0.2531 O   0  0  0  0  0  0  0  0  0  0  0  0
   -1.4326    1.4212   -0.1236 C   0  0  0  0  0  0  0  0  0  0  0  0
   -2.0411    0.1854   -0.2189 N   0  0  0  0  0  0  0  0  0  0  0  0
   -3.4551   -0.0687    0.0798 C   0  0  2  0  0  0  0  0  0  0  0  0
   -3.8131    0.2936    1.5437 C   0  0  0  0  0  0  0  0  0  0  0  0
   -5.2882   -0.0332    1.8377 C   0  0  1  0  0  0  0  0  0  0  0  0
   -6.1842    0.7616    0.8724 C   0  0  0  0  0  0  0  0  0  0  0  0
   -5.8633    0.3813   -0.5831 C   0  0  2  0  0  0  0  0  0  0  0  0
   -6.0980   -1.1253   -0.7765 C   0  0  0  0  0  0  0  0  0  0  0  0
   -5.1987   -1.9238    0.1803 C   0  0  2  0  0  0  0  0  0  0  0  0
   -5.5272   -1.5366    1.6303 C   0  0  0  0  0  0  0  0  0  0  0  0
   -3.7279   -1.5860   -0.1106 C   0  0  0  0  0  0  0  0  0  0  0  0
   -4.3891    0.7089   -0.8797 C   0  0  0  0  0  0  0  0  0  0  0  0
   -0.0086    1.4798   -0.5593 C   0  0  0  0  0  0  0  0  0  0  0  0
    0.4725    2.6832   -1.0871 C   0  0  0  0  0  0  0  0  0  0  0  0
    1.7980    2.8089   -1.5161 C   0  0  0  0  0  0  0  0  0  0  0  0
    2.6252    1.6879   -1.3894 C   0  0  0  0  0  0  0  0  0  0  0  0
    3.9532    1.5258   -1.7147 N   0  0  0  0  0  0  0  0  0  0  0  0
    4.3721    0.2512   -1.4132 C   0  0  0  0  0  0  0  0  0  0  0  0
    5.7744   -0.2015   -1.6694 C   0  0  2  0  0  0  0  0  0  0  0  0
    5.6774   -1.3479   -2.5097 O   0  0  0  0  0  0  0  0  0  0  0  0
    6.5377   -0.5074   -0.3961 C   0  0  0  0  0  0  0  0  0  0  0  0
    6.7672   -1.8237    0.0350 C   0  0  0  0  0  0  0  0  0  0  0  0
    7.4640   -2.0785    1.2181 C   0  0  0  0  0  0  0  0  0  0  0  0
    7.9385   -1.0212    1.9906 C   0  0  0  0  0  0  0  0  0  0  0  0
    7.7161    0.2916    1.5821 C   0  0  0  0  0  0  0  0  0  0  0  0
    7.0202    0.5475    0.3985 C   0  0  0  0  0  0  0  0  0  0  0  0
    3.2871   -0.4131   -0.8710 C   0  0  0  0  0  0  0  0  0  0  0  0
    2.1823    0.4795   -0.8550 C   0  0  0  0  0  0  0  0  0  0  0  0
    0.8449    0.3720   -0.4246 C   0  0  0  0  0  0  0  0  0  0  0  0
   -1.5610   -0.5192   -0.7625 H   0  0  0  0  0  0  0  0  0  0  0  0
   -3.6420    1.3580    1.7403 H   0  0  0  0  0  0  0  0  0  0  0  0
   -3.1629   -0.2550    2.2377 H   0  0  0  0  0  0  0  0  0  0  0  0
   -5.5268    0.2389    2.8720 H   0  0  0  0  0  0  0  0  0  0  0  0
   -7.2400    0.5561    1.0881 H   0  0  0  0  0  0  0  0  0  0  0  0
   -6.0328    1.8379    1.0206 H   0  0  0  0  0  0  0  0  0  0  0  0
   -6.5104    0.9458   -1.2638 H   0  0  0  0  0  0  0  0  0  0  0  0
   -5.8852   -1.4076   -1.8149 H   0  0  0  0  0  0  0  0  0  0  0  0
   -7.1515   -1.3674   -0.5902 H   0  0  0  0  0  0  0  0  0  0  0  0
   -5.3674   -2.9970    0.0370 H   0  0  0  0  0  0  0  0  0  0  0  0
   -4.9038   -2.1147    2.3235 H   0  0  0  0  0  0  0  0  0  0  0  0
   -6.5710   -1.7854    1.8576 H   0  0  0  0  0  0  0  0  0  0  0  0
   -3.0747   -2.1722    0.5497 H   0  0  0  0  0  0  0  0  0  0  0  0
   -3.4770   -1.8889   -1.1361 H   0  0  0  0  0  0  0  0  0  0  0  0
   -4.1532    0.4574   -1.9221 H   0  0  0  0  0  0  0  0  0  0  0  0
   -4.2360    1.7903   -0.7833 H   0  0  0  0  0  0  0  0  0  0  0  0
   -0.1940    3.5411   -1.1672 H   0  0  0  0  0  0  0  0  0  0  0  0
    2.1623    3.7463   -1.9239 H   0  0  0  0  0  0  0  0  0  0  0  0
    4.5312    2.2538   -2.1121 H   0  0  0  0  0  0  0  0  0  0  0  0
    6.3315    0.5535   -2.2375 H   0  0  0  0  0  0  0  0  0  0  0  0
    5.0039   -1.1466   -3.1797 H   0  0  0  0  0  0  0  0  0  0  0  0
    6.4018   -2.6624   -0.5545 H   0  0  0  0  0  0  0  0  0  0  0  0
    7.6340   -3.1040    1.5353 H   0  0  0  0  0  0  0  0  0  0  0  0
    8.4788   -1.2208    2.9120 H   0  0  0  0  0  0  0  0  0  0  0  0
    8.0813    1.1172    2.1873 H   0  0  0  0  0  0  0  0  0  0  0  0
    6.8505    1.5797    0.1018 H   0  0  0  0  0  0  0  0  0  0  0  0
    3.2976   -1.4376   -0.5194 H   0  0  0  0  0  0  0  0  0  0  0  0
    0.5054   -0.5531    0.0290 H   0  0  0  0  0  0  0  0  0  0  0  0
  1  2  2  0
  2  3  1  0
  4  3  1  6
  4  5  1  0
  5  6  1  0
  6  7  1  0
  7  8  1  0
  8  9  1  0
  9 10  1  0
 10 11  1  0
 10 12  1  0
  8 13  1  0
  2 14  1  0
 14 15  2  0
 15 16  1  0
 16 17  2  0
 17 18  1  0
 18 19  1  0
 19 20  1  0
 20 21  1  0
 20 22  1  0
 22 23  2  0
 23 24  1  0
 24 25  2  0
 25 26  1  0
 26 27  2  0
 19 28  2  0
 28 29  1  0
 29 30  2  0
 12  4  1  0
 30 14  1  0
 13  4  1  0
 29 17  1  0
 11  6  1  0
 27 22  1  0
  3 31  1  0
  5 32  1  0
  5 33  1  0
  6 34  1  1
  7 35  1  0
  7 36  1  0
  8 37  1  6
  9 38  1  0
  9 39  1  0
 10 40  1  1
 11 41  1  0
 11 42  1  0
 12 43  1  0
 12 44  1  0
 13 45  1  0
 13 46  1  0
 15 47  1  0
 16 48  1  0
 18 49  1  0
 20 50  1  6
 21 51  1  0
 23 52  1  0
 24 53  1  0
 25 54  1  0
 26 55  1  0
 27 56  1  0
 28 57  1  0
 30 58  1  0
M  END
>  <_SMILES>  (115) 
O=C(N[C@]12C[C@H]3C[C@H](C[C@H](C3)C1)C2)c1ccc2[nH]c([C@H](O)c3ccccc3)cc2c1

$$$$

     RDKit          3D

 56 61  0  0  0  0  0  0  0  0999 V2000
   -1.5519    0.0495   -1.6296 O   0  0  0  0  0  0  0  0  0  0  0  0
   -1.3008    0.0535   -0.4359 C   0  0  0  0  0  0  0  0  0  0  0  0
   -2.1952   -0.0153    0.5777 O   0  0  0  0  0  0  0  0  0  0  0  0
   -3.6104   -0.1071    0.3059 C   0  0  2  0  0  0  0  0  0  0  0  0
   -3.9832   -1.3952   -0.4603 C   0  0  0  0  0  0  0  0  0  0  0  0
   -5.5096   -1.4914   -0.6259 C   0  0  1  0  0  0  0  0  0  0  0  0
   -6.1676   -1.5388    0.7628 C   0  0  0  0  0  0  0  0  0  0  0  0
   -5.8195   -0.2668    1.5525 C   0  0  2  0  0  0  0  0  0  0  0  0
   -6.3346    0.9628    0.7872 C   0  0  0  0  0  0  0  0  0  0  0  0
   -5.6780    1.0302   -0.6013 C   0  0  2  0  0  0  0  0  0  0  0  0
   -6.0164   -0.2513   -1.3847 C   0  0  0  0  0  0  0  0  0  0  0  0
   -4.1521    1.1345   -0.4356 C   0  0  0  0  0  0  0  0  0  0  0  0
   -4.2937   -0.1663    1.6951 C   0  0  0  0  0  0  0  0  0  0  0  0
    0.0849    0.1380    0.1049 C   0  0  0  0  0  0  0  0  0  0  0  0
    0.3526    0.1630    1.4801 C   0  0  0  0  0  0  0  0  0  0  0  0
    1.6643    0.2445    1.9631 C   0  0  0  0  0  0  0  0  0  0  0  0
    2.6972    0.2995    1.0217 C   0  0  0  0  0  0  0  0  0  0  0  0
    4.0589    0.3845    1.2024 N   0  0  0  0  0  0  0  0  0  0  0  0
    4.7168    0.3959   -0.0080 C   0  0  0  0  0  0  0  0  0  0  0  0
    6.1708    0.5063   -0.1387 C   0  0  0  0  0  0  0  0  0  0  0  0
    6.6774    1.5539   -0.9283 C   0  0  0  0  0  0  0  0  0  0  0  0
    8.0505    1.7287   -1.1022 C   0  0  0  0  0  0  0  0  0  0  0  0
    8.9414    0.8552   -0.4918 C   0  0  0  0  0  0  0  0  0  0  0  0
    8.4573   -0.1942    0.2886 C   0  0  0  0  0  0  0  0  0  0  0  0
    7.0721   -0.3880    0.4735 C   0  0  0  0  0  0  0  0  0  0  0  0
    6.6036   -1.5499    1.3144 C   0  0  0  0  0  0  0  0  0  0  0  0
    7.6222   -2.3442    1.7569 F   0  0  0  0  0  0  0  0  0  0  0  0
    5.9550   -1.1422    2.4457 F   0  0  0  0  0  0  0  0  0  0  0  0
    5.7493   -2.3866    0.6660 F   0  0  0  0  0  0  0  0  0  0  0  0
    3.7384    0.3441   -0.9855 C   0  0  0  0  0  0  0  0  0  0  0  0
    2.4686    0.2749   -0.3510 C   0  0  0  0  0  0  0  0  0  0  0  0
    1.1431    0.1945   -0.8189 C   0  0  0  0  0  0  0  0  0  0  0  0
   -3.5962   -2.2743    0.0708 H   0  0  0  0  0  0  0  0  0  0  0  0
   -3.5121   -1.4163   -1.4491 H   0  0  0  0  0  0  0  0  0  0  0  0
   -5.7639   -2.3979   -1.1863 H   0  0  0  0  0  0  0  0  0  0  0  0
   -5.8241   -2.4254    1.3099 H   0  0  0  0  0  0  0  0  0  0  0  0
   -7.2558   -1.6301    0.6593 H   0  0  0  0  0  0  0  0  0  0  0  0
   -6.2838   -0.3074    2.5440 H   0  0  0  0  0  0  0  0  0  0  0  0
   -6.1113    1.8764    1.3518 H   0  0  0  0  0  0  0  0  0  0  0  0
   -7.4254    0.9106    0.6841 H   0  0  0  0  0  0  0  0  0  0  0  0
   -6.0512    1.9056   -1.1443 H   0  0  0  0  0  0  0  0  0  0  0  0
   -5.5617   -0.2112   -2.3822 H   0  0  0  0  0  0  0  0  0  0  0  0
   -7.1011   -0.3223   -1.5320 H   0  0  0  0  0  0  0  0  0  0  0  0
   -3.8847    2.0468    0.1130 H   0  0  0  0  0  0  0  0  0  0  0  0
   -3.6893    1.2373   -1.4232 H   0  0  0  0  0  0  0  0  0  0  0  0
   -4.0247    0.7218    2.2825 H   0  0  0  0  0  0  0  0  0  0  0  0
   -3.9083   -1.0220    2.2655 H   0  0  0  0  0  0  0  0  0  0  0  0
   -0.4591    0.1191    2.2033 H   0  0  0  0  0  0  0  0  0  0  0  0
    1.8647    0.2626    3.0298 H   0  0  0  0  0  0  0  0  0  0  0  0
    4.5116    0.4149    2.1066 H   0  0  0  0  0  0  0  0  0  0  0  0
    5.9960    2.2529   -1.4112 H   0  0  0  0  0  0  0  0  0  0  0  0
    8.4204    2.5473   -1.7145 H   0  0  0  0  0  0  0  0  0  0  0  0
   10.0125    0.9870   -0.6257 H   0  0  0  0  0  0  0  0  0  0  0  0
    9.1729   -0.8727    0.7527 H   0  0  0  0  0  0  0  0  0  0  0  0
    3.9179    0.3465   -2.0533 H   0  0  0  0  0  0  0  0  0  0  0  0
    0.9454    0.1743   -1.8879 H   0  0  0  0  0  0  0  0  0  0  0  0
  1  2  2  0
  2  3  1  0
  4  3  1  1
  4  5  1  0
  5  6  1  0
  6  7  1  0
  7  8  1  0
  8  9  1  0
  9 10  1  0
 10 11  1  0
 10 12  1  0
  8 13  1  0
  2 14  1  0
 14 15  2  0
 15 16  1  0
 16 17  2  0
 17 18  1  0
 18 19  1  0
 19 20  1  0
 20 21  2  0
 21 22  1  0
 22 23  2  0
 23 24  1  0
 24 25  2  0
 25 26  1  0
 26 27  1  0
 26 28  1  0
 26 29  1  0
 19 30  2  0
 30 31  1  0
 31 32  2  0
 12  4  1  0
 32 14  1  0
 13  4  1  0
 31 17  1  0
 11  6  1  0
 25 20  1  0
  5 33  1  0
  5 34  1  0
  6 35  1  6
  7 36  1  0
  7 37  1  0
  8 38  1  1
  9 39  1  0
  9 40  1  0
 10 41  1  6
 11 42  1  0
 11 43  1  0
 12 44  1  0
 12 45  1  0
 13 46  1  0
 13 47  1  0
 15 48  1  0
 16 49  1  0
 18 50  1  0
 21 51  1  0
 22 52  1  0
 23 53  1  0
 24 54  1  0
 30 55  1  0
 32 56  1  0
M  END
>  <_SMILES>  (116) 
O=C(O[C@]12C[C@H]3C[C@H](C[C@H](C3)C1)C2)c1ccc2[nH]c(-c3ccccc3C(F)(F)F)cc2c1

$$$$

     RDKit          3D

 53 58  0  0  0  0  0  0  0  0999 V2000
   -1.8074    2.4334   -1.8035 C   0  0  0  0  0  0  0  0  0  0  0  0
   -1.6790    0.9722   -1.7119 N   0  0  0  0  0  0  0  0  0  0  0  0
   -0.2908    0.6927   -1.6002 C   0  0  0  0  0  0  0  0  0  0  0  0
    0.3989    0.4383   -2.7928 C   0  0  0  0  0  0  0  0  0  0  0  0
    1.7672    0.1714   -2.7875 C   0  0  0  0  0  0  0  0  0  0  0  0
    2.3684    0.1871   -1.5344 C   0  0  0  0  0  0  0  0  0  0  0  0
    3.6652   -0.0294   -1.1384 N   0  0  0  0  0  0  0  0  0  0  0  0
    3.7898    0.0977    0.2310 C   0  0  0  0  0  0  0  0  0  0  0  0
    5.0571   -0.0908    0.9388 C   0  0  0  0  0  0  0  0  0  0  0  0
    6.2731    0.3128    0.3694 C   0  0  0  0  0  0  0  0  0  0  0  0
    7.4776    0.1251    1.0535 C   0  0  0  0  0  0  0  0  0  0  0  0
    7.4798   -0.4667    2.3145 C   0  0  0  0  0  0  0  0  0  0  0  0
    6.2785   -0.8676    2.8941 C   0  0  0  0  0  0  0  0  0  0  0  0
    5.0743   -0.6785    2.2109 C   0  0  0  0  0  0  0  0  0  0  0  0
    2.5223    0.3903    0.7113 C   0  0  0  0  0  0  0  0  0  0  0  0
    1.6343    0.4518   -0.3868 C   0  0  0  0  0  0  0  0  0  0  0  0
    0.3071    0.7111   -0.3950 N   0  0  0  0  0  0  0  0  0  0  0  0
   -2.5750    0.2612   -0.7528 C   0  0  2  0  0  0  0  0  0  0  0  0
   -2.6169    0.8871    0.6648 C   0  0  0  0  0  0  0  0  0  0  0  0
   -3.6011    0.1260    1.5726 C   0  0  2  0  0  0  0  0  0  0  0  0
   -3.1730   -1.3498    1.6791 C   0  0  0  0  0  0  0  0  0  0  0  0
   -3.1605   -1.9986    0.2908 C   0  0  2  0  0  0  0  0  0  0  0  0
   -2.1984   -1.2535   -0.6401 C   0  0  0  0  0  0  0  0  0  0  0  0
   -4.5526   -1.8595   -0.2934 C   0  0  0  0  0  0  0  0  0  0  0  0
   -5.2412   -2.8204   -0.6201 O   0  0  0  0  0  0  0  0  0  0  0  0
   -5.0220   -0.4242   -0.4303 C   0  0  1  0  0  0  0  0  0  0  0  0
   -5.0165    0.1969    0.9700 C   0  0  0  0  0  0  0  0  0  0  0  0
   -4.0257    0.3000   -1.3420 C   0  0  0  0  0  0  0  0  0  0  0  0
   -2.8480    2.7323   -1.9553 H   0  0  0  0  0  0  0  0  0  0  0  0
   -1.4380    2.9390   -0.9032 H   0  0  0  0  0  0  0  0  0  0  0  0
   -1.2535    2.8231   -2.6669 H   0  0  0  0  0  0  0  0  0  0  0  0
   -0.1462    0.4396   -3.7324 H   0  0  0  0  0  0  0  0  0  0  0  0
    2.3143   -0.0349   -3.6989 H   0  0  0  0  0  0  0  0  0  0  0  0
    4.4209   -0.2728   -1.7625 H   0  0  0  0  0  0  0  0  0  0  0  0
    6.2992    0.7985   -0.6023 H   0  0  0  0  0  0  0  0  0  0  0  0
    8.4132    0.4478    0.6042 H   0  0  0  0  0  0  0  0  0  0  0  0
    8.4161   -0.6114    2.8472 H   0  0  0  0  0  0  0  0  0  0  0  0
    6.2759   -1.3283    3.8786 H   0  0  0  0  0  0  0  0  0  0  0  0
    4.1489   -1.0062    2.6790 H   0  0  0  0  0  0  0  0  0  0  0  0
    2.2556    0.5543    1.7459 H   0  0  0  0  0  0  0  0  0  0  0  0
   -1.6281    0.8763    1.1346 H   0  0  0  0  0  0  0  0  0  0  0  0
   -2.9242    1.9389    0.6155 H   0  0  0  0  0  0  0  0  0  0  0  0
   -3.6057    0.5790    2.5705 H   0  0  0  0  0  0  0  0  0  0  0  0
   -3.8673   -1.8867    2.3376 H   0  0  0  0  0  0  0  0  0  0  0  0
   -2.1777   -1.4190    2.1345 H   0  0  0  0  0  0  0  0  0  0  0  0
   -2.8938   -3.0581    0.3582 H   0  0  0  0  0  0  0  0  0  0  0  0
   -1.1843   -1.3867   -0.2476 H   0  0  0  0  0  0  0  0  0  0  0  0
   -2.2113   -1.7140   -1.6374 H   0  0  0  0  0  0  0  0  0  0  0  0
   -6.0281   -0.4052   -0.8609 H   0  0  0  0  0  0  0  0  0  0  0  0
   -5.7209   -0.3359    1.6210 H   0  0  0  0  0  0  0  0  0  0  0  0
   -5.3502    1.2403    0.9189 H   0  0  0  0  0  0  0  0  0  0  0  0
   -4.0306   -0.1582   -2.3404 H   0  0  0  0  0  0  0  0  0  0  0  0
   -4.3696    1.3321   -1.4731 H   0  0  0  0  0  0  0  0  0  0  0  0
  1  2  1  0
  2  3  1  0
  3  4  1  0
  4  5  2  0
  5  6  1  0
  6  7  1  0
  7  8  1  0
  8  9  1  0
  9 10  2  0
 10 11  1  0
 11 12  2  0
 12 13  1  0
 13 14  2  0
  8 15  2  0
 15 16  1  0
 16 17  1  0
 18  2  1  6
 18 19  1  0
 19 20  1  0
 20 21  1  0
 21 22  1  0
 22 23  1  0
 22 24  1  0
 24 25  2  0
 24 26  1  0
 26 27  1  0
 26 28  1  0
 17  3  2  0
 23 18  1  0
 16  6  2  0
 28 18  1  0
 14  9  1  0
 27 20  1  0
  1 29  1  0
  1 30  1  0
  1 31  1  0
  4 32  1  0
  5 33  1  0
  7 34  1  0
 10 35  1  0
 11 36  1  0
 12 37  1  0
 13 38  1  0
 14 39  1  0
 15 40  1  0
 19 41  1  0
 19 42  1  0
 20 43  1  1
 21 44  1  0
 21 45  1  0
 22 46  1  1
 23 47  1  0
 23 48  1  0
 26 49  1  6
 27 50  1  0
 27 51  1  0
 28 52  1  0
 28 53  1  0
M  END
>  <_SMILES>  (117) 
CN(c1ccc2[nH]c(-c3ccccc3)cc2n1)[C@]12C[C@@H]3C[C@H](C1)C(=O)[C@@H](C3)C2

$$$$

     RDKit          3D

 53 58  0  0  0  0  0  0  0  0999 V2000
   -1.9494    0.3626    3.1244 C   0  0  0  0  0  0  0  0  0  0  0  0
   -1.5345    0.3261    1.7140 N   0  0  0  0  0  0  0  0  0  0  0  0
   -0.2377    0.7323    1.3950 C   0  0  0  0  0  0  0  0  0  0  0  0
    0.2378    1.9410    1.7986 C   0  0  0  0  0  0  0  0  0  0  0  0
    1.5993    2.3644    1.4847 C   0  0  0  0  0  0  0  0  0  0  0  0
    2.3929    1.5263    0.8076 C   0  0  0  0  0  0  0  0  0  0  0  0
    3.6937    1.6842    0.4233 N   0  0  0  0  0  0  0  0  0  0  0  0
    3.9918    0.5558   -0.1722 C   0  0  0  0  0  0  0  0  0  0  0  0
    5.3245    0.2740   -0.7568 C   0  0  0  0  0  0  0  0  0  0  0  0
    5.6501   -0.9556   -1.3425 C   0  0  0  0  0  0  0  0  0  0  0  0
    6.9249   -1.1647   -1.8786 C   0  0  0  0  0  0  0  0  0  0  0  0
    7.8806   -0.1511   -1.8331 C   0  0  0  0  0  0  0  0  0  0  0  0
    7.5662    1.0745   -1.2511 C   0  0  0  0  0  0  0  0  0  0  0  0
    6.2942    1.2861   -0.7149 C   0  0  0  0  0  0  0  0  0  0  0  0
    2.8916   -0.4313   -0.2265 C   0  0  0  0  0  0  0  0  0  0  0  0
    1.9107    0.2263    0.3893 C   0  0  0  0  0  0  0  0  0  0  0  0
    0.6128   -0.1001    0.6802 N   0  0  0  0  0  0  0  0  0  0  0  0
   -2.5393   -0.1179    0.7053 C   0  0  2  0  0  0  0  0  0  0  0  0
   -2.2045    0.3971   -0.7275 C   0  0  0  0  0  0  0  0  0  0  0  0
   -3.2461   -0.0797   -1.7540 C   0  0  2  0  0  0  0  0  0  0  0  0
   -4.6322    0.4593   -1.3688 C   0  0  0  0  0  0  0  0  0  0  0  0
   -5.0035   -0.0247    0.0329 C   0  0  2  0  0  0  0  0  0  0  0  0
   -3.9590    0.4316    1.0578 C   0  0  0  0  0  0  0  0  0  0  0  0
   -4.9792   -1.5445    0.0214 C   0  0  0  0  0  0  0  0  0  0  0  0
   -5.9535   -2.2289    0.3154 O   0  0  0  0  0  0  0  0  0  0  0  0
   -3.6363   -2.1433   -0.3633 C   0  0  1  0  0  0  0  0  0  0  0  0
   -3.2842   -1.6194   -1.7597 C   0  0  0  0  0  0  0  0  0  0  0  0
   -2.6084   -1.6675    0.6722 C   0  0  0  0  0  0  0  0  0  0  0  0
   -2.5624   -0.5062    3.3828 H   0  0  0  0  0  0  0  0  0  0  0  0
   -2.5151    1.2766    3.3328 H   0  0  0  0  0  0  0  0  0  0  0  0
   -1.0831    0.3391    3.7964 H   0  0  0  0  0  0  0  0  0  0  0  0
   -0.3810    2.6346    2.3551 H   0  0  0  0  0  0  0  0  0  0  0  0
    1.9475    3.3356    1.8097 H   0  0  0  0  0  0  0  0  0  0  0  0
    4.9374   -1.7711   -1.3943 H   0  0  0  0  0  0  0  0  0  0  0  0
    7.1732   -2.1215   -2.3317 H   0  0  0  0  0  0  0  0  0  0  0  0
    8.8709   -0.3164   -2.2503 H   0  0  0  0  0  0  0  0  0  0  0  0
    8.3086    1.8677   -1.2124 H   0  0  0  0  0  0  0  0  0  0  0  0
    6.0632    2.2492   -0.2630 H   0  0  0  0  0  0  0  0  0  0  0  0
    2.8766   -1.4104   -0.6582 H   0  0  0  0  0  0  0  0  0  0  0  0
    0.2965   -1.0435    0.5275 H   0  0  0  0  0  0  0  0  0  0  0  0
   -2.1543    1.4939   -0.7329 H   0  0  0  0  0  0  0  0  0  0  0  0
   -1.2259    0.0369   -1.0620 H   0  0  0  0  0  0  0  0  0  0  0  0
   -2.9756    0.2843   -2.7517 H   0  0  0  0  0  0  0  0  0  0  0  0
   -5.3778    0.1165   -2.0969 H   0  0  0  0  0  0  0  0  0  0  0  0
   -4.6306    1.5555   -1.3995 H   0  0  0  0  0  0  0  0  0  0  0  0
   -6.0022    0.3259    0.3123 H   0  0  0  0  0  0  0  0  0  0  0  0
   -4.2797    0.0798    2.0458 H   0  0  0  0  0  0  0  0  0  0  0  0
   -3.9363    1.5281    1.1055 H   0  0  0  0  0  0  0  0  0  0  0  0
   -3.7072   -3.2356   -0.3662 H   0  0  0  0  0  0  0  0  0  0  0  0
   -2.3119   -2.0173   -2.0746 H   0  0  0  0  0  0  0  0  0  0  0  0
   -4.0265   -1.9661   -2.4896 H   0  0  0  0  0  0  0  0  0  0  0  0
   -2.8810   -2.0559    1.6617 H   0  0  0  0  0  0  0  0  0  0  0  0
   -1.6268   -2.0925    0.4323 H   0  0  0  0  0  0  0  0  0  0  0  0
  1  2  1  0
  2  3  1  0
  3  4  2  0
  4  5  1  0
  5  6  2  0
  6  7  1  0
  7  8  2  0
  8  9  1  0
  9 10  2  0
 10 11  1  0
 11 12  2  0
 12 13  1  0
 13 14  2  0
  8 15  1  0
 15 16  2  0
 16 17  1  0
 18  2  1  1
 18 19  1  0
 19 20  1  0
 20 21  1  0
 21 22  1  0
 22 23  1  0
 22 24  1  0
 24 25  2  0
 24 26  1  0
 26 27  1  0
 26 28  1  0
 17  3  1  0
 23 18  1  0
 16  6  1  0
 28 18  1  0
 14  9  1  0
 27 20  1  0
  1 29  1  0
  1 30  1  0
  1 31  1  0
  4 32  1  0
  5 33  1  0
 10 34  1  0
 11 35  1  0
 12 36  1  0
 13 37  1  0
 14 38  1  0
 15 39  1  0
 17 40  1  0
 19 41  1  0
 19 42  1  0
 20 43  1  6
 21 44  1  0
 21 45  1  0
 22 46  1  1
 23 47  1  0
 23 48  1  0
 26 49  1  6
 27 50  1  0
 27 51  1  0
 28 52  1  0
 28 53  1  0
M  END
>  <_SMILES>  (118) 
CN(c1ccc2nc(-c3ccccc3)cc-2[nH]1)[C@]12C[C@@H]3C[C@H](C1)C(=O)[C@@H](C3)C2

$$$$

     RDKit          3D

 48 51  0  0  0  0  0  0  0  0999 V2000
    4.7548    1.4984    1.2395 O   0  0  0  0  0  0  0  0  0  0  0  0
    4.6235    0.5515    0.4655 C   0  0  0  0  0  0  0  0  0  0  0  0
    3.3274    0.2919   -0.2638 C   0  0  0  0  0  0  0  0  0  0  0  0
    2.3058    1.3679   -0.0338 C   0  0  0  0  0  0  0  0  0  0  0  0
    1.8054    2.0158   -1.0307 N   0  0  0  0  0  0  0  0  0  0  0  0
    0.7982    3.0100   -0.6400 C   0  0  2  0  0  0  0  0  0  0  0  0
    1.2942    3.9876    0.2627 O   0  0  0  0  0  0  0  0  0  0  0  0
   -0.4916    2.3777   -0.1333 C   0  0  0  0  0  0  0  0  0  0  0  0
   -1.0233    2.6783    1.1289 C   0  0  0  0  0  0  0  0  0  0  0  0
   -2.2070    2.0899    1.5910 C   0  0  0  0  0  0  0  0  0  0  0  0
   -2.8519    1.1837    0.7442 C   0  0  0  0  0  0  0  0  0  0  0  0
   -4.0101    0.4647    0.9271 N   0  0  0  0  0  0  0  0  0  0  0  0
   -4.2902   -0.3156   -0.1738 C   0  0  0  0  0  0  0  0  0  0  0  0
   -5.4576   -1.1949   -0.2540 C   0  0  0  0  0  0  0  0  0  0  0  0
   -6.6843   -0.8248    0.3150 C   0  0  0  0  0  0  0  0  0  0  0  0
   -7.7924   -1.6731    0.2346 C   0  0  0  0  0  0  0  0  0  0  0  0
   -7.6868   -2.9001   -0.4164 C   0  0  0  0  0  0  0  0  0  0  0  0
   -6.4756   -3.2782   -0.9906 C   0  0  0  0  0  0  0  0  0  0  0  0
   -5.3684   -2.4292   -0.9115 C   0  0  0  0  0  0  0  0  0  0  0  0
   -3.2662   -0.0888   -1.0782 C   0  0  0  0  0  0  0  0  0  0  0  0
   -2.3635    0.8544   -0.5157 C   0  0  0  0  0  0  0  0  0  0  0  0
   -1.1722    1.4595   -0.9603 C   0  0  0  0  0  0  0  0  0  0  0  0
    5.7701   -0.3824    0.2468 C   0  0  0  0  0  0  0  0  0  0  0  0
    5.6638   -1.5260   -0.5552 C   0  0  0  0  0  0  0  0  0  0  0  0
    6.7666   -2.3683   -0.7257 C   0  0  0  0  0  0  0  0  0  0  0  0
    7.9766   -2.0760   -0.0983 C   0  0  0  0  0  0  0  0  0  0  0  0
    8.0896   -0.9416    0.7025 C   0  0  0  0  0  0  0  0  0  0  0  0
    6.9907   -0.0978    0.8754 C   0  0  0  0  0  0  0  0  0  0  0  0
    3.5197    0.2146   -1.3388 H   0  0  0  0  0  0  0  0  0  0  0  0
    2.8972   -0.6430    0.1097 H   0  0  0  0  0  0  0  0  0  0  0  0
    2.0054    1.5497    1.0153 H   0  0  0  0  0  0  0  0  0  0  0  0
    0.5304    3.5660   -1.5470 H   0  0  0  0  0  0  0  0  0  0  0  0
    2.1880    4.1730   -0.0705 H   0  0  0  0  0  0  0  0  0  0  0  0
   -0.5110    3.3890    1.7763 H   0  0  0  0  0  0  0  0  0  0  0  0
   -2.6026    2.3370    2.5706 H   0  0  0  0  0  0  0  0  0  0  0  0
   -4.5677    0.4919    1.7679 H   0  0  0  0  0  0  0  0  0  0  0  0
   -6.8008    0.1368    0.8079 H   0  0  0  0  0  0  0  0  0  0  0  0
   -8.7395   -1.3717    0.6745 H   0  0  0  0  0  0  0  0  0  0  0  0
   -8.5488   -3.5591   -0.4802 H   0  0  0  0  0  0  0  0  0  0  0  0
   -6.3897   -4.2340   -1.5008 H   0  0  0  0  0  0  0  0  0  0  0  0
   -4.4299   -2.7469   -1.3595 H   0  0  0  0  0  0  0  0  0  0  0  0
   -3.1794   -0.5456   -2.0553 H   0  0  0  0  0  0  0  0  0  0  0  0
   -0.7747    1.2126   -1.9417 H   0  0  0  0  0  0  0  0  0  0  0  0
    4.7382   -1.7897   -1.0581 H   0  0  0  0  0  0  0  0  0  0  0  0
    6.6818   -3.2554   -1.3494 H   0  0  0  0  0  0  0  0  0  0  0  0
    8.8326   -2.7331   -0.2330 H   0  0  0  0  0  0  0  0  0  0  0  0
    9.0321   -0.7119    1.1935 H   0  0  0  0  0  0  0  0  0  0  0  0
    7.0932    0.7851    1.5042 H   0  0  0  0  0  0  0  0  0  0  0  0
  1  2  2  0
  2  3  1  0
  3  4  1  0
  4  5  2  0
  5  6  1  0
  6  7  1  0
  6  8  1  0
  8  9  2  0
  9 10  1  0
 10 11  2  0
 11 12  1  0
 12 13  1  0
 13 14  1  0
 14 15  2  0
 15 16  1  0
 16 17  2  0
 17 18  1  0
 18 19  2  0
 13 20  2  0
 20 21  1  0
 21 22  2  0
  2 23  1  0
 23 24  2  0
 24 25  1  0
 25 26  2  0
 26 27  1  0
 27 28  2  0
 22  8  1  0
 28 23  1  0
 21 11  1  0
 19 14  1  0
  3 29  1  0
  3 30  1  0
  4 31  1  0
  6 32  1  6
  7 33  1  0
  9 34  1  0
 10 35  1  0
 12 36  1  0
 15 37  1  0
 16 38  1  0
 17 39  1  0
 18 40  1  0
 19 41  1  0
 20 42  1  0
 22 43  1  0
 24 44  1  0
 25 45  1  0
 26 46  1  0
 27 47  1  0
 28 48  1  0
M  END
>  <_SMILES>  (119) 
O=C(C/C=N/[C@H](O)c1ccc2[nH]c(-c3ccccc3)cc2c1)c1ccccc1

$$$$

     RDKit          3D

 48 51  0  0  0  0  0  0  0  0999 V2000
   -3.0896    3.9077   -0.2398 O   0  0  0  0  0  0  0  0  0  0  0  0
   -3.4309    2.8090   -0.6779 C   0  0  0  0  0  0  0  0  0  0  0  0
   -3.5331    2.5762   -2.1643 C   0  0  0  0  0  0  0  0  0  0  0  0
   -2.4089    1.7310   -2.6795 C   0  0  0  0  0  0  0  0  0  0  0  0
   -2.6474    0.5807   -3.2126 N   0  0  0  0  0  0  0  0  0  0  0  0
   -1.4298   -0.1387   -3.6120 C   0  0  1  0  0  0  0  0  0  0  0  0
   -0.6775    0.5507   -4.5989 O   0  0  0  0  0  0  0  0  0  0  0  0
   -0.5693   -0.5468   -2.4231 C   0  0  0  0  0  0  0  0  0  0  0  0
   -1.1360   -1.3290   -1.4029 C   0  0  0  0  0  0  0  0  0  0  0  0
   -0.4081   -1.7105   -0.2705 C   0  0  0  0  0  0  0  0  0  0  0  0
    0.9217   -1.2887   -0.1896 C   0  0  0  0  0  0  0  0  0  0  0  0
    1.8657   -1.5056    0.7872 N   0  0  0  0  0  0  0  0  0  0  0  0
    3.0623   -0.9029    0.4653 C   0  0  0  0  0  0  0  0  0  0  0  0
    4.2495   -0.9783    1.3175 C   0  0  0  0  0  0  0  0  0  0  0  0
    4.1412   -0.9528    2.7151 C   0  0  0  0  0  0  0  0  0  0  0  0
    5.2817   -1.0275    3.5199 C   0  0  0  0  0  0  0  0  0  0  0  0
    6.5427   -1.1276    2.9365 C   0  0  0  0  0  0  0  0  0  0  0  0
    6.6651   -1.1489    1.5492 C   0  0  0  0  0  0  0  0  0  0  0  0
    5.5250   -1.0724    0.7449 C   0  0  0  0  0  0  0  0  0  0  0  0
    2.8699   -0.2949   -0.7637 C   0  0  0  0  0  0  0  0  0  0  0  0
    1.5297   -0.5236   -1.1796 C   0  0  0  0  0  0  0  0  0  0  0  0
    0.7761   -0.1486   -2.3095 C   0  0  0  0  0  0  0  0  0  0  0  0
   -3.7242    1.6929    0.2736 C   0  0  0  0  0  0  0  0  0  0  0  0
   -3.4295    1.8865    1.6309 C   0  0  0  0  0  0  0  0  0  0  0  0
   -3.6801    0.8766    2.5621 C   0  0  0  0  0  0  0  0  0  0  0  0
   -4.2300   -0.3334    2.1453 C   0  0  0  0  0  0  0  0  0  0  0  0
   -4.5305   -0.5338    0.7992 C   0  0  0  0  0  0  0  0  0  0  0  0
   -4.2805    0.4751   -0.1360 C   0  0  0  0  0  0  0  0  0  0  0  0
   -3.4674    3.5493   -2.6649 H   0  0  0  0  0  0  0  0  0  0  0  0
   -4.5087    2.1541   -2.4214 H   0  0  0  0  0  0  0  0  0  0  0  0
   -1.3892    2.1452   -2.5655 H   0  0  0  0  0  0  0  0  0  0  0  0
   -1.7509   -1.0727   -4.0900 H   0  0  0  0  0  0  0  0  0  0  0  0
   -1.3412    0.7954   -5.2642 H   0  0  0  0  0  0  0  0  0  0  0  0
   -2.1758   -1.6423   -1.4834 H   0  0  0  0  0  0  0  0  0  0  0  0
   -0.8669   -2.3061    0.5115 H   0  0  0  0  0  0  0  0  0  0  0  0
    1.7063   -2.0545    1.6189 H   0  0  0  0  0  0  0  0  0  0  0  0
    3.1717   -0.8511    3.1953 H   0  0  0  0  0  0  0  0  0  0  0  0
    5.1849   -1.0001    4.6021 H   0  0  0  0  0  0  0  0  0  0  0  0
    7.4298   -1.1841    3.5620 H   0  0  0  0  0  0  0  0  0  0  0  0
    7.6473   -1.2253    1.0901 H   0  0  0  0  0  0  0  0  0  0  0  0
    5.6417   -1.0987   -0.3360 H   0  0  0  0  0  0  0  0  0  0  0  0
    3.6147    0.2711   -1.3078 H   0  0  0  0  0  0  0  0  0  0  0  0
    1.2416    0.4524   -3.0863 H   0  0  0  0  0  0  0  0  0  0  0  0
   -2.9986    2.8269    1.9707 H   0  0  0  0  0  0  0  0  0  0  0  0
   -3.4461    1.0376    3.6115 H   0  0  0  0  0  0  0  0  0  0  0  0
   -4.4267   -1.1194    2.8703 H   0  0  0  0  0  0  0  0  0  0  0  0
   -4.9617   -1.4781    0.4752 H   0  0  0  0  0  0  0  0  0  0  0  0
   -4.5296    0.2782   -1.1745 H   0  0  0  0  0  0  0  0  0  0  0  0
  1  2  2  0
  2  3  1  0
  3  4  1  0
  4  5  2  0
  5  6  1  0
  6  7  1  0
  6  8  1  0
  8  9  2  0
  9 10  1  0
 10 11  2  0
 11 12  1  0
 12 13  1  0
 13 14  1  0
 14 15  2  0
 15 16  1  0
 16 17  2  0
 17 18  1  0
 18 19  2  0
 13 20  2  0
 20 21  1  0
 21 22  2  0
  2 23  1  0
 23 24  2  0
 24 25  1  0
 25 26  2  0
 26 27  1  0
 27 28  2  0
 22  8  1  0
 28 23  1  0
 21 11  1  0
 19 14  1  0
  3 29  1  0
  3 30  1  0
  4 31  1  0
  6 32  1  6
  7 33  1  0
  9 34  1  0
 10 35  1  0
 12 36  1  0
 15 37  1  0
 16 38  1  0
 17 39  1  0
 18 40  1  0
 19 41  1  0
 20 42  1  0
 22 43  1  0
 24 44  1  0
 25 45  1  0
 26 46  1  0
 27 47  1  0
 28 48  1  0
M  END
>  <_SMILES>  (120) 
O=C(C/C=N/[C@@H](O)c1ccc2[nH]c(-c3ccccc3)cc2c1)c1ccccc1

$$$$

     RDKit          3D

 48 51  0  0  0  0  0  0  0  0999 V2000
    4.8494   -0.3005    2.6610 O   0  0  0  0  0  0  0  0  0  0  0  0
    3.7832    0.2410    2.3703 C   0  0  0  0  0  0  0  0  0  0  0  0
    2.4564   -0.4375    2.6151 C   0  0  0  0  0  0  0  0  0  0  0  0
    2.6086   -1.8813    3.0159 C   0  0  0  0  0  0  0  0  0  0  0  0
    2.4869   -2.9379    2.2853 N   0  0  0  0  0  0  0  0  0  0  0  0
    2.1857   -2.8217    0.8611 C   0  0  2  0  0  0  0  0  0  0  0  0
    3.0860   -1.9688    0.1675 O   0  0  0  0  0  0  0  0  0  0  0  0
    0.7325   -2.4696    0.5667 C   0  0  0  0  0  0  0  0  0  0  0  0
   -0.2972   -3.0554    1.3215 C   0  0  0  0  0  0  0  0  0  0  0  0
   -1.6469   -2.7703    1.0827 C   0  0  0  0  0  0  0  0  0  0  0  0
   -1.9434   -1.8804    0.0467 C   0  0  0  0  0  0  0  0  0  0  0  0
   -3.1560   -1.4200   -0.4113 N   0  0  0  0  0  0  0  0  0  0  0  0
   -2.9915   -0.5522   -1.4693 C   0  0  0  0  0  0  0  0  0  0  0  0
   -4.1110    0.1013   -2.1493 C   0  0  0  0  0  0  0  0  0  0  0  0
   -5.3331   -0.5603   -2.3350 C   0  0  0  0  0  0  0  0  0  0  0  0
   -6.3963    0.0744   -2.9836 C   0  0  0  0  0  0  0  0  0  0  0  0
   -6.2495    1.3768   -3.4551 C   0  0  0  0  0  0  0  0  0  0  0  0
   -5.0393    2.0441   -3.2824 C   0  0  0  0  0  0  0  0  0  0  0  0
   -3.9760    1.4089   -2.6353 C   0  0  0  0  0  0  0  0  0  0  0  0
   -1.6262   -0.4558   -1.6802 C   0  0  0  0  0  0  0  0  0  0  0  0
   -0.9607   -1.2876   -0.7388 C   0  0  0  0  0  0  0  0  0  0  0  0
    0.3905   -1.5930   -0.4825 C   0  0  0  0  0  0  0  0  0  0  0  0
    3.7929    1.6150    1.7808 C   0  0  0  0  0  0  0  0  0  0  0  0
    2.6164    2.3236    1.5050 C   0  0  0  0  0  0  0  0  0  0  0  0
    2.6826    3.6076    0.9559 C   0  0  0  0  0  0  0  0  0  0  0  0
    3.9186    4.1910    0.6819 C   0  0  0  0  0  0  0  0  0  0  0  0
    5.0932    3.4939    0.9553 C   0  0  0  0  0  0  0  0  0  0  0  0
    5.0315    2.2110    1.5030 C   0  0  0  0  0  0  0  0  0  0  0  0
    1.8286   -0.3479    1.7309 H   0  0  0  0  0  0  0  0  0  0  0  0
    1.9607    0.0725    3.4487 H   0  0  0  0  0  0  0  0  0  0  0  0
    2.8890   -2.0449    4.0717 H   0  0  0  0  0  0  0  0  0  0  0  0
    2.3397   -3.8167    0.4251 H   0  0  0  0  0  0  0  0  0  0  0  0
    3.9559   -2.2183    0.5266 H   0  0  0  0  0  0  0  0  0  0  0  0
   -0.0460   -3.7532    2.1199 H   0  0  0  0  0  0  0  0  0  0  0  0
   -2.4263   -3.2310    1.6804 H   0  0  0  0  0  0  0  0  0  0  0  0
   -4.0471   -1.6722   -0.0100 H   0  0  0  0  0  0  0  0  0  0  0  0
   -5.4673   -1.5851   -1.9991 H   0  0  0  0  0  0  0  0  0  0  0  0
   -7.3364   -0.4521   -3.1270 H   0  0  0  0  0  0  0  0  0  0  0  0
   -7.0755    1.8696   -3.9612 H   0  0  0  0  0  0  0  0  0  0  0  0
   -4.9200    3.0596   -3.6511 H   0  0  0  0  0  0  0  0  0  0  0  0
   -3.0422    1.9505   -2.5048 H   0  0  0  0  0  0  0  0  0  0  0  0
   -1.1494    0.1437   -2.4446 H   0  0  0  0  0  0  0  0  0  0  0  0
    1.1657   -1.1422   -1.0972 H   0  0  0  0  0  0  0  0  0  0  0  0
    1.6340    1.9053    1.7035 H   0  0  0  0  0  0  0  0  0  0  0  0
    1.7669    4.1533    0.7398 H   0  0  0  0  0  0  0  0  0  0  0  0
    3.9664    5.1893    0.2536 H   0  0  0  0  0  0  0  0  0  0  0  0
    6.0586    3.9462    0.7416 H   0  0  0  0  0  0  0  0  0  0  0  0
    5.9574    1.6773    1.7103 H   0  0  0  0  0  0  0  0  0  0  0  0
  1  2  2  0
  2  3  1  0
  3  4  1  0
  4  5  2  0
  5  6  1  0
  6  7  1  0
  6  8  1  0
  8  9  2  0
  9 10  1  0
 10 11  2  0
 11 12  1  0
 12 13  1  0
 13 14  1  0
 14 15  2  0
 15 16  1  0
 16 17  2  0
 17 18  1  0
 18 19  2  0
 13 20  2  0
 20 21  1  0
 21 22  2  0
  2 23  1  0
 23 24  2  0
 24 25  1  0
 25 26  2  0
 26 27  1  0
 27 28  2  0
 22  8  1  0
 28 23  1  0
 21 11  1  0
 19 14  1  0
  3 29  1  0
  3 30  1  0
  4 31  1  0
  6 32  1  6
  7 33  1  0
  9 34  1  0
 10 35  1  0
 12 36  1  0
 15 37  1  0
 16 38  1  0
 17 39  1  0
 18 40  1  0
 19 41  1  0
 20 42  1  0
 22 43  1  0
 24 44  1  0
 25 45  1  0
 26 46  1  0
 27 47  1  0
 28 48  1  0
M  END
>  <_SMILES>  (121) 
O=C(C/C=N\[C@H](O)c1ccc2[nH]c(-c3ccccc3)cc2c1)c1ccccc1

$$$$

     RDKit          3D

 48 51  0  0  0  0  0  0  0  0999 V2000
   -3.4822   -1.9388    3.8145 O   0  0  0  0  0  0  0  0  0  0  0  0
   -3.2015   -1.4403    2.7250 C   0  0  0  0  0  0  0  0  0  0  0  0
   -2.4299   -0.1463    2.6200 C   0  0  0  0  0  0  0  0  0  0  0  0
   -1.8705    0.3043    3.9439 C   0  0  0  0  0  0  0  0  0  0  0  0
   -0.6717    0.1672    4.4011 N   0  0  0  0  0  0  0  0  0  0  0  0
    0.3455   -0.5247    3.6143 C   0  0  1  0  0  0  0  0  0  0  0  0
   -0.0611   -1.8184    3.1896 O   0  0  0  0  0  0  0  0  0  0  0  0
    0.8973    0.3023    2.4593 C   0  0  0  0  0  0  0  0  0  0  0  0
    1.1475    1.6732    2.6359 C   0  0  0  0  0  0  0  0  0  0  0  0
    1.6623    2.4721    1.6079 C   0  0  0  0  0  0  0  0  0  0  0  0
    1.9349    1.8518    0.3856 C   0  0  0  0  0  0  0  0  0  0  0  0
    2.4372    2.3728   -0.7843 N   0  0  0  0  0  0  0  0  0  0  0  0
    2.5579    1.3984   -1.7515 C   0  0  0  0  0  0  0  0  0  0  0  0
    3.0559    1.6686   -3.1012 C   0  0  0  0  0  0  0  0  0  0  0  0
    2.5264    0.9792   -4.2005 C   0  0  0  0  0  0  0  0  0  0  0  0
    2.9912    1.2319   -5.4940 C   0  0  0  0  0  0  0  0  0  0  0  0
    3.9949    2.1746   -5.7027 C   0  0  0  0  0  0  0  0  0  0  0  0
    4.5358    2.8627   -4.6190 C   0  0  0  0  0  0  0  0  0  0  0  0
    4.0696    2.6109   -3.3254 C   0  0  0  0  0  0  0  0  0  0  0  0
    2.1079    0.2233   -1.1732 C   0  0  0  0  0  0  0  0  0  0  0  0
    1.7196    0.4954    0.1670 C   0  0  0  0  0  0  0  0  0  0  0  0
    1.2048   -0.2893    1.2177 C   0  0  0  0  0  0  0  0  0  0  0  0
   -3.6524   -2.1152    1.4693 C   0  0  0  0  0  0  0  0  0  0  0  0
   -4.3160   -3.3458    1.5769 C   0  0  0  0  0  0  0  0  0  0  0  0
   -4.7595   -4.0137    0.4338 C   0  0  0  0  0  0  0  0  0  0  0  0
   -4.5442   -3.4570   -0.8249 C   0  0  0  0  0  0  0  0  0  0  0  0
   -3.8869   -2.2334   -0.9421 C   0  0  0  0  0  0  0  0  0  0  0  0
   -3.4418   -1.5610    0.2001 C   0  0  0  0  0  0  0  0  0  0  0  0
   -3.1195    0.6362    2.2842 H   0  0  0  0  0  0  0  0  0  0  0  0
   -1.6367   -0.2497    1.8824 H   0  0  0  0  0  0  0  0  0  0  0  0
   -2.5991    0.7913    4.6162 H   0  0  0  0  0  0  0  0  0  0  0  0
    1.1974   -0.6971    4.2838 H   0  0  0  0  0  0  0  0  0  0  0  0
   -0.4921   -2.1905    3.9794 H   0  0  0  0  0  0  0  0  0  0  0  0
    0.9361    2.1368    3.5992 H   0  0  0  0  0  0  0  0  0  0  0  0
    1.8445    3.5300    1.7647 H   0  0  0  0  0  0  0  0  0  0  0  0
    2.6681    3.3460   -0.9190 H   0  0  0  0  0  0  0  0  0  0  0  0
    1.7373    0.2443   -4.0607 H   0  0  0  0  0  0  0  0  0  0  0  0
    2.5684    0.6912   -6.3367 H   0  0  0  0  0  0  0  0  0  0  0  0
    4.3588    2.3689   -6.7082 H   0  0  0  0  0  0  0  0  0  0  0  0
    5.3268    3.5909   -4.7785 H   0  0  0  0  0  0  0  0  0  0  0  0
    4.5264    3.1443   -2.4961 H   0  0  0  0  0  0  0  0  0  0  0  0
    2.0721   -0.7427   -1.6597 H   0  0  0  0  0  0  0  0  0  0  0  0
    1.0421   -1.3525    1.0597 H   0  0  0  0  0  0  0  0  0  0  0  0
   -4.4898   -3.7933    2.5541 H   0  0  0  0  0  0  0  0  0  0  0  0
   -5.2710   -4.9685    0.5280 H   0  0  0  0  0  0  0  0  0  0  0  0
   -4.8878   -3.9779   -1.7154 H   0  0  0  0  0  0  0  0  0  0  0  0
   -3.7183   -1.8018   -1.9261 H   0  0  0  0  0  0  0  0  0  0  0  0
   -2.9343   -0.6105    0.0654 H   0  0  0  0  0  0  0  0  0  0  0  0
  1  2  2  0
  2  3  1  0
  3  4  1  0
  4  5  2  0
  5  6  1  0
  6  7  1  0
  6  8  1  0
  8  9  2  0
  9 10  1  0
 10 11  2  0
 11 12  1  0
 12 13  1  0
 13 14  1  0
 14 15  2  0
 15 16  1  0
 16 17  2  0
 17 18  1  0
 18 19  2  0
 13 20  2  0
 20 21  1  0
 21 22  2  0
  2 23  1  0
 23 24  2  0
 24 25  1  0
 25 26  2  0
 26 27  1  0
 27 28  2  0
 22  8  1  0
 28 23  1  0
 21 11  1  0
 19 14  1  0
  3 29  1  0
  3 30  1  0
  4 31  1  0
  6 32  1  1
  7 33  1  0
  9 34  1  0
 10 35  1  0
 12 36  1  0
 15 37  1  0
 16 38  1  0
 17 39  1  0
 18 40  1  0
 19 41  1  0
 20 42  1  0
 22 43  1  0
 24 44  1  0
 25 45  1  0
 26 46  1  0
 27 47  1  0
 28 48  1  0
M  END
>  <_SMILES>  (122) 
O=C(C/C=N\[C@@H](O)c1ccc2[nH]c(-c3ccccc3)cc2c1)c1ccccc1

$$$$

     RDKit          3D

 49 54  0  0  0  0  0  0  0  0999 V2000
   -2.1610   -1.2683   -1.8034 O   0  0  0  0  0  0  0  0  0  0  0  0
   -1.5980   -0.7417   -0.8514 C   0  0  0  0  0  0  0  0  0  0  0  0
   -2.2486   -0.0957    0.1747 N   0  0  0  0  0  0  0  0  0  0  0  0
   -3.6843    0.0966    0.2115 C   0  0  1  0  0  0  0  0  0  0  0  0
   -4.1228    1.0214    1.3673 C   0  0  0  0  0  0  0  0  0  0  0  0
   -5.4391    1.4924    0.7854 C   0  0  0  0  0  0  0  0  0  0  0  0
   -5.1461    1.9486   -0.4513 C   0  0  0  0  0  0  0  0  0  0  0  0
   -4.3183    0.8090   -1.0547 C   0  0  2  0  0  0  0  0  0  0  0  0
   -5.3866   -0.2023   -1.5348 C   0  0  0  0  0  0  0  0  0  0  0  0
   -5.8650   -0.7920   -0.1838 C   0  0  2  0  0  0  0  0  0  0  0  0
   -6.4663    0.3390    0.7360 C   0  0  0  0  0  0  0  0  0  0  0  0
   -4.4962   -1.2189    0.3707 C   0  0  0  0  0  0  0  0  0  0  0  0
   -0.1232   -0.8452   -0.7245 C   0  0  0  0  0  0  0  0  0  0  0  0
    0.4153   -2.1252   -0.9169 C   0  0  0  0  0  0  0  0  0  0  0  0
    1.7868   -2.3620   -0.8045 C   0  0  0  0  0  0  0  0  0  0  0  0
    2.6042   -1.2701   -0.5014 C   0  0  0  0  0  0  0  0  0  0  0  0
    3.9682   -1.2143   -0.3355 N   0  0  0  0  0  0  0  0  0  0  0  0
    4.3922    0.0678   -0.0568 C   0  0  0  0  0  0  0  0  0  0  0  0
    5.8066    0.4136    0.1636 C   0  0  0  0  0  0  0  0  0  0  0  0
    6.1867    1.7418    0.4116 C   0  0  0  0  0  0  0  0  0  0  0  0
    7.5286    2.0820    0.6225 C   0  0  0  0  0  0  0  0  0  0  0  0
    8.5163    1.1003    0.5894 C   0  0  0  0  0  0  0  0  0  0  0  0
    8.1622   -0.2231    0.3449 C   0  0  0  0  0  0  0  0  0  0  0  0
    6.8238   -0.5551    0.1355 C   0  0  0  0  0  0  0  0  0  0  0  0
    6.5296   -1.8458   -0.0970 F   0  0  0  0  0  0  0  0  0  0  0  0
    3.2457    0.8464   -0.0493 C   0  0  0  0  0  0  0  0  0  0  0  0
    2.1118    0.0210   -0.3223 C   0  0  0  0  0  0  0  0  0  0  0  0
    0.7184    0.2471   -0.4434 C   0  0  0  0  0  0  0  0  0  0  0  0
    0.0748    2.0303   -0.2737 Br  0  0  0  0  0  0  0  0  0  0  0  0
   -1.6928    0.3196    0.9121 H   0  0  0  0  0  0  0  0  0  0  0  0
   -3.4374    1.8651    1.5195 H   0  0  0  0  0  0  0  0  0  0  0  0
   -4.2378    0.5043    2.3255 H   0  0  0  0  0  0  0  0  0  0  0  0
   -5.9079    2.3629   -1.1094 H   0  0  0  0  0  0  0  0  0  0  0  0
   -3.6173    1.1501   -1.8189 H   0  0  0  0  0  0  0  0  0  0  0  0
   -6.2062    0.2568   -2.0986 H   0  0  0  0  0  0  0  0  0  0  0  0
   -4.9347   -0.9775   -2.1649 H   0  0  0  0  0  0  0  0  0  0  0  0
   -6.5559   -1.6303   -0.3036 H   0  0  0  0  0  0  0  0  0  0  0  0
   -7.4209    0.6964    0.3326 H   0  0  0  0  0  0  0  0  0  0  0  0
   -6.6475   -0.0466    1.7456 H   0  0  0  0  0  0  0  0  0  0  0  0
   -4.0774   -2.0385   -0.2246 H   0  0  0  0  0  0  0  0  0  0  0  0
   -4.5496   -1.5664    1.4082 H   0  0  0  0  0  0  0  0  0  0  0  0
   -0.2462   -2.9574   -1.1573 H   0  0  0  0  0  0  0  0  0  0  0  0
    2.1945   -3.3576   -0.9523 H   0  0  0  0  0  0  0  0  0  0  0  0
    4.5882   -2.0105   -0.4125 H   0  0  0  0  0  0  0  0  0  0  0  0
    5.4455    2.5362    0.4435 H   0  0  0  0  0  0  0  0  0  0  0  0
    7.7993    3.1184    0.8122 H   0  0  0  0  0  0  0  0  0  0  0  0
    9.5574    1.3667    0.7531 H   0  0  0  0  0  0  0  0  0  0  0  0
    8.9180   -1.0016    0.3149 H   0  0  0  0  0  0  0  0  0  0  0  0
    3.2131    1.9124    0.1349 H   0  0  0  0  0  0  0  0  0  0  0  0
  1  2  2  0
  2  3  1  0
  4  3  1  6
  4  5  1  0
  5  6  1  0
  6  7  2  0
  7  8  1  0
  8  9  1  0
  9 10  1  0
 10 11  1  0
 10 12  1  0
  2 13  1  0
 13 14  2  0
 14 15  1  0
 15 16  2  0
 16 17  1  0
 17 18  1  0
 18 19  1  0
 19 20  2  0
 20 21  1  0
 21 22  2  0
 22 23  1  0
 23 24  2  0
 24 25  1  0
 18 26  2  0
 26 27  1  0
 27 28  2  0
 28 29  1  0
  8  4  1  0
 28 13  1  0
 12  4  1  0
 27 16  1  0
 11  6  1  0
 24 19  1  0
  3 30  1  0
  5 31  1  0
  5 32  1  0
  7 33  1  0
  8 34  1  6
  9 35  1  0
  9 36  1  0
 10 37  1  6
 11 38  1  0
 11 39  1  0
 12 40  1  0
 12 41  1  0
 14 42  1  0
 15 43  1  0
 17 44  1  0
 20 45  1  0
 21 46  1  0
 22 47  1  0
 23 48  1  0
 26 49  1  0
M  END
>  <_SMILES>  (123) 
O=C(N[C@@]12CC3=C[C@@H]1C[C@H](C3)C2)c1ccc2[nH]c(-c3ccccc3F)cc2c1Br

$$$$

     RDKit          3D

 25 28  0  0  0  0  0  0  0  0999 V2000
    4.2798   -0.2084    0.8011 C   0  0  0  0  0  0  0  0  0  0  0  0
    3.3002    0.2209    1.6934 C   0  0  0  0  0  0  0  0  0  0  0  0
    1.9499    0.2494    1.3185 C   0  0  0  0  0  0  0  0  0  0  0  0
    1.5813   -0.1623    0.0212 C   0  0  0  0  0  0  0  0  0  0  0  0
    0.3830   -0.2884   -0.7428 C   0  0  0  0  0  0  0  0  0  0  0  0
   -1.1006    0.0396   -0.3095 C   0  0  0  0  0  0  0  0  0  0  0  0
   -2.1912   -0.1320   -1.1666 C   0  0  0  0  0  0  0  0  0  0  0  0
   -3.3434    0.2420   -0.4902 C   0  0  0  0  0  0  0  0  0  0  0  0
   -4.6950    0.3058   -0.7647 C   0  0  0  0  0  0  0  0  0  0  0  0
   -5.3617    0.7642    0.3161 N   0  0  0  0  0  0  0  0  0  0  0  0
   -4.3812    0.9741    1.2451 N   0  0  0  0  0  0  0  0  0  0  0  0
   -3.1604    0.6602    0.7632 C   0  0  0  0  0  0  0  0  0  0  0  0
   -1.5793    0.6449    1.2534 S   0  0  0  0  0  0  0  0  0  0  0  0
    0.6261   -0.7512   -1.9792 N   0  0  0  0  0  0  0  0  0  0  0  0
    1.9551   -0.9181   -2.0059 N   0  0  0  0  0  0  0  0  0  0  0  0
    2.5900   -0.5849   -0.8421 C   0  0  0  0  0  0  0  0  0  0  0  0
    3.9437   -0.6218   -0.4900 C   0  0  0  0  0  0  0  0  0  0  0  0
    5.3217   -0.2220    1.1141 H   0  0  0  0  0  0  0  0  0  0  0  0
    3.5841    0.5385    2.6942 H   0  0  0  0  0  0  0  0  0  0  0  0
    1.2104    0.5888    2.0358 H   0  0  0  0  0  0  0  0  0  0  0  0
   -2.1117   -0.4979   -2.1821 H   0  0  0  0  0  0  0  0  0  0  0  0
   -5.2451    0.0561   -1.6619 H   0  0  0  0  0  0  0  0  0  0  0  0
   -4.6398    1.3259    2.1602 H   0  0  0  0  0  0  0  0  0  0  0  0
    2.3772   -1.2673   -2.8583 H   0  0  0  0  0  0  0  0  0  0  0  0
    4.7069   -0.9562   -1.1852 H   0  0  0  0  0  0  0  0  0  0  0  0
  1  2  2  0
  2  3  1  0
  3  4  2  0
  4  5  1  0
  5  6  1  0
  6  7  2  0
  7  8  1  0
  8  9  1  0
  9 10  2  0
 10 11  1  0
 11 12  1  0
 12 13  1  0
  5 14  2  0
 14 15  1  0
 15 16  1  0
 16 17  2  0
 17  1  1  0
 16  4  1  0
 13  6  1  0
 12  8  2  0
  1 18  1  0
  2 19  1  0
  3 20  1  0
  7 21  1  0
  9 22  1  0
 11 23  1  0
 15 24  1  0
 17 25  1  0
M  END
>  <_SMILES>  (124) 
c1ccc2c(-c3cc4cn[nH]c4s3)n[nH]c2c1

$$$$

     RDKit          3D

 25 28  0  0  0  0  0  0  0  0999 V2000
   -4.0611    0.9535    0.8021 C   0  0  0  0  0  0  0  0  0  0  0  0
   -2.9033    1.2189    1.5277 C   0  0  0  0  0  0  0  0  0  0  0  0
   -1.6480    0.8099    1.0545 C   0  0  0  0  0  0  0  0  0  0  0  0
   -1.5553    0.1204   -0.1727 C   0  0  0  0  0  0  0  0  0  0  0  0
   -0.5349   -0.4536   -0.9941 C   0  0  0  0  0  0  0  0  0  0  0  0
    1.0385   -0.5036   -0.7505 C   0  0  0  0  0  0  0  0  0  0  0  0
    1.7058    0.0369    0.3686 C   0  0  0  0  0  0  0  0  0  0  0  0
    3.1021   -0.1689    0.2928 C   0  0  0  0  0  0  0  0  0  0  0  0
    4.2924    0.0301    0.9054 C   0  0  0  0  0  0  0  0  0  0  0  0
    5.2094   -0.5595    0.0337 N   0  0  0  0  0  0  0  0  0  0  0  0
    4.6310   -1.1093   -1.0833 N   0  0  0  0  0  0  0  0  0  0  0  0
    3.3719   -0.8479   -0.8779 C   0  0  0  0  0  0  0  0  0  0  0  0
    2.0964   -1.2975   -1.9618 S   0  0  0  0  0  0  0  0  0  0  0  0
   -1.0494   -1.0062   -2.1027 N   0  0  0  0  0  0  0  0  0  0  0  0
   -2.3647   -0.7940   -1.9982 N   0  0  0  0  0  0  0  0  0  0  0  0
   -2.7392   -0.1249   -0.8676 C   0  0  0  0  0  0  0  0  0  0  0  0
   -4.0023    0.2734   -0.4153 C   0  0  0  0  0  0  0  0  0  0  0  0
   -5.0244    1.2801    1.1881 H   0  0  0  0  0  0  0  0  0  0  0  0
   -2.9715    1.7504    2.4745 H   0  0  0  0  0  0  0  0  0  0  0  0
   -0.7726    1.0366    1.6503 H   0  0  0  0  0  0  0  0  0  0  0  0
    1.2195    0.5452    1.1847 H   0  0  0  0  0  0  0  0  0  0  0  0
    4.6105    0.5005    1.8236 H   0  0  0  0  0  0  0  0  0  0  0  0
    6.2177   -0.6216    0.1355 H   0  0  0  0  0  0  0  0  0  0  0  0
   -2.9643   -1.1344   -2.7409 H   0  0  0  0  0  0  0  0  0  0  0  0
   -4.9040    0.0656   -0.9826 H   0  0  0  0  0  0  0  0  0  0  0  0
  1  2  2  0
  2  3  1  0
  3  4  2  0
  4  5  1  0
  5  6  1  0
  6  7  2  0
  7  8  1  0
  8  9  2  0
  9 10  1  0
 10 11  1  0
 11 12  2  0
 12 13  1  0
  5 14  2  0
 14 15  1  0
 15 16  1  0
 16 17  2  0
 17  1  1  0
 16  4  1  0
 13  6  1  0
 12  8  1  0
  1 18  1  0
  2 19  1  0
  3 20  1  0
  7 21  1  0
  9 22  1  0
 10 23  1  0
 15 24  1  0
 17 25  1  0
M  END
>  <_SMILES>  (125) 
c1ccc2c(-c3cc4c[nH]nc4s3)n[nH]c2c1

$$$$

     RDKit          3D

 25 28  0  0  0  0  0  0  0  0999 V2000
   -4.2084   -0.6782    0.4837 C   0  0  0  0  0  0  0  0  0  0  0  0
   -3.1167   -1.5850    0.6174 C   0  0  0  0  0  0  0  0  0  0  0  0
   -1.7631   -1.2194    0.4525 C   0  0  0  0  0  0  0  0  0  0  0  0
   -1.6154    0.1355    0.1426 C   0  0  0  0  0  0  0  0  0  0  0  0
   -0.4472    0.8343   -0.0848 C   0  0  0  0  0  0  0  0  0  0  0  0
    0.9598    0.5104   -0.1001 C   0  0  0  0  0  0  0  0  0  0  0  0
    1.5941   -0.7145    0.1323 C   0  0  0  0  0  0  0  0  0  0  0  0
    2.9689   -0.5503    0.0108 C   0  0  0  0  0  0  0  0  0  0  0  0
    4.0868   -1.3542    0.1199 C   0  0  0  0  0  0  0  0  0  0  0  0
    5.1992   -0.6258   -0.1105 N   0  0  0  0  0  0  0  0  0  0  0  0
    4.7259    0.6314   -0.3600 N   0  0  0  0  0  0  0  0  0  0  0  0
    3.3790    0.6811   -0.2876 C   0  0  0  0  0  0  0  0  0  0  0  0
    2.1530    1.7760   -0.4546 S   0  0  0  0  0  0  0  0  0  0  0  0
   -0.8898    2.1124   -0.3411 N   0  0  0  0  0  0  0  0  0  0  0  0
   -2.2184    2.2927   -0.2989 N   0  0  0  0  0  0  0  0  0  0  0  0
   -2.7085    1.0823    0.0001 C   0  0  0  0  0  0  0  0  0  0  0  0
   -4.0459    0.6860    0.1709 C   0  0  0  0  0  0  0  0  0  0  0  0
   -5.2189   -1.0594    0.6309 H   0  0  0  0  0  0  0  0  0  0  0  0
   -3.3438   -2.6237    0.8620 H   0  0  0  0  0  0  0  0  0  0  0  0
   -0.9726   -1.9434    0.5642 H   0  0  0  0  0  0  0  0  0  0  0  0
    1.0986   -1.6424    0.3688 H   0  0  0  0  0  0  0  0  0  0  0  0
    4.1802   -2.4075    0.3477 H   0  0  0  0  0  0  0  0  0  0  0  0
    5.3871    1.3725   -0.5653 H   0  0  0  0  0  0  0  0  0  0  0  0
   -0.3100    2.9156   -0.5553 H   0  0  0  0  0  0  0  0  0  0  0  0
   -4.8737    1.3738    0.0694 H   0  0  0  0  0  0  0  0  0  0  0  0
  1  2  1  0
  2  3  2  0
  3  4  1  0
  4  5  2  0
  5  6  1  0
  6  7  2  0
  7  8  1  0
  8  9  1  0
  9 10  2  0
 10 11  1  0
 11 12  1  0
 12 13  1  0
  5 14  1  0
 14 15  1  0
 15 16  2  0
 16 17  1  0
 17  1  2  0
 16  4  1  0
 13  6  1  0
 12  8  2  0
  1 18  1  0
  2 19  1  0
  3 20  1  0
  7 21  1  0
  9 22  1  0
 11 23  1  0
 14 24  1  0
 17 25  1  0
M  END
>  <_SMILES>  (126) 
c1ccc2c(-c3cc4cn[nH]c4s3)[nH]nc2c1

$$$$

     RDKit          3D

 25 28  0  0  0  0  0  0  0  0999 V2000
   -4.4026    0.4988    0.4522 C   0  0  0  0  0  0  0  0  0  0  0  0
   -3.4874    0.1329    1.4801 C   0  0  0  0  0  0  0  0  0  0  0  0
   -2.0969   -0.0120    1.2829 C   0  0  0  0  0  0  0  0  0  0  0  0
   -1.7126    0.2442   -0.0386 C   0  0  0  0  0  0  0  0  0  0  0  0
   -0.4451    0.1996   -0.5925 C   0  0  0  0  0  0  0  0  0  0  0  0
    0.8995   -0.0943   -0.1250 C   0  0  0  0  0  0  0  0  0  0  0  0
    2.0748   -0.0680   -0.9280 C   0  0  0  0  0  0  0  0  0  0  0  0
    3.2398   -0.3984   -0.1986 C   0  0  0  0  0  0  0  0  0  0  0  0
    4.5810   -0.5697   -0.2536 C   0  0  0  0  0  0  0  0  0  0  0  0
    4.9177   -0.9217    1.0551 N   0  0  0  0  0  0  0  0  0  0  0  0
    3.8393   -0.9721    1.9039 N   0  0  0  0  0  0  0  0  0  0  0  0
    2.8654   -0.6510    1.1024 C   0  0  0  0  0  0  0  0  0  0  0  0
    1.2077   -0.5363    1.5856 S   0  0  0  0  0  0  0  0  0  0  0  0
   -0.6722    0.5383   -1.9085 N   0  0  0  0  0  0  0  0  0  0  0  0
   -1.9449    0.7913   -2.2429 N   0  0  0  0  0  0  0  0  0  0  0  0
   -2.6279    0.6190   -1.1045 C   0  0  0  0  0  0  0  0  0  0  0  0
   -4.0080    0.7548   -0.8751 C   0  0  0  0  0  0  0  0  0  0  0  0
   -5.4590    0.5845    0.7059 H   0  0  0  0  0  0  0  0  0  0  0  0
   -3.8856   -0.0462    2.4799 H   0  0  0  0  0  0  0  0  0  0  0  0
   -1.4505   -0.2918    2.1003 H   0  0  0  0  0  0  0  0  0  0  0  0
    2.0846    0.1768   -1.9814 H   0  0  0  0  0  0  0  0  0  0  0  0
    5.3315   -0.4923   -1.0259 H   0  0  0  0  0  0  0  0  0  0  0  0
    5.8377   -1.1353    1.4283 H   0  0  0  0  0  0  0  0  0  0  0  0
    0.0159    0.6163   -2.6461 H   0  0  0  0  0  0  0  0  0  0  0  0
   -4.7022    1.0326   -1.6558 H   0  0  0  0  0  0  0  0  0  0  0  0
  1  2  1  0
  2  3  2  0
  3  4  1  0
  4  5  2  0
  5  6  1  0
  6  7  2  0
  7  8  1  0
  8  9  2  0
  9 10  1  0
 10 11  1  0
 11 12  2  0
 12 13  1  0
  5 14  1  0
 14 15  1  0
 15 16  2  0
 16 17  1  0
 17  1  2  0
 16  4  1  0
 13  6  1  0
 12  8  1  0
  1 18  1  0
  2 19  1  0
  3 20  1  0
  7 21  1  0
  9 22  1  0
 10 23  1  0
 14 24  1  0
 17 25  1  0
M  END
>  <_SMILES>  (127) 
c1ccc2c(-c3cc4c[nH]nc4s3)[nH]nc2c1

$$$$

     RDKit          3D

 53 58  0  0  0  0  0  0  0  0999 V2000
   -1.6253    1.2580   -2.4829 O   0  0  0  0  0  0  0  0  0  0  0  0
   -0.9689    0.7815   -1.5649 C   0  0  0  0  0  0  0  0  0  0  0  0
   -1.4999    0.1304   -0.4708 N   0  0  0  0  0  0  0  0  0  0  0  0
   -2.9191   -0.1058   -0.2164 C   0  0  2  0  0  0  0  0  0  0  0  0
   -3.0585   -0.8711    1.1265 C   0  0  0  0  0  0  0  0  0  0  0  0
   -4.5347   -1.1506    1.4507 C   0  0  1  0  0  0  0  0  0  0  0  0
   -5.2898    0.1840    1.5520 C   0  0  0  0  0  0  0  0  0  0  0  0
   -5.1863    0.9478    0.2225 C   0  0  2  0  0  0  0  0  0  0  0  0
   -5.7926    0.0920   -0.9028 C   0  0  0  0  0  0  0  0  0  0  0  0
   -5.0423   -1.2463   -1.0130 C   0  0  2  0  0  0  0  0  0  0  0  0
   -5.1466   -1.9974    0.3237 C   0  0  0  0  0  0  0  0  0  0  0  0
   -3.5612   -0.9720   -1.3283 C   0  0  0  0  0  0  0  0  0  0  0  0
   -3.7052    1.2228   -0.0924 C   0  0  0  0  0  0  0  0  0  0  0  0
    0.5316    0.8694   -1.5535 C   0  0  0  0  0  0  0  0  0  0  0  0
    1.1797    1.5051   -2.6098 C   0  0  0  0  0  0  0  0  0  0  0  0
    2.5698    1.5887   -2.6042 C   0  0  0  0  0  0  0  0  0  0  0  0
    3.2062    1.0087   -1.5074 C   0  0  0  0  0  0  0  0  0  0  0  0
    4.5361    0.9070   -1.1764 N   0  0  0  0  0  0  0  0  0  0  0  0
    4.6965    0.2374    0.0203 C   0  0  0  0  0  0  0  0  0  0  0  0
    6.0052   -0.0086    0.6277 C   0  0  0  0  0  0  0  0  0  0  0  0
    7.1287   -0.2938   -0.1612 C   0  0  0  0  0  0  0  0  0  0  0  0
    8.3743   -0.5245    0.4297 C   0  0  0  0  0  0  0  0  0  0  0  0
    8.5104   -0.4739    1.8150 C   0  0  0  0  0  0  0  0  0  0  0  0
    7.4016   -0.1967    2.6108 C   0  0  0  0  0  0  0  0  0  0  0  0
    6.1560    0.0323    2.0204 C   0  0  0  0  0  0  0  0  0  0  0  0
    3.4220   -0.0812    0.4634 C   0  0  0  0  0  0  0  0  0  0  0  0
    2.4900    0.3917   -0.4880 C   0  0  0  0  0  0  0  0  0  0  0  0
    1.1391    0.2999   -0.4738 N   0  0  0  0  0  0  0  0  0  0  0  0
   -0.8097   -0.2063    0.1978 H   0  0  0  0  0  0  0  0  0  0  0  0
   -2.6045   -0.2904    1.9407 H   0  0  0  0  0  0  0  0  0  0  0  0
   -2.5042   -1.8182    1.0805 H   0  0  0  0  0  0  0  0  0  0  0  0
   -4.6092   -1.6906    2.4011 H   0  0  0  0  0  0  0  0  0  0  0  0
   -4.8732    0.7900    2.3660 H   0  0  0  0  0  0  0  0  0  0  0  0
   -6.3430    0.0010    1.7983 H   0  0  0  0  0  0  0  0  0  0  0  0
   -5.7293    1.8965    0.2987 H   0  0  0  0  0  0  0  0  0  0  0  0
   -6.8554   -0.0908   -0.7019 H   0  0  0  0  0  0  0  0  0  0  0  0
   -5.7373    0.6323   -1.8558 H   0  0  0  0  0  0  0  0  0  0  0  0
   -5.4833   -1.8524   -1.8123 H   0  0  0  0  0  0  0  0  0  0  0  0
   -6.1973   -2.2179    0.5488 H   0  0  0  0  0  0  0  0  0  0  0  0
   -4.6270   -2.9609    0.2539 H   0  0  0  0  0  0  0  0  0  0  0  0
   -3.0185   -1.9212   -1.4280 H   0  0  0  0  0  0  0  0  0  0  0  0
   -3.4893   -0.4740   -2.3025 H   0  0  0  0  0  0  0  0  0  0  0  0
   -3.6390    1.8045   -1.0195 H   0  0  0  0  0  0  0  0  0  0  0  0
   -3.2660    1.8492    0.6950 H   0  0  0  0  0  0  0  0  0  0  0  0
    0.6071    1.9311   -3.4289 H   0  0  0  0  0  0  0  0  0  0  0  0
    3.1155    2.0747   -3.4048 H   0  0  0  0  0  0  0  0  0  0  0  0
    5.2935    1.2913   -1.7233 H   0  0  0  0  0  0  0  0  0  0  0  0
    7.0475   -0.3634   -1.2426 H   0  0  0  0  0  0  0  0  0  0  0  0
    9.2368   -0.7510   -0.1920 H   0  0  0  0  0  0  0  0  0  0  0  0
    9.4787   -0.6547    2.2746 H   0  0  0  0  0  0  0  0  0  0  0  0
    7.5037   -0.1579    3.6923 H   0  0  0  0  0  0  0  0  0  0  0  0
    5.3056    0.2547    2.6609 H   0  0  0  0  0  0  0  0  0  0  0  0
    3.1810   -0.6107    1.3748 H   0  0  0  0  0  0  0  0  0  0  0  0
  1  2  2  0
  2  3  1  0
  4  3  1  6
  4  5  1  0
  5  6  1  0
  6  7  1  0
  7  8  1  0
  8  9  1  0
  9 10  1  0
 10 11  1  0
 10 12  1  0
  8 13  1  0
  2 14  1  0
 14 15  1  0
 15 16  2  0
 16 17  1  0
 17 18  1  0
 18 19  1  0
 19 20  1  0
 20 21  2  0
 21 22  1  0
 22 23  2  0
 23 24  1  0
 24 25  2  0
 19 26  2  0
 26 27  1  0
 27 28  1  0
 12  4  1  0
 28 14  2  0
 13  4  1  0
 27 17  2  0
 11  6  1  0
 25 20  1  0
  3 29  1  0
  5 30  1  0
  5 31  1  0
  6 32  1  1
  7 33  1  0
  7 34  1  0
  8 35  1  1
  9 36  1  0
  9 37  1  0
 10 38  1  6
 11 39  1  0
 11 40  1  0
 12 41  1  0
 12 42  1  0
 13 43  1  0
 13 44  1  0
 15 45  1  0
 16 46  1  0
 18 47  1  0
 21 48  1  0
 22 49  1  0
 23 50  1  0
 24 51  1  0
 25 52  1  0
 26 53  1  0
M  END
>  <_SMILES>  (128) 
O=C(N[C@]12C[C@H]3C[C@H](C[C@H](C3)C1)C2)c1ccc2[nH]c(-c3ccccc3)cc2n1

$$$$

     RDKit          3D

 53 58  0  0  0  0  0  0  0  0999 V2000
   -1.5296   -2.6447    0.1180 O   0  0  0  0  0  0  0  0  0  0  0  0
   -0.8999   -1.5961    0.1292 C   0  0  0  0  0  0  0  0  0  0  0  0
   -1.4476   -0.3336    0.0172 N   0  0  0  0  0  0  0  0  0  0  0  0
   -2.8864   -0.0577   -0.0322 C   0  0  2  0  0  0  0  0  0  0  0  0
   -3.5695   -0.7478   -1.2404 C   0  0  0  0  0  0  0  0  0  0  0  0
   -5.0667   -0.3948   -1.2909 C   0  0  1  0  0  0  0  0  0  0  0  0
   -5.7382   -0.8524    0.0153 C   0  0  0  0  0  0  0  0  0  0  0  0
   -5.0924   -0.1452    1.2189 C   0  0  2  0  0  0  0  0  0  0  0  0
   -5.2503    1.3751    1.0575 C   0  0  0  0  0  0  0  0  0  0  0  0
   -4.5742    1.8385   -0.2425 C   0  0  2  0  0  0  0  0  0  0  0  0
   -5.2261    1.1263   -1.4375 C   0  0  0  0  0  0  0  0  0  0  0  0
   -3.0819    1.4745   -0.1921 C   0  0  0  0  0  0  0  0  0  0  0  0
   -3.5955   -0.4985    1.2717 C   0  0  0  0  0  0  0  0  0  0  0  0
    0.5945   -1.5523    0.3020 C   0  0  0  0  0  0  0  0  0  0  0  0
    1.2064   -2.5859    0.9221 C   0  0  0  0  0  0  0  0  0  0  0  0
    2.6571   -2.5614    1.0924 C   0  0  0  0  0  0  0  0  0  0  0  0
    3.3512   -1.5272    0.5966 C   0  0  0  0  0  0  0  0  0  0  0  0
    4.7007   -1.3206    0.5943 N   0  0  0  0  0  0  0  0  0  0  0  0
    4.8582   -0.2052   -0.0745 C   0  0  0  0  0  0  0  0  0  0  0  0
    6.1838    0.4057   -0.3331 C   0  0  0  0  0  0  0  0  0  0  0  0
    6.3467    1.5646   -1.1023 C   0  0  0  0  0  0  0  0  0  0  0  0
    7.6233    2.0961   -1.3128 C   0  0  0  0  0  0  0  0  0  0  0  0
    8.7422    1.4758   -0.7595 C   0  0  0  0  0  0  0  0  0  0  0  0
    8.5897    0.3218    0.0051 C   0  0  0  0  0  0  0  0  0  0  0  0
    7.3165   -0.2113    0.2170 C   0  0  0  0  0  0  0  0  0  0  0  0
    3.6048    0.4157   -0.5560 C   0  0  0  0  0  0  0  0  0  0  0  0
    2.6883   -0.4335   -0.0941 C   0  0  0  0  0  0  0  0  0  0  0  0
    1.3165   -0.4523   -0.1728 N   0  0  0  0  0  0  0  0  0  0  0  0
   -0.8467    0.4165    0.3369 H   0  0  0  0  0  0  0  0  0  0  0  0
   -3.0812   -0.4419   -2.1750 H   0  0  0  0  0  0  0  0  0  0  0  0
   -3.4663   -1.8373   -1.1833 H   0  0  0  0  0  0  0  0  0  0  0  0
   -5.5357   -0.8986   -2.1436 H   0  0  0  0  0  0  0  0  0  0  0  0
   -6.8115   -0.6282   -0.0181 H   0  0  0  0  0  0  0  0  0  0  0  0
   -5.6436   -1.9398    0.1245 H   0  0  0  0  0  0  0  0  0  0  0  0
   -5.5806   -0.4707    2.1443 H   0  0  0  0  0  0  0  0  0  0  0  0
   -6.3142    1.6418    1.0421 H   0  0  0  0  0  0  0  0  0  0  0  0
   -4.8051    1.8916    1.9167 H   0  0  0  0  0  0  0  0  0  0  0  0
   -4.6872    2.9229   -0.3519 H   0  0  0  0  0  0  0  0  0  0  0  0
   -4.7636    1.4633   -2.3733 H   0  0  0  0  0  0  0  0  0  0  0  0
   -6.2897    1.3882   -1.4956 H   0  0  0  0  0  0  0  0  0  0  0  0
   -2.5828    1.8251   -1.1055 H   0  0  0  0  0  0  0  0  0  0  0  0
   -2.6021    2.0054    0.6412 H   0  0  0  0  0  0  0  0  0  0  0  0
   -3.1277   -0.0130    2.1383 H   0  0  0  0  0  0  0  0  0  0  0  0
   -3.4863   -1.5782    1.4292 H   0  0  0  0  0  0  0  0  0  0  0  0
    0.6570   -3.4458    1.2917 H   0  0  0  0  0  0  0  0  0  0  0  0
    3.1503   -3.3860    1.5911 H   0  0  0  0  0  0  0  0  0  0  0  0
    5.5039    2.0749   -1.5546 H   0  0  0  0  0  0  0  0  0  0  0  0
    7.7453    2.9956   -1.9115 H   0  0  0  0  0  0  0  0  0  0  0  0
    9.7333    1.8907   -0.9252 H   0  0  0  0  0  0  0  0  0  0  0  0
    9.4596   -0.1661    0.4375 H   0  0  0  0  0  0  0  0  0  0  0  0
    7.2136   -1.1142    0.8165 H   0  0  0  0  0  0  0  0  0  0  0  0
    3.4663    1.3226   -1.1077 H   0  0  0  0  0  0  0  0  0  0  0  0
    0.8731    0.1077   -0.8912 H   0  0  0  0  0  0  0  0  0  0  0  0
  1  2  2  0
  2  3  1  0
  4  3  1  1
  4  5  1  0
  5  6  1  0
  6  7  1  0
  7  8  1  0
  8  9  1  0
  9 10  1  0
 10 11  1  0
 10 12  1  0
  8 13  1  0
  2 14  1  0
 14 15  2  0
 15 16  1  0
 16 17  2  0
 17 18  1  0
 18 19  2  0
 19 20  1  0
 20 21  2  0
 21 22  1  0
 22 23  2  0
 23 24  1  0
 24 25  2  0
 19 26  1  0
 26 27  2  0
 27 28  1  0
 12  4  1  0
 28 14  1  0
 13  4  1  0
 27 17  1  0
 11  6  1  0
 25 20  1  0
  3 29  1  0
  5 30  1  0
  5 31  1  0
  6 32  1  6
  7 33  1  0
  7 34  1  0
  8 35  1  1
  9 36  1  0
  9 37  1  0
 10 38  1  6
 11 39  1  0
 11 40  1  0
 12 41  1  0
 12 42  1  0
 13 43  1  0
 13 44  1  0
 15 45  1  0
 16 46  1  0
 21 47  1  0
 22 48  1  0
 23 49  1  0
 24 50  1  0
 25 51  1  0
 26 52  1  0
 28 53  1  0
M  END
>  <_SMILES>  (129) 
O=C(N[C@]12C[C@H]3C[C@H](C[C@H](C3)C1)C2)c1ccc2nc(-c3ccccc3)cc-2[nH]1

$$$$

     RDKit          3D

 55 58  0  0  0  0  0  0  0  0999 V2000
   -6.4233   -0.4541    0.3796 C   0  0  0  0  0  0  0  0  0  0  0  0
   -5.6043    0.5783    1.1520 C   0  0  0  0  0  0  0  0  0  0  0  0
   -6.5599    1.5467    1.8608 C   0  0  0  0  0  0  0  0  0  0  0  0
   -4.6295    1.3921    0.2829 C   0  0  0  0  0  0  0  0  0  0  0  0
   -3.5335    0.5967   -0.3798 N   0  0  0  0  0  0  0  0  0  0  0  0
   -2.8222   -0.4234    0.4923 C   0  0  0  0  0  0  0  0  0  0  0  0
   -1.4916   -0.8211   -0.1734 C   0  0  0  0  0  0  0  0  0  0  0  0
   -1.5921   -0.9460   -1.6354 N   0  0  0  0  0  0  0  0  0  0  0  0
   -0.5293   -1.3936   -2.4282 C   0  0  0  0  0  0  0  0  0  0  0  0
   -0.6795   -1.7931   -3.5773 O   0  0  0  0  0  0  0  0  0  0  0  0
    0.8298   -1.3967   -1.8509 C   0  0  0  0  0  0  0  0  0  0  0  0
    1.4768   -2.6199   -1.6679 C   0  0  0  0  0  0  0  0  0  0  0  0
    2.7584   -2.6672   -1.1124 C   0  0  0  0  0  0  0  0  0  0  0  0
    3.3572   -1.4499   -0.7640 C   0  0  0  0  0  0  0  0  0  0  0  0
    4.5949   -1.1957   -0.2169 N   0  0  0  0  0  0  0  0  0  0  0  0
    4.7884    0.1567   -0.0383 C   0  0  0  0  0  0  0  0  0  0  0  0
    6.0193    0.7178    0.5206 C   0  0  0  0  0  0  0  0  0  0  0  0
    6.7028    0.0709    1.5599 C   0  0  0  0  0  0  0  0  0  0  0  0
    7.8783    0.6141    2.0859 C   0  0  0  0  0  0  0  0  0  0  0  0
    8.3828    1.8097    1.5796 C   0  0  0  0  0  0  0  0  0  0  0  0
    7.7118    2.4646    0.5498 C   0  0  0  0  0  0  0  0  0  0  0  0
    6.5357    1.9227    0.0249 C   0  0  0  0  0  0  0  0  0  0  0  0
    3.6492    0.7803   -0.5173 C   0  0  0  0  0  0  0  0  0  0  0  0
    2.7404   -0.2166   -0.9638 C   0  0  0  0  0  0  0  0  0  0  0  0
    1.4529   -0.1821   -1.5301 C   0  0  0  0  0  0  0  0  0  0  0  0
   -2.9415   -1.0815   -2.1902 C   0  0  0  0  0  0  0  0  0  0  0  0
   -3.8700    0.0700   -1.7744 C   0  0  0  0  0  0  0  0  0  0  0  0
   -5.7928   -1.2597   -0.0058 H   0  0  0  0  0  0  0  0  0  0  0  0
   -7.1707   -0.9219    1.0301 H   0  0  0  0  0  0  0  0  0  0  0  0
   -6.9537    0.0065   -0.4604 H   0  0  0  0  0  0  0  0  0  0  0  0
   -5.0451    0.0534    1.9356 H   0  0  0  0  0  0  0  0  0  0  0  0
   -7.1680    2.1038    1.1397 H   0  0  0  0  0  0  0  0  0  0  0  0
   -7.2376    1.0064    2.5304 H   0  0  0  0  0  0  0  0  0  0  0  0
   -6.0033    2.2699    2.4665 H   0  0  0  0  0  0  0  0  0  0  0  0
   -5.1521    1.9429   -0.5079 H   0  0  0  0  0  0  0  0  0  0  0  0
   -4.1105    2.1293    0.9078 H   0  0  0  0  0  0  0  0  0  0  0  0
   -2.7995    1.2904   -0.5821 H   0  0  0  0  0  0  0  0  0  0  0  0
   -3.4874   -1.2864    0.5946 H   0  0  0  0  0  0  0  0  0  0  0  0
   -2.6440    0.0287    1.4731 H   0  0  0  0  0  0  0  0  0  0  0  0
   -0.7423   -0.0550    0.0488 H   0  0  0  0  0  0  0  0  0  0  0  0
   -1.1338   -1.7700    0.2413 H   0  0  0  0  0  0  0  0  0  0  0  0
    0.9896   -3.5460   -1.9672 H   0  0  0  0  0  0  0  0  0  0  0  0
    3.2714   -3.6141   -0.9713 H   0  0  0  0  0  0  0  0  0  0  0  0
    5.2827   -1.9045   -0.0033 H   0  0  0  0  0  0  0  0  0  0  0  0
    6.3230   -0.8529    1.9878 H   0  0  0  0  0  0  0  0  0  0  0  0
    8.3989    0.1057    2.8937 H   0  0  0  0  0  0  0  0  0  0  0  0
    9.2982    2.2312    1.9876 H   0  0  0  0  0  0  0  0  0  0  0  0
    8.1058    3.3962    0.1511 H   0  0  0  0  0  0  0  0  0  0  0  0
    6.0365    2.4452   -0.7875 H   0  0  0  0  0  0  0  0  0  0  0  0
    3.4870    1.8504   -0.5356 H   0  0  0  0  0  0  0  0  0  0  0  0
    0.9656    0.7671   -1.7249 H   0  0  0  0  0  0  0  0  0  0  0  0
   -3.3406   -2.0368   -1.8268 H   0  0  0  0  0  0  0  0  0  0  0  0
   -2.9209   -1.1438   -3.2833 H   0  0  0  0  0  0  0  0  0  0  0  0
   -3.7427    0.9262   -2.4463 H   0  0  0  0  0  0  0  0  0  0  0  0
   -4.9153   -0.2420   -1.8046 H   0  0  0  0  0  0  0  0  0  0  0  0
  1  2  1  0
  2  3  1  0
  2  4  1  0
  4  5  1  0
  5  6  1  0
  6  7  1  0
  7  8  1  0
  8  9  1  0
  9 10  2  0
  9 11  1  0
 11 12  2  0
 12 13  1  0
 13 14  2  0
 14 15  1  0
 15 16  1  0
 16 17  1  0
 17 18  2  0
 18 19  1  0
 19 20  2  0
 20 21  1  0
 21 22  2  0
 16 23  2  0
 23 24  1  0
 24 25  2  0
  8 26  1  0
 26 27  1  0
 27  5  1  0
 25 11  1  0
 24 14  1  0
 22 17  1  0
  1 28  1  0
  1 29  1  0
  1 30  1  0
  2 31  1  0
  3 32  1  0
  3 33  1  0
  3 34  1  0
  4 35  1  0
  4 36  1  0
  5 37  1  0
  6 38  1  0
  6 39  1  0
  7 40  1  0
  7 41  1  0
 12 42  1  0
 13 43  1  0
 15 44  1  0
 18 45  1  0
 19 46  1  0
 20 47  1  0
 21 48  1  0
 22 49  1  0
 23 50  1  0
 25 51  1  0
 26 52  1  0
 26 53  1  0
 27 54  1  0
 27 55  1  0
M  CHG  1   5   1
M  END
>  <_SMILES>  (130) 
CC(C)C[NH+]1CCN(C(=O)c2ccc3[nH]c(-c4ccccc4)cc3c2)CC1

$$$$

     RDKit          3D

 56 60  0  0  0  0  0  0  0  0999 V2000
    7.3334   -0.4484    1.0068 C   0  0  0  0  0  0  0  0  0  0  0  0
    5.9659   -1.0403    0.7763 N   0  0  2  0  0  0  0  0  0  0  0  0
    5.6359   -1.1917   -0.6953 C   0  0  0  0  0  0  0  0  0  0  0  0
    5.0443    0.0772   -1.3017 C   0  0  0  0  0  0  0  0  0  0  0  0
    3.5597    0.2745   -1.0725 C   0  0  0  0  0  0  0  0  0  0  0  0
    2.8563    0.9580   -2.0857 C   0  0  0  0  0  0  0  0  0  0  0  0
    1.4864    1.1975   -1.9866 C   0  0  0  0  0  0  0  0  0  0  0  0
    0.7822    0.7473   -0.8738 C   0  0  0  0  0  0  0  0  0  0  0  0
   -0.6751    1.0333   -0.7900 C   0  0  0  0  0  0  0  0  0  0  0  0
   -1.1101    2.0565   -1.3003 O   0  0  0  0  0  0  0  0  0  0  0  0
   -1.4382    0.0795   -0.1486 N   0  0  0  0  0  0  0  0  0  0  0  0
   -2.9030    0.1361   -0.0375 C   0  0  2  0  0  0  0  0  0  0  0  0
   -3.5827    0.0702   -1.4271 C   0  0  0  0  0  0  0  0  0  0  0  0
   -5.1147    0.0723   -1.2801 C   0  0  1  0  0  0  0  0  0  0  0  0
   -5.5480   -1.1518   -0.4579 C   0  0  0  0  0  0  0  0  0  0  0  0
   -4.9050   -1.1020    0.9370 C   0  0  2  0  0  0  0  0  0  0  0  0
   -5.3483    0.1808    1.6567 C   0  0  0  0  0  0  0  0  0  0  0  0
   -4.9128    1.4122    0.8476 C   0  0  2  0  0  0  0  0  0  0  0  0
   -5.5523    1.3538   -0.5503 C   0  0  0  0  0  0  0  0  0  0  0  0
   -3.3804    1.4112    0.7033 C   0  0  0  0  0  0  0  0  0  0  0  0
   -3.3755   -1.0925    0.7869 C   0  0  0  0  0  0  0  0  0  0  0  0
    1.4687    0.0924    0.1559 C   0  0  0  0  0  0  0  0  0  0  0  0
    2.8629   -0.1299    0.0853 C   0  0  0  0  0  0  0  0  0  0  0  0
    3.5058   -0.8080    1.2775 C   0  0  0  0  0  0  0  0  0  0  0  0
    4.9170   -0.3265    1.6051 C   0  0  0  0  0  0  0  0  0  0  0  0
    8.0670   -1.0790    0.4978 H   0  0  0  0  0  0  0  0  0  0  0  0
    7.5265   -0.4529    2.0829 H   0  0  0  0  0  0  0  0  0  0  0  0
    7.3481    0.5701    0.6115 H   0  0  0  0  0  0  0  0  0  0  0  0
    6.0178   -2.0005    1.1428 H   0  0  0  0  0  0  0  0  0  0  0  0
    6.5713   -1.4606   -1.1989 H   0  0  0  0  0  0  0  0  0  0  0  0
    4.9585   -2.0485   -0.7863 H   0  0  0  0  0  0  0  0  0  0  0  0
    5.5794    0.9718   -0.9627 H   0  0  0  0  0  0  0  0  0  0  0  0
    5.2110    0.0062   -2.3850 H   0  0  0  0  0  0  0  0  0  0  0  0
    3.3724    1.3195   -2.9756 H   0  0  0  0  0  0  0  0  0  0  0  0
    0.9691    1.7352   -2.7803 H   0  0  0  0  0  0  0  0  0  0  0  0
   -1.0178   -0.8297   -0.0157 H   0  0  0  0  0  0  0  0  0  0  0  0
   -3.2602   -0.8325   -1.9625 H   0  0  0  0  0  0  0  0  0  0  0  0
   -3.2811    0.9204   -2.0505 H   0  0  0  0  0  0  0  0  0  0  0  0
   -5.5800    0.0344   -2.2714 H   0  0  0  0  0  0  0  0  0  0  0  0
   -5.2533   -2.0737   -0.9742 H   0  0  0  0  0  0  0  0  0  0  0  0
   -6.6409   -1.1738   -0.3662 H   0  0  0  0  0  0  0  0  0  0  0  0
   -5.2146   -1.9777    1.5183 H   0  0  0  0  0  0  0  0  0  0  0  0
   -6.4378    0.1820    1.7843 H   0  0  0  0  0  0  0  0  0  0  0  0
   -4.9100    0.2181    2.6616 H   0  0  0  0  0  0  0  0  0  0  0  0
   -5.2338    2.3244    1.3629 H   0  0  0  0  0  0  0  0  0  0  0  0
   -5.2598    2.2356   -1.1334 H   0  0  0  0  0  0  0  0  0  0  0  0
   -6.6454    1.3788   -0.4622 H   0  0  0  0  0  0  0  0  0  0  0  0
   -3.0768    2.3172    0.1669 H   0  0  0  0  0  0  0  0  0  0  0  0
   -2.9112    1.4695    1.6942 H   0  0  0  0  0  0  0  0  0  0  0  0
   -3.0482   -2.0217    0.3012 H   0  0  0  0  0  0  0  0  0  0  0  0
   -2.9049   -1.0843    1.7792 H   0  0  0  0  0  0  0  0  0  0  0  0
    0.9177   -0.2069    1.0468 H   0  0  0  0  0  0  0  0  0  0  0  0
    3.4779   -1.8949    1.1343 H   0  0  0  0  0  0  0  0  0  0  0  0
    2.8925   -0.5944    2.1631 H   0  0  0  0  0  0  0  0  0  0  0  0
    5.1574   -0.5671    2.6469 H   0  0  0  0  0  0  0  0  0  0  0  0
    5.0373    0.7532    1.4589 H   0  0  0  0  0  0  0  0  0  0  0  0
  1  2  1  0
  2  3  1  0
  3  4  1  0
  4  5  1  0
  5  6  1  0
  6  7  2  0
  7  8  1  0
  8  9  1  0
  9 10  2  0
  9 11  1  0
 12 11  1  6
 12 13  1  0
 13 14  1  0
 14 15  1  0
 15 16  1  0
 16 17  1  0
 17 18  1  0
 18 19  1  0
 18 20  1  0
 16 21  1  0
  8 22  2  0
 22 23  1  0
 23 24  1  0
 24 25  1  0
 25  2  1  0
 23  5  2  0
 20 12  1  0
 21 12  1  0
 19 14  1  0
  1 26  1  0
  1 27  1  0
  1 28  1  0
  2 29  1  1
  3 30  1  0
  3 31  1  0
  4 32  1  0
  4 33  1  0
  6 34  1  0
  7 35  1  0
 11 36  1  0
 13 37  1  0
 13 38  1  0
 14 39  1  6
 15 40  1  0
 15 41  1  0
 16 42  1  1
 17 43  1  0
 17 44  1  0
 18 45  1  1
 19 46  1  0
 19 47  1  0
 20 48  1  0
 20 49  1  0
 21 50  1  0
 21 51  1  0
 22 52  1  0
 24 53  1  0
 24 54  1  0
 25 55  1  0
 25 56  1  0
M  CHG  1   2   1
M  END
>  <_SMILES>  (131) 
C[N@@H+]1CCc2ccc(C(=O)N[C@]34C[C@H]5C[C@H](C[C@H](C5)C3)C4)cc2CC1

$$$$

     RDKit          3D

 56 60  0  0  0  0  0  0  0  0999 V2000
    5.9376   -1.3542    0.3129 C   0  0  0  0  0  0  0  0  0  0  0  0
    5.8449    0.0053    0.9594 N   0  0  1  0  0  0  0  0  0  0  0  0
    6.0135    1.1587   -0.0005 C   0  0  0  0  0  0  0  0  0  0  0  0
    5.0853    1.1092   -1.2182 C   0  0  0  0  0  0  0  0  0  0  0  0
    3.6299    0.7263   -1.0563 C   0  0  0  0  0  0  0  0  0  0  0  0
    2.9478    0.3636   -2.2361 C   0  0  0  0  0  0  0  0  0  0  0  0
    1.6112   -0.0322   -2.2109 C   0  0  0  0  0  0  0  0  0  0  0  0
    0.9162   -0.0455   -1.0051 C   0  0  0  0  0  0  0  0  0  0  0  0
   -0.4974   -0.5022   -1.0026 C   0  0  0  0  0  0  0  0  0  0  0  0
   -0.8313   -1.3967   -1.7672 O   0  0  0  0  0  0  0  0  0  0  0  0
   -1.3356    0.1558   -0.1272 N   0  0  0  0  0  0  0  0  0  0  0  0
   -2.7835   -0.0820   -0.0393 C   0  0  2  0  0  0  0  0  0  0  0  0
   -3.3571    0.8219    1.0859 C   0  0  0  0  0  0  0  0  0  0  0  0
   -4.8753    0.6297    1.2287 C   0  0  1  0  0  0  0  0  0  0  0  0
   -5.5558    0.9860   -0.1024 C   0  0  0  0  0  0  0  0  0  0  0  0
   -5.0214    0.0816   -1.2243 C   0  0  2  0  0  0  0  0  0  0  0  0
   -5.3071   -1.3878   -0.8702 C   0  0  0  0  0  0  0  0  0  0  0  0
   -4.6291   -1.7536    0.4613 C   0  0  2  0  0  0  0  0  0  0  0  0
   -5.1668   -0.8389    1.5726 C   0  0  0  0  0  0  0  0  0  0  0  0
   -3.1091   -1.5525    0.3269 C   0  0  0  0  0  0  0  0  0  0  0  0
   -3.5019    0.2842   -1.3610 C   0  0  0  0  0  0  0  0  0  0  0  0
    1.5718    0.3211    0.1757 C   0  0  0  0  0  0  0  0  0  0  0  0
    2.9287    0.7071    0.1638 C   0  0  0  0  0  0  0  0  0  0  0  0
    3.5715    1.0866    1.4715 C   0  0  0  0  0  0  0  0  0  0  0  0
    4.6748    0.1265    1.9197 C   0  0  0  0  0  0  0  0  0  0  0  0
    6.0710   -2.0914    1.1096 H   0  0  0  0  0  0  0  0  0  0  0  0
    5.0216   -1.5569   -0.2448 H   0  0  0  0  0  0  0  0  0  0  0  0
    6.8114   -1.3593   -0.3438 H   0  0  0  0  0  0  0  0  0  0  0  0
    6.6782    0.0490    1.5610 H   0  0  0  0  0  0  0  0  0  0  0  0
    7.0578    1.1314   -0.3350 H   0  0  0  0  0  0  0  0  0  0  0  0
    5.8985    2.0839    0.5735 H   0  0  0  0  0  0  0  0  0  0  0  0
    5.1203    2.0920   -1.7061 H   0  0  0  0  0  0  0  0  0  0  0  0
    5.5338    0.4018   -1.9300 H   0  0  0  0  0  0  0  0  0  0  0  0
    3.4594    0.3760   -3.1989 H   0  0  0  0  0  0  0  0  0  0  0  0
    1.1122   -0.3278   -3.1329 H   0  0  0  0  0  0  0  0  0  0  0  0
   -1.0079    1.0395    0.2392 H   0  0  0  0  0  0  0  0  0  0  0  0
   -3.1389    1.8767    0.8711 H   0  0  0  0  0  0  0  0  0  0  0  0
   -2.8626    0.5958    2.0402 H   0  0  0  0  0  0  0  0  0  0  0  0
   -5.2574    1.2786    2.0246 H   0  0  0  0  0  0  0  0  0  0  0  0
   -5.3700    2.0386   -0.3489 H   0  0  0  0  0  0  0  0  0  0  0  0
   -6.6425    0.8675   -0.0112 H   0  0  0  0  0  0  0  0  0  0  0  0
   -5.5136    0.3363   -2.1696 H   0  0  0  0  0  0  0  0  0  0  0  0
   -6.3894   -1.5503   -0.7952 H   0  0  0  0  0  0  0  0  0  0  0  0
   -4.9416   -2.0439   -1.6696 H   0  0  0  0  0  0  0  0  0  0  0  0
   -4.8420   -2.7995    0.7093 H   0  0  0  0  0  0  0  0  0  0  0  0
   -4.7011   -1.0996    2.5310 H   0  0  0  0  0  0  0  0  0  0  0  0
   -6.2468   -0.9889    1.6921 H   0  0  0  0  0  0  0  0  0  0  0  0
   -2.7287   -2.2430   -0.4344 H   0  0  0  0  0  0  0  0  0  0  0  0
   -2.6108   -1.8265    1.2660 H   0  0  0  0  0  0  0  0  0  0  0  0
   -3.1311   -0.3300   -2.1903 H   0  0  0  0  0  0  0  0  0  0  0  0
   -3.2870    1.3265   -1.6311 H   0  0  0  0  0  0  0  0  0  0  0  0
    1.0251    0.2761    1.1166 H   0  0  0  0  0  0  0  0  0  0  0  0
    3.9281    2.1212    1.4128 H   0  0  0  0  0  0  0  0  0  0  0  0
    2.8122    1.1049    2.2646 H   0  0  0  0  0  0  0  0  0  0  0  0
    5.1021    0.4839    2.8637 H   0  0  0  0  0  0  0  0  0  0  0  0
    4.2780   -0.8804    2.0939 H   0  0  0  0  0  0  0  0  0  0  0  0
  1  2  1  0
  2  3  1  0
  3  4  1  0
  4  5  1  0
  5  6  1  0
  6  7  2  0
  7  8  1  0
  8  9  1  0
  9 10  2  0
  9 11  1  0
 12 11  1  6
 12 13  1  0
 13 14  1  0
 14 15  1  0
 15 16  1  0
 16 17  1  0
 17 18  1  0
 18 19  1  0
 18 20  1  0
 16 21  1  0
  8 22  2  0
 22 23  1  0
 23 24  1  0
 24 25  1  0
 25  2  1  0
 23  5  2  0
 20 12  1  0
 21 12  1  0
 19 14  1  0
  1 26  1  0
  1 27  1  0
  1 28  1  0
  2 29  1  1
  3 30  1  0
  3 31  1  0
  4 32  1  0
  4 33  1  0
  6 34  1  0
  7 35  1  0
 11 36  1  0
 13 37  1  0
 13 38  1  0
 14 39  1  1
 15 40  1  0
 15 41  1  0
 16 42  1  6
 17 43  1  0
 17 44  1  0
 18 45  1  1
 19 46  1  0
 19 47  1  0
 20 48  1  0
 20 49  1  0
 21 50  1  0
 21 51  1  0
 22 52  1  0
 24 53  1  0
 24 54  1  0
 25 55  1  0
 25 56  1  0
M  CHG  1   2   1
M  END
>  <_SMILES>  (132) 
C[N@H+]1CCc2ccc(C(=O)N[C@]34C[C@H]5C[C@H](C[C@H](C5)C3)C4)cc2CC1

$$$$

     RDKit          3D

 51 56  0  0  0  0  0  0  0  0999 V2000
   -1.3549    2.1038   -0.2228 O   0  0  0  0  0  0  0  0  0  0  0  0
   -1.1636    0.9102   -0.4229 C   0  0  0  0  0  0  0  0  0  0  0  0
   -2.1385    0.0434   -0.8767 N   0  0  0  0  0  0  0  0  0  0  0  0
   -3.4723    0.5129   -1.1896 C   0  0  1  0  0  0  0  0  0  0  0  0
   -4.3322   -0.5464   -1.8972 C   0  0  0  0  0  0  0  0  0  0  0  0
   -5.6802   -0.5522   -1.1737 C   0  0  1  0  0  0  0  0  0  0  0  0
   -5.7370   -1.5605   -0.0050 C   0  0  0  0  0  0  0  0  0  0  0  0
   -5.6419   -0.6529    1.2302 C   0  0  2  0  0  0  0  0  0  0  0  0
   -6.5320    0.5187    0.8230 C   0  0  0  0  0  0  0  0  0  0  0  0
   -5.7475    0.8055   -0.4459 C   0  0  1  0  0  0  0  0  0  0  0  0
   -4.2898    0.9506    0.0336 C   0  0  1  0  0  0  0  0  0  0  0  0
   -4.2497   -0.0017    1.2533 C   0  0  0  0  0  0  0  0  0  0  0  0
    0.1881    0.3218   -0.2167 C   0  0  0  0  0  0  0  0  0  0  0  0
    0.3535   -1.0121    0.1756 C   0  0  0  0  0  0  0  0  0  0  0  0
    1.6298   -1.5544    0.3662 C   0  0  0  0  0  0  0  0  0  0  0  0
    2.7275   -0.7119    0.1571 C   0  0  0  0  0  0  0  0  0  0  0  0
    4.0757   -0.9637    0.2725 N   0  0  0  0  0  0  0  0  0  0  0  0
    4.8182    0.1586   -0.0235 C   0  0  0  0  0  0  0  0  0  0  0  0
    6.2807    0.1850    0.0282 C   0  0  0  0  0  0  0  0  0  0  0  0
    6.9509    1.3325    0.4730 C   0  0  0  0  0  0  0  0  0  0  0  0
    8.3467    1.3673    0.5303 C   0  0  0  0  0  0  0  0  0  0  0  0
    9.0888    0.2556    0.1389 C   0  0  0  0  0  0  0  0  0  0  0  0
    8.4365   -0.8898   -0.3118 C   0  0  0  0  0  0  0  0  0  0  0  0
    7.0402   -0.9251   -0.3674 C   0  0  0  0  0  0  0  0  0  0  0  0
    3.9074    1.1587   -0.3185 C   0  0  0  0  0  0  0  0  0  0  0  0
    2.5948    0.6231   -0.2155 C   0  0  0  0  0  0  0  0  0  0  0  0
    1.3042    1.1534   -0.4004 C   0  0  0  0  0  0  0  0  0  0  0  0
   -1.8455   -0.8500   -1.2479 H   0  0  0  0  0  0  0  0  0  0  0  0
   -3.3624    1.3733   -1.8635 H   0  0  0  0  0  0  0  0  0  0  0  0
   -4.4773   -0.2432   -2.9414 H   0  0  0  0  0  0  0  0  0  0  0  0
   -3.8727   -1.5404   -1.9169 H   0  0  0  0  0  0  0  0  0  0  0  0
   -6.5154   -0.7180   -1.8616 H   0  0  0  0  0  0  0  0  0  0  0  0
   -6.7024   -2.0806   -0.0123 H   0  0  0  0  0  0  0  0  0  0  0  0
   -4.9460   -2.3163   -0.0371 H   0  0  0  0  0  0  0  0  0  0  0  0
   -5.9162   -1.1465    2.1643 H   0  0  0  0  0  0  0  0  0  0  0  0
   -7.5685    0.2251    0.6287 H   0  0  0  0  0  0  0  0  0  0  0  0
   -6.5076    1.3468    1.5385 H   0  0  0  0  0  0  0  0  0  0  0  0
   -6.1038    1.6326   -1.0640 H   0  0  0  0  0  0  0  0  0  0  0  0
   -4.0474    1.9719    0.3461 H   0  0  0  0  0  0  0  0  0  0  0  0
   -3.4443   -0.7409    1.2208 H   0  0  0  0  0  0  0  0  0  0  0  0
   -4.1292    0.5857    2.1714 H   0  0  0  0  0  0  0  0  0  0  0  0
   -0.5103   -1.6435    0.3683 H   0  0  0  0  0  0  0  0  0  0  0  0
    1.7567   -2.5867    0.6763 H   0  0  0  0  0  0  0  0  0  0  0  0
    4.4672   -1.8481    0.5614 H   0  0  0  0  0  0  0  0  0  0  0  0
    6.3905    2.2086    0.7912 H   0  0  0  0  0  0  0  0  0  0  0  0
    8.8519    2.2634    0.8813 H   0  0  0  0  0  0  0  0  0  0  0  0
   10.1745    0.2838    0.1810 H   0  0  0  0  0  0  0  0  0  0  0  0
    9.0145   -1.7546   -0.6271 H   0  0  0  0  0  0  0  0  0  0  0  0
    6.5581   -1.8227   -0.7452 H   0  0  0  0  0  0  0  0  0  0  0  0
    4.1584    2.1756   -0.5919 H   0  0  0  0  0  0  0  0  0  0  0  0
    1.1739    2.1944   -0.6851 H   0  0  0  0  0  0  0  0  0  0  0  0
  1  2  2  0
  2  3  1  0
  3  4  1  0
  4  5  1  0
  5  6  1  0
  6  7  1  0
  7  8  1  0
  8  9  1  0
  9 10  1  0
 10 11  1  0
 11 12  1  0
  2 13  1  0
 13 14  2  0
 14 15  1  0
 15 16  2  0
 16 17  1  0
 17 18  1  0
 18 19  1  0
 19 20  2  0
 20 21  1  0
 21 22  2  0
 22 23  1  0
 23 24  2  0
 18 25  2  0
 25 26  1  0
 26 27  2  0
 11  4  1  0
 27 13  1  0
 10  6  1  0
 26 16  1  0
 12  8  1  0
 24 19  1  0
  3 28  1  0
  4 29  1  6
  5 30  1  0
  5 31  1  0
  6 32  1  6
  7 33  1  0
  7 34  1  0
  8 35  1  1
  9 36  1  0
  9 37  1  0
 10 38  1  6
 11 39  1  1
 12 40  1  0
 12 41  1  0
 14 42  1  0
 15 43  1  0
 17 44  1  0
 20 45  1  0
 21 46  1  0
 22 47  1  0
 23 48  1  0
 24 49  1  0
 25 50  1  0
 27 51  1  0
M  END
>  <_SMILES>  (133) 
O=C(N[C@H]1C[C@H]2C[C@@H]3C[C@H]2[C@H]1C3)c1ccc2[nH]c(-c3ccccc3)cc2c1

$$$$

     RDKit          3D

 55 60  0  0  0  0  0  0  0  0999 V2000
   -1.0315   -1.3487    0.1483 O   0  0  0  0  0  0  0  0  0  0  0  0
   -0.9420   -0.2336   -0.3493 C   0  0  0  0  0  0  0  0  0  0  0  0
   -2.0131    0.5873   -0.6373 N   0  0  0  0  0  0  0  0  0  0  0  0
   -3.4132    0.2546   -0.3470 C   0  0  2  0  0  0  0  0  0  0  0  0
   -3.6582    0.0989    1.1740 C   0  0  0  0  0  0  0  0  0  0  0  0
   -5.1429   -0.1928    1.4555 C   0  0  1  0  0  0  0  0  0  0  0  0
   -5.9978    0.9726    0.9330 C   0  0  0  0  0  0  0  0  0  0  0  0
   -5.7917    1.1374   -0.5810 C   0  0  2  0  0  0  0  0  0  0  0  0
   -6.2028   -0.1593   -1.2951 C   0  0  0  0  0  0  0  0  0  0  0  0
   -5.3485   -1.3306   -0.7863 C   0  0  2  0  0  0  0  0  0  0  0  0
   -5.5518   -1.4864    0.7305 C   0  0  0  0  0  0  0  0  0  0  0  0
   -3.8641   -1.0398   -1.0706 C   0  0  0  0  0  0  0  0  0  0  0  0
   -4.3065    1.4171   -0.8601 C   0  0  0  0  0  0  0  0  0  0  0  0
    0.4067    0.3278   -0.6402 C   0  0  0  0  0  0  0  0  0  0  0  0
    0.6178    1.2340   -1.6845 C   0  0  0  0  0  0  0  0  0  0  0  0
    1.8977    1.7304   -1.9193 C   0  0  0  0  0  0  0  0  0  0  0  0
    2.9654    1.3145   -1.1192 C   0  0  0  0  0  0  0  0  0  0  0  0
    2.7843    0.3880   -0.0763 C   0  0  0  0  0  0  0  0  0  0  0  0
    3.9543   -0.0157    0.7203 C   0  0  0  0  0  0  0  0  0  0  0  0
    5.1623    0.5094    0.6160 N   0  0  0  0  0  0  0  0  0  0  0  0
    6.0149   -0.1307    1.5114 C   0  0  0  0  0  0  0  0  0  0  0  0
    7.4535    0.2753    1.5932 C   0  0  0  0  0  0  0  0  0  0  0  0
    8.4418   -0.3617    0.6473 C   0  0  0  0  0  0  0  0  0  0  0  0
    8.3489   -1.8095    0.2317 C   0  0  0  0  0  0  0  0  0  0  0  0
    8.0895   -0.7205   -0.7757 C   0  0  0  0  0  0  0  0  0  0  0  0
    5.5309   -1.0909    2.3032 N   0  0  0  0  0  0  0  0  0  0  0  0
    3.9201   -1.2587    1.9129 S   0  0  0  0  0  0  0  0  0  0  0  0
    1.4876   -0.0999    0.1487 C   0  0  0  0  0  0  0  0  0  0  0  0
   -1.8102    1.5625   -0.8116 H   0  0  0  0  0  0  0  0  0  0  0  0
   -3.0488   -0.7137    1.5870 H   0  0  0  0  0  0  0  0  0  0  0  0
   -3.3505    1.0115    1.7012 H   0  0  0  0  0  0  0  0  0  0  0  0
   -5.2975   -0.3091    2.5341 H   0  0  0  0  0  0  0  0  0  0  0  0
   -5.7251    1.8998    1.4519 H   0  0  0  0  0  0  0  0  0  0  0  0
   -7.0571    0.7867    1.1489 H   0  0  0  0  0  0  0  0  0  0  0  0
   -6.4008    1.9708   -0.9485 H   0  0  0  0  0  0  0  0  0  0  0  0
   -7.2655   -0.3649   -1.1170 H   0  0  0  0  0  0  0  0  0  0  0  0
   -6.0776   -0.0468   -2.3790 H   0  0  0  0  0  0  0  0  0  0  0  0
   -5.6474   -2.2536   -1.2958 H   0  0  0  0  0  0  0  0  0  0  0  0
   -4.9572   -2.3292    1.1038 H   0  0  0  0  0  0  0  0  0  0  0  0
   -6.6023   -1.7185    0.9447 H   0  0  0  0  0  0  0  0  0  0  0  0
   -3.2682   -1.9009   -0.7477 H   0  0  0  0  0  0  0  0  0  0  0  0
   -3.7023   -0.9430   -2.1522 H   0  0  0  0  0  0  0  0  0  0  0  0
   -4.1524    1.5638   -1.9376 H   0  0  0  0  0  0  0  0  0  0  0  0
   -4.0132    2.3596   -0.3783 H   0  0  0  0  0  0  0  0  0  0  0  0
   -0.1943    1.5393   -2.3383 H   0  0  0  0  0  0  0  0  0  0  0  0
    2.0722    2.4331   -2.7308 H   0  0  0  0  0  0  0  0  0  0  0  0
    3.9591    1.7145   -1.3230 H   0  0  0  0  0  0  0  0  0  0  0  0
    7.5046    1.3615    1.4434 H   0  0  0  0  0  0  0  0  0  0  0  0
    7.8110    0.1011    2.6165 H   0  0  0  0  0  0  0  0  0  0  0  0
    9.4379    0.0347    0.8205 H   0  0  0  0  0  0  0  0  0  0  0  0
    9.2721   -2.3720    0.1449 H   0  0  0  0  0  0  0  0  0  0  0  0
    7.5060   -2.4056    0.5631 H   0  0  0  0  0  0  0  0  0  0  0  0
    8.8381   -0.5498   -1.5415 H   0  0  0  0  0  0  0  0  0  0  0  0
    7.0717   -0.5837   -1.1229 H   0  0  0  0  0  0  0  0  0  0  0  0
    1.2860   -0.8168    0.9424 H   0  0  0  0  0  0  0  0  0  0  0  0
  1  2  2  0
  2  3  1  0
  4  3  1  1
  4  5  1  0
  5  6  1  0
  6  7  1  0
  7  8  1  0
  8  9  1  0
  9 10  1  0
 10 11  1  0
 10 12  1  0
  8 13  1  0
  2 14  1  0
 14 15  1  0
 15 16  2  0
 16 17  1  0
 17 18  2  0
 18 19  1  0
 19 20  2  0
 20 21  1  0
 21 22  1  0
 22 23  1  0
 23 24  1  0
 24 25  1  0
 21 26  2  0
 26 27  1  0
 18 28  1  0
 12  4  1  0
 28 14  2  0
 13  4  1  0
 27 19  1  0
 11  6  1  0
 25 23  1  0
  3 29  1  0
  5 30  1  0
  5 31  1  0
  6 32  1  1
  7 33  1  0
  7 34  1  0
  8 35  1  6
  9 36  1  0
  9 37  1  0
 10 38  1  6
 11 39  1  0
 11 40  1  0
 12 41  1  0
 12 42  1  0
 13 43  1  0
 13 44  1  0
 15 45  1  0
 16 46  1  0
 17 47  1  0
 22 48  1  0
 22 49  1  0
 23 50  1  0
 24 51  1  0
 24 52  1  0
 25 53  1  0
 25 54  1  0
 28 55  1  0
M  END
>  <_SMILES>  (134) 
O=C(N[C@]12C[C@H]3C[C@H](C[C@H](C3)C1)C2)c1cccc(-c2nc(CC3CC3)ns2)c1

$$$$

     RDKit          3D

 47 52  0  0  0  0  0  0  0  0999 V2000
    2.6061   -0.1753   -1.2626 O   0  0  0  0  0  0  0  0  0  0  0  0
    2.0794   -0.8101   -0.3789 C   0  0  0  0  0  0  0  0  0  0  0  0
    0.8480   -1.7129   -0.2498 C   0  0  2  0  0  0  0  0  0  0  0  0
   -0.5496   -1.0113   -0.4861 C   0  0  0  0  0  0  0  0  0  0  0  0
   -0.7073    0.1837   -1.2184 C   0  0  0  0  0  0  0  0  0  0  0  0
   -1.9482    0.8039   -1.4290 C   0  0  0  0  0  0  0  0  0  0  0  0
   -3.0750    0.1881   -0.8851 C   0  0  0  0  0  0  0  0  0  0  0  0
   -4.4009    0.5541   -0.9272 N   0  0  0  0  0  0  0  0  0  0  0  0
   -5.1676   -0.3603   -0.2551 C   0  0  0  0  0  0  0  0  0  0  0  0
   -6.7029   -0.2789   -0.0917 C   0  0  0  0  0  0  0  0  0  0  0  0
   -7.5801    0.7160   -0.5840 C   0  0  0  0  0  0  0  0  0  0  0  0
   -8.8416    0.3433   -0.1782 C   0  0  0  0  0  0  0  0  0  0  0  0
   -8.7920   -0.8147    0.5301 O   0  0  0  0  0  0  0  0  0  0  0  0
   -7.4857   -1.1889    0.5791 C   0  0  0  0  0  0  0  0  0  0  0  0
   -4.3261   -1.3367    0.2301 C   0  0  0  0  0  0  0  0  0  0  0  0
   -3.0010   -0.9980   -0.1622 C   0  0  0  0  0  0  0  0  0  0  0  0
   -1.7368   -1.5918    0.0273 C   0  0  0  0  0  0  0  0  0  0  0  0
    1.1733   -1.7850    1.2033 N   0  0  0  0  0  0  0  0  0  0  0  0
    2.3208   -1.0372    0.9248 N   0  0  0  0  0  0  0  0  0  0  0  0
    3.2581   -0.6098    1.8276 C   0  0  0  0  0  0  0  0  0  0  0  0
    3.2870   -0.9106    3.2122 C   0  0  0  0  0  0  0  0  0  0  0  0
    4.3089   -0.3382    3.8508 N   0  0  0  0  0  0  0  0  0  0  0  0
    4.9509    0.3153    2.8700 N   0  0  0  0  0  0  0  0  0  0  0  0
    4.3706    0.1898    1.6314 C   0  0  0  0  0  0  0  0  0  0  0  0
    4.9713    0.8216    0.4683 C   0  0  0  0  0  0  0  0  0  0  0  0
    5.7089    0.0610   -0.4455 C   0  0  0  0  0  0  0  0  0  0  0  0
    6.3216    0.6757   -1.5392 C   0  0  0  0  0  0  0  0  0  0  0  0
    6.2033    2.0528   -1.7228 C   0  0  0  0  0  0  0  0  0  0  0  0
    5.4708    2.8169   -0.8153 C   0  0  0  0  0  0  0  0  0  0  0  0
    4.8573    2.2040    0.2790 C   0  0  0  0  0  0  0  0  0  0  0  0
    0.9605   -2.6679   -0.7770 H   0  0  0  0  0  0  0  0  0  0  0  0
    0.1692    0.6641   -1.6565 H   0  0  0  0  0  0  0  0  0  0  0  0
   -2.0174    1.7249   -1.9991 H   0  0  0  0  0  0  0  0  0  0  0  0
   -4.7539    1.3783   -1.3904 H   0  0  0  0  0  0  0  0  0  0  0  0
   -7.3397    1.5962   -1.1612 H   0  0  0  0  0  0  0  0  0  0  0  0
   -9.8268    0.7701   -0.3046 H   0  0  0  0  0  0  0  0  0  0  0  0
   -7.2851   -2.1047    1.1164 H   0  0  0  0  0  0  0  0  0  0  0  0
   -4.6190   -2.2047    0.8052 H   0  0  0  0  0  0  0  0  0  0  0  0
   -1.6742   -2.5250    0.5845 H   0  0  0  0  0  0  0  0  0  0  0  0
    0.5636   -1.1931    1.7748 H   0  0  0  0  0  0  0  0  0  0  0  0
    2.5970   -1.5238    3.7772 H   0  0  0  0  0  0  0  0  0  0  0  0
    5.7945    0.8285    3.1024 H   0  0  0  0  0  0  0  0  0  0  0  0
    5.8025   -1.0146   -0.3175 H   0  0  0  0  0  0  0  0  0  0  0  0
    6.8827    0.0780   -2.2525 H   0  0  0  0  0  0  0  0  0  0  0  0
    6.6736    2.5285   -2.5794 H   0  0  0  0  0  0  0  0  0  0  0  0
    5.3703    3.8885   -0.9646 H   0  0  0  0  0  0  0  0  0  0  0  0
    4.2805    2.8103    0.9731 H   0  0  0  0  0  0  0  0  0  0  0  0
  1  2  2  0
  2  3  1  0
  3  4  1  0
  4  5  2  0
  5  6  1  0
  6  7  2  0
  7  8  1  0
  8  9  1  0
  9 10  1  0
 10 11  1  0
 11 12  2  0
 12 13  1  0
 13 14  1  0
  9 15  2  0
 15 16  1  0
 16 17  2  0
  3 18  1  0
 18 19  1  0
 19 20  1  0
 20 21  1  0
 21 22  2  0
 22 23  1  0
 23 24  1  0
 24 25  1  0
 25 26  2  0
 26 27  1  0
 27 28  2  0
 28 29  1  0
 29 30  2  0
 19  2  1  0
 24 20  2  0
 30 25  1  0
 17  4  1  0
 16  7  1  0
 14 10  2  0
  3 31  1  6
  5 32  1  0
  6 33  1  0
  8 34  1  0
 11 35  1  0
 12 36  1  0
 14 37  1  0
 15 38  1  0
 17 39  1  0
 18 40  1  0
 21 41  1  0
 23 42  1  0
 26 43  1  0
 27 44  1  0
 28 45  1  0
 29 46  1  0
 30 47  1  0
M  END
>  <_SMILES>  (135) 
O=C1[C@H](c2ccc3[nH]c(-c4ccoc4)cc3c2)NN1c1cn[nH]c1-c1ccccc1

$$$$

     RDKit          3D

 47 52  0  0  0  0  0  0  0  0999 V2000
   -1.9747   -3.6068   -1.8595 O   0  0  0  0  0  0  0  0  0  0  0  0
   -1.9863   -2.7289   -1.0270 C   0  0  0  0  0  0  0  0  0  0  0  0
   -1.2081   -2.3420    0.2388 C   0  0  1  0  0  0  0  0  0  0  0  0
    0.3152   -1.9799    0.0195 C   0  0  0  0  0  0  0  0  0  0  0  0
    1.0838   -2.4788   -1.0528 C   0  0  0  0  0  0  0  0  0  0  0  0
    2.4367   -2.1623   -1.2479 C   0  0  0  0  0  0  0  0  0  0  0  0
    3.0391   -1.3155   -0.3180 C   0  0  0  0  0  0  0  0  0  0  0  0
    4.3277   -0.8377   -0.2482 N   0  0  0  0  0  0  0  0  0  0  0  0
    4.4772   -0.0329    0.8499 C   0  0  0  0  0  0  0  0  0  0  0  0
    5.7879    0.6817    1.2522 C   0  0  0  0  0  0  0  0  0  0  0  0
    7.0383    0.6459    0.5912 C   0  0  0  0  0  0  0  0  0  0  0  0
    7.8826    1.4390    1.3347 C   0  0  0  0  0  0  0  0  0  0  0  0
    7.2293    1.9573    2.4070 O   0  0  0  0  0  0  0  0  0  0  0  0
    5.9530    1.4916    2.3511 C   0  0  0  0  0  0  0  0  0  0  0  0
    3.2663    0.0115    1.5046 C   0  0  0  0  0  0  0  0  0  0  0  0
    2.3505   -0.7952    0.7729 C   0  0  0  0  0  0  0  0  0  0  0  0
    0.9929   -1.1370    0.9362 C   0  0  0  0  0  0  0  0  0  0  0  0
   -2.0583   -1.1163    0.2639 N   0  0  0  0  0  0  0  0  0  0  0  0
   -2.7262   -1.6196   -0.8482 N   0  0  0  0  0  0  0  0  0  0  0  0
   -3.6591   -1.0206   -1.6520 C   0  0  0  0  0  0  0  0  0  0  0  0
   -4.2004   -1.5279   -2.8571 C   0  0  0  0  0  0  0  0  0  0  0  0
   -5.0785   -0.6944   -3.4192 N   0  0  0  0  0  0  0  0  0  0  0  0
   -5.1071    0.3426   -2.5673 N   0  0  0  0  0  0  0  0  0  0  0  0
   -4.2684    0.2131   -1.4871 C   0  0  0  0  0  0  0  0  0  0  0  0
   -4.1767    1.2478   -0.4657 C   0  0  0  0  0  0  0  0  0  0  0  0
   -4.5188    0.9678    0.8621 C   0  0  0  0  0  0  0  0  0  0  0  0
   -4.4408    1.9638    1.8377 C   0  0  0  0  0  0  0  0  0  0  0  0
   -4.0219    3.2474    1.4923 C   0  0  0  0  0  0  0  0  0  0  0  0
   -3.6794    3.5363    0.1724 C   0  0  0  0  0  0  0  0  0  0  0  0
   -3.7574    2.5409   -0.8041 C   0  0  0  0  0  0  0  0  0  0  0  0
   -1.3880   -3.0230    1.0791 H   0  0  0  0  0  0  0  0  0  0  0  0
    0.6205   -3.1505   -1.7772 H   0  0  0  0  0  0  0  0  0  0  0  0
    2.9850   -2.5696   -2.0914 H   0  0  0  0  0  0  0  0  0  0  0  0
    5.0562   -1.0536   -0.9126 H   0  0  0  0  0  0  0  0  0  0  0  0
    7.3052    0.1155   -0.3105 H   0  0  0  0  0  0  0  0  0  0  0  0
    8.9218    1.7222    1.2411 H   0  0  0  0  0  0  0  0  0  0  0  0
    5.3031    1.8217    3.1488 H   0  0  0  0  0  0  0  0  0  0  0  0
    3.0495    0.5603    2.4111 H   0  0  0  0  0  0  0  0  0  0  0  0
    0.4518   -0.7398    1.7934 H   0  0  0  0  0  0  0  0  0  0  0  0
   -1.5760   -0.2651   -0.0371 H   0  0  0  0  0  0  0  0  0  0  0  0
   -3.9833   -2.4700   -3.3460 H   0  0  0  0  0  0  0  0  0  0  0  0
   -5.7306    1.1159   -2.7719 H   0  0  0  0  0  0  0  0  0  0  0  0
   -4.8453   -0.0306    1.1459 H   0  0  0  0  0  0  0  0  0  0  0  0
   -4.7061    1.7356    2.8668 H   0  0  0  0  0  0  0  0  0  0  0  0
   -3.9602    4.0218    2.2527 H   0  0  0  0  0  0  0  0  0  0  0  0
   -3.3480    4.5363   -0.0959 H   0  0  0  0  0  0  0  0  0  0  0  0
   -3.4739    2.7816   -1.8264 H   0  0  0  0  0  0  0  0  0  0  0  0
  1  2  2  0
  2  3  1  0
  3  4  1  0
  4  5  2  0
  5  6  1  0
  6  7  2  0
  7  8  1  0
  8  9  1  0
  9 10  1  0
 10 11  1  0
 11 12  2  0
 12 13  1  0
 13 14  1  0
  9 15  2  0
 15 16  1  0
 16 17  2  0
  3 18  1  0
 18 19  1  0
 19 20  1  0
 20 21  1  0
 21 22  2  0
 22 23  1  0
 23 24  1  0
 24 25  1  0
 25 26  2  0
 26 27  1  0
 27 28  2  0
 28 29  1  0
 29 30  2  0
 19  2  1  0
 24 20  2  0
 30 25  1  0
 17  4  1  0
 16  7  1  0
 14 10  2  0
  3 31  1  1
  5 32  1  0
  6 33  1  0
  8 34  1  0
 11 35  1  0
 12 36  1  0
 14 37  1  0
 15 38  1  0
 17 39  1  0
 18 40  1  0
 21 41  1  0
 23 42  1  0
 26 43  1  0
 27 44  1  0
 28 45  1  0
 29 46  1  0
 30 47  1  0
M  END
>  <_SMILES>  (136) 
O=C1[C@@H](c2ccc3[nH]c(-c4ccoc4)cc3c2)NN1c1cn[nH]c1-c1ccccc1

$$$$

     RDKit          3D

 47 52  0  0  0  0  0  0  0  0999 V2000
   -1.8243   -1.4967   -3.7922 O   0  0  0  0  0  0  0  0  0  0  0  0
   -1.8042   -0.6844   -2.8951 C   0  0  0  0  0  0  0  0  0  0  0  0
   -0.8754    0.4286   -2.3935 C   0  0  2  0  0  0  0  0  0  0  0  0
    0.5499   -0.0409   -1.8959 C   0  0  0  0  0  0  0  0  0  0  0  0
    1.1857   -1.2117   -2.3589 C   0  0  0  0  0  0  0  0  0  0  0  0
    2.4526   -1.6281   -1.9228 C   0  0  0  0  0  0  0  0  0  0  0  0
    3.1067   -0.8254   -0.9888 C   0  0  0  0  0  0  0  0  0  0  0  0
    4.3363   -0.9739   -0.3885 N   0  0  0  0  0  0  0  0  0  0  0  0
    4.5758    0.0689    0.4668 C   0  0  0  0  0  0  0  0  0  0  0  0
    5.8509    0.2525    1.3219 C   0  0  0  0  0  0  0  0  0  0  0  0
    6.1529    1.3042    2.2185 C   0  0  0  0  0  0  0  0  0  0  0  0
    7.3968    1.0192    2.7333 C   0  0  0  0  0  0  0  0  0  0  0  0
    7.8752   -0.1394    2.2092 O   0  0  0  0  0  0  0  0  0  0  0  0
    6.9282   -0.6018    1.3495 C   0  0  0  0  0  0  0  0  0  0  0  0
    3.4848    0.9080    0.4203 C   0  0  0  0  0  0  0  0  0  0  0  0
    2.5503    0.3504   -0.4960 C   0  0  0  0  0  0  0  0  0  0  0  0
    1.2762    0.7367   -0.9589 C   0  0  0  0  0  0  0  0  0  0  0  0
   -1.8271    0.5688   -1.2540 N   0  0  0  0  0  0  0  0  0  0  0  0
   -2.6287   -0.3868   -1.8718 N   0  0  0  0  0  0  0  0  0  0  0  0
   -3.7419   -1.0250   -1.3876 C   0  0  0  0  0  0  0  0  0  0  0  0
   -4.3493   -2.1037   -1.9904 C   0  0  0  0  0  0  0  0  0  0  0  0
   -5.3818   -2.4636   -1.1841 N   0  0  0  0  0  0  0  0  0  0  0  0
   -5.4964   -1.7056   -0.0868 N   0  0  0  0  0  0  0  0  0  0  0  0
   -4.5181   -0.7887   -0.2065 C   0  0  0  0  0  0  0  0  0  0  0  0
   -4.3641    0.2457    0.8141 C   0  0  0  0  0  0  0  0  0  0  0  0
   -4.3006   -0.1107    2.1681 C   0  0  0  0  0  0  0  0  0  0  0  0
   -4.1534    0.8694    3.1521 C   0  0  0  0  0  0  0  0  0  0  0  0
   -4.0772    2.2135    2.7907 C   0  0  0  0  0  0  0  0  0  0  0  0
   -4.1549    2.5797    1.4477 C   0  0  0  0  0  0  0  0  0  0  0  0
   -4.3028    1.6000    0.4628 C   0  0  0  0  0  0  0  0  0  0  0  0
   -0.8499    1.2993   -3.0595 H   0  0  0  0  0  0  0  0  0  0  0  0
    0.6832   -1.8375   -3.0981 H   0  0  0  0  0  0  0  0  0  0  0  0
    2.8989   -2.5398   -2.3072 H   0  0  0  0  0  0  0  0  0  0  0  0
    4.9676   -1.7427   -0.5595 H   0  0  0  0  0  0  0  0  0  0  0  0
    5.5468    2.1640    2.4638 H   0  0  0  0  0  0  0  0  0  0  0  0
    8.0451    1.5130    3.4437 H   0  0  0  0  0  0  0  0  0  0  0  0
    7.1733   -1.5285    0.8517 H   0  0  0  0  0  0  0  0  0  0  0  0
    3.3611    1.8251    0.9802 H   0  0  0  0  0  0  0  0  0  0  0  0
    0.8402    1.6608   -0.5830 H   0  0  0  0  0  0  0  0  0  0  0  0
   -1.4883    0.1587   -0.3788 H   0  0  0  0  0  0  0  0  0  0  0  0
   -4.1309   -2.6424   -2.9021 H   0  0  0  0  0  0  0  0  0  0  0  0
   -6.0442   -3.2212   -1.3149 H   0  0  0  0  0  0  0  0  0  0  0  0
   -4.3719   -1.1568    2.4590 H   0  0  0  0  0  0  0  0  0  0  0  0
   -4.1059    0.5826    4.1993 H   0  0  0  0  0  0  0  0  0  0  0  0
   -3.9671    2.9767    3.5568 H   0  0  0  0  0  0  0  0  0  0  0  0
   -4.1065    3.6282    1.1655 H   0  0  0  0  0  0  0  0  0  0  0  0
   -4.3739    1.9015   -0.5798 H   0  0  0  0  0  0  0  0  0  0  0  0
  1  2  2  0
  2  3  1  0
  3  4  1  0
  4  5  2  0
  5  6  1  0
  6  7  2  0
  7  8  1  0
  8  9  1  0
  9 10  1  0
 10 11  1  0
 11 12  2  0
 12 13  1  0
 13 14  1  0
  9 15  2  0
 15 16  1  0
 16 17  2  0
  3 18  1  0
 18 19  1  0
 19 20  1  0
 20 21  2  0
 21 22  1  0
 22 23  1  0
 23 24  2  0
 24 25  1  0
 25 26  2  0
 26 27  1  0
 27 28  2  0
 28 29  1  0
 29 30  2  0
 19  2  1  0
 24 20  1  0
 30 25  1  0
 17  4  1  0
 16  7  1  0
 14 10  2  0
  3 31  1  6
  5 32  1  0
  6 33  1  0
  8 34  1  0
 11 35  1  0
 12 36  1  0
 14 37  1  0
 15 38  1  0
 17 39  1  0
 18 40  1  0
 21 41  1  0
 22 42  1  0
 26 43  1  0
 27 44  1  0
 28 45  1  0
 29 46  1  0
 30 47  1  0
M  END
>  <_SMILES>  (137) 
O=C1[C@H](c2ccc3[nH]c(-c4ccoc4)cc3c2)NN1c1c[nH]nc1-c1ccccc1

$$$$

     RDKit          3D

 47 52  0  0  0  0  0  0  0  0999 V2000
   -1.7937    0.3071    4.0731 O   0  0  0  0  0  0  0  0  0  0  0  0
   -1.8596    0.5243    2.8840 C   0  0  0  0  0  0  0  0  0  0  0  0
   -1.1246    1.3809    1.8453 C   0  0  1  0  0  0  0  0  0  0  0  0
    0.3984    1.0240    1.6169 C   0  0  0  0  0  0  0  0  0  0  0  0
    1.2085    0.4182    2.5998 C   0  0  0  0  0  0  0  0  0  0  0  0
    2.5617    0.1049    2.4017 C   0  0  0  0  0  0  0  0  0  0  0  0
    3.1209    0.4243    1.1647 C   0  0  0  0  0  0  0  0  0  0  0  0
    4.3991    0.2416    0.6882 N   0  0  0  0  0  0  0  0  0  0  0  0
    4.5006    0.7170   -0.5925 C   0  0  0  0  0  0  0  0  0  0  0  0
    5.7796    0.6885   -1.4608 C   0  0  0  0  0  0  0  0  0  0  0  0
    5.9437    1.1627   -2.7834 C   0  0  0  0  0  0  0  0  0  0  0  0
    7.2554    0.9134   -3.1164 C   0  0  0  0  0  0  0  0  0  0  0  0
    7.9043    0.3171   -2.0824 O   0  0  0  0  0  0  0  0  0  0  0  0
    6.9992    0.1828   -1.0761 C   0  0  0  0  0  0  0  0  0  0  0  0
    3.2689    1.2169   -0.9526 C   0  0  0  0  0  0  0  0  0  0  0  0
    2.3898    1.0351    0.1511 C   0  0  0  0  0  0  0  0  0  0  0  0
    1.0333    1.3357    0.3881 C   0  0  0  0  0  0  0  0  0  0  0  0
   -1.9939    0.7159    0.8324 N   0  0  0  0  0  0  0  0  0  0  0  0
   -2.6436    0.0761    1.8841 N   0  0  0  0  0  0  0  0  0  0  0  0
   -3.5729   -0.9316    1.8410 C   0  0  0  0  0  0  0  0  0  0  0  0
   -4.0078   -1.6420    2.9374 C   0  0  0  0  0  0  0  0  0  0  0  0
   -4.8863   -2.5678    2.4718 N   0  0  0  0  0  0  0  0  0  0  0  0
   -5.0580   -2.5264    1.1450 N   0  0  0  0  0  0  0  0  0  0  0  0
   -4.2855   -1.5024    0.7366 C   0  0  0  0  0  0  0  0  0  0  0  0
   -4.2533   -1.1368   -0.6778 C   0  0  0  0  0  0  0  0  0  0  0  0
   -4.4798    0.1838   -1.0852 C   0  0  0  0  0  0  0  0  0  0  0  0
   -4.4457    0.5211   -2.4405 C   0  0  0  0  0  0  0  0  0  0  0  0
   -4.1949   -0.4606   -3.3983 C   0  0  0  0  0  0  0  0  0  0  0  0
   -3.9841   -1.7811   -3.0042 C   0  0  0  0  0  0  0  0  0  0  0  0
   -4.0173   -2.1190   -1.6496 C   0  0  0  0  0  0  0  0  0  0  0  0
   -1.3182    2.4542    1.9593 H   0  0  0  0  0  0  0  0  0  0  0  0
    0.7790    0.1763    3.5732 H   0  0  0  0  0  0  0  0  0  0  0  0
    3.1429   -0.3645    3.1890 H   0  0  0  0  0  0  0  0  0  0  0  0
    5.1506   -0.1812    1.2129 H   0  0  0  0  0  0  0  0  0  0  0  0
    5.2053    1.6281   -3.4197 H   0  0  0  0  0  0  0  0  0  0  0  0
    7.8505    1.0900   -4.0015 H   0  0  0  0  0  0  0  0  0  0  0  0
    7.3776   -0.2815   -0.1773 H   0  0  0  0  0  0  0  0  0  0  0  0
    3.0161    1.6660   -1.9035 H   0  0  0  0  0  0  0  0  0  0  0  0
    0.4592    1.8220   -0.3989 H   0  0  0  0  0  0  0  0  0  0  0  0
   -1.5158   -0.0078    0.2877 H   0  0  0  0  0  0  0  0  0  0  0  0
   -3.7620   -1.5754    3.9882 H   0  0  0  0  0  0  0  0  0  0  0  0
   -5.3997   -3.2657    3.0003 H   0  0  0  0  0  0  0  0  0  0  0  0
   -4.6882    0.9580   -0.3504 H   0  0  0  0  0  0  0  0  0  0  0  0
   -4.6209    1.5489   -2.7473 H   0  0  0  0  0  0  0  0  0  0  0  0
   -4.1734   -0.1983   -4.4529 H   0  0  0  0  0  0  0  0  0  0  0  0
   -3.8012   -2.5502   -3.7499 H   0  0  0  0  0  0  0  0  0  0  0  0
   -3.8643   -3.1539   -1.3507 H   0  0  0  0  0  0  0  0  0  0  0  0
  1  2  2  0
  2  3  1  0
  3  4  1  0
  4  5  2  0
  5  6  1  0
  6  7  2  0
  7  8  1  0
  8  9  1  0
  9 10  1  0
 10 11  1  0
 11 12  2  0
 12 13  1  0
 13 14  1  0
  9 15  2  0
 15 16  1  0
 16 17  2  0
  3 18  1  0
 18 19  1  0
 19 20  1  0
 20 21  2  0
 21 22  1  0
 22 23  1  0
 23 24  2  0
 24 25  1  0
 25 26  2  0
 26 27  1  0
 27 28  2  0
 28 29  1  0
 29 30  2  0
 19  2  1  0
 24 20  1  0
 30 25  1  0
 17  4  1  0
 16  7  1  0
 14 10  2  0
  3 31  1  1
  5 32  1  0
  6 33  1  0
  8 34  1  0
 11 35  1  0
 12 36  1  0
 14 37  1  0
 15 38  1  0
 17 39  1  0
 18 40  1  0
 21 41  1  0
 22 42  1  0
 26 43  1  0
 27 44  1  0
 28 45  1  0
 29 46  1  0
 30 47  1  0
M  END
>  <_SMILES>  (138) 
O=C1[C@@H](c2ccc3[nH]c(-c4ccoc4)cc3c2)NN1c1c[nH]nc1-c1ccccc1

$$$$

     RDKit          3D

 54 57  0  0  0  0  0  0  0  0999 V2000
   -3.8468    0.8343    2.6532 C   0  0  0  0  0  0  0  0  0  0  0  0
   -3.2074    0.3630    1.3411 C   0  0  2  0  0  0  0  0  0  0  0  0
   -1.7860   -0.1756    1.6252 C   0  0  0  0  0  0  0  0  0  0  0  0
   -1.0845   -0.7864    0.3726 C   0  0  2  0  0  0  0  0  0  0  0  0
   -1.3961   -2.2984    0.3040 C   0  0  0  0  0  0  0  0  0  0  0  0
    0.4748   -0.6232    0.5357 C   0  0  0  0  0  0  0  0  0  0  0  0
    1.3799   -1.1592   -0.6009 C   0  0  0  0  0  0  0  0  0  0  0  0
    2.6871   -0.3719   -0.7510 C   0  0  0  0  0  0  0  0  0  0  0  0
    3.8898   -0.9808   -0.1526 C   0  0  0  0  0  0  0  0  0  0  0  0
    4.3775   -2.2055   -0.6280 C   0  0  0  0  0  0  0  0  0  0  0  0
    5.5159   -2.7831   -0.0588 C   0  0  0  0  0  0  0  0  0  0  0  0
    6.1705   -2.1373    0.9879 C   0  0  0  0  0  0  0  0  0  0  0  0
    7.5707   -2.8495    1.6891 Cl  0  0  0  0  0  0  0  0  0  0  0  0
    5.6981   -0.9188    1.4700 C   0  0  0  0  0  0  0  0  0  0  0  0
    4.5602   -0.3413    0.9003 C   0  0  0  0  0  0  0  0  0  0  0  0
    2.8246    0.8198   -1.3767 C   0  0  0  0  0  0  0  0  0  0  0  0
    1.5990    1.4538   -1.8919 C   0  0  0  0  0  0  0  0  0  0  0  0
    1.1652    2.5859   -1.4283 N   0  0  0  0  0  0  0  0  0  0  0  0
   -0.2051    2.6083   -1.4569 C   0  0  0  0  0  0  0  0  0  0  0  0
   -0.8903    2.1948   -0.3813 C   0  0  0  0  0  0  0  0  0  0  0  0
   -2.0875    1.3730   -0.7582 C   0  0  2  0  0  0  0  0  0  0  0  0
   -1.6701   -0.1228   -0.9075 C   0  0  0  0  0  0  0  0  0  0  0  0
   -2.3172    1.9231   -2.0729 N   0  0  0  0  0  0  0  0  0  0  0  0
   -1.1316    2.4063   -2.6082 C   0  0  0  0  0  0  0  0  0  0  0  0
   -0.8891    2.5595   -3.7896 O   0  0  0  0  0  0  0  0  0  0  0  0
   -3.2456    1.5028    0.2619 C   0  0  1  0  0  0  0  0  0  0  0  0
   -4.6247    1.5069   -0.4195 C   0  0  0  0  0  0  0  0  0  0  0  0
   -3.2889    1.6717    3.0859 H   0  0  0  0  0  0  0  0  0  0  0  0
   -3.8617    0.0236    3.3896 H   0  0  0  0  0  0  0  0  0  0  0  0
   -4.8806    1.1581    2.5012 H   0  0  0  0  0  0  0  0  0  0  0  0
   -3.8079   -0.4827    0.9787 H   0  0  0  0  0  0  0  0  0  0  0  0
   -1.1848    0.6406    2.0440 H   0  0  0  0  0  0  0  0  0  0  0  0
   -1.8321   -0.9311    2.4211 H   0  0  0  0  0  0  0  0  0  0  0  0
   -0.9816   -2.7501   -0.6038 H   0  0  0  0  0  0  0  0  0  0  0  0
   -0.9748   -2.8300    1.1647 H   0  0  0  0  0  0  0  0  0  0  0  0
   -2.4761   -2.4837    0.3009 H   0  0  0  0  0  0  0  0  0  0  0  0
    0.7753   -1.1378    1.4604 H   0  0  0  0  0  0  0  0  0  0  0  0
    0.7204    0.4232    0.7268 H   0  0  0  0  0  0  0  0  0  0  0  0
    0.8629   -1.1714   -1.5635 H   0  0  0  0  0  0  0  0  0  0  0  0
    1.5906   -2.2172   -0.3982 H   0  0  0  0  0  0  0  0  0  0  0  0
    3.8811   -2.7153   -1.4508 H   0  0  0  0  0  0  0  0  0  0  0  0
    5.8860   -3.7319   -0.4378 H   0  0  0  0  0  0  0  0  0  0  0  0
    6.2075   -0.4138    2.2864 H   0  0  0  0  0  0  0  0  0  0  0  0
    4.1968    0.6081    1.2891 H   0  0  0  0  0  0  0  0  0  0  0  0
    3.7457    1.3862   -1.4295 H   0  0  0  0  0  0  0  0  0  0  0  0
    0.9739    0.7879   -2.5169 H   0  0  0  0  0  0  0  0  0  0  0  0
   -0.4407    2.1641    0.5995 H   0  0  0  0  0  0  0  0  0  0  0  0
   -0.9872   -0.2574   -1.7519 H   0  0  0  0  0  0  0  0  0  0  0  0
   -2.5702   -0.6729   -1.2222 H   0  0  0  0  0  0  0  0  0  0  0  0
   -2.9890    1.5429   -2.7268 H   0  0  0  0  0  0  0  0  0  0  0  0
   -3.1517    2.4714    0.7736 H   0  0  0  0  0  0  0  0  0  0  0  0
   -4.7296    2.3675   -1.0885 H   0  0  0  0  0  0  0  0  0  0  0  0
   -4.7822    0.5958   -1.0064 H   0  0  0  0  0  0  0  0  0  0  0  0
   -5.4323    1.5764    0.3157 H   0  0  0  0  0  0  0  0  0  0  0  0
  1  2  1  0
  2  3  1  0
  3  4  1  0
  4  5  1  6
  4  6  1  0
  6  7  1  0
  7  8  1  0
  8  9  1  0
  9 10  1  0
 10 11  2  0
 11 12  1  0
 12 13  1  0
 12 14  2  0
 14 15  1  0
  8 16  2  0
 16 17  1  0
 17 18  2  0
 18 19  1  0
 19 20  2  0
 20 21  1  0
 21 22  1  0
 21 23  1  6
 23 24  1  0
 24 25  2  0
 21 26  1  0
 26 27  1  0
 26  2  1  0
 22  4  1  0
 15  9  2  0
 24 19  1  0
  1 28  1  0
  1 29  1  0
  1 30  1  0
  2 31  1  6
  3 32  1  0
  3 33  1  0
  5 34  1  0
  5 35  1  0
  5 36  1  0
  6 37  1  0
  6 38  1  0
  7 39  1  0
  7 40  1  0
 10 41  1  0
 11 42  1  0
 14 43  1  0
 15 44  1  0
 16 45  1  0
 17 46  1  0
 20 47  1  0
 22 48  1  0
 22 49  1  0
 23 50  1  0
 26 51  1  1
 27 52  1  0
 27 53  1  0
 27 54  1  0
M  END
>  <_SMILES>  (139) 
C[C@@H]1C[C@]2(C)CC/C(c3ccc(Cl)cc3)=C\C=N\C3=C[C@](C2)(NC3=O)[C@H]1C

$$$$

     RDKit          3D

 54 57  0  0  0  0  0  0  0  0999 V2000
   -2.7849   -0.0567   -3.4631 C   0  0  0  0  0  0  0  0  0  0  0  0
   -2.9732    0.4389   -2.0242 C   0  0  2  0  0  0  0  0  0  0  0  0
   -1.8139    1.4057   -1.6062 C   0  0  0  0  0  0  0  0  0  0  0  0
   -0.5016    0.7634   -1.0457 C   0  0  1  0  0  0  0  0  0  0  0  0
    0.5335    0.6400   -2.1811 C   0  0  0  0  0  0  0  0  0  0  0  0
    0.1019    1.6596    0.0993 C   0  0  0  0  0  0  0  0  0  0  0  0
    1.5659    1.4587    0.6035 C   0  0  0  0  0  0  0  0  0  0  0  0
    2.1528    0.2326    1.3177 C   0  0  0  0  0  0  0  0  0  0  0  0
    3.5688   -0.0243    0.9565 C   0  0  0  0  0  0  0  0  0  0  0  0
    3.9162   -1.1558    0.2037 C   0  0  0  0  0  0  0  0  0  0  0  0
    5.2493   -1.3925   -0.1408 C   0  0  0  0  0  0  0  0  0  0  0  0
    6.2383   -0.4992    0.2663 C   0  0  0  0  0  0  0  0  0  0  0  0
    7.8796   -0.7900   -0.1590 Cl  0  0  0  0  0  0  0  0  0  0  0  0
    5.9067    0.6285    1.0149 C   0  0  0  0  0  0  0  0  0  0  0  0
    4.5735    0.8661    1.3595 C   0  0  0  0  0  0  0  0  0  0  0  0
    1.6437   -0.6315    2.2234 C   0  0  0  0  0  0  0  0  0  0  0  0
    0.2327   -0.5757    2.6325 C   0  0  0  0  0  0  0  0  0  0  0  0
   -0.4840   -1.6604    2.7051 N   0  0  0  0  0  0  0  0  0  0  0  0
   -1.8002   -1.4543    2.3108 C   0  0  0  0  0  0  0  0  0  0  0  0
   -2.1342   -1.9207    1.0810 C   0  0  0  0  0  0  0  0  0  0  0  0
   -2.2634   -0.7526    0.1212 C   0  0  2  0  0  0  0  0  0  0  0  0
   -0.8372   -0.6263   -0.5139 C   0  0  0  0  0  0  0  0  0  0  0  0
   -2.6312    0.2718    1.0601 N   0  0  0  0  0  0  0  0  0  0  0  0
   -2.4544   -0.1094    2.3607 C   0  0  0  0  0  0  0  0  0  0  0  0
   -2.6938    0.5593    3.3473 O   0  0  0  0  0  0  0  0  0  0  0  0
   -3.2353   -0.7836   -1.0662 C   0  0  1  0  0  0  0  0  0  0  0  0
   -4.7105   -0.8640   -0.6577 C   0  0  0  0  0  0  0  0  0  0  0  0
   -3.6746   -0.5997   -3.8003 H   0  0  0  0  0  0  0  0  0  0  0  0
   -1.9300   -0.7333   -3.5497 H   0  0  0  0  0  0  0  0  0  0  0  0
   -2.6295    0.7815   -4.1502 H   0  0  0  0  0  0  0  0  0  0  0  0
   -3.8793    1.0608   -2.0432 H   0  0  0  0  0  0  0  0  0  0  0  0
   -2.2268    2.0811   -0.8455 H   0  0  0  0  0  0  0  0  0  0  0  0
   -1.5741    2.0728   -2.4451 H   0  0  0  0  0  0  0  0  0  0  0  0
    1.4215    0.0869   -1.8573 H   0  0  0  0  0  0  0  0  0  0  0  0
    0.8573    1.6279   -2.5272 H   0  0  0  0  0  0  0  0  0  0  0  0
    0.1253    0.1083   -3.0457 H   0  0  0  0  0  0  0  0  0  0  0  0
   -0.5660    1.6827    0.9618 H   0  0  0  0  0  0  0  0  0  0  0  0
    0.0766    2.6931   -0.2799 H   0  0  0  0  0  0  0  0  0  0  0  0
    2.1999    1.6721   -0.2692 H   0  0  0  0  0  0  0  0  0  0  0  0
    1.7586    2.3016    1.2848 H   0  0  0  0  0  0  0  0  0  0  0  0
    3.1504   -1.8565   -0.1227 H   0  0  0  0  0  0  0  0  0  0  0  0
    5.5076   -2.2719   -0.7246 H   0  0  0  0  0  0  0  0  0  0  0  0
    6.6783    1.3239    1.3344 H   0  0  0  0  0  0  0  0  0  0  0  0
    4.3263    1.7462    1.9492 H   0  0  0  0  0  0  0  0  0  0  0  0
    2.2017   -1.4797    2.6087 H   0  0  0  0  0  0  0  0  0  0  0  0
   -0.1839    0.4439    2.6391 H   0  0  0  0  0  0  0  0  0  0  0  0
   -1.6762   -2.8287    0.6991 H   0  0  0  0  0  0  0  0  0  0  0  0
   -0.0376   -0.9606    0.1443 H   0  0  0  0  0  0  0  0  0  0  0  0
   -0.7779   -1.3558   -1.3376 H   0  0  0  0  0  0  0  0  0  0  0  0
   -3.0797    1.1525    0.8489 H   0  0  0  0  0  0  0  0  0  0  0  0
   -3.0384   -1.7104   -1.6249 H   0  0  0  0  0  0  0  0  0  0  0  0
   -5.3450   -0.9786   -1.5433 H   0  0  0  0  0  0  0  0  0  0  0  0
   -5.0382    0.0376   -0.1302 H   0  0  0  0  0  0  0  0  0  0  0  0
   -4.8913   -1.7256   -0.0069 H   0  0  0  0  0  0  0  0  0  0  0  0
  1  2  1  0
  2  3  1  0
  3  4  1  0
  4  5  1  6
  4  6  1  0
  6  7  1  0
  7  8  1  0
  8  9  1  0
  9 10  1  0
 10 11  2  0
 11 12  1  0
 12 13  1  0
 12 14  2  0
 14 15  1  0
  8 16  2  0
 16 17  1  0
 17 18  2  0
 18 19  1  0
 19 20  2  0
 20 21  1  0
 21 22  1  0
 21 23  1  1
 23 24  1  0
 24 25  2  0
 21 26  1  0
 26 27  1  0
 26  2  1  0
 22  4  1  0
 15  9  2  0
 24 19  1  0
  1 28  1  0
  1 29  1  0
  1 30  1  0
  2 31  1  6
  3 32  1  0
  3 33  1  0
  5 34  1  0
  5 35  1  0
  5 36  1  0
  6 37  1  0
  6 38  1  0
  7 39  1  0
  7 40  1  0
 10 41  1  0
 11 42  1  0
 14 43  1  0
 15 44  1  0
 16 45  1  0
 17 46  1  0
 20 47  1  0
 22 48  1  0
 22 49  1  0
 23 50  1  0
 26 51  1  6
 27 52  1  0
 27 53  1  0
 27 54  1  0
M  END
>  <_SMILES>  (140) 
C[C@@H]1C[C@@]2(C)CC/C(c3ccc(Cl)cc3)=C\C=N\C3=C[C@](C2)(NC3=O)[C@H]1C

$$$$

     RDKit          3D

 54 57  0  0  0  0  0  0  0  0999 V2000
   -3.0978    0.3313    3.3949 C   0  0  0  0  0  0  0  0  0  0  0  0
   -2.7162   -0.2321    2.0196 C   0  0  2  0  0  0  0  0  0  0  0  0
   -1.2083   -0.5678    2.0080 C   0  0  0  0  0  0  0  0  0  0  0  0
   -0.7053   -1.1979    0.6691 C   0  0  2  0  0  0  0  0  0  0  0  0
   -0.5738   -2.7273    0.8326 C   0  0  0  0  0  0  0  0  0  0  0  0
    0.7161   -0.6217    0.3524 C   0  0  0  0  0  0  0  0  0  0  0  0
    1.1687   -0.5740   -1.1238 C   0  0  0  0  0  0  0  0  0  0  0  0
    2.2506    0.4621   -1.2990 C   0  0  0  0  0  0  0  0  0  0  0  0
    3.5945    0.0196   -0.8568 C   0  0  0  0  0  0  0  0  0  0  0  0
    4.3004   -0.9395   -1.5954 C   0  0  0  0  0  0  0  0  0  0  0  0
    5.5684   -1.3563   -1.1818 C   0  0  0  0  0  0  0  0  0  0  0  0
    6.1340   -0.8139   -0.0297 C   0  0  0  0  0  0  0  0  0  0  0  0
    7.6946   -1.3279    0.4798 Cl  0  0  0  0  0  0  0  0  0  0  0  0
    5.4443    0.1429    0.7124 C   0  0  0  0  0  0  0  0  0  0  0  0
    4.1767    0.5605    0.2989 C   0  0  0  0  0  0  0  0  0  0  0  0
    2.1688    1.7041   -1.8148 C   0  0  0  0  0  0  0  0  0  0  0  0
    1.1243    2.5919   -2.4266 C   0  0  0  0  0  0  0  0  0  0  0  0
   -0.1559    2.7179   -2.4774 N   0  0  0  0  0  0  0  0  0  0  0  0
   -1.0378    1.8685   -1.9066 C   0  0  0  0  0  0  0  0  0  0  0  0
   -1.2094    1.5192   -0.6291 C   0  0  0  0  0  0  0  0  0  0  0  0
   -2.3058    0.4982   -0.4342 C   0  0  2  0  0  0  0  0  0  0  0  0
   -1.7536   -0.9427   -0.4342 C   0  0  0  0  0  0  0  0  0  0  0  0
   -3.0174    0.7023   -1.6687 N   0  0  0  0  0  0  0  0  0  0  0  0
   -2.2132    1.2903   -2.6250 C   0  0  0  0  0  0  0  0  0  0  0  0
   -2.4428    1.3166   -3.8197 O   0  0  0  0  0  0  0  0  0  0  0  0
   -3.1296    0.7484    0.8656 C   0  0  1  0  0  0  0  0  0  0  0  0
   -4.6468    0.6483    0.6287 C   0  0  0  0  0  0  0  0  0  0  0  0
   -4.1765    0.4875    3.4820 H   0  0  0  0  0  0  0  0  0  0  0  0
   -2.8052   -0.3616    4.1913 H   0  0  0  0  0  0  0  0  0  0  0  0
   -2.5995    1.2885    3.5825 H   0  0  0  0  0  0  0  0  0  0  0  0
   -3.2651   -1.1761    1.8974 H   0  0  0  0  0  0  0  0  0  0  0  0
   -0.6678    0.3617    2.2275 H   0  0  0  0  0  0  0  0  0  0  0  0
   -0.9746   -1.2398    2.8441 H   0  0  0  0  0  0  0  0  0  0  0  0
   -1.5319   -3.1815    1.1097 H   0  0  0  0  0  0  0  0  0  0  0  0
    0.1479   -2.9854    1.6159 H   0  0  0  0  0  0  0  0  0  0  0  0
   -0.2368   -3.1952   -0.0991 H   0  0  0  0  0  0  0  0  0  0  0  0
    1.4628   -1.1923    0.9236 H   0  0  0  0  0  0  0  0  0  0  0  0
    0.8013    0.3893    0.7669 H   0  0  0  0  0  0  0  0  0  0  0  0
    1.5176   -1.5694   -1.4253 H   0  0  0  0  0  0  0  0  0  0  0  0
    0.3703   -0.3386   -1.8232 H   0  0  0  0  0  0  0  0  0  0  0  0
    3.8705   -1.3646   -2.5001 H   0  0  0  0  0  0  0  0  0  0  0  0
    6.1071   -2.1005   -1.7624 H   0  0  0  0  0  0  0  0  0  0  0  0
    5.8852    0.5655    1.6113 H   0  0  0  0  0  0  0  0  0  0  0  0
    3.6439    1.3035    0.8884 H   0  0  0  0  0  0  0  0  0  0  0  0
    3.1114    2.2596   -1.8554 H   0  0  0  0  0  0  0  0  0  0  0  0
    1.6213    3.4082   -2.9875 H   0  0  0  0  0  0  0  0  0  0  0  0
   -0.5957    1.9041    0.1704 H   0  0  0  0  0  0  0  0  0  0  0  0
   -1.3723   -1.2405   -1.4178 H   0  0  0  0  0  0  0  0  0  0  0  0
   -2.6076   -1.6248   -0.2983 H   0  0  0  0  0  0  0  0  0  0  0  0
   -3.7775    0.1199   -1.9938 H   0  0  0  0  0  0  0  0  0  0  0  0
   -2.9385    1.7759    1.2066 H   0  0  0  0  0  0  0  0  0  0  0  0
   -5.2105    0.8342    1.5474 H   0  0  0  0  0  0  0  0  0  0  0  0
   -4.9811    1.3952   -0.0992 H   0  0  0  0  0  0  0  0  0  0  0  0
   -4.9264   -0.3437    0.2582 H   0  0  0  0  0  0  0  0  0  0  0  0
  1  2  1  0
  2  3  1  0
  3  4  1  0
  4  5  1  1
  4  6  1  0
  6  7  1  0
  7  8  1  0
  8  9  1  0
  9 10  1  0
 10 11  2  0
 11 12  1  0
 12 13  1  0
 12 14  2  0
 14 15  1  0
  8 16  2  0
 16 17  1  0
 17 18  2  0
 18 19  1  0
 19 20  2  0
 20 21  1  0
 21 22  1  0
 21 23  1  6
 23 24  1  0
 24 25  2  0
 21 26  1  0
 26 27  1  0
 26  2  1  0
 22  4  1  0
 15  9  2  0
 24 19  1  0
  1 28  1  0
  1 29  1  0
  1 30  1  0
  2 31  1  6
  3 32  1  0
  3 33  1  0
  5 34  1  0
  5 35  1  0
  5 36  1  0
  6 37  1  0
  6 38  1  0
  7 39  1  0
  7 40  1  0
 10 41  1  0
 11 42  1  0
 14 43  1  0
 15 44  1  0
 16 45  1  0
 17 46  1  0
 20 47  1  0
 22 48  1  0
 22 49  1  0
 23 50  1  0
 26 51  1  1
 27 52  1  0
 27 53  1  0
 27 54  1  0
M  END
>  <_SMILES>  (141) 
C[C@@H]1C[C@]2(C)CC/C(c3ccc(Cl)cc3)=C\C=N/C3=C[C@](C2)(NC3=O)[C@H]1C

$$$$

     RDKit          3D

 54 57  0  0  0  0  0  0  0  0999 V2000
   -3.4652   -2.3349   -1.6350 C   0  0  0  0  0  0  0  0  0  0  0  0
   -2.8359   -0.9568   -1.4034 C   0  0  2  0  0  0  0  0  0  0  0  0
   -1.3517   -0.9669   -1.9789 C   0  0  0  0  0  0  0  0  0  0  0  0
   -0.3637   -0.1905   -1.0741 C   0  0  1  0  0  0  0  0  0  0  0  0
    0.0439   -1.2254    0.0003 C   0  0  0  0  0  0  0  0  0  0  0  0
    0.9553    0.3475   -1.7119 C   0  0  0  0  0  0  0  0  0  0  0  0
    1.7841    1.3757   -0.8343 C   0  0  0  0  0  0  0  0  0  0  0  0
    2.2666    0.9221    0.5385 C   0  0  0  0  0  0  0  0  0  0  0  0
    3.3495   -0.1168    0.5038 C   0  0  0  0  0  0  0  0  0  0  0  0
    4.4933    0.0674   -0.2905 C   0  0  0  0  0  0  0  0  0  0  0  0
    5.5094   -0.8944   -0.3289 C   0  0  0  0  0  0  0  0  0  0  0  0
    5.3974   -2.0518    0.4342 C   0  0  0  0  0  0  0  0  0  0  0  0
    6.6448   -3.2343    0.3872 Cl  0  0  0  0  0  0  0  0  0  0  0  0
    4.2822   -2.2520    1.2407 C   0  0  0  0  0  0  0  0  0  0  0  0
    3.2688   -1.2883    1.2780 C   0  0  0  0  0  0  0  0  0  0  0  0
    1.9517    1.3961    1.7696 C   0  0  0  0  0  0  0  0  0  0  0  0
    1.1436    2.5107    2.3881 C   0  0  0  0  0  0  0  0  0  0  0  0
   -0.0951    2.8507    2.5311 N   0  0  0  0  0  0  0  0  0  0  0  0
   -1.1276    2.2448    1.8981 C   0  0  0  0  0  0  0  0  0  0  0  0
   -1.4053    0.9557    1.6666 C   0  0  0  0  0  0  0  0  0  0  0  0
   -2.2133    0.8429    0.3891 C   0  0  2  0  0  0  0  0  0  0  0  0
   -1.1880    1.0528   -0.7257 C   0  0  0  0  0  0  0  0  0  0  0  0
   -2.9690    2.0610    0.4993 N   0  0  0  0  0  0  0  0  0  0  0  0
   -2.2113    3.0038    1.1802 C   0  0  0  0  0  0  0  0  0  0  0  0
   -2.3872    4.2071    1.1478 O   0  0  0  0  0  0  0  0  0  0  0  0
   -3.0149   -0.4591    0.1000 C   0  0  1  0  0  0  0  0  0  0  0  0
   -4.4947   -0.3251    0.4889 C   0  0  0  0  0  0  0  0  0  0  0  0
   -4.5441   -2.3206   -1.4575 H   0  0  0  0  0  0  0  0  0  0  0  0
   -3.3162   -2.6594   -2.6707 H   0  0  0  0  0  0  0  0  0  0  0  0
   -3.0173   -3.0857   -0.9759 H   0  0  0  0  0  0  0  0  0  0  0  0
   -3.3971   -0.2494   -2.0316 H   0  0  0  0  0  0  0  0  0  0  0  0
   -1.3777   -0.5144   -2.9799 H   0  0  0  0  0  0  0  0  0  0  0  0
   -1.0015   -1.9952   -2.1381 H   0  0  0  0  0  0  0  0  0  0  0  0
    0.7895   -1.9194   -0.4086 H   0  0  0  0  0  0  0  0  0  0  0  0
    0.4730   -0.7839    0.8901 H   0  0  0  0  0  0  0  0  0  0  0  0
   -0.7714   -1.8694    0.3335 H   0  0  0  0  0  0  0  0  0  0  0  0
    0.7094    0.8562   -2.6539 H   0  0  0  0  0  0  0  0  0  0  0  0
    1.6066   -0.4904   -1.9917 H   0  0  0  0  0  0  0  0  0  0  0  0
    2.6497    1.6615   -1.4453 H   0  0  0  0  0  0  0  0  0  0  0  0
    1.2576    2.3293   -0.7322 H   0  0  0  0  0  0  0  0  0  0  0  0
    4.6261    0.9724   -0.8786 H   0  0  0  0  0  0  0  0  0  0  0  0
    6.3846   -0.7279   -0.9516 H   0  0  0  0  0  0  0  0  0  0  0  0
    4.1926   -3.1523    1.8430 H   0  0  0  0  0  0  0  0  0  0  0  0
    2.4098   -1.4730    1.9190 H   0  0  0  0  0  0  0  0  0  0  0  0
    2.5018    0.9547    2.6067 H   0  0  0  0  0  0  0  0  0  0  0  0
    1.8161    3.1717    2.9694 H   0  0  0  0  0  0  0  0  0  0  0  0
   -0.8537    0.1461    2.1109 H   0  0  0  0  0  0  0  0  0  0  0  0
   -1.7043    1.4158   -1.6313 H   0  0  0  0  0  0  0  0  0  0  0  0
   -0.5631    1.9140   -0.5014 H   0  0  0  0  0  0  0  0  0  0  0  0
   -3.5840    2.4151   -0.2214 H   0  0  0  0  0  0  0  0  0  0  0  0
   -2.6291   -1.2499    0.7530 H   0  0  0  0  0  0  0  0  0  0  0  0
   -5.0292    0.3422   -0.1950 H   0  0  0  0  0  0  0  0  0  0  0  0
   -4.9982   -1.2963    0.4732 H   0  0  0  0  0  0  0  0  0  0  0  0
   -4.5974    0.0664    1.5069 H   0  0  0  0  0  0  0  0  0  0  0  0
  1  2  1  0
  2  3  1  0
  3  4  1  0
  4  5  1  1
  4  6  1  0
  6  7  1  0
  7  8  1  0
  8  9  1  0
  9 10  1  0
 10 11  2  0
 11 12  1  0
 12 13  1  0
 12 14  2  0
 14 15  1  0
  8 16  2  0
 16 17  1  0
 17 18  2  0
 18 19  1  0
 19 20  2  0
 20 21  1  0
 21 22  1  0
 21 23  1  1
 23 24  1  0
 24 25  2  0
 21 26  1  0
 26 27  1  0
 26  2  1  0
 22  4  1  0
 15  9  2  0
 24 19  1  0
  1 28  1  0
  1 29  1  0
  1 30  1  0
  2 31  1  6
  3 32  1  0
  3 33  1  0
  5 34  1  0
  5 35  1  0
  5 36  1  0
  6 37  1  0
  6 38  1  0
  7 39  1  0
  7 40  1  0
 10 41  1  0
 11 42  1  0
 14 43  1  0
 15 44  1  0
 16 45  1  0
 17 46  1  0
 20 47  1  0
 22 48  1  0
 22 49  1  0
 23 50  1  0
 26 51  1  1
 27 52  1  0
 27 53  1  0
 27 54  1  0
M  END
>  <_SMILES>  (142) 
C[C@@H]1C[C@@]2(C)CC/C(c3ccc(Cl)cc3)=C\C=N/C3=C[C@](C2)(NC3=O)[C@H]1C

$$$$

     RDKit          3D

 54 57  0  0  0  0  0  0  0  0999 V2000
   -4.6546   -1.2222    0.6804 C   0  0  0  0  0  0  0  0  0  0  0  0
   -3.3432   -0.8344   -0.0163 C   0  0  2  0  0  0  0  0  0  0  0  0
   -2.2208   -1.7667    0.4667 C   0  0  0  0  0  0  0  0  0  0  0  0
   -0.8849   -1.5821   -0.3105 C   0  0  2  0  0  0  0  0  0  0  0  0
   -0.8994   -2.5097   -1.5530 C   0  0  0  0  0  0  0  0  0  0  0  0
    0.2760   -2.0733    0.6276 C   0  0  0  0  0  0  0  0  0  0  0  0
    1.7503   -1.7809    0.2382 C   0  0  0  0  0  0  0  0  0  0  0  0
    2.3237   -0.4281    0.6663 C   0  0  0  0  0  0  0  0  0  0  0  0
    3.2837    0.1942   -0.2816 C   0  0  0  0  0  0  0  0  0  0  0  0
    3.2088    1.5261   -0.7033 C   0  0  0  0  0  0  0  0  0  0  0  0
    4.1411    2.0570   -1.6036 C   0  0  0  0  0  0  0  0  0  0  0  0
    5.1678    1.2579   -2.0923 C   0  0  0  0  0  0  0  0  0  0  0  0
    6.3130    1.9074   -3.1980 Cl  0  0  0  0  0  0  0  0  0  0  0  0
    5.2708   -0.0674   -1.6861 C   0  0  0  0  0  0  0  0  0  0  0  0
    4.3356   -0.5923   -0.7872 C   0  0  0  0  0  0  0  0  0  0  0  0
    1.9961    0.0941    1.8639 C   0  0  0  0  0  0  0  0  0  0  0  0
    2.0983    1.5115    2.3010 C   0  0  0  0  0  0  0  0  0  0  0  0
    1.2123    2.4437    2.1076 N   0  0  0  0  0  0  0  0  0  0  0  0
    0.1557    2.1566    1.2832 C   0  0  0  0  0  0  0  0  0  0  0  0
   -0.7259    1.1460    1.3187 C   0  0  0  0  0  0  0  0  0  0  0  0
   -1.4730    0.9660    0.0215 C   0  0  2  0  0  0  0  0  0  0  0  0
   -0.7769   -0.1252   -0.8337 C   0  0  0  0  0  0  0  0  0  0  0  0
   -1.2045    2.2540   -0.5711 N   0  0  0  0  0  0  0  0  0  0  0  0
   -0.1500    2.9025    0.0291 C   0  0  0  0  0  0  0  0  0  0  0  0
    0.4264    3.8766   -0.4173 O   0  0  0  0  0  0  0  0  0  0  0  0
   -2.9917    0.6687    0.2224 C   0  0  1  0  0  0  0  0  0  0  0  0
   -3.8939    1.5473   -0.6645 C   0  0  0  0  0  0  0  0  0  0  0  0
   -5.5011   -0.6430    0.3017 H   0  0  0  0  0  0  0  0  0  0  0  0
   -4.8849   -2.2795    0.5096 H   0  0  0  0  0  0  0  0  0  0  0  0
   -4.5904   -1.0632    1.7622 H   0  0  0  0  0  0  0  0  0  0  0  0
   -3.4868   -1.0015   -1.0921 H   0  0  0  0  0  0  0  0  0  0  0  0
   -2.5441   -2.8137    0.3950 H   0  0  0  0  0  0  0  0  0  0  0  0
   -2.0711   -1.5803    1.5383 H   0  0  0  0  0  0  0  0  0  0  0  0
    0.0035   -2.3788   -2.1588 H   0  0  0  0  0  0  0  0  0  0  0  0
   -0.9587   -3.5655   -1.2653 H   0  0  0  0  0  0  0  0  0  0  0  0
   -1.7610   -2.3025   -2.1977 H   0  0  0  0  0  0  0  0  0  0  0  0
    0.0860   -1.7370    1.6500 H   0  0  0  0  0  0  0  0  0  0  0  0
    0.1892   -3.1680    0.6991 H   0  0  0  0  0  0  0  0  0  0  0  0
    1.8467   -1.9107   -0.8460 H   0  0  0  0  0  0  0  0  0  0  0  0
    2.3808   -2.5559    0.6955 H   0  0  0  0  0  0  0  0  0  0  0  0
    2.4262    2.1883   -0.3545 H   0  0  0  0  0  0  0  0  0  0  0  0
    4.0506    3.0958   -1.9125 H   0  0  0  0  0  0  0  0  0  0  0  0
    6.0739   -0.6973   -2.0587 H   0  0  0  0  0  0  0  0  0  0  0  0
    4.4498   -1.6288   -0.4758 H   0  0  0  0  0  0  0  0  0  0  0  0
    1.4232   -0.4802    2.5847 H   0  0  0  0  0  0  0  0  0  0  0  0
    2.9733    1.7390    2.9327 H   0  0  0  0  0  0  0  0  0  0  0  0
   -0.7836    0.4322    2.1254 H   0  0  0  0  0  0  0  0  0  0  0  0
   -1.2418   -0.0709   -1.8307 H   0  0  0  0  0  0  0  0  0  0  0  0
    0.2694    0.1313   -1.0315 H   0  0  0  0  0  0  0  0  0  0  0  0
   -1.4478    2.5159   -1.5172 H   0  0  0  0  0  0  0  0  0  0  0  0
   -3.2529    0.9164    1.2614 H   0  0  0  0  0  0  0  0  0  0  0  0
   -3.7544    2.6099   -0.4390 H   0  0  0  0  0  0  0  0  0  0  0  0
   -3.6814    1.3875   -1.7271 H   0  0  0  0  0  0  0  0  0  0  0  0
   -4.9537    1.3333   -0.4995 H   0  0  0  0  0  0  0  0  0  0  0  0
  1  2  1  0
  2  3  1  0
  3  4  1  0
  4  5  1  6
  4  6  1  0
  6  7  1  0
  7  8  1  0
  8  9  1  0
  9 10  1  0
 10 11  2  0
 11 12  1  0
 12 13  1  0
 12 14  2  0
 14 15  1  0
  8 16  2  0
 16 17  1  0
 17 18  2  0
 18 19  1  0
 19 20  2  0
 20 21  1  0
 21 22  1  0
 21 23  1  6
 23 24  1  0
 24 25  2  0
 21 26  1  0
 26 27  1  0
 26  2  1  0
 22  4  1  0
 15  9  2  0
 24 19  1  0
  1 28  1  0
  1 29  1  0
  1 30  1  0
  2 31  1  6
  3 32  1  0
  3 33  1  0
  5 34  1  0
  5 35  1  0
  5 36  1  0
  6 37  1  0
  6 38  1  0
  7 39  1  0
  7 40  1  0
 10 41  1  0
 11 42  1  0
 14 43  1  0
 15 44  1  0
 16 45  1  0
 17 46  1  0
 20 47  1  0
 22 48  1  0
 22 49  1  0
 23 50  1  0
 26 51  1  1
 27 52  1  0
 27 53  1  0
 27 54  1  0
M  END
>  <_SMILES>  (143) 
C[C@@H]1C[C@]2(C)CC/C(c3ccc(Cl)cc3)=C/C=N\C3=C[C@](C2)(NC3=O)[C@H]1C

$$$$

     RDKit          3D

 54 57  0  0  0  0  0  0  0  0999 V2000
    3.4010   -2.0253    1.7128 C   0  0  0  0  0  0  0  0  0  0  0  0
    3.2175   -1.1276    0.4827 C   0  0  2  0  0  0  0  0  0  0  0  0
    2.7149    0.2992    0.9039 C   0  0  0  0  0  0  0  0  0  0  0  0
    1.1712    0.5053    1.0490 C   0  0  1  0  0  0  0  0  0  0  0  0
    0.7787    0.3831    2.5372 C   0  0  0  0  0  0  0  0  0  0  0  0
    0.7465    1.9428    0.5468 C   0  0  0  0  0  0  0  0  0  0  0  0
   -0.7613    2.3712    0.5997 C   0  0  0  0  0  0  0  0  0  0  0  0
   -1.7458    1.6981   -0.3651 C   0  0  0  0  0  0  0  0  0  0  0  0
   -2.9724    1.1216    0.2389 C   0  0  0  0  0  0  0  0  0  0  0  0
   -3.7885    1.9444    1.0328 C   0  0  0  0  0  0  0  0  0  0  0  0
   -4.9539    1.4473    1.6248 C   0  0  0  0  0  0  0  0  0  0  0  0
   -5.3166    0.1189    1.4265 C   0  0  0  0  0  0  0  0  0  0  0  0
   -6.7482   -0.4963    2.1541 Cl  0  0  0  0  0  0  0  0  0  0  0  0
   -4.5252   -0.7134    0.6409 C   0  0  0  0  0  0  0  0  0  0  0  0
   -3.3598   -0.2131    0.0503 C   0  0  0  0  0  0  0  0  0  0  0  0
   -1.4869    1.6554   -1.6871 C   0  0  0  0  0  0  0  0  0  0  0  0
   -2.1340    0.7325   -2.6807 C   0  0  0  0  0  0  0  0  0  0  0  0
   -1.6131   -0.3421   -3.2147 N   0  0  0  0  0  0  0  0  0  0  0  0
   -0.3297   -0.6228   -2.8180 C   0  0  0  0  0  0  0  0  0  0  0  0
    0.0444   -1.5418   -1.9094 C   0  0  0  0  0  0  0  0  0  0  0  0
    1.1763   -1.0149   -1.0524 C   0  0  2  0  0  0  0  0  0  0  0  0
    0.4666   -0.5971    0.2638 C   0  0  0  0  0  0  0  0  0  0  0  0
    1.6313    0.0649   -1.8880 N   0  0  0  0  0  0  0  0  0  0  0  0
    0.8177    0.3115   -2.9556 C   0  0  0  0  0  0  0  0  0  0  0  0
    0.9808    1.1773   -3.7939 O   0  0  0  0  0  0  0  0  0  0  0  0
    2.3604   -1.8833   -0.6070 C   0  0  1  0  0  0  0  0  0  0  0  0
    3.2377   -2.3733   -1.7642 C   0  0  0  0  0  0  0  0  0  0  0  0
    4.0293   -1.5370    2.4649 H   0  0  0  0  0  0  0  0  0  0  0  0
    3.8908   -2.9642    1.4327 H   0  0  0  0  0  0  0  0  0  0  0  0
    2.4429   -2.2746    2.1777 H   0  0  0  0  0  0  0  0  0  0  0  0
    4.2275   -0.9734    0.0772 H   0  0  0  0  0  0  0  0  0  0  0  0
    3.2226    0.6075    1.8277 H   0  0  0  0  0  0  0  0  0  0  0  0
    3.0952    1.0024    0.1519 H   0  0  0  0  0  0  0  0  0  0  0  0
    1.1424   -0.5514    2.9754 H   0  0  0  0  0  0  0  0  0  0  0  0
    1.2004    1.2058    3.1254 H   0  0  0  0  0  0  0  0  0  0  0  0
   -0.3083    0.3963    2.6694 H   0  0  0  0  0  0  0  0  0  0  0  0
    1.1146    2.1093   -0.4702 H   0  0  0  0  0  0  0  0  0  0  0  0
    1.2945    2.6714    1.1618 H   0  0  0  0  0  0  0  0  0  0  0  0
   -0.8045    3.4511    0.4002 H   0  0  0  0  0  0  0  0  0  0  0  0
   -1.1018    2.2577    1.6353 H   0  0  0  0  0  0  0  0  0  0  0  0
   -3.5301    2.9900    1.1901 H   0  0  0  0  0  0  0  0  0  0  0  0
   -5.5714    2.1025    2.2333 H   0  0  0  0  0  0  0  0  0  0  0  0
   -4.8060   -1.7511    0.4810 H   0  0  0  0  0  0  0  0  0  0  0  0
   -2.7606   -0.8902   -0.5531 H   0  0  0  0  0  0  0  0  0  0  0  0
   -0.6338    2.1961   -2.0857 H   0  0  0  0  0  0  0  0  0  0  0  0
   -3.1666    1.0054   -2.9581 H   0  0  0  0  0  0  0  0  0  0  0  0
   -0.6312   -2.3060   -1.5483 H   0  0  0  0  0  0  0  0  0  0  0  0
   -0.5730   -0.3379    0.1070 H   0  0  0  0  0  0  0  0  0  0  0  0
    0.3797   -1.4951    0.8968 H   0  0  0  0  0  0  0  0  0  0  0  0
    2.4973    0.5765   -1.7935 H   0  0  0  0  0  0  0  0  0  0  0  0
    1.9456   -2.7948   -0.1517 H   0  0  0  0  0  0  0  0  0  0  0  0
    3.7495   -1.5467   -2.2675 H   0  0  0  0  0  0  0  0  0  0  0  0
    2.6407   -2.9099   -2.5087 H   0  0  0  0  0  0  0  0  0  0  0  0
    4.0050   -3.0623   -1.3949 H   0  0  0  0  0  0  0  0  0  0  0  0
  1  2  1  0
  2  3  1  0
  3  4  1  0
  4  5  1  1
  4  6  1  0
  6  7  1  0
  7  8  1  0
  8  9  1  0
  9 10  1  0
 10 11  2  0
 11 12  1  0
 12 13  1  0
 12 14  2  0
 14 15  1  0
  8 16  2  0
 16 17  1  0
 17 18  2  0
 18 19  1  0
 19 20  2  0
 20 21  1  0
 21 22  1  0
 21 23  1  6
 23 24  1  0
 24 25  2  0
 21 26  1  0
 26 27  1  0
 26  2  1  0
 22  4  1  0
 15  9  2  0
 24 19  1  0
  1 28  1  0
  1 29  1  0
  1 30  1  0
  2 31  1  6
  3 32  1  0
  3 33  1  0
  5 34  1  0
  5 35  1  0
  5 36  1  0
  6 37  1  0
  6 38  1  0
  7 39  1  0
  7 40  1  0
 10 41  1  0
 11 42  1  0
 14 43  1  0
 15 44  1  0
 16 45  1  0
 17 46  1  0
 20 47  1  0
 22 48  1  0
 22 49  1  0
 23 50  1  0
 26 51  1  1
 27 52  1  0
 27 53  1  0
 27 54  1  0
M  END
>  <_SMILES>  (144) 
C[C@@H]1C[C@@]2(C)CC/C(c3ccc(Cl)cc3)=C/C=N\C3=C[C@](C2)(NC3=O)[C@H]1C

$$$$

     RDKit          3D

 54 57  0  0  0  0  0  0  0  0999 V2000
   -3.0530   -0.8825    2.9583 C   0  0  0  0  0  0  0  0  0  0  0  0
   -2.7144   -0.4542    1.5229 C   0  0  2  0  0  0  0  0  0  0  0  0
   -1.7273   -1.4971    0.9219 C   0  0  0  0  0  0  0  0  0  0  0  0
   -1.4242   -1.2195   -0.5558 C   0  0  2  0  0  0  0  0  0  0  0  0
   -2.6831   -1.4469   -1.4170 C   0  0  0  0  0  0  0  0  0  0  0  0
   -0.2468   -2.0952   -1.1769 C   0  0  0  0  0  0  0  0  0  0  0  0
    1.2282   -1.8453   -0.8023 C   0  0  0  0  0  0  0  0  0  0  0  0
    2.0877   -0.8458   -1.1634 C   0  0  0  0  0  0  0  0  0  0  0  0
    3.4656   -0.9161   -0.6190 C   0  0  0  0  0  0  0  0  0  0  0  0
    4.5561   -0.9895   -1.4966 C   0  0  0  0  0  0  0  0  0  0  0  0
    5.8618   -1.0374   -1.0008 C   0  0  0  0  0  0  0  0  0  0  0  0
    6.0813   -1.0069    0.3747 C   0  0  0  0  0  0  0  0  0  0  0  0
    7.6883   -1.0658    0.9859 Cl  0  0  0  0  0  0  0  0  0  0  0  0
    5.0076   -0.9261    1.2594 C   0  0  0  0  0  0  0  0  0  0  0  0
    3.7020   -0.8778    0.7637 C   0  0  0  0  0  0  0  0  0  0  0  0
    1.6645    0.3055   -1.9777 C   0  0  0  0  0  0  0  0  0  0  0  0
    1.7256    1.5936   -1.5601 C   0  0  0  0  0  0  0  0  0  0  0  0
    0.7865    2.5065   -2.0123 N   0  0  0  0  0  0  0  0  0  0  0  0
   -0.1930    2.7558   -1.1785 C   0  0  0  0  0  0  0  0  0  0  0  0
   -0.3463    2.3935    0.2770 C   0  0  0  0  0  0  0  0  0  0  0  0
   -1.5610    1.4107    0.0928 C   0  0  2  0  0  0  0  0  0  0  0  0
   -0.9670    0.2107   -0.6514 C   0  0  0  0  0  0  0  0  0  0  0  0
   -2.4046    2.2027   -0.8077 N   0  0  0  0  0  0  0  0  0  0  0  0
   -1.6229    2.9898   -1.6655 C   0  0  0  0  0  0  0  0  0  0  0  0
   -1.9769    3.6550   -2.6090 O   0  0  0  0  0  0  0  0  0  0  0  0
   -2.1512    1.0035    1.4697 C   0  0  1  0  0  0  0  0  0  0  0  0
   -3.1668    2.0350    1.9803 C   0  0  0  0  0  0  0  0  0  0  0  0
   -3.8603   -0.2757    3.3784 H   0  0  0  0  0  0  0  0  0  0  0  0
   -3.3924   -1.9238    2.9828 H   0  0  0  0  0  0  0  0  0  0  0  0
   -2.1805   -0.7965    3.6144 H   0  0  0  0  0  0  0  0  0  0  0  0
   -3.6535   -0.4832    0.9586 H   0  0  0  0  0  0  0  0  0  0  0  0
   -2.1446   -2.5069    1.0251 H   0  0  0  0  0  0  0  0  0  0  0  0
   -0.7964   -1.4867    1.5046 H   0  0  0  0  0  0  0  0  0  0  0  0
   -3.0560   -2.4702   -1.2988 H   0  0  0  0  0  0  0  0  0  0  0  0
   -3.4940   -0.7581   -1.1637 H   0  0  0  0  0  0  0  0  0  0  0  0
   -2.4685   -1.2948   -2.4813 H   0  0  0  0  0  0  0  0  0  0  0  0
   -0.4635   -3.1497   -0.9573 H   0  0  0  0  0  0  0  0  0  0  0  0
   -0.2962   -2.0218   -2.2726 H   0  0  0  0  0  0  0  0  0  0  0  0
    1.6232   -2.6464   -0.1738 H   0  0  0  0  0  0  0  0  0  0  0  0
    4.3942   -1.0102   -2.5725 H   0  0  0  0  0  0  0  0  0  0  0  0
    6.6983   -1.0961   -1.6921 H   0  0  0  0  0  0  0  0  0  0  0  0
    5.1794   -0.8980    2.3320 H   0  0  0  0  0  0  0  0  0  0  0  0
    2.8712   -0.8059    1.4616 H   0  0  0  0  0  0  0  0  0  0  0  0
    1.0054    0.0668   -2.8108 H   0  0  0  0  0  0  0  0  0  0  0  0
    2.3288    1.8803   -0.7009 H   0  0  0  0  0  0  0  0  0  0  0  0
   -0.6311    3.2937    0.8339 H   0  0  0  0  0  0  0  0  0  0  0  0
    0.5361    1.9557    0.7460 H   0  0  0  0  0  0  0  0  0  0  0  0
    0.0141    0.1578   -0.1886 H   0  0  0  0  0  0  0  0  0  0  0  0
   -0.8945    0.4290   -1.7214 H   0  0  0  0  0  0  0  0  0  0  0  0
   -3.3440    1.9576   -1.0973 H   0  0  0  0  0  0  0  0  0  0  0  0
   -1.3128    1.0164    2.1825 H   0  0  0  0  0  0  0  0  0  0  0  0
   -4.1040    1.9814    1.4166 H   0  0  0  0  0  0  0  0  0  0  0  0
   -2.7751    3.0540    1.8972 H   0  0  0  0  0  0  0  0  0  0  0  0
   -3.3997    1.8751    3.0372 H   0  0  0  0  0  0  0  0  0  0  0  0
  1  2  1  0
  2  3  1  0
  3  4  1  0
  4  5  1  6
  4  6  1  0
  6  7  1  0
  7  8  2  0
  8  9  1  0
  9 10  1  0
 10 11  2  0
 11 12  1  0
 12 13  1  0
 12 14  2  0
 14 15  1  0
  8 16  1  0
 16 17  2  0
 17 18  1  0
 18 19  2  0
 19 20  1  0
 20 21  1  0
 21 22  1  0
 21 23  1  6
 23 24  1  0
 24 25  2  0
 21 26  1  0
 26 27  1  0
 26  2  1  0
 22  4  1  0
 15  9  2  0
 24 19  1  0
  1 28  1  0
  1 29  1  0
  1 30  1  0
  2 31  1  6
  3 32  1  0
  3 33  1  0
  5 34  1  0
  5 35  1  0
  5 36  1  0
  6 37  1  0
  6 38  1  0
  7 39  1  0
 10 40  1  0
 11 41  1  0
 14 42  1  0
 15 43  1  0
 16 44  1  0
 17 45  1  0
 20 46  1  0
 20 47  1  0
 22 48  1  0
 22 49  1  0
 23 50  1  0
 26 51  1  1
 27 52  1  0
 27 53  1  0
 27 54  1  0
M  END
>  <_SMILES>  (145) 
C[C@@H]1C[C@]2(C)C\C=C(c3ccc(Cl)cc3)/C=C/N=C3\C[C@](C2)(NC3=O)[C@H]1C

$$$$

     RDKit          3D

 54 57  0  0  0  0  0  0  0  0999 V2000
   -4.1646    1.4708   -2.0086 C   0  0  0  0  0  0  0  0  0  0  0  0
   -3.2910    1.0211   -0.8321 C   0  0  2  0  0  0  0  0  0  0  0  0
   -1.9800    1.8953   -0.8098 C   0  0  0  0  0  0  0  0  0  0  0  0
   -0.7215    1.1447   -0.2855 C   0  0  1  0  0  0  0  0  0  0  0  0
   -0.0689    0.4896   -1.5282 C   0  0  0  0  0  0  0  0  0  0  0  0
    0.3618    2.0850    0.3550 C   0  0  0  0  0  0  0  0  0  0  0  0
    1.8256    1.6178    0.3450 C   0  0  0  0  0  0  0  0  0  0  0  0
    2.4385    0.5001    0.8141 C   0  0  0  0  0  0  0  0  0  0  0  0
    3.8861    0.3515    0.5292 C   0  0  0  0  0  0  0  0  0  0  0  0
    4.3519    0.2394   -0.7897 C   0  0  0  0  0  0  0  0  0  0  0  0
    5.7168    0.0869   -1.0477 C   0  0  0  0  0  0  0  0  0  0  0  0
    6.6203    0.0408    0.0121 C   0  0  0  0  0  0  0  0  0  0  0  0
    8.3007   -0.1467   -0.3062 Cl  0  0  0  0  0  0  0  0  0  0  0  0
    6.1718    0.1436    1.3271 C   0  0  0  0  0  0  0  0  0  0  0  0
    4.8067    0.2965    1.5851 C   0  0  0  0  0  0  0  0  0  0  0  0
    1.7379   -0.5076    1.5888 C   0  0  0  0  0  0  0  0  0  0  0  0
    1.4485   -1.7668    1.2061 C   0  0  0  0  0  0  0  0  0  0  0  0
    0.4907   -2.4713    1.9011 N   0  0  0  0  0  0  0  0  0  0  0  0
   -0.6901   -2.4904    1.3488 C   0  0  0  0  0  0  0  0  0  0  0  0
   -1.1233   -2.1038   -0.0387 C   0  0  0  0  0  0  0  0  0  0  0  0
   -2.1021   -0.9674    0.3549 C   0  0  2  0  0  0  0  0  0  0  0  0
   -1.3074    0.2614    0.8360 C   0  0  0  0  0  0  0  0  0  0  0  0
   -2.7815   -1.5823    1.5105 N   0  0  0  0  0  0  0  0  0  0  0  0
   -1.9557   -2.4719    2.1875 C   0  0  0  0  0  0  0  0  0  0  0  0
   -2.1600   -3.0556    3.2242 O   0  0  0  0  0  0  0  0  0  0  0  0
   -3.0597   -0.5358   -0.8049 C   0  0  1  0  0  0  0  0  0  0  0  0
   -4.3792   -1.3224   -0.7962 C   0  0  0  0  0  0  0  0  0  0  0  0
   -5.1749    1.0571   -1.9403 H   0  0  0  0  0  0  0  0  0  0  0  0
   -3.7281    1.1600   -2.9635 H   0  0  0  0  0  0  0  0  0  0  0  0
   -4.2669    2.5616   -2.0205 H   0  0  0  0  0  0  0  0  0  0  0  0
   -3.8499    1.2730    0.0812 H   0  0  0  0  0  0  0  0  0  0  0  0
   -2.1793    2.7674   -0.1712 H   0  0  0  0  0  0  0  0  0  0  0  0
   -1.7790    2.3094   -1.8067 H   0  0  0  0  0  0  0  0  0  0  0  0
   -0.7658   -0.0666   -2.1546 H   0  0  0  0  0  0  0  0  0  0  0  0
    0.3517    1.2648   -2.1828 H   0  0  0  0  0  0  0  0  0  0  0  0
    0.7533   -0.1825   -1.2794 H   0  0  0  0  0  0  0  0  0  0  0  0
    0.0861    2.3641    1.3799 H   0  0  0  0  0  0  0  0  0  0  0  0
    0.3455    3.0289   -0.2091 H   0  0  0  0  0  0  0  0  0  0  0  0
    2.4589    2.3392   -0.1786 H   0  0  0  0  0  0  0  0  0  0  0  0
    3.6533    0.2652   -1.6229 H   0  0  0  0  0  0  0  0  0  0  0  0
    6.0660    0.0019   -2.0731 H   0  0  0  0  0  0  0  0  0  0  0  0
    6.8747    0.1032    2.1549 H   0  0  0  0  0  0  0  0  0  0  0  0
    4.4657    0.3724    2.6156 H   0  0  0  0  0  0  0  0  0  0  0  0
    1.3156   -0.1396    2.5236 H   0  0  0  0  0  0  0  0  0  0  0  0
    1.8403   -2.1944    0.2864 H   0  0  0  0  0  0  0  0  0  0  0  0
   -0.3063   -1.8525   -0.7022 H   0  0  0  0  0  0  0  0  0  0  0  0
   -1.6613   -2.9547   -0.4752 H   0  0  0  0  0  0  0  0  0  0  0  0
   -0.5699   -0.0035    1.5795 H   0  0  0  0  0  0  0  0  0  0  0  0
   -1.9805    0.8841    1.4498 H   0  0  0  0  0  0  0  0  0  0  0  0
   -3.5826   -1.1939    1.9944 H   0  0  0  0  0  0  0  0  0  0  0  0
   -2.5849   -0.8017   -1.7557 H   0  0  0  0  0  0  0  0  0  0  0  0
   -5.0269   -1.0105    0.0296 H   0  0  0  0  0  0  0  0  0  0  0  0
   -4.1953   -2.3985   -0.7072 H   0  0  0  0  0  0  0  0  0  0  0  0
   -4.9317   -1.1762   -1.7297 H   0  0  0  0  0  0  0  0  0  0  0  0
  1  2  1  0
  2  3  1  0
  3  4  1  0
  4  5  1  6
  4  6  1  0
  6  7  1  0
  7  8  2  0
  8  9  1  0
  9 10  1  0
 10 11  2  0
 11 12  1  0
 12 13  1  0
 12 14  2  0
 14 15  1  0
  8 16  1  0
 16 17  2  0
 17 18  1  0
 18 19  2  0
 19 20  1  0
 20 21  1  0
 21 22  1  0
 21 23  1  1
 23 24  1  0
 24 25  2  0
 21 26  1  0
 26 27  1  0
 26  2  1  0
 22  4  1  0
 15  9  2  0
 24 19  1  0
  1 28  1  0
  1 29  1  0
  1 30  1  0
  2 31  1  1
  3 32  1  0
  3 33  1  0
  5 34  1  0
  5 35  1  0
  5 36  1  0
  6 37  1  0
  6 38  1  0
  7 39  1  0
 10 40  1  0
 11 41  1  0
 14 42  1  0
 15 43  1  0
 16 44  1  0
 17 45  1  0
 20 46  1  0
 20 47  1  0
 22 48  1  0
 22 49  1  0
 23 50  1  0
 26 51  1  6
 27 52  1  0
 27 53  1  0
 27 54  1  0
M  END
>  <_SMILES>  (146) 
C[C@@H]1C[C@@]2(C)C\C=C(c3ccc(Cl)cc3)/C=C/N=C3\C[C@](C2)(NC3=O)[C@H]1C

$$$$

     RDKit          3D

 54 57  0  0  0  0  0  0  0  0999 V2000
   -3.9309   -1.6999    1.3972 C   0  0  0  0  0  0  0  0  0  0  0  0
   -3.1141   -0.7830    0.4775 C   0  0  2  0  0  0  0  0  0  0  0  0
   -1.8364   -1.5108    0.0278 C   0  0  0  0  0  0  0  0  0  0  0  0
   -0.8325   -0.6213   -0.7484 C   0  0  2  0  0  0  0  0  0  0  0  0
   -1.4101   -0.3685   -2.1662 C   0  0  0  0  0  0  0  0  0  0  0  0
    0.5217   -1.4175   -0.9753 C   0  0  0  0  0  0  0  0  0  0  0  0
    1.3997   -1.4585    0.2530 C   0  0  0  0  0  0  0  0  0  0  0  0
    2.5889   -0.8334    0.4191 C   0  0  0  0  0  0  0  0  0  0  0  0
    3.3476   -0.4224   -0.7898 C   0  0  0  0  0  0  0  0  0  0  0  0
    4.0789   -1.3846   -1.5012 C   0  0  0  0  0  0  0  0  0  0  0  0
    4.7924   -1.0257   -2.6477 C   0  0  0  0  0  0  0  0  0  0  0  0
    4.7771    0.2969   -3.0863 C   0  0  0  0  0  0  0  0  0  0  0  0
    5.6525    0.7380   -4.5002 Cl  0  0  0  0  0  0  0  0  0  0  0  0
    4.0564    1.2643   -2.3888 C   0  0  0  0  0  0  0  0  0  0  0  0
    3.3427    0.9056   -1.2423 C   0  0  0  0  0  0  0  0  0  0  0  0
    2.9004   -0.1973    1.7177 C   0  0  0  0  0  0  0  0  0  0  0  0
    2.1027   -0.2460    2.8038 C   0  0  0  0  0  0  0  0  0  0  0  0
    1.5998    0.9628    3.2301 N   0  0  0  0  0  0  0  0  0  0  0  0
    0.3563    1.1721    2.8979 C   0  0  0  0  0  0  0  0  0  0  0  0
   -0.7211    0.2100    2.4684 C   0  0  0  0  0  0  0  0  0  0  0  0
   -1.3843    0.9874    1.3039 C   0  0  2  0  0  0  0  0  0  0  0  0
   -0.6340    0.7749   -0.0475 C   0  0  0  0  0  0  0  0  0  0  0  0
   -1.2332    2.3763    1.7714 N   0  0  0  0  0  0  0  0  0  0  0  0
   -0.1988    2.5584    2.6683 C   0  0  0  0  0  0  0  0  0  0  0  0
    0.2121    3.5951    3.1335 O   0  0  0  0  0  0  0  0  0  0  0  0
   -2.8840    0.6002    1.1570 C   0  0  1  0  0  0  0  0  0  0  0  0
   -3.7053    1.6623    0.3983 C   0  0  0  0  0  0  0  0  0  0  0  0
   -3.3929   -1.9086    2.3282 H   0  0  0  0  0  0  0  0  0  0  0  0
   -4.8901   -1.2377    1.6535 H   0  0  0  0  0  0  0  0  0  0  0  0
   -4.1425   -2.6557    0.9061 H   0  0  0  0  0  0  0  0  0  0  0  0
   -3.7287   -0.6401   -0.4214 H   0  0  0  0  0  0  0  0  0  0  0  0
   -2.1270   -2.3620   -0.6046 H   0  0  0  0  0  0  0  0  0  0  0  0
   -1.3597   -1.9765    0.8945 H   0  0  0  0  0  0  0  0  0  0  0  0
   -2.3683    0.1587   -2.1300 H   0  0  0  0  0  0  0  0  0  0  0  0
   -1.5697   -1.3108   -2.7026 H   0  0  0  0  0  0  0  0  0  0  0  0
   -0.7251    0.2419   -2.7662 H   0  0  0  0  0  0  0  0  0  0  0  0
    0.2973   -2.4486   -1.2768 H   0  0  0  0  0  0  0  0  0  0  0  0
    1.0522   -0.9662   -1.8204 H   0  0  0  0  0  0  0  0  0  0  0  0
    0.8933   -1.8716    1.1151 H   0  0  0  0  0  0  0  0  0  0  0  0
    4.0972   -2.4185   -1.1630 H   0  0  0  0  0  0  0  0  0  0  0  0
    5.3563   -1.7799   -3.1897 H   0  0  0  0  0  0  0  0  0  0  0  0
    4.0462    2.2963   -2.7291 H   0  0  0  0  0  0  0  0  0  0  0  0
    2.7819    1.6684   -0.7066 H   0  0  0  0  0  0  0  0  0  0  0  0
    3.4431    0.7417    1.5780 H   0  0  0  0  0  0  0  0  0  0  0  0
    1.5413   -1.1382    3.0641 H   0  0  0  0  0  0  0  0  0  0  0  0
   -0.3814   -0.7853    2.2345 H   0  0  0  0  0  0  0  0  0  0  0  0
   -1.4065    0.1201    3.3216 H   0  0  0  0  0  0  0  0  0  0  0  0
   -0.9703    1.5657   -0.7333 H   0  0  0  0  0  0  0  0  0  0  0  0
    0.4293    0.9993    0.0804 H   0  0  0  0  0  0  0  0  0  0  0  0
   -1.6169    3.1923    1.3092 H   0  0  0  0  0  0  0  0  0  0  0  0
   -3.3219    0.5799    2.1652 H   0  0  0  0  0  0  0  0  0  0  0  0
   -3.3169    1.8360   -0.6093 H   0  0  0  0  0  0  0  0  0  0  0  0
   -3.7141    2.6179    0.9314 H   0  0  0  0  0  0  0  0  0  0  0  0
   -4.7507    1.3462    0.3064 H   0  0  0  0  0  0  0  0  0  0  0  0
  1  2  1  0
  2  3  1  0
  3  4  1  0
  4  5  1  6
  4  6  1  0
  6  7  1  0
  7  8  2  0
  8  9  1  0
  9 10  1  0
 10 11  2  0
 11 12  1  0
 12 13  1  0
 12 14  2  0
 14 15  1  0
  8 16  1  0
 16 17  2  0
 17 18  1  0
 18 19  2  0
 19 20  1  0
 20 21  1  0
 21 22  1  0
 21 23  1  1
 23 24  1  0
 24 25  2  0
 21 26  1  0
 26 27  1  0
 26  2  1  0
 22  4  1  0
 15  9  2  0
 24 19  1  0
  1 28  1  0
  1 29  1  0
  1 30  1  0
  2 31  1  6
  3 32  1  0
  3 33  1  0
  5 34  1  0
  5 35  1  0
  5 36  1  0
  6 37  1  0
  6 38  1  0
  7 39  1  0
 10 40  1  0
 11 41  1  0
 14 42  1  0
 15 43  1  0
 16 44  1  0
 17 45  1  0
 20 46  1  0
 20 47  1  0
 22 48  1  0
 22 49  1  0
 23 50  1  0
 26 51  1  1
 27 52  1  0
 27 53  1  0
 27 54  1  0
M  END
>  <_SMILES>  (147) 
C[C@@H]1C[C@]2(C)C/C=C(c3ccc(Cl)cc3)/C=C/N=C3\C[C@](C2)(NC3=O)[C@H]1C

$$$$

     RDKit          3D

 54 57  0  0  0  0  0  0  0  0999 V2000
   -2.7602   -1.3829    2.1535 C   0  0  0  0  0  0  0  0  0  0  0  0
   -2.5291   -0.9616    0.6967 C   0  0  2  0  0  0  0  0  0  0  0  0
   -1.1501   -1.4668    0.2274 C   0  0  0  0  0  0  0  0  0  0  0  0
   -0.8943   -1.2155   -1.2896 C   0  0  2  0  0  0  0  0  0  0  0  0
   -1.4633   -2.4221   -2.0832 C   0  0  0  0  0  0  0  0  0  0  0  0
    0.6277   -1.0840   -1.7062 C   0  0  0  0  0  0  0  0  0  0  0  0
    1.6107   -0.9396   -0.5839 C   0  0  0  0  0  0  0  0  0  0  0  0
    2.4880    0.0431   -0.2976 C   0  0  0  0  0  0  0  0  0  0  0  0
    3.2815   -0.2174    0.9360 C   0  0  0  0  0  0  0  0  0  0  0  0
    4.3446   -1.1326    0.9268 C   0  0  0  0  0  0  0  0  0  0  0  0
    5.0884   -1.3593    2.0874 C   0  0  0  0  0  0  0  0  0  0  0  0
    4.7745   -0.6681    3.2564 C   0  0  0  0  0  0  0  0  0  0  0  0
    5.6903   -0.9481    4.6857 Cl  0  0  0  0  0  0  0  0  0  0  0  0
    3.7256    0.2499    3.2759 C   0  0  0  0  0  0  0  0  0  0  0  0
    2.9809    0.4773    2.1160 C   0  0  0  0  0  0  0  0  0  0  0  0
    2.8287    1.2238   -1.0745 C   0  0  0  0  0  0  0  0  0  0  0  0
    2.2276    2.2282   -1.7258 C   0  0  0  0  0  0  0  0  0  0  0  0
    0.9772    2.6441   -2.0559 N   0  0  0  0  0  0  0  0  0  0  0  0
   -0.1227    2.4713   -1.4101 C   0  0  0  0  0  0  0  0  0  0  0  0
   -0.4797    1.7092   -0.1866 C   0  0  0  0  0  0  0  0  0  0  0  0
   -1.8444    1.1392   -0.6692 C   0  0  2  0  0  0  0  0  0  0  0  0
   -1.6903    0.0314   -1.7488 C   0  0  0  0  0  0  0  0  0  0  0  0
   -2.4228    2.3112   -1.3228 N   0  0  0  0  0  0  0  0  0  0  0  0
   -1.4317    3.0316   -1.9615 C   0  0  0  0  0  0  0  0  0  0  0  0
   -1.5647    3.8963   -2.7957 O   0  0  0  0  0  0  0  0  0  0  0  0
   -2.6812    0.5874    0.5282 C   0  0  1  0  0  0  0  0  0  0  0  0
   -4.1768    0.9347    0.4208 C   0  0  0  0  0  0  0  0  0  0  0  0
   -2.0224   -0.9238    2.8203 H   0  0  0  0  0  0  0  0  0  0  0  0
   -2.6777   -2.4701    2.2588 H   0  0  0  0  0  0  0  0  0  0  0  0
   -3.7566   -1.0955    2.5014 H   0  0  0  0  0  0  0  0  0  0  0  0
   -3.2961   -1.4638    0.0923 H   0  0  0  0  0  0  0  0  0  0  0  0
   -0.4081   -0.9702    0.8590 H   0  0  0  0  0  0  0  0  0  0  0  0
   -1.0484   -2.5382    0.4442 H   0  0  0  0  0  0  0  0  0  0  0  0
   -2.5268   -2.5811   -1.8738 H   0  0  0  0  0  0  0  0  0  0  0  0
   -0.9374   -3.3480   -1.8231 H   0  0  0  0  0  0  0  0  0  0  0  0
   -1.3573   -2.2679   -3.1634 H   0  0  0  0  0  0  0  0  0  0  0  0
    0.7576   -0.2779   -2.4354 H   0  0  0  0  0  0  0  0  0  0  0  0
    0.9333   -1.9907   -2.2465 H   0  0  0  0  0  0  0  0  0  0  0  0
    1.5806   -1.7966    0.0942 H   0  0  0  0  0  0  0  0  0  0  0  0
    4.5967   -1.6710    0.0157 H   0  0  0  0  0  0  0  0  0  0  0  0
    5.9088   -2.0717    2.0717 H   0  0  0  0  0  0  0  0  0  0  0  0
    3.4848    0.7919    4.1864 H   0  0  0  0  0  0  0  0  0  0  0  0
    2.1672    1.1986    2.1358 H   0  0  0  0  0  0  0  0  0  0  0  0
    3.9213    1.3217   -1.0920 H   0  0  0  0  0  0  0  0  0  0  0  0
    2.9484    2.9177   -2.1780 H   0  0  0  0  0  0  0  0  0  0  0  0
    0.2336    0.9800    0.1432 H   0  0  0  0  0  0  0  0  0  0  0  0
   -0.6157    2.4342    0.6261 H   0  0  0  0  0  0  0  0  0  0  0  0
   -1.2625    0.4233   -2.6811 H   0  0  0  0  0  0  0  0  0  0  0  0
   -2.7075   -0.2665   -2.0460 H   0  0  0  0  0  0  0  0  0  0  0  0
   -3.3410    2.3309   -1.7518 H   0  0  0  0  0  0  0  0  0  0  0  0
   -2.3214    1.0728    1.4458 H   0  0  0  0  0  0  0  0  0  0  0  0
   -4.6120    0.5406   -0.5036 H   0  0  0  0  0  0  0  0  0  0  0  0
   -4.3314    2.0186    0.4404 H   0  0  0  0  0  0  0  0  0  0  0  0
   -4.7444    0.5219    1.2602 H   0  0  0  0  0  0  0  0  0  0  0  0
  1  2  1  0
  2  3  1  0
  3  4  1  0
  4  5  1  6
  4  6  1  0
  6  7  1  0
  7  8  2  0
  8  9  1  0
  9 10  1  0
 10 11  2  0
 11 12  1  0
 12 13  1  0
 12 14  2  0
 14 15  1  0
  8 16  1  0
 16 17  2  0
 17 18  1  0
 18 19  2  0
 19 20  1  0
 20 21  1  0
 21 22  1  0
 21 23  1  6
 23 24  1  0
 24 25  2  0
 21 26  1  0
 26 27  1  0
 26  2  1  0
 22  4  1  0
 15  9  2  0
 24 19  1  0
  1 28  1  0
  1 29  1  0
  1 30  1  0
  2 31  1  6
  3 32  1  0
  3 33  1  0
  5 34  1  0
  5 35  1  0
  5 36  1  0
  6 37  1  0
  6 38  1  0
  7 39  1  0
 10 40  1  0
 11 41  1  0
 14 42  1  0
 15 43  1  0
 16 44  1  0
 17 45  1  0
 20 46  1  0
 20 47  1  0
 22 48  1  0
 22 49  1  0
 23 50  1  0
 26 51  1  1
 27 52  1  0
 27 53  1  0
 27 54  1  0
M  END
>  <_SMILES>  (148) 
C[C@@H]1C[C@]2(C)C\C=C(c3ccc(Cl)cc3)/C=C\N=C3/C[C@](C2)(NC3=O)[C@H]1C

$$$$

     RDKit          3D

 54 57  0  0  0  0  0  0  0  0999 V2000
   -3.9262    2.1836   -0.9493 C   0  0  0  0  0  0  0  0  0  0  0  0
   -3.4847    1.1349    0.0785 C   0  0  2  0  0  0  0  0  0  0  0  0
   -2.1829    1.6071    0.8324 C   0  0  0  0  0  0  0  0  0  0  0  0
   -0.8092    1.2438    0.1780 C   0  0  1  0  0  0  0  0  0  0  0  0
   -0.2576    2.4671   -0.5803 C   0  0  0  0  0  0  0  0  0  0  0  0
    0.2526    0.7920    1.2389 C   0  0  0  0  0  0  0  0  0  0  0  0
    1.7123    0.5159    0.8927 C   0  0  0  0  0  0  0  0  0  0  0  0
    2.4433   -0.2673    0.0570 C   0  0  0  0  0  0  0  0  0  0  0  0
    3.9125   -0.0620    0.2318 C   0  0  0  0  0  0  0  0  0  0  0  0
    4.6584   -0.9885    0.9742 C   0  0  0  0  0  0  0  0  0  0  0  0
    6.0353   -0.8170    1.1335 C   0  0  0  0  0  0  0  0  0  0  0  0
    6.6678    0.2782    0.5474 C   0  0  0  0  0  0  0  0  0  0  0  0
    8.3644    0.4900    0.7426 Cl  0  0  0  0  0  0  0  0  0  0  0  0
    5.9376    1.2034   -0.1981 C   0  0  0  0  0  0  0  0  0  0  0  0
    4.5604    1.0330   -0.3585 C   0  0  0  0  0  0  0  0  0  0  0  0
    2.0747   -1.2229   -0.9966 C   0  0  0  0  0  0  0  0  0  0  0  0
    1.3360   -2.3475   -0.9636 C   0  0  0  0  0  0  0  0  0  0  0  0
    0.6651   -2.7860    0.1333 N   0  0  0  0  0  0  0  0  0  0  0  0
   -0.6270   -2.6743    0.1104 C   0  0  0  0  0  0  0  0  0  0  0  0
   -1.6179   -2.2676   -0.9668 C   0  0  0  0  0  0  0  0  0  0  0  0
   -2.0724   -0.9541   -0.2840 C   0  0  2  0  0  0  0  0  0  0  0  0
   -1.0499    0.1093   -0.7864 C   0  0  0  0  0  0  0  0  0  0  0  0
   -2.0712   -1.3302    1.1431 N   0  0  0  0  0  0  0  0  0  0  0  0
   -1.3267   -2.4470    1.4175 C   0  0  0  0  0  0  0  0  0  0  0  0
   -1.2415   -3.0926    2.4321 O   0  0  0  0  0  0  0  0  0  0  0  0
   -3.4239   -0.2941   -0.6041 C   0  0  1  0  0  0  0  0  0  0  0  0
   -4.6475   -1.1396   -0.2363 C   0  0  0  0  0  0  0  0  0  0  0  0
   -4.8974    1.9159   -1.3793 H   0  0  0  0  0  0  0  0  0  0  0  0
   -3.2086    2.2708   -1.7702 H   0  0  0  0  0  0  0  0  0  0  0  0
   -4.0316    3.1686   -0.4828 H   0  0  0  0  0  0  0  0  0  0  0  0
   -4.2741    1.1148    0.8430 H   0  0  0  0  0  0  0  0  0  0  0  0
   -2.2196    1.1692    1.8385 H   0  0  0  0  0  0  0  0  0  0  0  0
   -2.2393    2.6883    1.0158 H   0  0  0  0  0  0  0  0  0  0  0  0
   -0.0189    3.2826    0.1116 H   0  0  0  0  0  0  0  0  0  0  0  0
    0.6542    2.2203   -1.1351 H   0  0  0  0  0  0  0  0  0  0  0  0
   -0.9825    2.8519   -1.3046 H   0  0  0  0  0  0  0  0  0  0  0  0
   -0.0964   -0.0624    1.8223 H   0  0  0  0  0  0  0  0  0  0  0  0
    0.2818    1.6049    1.9822 H   0  0  0  0  0  0  0  0  0  0  0  0
    2.3178    1.1207    1.5796 H   0  0  0  0  0  0  0  0  0  0  0  0
    4.1642   -1.8454    1.4295 H   0  0  0  0  0  0  0  0  0  0  0  0
    6.6036   -1.5395    1.7127 H   0  0  0  0  0  0  0  0  0  0  0  0
    6.4326    2.0555   -0.6555 H   0  0  0  0  0  0  0  0  0  0  0  0
    3.9940    1.7549   -0.9419 H   0  0  0  0  0  0  0  0  0  0  0  0
    2.5773   -1.0135   -1.9420 H   0  0  0  0  0  0  0  0  0  0  0  0
    1.2596   -2.9585   -1.8615 H   0  0  0  0  0  0  0  0  0  0  0  0
   -1.1816   -2.1515   -1.9603 H   0  0  0  0  0  0  0  0  0  0  0  0
   -2.4190   -3.0128   -1.0024 H   0  0  0  0  0  0  0  0  0  0  0  0
   -1.4062    0.5078   -1.7495 H   0  0  0  0  0  0  0  0  0  0  0  0
   -0.1069   -0.3192   -1.0804 H   0  0  0  0  0  0  0  0  0  0  0  0
   -2.6948   -0.9671    1.8537 H   0  0  0  0  0  0  0  0  0  0  0  0
   -3.4832   -0.1649   -1.6947 H   0  0  0  0  0  0  0  0  0  0  0  0
   -4.7297   -1.3007    0.8430 H   0  0  0  0  0  0  0  0  0  0  0  0
   -5.5657   -0.6406   -0.5649 H   0  0  0  0  0  0  0  0  0  0  0  0
   -4.6108   -2.1176   -0.7259 H   0  0  0  0  0  0  0  0  0  0  0  0
  1  2  1  0
  2  3  1  0
  3  4  1  0
  4  5  1  6
  4  6  1  0
  6  7  1  0
  7  8  2  0
  8  9  1  0
  9 10  1  0
 10 11  2  0
 11 12  1  0
 12 13  1  0
 12 14  2  0
 14 15  1  0
  8 16  1  0
 16 17  2  0
 17 18  1  0
 18 19  2  0
 19 20  1  0
 20 21  1  0
 21 22  1  0
 21 23  1  1
 23 24  1  0
 24 25  2  0
 21 26  1  0
 26 27  1  0
 26  2  1  0
 22  4  1  0
 15  9  2  0
 24 19  1  0
  1 28  1  0
  1 29  1  0
  1 30  1  0
  2 31  1  1
  3 32  1  0
  3 33  1  0
  5 34  1  0
  5 35  1  0
  5 36  1  0
  6 37  1  0
  6 38  1  0
  7 39  1  0
 10 40  1  0
 11 41  1  0
 14 42  1  0
 15 43  1  0
 16 44  1  0
 17 45  1  0
 20 46  1  0
 20 47  1  0
 22 48  1  0
 22 49  1  0
 23 50  1  0
 26 51  1  6
 27 52  1  0
 27 53  1  0
 27 54  1  0
M  END
>  <_SMILES>  (149) 
C[C@@H]1C[C@@]2(C)C\C=C(c3ccc(Cl)cc3)/C=C\N=C3/C[C@](C2)(NC3=O)[C@H]1C

$$$$

     RDKit          3D

 54 57  0  0  0  0  0  0  0  0999 V2000
    1.9786    2.7342    0.9240 C   0  0  0  0  0  0  0  0  0  0  0  0
    1.9064    1.6285   -0.1361 C   0  0  2  0  0  0  0  0  0  0  0  0
    0.4343    1.3432   -0.4909 C   0  0  0  0  0  0  0  0  0  0  0  0
    0.2652    0.2488   -1.5749 C   0  0  2  0  0  0  0  0  0  0  0  0
    0.5353    0.8966   -2.9596 C   0  0  0  0  0  0  0  0  0  0  0  0
   -1.2174   -0.2752   -1.6343 C   0  0  0  0  0  0  0  0  0  0  0  0
   -1.5595   -1.3299   -0.6153 C   0  0  0  0  0  0  0  0  0  0  0  0
   -2.2190   -1.2063    0.5534 C   0  0  0  0  0  0  0  0  0  0  0  0
   -2.9381    0.0522    0.8719 C   0  0  0  0  0  0  0  0  0  0  0  0
   -4.0756    0.4234    0.1395 C   0  0  0  0  0  0  0  0  0  0  0  0
   -4.7672    1.5971    0.4502 C   0  0  0  0  0  0  0  0  0  0  0  0
   -4.3309    2.3984    1.5029 C   0  0  0  0  0  0  0  0  0  0  0  0
   -5.1799    3.8449    1.8851 Cl  0  0  0  0  0  0  0  0  0  0  0  0
   -3.2142    2.0334    2.2520 C   0  0  0  0  0  0  0  0  0  0  0  0
   -2.5236    0.8590    1.9412 C   0  0  0  0  0  0  0  0  0  0  0  0
   -2.2056   -2.2870    1.5397 C   0  0  0  0  0  0  0  0  0  0  0  0
   -1.2838   -3.2252    1.8236 C   0  0  0  0  0  0  0  0  0  0  0  0
   -0.1189   -3.5999    1.2106 N   0  0  0  0  0  0  0  0  0  0  0  0
    0.8694   -2.7934    0.9901 C   0  0  0  0  0  0  0  0  0  0  0  0
    1.0357   -1.3275    1.2223 C   0  0  0  0  0  0  0  0  0  0  0  0
    1.9796   -0.9664    0.0356 C   0  0  2  0  0  0  0  0  0  0  0  0
    1.2973   -0.8917   -1.3661 C   0  0  0  0  0  0  0  0  0  0  0  0
    2.8629   -2.1338    0.0202 N   0  0  0  0  0  0  0  0  0  0  0  0
    2.1637   -3.2796    0.3519 C   0  0  0  0  0  0  0  0  0  0  0  0
    2.4972   -4.4265    0.1636 O   0  0  0  0  0  0  0  0  0  0  0  0
    2.7137    0.3741    0.3302 C   0  0  1  0  0  0  0  0  0  0  0  0
    4.1232    0.4400   -0.2867 C   0  0  0  0  0  0  0  0  0  0  0  0
    3.0181    2.9957    1.1473 H   0  0  0  0  0  0  0  0  0  0  0  0
    1.4981    2.4200    1.8568 H   0  0  0  0  0  0  0  0  0  0  0  0
    1.4751    3.6416    0.5738 H   0  0  0  0  0  0  0  0  0  0  0  0
    2.3811    2.0369   -1.0377 H   0  0  0  0  0  0  0  0  0  0  0  0
   -0.1048    1.0823    0.4207 H   0  0  0  0  0  0  0  0  0  0  0  0
   -0.0399    2.2725   -0.8357 H   0  0  0  0  0  0  0  0  0  0  0  0
    1.5416    1.3234   -3.0224 H   0  0  0  0  0  0  0  0  0  0  0  0
    0.4452    0.1570   -3.7638 H   0  0  0  0  0  0  0  0  0  0  0  0
   -0.1798    1.7011   -3.1662 H   0  0  0  0  0  0  0  0  0  0  0  0
   -1.4032   -0.7314   -2.6164 H   0  0  0  0  0  0  0  0  0  0  0  0
   -1.8989    0.5806   -1.5820 H   0  0  0  0  0  0  0  0  0  0  0  0
   -1.1478   -2.3102   -0.8563 H   0  0  0  0  0  0  0  0  0  0  0  0
   -4.4278   -0.2021   -0.6784 H   0  0  0  0  0  0  0  0  0  0  0  0
   -5.6432    1.8760   -0.1293 H   0  0  0  0  0  0  0  0  0  0  0  0
   -2.8786    2.6540    3.0785 H   0  0  0  0  0  0  0  0  0  0  0  0
   -1.6574    0.5802    2.5367 H   0  0  0  0  0  0  0  0  0  0  0  0
   -3.0836   -2.2769    2.1888 H   0  0  0  0  0  0  0  0  0  0  0  0
   -1.5441   -3.9034    2.6388 H   0  0  0  0  0  0  0  0  0  0  0  0
    0.1268   -0.7546    1.2864 H   0  0  0  0  0  0  0  0  0  0  0  0
    1.5530   -1.2209    2.1850 H   0  0  0  0  0  0  0  0  0  0  0  0
    0.8635   -1.8580   -1.6503 H   0  0  0  0  0  0  0  0  0  0  0  0
    2.1089   -0.7698   -2.0994 H   0  0  0  0  0  0  0  0  0  0  0  0
    3.6297   -2.2510   -0.6324 H   0  0  0  0  0  0  0  0  0  0  0  0
    2.8731    0.4392    1.4155 H   0  0  0  0  0  0  0  0  0  0  0  0
    4.0950    0.3107   -1.3733 H   0  0  0  0  0  0  0  0  0  0  0  0
    4.7767   -0.3306    0.1345 H   0  0  0  0  0  0  0  0  0  0  0  0
    4.5944    1.4063   -0.0756 H   0  0  0  0  0  0  0  0  0  0  0  0
  1  2  1  0
  2  3  1  0
  3  4  1  0
  4  5  1  6
  4  6  1  0
  6  7  1  0
  7  8  2  0
  8  9  1  0
  9 10  1  0
 10 11  2  0
 11 12  1  0
 12 13  1  0
 12 14  2  0
 14 15  1  0
  8 16  1  0
 16 17  2  0
 17 18  1  0
 18 19  2  0
 19 20  1  0
 20 21  1  0
 21 22  1  0
 21 23  1  6
 23 24  1  0
 24 25  2  0
 21 26  1  0
 26 27  1  0
 26  2  1  0
 22  4  1  0
 15  9  2  0
 24 19  1  0
  1 28  1  0
  1 29  1  0
  1 30  1  0
  2 31  1  6
  3 32  1  0
  3 33  1  0
  5 34  1  0
  5 35  1  0
  5 36  1  0
  6 37  1  0
  6 38  1  0
  7 39  1  0
 10 40  1  0
 11 41  1  0
 14 42  1  0
 15 43  1  0
 16 44  1  0
 17 45  1  0
 20 46  1  0
 20 47  1  0
 22 48  1  0
 22 49  1  0
 23 50  1  0
 26 51  1  1
 27 52  1  0
 27 53  1  0
 27 54  1  0
M  END
>  <_SMILES>  (150) 
C[C@@H]1C[C@]2(C)C/C=C(c3ccc(Cl)cc3)/C=C\N=C3/C[C@](C2)(NC3=O)[C@H]1C

$$$$

     RDKit          3D

 54 57  0  0  0  0  0  0  0  0999 V2000
   -2.7530    3.3096    0.3131 C   0  0  0  0  0  0  0  0  0  0  0  0
   -2.4575    1.8691    0.7449 C   0  0  2  0  0  0  0  0  0  0  0  0
   -1.0625    1.8414    1.5288 C   0  0  0  0  0  0  0  0  0  0  0  0
   -0.2070    0.6303    1.1001 C   0  0  1  0  0  0  0  0  0  0  0  0
    0.4404    1.1190   -0.2248 C   0  0  0  0  0  0  0  0  0  0  0  0
    0.9823    0.1249    2.0022 C   0  0  0  0  0  0  0  0  0  0  0  0
    1.4396   -1.2614    1.4837 C   0  0  0  0  0  0  0  0  0  0  0  0
    2.1832   -1.5284    0.3876 C   0  0  0  0  0  0  0  0  0  0  0  0
    3.2504   -0.5692   -0.0370 C   0  0  0  0  0  0  0  0  0  0  0  0
    3.4033   -0.2034   -1.3850 C   0  0  0  0  0  0  0  0  0  0  0  0
    4.4248    0.6652   -1.7816 C   0  0  0  0  0  0  0  0  0  0  0  0
    5.3163    1.1624   -0.8349 C   0  0  0  0  0  0  0  0  0  0  0  0
    6.5727    2.2313   -1.3218 Cl  0  0  0  0  0  0  0  0  0  0  0  0
    5.2006    0.7924    0.5019 C   0  0  0  0  0  0  0  0  0  0  0  0
    4.1778   -0.0757    0.8960 C   0  0  0  0  0  0  0  0  0  0  0  0
    1.9711   -2.7509   -0.4069 C   0  0  0  0  0  0  0  0  0  0  0  0
    0.8912   -3.4951   -0.7270 C   0  0  0  0  0  0  0  0  0  0  0  0
   -0.3896   -3.5636   -0.2488 N   0  0  0  0  0  0  0  0  0  0  0  0
   -1.3394   -2.7256   -0.5293 C   0  0  0  0  0  0  0  0  0  0  0  0
   -1.3463   -1.3919   -1.2181 C   0  0  0  0  0  0  0  0  0  0  0  0
   -2.1354   -0.6080   -0.1098 C   0  0  2  0  0  0  0  0  0  0  0  0
   -1.2701   -0.4918    1.1386 C   0  0  0  0  0  0  0  0  0  0  0  0
   -3.2018   -1.5675    0.1983 N   0  0  0  0  0  0  0  0  0  0  0  0
   -2.7194   -2.8652    0.1142 C   0  0  0  0  0  0  0  0  0  0  0  0
   -3.2475   -3.8830    0.4960 O   0  0  0  0  0  0  0  0  0  0  0  0
   -2.6320    0.8306   -0.4668 C   0  0  1  0  0  0  0  0  0  0  0  0
   -4.0686    0.8308   -1.0115 C   0  0  0  0  0  0  0  0  0  0  0  0
   -3.7840    3.4234   -0.0330 H   0  0  0  0  0  0  0  0  0  0  0  0
   -2.6202    4.0005    1.1530 H   0  0  0  0  0  0  0  0  0  0  0  0
   -2.0822    3.6224   -0.4936 H   0  0  0  0  0  0  0  0  0  0  0  0
   -3.2233    1.6047    1.4890 H   0  0  0  0  0  0  0  0  0  0  0  0
   -0.5121    2.7803    1.3852 H   0  0  0  0  0  0  0  0  0  0  0  0
   -1.2760    1.7933    2.6054 H   0  0  0  0  0  0  0  0  0  0  0  0
   -0.2008    1.7487   -0.8421 H   0  0  0  0  0  0  0  0  0  0  0  0
    0.8017    0.3238   -0.8616 H   0  0  0  0  0  0  0  0  0  0  0  0
    1.3006    1.7642   -0.0006 H   0  0  0  0  0  0  0  0  0  0  0  0
    1.8024    0.8483    2.0292 H   0  0  0  0  0  0  0  0  0  0  0  0
    0.6403    0.0063    3.0377 H   0  0  0  0  0  0  0  0  0  0  0  0
    0.8649   -2.0944    1.8912 H   0  0  0  0  0  0  0  0  0  0  0  0
    2.7184   -0.5845   -2.1395 H   0  0  0  0  0  0  0  0  0  0  0  0
    4.5189    0.9450   -2.8273 H   0  0  0  0  0  0  0  0  0  0  0  0
    5.9030    1.1675    1.2413 H   0  0  0  0  0  0  0  0  0  0  0  0
    4.1144   -0.3717    1.9415 H   0  0  0  0  0  0  0  0  0  0  0  0
    2.8908   -3.0570   -0.9132 H   0  0  0  0  0  0  0  0  0  0  0  0
    1.0995   -4.3271   -1.4042 H   0  0  0  0  0  0  0  0  0  0  0  0
   -1.9343   -1.4709   -2.1395 H   0  0  0  0  0  0  0  0  0  0  0  0
   -0.3514   -1.0522   -1.4639 H   0  0  0  0  0  0  0  0  0  0  0  0
   -0.8787   -1.4649    1.4132 H   0  0  0  0  0  0  0  0  0  0  0  0
   -1.9262   -0.3289    2.0121 H   0  0  0  0  0  0  0  0  0  0  0  0
   -3.9559   -1.3968    0.8536 H   0  0  0  0  0  0  0  0  0  0  0  0
   -2.0257    1.1920   -1.3034 H   0  0  0  0  0  0  0  0  0  0  0  0
   -4.3196    1.7949   -1.4639 H   0  0  0  0  0  0  0  0  0  0  0  0
   -4.7980    0.6318   -0.2197 H   0  0  0  0  0  0  0  0  0  0  0  0
   -4.1901    0.0745   -1.7946 H   0  0  0  0  0  0  0  0  0  0  0  0
  1  2  1  0
  2  3  1  0
  3  4  1  0
  4  5  1  6
  4  6  1  0
  6  7  1  0
  7  8  2  0
  8  9  1  0
  9 10  1  0
 10 11  2  0
 11 12  1  0
 12 13  1  0
 12 14  2  0
 14 15  1  0
  8 16  1  0
 16 17  2  0
 17 18  1  0
 18 19  2  0
 19 20  1  0
 20 21  1  0
 21 22  1  0
 21 23  1  1
 23 24  1  0
 24 25  2  0
 21 26  1  0
 26 27  1  0
 26  2  1  0
 22  4  1  0
 15  9  2  0
 24 19  1  0
  1 28  1  0
  1 29  1  0
  1 30  1  0
  2 31  1  1
  3 32  1  0
  3 33  1  0
  5 34  1  0
  5 35  1  0
  5 36  1  0
  6 37  1  0
  6 38  1  0
  7 39  1  0
 10 40  1  0
 11 41  1  0
 14 42  1  0
 15 43  1  0
 16 44  1  0
 17 45  1  0
 20 46  1  0
 20 47  1  0
 22 48  1  0
 22 49  1  0
 23 50  1  0
 26 51  1  6
 27 52  1  0
 27 53  1  0
 27 54  1  0
M  END
>  <_SMILES>  (151) 
C[C@@H]1C[C@@]2(C)C/C=C(c3ccc(Cl)cc3)/C=C\N=C3/C[C@](C2)(NC3=O)[C@H]1C

$$$$

     RDKit          3D

 54 57  0  0  0  0  0  0  0  0999 V2000
   -3.0862    3.2010    2.1569 C   0  0  0  0  0  0  0  0  0  0  0  0
   -2.1803    2.0600    1.6729 C   0  0  2  0  0  0  0  0  0  0  0  0
   -1.5982    2.4451    0.2825 C   0  0  0  0  0  0  0  0  0  0  0  0
   -0.8102    1.3395   -0.4920 C   0  0  1  0  0  0  0  0  0  0  0  0
   -0.7747    1.7511   -1.9850 C   0  0  0  0  0  0  0  0  0  0  0  0
    0.6815    1.2264   -0.0087 C   0  0  0  0  0  0  0  0  0  0  0  0
    1.8003    0.4422   -0.7102 C   0  0  0  0  0  0  0  0  0  0  0  0
    1.9468   -0.7829   -1.2760 C   0  0  0  0  0  0  0  0  0  0  0  0
    3.2886   -1.1081   -1.8093 C   0  0  0  0  0  0  0  0  0  0  0  0
    3.5317   -1.0425   -3.1876 C   0  0  0  0  0  0  0  0  0  0  0  0
    4.7951   -1.3565   -3.6948 C   0  0  0  0  0  0  0  0  0  0  0  0
    5.8148   -1.7399   -2.8249 C   0  0  0  0  0  0  0  0  0  0  0  0
    7.3707   -2.1252   -3.4507 Cl  0  0  0  0  0  0  0  0  0  0  0  0
    5.5833   -1.8143   -1.4525 C   0  0  0  0  0  0  0  0  0  0  0  0
    4.3204   -1.5001   -0.9446 C   0  0  0  0  0  0  0  0  0  0  0  0
    0.8888   -1.7654   -1.3547 C   0  0  0  0  0  0  0  0  0  0  0  0
    0.6780   -2.7421   -0.4529 C   0  0  0  0  0  0  0  0  0  0  0  0
   -0.6285   -3.1173   -0.1928 N   0  0  0  0  0  0  0  0  0  0  0  0
   -1.0838   -2.4907    0.8599 C   0  0  0  0  0  0  0  0  0  0  0  0
   -2.4743   -1.8949    0.9610 C   0  0  0  0  0  0  0  0  0  0  0  0
   -1.9841   -0.4038    1.0951 C   0  0  2  0  0  0  0  0  0  0  0  0
   -1.6533    0.0710   -0.3545 C   0  0  0  0  0  0  0  0  0  0  0  0
   -0.8248   -0.5466    1.9754 N   0  0  0  0  0  0  0  0  0  0  0  0
   -0.2478   -1.7763    1.9019 C   0  0  0  0  0  0  0  0  0  0  0  0
    0.6843   -2.2218    2.5275 O   0  0  0  0  0  0  0  0  0  0  0  0
   -2.9270    0.6734    1.6805 C   0  0  1  0  0  0  0  0  0  0  0  0
   -3.4510    0.3081    3.0756 C   0  0  0  0  0  0  0  0  0  0  0  0
   -2.5767    4.1667    2.0675 H   0  0  0  0  0  0  0  0  0  0  0  0
   -3.3545    3.0790    3.2104 H   0  0  0  0  0  0  0  0  0  0  0  0
   -4.0092    3.2498    1.5696 H   0  0  0  0  0  0  0  0  0  0  0  0
   -1.3386    2.0165    2.3749 H   0  0  0  0  0  0  0  0  0  0  0  0
   -0.9682    3.3379    0.3902 H   0  0  0  0  0  0  0  0  0  0  0  0
   -2.4476    2.7607   -0.3411 H   0  0  0  0  0  0  0  0  0  0  0  0
   -0.2268    2.6904   -2.1213 H   0  0  0  0  0  0  0  0  0  0  0  0
   -0.2936    0.9865   -2.6036 H   0  0  0  0  0  0  0  0  0  0  0  0
   -1.7845    1.8989   -2.3851 H   0  0  0  0  0  0  0  0  0  0  0  0
    1.0519    2.2648   -0.0373 H   0  0  0  0  0  0  0  0  0  0  0  0
    0.7405    0.9895    1.0549 H   0  0  0  0  0  0  0  0  0  0  0  0
    2.7106    1.0526   -0.7086 H   0  0  0  0  0  0  0  0  0  0  0  0
    2.7387   -0.7472   -3.8707 H   0  0  0  0  0  0  0  0  0  0  0  0
    4.9749   -1.3024   -4.7650 H   0  0  0  0  0  0  0  0  0  0  0  0
    6.3762   -2.1180   -0.7745 H   0  0  0  0  0  0  0  0  0  0  0  0
    4.1419   -1.5662    0.1268 H   0  0  0  0  0  0  0  0  0  0  0  0
    0.1269   -1.5456   -2.0968 H   0  0  0  0  0  0  0  0  0  0  0  0
    1.4425   -3.0084    0.2772 H   0  0  0  0  0  0  0  0  0  0  0  0
   -3.0866   -2.0864    0.0776 H   0  0  0  0  0  0  0  0  0  0  0  0
   -2.9569   -2.2733    1.8655 H   0  0  0  0  0  0  0  0  0  0  0  0
   -1.2342   -0.7172   -0.9565 H   0  0  0  0  0  0  0  0  0  0  0  0
   -2.6188    0.2440   -0.8582 H   0  0  0  0  0  0  0  0  0  0  0  0
   -0.4694    0.1370    2.6320 H   0  0  0  0  0  0  0  0  0  0  0  0
   -3.8075    0.7556    1.0278 H   0  0  0  0  0  0  0  0  0  0  0  0
   -4.2164    1.0170    3.4063 H   0  0  0  0  0  0  0  0  0  0  0  0
   -2.6509    0.3066    3.8226 H   0  0  0  0  0  0  0  0  0  0  0  0
   -3.9239   -0.6780    3.0782 H   0  0  0  0  0  0  0  0  0  0  0  0
  1  2  1  0
  2  3  1  0
  3  4  1  0
  4  5  1  6
  4  6  1  0
  6  7  1  0
  7  8  2  0
  8  9  1  0
  9 10  1  0
 10 11  2  0
 11 12  1  0
 12 13  1  0
 12 14  2  0
 14 15  1  0
  8 16  1  0
 16 17  2  0
 17 18  1  0
 18 19  2  0
 19 20  1  0
 20 21  1  0
 21 22  1  0
 21 23  1  1
 23 24  1  0
 24 25  2  0
 21 26  1  0
 26 27  1  0
 26  2  1  0
 22  4  1  0
 15  9  2  0
 24 19  1  0
  1 28  1  0
  1 29  1  0
  1 30  1  0
  2 31  1  1
  3 32  1  0
  3 33  1  0
  5 34  1  0
  5 35  1  0
  5 36  1  0
  6 37  1  0
  6 38  1  0
  7 39  1  0
 10 40  1  0
 11 41  1  0
 14 42  1  0
 15 43  1  0
 16 44  1  0
 17 45  1  0
 20 46  1  0
 20 47  1  0
 22 48  1  0
 22 49  1  0
 23 50  1  0
 26 51  1  6
 27 52  1  0
 27 53  1  0
 27 54  1  0
M  END
>  <_SMILES>  (152) 
C[C@@H]1C[C@@]2(C)C\C=C(c3ccc(Cl)cc3)/C=C/N=C3/C[C@](C2)(NC3=O)[C@H]1C

$$$$

     RDKit          3D

 54 57  0  0  0  0  0  0  0  0999 V2000
   -3.7331    2.4269   -0.5666 C   0  0  0  0  0  0  0  0  0  0  0  0
   -2.7888    1.6518    0.3611 C   0  0  2  0  0  0  0  0  0  0  0  0
   -1.3015    2.0644    0.1220 C   0  0  0  0  0  0  0  0  0  0  0  0
   -0.5390    1.3315   -1.0235 C   0  0  1  0  0  0  0  0  0  0  0  0
   -0.5930    2.1917   -2.3099 C   0  0  0  0  0  0  0  0  0  0  0  0
    1.0054    1.1582   -0.6522 C   0  0  0  0  0  0  0  0  0  0  0  0
    1.6518   -0.0106   -1.3716 C   0  0  0  0  0  0  0  0  0  0  0  0
    2.4494   -0.9731   -0.8433 C   0  0  0  0  0  0  0  0  0  0  0  0
    3.3711   -0.6350    0.2720 C   0  0  0  0  0  0  0  0  0  0  0  0
    4.2633    0.4406    0.0877 C   0  0  0  0  0  0  0  0  0  0  0  0
    5.1708    0.8163    1.0835 C   0  0  0  0  0  0  0  0  0  0  0  0
    5.2050    0.1131    2.2815 C   0  0  0  0  0  0  0  0  0  0  0  0
    6.3145    0.5697    3.5134 Cl  0  0  0  0  0  0  0  0  0  0  0  0
    4.3452   -0.9609    2.4835 C   0  0  0  0  0  0  0  0  0  0  0  0
    3.4398   -1.3339    1.4811 C   0  0  0  0  0  0  0  0  0  0  0  0
    2.2130   -2.3275   -1.4171 C   0  0  0  0  0  0  0  0  0  0  0  0
    1.4786   -3.2027   -0.6889 C   0  0  0  0  0  0  0  0  0  0  0  0
    0.1264   -3.3431   -0.9706 N   0  0  0  0  0  0  0  0  0  0  0  0
   -0.6516   -2.6850   -0.1513 C   0  0  0  0  0  0  0  0  0  0  0  0
   -2.0573   -2.2241   -0.4617 C   0  0  0  0  0  0  0  0  0  0  0  0
   -1.8521   -0.7149   -0.0771 C   0  0  2  0  0  0  0  0  0  0  0  0
   -1.2544   -0.0110   -1.3200 C   0  0  0  0  0  0  0  0  0  0  0  0
   -0.9377   -0.7805    1.0560 N   0  0  0  0  0  0  0  0  0  0  0  0
   -0.2610   -1.9624    1.1210 C   0  0  0  0  0  0  0  0  0  0  0  0
    0.4162   -2.3915    2.0254 O   0  0  0  0  0  0  0  0  0  0  0  0
   -3.1057    0.1092    0.2848 C   0  0  1  0  0  0  0  0  0  0  0  0
   -3.8101   -0.3598    1.5644 C   0  0  0  0  0  0  0  0  0  0  0  0
   -4.7761    2.2597   -0.2763 H   0  0  0  0  0  0  0  0  0  0  0  0
   -3.5436    3.5038   -0.5097 H   0  0  0  0  0  0  0  0  0  0  0  0
   -3.6254    2.1149   -1.6091 H   0  0  0  0  0  0  0  0  0  0  0  0
   -3.0276    2.0014    1.3757 H   0  0  0  0  0  0  0  0  0  0  0  0
   -0.7780    1.8873    1.0700 H   0  0  0  0  0  0  0  0  0  0  0  0
   -1.2372    3.1517   -0.0167 H   0  0  0  0  0  0  0  0  0  0  0  0
   -1.6214    2.3888   -2.6262 H   0  0  0  0  0  0  0  0  0  0  0  0
   -0.1089    3.1629   -2.1567 H   0  0  0  0  0  0  0  0  0  0  0  0
   -0.0852    1.6945   -3.1435 H   0  0  0  0  0  0  0  0  0  0  0  0
    1.1030    1.0099    0.4291 H   0  0  0  0  0  0  0  0  0  0  0  0
    1.5507    2.0781   -0.8941 H   0  0  0  0  0  0  0  0  0  0  0  0
    1.2057   -0.2096   -2.3443 H   0  0  0  0  0  0  0  0  0  0  0  0
    4.2623    0.9961   -0.8487 H   0  0  0  0  0  0  0  0  0  0  0  0
    5.8445    1.6510    0.9125 H   0  0  0  0  0  0  0  0  0  0  0  0
    4.3671   -1.5183    3.4163 H   0  0  0  0  0  0  0  0  0  0  0  0
    2.7914   -2.1758    1.6871 H   0  0  0  0  0  0  0  0  0  0  0  0
    1.9019   -2.2533   -2.4634 H   0  0  0  0  0  0  0  0  0  0  0  0
    1.7635   -3.4282    0.3349 H   0  0  0  0  0  0  0  0  0  0  0  0
   -2.7524   -2.7407    0.2057 H   0  0  0  0  0  0  0  0  0  0  0  0
   -2.3348   -2.3848   -1.5057 H   0  0  0  0  0  0  0  0  0  0  0  0
   -0.6329   -0.6996   -1.8920 H   0  0  0  0  0  0  0  0  0  0  0  0
   -2.0822    0.1744   -2.0223 H   0  0  0  0  0  0  0  0  0  0  0  0
   -0.9122   -0.1432    1.8426 H   0  0  0  0  0  0  0  0  0  0  0  0
   -3.8352   -0.0504   -0.5228 H   0  0  0  0  0  0  0  0  0  0  0  0
   -4.7342    0.2083    1.7191 H   0  0  0  0  0  0  0  0  0  0  0  0
   -4.0844   -1.4169    1.5043 H   0  0  0  0  0  0  0  0  0  0  0  0
   -3.1836   -0.2189    2.4508 H   0  0  0  0  0  0  0  0  0  0  0  0
  1  2  1  0
  2  3  1  0
  3  4  1  0
  4  5  1  6
  4  6  1  0
  6  7  1  0
  7  8  2  0
  8  9  1  0
  9 10  1  0
 10 11  2  0
 11 12  1  0
 12 13  1  0
 12 14  2  0
 14 15  1  0
  8 16  1  0
 16 17  2  0
 17 18  1  0
 18 19  2  0
 19 20  1  0
 20 21  1  0
 21 22  1  0
 21 23  1  1
 23 24  1  0
 24 25  2  0
 21 26  1  0
 26 27  1  0
 26  2  1  0
 22  4  1  0
 15  9  2  0
 24 19  1  0
  1 28  1  0
  1 29  1  0
  1 30  1  0
  2 31  1  1
  3 32  1  0
  3 33  1  0
  5 34  1  0
  5 35  1  0
  5 36  1  0
  6 37  1  0
  6 38  1  0
  7 39  1  0
 10 40  1  0
 11 41  1  0
 14 42  1  0
 15 43  1  0
 16 44  1  0
 17 45  1  0
 20 46  1  0
 20 47  1  0
 22 48  1  0
 22 49  1  0
 23 50  1  0
 26 51  1  6
 27 52  1  0
 27 53  1  0
 27 54  1  0
M  END
>  <_SMILES>  (153) 
C[C@@H]1C[C@@]2(C)C/C=C(c3ccc(Cl)cc3)/C=C/N=C3/C[C@](C2)(NC3=O)[C@H]1C

$$$$

     RDKit          3D

 54 57  0  0  0  0  0  0  0  0999 V2000
   -4.6788    1.2207   -1.1683 C   0  0  0  0  0  0  0  0  0  0  0  0
   -3.3982    0.9858   -0.3596 C   0  0  2  0  0  0  0  0  0  0  0  0
   -2.1606    1.1459   -1.2794 C   0  0  0  0  0  0  0  0  0  0  0  0
   -0.8083    0.9916   -0.5213 C   0  0  2  0  0  0  0  0  0  0  0  0
   -0.4065    2.3851    0.0263 C   0  0  0  0  0  0  0  0  0  0  0  0
    0.3231    0.4720   -1.4815 C   0  0  0  0  0  0  0  0  0  0  0  0
    1.7301    0.4814   -0.9270 C   0  0  0  0  0  0  0  0  0  0  0  0
    2.5925   -0.4421   -0.4377 C   0  0  0  0  0  0  0  0  0  0  0  0
    3.8953    0.1900   -0.0630 C   0  0  0  0  0  0  0  0  0  0  0  0
    4.0850    0.7101    1.2257 C   0  0  0  0  0  0  0  0  0  0  0  0
    5.3070    1.2886    1.5764 C   0  0  0  0  0  0  0  0  0  0  0  0
    6.3403    1.3436    0.6418 C   0  0  0  0  0  0  0  0  0  0  0  0
    7.8450    2.0572    1.0750 Cl  0  0  0  0  0  0  0  0  0  0  0  0
    6.1651    0.8239   -0.6400 C   0  0  0  0  0  0  0  0  0  0  0  0
    4.9438    0.2449   -0.9925 C   0  0  0  0  0  0  0  0  0  0  0  0
    2.4919   -1.8840   -0.1743 C   0  0  0  0  0  0  0  0  0  0  0  0
    1.5902   -2.8485   -0.4085 C   0  0  0  0  0  0  0  0  0  0  0  0
    0.4030   -2.6841   -1.0374 N   0  0  0  0  0  0  0  0  0  0  0  0
   -0.6442   -2.6442   -0.2791 C   0  0  0  0  0  0  0  0  0  0  0  0
   -1.8822   -1.9834   -0.7599 C   0  0  0  0  0  0  0  0  0  0  0  0
   -2.0761   -1.0656    0.4802 C   0  0  2  0  0  0  0  0  0  0  0  0
   -0.9946    0.0433    0.6769 C   0  0  0  0  0  0  0  0  0  0  0  0
   -1.8759   -2.0362    1.5607 N   0  0  0  0  0  0  0  0  0  0  0  0
   -0.8242   -2.8782    1.2119 C   0  0  0  0  0  0  0  0  0  0  0  0
   -0.1822   -3.6179    1.9194 O   0  0  0  0  0  0  0  0  0  0  0  0
   -3.4685   -0.3884    0.3962 C   0  0  1  0  0  0  0  0  0  0  0  0
   -4.1171   -0.1807    1.7743 C   0  0  0  0  0  0  0  0  0  0  0  0
   -4.7903    0.4702   -1.9581 H   0  0  0  0  0  0  0  0  0  0  0  0
   -5.5650    1.1743   -0.5277 H   0  0  0  0  0  0  0  0  0  0  0  0
   -4.6631    2.2084   -1.6413 H   0  0  0  0  0  0  0  0  0  0  0  0
   -3.3461    1.7894    0.3877 H   0  0  0  0  0  0  0  0  0  0  0  0
   -2.1958    2.1326   -1.7615 H   0  0  0  0  0  0  0  0  0  0  0  0
   -2.2318    0.4363   -2.1097 H   0  0  0  0  0  0  0  0  0  0  0  0
    0.4689    2.3266    0.6824 H   0  0  0  0  0  0  0  0  0  0  0  0
   -0.1715    3.0767   -0.7907 H   0  0  0  0  0  0  0  0  0  0  0  0
   -1.2161    2.8330    0.6133 H   0  0  0  0  0  0  0  0  0  0  0  0
    0.0891   -0.4990   -1.9065 H   0  0  0  0  0  0  0  0  0  0  0  0
    0.3378    1.1349   -2.3596 H   0  0  0  0  0  0  0  0  0  0  0  0
    2.1176    1.5045   -0.9876 H   0  0  0  0  0  0  0  0  0  0  0  0
    3.2815    0.6648    1.9574 H   0  0  0  0  0  0  0  0  0  0  0  0
    5.4460    1.6908    2.5762 H   0  0  0  0  0  0  0  0  0  0  0  0
    6.9717    0.8643   -1.3669 H   0  0  0  0  0  0  0  0  0  0  0  0
    4.8094   -0.1630   -1.9921 H   0  0  0  0  0  0  0  0  0  0  0  0
    3.3812   -2.2554    0.3440 H   0  0  0  0  0  0  0  0  0  0  0  0
    1.8183   -3.8640   -0.0820 H   0  0  0  0  0  0  0  0  0  0  0  0
   -2.6723   -2.7400   -0.8408 H   0  0  0  0  0  0  0  0  0  0  0  0
   -1.7613   -1.5023   -1.7249 H   0  0  0  0  0  0  0  0  0  0  0  0
   -0.0271   -0.3768    0.9741 H   0  0  0  0  0  0  0  0  0  0  0  0
   -1.2883    0.6254    1.5634 H   0  0  0  0  0  0  0  0  0  0  0  0
   -1.9708   -1.8142    2.5451 H   0  0  0  0  0  0  0  0  0  0  0  0
   -4.1446   -1.0583   -0.1528 H   0  0  0  0  0  0  0  0  0  0  0  0
   -5.0869    0.3186    1.6792 H   0  0  0  0  0  0  0  0  0  0  0  0
   -4.2974   -1.1394    2.2714 H   0  0  0  0  0  0  0  0  0  0  0  0
   -3.4883    0.4307    2.4293 H   0  0  0  0  0  0  0  0  0  0  0  0
  1  2  1  0
  2  3  1  0
  3  4  1  0
  4  5  1  1
  4  6  1  0
  6  7  1  0
  7  8  2  0
  8  9  1  0
  9 10  1  0
 10 11  2  0
 11 12  1  0
 12 13  1  0
 12 14  2  0
 14 15  1  0
  8 16  1  0
 16 17  2  0
 17 18  1  0
 18 19  2  0
 19 20  1  0
 20 21  1  0
 21 22  1  0
 21 23  1  1
 23 24  1  0
 24 25  2  0
 21 26  1  0
 26 27  1  0
 26  2  1  0
 22  4  1  0
 15  9  2  0
 24 19  1  0
  1 28  1  0
  1 29  1  0
  1 30  1  0
  2 31  1  1
  3 32  1  0
  3 33  1  0
  5 34  1  0
  5 35  1  0
  5 36  1  0
  6 37  1  0
  6 38  1  0
  7 39  1  0
 10 40  1  0
 11 41  1  0
 14 42  1  0
 15 43  1  0
 16 44  1  0
 17 45  1  0
 20 46  1  0
 20 47  1  0
 22 48  1  0
 22 49  1  0
 23 50  1  0
 26 51  1  6
 27 52  1  0
 27 53  1  0
 27 54  1  0
M  END
>  <_SMILES>  (154) 
C[C@@H]1C[C@]2(C)C\C=C(c3ccc(Cl)cc3)/C=C\N=C3\C[C@](C2)(NC3=O)[C@H]1C

$$$$

     RDKit          3D

 54 57  0  0  0  0  0  0  0  0999 V2000
   -4.4871   -0.6735    2.0076 C   0  0  0  0  0  0  0  0  0  0  0  0
   -3.4611   -0.2369    0.9558 C   0  0  2  0  0  0  0  0  0  0  0  0
   -2.4658   -1.4368    0.6885 C   0  0  0  0  0  0  0  0  0  0  0  0
   -1.0359   -0.9956    0.2828 C   0  0  1  0  0  0  0  0  0  0  0  0
   -0.2032   -0.8964    1.5789 C   0  0  0  0  0  0  0  0  0  0  0  0
   -0.2806   -1.9386   -0.7165 C   0  0  0  0  0  0  0  0  0  0  0  0
    1.2371   -1.7587   -0.7480 C   0  0  0  0  0  0  0  0  0  0  0  0
    2.1030   -0.8868   -1.3262 C   0  0  0  0  0  0  0  0  0  0  0  0
    3.5308   -1.1765   -1.0150 C   0  0  0  0  0  0  0  0  0  0  0  0
    4.2047   -0.4152   -0.0499 C   0  0  0  0  0  0  0  0  0  0  0  0
    5.5456   -0.6745    0.2428 C   0  0  0  0  0  0  0  0  0  0  0  0
    6.2153   -1.6937   -0.4317 C   0  0  0  0  0  0  0  0  0  0  0  0
    7.8670   -2.0151   -0.0710 Cl  0  0  0  0  0  0  0  0  0  0  0  0
    5.5584   -2.4544   -1.3981 C   0  0  0  0  0  0  0  0  0  0  0  0
    4.2174   -2.1948   -1.6919 C   0  0  0  0  0  0  0  0  0  0  0  0
    1.8459    0.2638   -2.2004 C   0  0  0  0  0  0  0  0  0  0  0  0
    1.6442    1.5535   -1.8493 C   0  0  0  0  0  0  0  0  0  0  0  0
    1.4305    1.9660   -0.5577 N   0  0  0  0  0  0  0  0  0  0  0  0
    0.2728    2.5144   -0.3204 C   0  0  0  0  0  0  0  0  0  0  0  0
   -0.4339    2.2310    0.9700 C   0  0  0  0  0  0  0  0  0  0  0  0
   -1.6629    1.5342    0.2955 C   0  0  2  0  0  0  0  0  0  0  0  0
   -1.2822    0.2759   -0.5089 C   0  0  0  0  0  0  0  0  0  0  0  0
   -1.9968    2.5388   -0.7254 N   0  0  0  0  0  0  0  0  0  0  0  0
   -0.8072    3.0062   -1.2824 C   0  0  0  0  0  0  0  0  0  0  0  0
   -0.6419    3.6251   -2.3068 O   0  0  0  0  0  0  0  0  0  0  0  0
   -2.7837    1.1459    1.3071 C   0  0  1  0  0  0  0  0  0  0  0  0
   -3.8071    2.2741    1.4858 C   0  0  0  0  0  0  0  0  0  0  0  0
   -5.3241    0.0281    2.0679 H   0  0  0  0  0  0  0  0  0  0  0  0
   -4.9084   -1.6527    1.7544 H   0  0  0  0  0  0  0  0  0  0  0  0
   -4.0269   -0.7476    2.9983 H   0  0  0  0  0  0  0  0  0  0  0  0
   -4.0222   -0.0845    0.0222 H   0  0  0  0  0  0  0  0  0  0  0  0
   -2.9017   -2.0522   -0.1106 H   0  0  0  0  0  0  0  0  0  0  0  0
   -2.4178   -2.0945    1.5663 H   0  0  0  0  0  0  0  0  0  0  0  0
    0.7613   -0.4059    1.4218 H   0  0  0  0  0  0  0  0  0  0  0  0
    0.0062   -1.8999    1.9708 H   0  0  0  0  0  0  0  0  0  0  0  0
   -0.7189   -0.3661    2.3820 H   0  0  0  0  0  0  0  0  0  0  0  0
   -0.6792   -1.8465   -1.7351 H   0  0  0  0  0  0  0  0  0  0  0  0
   -0.4765   -2.9798   -0.4257 H   0  0  0  0  0  0  0  0  0  0  0  0
    1.6966   -2.5337   -0.1249 H   0  0  0  0  0  0  0  0  0  0  0  0
    3.6843    0.3869    0.4709 H   0  0  0  0  0  0  0  0  0  0  0  0
    6.0576   -0.0766    0.9914 H   0  0  0  0  0  0  0  0  0  0  0  0
    6.0826   -3.2459   -1.9263 H   0  0  0  0  0  0  0  0  0  0  0  0
    3.7100   -2.7871   -2.4496 H   0  0  0  0  0  0  0  0  0  0  0  0
    1.9962    0.0507   -3.2575 H   0  0  0  0  0  0  0  0  0  0  0  0
    1.5923    2.3100   -2.6329 H   0  0  0  0  0  0  0  0  0  0  0  0
    0.1550    1.6258    1.6524 H   0  0  0  0  0  0  0  0  0  0  0  0
   -0.7094    3.1732    1.4561 H   0  0  0  0  0  0  0  0  0  0  0  0
   -2.0928    0.0803   -1.2339 H   0  0  0  0  0  0  0  0  0  0  0  0
   -0.4667    0.4470   -1.1944 H   0  0  0  0  0  0  0  0  0  0  0  0
   -2.7990    2.4761   -1.3417 H   0  0  0  0  0  0  0  0  0  0  0  0
   -2.3147    1.0146    2.2903 H   0  0  0  0  0  0  0  0  0  0  0  0
   -4.4437    2.3794    0.6013 H   0  0  0  0  0  0  0  0  0  0  0  0
   -3.3081    3.2318    1.6687 H   0  0  0  0  0  0  0  0  0  0  0  0
   -4.4554    2.0878    2.3475 H   0  0  0  0  0  0  0  0  0  0  0  0
  1  2  1  0
  2  3  1  0
  3  4  1  0
  4  5  1  1
  4  6  1  0
  6  7  1  0
  7  8  2  0
  8  9  1  0
  9 10  1  0
 10 11  2  0
 11 12  1  0
 12 13  1  0
 12 14  2  0
 14 15  1  0
  8 16  1  0
 16 17  2  0
 17 18  1  0
 18 19  2  0
 19 20  1  0
 20 21  1  0
 21 22  1  0
 21 23  1  6
 23 24  1  0
 24 25  2  0
 21 26  1  0
 26 27  1  0
 26  2  1  0
 22  4  1  0
 15  9  2  0
 24 19  1  0
  1 28  1  0
  1 29  1  0
  1 30  1  0
  2 31  1  6
  3 32  1  0
  3 33  1  0
  5 34  1  0
  5 35  1  0
  5 36  1  0
  6 37  1  0
  6 38  1  0
  7 39  1  0
 10 40  1  0
 11 41  1  0
 14 42  1  0
 15 43  1  0
 16 44  1  0
 17 45  1  0
 20 46  1  0
 20 47  1  0
 22 48  1  0
 22 49  1  0
 23 50  1  0
 26 51  1  1
 27 52  1  0
 27 53  1  0
 27 54  1  0
M  END
>  <_SMILES>  (155) 
C[C@@H]1C[C@@]2(C)C\C=C(c3ccc(Cl)cc3)/C=C\N=C3\C[C@](C2)(NC3=O)[C@H]1C

$$$$

     RDKit          3D

 54 57  0  0  0  0  0  0  0  0999 V2000
   -4.2617   -1.6544    0.5808 C   0  0  0  0  0  0  0  0  0  0  0  0
   -3.1153   -0.9147   -0.1183 C   0  0  2  0  0  0  0  0  0  0  0  0
   -1.8115   -1.7529   -0.0092 C   0  0  0  0  0  0  0  0  0  0  0  0
   -0.5733   -1.0599   -0.6360 C   0  0  2  0  0  0  0  0  0  0  0  0
   -0.6481   -1.2749   -2.1741 C   0  0  0  0  0  0  0  0  0  0  0  0
    0.7921   -1.7212   -0.1802 C   0  0  0  0  0  0  0  0  0  0  0  0
    1.5267   -1.0408    0.9574 C   0  0  0  0  0  0  0  0  0  0  0  0
    2.5228   -0.1197    0.8907 C   0  0  0  0  0  0  0  0  0  0  0  0
    3.1947    0.1439   -0.4085 C   0  0  0  0  0  0  0  0  0  0  0  0
    3.0592    1.3900   -1.0379 C   0  0  0  0  0  0  0  0  0  0  0  0
    3.7070    1.6456   -2.2492 C   0  0  0  0  0  0  0  0  0  0  0  0
    4.5035    0.6604   -2.8290 C   0  0  0  0  0  0  0  0  0  0  0  0
    5.2993    0.9742   -4.3217 Cl  0  0  0  0  0  0  0  0  0  0  0  0
    4.6650   -0.5750   -2.2053 C   0  0  0  0  0  0  0  0  0  0  0  0
    4.0173   -0.8300   -0.9937 C   0  0  0  0  0  0  0  0  0  0  0  0
    2.9304    0.6954    2.0538 C   0  0  0  0  0  0  0  0  0  0  0  0
    2.1497    1.1464    3.0564 C   0  0  0  0  0  0  0  0  0  0  0  0
    0.8726    0.7155    3.2494 N   0  0  0  0  0  0  0  0  0  0  0  0
   -0.0673    1.2420    2.5328 C   0  0  0  0  0  0  0  0  0  0  0  0
   -1.2779    0.4360    2.2164 C   0  0  0  0  0  0  0  0  0  0  0  0
   -1.5656    0.9480    0.7790 C   0  0  2  0  0  0  0  0  0  0  0  0
   -0.6301    0.4614   -0.3690 C   0  0  0  0  0  0  0  0  0  0  0  0
   -1.2855    2.3785    0.9397 N   0  0  0  0  0  0  0  0  0  0  0  0
   -0.1666    2.5365    1.7547 C   0  0  0  0  0  0  0  0  0  0  0  0
    0.5677    3.4937    1.8341 O   0  0  0  0  0  0  0  0  0  0  0  0
   -3.0203    0.5617    0.4109 C   0  0  1  0  0  0  0  0  0  0  0  0
   -3.6659    1.5137   -0.6097 C   0  0  0  0  0  0  0  0  0  0  0  0
   -4.3856   -2.6606    0.1666 H   0  0  0  0  0  0  0  0  0  0  0  0
   -4.0722   -1.7513    1.6552 H   0  0  0  0  0  0  0  0  0  0  0  0
   -5.2085   -1.1204    0.4479 H   0  0  0  0  0  0  0  0  0  0  0  0
   -3.3796   -0.8825   -1.1836 H   0  0  0  0  0  0  0  0  0  0  0  0
   -1.9753   -2.7195   -0.5063 H   0  0  0  0  0  0  0  0  0  0  0  0
   -1.6232   -2.0218    1.0334 H   0  0  0  0  0  0  0  0  0  0  0  0
   -1.5776   -0.8807   -2.5983 H   0  0  0  0  0  0  0  0  0  0  0  0
    0.1813   -0.7684   -2.6822 H   0  0  0  0  0  0  0  0  0  0  0  0
   -0.5939   -2.3401   -2.4269 H   0  0  0  0  0  0  0  0  0  0  0  0
    0.6078   -2.7638    0.1110 H   0  0  0  0  0  0  0  0  0  0  0  0
    1.4618   -1.7970   -1.0435 H   0  0  0  0  0  0  0  0  0  0  0  0
    1.1194   -1.2942    1.9340 H   0  0  0  0  0  0  0  0  0  0  0  0
    2.4506    2.1709   -0.5854 H   0  0  0  0  0  0  0  0  0  0  0  0
    3.5902    2.6139   -2.7283 H   0  0  0  0  0  0  0  0  0  0  0  0
    5.2941   -1.3404   -2.6515 H   0  0  0  0  0  0  0  0  0  0  0  0
    4.1553   -1.7930   -0.5066 H   0  0  0  0  0  0  0  0  0  0  0  0
    3.9603    1.0485    2.0246 H   0  0  0  0  0  0  0  0  0  0  0  0
    2.5685    1.7900    3.8266 H   0  0  0  0  0  0  0  0  0  0  0  0
   -2.0628    0.7258    2.9256 H   0  0  0  0  0  0  0  0  0  0  0  0
   -1.0847   -0.6272    2.3230 H   0  0  0  0  0  0  0  0  0  0  0  0
   -0.9710    0.9664   -1.2852 H   0  0  0  0  0  0  0  0  0  0  0  0
    0.3707    0.8768   -0.2573 H   0  0  0  0  0  0  0  0  0  0  0  0
   -1.3780    3.0452    0.1818 H   0  0  0  0  0  0  0  0  0  0  0  0
   -3.6387    0.6575    1.3143 H   0  0  0  0  0  0  0  0  0  0  0  0
   -3.7021    2.5382   -0.2260 H   0  0  0  0  0  0  0  0  0  0  0  0
   -3.1270    1.5236   -1.5617 H   0  0  0  0  0  0  0  0  0  0  0  0
   -4.6984    1.2101   -0.8154 H   0  0  0  0  0  0  0  0  0  0  0  0
  1  2  1  0
  2  3  1  0
  3  4  1  0
  4  5  1  6
  4  6  1  0
  6  7  1  0
  7  8  2  0
  8  9  1  0
  9 10  1  0
 10 11  2  0
 11 12  1  0
 12 13  1  0
 12 14  2  0
 14 15  1  0
  8 16  1  0
 16 17  2  0
 17 18  1  0
 18 19  2  0
 19 20  1  0
 20 21  1  0
 21 22  1  0
 21 23  1  1
 23 24  1  0
 24 25  2  0
 21 26  1  0
 26 27  1  0
 26  2  1  0
 22  4  1  0
 15  9  2  0
 24 19  1  0
  1 28  1  0
  1 29  1  0
  1 30  1  0
  2 31  1  6
  3 32  1  0
  3 33  1  0
  5 34  1  0
  5 35  1  0
  5 36  1  0
  6 37  1  0
  6 38  1  0
  7 39  1  0
 10 40  1  0
 11 41  1  0
 14 42  1  0
 15 43  1  0
 16 44  1  0
 17 45  1  0
 20 46  1  0
 20 47  1  0
 22 48  1  0
 22 49  1  0
 23 50  1  0
 26 51  1  1
 27 52  1  0
 27 53  1  0
 27 54  1  0
M  END
>  <_SMILES>  (156) 
C[C@@H]1C[C@]2(C)C/C=C(c3ccc(Cl)cc3)/C=C\N=C3\C[C@](C2)(NC3=O)[C@H]1C

$$$$

     RDKit          3D

 54 57  0  0  0  0  0  0  0  0999 V2000
   -3.7684   -2.2323   -0.7425 C   0  0  0  0  0  0  0  0  0  0  0  0
   -2.6941   -1.2176   -1.1525 C   0  0  2  0  0  0  0  0  0  0  0  0
   -1.2589   -1.7847   -0.9053 C   0  0  0  0  0  0  0  0  0  0  0  0
   -0.6629   -1.6151    0.5295 C   0  0  1  0  0  0  0  0  0  0  0  0
   -0.9026   -2.9094    1.3425 C   0  0  0  0  0  0  0  0  0  0  0  0
    0.9125   -1.3976    0.4757 C   0  0  0  0  0  0  0  0  0  0  0  0
    1.4601   -0.2811    1.3505 C   0  0  0  0  0  0  0  0  0  0  0  0
    2.3362    0.6860    1.0005 C   0  0  0  0  0  0  0  0  0  0  0  0
    3.2387    0.4830   -0.1700 C   0  0  0  0  0  0  0  0  0  0  0  0
    3.3971    1.4696   -1.1520 C   0  0  0  0  0  0  0  0  0  0  0  0
    4.2677    1.2783   -2.2305 C   0  0  0  0  0  0  0  0  0  0  0  0
    5.0048    0.1021   -2.3259 C   0  0  0  0  0  0  0  0  0  0  0  0
    6.0754   -0.1340   -3.6513 Cl  0  0  0  0  0  0  0  0  0  0  0  0
    4.8873   -0.8800   -1.3472 C   0  0  0  0  0  0  0  0  0  0  0  0
    4.0155   -0.6851   -0.2714 C   0  0  0  0  0  0  0  0  0  0  0  0
    2.4427    1.9099    1.8070 C   0  0  0  0  0  0  0  0  0  0  0  0
    1.4761    2.7017    2.3212 C   0  0  0  0  0  0  0  0  0  0  0  0
    0.1090    2.5440    2.3746 N   0  0  0  0  0  0  0  0  0  0  0  0
   -0.5737    2.3776    1.2841 C   0  0  0  0  0  0  0  0  0  0  0  0
   -2.0164    1.9323    1.2403 C   0  0  0  0  0  0  0  0  0  0  0  0
   -1.7927    0.7086    0.3017 C   0  0  2  0  0  0  0  0  0  0  0  0
   -1.4104   -0.4725    1.2341 C   0  0  0  0  0  0  0  0  0  0  0  0
   -0.7361    1.1728   -0.6057 N   0  0  0  0  0  0  0  0  0  0  0  0
   -0.0818    2.2780   -0.1268 C   0  0  0  0  0  0  0  0  0  0  0  0
    0.6264    3.0667   -0.7055 O   0  0  0  0  0  0  0  0  0  0  0  0
   -3.0008    0.1873   -0.5069 C   0  0  1  0  0  0  0  0  0  0  0  0
   -3.5185    1.1698   -1.5648 C   0  0  0  0  0  0  0  0  0  0  0  0
   -3.5836   -3.2077   -1.2044 H   0  0  0  0  0  0  0  0  0  0  0  0
   -3.8066   -2.3693    0.3416 H   0  0  0  0  0  0  0  0  0  0  0  0
   -4.7579   -1.8943   -1.0696 H   0  0  0  0  0  0  0  0  0  0  0  0
   -2.7859   -1.1214   -2.2437 H   0  0  0  0  0  0  0  0  0  0  0  0
   -0.6084   -1.2745   -1.6269 H   0  0  0  0  0  0  0  0  0  0  0  0
   -1.2197   -2.8392   -1.2086 H   0  0  0  0  0  0  0  0  0  0  0  0
   -1.9663   -3.1494    1.4286 H   0  0  0  0  0  0  0  0  0  0  0  0
   -0.4128   -3.7692    0.8713 H   0  0  0  0  0  0  0  0  0  0  0  0
   -0.5034   -2.8119    2.3587 H   0  0  0  0  0  0  0  0  0  0  0  0
    1.4232   -2.3244    0.7664 H   0  0  0  0  0  0  0  0  0  0  0  0
    1.2042   -1.2174   -0.5644 H   0  0  0  0  0  0  0  0  0  0  0  0
    1.0183   -0.1964    2.3405 H   0  0  0  0  0  0  0  0  0  0  0  0
    2.8497    2.4060   -1.0900 H   0  0  0  0  0  0  0  0  0  0  0  0
    4.3651    2.0557   -2.9835 H   0  0  0  0  0  0  0  0  0  0  0  0
    5.4719   -1.7936   -1.4085 H   0  0  0  0  0  0  0  0  0  0  0  0
    3.9507   -1.4538    0.4961 H   0  0  0  0  0  0  0  0  0  0  0  0
    3.4697    2.2565    1.9273 H   0  0  0  0  0  0  0  0  0  0  0  0
    1.8166    3.5849    2.8628 H   0  0  0  0  0  0  0  0  0  0  0  0
   -2.6153    2.7211    0.7764 H   0  0  0  0  0  0  0  0  0  0  0  0
   -2.4152    1.6833    2.2264 H   0  0  0  0  0  0  0  0  0  0  0  0
   -2.3466   -0.8670    1.6606 H   0  0  0  0  0  0  0  0  0  0  0  0
   -0.8996   -0.1409    2.1387 H   0  0  0  0  0  0  0  0  0  0  0  0
   -0.6629    0.9459   -1.5896 H   0  0  0  0  0  0  0  0  0  0  0  0
   -3.8322    0.0642    0.2028 H   0  0  0  0  0  0  0  0  0  0  0  0
   -4.4269    0.7768   -2.0347 H   0  0  0  0  0  0  0  0  0  0  0  0
   -3.7731    2.1362   -1.1202 H   0  0  0  0  0  0  0  0  0  0  0  0
   -2.7851    1.3415   -2.3589 H   0  0  0  0  0  0  0  0  0  0  0  0
  1  2  1  0
  2  3  1  0
  3  4  1  0
  4  5  1  1
  4  6  1  0
  6  7  1  0
  7  8  2  0
  8  9  1  0
  9 10  1  0
 10 11  2  0
 11 12  1  0
 12 13  1  0
 12 14  2  0
 14 15  1  0
  8 16  1  0
 16 17  2  0
 17 18  1  0
 18 19  2  0
 19 20  1  0
 20 21  1  0
 21 22  1  0
 21 23  1  6
 23 24  1  0
 24 25  2  0
 21 26  1  0
 26 27  1  0
 26  2  1  0
 22  4  1  0
 15  9  2  0
 24 19  1  0
  1 28  1  0
  1 29  1  0
  1 30  1  0
  2 31  1  6
  3 32  1  0
  3 33  1  0
  5 34  1  0
  5 35  1  0
  5 36  1  0
  6 37  1  0
  6 38  1  0
  7 39  1  0
 10 40  1  0
 11 41  1  0
 14 42  1  0
 15 43  1  0
 16 44  1  0
 17 45  1  0
 20 46  1  0
 20 47  1  0
 22 48  1  0
 22 49  1  0
 23 50  1  0
 26 51  1  1
 27 52  1  0
 27 53  1  0
 27 54  1  0
M  END
>  <_SMILES>  (157) 
C[C@@H]1C[C@@]2(C)C/C=C(c3ccc(Cl)cc3)/C=C\N=C3\C[C@](C2)(NC3=O)[C@H]1C

$$$$

     RDKit          3D

 54 57  0  0  0  0  0  0  0  0999 V2000
   -2.6031    1.9453   -1.9384 C   0  0  0  0  0  0  0  0  0  0  0  0
   -2.4598    1.4116   -0.5089 C   0  0  2  0  0  0  0  0  0  0  0  0
   -0.9644    1.4689   -0.0750 C   0  0  0  0  0  0  0  0  0  0  0  0
   -0.7359    0.9907    1.3882 C   0  0  2  0  0  0  0  0  0  0  0  0
   -0.8645    2.2266    2.3143 C   0  0  0  0  0  0  0  0  0  0  0  0
    0.6647    0.3241    1.6956 C   0  0  0  0  0  0  0  0  0  0  0  0
    1.8578    0.4859    0.7781 C   0  0  0  0  0  0  0  0  0  0  0  0
    2.4227   -0.4386   -0.0422 C   0  0  0  0  0  0  0  0  0  0  0  0
    3.6160   -0.0106   -0.8056 C   0  0  0  0  0  0  0  0  0  0  0  0
    3.5215    0.9698   -1.8043 C   0  0  0  0  0  0  0  0  0  0  0  0
    4.6544    1.3518   -2.5275 C   0  0  0  0  0  0  0  0  0  0  0  0
    5.8824    0.7503   -2.2580 C   0  0  0  0  0  0  0  0  0  0  0  0
    7.2773    1.2211   -3.1484 Cl  0  0  0  0  0  0  0  0  0  0  0  0
    5.9879   -0.2314   -1.2744 C   0  0  0  0  0  0  0  0  0  0  0  0
    4.8550   -0.6135   -0.5511 C   0  0  0  0  0  0  0  0  0  0  0  0
    1.7971   -1.7245   -0.3414 C   0  0  0  0  0  0  0  0  0  0  0  0
    1.4192   -2.6653    0.5421 C   0  0  0  0  0  0  0  0  0  0  0  0
    0.2710   -3.4635    0.4026 N   0  0  0  0  0  0  0  0  0  0  0  0
   -0.9512   -2.7933    0.4183 C   0  0  0  0  0  0  0  0  0  0  0  0
   -1.2479   -1.5923   -0.0830 C   0  0  0  0  0  0  0  0  0  0  0  0
   -2.3721   -0.9024    0.6180 C   0  0  2  0  0  0  0  0  0  0  0  0
   -1.8564   -0.0230    1.7950 C   0  0  0  0  0  0  0  0  0  0  0  0
   -3.0307   -2.0759    1.1344 N   0  0  0  0  0  0  0  0  0  0  0  0
   -2.1255   -3.1246    1.2697 C   0  0  0  0  0  0  0  0  0  0  0  0
   -2.2431   -4.1119    1.9702 O   0  0  0  0  0  0  0  0  0  0  0  0
   -3.1359   -0.0077   -0.3815 C   0  0  1  0  0  0  0  0  0  0  0  0
   -4.6163    0.1575   -0.0057 C   0  0  0  0  0  0  0  0  0  0  0  0
   -2.2010    2.9611   -2.0154 H   0  0  0  0  0  0  0  0  0  0  0  0
   -2.0624    1.3134   -2.6511 H   0  0  0  0  0  0  0  0  0  0  0  0
   -3.6535    1.9804   -2.2436 H   0  0  0  0  0  0  0  0  0  0  0  0
   -3.0031    2.1090    0.1436 H   0  0  0  0  0  0  0  0  0  0  0  0
   -0.3589    0.9049   -0.7887 H   0  0  0  0  0  0  0  0  0  0  0  0
   -0.6050    2.5020   -0.1804 H   0  0  0  0  0  0  0  0  0  0  0  0
   -1.8155    2.7481    2.1597 H   0  0  0  0  0  0  0  0  0  0  0  0
   -0.8181    1.9381    3.3708 H   0  0  0  0  0  0  0  0  0  0  0  0
   -0.0572    2.9434    2.1262 H   0  0  0  0  0  0  0  0  0  0  0  0
    1.0086    0.6908    2.6747 H   0  0  0  0  0  0  0  0  0  0  0  0
    0.5158   -0.7356    1.9038 H   0  0  0  0  0  0  0  0  0  0  0  0
    2.3432    1.4581    0.8753 H   0  0  0  0  0  0  0  0  0  0  0  0
    2.5646    1.4371   -2.0258 H   0  0  0  0  0  0  0  0  0  0  0  0
    4.5711    2.1132   -3.2981 H   0  0  0  0  0  0  0  0  0  0  0  0
    6.9441   -0.7039   -1.0670 H   0  0  0  0  0  0  0  0  0  0  0  0
    4.9432   -1.3833    0.2126 H   0  0  0  0  0  0  0  0  0  0  0  0
    1.4258   -1.7932   -1.3638 H   0  0  0  0  0  0  0  0  0  0  0  0
    1.7757   -2.6552    1.5705 H   0  0  0  0  0  0  0  0  0  0  0  0
    0.2324   -4.2009    1.1136 H   0  0  0  0  0  0  0  0  0  0  0  0
   -0.6121   -1.0835   -0.7829 H   0  0  0  0  0  0  0  0  0  0  0  0
   -2.7166    0.5181    2.2144 H   0  0  0  0  0  0  0  0  0  0  0  0
   -1.5111   -0.6457    2.6327 H   0  0  0  0  0  0  0  0  0  0  0  0
   -3.8049   -2.0431    1.7841 H   0  0  0  0  0  0  0  0  0  0  0  0
   -3.1269   -0.4929   -1.3685 H   0  0  0  0  0  0  0  0  0  0  0  0
   -5.1323   -0.8081   -0.0134 H   0  0  0  0  0  0  0  0  0  0  0  0
   -5.1314    0.8052   -0.7225 H   0  0  0  0  0  0  0  0  0  0  0  0
   -4.7348    0.5978    0.9894 H   0  0  0  0  0  0  0  0  0  0  0  0
  1  2  1  0
  2  3  1  0
  3  4  1  0
  4  5  1  1
  4  6  1  0
  6  7  1  0
  7  8  2  0
  8  9  1  0
  9 10  1  0
 10 11  2  0
 11 12  1  0
 12 13  1  0
 12 14  2  0
 14 15  1  0
  8 16  1  0
 16 17  2  0
 17 18  1  0
 18 19  1  0
 19 20  2  0
 20 21  1  0
 21 22  1  0
 21 23  1  1
 23 24  1  0
 24 25  2  0
 21 26  1  0
 26 27  1  0
 26  2  1  0
 22  4  1  0
 15  9  2  0
 24 19  1  0
  1 28  1  0
  1 29  1  0
  1 30  1  0
  2 31  1  1
  3 32  1  0
  3 33  1  0
  5 34  1  0
  5 35  1  0
  5 36  1  0
  6 37  1  0
  6 38  1  0
  7 39  1  0
 10 40  1  0
 11 41  1  0
 14 42  1  0
 15 43  1  0
 16 44  1  0
 17 45  1  0
 18 46  1  0
 20 47  1  0
 22 48  1  0
 22 49  1  0
 23 50  1  0
 26 51  1  6
 27 52  1  0
 27 53  1  0
 27 54  1  0
M  END
>  <_SMILES>  (158) 
C[C@@H]1C[C@]2(C)C/C=C(c3ccc(Cl)cc3)\C=C\NC3=C[C@](C2)(NC3=O)[C@H]1C

$$$$

     RDKit          3D

 54 57  0  0  0  0  0  0  0  0999 V2000
   -4.0178    2.6021   -1.6376 C   0  0  0  0  0  0  0  0  0  0  0  0
   -3.1651    1.6410   -0.8020 C   0  0  2  0  0  0  0  0  0  0  0  0
   -1.8228    2.3664   -0.4021 C   0  0  0  0  0  0  0  0  0  0  0  0
   -0.5850    1.4203   -0.2934 C   0  0  1  0  0  0  0  0  0  0  0  0
    0.0548    1.4223   -1.7020 C   0  0  0  0  0  0  0  0  0  0  0  0
    0.5195    1.9279    0.6886 C   0  0  0  0  0  0  0  0  0  0  0  0
    1.7896    1.1259    1.0421 C   0  0  0  0  0  0  0  0  0  0  0  0
    2.3224   -0.1025    0.7925 C   0  0  0  0  0  0  0  0  0  0  0  0
    3.6083   -0.3907    1.4787 C   0  0  0  0  0  0  0  0  0  0  0  0
    3.6452   -0.6248    2.8614 C   0  0  0  0  0  0  0  0  0  0  0  0
    4.8568   -0.9078    3.4967 C   0  0  0  0  0  0  0  0  0  0  0  0
    6.0329   -0.9615    2.7506 C   0  0  0  0  0  0  0  0  0  0  0  0
    7.5251   -1.3097    3.5332 Cl  0  0  0  0  0  0  0  0  0  0  0  0
    6.0088   -0.7370    1.3753 C   0  0  0  0  0  0  0  0  0  0  0  0
    4.7973   -0.4540    0.7393 C   0  0  0  0  0  0  0  0  0  0  0  0
    1.7357   -1.1226   -0.0656 C   0  0  0  0  0  0  0  0  0  0  0  0
    1.3744   -2.3691    0.2930 C   0  0  0  0  0  0  0  0  0  0  0  0
    0.4612   -3.2021   -0.3925 N   0  0  0  0  0  0  0  0  0  0  0  0
   -0.8032   -2.6635   -0.6505 C   0  0  0  0  0  0  0  0  0  0  0  0
   -1.1160   -1.5905   -1.3962 C   0  0  0  0  0  0  0  0  0  0  0  0
   -2.0691   -0.6930   -0.6388 C   0  0  2  0  0  0  0  0  0  0  0  0
   -1.1963    0.1498    0.3190 C   0  0  0  0  0  0  0  0  0  0  0  0
   -2.7442   -1.6993    0.1475 N   0  0  0  0  0  0  0  0  0  0  0  0
   -1.9140   -2.7858    0.3432 C   0  0  0  0  0  0  0  0  0  0  0  0
   -2.0164   -3.6498    1.1936 O   0  0  0  0  0  0  0  0  0  0  0  0
   -2.9878    0.2350   -1.4839 C   0  0  1  0  0  0  0  0  0  0  0  0
   -4.3287   -0.4314   -1.8253 C   0  0  0  0  0  0  0  0  0  0  0  0
   -4.0847    3.5823   -1.1528 H   0  0  0  0  0  0  0  0  0  0  0  0
   -3.5870    2.7444   -2.6342 H   0  0  0  0  0  0  0  0  0  0  0  0
   -5.0412    2.2336   -1.7538 H   0  0  0  0  0  0  0  0  0  0  0  0
   -3.7178    1.4708    0.1336 H   0  0  0  0  0  0  0  0  0  0  0  0
   -1.6133    3.1892   -1.0979 H   0  0  0  0  0  0  0  0  0  0  0  0
   -1.9955    2.8552    0.5670 H   0  0  0  0  0  0  0  0  0  0  0  0
    1.0115    0.9120   -1.7587 H   0  0  0  0  0  0  0  0  0  0  0  0
   -0.5841    1.0210   -2.4863 H   0  0  0  0  0  0  0  0  0  0  0  0
    0.2813    2.4538   -2.0056 H   0  0  0  0  0  0  0  0  0  0  0  0
    0.0347    2.1449    1.6516 H   0  0  0  0  0  0  0  0  0  0  0  0
    0.8686    2.9040    0.3219 H   0  0  0  0  0  0  0  0  0  0  0  0
    2.3944    1.7561    1.7052 H   0  0  0  0  0  0  0  0  0  0  0  0
    2.7291   -0.5918    3.4472 H   0  0  0  0  0  0  0  0  0  0  0  0
    4.8749   -1.0874    4.5681 H   0  0  0  0  0  0  0  0  0  0  0  0
    6.9250   -0.7828    0.7929 H   0  0  0  0  0  0  0  0  0  0  0  0
    4.7844   -0.2836   -0.3349 H   0  0  0  0  0  0  0  0  0  0  0  0
    1.4870   -0.8084   -1.0654 H   0  0  0  0  0  0  0  0  0  0  0  0
    1.6239   -2.7672    1.2753 H   0  0  0  0  0  0  0  0  0  0  0  0
    0.3111   -4.0450    0.1757 H   0  0  0  0  0  0  0  0  0  0  0  0
   -0.4458   -1.2055   -2.1495 H   0  0  0  0  0  0  0  0  0  0  0  0
   -1.8249    0.4515    1.1749 H   0  0  0  0  0  0  0  0  0  0  0  0
   -0.4526   -0.4571    0.8315 H   0  0  0  0  0  0  0  0  0  0  0  0
   -3.4174   -1.4905    0.8725 H   0  0  0  0  0  0  0  0  0  0  0  0
   -2.5099    0.4128   -2.4540 H   0  0  0  0  0  0  0  0  0  0  0  0
   -4.9730   -0.5100   -0.9436 H   0  0  0  0  0  0  0  0  0  0  0  0
   -4.8697    0.1379   -2.5875 H   0  0  0  0  0  0  0  0  0  0  0  0
   -4.1747   -1.4361   -2.2337 H   0  0  0  0  0  0  0  0  0  0  0  0
  1  2  1  0
  2  3  1  0
  3  4  1  0
  4  5  1  6
  4  6  1  0
  6  7  1  0
  7  8  2  0
  8  9  1  0
  9 10  1  0
 10 11  2  0
 11 12  1  0
 12 13  1  0
 12 14  2  0
 14 15  1  0
  8 16  1  0
 16 17  2  0
 17 18  1  0
 18 19  1  0
 19 20  2  0
 20 21  1  0
 21 22  1  0
 21 23  1  1
 23 24  1  0
 24 25  2  0
 21 26  1  0
 26 27  1  0
 26  2  1  0
 22  4  1  0
 15  9  2  0
 24 19  1  0
  1 28  1  0
  1 29  1  0
  1 30  1  0
  2 31  1  1
  3 32  1  0
  3 33  1  0
  5 34  1  0
  5 35  1  0
  5 36  1  0
  6 37  1  0
  6 38  1  0
  7 39  1  0
 10 40  1  0
 11 41  1  0
 14 42  1  0
 15 43  1  0
 16 44  1  0
 17 45  1  0
 18 46  1  0
 20 47  1  0
 22 48  1  0
 22 49  1  0
 23 50  1  0
 26 51  1  6
 27 52  1  0
 27 53  1  0
 27 54  1  0
M  END
>  <_SMILES>  (159) 
C[C@@H]1C[C@@]2(C)C/C=C(c3ccc(Cl)cc3)\C=C\NC3=C[C@](C2)(NC3=O)[C@H]1C

$$$$

     RDKit          3D

 54 57  0  0  0  0  0  0  0  0999 V2000
   -3.7912   -1.0294    1.9325 C   0  0  0  0  0  0  0  0  0  0  0  0
   -2.9229   -0.9162    0.6707 C   0  0  2  0  0  0  0  0  0  0  0  0
   -1.6706   -1.7790    0.8773 C   0  0  0  0  0  0  0  0  0  0  0  0
   -0.6378   -1.6950   -0.2749 C   0  0  2  0  0  0  0  0  0  0  0  0
   -0.4634   -3.1278   -0.8562 C   0  0  0  0  0  0  0  0  0  0  0  0
    0.8090   -1.3366    0.3577 C   0  0  0  0  0  0  0  0  0  0  0  0
    1.0710    0.0304    1.0179 C   0  0  0  0  0  0  0  0  0  0  0  0
    2.1724    0.8143    0.8264 C   0  0  0  0  0  0  0  0  0  0  0  0
    3.4279    0.1305    0.4168 C   0  0  0  0  0  0  0  0  0  0  0  0
    4.1831   -0.5494    1.3831 C   0  0  0  0  0  0  0  0  0  0  0  0
    5.3620   -1.2086    1.0252 C   0  0  0  0  0  0  0  0  0  0  0  0
    5.7892   -1.1909   -0.3009 C   0  0  0  0  0  0  0  0  0  0  0  0
    7.2391   -2.0052   -0.7423 Cl  0  0  0  0  0  0  0  0  0  0  0  0
    5.0489   -0.5206   -1.2727 C   0  0  0  0  0  0  0  0  0  0  0  0
    3.8700    0.1389   -0.9150 C   0  0  0  0  0  0  0  0  0  0  0  0
    2.0375    2.2891    0.5656 C   0  0  0  0  0  0  0  0  0  0  0  0
    0.9212    3.0382    0.7224 C   0  0  0  0  0  0  0  0  0  0  0  0
    0.2244    3.5801   -0.4051 N   0  0  0  0  0  0  0  0  0  0  0  0
   -0.6181    2.6777   -1.0552 C   0  0  0  0  0  0  0  0  0  0  0  0
   -0.4646    1.3626   -1.0636 C   0  0  0  0  0  0  0  0  0  0  0  0
   -1.7174    0.5812   -1.0914 C   0  0  2  0  0  0  0  0  0  0  0  0
   -1.2267   -0.8274   -1.4889 C   0  0  0  0  0  0  0  0  0  0  0  0
   -2.3622    1.4779   -2.0180 N   0  0  0  0  0  0  0  0  0  0  0  0
   -1.9328    2.8031   -1.7385 C   0  0  0  0  0  0  0  0  0  0  0  0
   -2.5235    3.8342   -1.9942 O   0  0  0  0  0  0  0  0  0  0  0  0
   -2.5064    0.5378    0.3046 C   0  0  1  0  0  0  0  0  0  0  0  0
   -3.7268    1.4797    0.3988 C   0  0  0  0  0  0  0  0  0  0  0  0
   -3.3325   -0.5083    2.7795 H   0  0  0  0  0  0  0  0  0  0  0  0
   -3.9307   -2.0783    2.2173 H   0  0  0  0  0  0  0  0  0  0  0  0
   -4.7909   -0.6158    1.7677 H   0  0  0  0  0  0  0  0  0  0  0  0
   -3.5147   -1.3347   -0.1540 H   0  0  0  0  0  0  0  0  0  0  0  0
   -1.9898   -2.8192    1.0280 H   0  0  0  0  0  0  0  0  0  0  0  0
   -1.2014   -1.4915    1.8272 H   0  0  0  0  0  0  0  0  0  0  0  0
    0.2534   -3.1297   -1.6852 H   0  0  0  0  0  0  0  0  0  0  0  0
   -1.4132   -3.5225   -1.2352 H   0  0  0  0  0  0  0  0  0  0  0  0
   -0.0965   -3.8265   -0.0955 H   0  0  0  0  0  0  0  0  0  0  0  0
    1.0327   -2.0932    1.1228 H   0  0  0  0  0  0  0  0  0  0  0  0
    1.5348   -1.4902   -0.4496 H   0  0  0  0  0  0  0  0  0  0  0  0
    0.1769    0.4913    1.4174 H   0  0  0  0  0  0  0  0  0  0  0  0
    3.8564   -0.5659    2.4208 H   0  0  0  0  0  0  0  0  0  0  0  0
    5.9392   -1.7304    1.7837 H   0  0  0  0  0  0  0  0  0  0  0  0
    5.3810   -0.5078   -2.3073 H   0  0  0  0  0  0  0  0  0  0  0  0
    3.2950    0.6510   -1.6834 H   0  0  0  0  0  0  0  0  0  0  0  0
    2.6824    2.5964   -0.2618 H   0  0  0  0  0  0  0  0  0  0  0  0
    0.1914    2.7819    1.4902 H   0  0  0  0  0  0  0  0  0  0  0  0
   -0.3273    4.4054   -0.1572 H   0  0  0  0  0  0  0  0  0  0  0  0
    0.4984    0.9146   -0.9720 H   0  0  0  0  0  0  0  0  0  0  0  0
   -2.0777   -1.3648   -1.9312 H   0  0  0  0  0  0  0  0  0  0  0  0
   -0.4789   -0.7879   -2.2947 H   0  0  0  0  0  0  0  0  0  0  0  0
   -3.3182    1.3654   -2.3280 H   0  0  0  0  0  0  0  0  0  0  0  0
   -1.8322    0.8848    1.0960 H   0  0  0  0  0  0  0  0  0  0  0  0
   -4.5076    1.1964   -0.3143 H   0  0  0  0  0  0  0  0  0  0  0  0
   -4.1661    1.4653    1.4011 H   0  0  0  0  0  0  0  0  0  0  0  0
   -3.4548    2.5246    0.2358 H   0  0  0  0  0  0  0  0  0  0  0  0
  1  2  1  0
  2  3  1  0
  3  4  1  0
  4  5  1  6
  4  6  1  0
  6  7  1  0
  7  8  2  0
  8  9  1  0
  9 10  1  0
 10 11  2  0
 11 12  1  0
 12 13  1  0
 12 14  2  0
 14 15  1  0
  8 16  1  0
 16 17  2  0
 17 18  1  0
 18 19  1  0
 19 20  2  0
 20 21  1  0
 21 22  1  0
 21 23  1  6
 23 24  1  0
 24 25  2  0
 21 26  1  0
 26 27  1  0
 26  2  1  0
 22  4  1  0
 15  9  2  0
 24 19  1  0
  1 28  1  0
  1 29  1  0
  1 30  1  0
  2 31  1  6
  3 32  1  0
  3 33  1  0
  5 34  1  0
  5 35  1  0
  5 36  1  0
  6 37  1  0
  6 38  1  0
  7 39  1  0
 10 40  1  0
 11 41  1  0
 14 42  1  0
 15 43  1  0
 16 44  1  0
 17 45  1  0
 18 46  1  0
 20 47  1  0
 22 48  1  0
 22 49  1  0
 23 50  1  0
 26 51  1  1
 27 52  1  0
 27 53  1  0
 27 54  1  0
M  END
>  <_SMILES>  (160) 
C[C@@H]1C[C@]2(C)C/C=C(c3ccc(Cl)cc3)/C=C/NC3=C[C@](C2)(NC3=O)[C@H]1C

$$$$

     RDKit          3D

 54 57  0  0  0  0  0  0  0  0999 V2000
   -3.7668   -1.0103   -2.3858 C   0  0  0  0  0  0  0  0  0  0  0  0
   -2.9609   -0.1367   -1.4176 C   0  0  2  0  0  0  0  0  0  0  0  0
   -1.5433    0.1534   -2.0594 C   0  0  0  0  0  0  0  0  0  0  0  0
   -0.4079    0.3615   -1.0234 C   0  0  1  0  0  0  0  0  0  0  0  0
    0.2129   -1.0356   -0.7837 C   0  0  0  0  0  0  0  0  0  0  0  0
    0.7926    1.2907   -1.4960 C   0  0  0  0  0  0  0  0  0  0  0  0
    1.5910    1.8119   -0.2895 C   0  0  0  0  0  0  0  0  0  0  0  0
    2.5184    1.1807    0.4828 C   0  0  0  0  0  0  0  0  0  0  0  0
    3.4923    0.2002   -0.0822 C   0  0  0  0  0  0  0  0  0  0  0  0
    3.9899   -0.8865    0.6551 C   0  0  0  0  0  0  0  0  0  0  0  0
    4.9256   -1.7731    0.1063 C   0  0  0  0  0  0  0  0  0  0  0  0
    5.3999   -1.5704   -1.1845 C   0  0  0  0  0  0  0  0  0  0  0  0
    6.5489   -2.6575   -1.8584 Cl  0  0  0  0  0  0  0  0  0  0  0  0
    4.9588   -0.4803   -1.9242 C   0  0  0  0  0  0  0  0  0  0  0  0
    4.0235    0.4015   -1.3703 C   0  0  0  0  0  0  0  0  0  0  0  0
    2.2203    1.3399    1.9390 C   0  0  0  0  0  0  0  0  0  0  0  0
    1.5201    0.3606    2.5546 C   0  0  0  0  0  0  0  0  0  0  0  0
    0.4773    0.4568    3.4896 N   0  0  0  0  0  0  0  0  0  0  0  0
   -0.8186    0.2214    2.9927 C   0  0  0  0  0  0  0  0  0  0  0  0
   -1.1874   -0.6018    1.9912 C   0  0  0  0  0  0  0  0  0  0  0  0
   -2.0677    0.1431    1.0054 C   0  0  2  0  0  0  0  0  0  0  0  0
   -1.1324    1.0407    0.1633 C   0  0  0  0  0  0  0  0  0  0  0  0
   -2.7407    1.0021    1.9536 N   0  0  0  0  0  0  0  0  0  0  0  0
   -1.8868    1.2721    3.0160 C   0  0  0  0  0  0  0  0  0  0  0  0
   -1.9333    2.2241    3.7719 O   0  0  0  0  0  0  0  0  0  0  0  0
   -2.9471   -0.7149    0.0532 C   0  0  1  0  0  0  0  0  0  0  0  0
   -4.3584   -0.9292    0.6166 C   0  0  0  0  0  0  0  0  0  0  0  0
   -3.7223   -0.6045   -3.4026 H   0  0  0  0  0  0  0  0  0  0  0  0
   -3.3756   -2.0327   -2.4106 H   0  0  0  0  0  0  0  0  0  0  0  0
   -4.8232   -1.0518   -2.1054 H   0  0  0  0  0  0  0  0  0  0  0  0
   -3.4816    0.8310   -1.3683 H   0  0  0  0  0  0  0  0  0  0  0  0
   -1.2718   -0.6474   -2.7597 H   0  0  0  0  0  0  0  0  0  0  0  0
   -1.6461    1.0557   -2.6775 H   0  0  0  0  0  0  0  0  0  0  0  0
    0.7775   -1.3592   -1.6676 H   0  0  0  0  0  0  0  0  0  0  0  0
   -0.5278   -1.8182   -0.6130 H   0  0  0  0  0  0  0  0  0  0  0  0
    0.9079   -1.0513    0.0516 H   0  0  0  0  0  0  0  0  0  0  0  0
    1.4270    0.7723   -2.2203 H   0  0  0  0  0  0  0  0  0  0  0  0
    0.3858    2.1653   -2.0195 H   0  0  0  0  0  0  0  0  0  0  0  0
    1.0579    2.6468    0.1736 H   0  0  0  0  0  0  0  0  0  0  0  0
    3.6734   -1.0668    1.6780 H   0  0  0  0  0  0  0  0  0  0  0  0
    5.2836   -2.6104    0.6996 H   0  0  0  0  0  0  0  0  0  0  0  0
    5.3418   -0.3003   -2.9249 H   0  0  0  0  0  0  0  0  0  0  0  0
    3.7252    1.2659   -1.9604 H   0  0  0  0  0  0  0  0  0  0  0  0
    2.1556    2.3626    2.3039 H   0  0  0  0  0  0  0  0  0  0  0  0
    1.5039   -0.6328    2.1137 H   0  0  0  0  0  0  0  0  0  0  0  0
    0.4669    1.3771    3.9424 H   0  0  0  0  0  0  0  0  0  0  0  0
   -0.5841   -1.4403    1.6801 H   0  0  0  0  0  0  0  0  0  0  0  0
   -1.7088    1.8958   -0.2276 H   0  0  0  0  0  0  0  0  0  0  0  0
   -0.4404    1.5322    0.8406 H   0  0  0  0  0  0  0  0  0  0  0  0
   -3.3740    1.7420    1.6808 H   0  0  0  0  0  0  0  0  0  0  0  0
   -2.5089   -1.7183   -0.0116 H   0  0  0  0  0  0  0  0  0  0  0  0
   -4.8982   -1.6955    0.0518 H   0  0  0  0  0  0  0  0  0  0  0  0
   -4.3174   -1.2750    1.6552 H   0  0  0  0  0  0  0  0  0  0  0  0
   -4.9466   -0.0065    0.5813 H   0  0  0  0  0  0  0  0  0  0  0  0
  1  2  1  0
  2  3  1  0
  3  4  1  0
  4  5  1  1
  4  6  1  0
  6  7  1  0
  7  8  2  0
  8  9  1  0
  9 10  1  0
 10 11  2  0
 11 12  1  0
 12 13  1  0
 12 14  2  0
 14 15  1  0
  8 16  1  0
 16 17  2  0
 17 18  1  0
 18 19  1  0
 19 20  2  0
 20 21  1  0
 21 22  1  0
 21 23  1  1
 23 24  1  0
 24 25  2  0
 21 26  1  0
 26 27  1  0
 26  2  1  0
 22  4  1  0
 15  9  2  0
 24 19  1  0
  1 28  1  0
  1 29  1  0
  1 30  1  0
  2 31  1  1
  3 32  1  0
  3 33  1  0
  5 34  1  0
  5 35  1  0
  5 36  1  0
  6 37  1  0
  6 38  1  0
  7 39  1  0
 10 40  1  0
 11 41  1  0
 14 42  1  0
 15 43  1  0
 16 44  1  0
 17 45  1  0
 18 46  1  0
 20 47  1  0
 22 48  1  0
 22 49  1  0
 23 50  1  0
 26 51  1  6
 27 52  1  0
 27 53  1  0
 27 54  1  0
M  END
>  <_SMILES>  (161) 
C[C@@H]1C[C@@]2(C)C/C=C(c3ccc(Cl)cc3)/C=C/NC3=C[C@](C2)(NC3=O)[C@H]1C

$$$$

     RDKit          3D

 54 57  0  0  0  0  0  0  0  0999 V2000
   -2.8368   -2.7600    0.7147 C   0  0  0  0  0  0  0  0  0  0  0  0
   -2.6714   -1.3840    0.0571 C   0  0  2  0  0  0  0  0  0  0  0  0
   -1.4405   -1.4029   -0.8734 C   0  0  0  0  0  0  0  0  0  0  0  0
   -1.2766   -0.0888   -1.6890 C   0  0  2  0  0  0  0  0  0  0  0  0
   -2.1187   -0.2115   -2.9891 C   0  0  0  0  0  0  0  0  0  0  0  0
    0.2088    0.1991   -2.1607 C   0  0  0  0  0  0  0  0  0  0  0  0
    1.3552   -0.3220   -1.3282 C   0  0  0  0  0  0  0  0  0  0  0  0
    2.3620    0.3389   -0.7143 C   0  0  0  0  0  0  0  0  0  0  0  0
    3.3612   -0.5102   -0.0159 C   0  0  0  0  0  0  0  0  0  0  0  0
    4.2417   -1.3238   -0.7450 C   0  0  0  0  0  0  0  0  0  0  0  0
    5.1851   -2.1149   -0.0841 C   0  0  0  0  0  0  0  0  0  0  0  0
    5.2552   -2.0907    1.3076 C   0  0  0  0  0  0  0  0  0  0  0  0
    6.4168   -3.0651    2.1210 Cl  0  0  0  0  0  0  0  0  0  0  0  0
    4.3933   -1.2810    2.0442 C   0  0  0  0  0  0  0  0  0  0  0  0
    3.4499   -0.4903    1.3829 C   0  0  0  0  0  0  0  0  0  0  0  0
    2.5570    1.7792   -0.7421 C   0  0  0  0  0  0  0  0  0  0  0  0
    2.1913    2.7033    0.1620 C   0  0  0  0  0  0  0  0  0  0  0  0
    1.4060    2.6863    1.3113 N   0  0  0  0  0  0  0  0  0  0  0  0
    0.1291    2.1779    1.2909 C   0  0  0  0  0  0  0  0  0  0  0  0
   -0.3536    0.9604    1.0418 C   0  0  0  0  0  0  0  0  0  0  0  0
   -1.7984    0.9843    0.6404 C   0  0  2  0  0  0  0  0  0  0  0  0
   -1.8752    1.1128   -0.8996 C   0  0  0  0  0  0  0  0  0  0  0  0
   -2.1721    2.2421    1.2414 N   0  0  0  0  0  0  0  0  0  0  0  0
   -1.0714    3.0451    1.4421 C   0  0  0  0  0  0  0  0  0  0  0  0
   -1.0599    4.2373    1.6856 O   0  0  0  0  0  0  0  0  0  0  0  0
   -2.5967   -0.2515    1.1376 C   0  0  1  0  0  0  0  0  0  0  0  0
   -4.0256    0.1127    1.5792 C   0  0  0  0  0  0  0  0  0  0  0  0
   -1.9782   -3.0002    1.3510 H   0  0  0  0  0  0  0  0  0  0  0  0
   -3.7388   -2.8040    1.3319 H   0  0  0  0  0  0  0  0  0  0  0  0
   -2.9216   -3.5440   -0.0456 H   0  0  0  0  0  0  0  0  0  0  0  0
   -3.5592   -1.2190   -0.5678 H   0  0  0  0  0  0  0  0  0  0  0  0
   -0.5698   -1.6041   -0.2436 H   0  0  0  0  0  0  0  0  0  0  0  0
   -1.5035   -2.2563   -1.5613 H   0  0  0  0  0  0  0  0  0  0  0  0
   -2.0548    0.7059   -3.5858 H   0  0  0  0  0  0  0  0  0  0  0  0
   -3.1768   -0.3945   -2.7718 H   0  0  0  0  0  0  0  0  0  0  0  0
   -1.7675   -1.0415   -3.6129 H   0  0  0  0  0  0  0  0  0  0  0  0
    0.3519   -0.2699   -3.1448 H   0  0  0  0  0  0  0  0  0  0  0  0
    0.3306    1.2729   -2.3475 H   0  0  0  0  0  0  0  0  0  0  0  0
    1.3664   -1.4118   -1.2662 H   0  0  0  0  0  0  0  0  0  0  0  0
    4.1981   -1.3419   -1.8317 H   0  0  0  0  0  0  0  0  0  0  0  0
    5.8608   -2.7420   -0.6591 H   0  0  0  0  0  0  0  0  0  0  0  0
    4.4503   -1.2554    3.1289 H   0  0  0  0  0  0  0  0  0  0  0  0
    2.7857    0.1458    1.9648 H   0  0  0  0  0  0  0  0  0  0  0  0
    3.2105    2.1053   -1.5511 H   0  0  0  0  0  0  0  0  0  0  0  0
    2.5738    3.7128    0.0014 H   0  0  0  0  0  0  0  0  0  0  0  0
    1.3491    3.6353    1.6999 H   0  0  0  0  0  0  0  0  0  0  0  0
    0.2692    0.0881    0.9549 H   0  0  0  0  0  0  0  0  0  0  0  0
   -1.4127    2.0483   -1.2454 H   0  0  0  0  0  0  0  0  0  0  0  0
   -2.9381    1.2364   -1.1562 H   0  0  0  0  0  0  0  0  0  0  0  0
   -3.0701    2.6896    1.1162 H   0  0  0  0  0  0  0  0  0  0  0  0
   -2.0917   -0.6522    2.0282 H   0  0  0  0  0  0  0  0  0  0  0  0
   -4.5822   -0.7723    1.9020 H   0  0  0  0  0  0  0  0  0  0  0  0
   -4.5859    0.5830    0.7641 H   0  0  0  0  0  0  0  0  0  0  0  0
   -4.0111    0.8031    2.4291 H   0  0  0  0  0  0  0  0  0  0  0  0
  1  2  1  0
  2  3  1  0
  3  4  1  0
  4  5  1  6
  4  6  1  0
  6  7  1  0
  7  8  2  0
  8  9  1  0
  9 10  1  0
 10 11  2  0
 11 12  1  0
 12 13  1  0
 12 14  2  0
 14 15  1  0
  8 16  1  0
 16 17  2  0
 17 18  1  0
 18 19  1  0
 19 20  2  0
 20 21  1  0
 21 22  1  0
 21 23  1  1
 23 24  1  0
 24 25  2  0
 21 26  1  0
 26 27  1  0
 26  2  1  0
 22  4  1  0
 15  9  2  0
 24 19  1  0
  1 28  1  0
  1 29  1  0
  1 30  1  0
  2 31  1  6
  3 32  1  0
  3 33  1  0
  5 34  1  0
  5 35  1  0
  5 36  1  0
  6 37  1  0
  6 38  1  0
  7 39  1  0
 10 40  1  0
 11 41  1  0
 14 42  1  0
 15 43  1  0
 16 44  1  0
 17 45  1  0
 18 46  1  0
 20 47  1  0
 22 48  1  0
 22 49  1  0
 23 50  1  0
 26 51  1  1
 27 52  1  0
 27 53  1  0
 27 54  1  0
M  END
>  <_SMILES>  (162) 
C[C@@H]1C[C@]2(C)C/C=C(c3ccc(Cl)cc3)\C=C/NC3=C[C@](C2)(NC3=O)[C@H]1C

$$$$

     RDKit          3D

 54 57  0  0  0  0  0  0  0  0999 V2000
   -4.0217    2.6286   -1.1040 C   0  0  0  0  0  0  0  0  0  0  0  0
   -3.0064    2.0497   -0.1125 C   0  0  2  0  0  0  0  0  0  0  0  0
   -1.5681    2.6348   -0.4516 C   0  0  0  0  0  0  0  0  0  0  0  0
   -0.4456    1.5829   -0.3011 C   0  0  1  0  0  0  0  0  0  0  0  0
   -0.4321    0.8135   -1.6535 C   0  0  0  0  0  0  0  0  0  0  0  0
    1.0172    2.0828   -0.0432 C   0  0  0  0  0  0  0  0  0  0  0  0
    2.0555    1.0136   -0.3996 C   0  0  0  0  0  0  0  0  0  0  0  0
    2.5250   -0.0970    0.2225 C   0  0  0  0  0  0  0  0  0  0  0  0
    3.4578   -0.9099   -0.6013 C   0  0  0  0  0  0  0  0  0  0  0  0
    2.9987   -2.0698   -1.2402 C   0  0  0  0  0  0  0  0  0  0  0  0
    3.8703   -2.8424   -2.0110 C   0  0  0  0  0  0  0  0  0  0  0  0
    5.2035   -2.4576   -2.1414 C   0  0  0  0  0  0  0  0  0  0  0  0
    6.2778   -3.4085   -3.0916 Cl  0  0  0  0  0  0  0  0  0  0  0  0
    5.6743   -1.3092   -1.5063 C   0  0  0  0  0  0  0  0  0  0  0  0
    4.8028   -0.5367   -0.7345 C   0  0  0  0  0  0  0  0  0  0  0  0
    2.2902   -0.5204    1.5974 C   0  0  0  0  0  0  0  0  0  0  0  0
    1.5777   -1.5528    2.0922 C   0  0  0  0  0  0  0  0  0  0  0  0
    0.6305   -2.4488    1.5548 N   0  0  0  0  0  0  0  0  0  0  0  0
   -0.6842   -1.9848    1.4668 C   0  0  0  0  0  0  0  0  0  0  0  0
   -1.2745   -1.3973    0.4147 C   0  0  0  0  0  0  0  0  0  0  0  0
   -1.9772   -0.1367    0.8781 C   0  0  2  0  0  0  0  0  0  0  0  0
   -0.8514    0.8932    1.0091 C   0  0  0  0  0  0  0  0  0  0  0  0
   -2.3474   -0.5619    2.2064 N   0  0  0  0  0  0  0  0  0  0  0  0
   -1.4464   -1.5036    2.6641 C   0  0  0  0  0  0  0  0  0  0  0  0
   -1.2649   -1.8484    3.8167 O   0  0  0  0  0  0  0  0  0  0  0  0
   -3.1191    0.4674    0.0090 C   0  0  1  0  0  0  0  0  0  0  0  0
   -4.5097    0.0239    0.4888 C   0  0  0  0  0  0  0  0  0  0  0  0
   -3.8816    2.2012   -2.1023 H   0  0  0  0  0  0  0  0  0  0  0  0
   -5.0503    2.4346   -0.7874 H   0  0  0  0  0  0  0  0  0  0  0  0
   -3.9113    3.7159   -1.1809 H   0  0  0  0  0  0  0  0  0  0  0  0
   -3.2712    2.4550    0.8752 H   0  0  0  0  0  0  0  0  0  0  0  0
   -1.3802    3.4797    0.2253 H   0  0  0  0  0  0  0  0  0  0  0  0
   -1.5525    3.0662   -1.4610 H   0  0  0  0  0  0  0  0  0  0  0  0
   -1.4183    0.5391   -2.0258 H   0  0  0  0  0  0  0  0  0  0  0  0
    0.1720   -0.0955   -1.6349 H   0  0  0  0  0  0  0  0  0  0  0  0
   -0.0045    1.4550   -2.4363 H   0  0  0  0  0  0  0  0  0  0  0  0
    1.2118    2.9608   -0.6728 H   0  0  0  0  0  0  0  0  0  0  0  0
    1.1612    2.4205    0.9904 H   0  0  0  0  0  0  0  0  0  0  0  0
    2.4085    1.1719   -1.4240 H   0  0  0  0  0  0  0  0  0  0  0  0
    1.9607   -2.3773   -1.1306 H   0  0  0  0  0  0  0  0  0  0  0  0
    3.5038   -3.7407   -2.4998 H   0  0  0  0  0  0  0  0  0  0  0  0
    6.7146   -1.0121   -1.6051 H   0  0  0  0  0  0  0  0  0  0  0  0
    5.1751    0.3558   -0.2371 H   0  0  0  0  0  0  0  0  0  0  0  0
    2.9111    0.0271    2.3076 H   0  0  0  0  0  0  0  0  0  0  0  0
    1.6722   -1.7344    3.1661 H   0  0  0  0  0  0  0  0  0  0  0  0
    0.5808   -3.2302    2.2199 H   0  0  0  0  0  0  0  0  0  0  0  0
   -0.8765   -1.5120   -0.5798 H   0  0  0  0  0  0  0  0  0  0  0  0
    0.0169    0.4796    1.5132 H   0  0  0  0  0  0  0  0  0  0  0  0
   -1.1570    1.6593    1.7431 H   0  0  0  0  0  0  0  0  0  0  0  0
   -2.7739    0.0436    2.8948 H   0  0  0  0  0  0  0  0  0  0  0  0
   -3.0366    0.0551   -1.0022 H   0  0  0  0  0  0  0  0  0  0  0  0
   -4.7762    0.4993    1.4384 H   0  0  0  0  0  0  0  0  0  0  0  0
   -4.5499   -1.0629    0.6206 H   0  0  0  0  0  0  0  0  0  0  0  0
   -5.2814    0.2801   -0.2434 H   0  0  0  0  0  0  0  0  0  0  0  0
  1  2  1  0
  2  3  1  0
  3  4  1  0
  4  5  1  6
  4  6  1  0
  6  7  1  0
  7  8  2  0
  8  9  1  0
  9 10  1  0
 10 11  2  0
 11 12  1  0
 12 13  1  0
 12 14  2  0
 14 15  1  0
  8 16  1  0
 16 17  2  0
 17 18  1  0
 18 19  1  0
 19 20  2  0
 20 21  1  0
 21 22  1  0
 21 23  1  1
 23 24  1  0
 24 25  2  0
 21 26  1  0
 26 27  1  0
 26  2  1  0
 22  4  1  0
 15  9  2  0
 24 19  1  0
  1 28  1  0
  1 29  1  0
  1 30  1  0
  2 31  1  1
  3 32  1  0
  3 33  1  0
  5 34  1  0
  5 35  1  0
  5 36  1  0
  6 37  1  0
  6 38  1  0
  7 39  1  0
 10 40  1  0
 11 41  1  0
 14 42  1  0
 15 43  1  0
 16 44  1  0
 17 45  1  0
 18 46  1  0
 20 47  1  0
 22 48  1  0
 22 49  1  0
 23 50  1  0
 26 51  1  6
 27 52  1  0
 27 53  1  0
 27 54  1  0
M  END
>  <_SMILES>  (163) 
C[C@@H]1C[C@@]2(C)C/C=C(c3ccc(Cl)cc3)\C=C/NC3=C[C@](C2)(NC3=O)[C@H]1C

$$$$

     RDKit          3D

 54 57  0  0  0  0  0  0  0  0999 V2000
   -4.0672    2.0246   -0.8842 C   0  0  0  0  0  0  0  0  0  0  0  0
   -2.9689    1.4779    0.0355 C   0  0  2  0  0  0  0  0  0  0  0  0
   -1.5996    2.0446   -0.3920 C   0  0  0  0  0  0  0  0  0  0  0  0
   -0.4415    1.5913    0.5360 C   0  0  2  0  0  0  0  0  0  0  0  0
   -0.4282    2.5166    1.7830 C   0  0  0  0  0  0  0  0  0  0  0  0
    0.9633    1.7817   -0.1465 C   0  0  0  0  0  0  0  0  0  0  0  0
    1.2738    0.8953   -1.3304 C   0  0  0  0  0  0  0  0  0  0  0  0
    2.1543   -0.1272   -1.4131 C   0  0  0  0  0  0  0  0  0  0  0  0
    3.0955   -0.4113   -0.3054 C   0  0  0  0  0  0  0  0  0  0  0  0
    4.1647    0.4603   -0.0484 C   0  0  0  0  0  0  0  0  0  0  0  0
    5.0670    0.1906    0.9839 C   0  0  0  0  0  0  0  0  0  0  0  0
    4.9099   -0.9581    1.7567 C   0  0  0  0  0  0  0  0  0  0  0  0
    6.0195   -1.2897    3.0289 Cl  0  0  0  0  0  0  0  0  0  0  0  0
    3.8631   -1.8413    1.5028 C   0  0  0  0  0  0  0  0  0  0  0  0
    2.9616   -1.5706    0.4699 C   0  0  0  0  0  0  0  0  0  0  0  0
    2.1940   -0.9552   -2.6175 C   0  0  0  0  0  0  0  0  0  0  0  0
    1.4407   -2.0323   -2.9081 C   0  0  0  0  0  0  0  0  0  0  0  0
    0.3871   -2.6667   -2.2753 N   0  0  0  0  0  0  0  0  0  0  0  0
   -0.4188   -2.1622   -1.2933 C   0  0  0  0  0  0  0  0  0  0  0  0
   -1.0407   -0.9881   -1.1795 C   0  0  0  0  0  0  0  0  0  0  0  0
   -1.6180   -0.7306    0.1811 C   0  0  2  0  0  0  0  0  0  0  0  0
   -0.6609    0.1344    1.0382 C   0  0  0  0  0  0  0  0  0  0  0  0
   -1.6127   -2.0900    0.6735 N   0  0  0  0  0  0  0  0  0  0  0  0
   -0.7881   -2.9104   -0.0652 C   0  0  0  0  0  0  0  0  0  0  0  0
   -0.4184   -4.0335    0.2230 O   0  0  0  0  0  0  0  0  0  0  0  0
   -3.0246   -0.0848    0.0882 C   0  0  1  0  0  0  0  0  0  0  0  0
   -3.9460   -0.5067    1.2472 C   0  0  0  0  0  0  0  0  0  0  0  0
   -3.9129    1.7020   -1.9195 H   0  0  0  0  0  0  0  0  0  0  0  0
   -5.0564    1.6814   -0.5651 H   0  0  0  0  0  0  0  0  0  0  0  0
   -4.0755    3.1197   -0.8699 H   0  0  0  0  0  0  0  0  0  0  0  0
   -3.1807    1.8688    1.0394 H   0  0  0  0  0  0  0  0  0  0  0  0
   -1.6488    3.1421   -0.4007 H   0  0  0  0  0  0  0  0  0  0  0  0
   -1.4087    1.7701   -1.4335 H   0  0  0  0  0  0  0  0  0  0  0  0
   -0.2500    3.5604    1.5002 H   0  0  0  0  0  0  0  0  0  0  0  0
    0.3626    2.2226    2.4830 H   0  0  0  0  0  0  0  0  0  0  0  0
   -1.3776    2.4796    2.3276 H   0  0  0  0  0  0  0  0  0  0  0  0
    1.0512    2.8214   -0.4902 H   0  0  0  0  0  0  0  0  0  0  0  0
    1.7342    1.6666    0.6237 H   0  0  0  0  0  0  0  0  0  0  0  0
    0.6763    1.1119   -2.2150 H   0  0  0  0  0  0  0  0  0  0  0  0
    4.2972    1.3555   -0.6519 H   0  0  0  0  0  0  0  0  0  0  0  0
    5.8873    0.8765    1.1762 H   0  0  0  0  0  0  0  0  0  0  0  0
    3.7423   -2.7425    2.0979 H   0  0  0  0  0  0  0  0  0  0  0  0
    2.1551   -2.2733    0.2760 H   0  0  0  0  0  0  0  0  0  0  0  0
    3.0201   -0.7173   -3.2866 H   0  0  0  0  0  0  0  0  0  0  0  0
    1.7161   -2.5990   -3.7977 H   0  0  0  0  0  0  0  0  0  0  0  0
    0.5366   -3.6718   -2.1631 H   0  0  0  0  0  0  0  0  0  0  0  0
   -1.0408   -0.2699   -1.9823 H   0  0  0  0  0  0  0  0  0  0  0  0
   -1.0772    0.1568    2.0561 H   0  0  0  0  0  0  0  0  0  0  0  0
    0.3084   -0.3640    1.1660 H   0  0  0  0  0  0  0  0  0  0  0  0
   -1.8444   -2.3581    1.6202 H   0  0  0  0  0  0  0  0  0  0  0  0
   -3.5104   -0.4510   -0.8281 H   0  0  0  0  0  0  0  0  0  0  0  0
   -4.1370   -1.5846    1.2281 H   0  0  0  0  0  0  0  0  0  0  0  0
   -4.9190   -0.0093    1.1759 H   0  0  0  0  0  0  0  0  0  0  0  0
   -3.5090   -0.2534    2.2187 H   0  0  0  0  0  0  0  0  0  0  0  0
  1  2  1  0
  2  3  1  0
  3  4  1  0
  4  5  1  1
  4  6  1  0
  6  7  1  0
  7  8  2  0
  8  9  1  0
  9 10  1  0
 10 11  2  0
 11 12  1  0
 12 13  1  0
 12 14  2  0
 14 15  1  0
  8 16  1  0
 16 17  2  0
 17 18  1  0
 18 19  1  0
 19 20  2  0
 20 21  1  0
 21 22  1  0
 21 23  1  1
 23 24  1  0
 24 25  2  0
 21 26  1  0
 26 27  1  0
 26  2  1  0
 22  4  1  0
 15  9  2  0
 24 19  1  0
  1 28  1  0
  1 29  1  0
  1 30  1  0
  2 31  1  1
  3 32  1  0
  3 33  1  0
  5 34  1  0
  5 35  1  0
  5 36  1  0
  6 37  1  0
  6 38  1  0
  7 39  1  0
 10 40  1  0
 11 41  1  0
 14 42  1  0
 15 43  1  0
 16 44  1  0
 17 45  1  0
 18 46  1  0
 20 47  1  0
 22 48  1  0
 22 49  1  0
 23 50  1  0
 26 51  1  6
 27 52  1  0
 27 53  1  0
 27 54  1  0
M  END
>  <_SMILES>  (164) 
C[C@@H]1C[C@]2(C)C/C=C(c3ccc(Cl)cc3)/C=C\NC3=C[C@](C2)(NC3=O)[C@H]1C

$$$$

     RDKit          3D

 54 57  0  0  0  0  0  0  0  0999 V2000
   -3.5713    2.4937   -0.9135 C   0  0  0  0  0  0  0  0  0  0  0  0
   -3.0084    1.2993   -0.1347 C   0  0  2  0  0  0  0  0  0  0  0  0
   -1.8527    1.8209    0.8441 C   0  0  0  0  0  0  0  0  0  0  0  0
   -0.6356    0.8736    0.8238 C   0  0  1  0  0  0  0  0  0  0  0  0
    0.1241    1.3294   -0.4536 C   0  0  0  0  0  0  0  0  0  0  0  0
    0.4407    0.8991    1.9652 C   0  0  0  0  0  0  0  0  0  0  0  0
    1.3022   -0.3829    1.8934 C   0  0  0  0  0  0  0  0  0  0  0  0
    2.3099   -0.7386    1.0612 C   0  0  0  0  0  0  0  0  0  0  0  0
    3.1392    0.2676    0.3425 C   0  0  0  0  0  0  0  0  0  0  0  0
    3.6797    1.3746    1.0149 C   0  0  0  0  0  0  0  0  0  0  0  0
    4.4869    2.2965    0.3413 C   0  0  0  0  0  0  0  0  0  0  0  0
    4.7749    2.1083   -1.0080 C   0  0  0  0  0  0  0  0  0  0  0  0
    5.7668    3.2432   -1.8370 Cl  0  0  0  0  0  0  0  0  0  0  0  0
    4.2712    1.0027   -1.6874 C   0  0  0  0  0  0  0  0  0  0  0  0
    3.4649    0.0821   -1.0118 C   0  0  0  0  0  0  0  0  0  0  0  0
    2.6603   -2.1584    0.9289 C   0  0  0  0  0  0  0  0  0  0  0  0
    2.0626   -3.1967    0.3089 C   0  0  0  0  0  0  0  0  0  0  0  0
    0.9168   -3.5025   -0.4262 N   0  0  0  0  0  0  0  0  0  0  0  0
   -0.2505   -2.7911   -0.5367 C   0  0  0  0  0  0  0  0  0  0  0  0
   -0.5674   -1.5958   -1.0472 C   0  0  0  0  0  0  0  0  0  0  0  0
   -1.8260   -1.0516   -0.3997 C   0  0  2  0  0  0  0  0  0  0  0  0
   -1.3546   -0.4978    0.9363 C   0  0  0  0  0  0  0  0  0  0  0  0
   -2.4884   -2.3075   -0.1484 N   0  0  0  0  0  0  0  0  0  0  0  0
   -1.5510   -3.3166   -0.0075 C   0  0  0  0  0  0  0  0  0  0  0  0
   -1.7275   -4.4221    0.4704 O   0  0  0  0  0  0  0  0  0  0  0  0
   -2.6569    0.0655   -1.1064 C   0  0  1  0  0  0  0  0  0  0  0  0
   -3.9198   -0.4931   -1.7799 C   0  0  0  0  0  0  0  0  0  0  0  0
   -4.4949    2.2353   -1.4383 H   0  0  0  0  0  0  0  0  0  0  0  0
   -3.8098    3.3202   -0.2351 H   0  0  0  0  0  0  0  0  0  0  0  0
   -2.8473    2.8571   -1.6500 H   0  0  0  0  0  0  0  0  0  0  0  0
   -3.8175    0.9496    0.5235 H   0  0  0  0  0  0  0  0  0  0  0  0
   -1.5578    2.8476    0.5912 H   0  0  0  0  0  0  0  0  0  0  0  0
   -2.2675    1.8818    1.8596 H   0  0  0  0  0  0  0  0  0  0  0  0
    0.8680    0.6233   -0.7926 H   0  0  0  0  0  0  0  0  0  0  0  0
    0.6557    2.2704   -0.2568 H   0  0  0  0  0  0  0  0  0  0  0  0
   -0.5131    1.5542   -1.3090 H   0  0  0  0  0  0  0  0  0  0  0  0
   -0.0608    0.9136    2.9412 H   0  0  0  0  0  0  0  0  0  0  0  0
    1.0551    1.8034    1.9280 H   0  0  0  0  0  0  0  0  0  0  0  0
    0.8986   -1.1854    2.5158 H   0  0  0  0  0  0  0  0  0  0  0  0
    3.4847    1.5228    2.0747 H   0  0  0  0  0  0  0  0  0  0  0  0
    4.8909    3.1509    0.8774 H   0  0  0  0  0  0  0  0  0  0  0  0
    4.5013    0.8474   -2.7379 H   0  0  0  0  0  0  0  0  0  0  0  0
    3.0780   -0.7785   -1.5548 H   0  0  0  0  0  0  0  0  0  0  0  0
    3.6345   -2.3674    1.3774 H   0  0  0  0  0  0  0  0  0  0  0  0
    2.6331   -4.1274    0.3771 H   0  0  0  0  0  0  0  0  0  0  0  0
    0.6747   -4.4901   -0.2854 H   0  0  0  0  0  0  0  0  0  0  0  0
    0.1440   -1.0118   -1.6029 H   0  0  0  0  0  0  0  0  0  0  0  0
   -2.2147   -0.4133    1.6230 H   0  0  0  0  0  0  0  0  0  0  0  0
   -0.7856   -1.2581    1.4706 H   0  0  0  0  0  0  0  0  0  0  0  0
   -3.3562   -2.4016    0.3619 H   0  0  0  0  0  0  0  0  0  0  0  0
   -2.0569    0.4607   -1.9338 H   0  0  0  0  0  0  0  0  0  0  0  0
   -4.6597   -0.8121   -1.0386 H   0  0  0  0  0  0  0  0  0  0  0  0
   -4.3908    0.2550   -2.4243 H   0  0  0  0  0  0  0  0  0  0  0  0
   -3.6760   -1.3493   -2.4183 H   0  0  0  0  0  0  0  0  0  0  0  0
  1  2  1  0
  2  3  1  0
  3  4  1  0
  4  5  1  6
  4  6  1  0
  6  7  1  0
  7  8  2  0
  8  9  1  0
  9 10  1  0
 10 11  2  0
 11 12  1  0
 12 13  1  0
 12 14  2  0
 14 15  1  0
  8 16  1  0
 16 17  2  0
 17 18  1  0
 18 19  1  0
 19 20  2  0
 20 21  1  0
 21 22  1  0
 21 23  1  1
 23 24  1  0
 24 25  2  0
 21 26  1  0
 26 27  1  0
 26  2  1  0
 22  4  1  0
 15  9  2  0
 24 19  1  0
  1 28  1  0
  1 29  1  0
  1 30  1  0
  2 31  1  1
  3 32  1  0
  3 33  1  0
  5 34  1  0
  5 35  1  0
  5 36  1  0
  6 37  1  0
  6 38  1  0
  7 39  1  0
 10 40  1  0
 11 41  1  0
 14 42  1  0
 15 43  1  0
 16 44  1  0
 17 45  1  0
 18 46  1  0
 20 47  1  0
 22 48  1  0
 22 49  1  0
 23 50  1  0
 26 51  1  6
 27 52  1  0
 27 53  1  0
 27 54  1  0
M  END
>  <_SMILES>  (165) 
C[C@@H]1C[C@@]2(C)C/C=C(c3ccc(Cl)cc3)/C=C\NC3=C[C@](C2)(NC3=O)[C@H]1C

$$$$

     RDKit          3D

 43 46  0  0  0  0  0  0  0  0999 V2000
    6.8268    0.3573    0.2249 C   0  0  0  0  0  0  0  0  0  0  0  0
    5.3492    0.1041    0.2902 C   0  0  0  0  0  0  0  0  0  0  0  0
    4.5227    0.4486   -0.7869 C   0  0  0  0  0  0  0  0  0  0  0  0
    3.1509    0.1827   -0.7426 C   0  0  0  0  0  0  0  0  0  0  0  0
    2.5930   -0.4347    0.3833 C   0  0  0  0  0  0  0  0  0  0  0  0
    1.1374   -0.7385    0.4739 C   0  0  0  0  0  0  0  0  0  0  0  0
    0.7594   -1.6977    1.1347 O   0  0  0  0  0  0  0  0  0  0  0  0
    0.2993    0.1378   -0.1867 N   0  0  0  0  0  0  0  0  0  0  0  0
   -1.1661    0.0702   -0.1496 C   0  0  2  0  0  0  0  0  0  0  0  0
   -1.6994   -1.2767   -0.7009 C   0  0  0  0  0  0  0  0  0  0  0  0
   -3.2384   -1.2932   -0.6957 C   0  0  1  0  0  0  0  0  0  0  0  0
   -3.7415   -1.0858    0.7431 C   0  0  0  0  0  0  0  0  0  0  0  0
   -3.2493    0.2664    1.2868 C   0  0  2  0  0  0  0  0  0  0  0  0
   -3.7722    1.3956    0.3848 C   0  0  0  0  0  0  0  0  0  0  0  0
   -3.2654    1.1971   -1.0523 C   0  0  2  0  0  0  0  0  0  0  0  0
   -3.7623   -0.1554   -1.5854 C   0  0  0  0  0  0  0  0  0  0  0  0
   -1.7285    1.2039   -1.0503 C   0  0  0  0  0  0  0  0  0  0  0  0
   -1.7104    0.2843    1.2842 C   0  0  0  0  0  0  0  0  0  0  0  0
    3.4208   -0.8096    1.4470 C   0  0  0  0  0  0  0  0  0  0  0  0
    4.7909   -0.5414    1.4002 C   0  0  0  0  0  0  0  0  0  0  0  0
    7.2381    0.5282    1.2253 H   0  0  0  0  0  0  0  0  0  0  0  0
    7.3341   -0.5017   -0.2249 H   0  0  0  0  0  0  0  0  0  0  0  0
    7.0438    1.2495   -0.3718 H   0  0  0  0  0  0  0  0  0  0  0  0
    4.9456    0.9180   -1.6728 H   0  0  0  0  0  0  0  0  0  0  0  0
    2.5395    0.4332   -1.6048 H   0  0  0  0  0  0  0  0  0  0  0  0
    0.7030    1.0170   -0.4806 H   0  0  0  0  0  0  0  0  0  0  0  0
   -1.3361   -2.1200   -0.1028 H   0  0  0  0  0  0  0  0  0  0  0  0
   -1.3269   -1.4407   -1.7205 H   0  0  0  0  0  0  0  0  0  0  0  0
   -3.5980   -2.2553   -1.0777 H   0  0  0  0  0  0  0  0  0  0  0  0
   -4.8378   -1.1201    0.7641 H   0  0  0  0  0  0  0  0  0  0  0  0
   -3.3854   -1.9002    1.3859 H   0  0  0  0  0  0  0  0  0  0  0  0
   -3.6177    0.4099    2.3087 H   0  0  0  0  0  0  0  0  0  0  0  0
   -4.8690    1.4075    0.3971 H   0  0  0  0  0  0  0  0  0  0  0  0
   -3.4390    2.3674    0.7694 H   0  0  0  0  0  0  0  0  0  0  0  0
   -3.6383    2.0057   -1.6908 H   0  0  0  0  0  0  0  0  0  0  0  0
   -4.8589   -0.1702   -1.6065 H   0  0  0  0  0  0  0  0  0  0  0  0
   -3.4220   -0.2998   -2.6181 H   0  0  0  0  0  0  0  0  0  0  0  0
   -1.3553    1.0899   -2.0769 H   0  0  0  0  0  0  0  0  0  0  0  0
   -1.3658    2.1795   -0.6998 H   0  0  0  0  0  0  0  0  0  0  0  0
   -1.3417   -0.4943    1.9626 H   0  0  0  0  0  0  0  0  0  0  0  0
   -1.3474    1.2390    1.6870 H   0  0  0  0  0  0  0  0  0  0  0  0
    2.9993   -1.3132    2.3148 H   0  0  0  0  0  0  0  0  0  0  0  0
    5.4191   -0.8441    2.2353 H   0  0  0  0  0  0  0  0  0  0  0  0
  1  2  1  0
  2  3  1  0
  3  4  2  0
  4  5  1  0
  5  6  1  0
  6  7  2  0
  6  8  1  0
  9  8  1  1
  9 10  1  0
 10 11  1  0
 11 12  1  0
 12 13  1  0
 13 14  1  0
 14 15  1  0
 15 16  1  0
 15 17  1  0
 13 18  1  0
  5 19  2  0
 19 20  1  0
 20  2  2  0
 17  9  1  0
 18  9  1  0
 16 11  1  0
  1 21  1  0
  1 22  1  0
  1 23  1  0
  3 24  1  0
  4 25  1  0
  8 26  1  0
 10 27  1  0
 10 28  1  0
 11 29  1  6
 12 30  1  0
 12 31  1  0
 13 32  1  1
 14 33  1  0
 14 34  1  0
 15 35  1  6
 16 36  1  0
 16 37  1  0
 17 38  1  0
 17 39  1  0
 18 40  1  0
 18 41  1  0
 19 42  1  0
 20 43  1  0
M  END
>  <_SMILES>  (166) 
Cc1ccc(C(=O)N[C@]23C[C@H]4C[C@H](C[C@H](C4)C2)C3)cc1

$$$$

     RDKit          3D

 56 61  0  0  0  0  0  0  0  0999 V2000
   -0.4169    1.0172    0.8238 O   0  0  0  0  0  0  0  0  0  0  0  0
   -0.6500    0.7104   -0.3383 C   0  0  0  0  0  0  0  0  0  0  0  0
   -1.8874    0.3353   -0.8210 N   0  0  0  0  0  0  0  0  0  0  0  0
   -3.0927    0.2016    0.0060 C   0  0  2  0  0  0  0  0  0  0  0  0
   -2.9285   -0.9042    1.0775 C   0  0  0  0  0  0  0  0  0  0  0  0
   -4.2240   -1.0639    1.8927 C   0  0  1  0  0  0  0  0  0  0  0  0
   -4.5611    0.2724    2.5759 C   0  0  0  0  0  0  0  0  0  0  0  0
   -4.7641    1.3715    1.5190 C   0  0  2  0  0  0  0  0  0  0  0  0
   -5.9101    0.9665    0.5793 C   0  0  0  0  0  0  0  0  0  0  0  0
   -5.5742   -0.3630   -0.1133 C   0  0  2  0  0  0  0  0  0  0  0  0
   -5.3730   -1.4546    0.9496 C   0  0  0  0  0  0  0  0  0  0  0  0
   -4.2754   -0.1977   -0.9182 C   0  0  0  0  0  0  0  0  0  0  0  0
   -3.4693    1.5339    0.7029 C   0  0  0  0  0  0  0  0  0  0  0  0
    0.4639    0.6901   -1.3264 C   0  0  0  0  0  0  0  0  0  0  0  0
    0.2516    0.9943   -2.6767 C   0  0  0  0  0  0  0  0  0  0  0  0
    1.3073    0.9707   -3.5953 C   0  0  0  0  0  0  0  0  0  0  0  0
    2.5756    0.6466   -3.1025 C   0  0  0  0  0  0  0  0  0  0  0  0
    3.7866    0.5343   -3.7266 N   0  0  0  0  0  0  0  0  0  0  0  0
    4.7972    0.1895   -2.9175 N   0  0  0  0  0  0  0  0  0  0  0  0
    4.2386    0.1093   -1.6974 C   0  0  0  0  0  0  0  0  0  0  0  0
    5.0524   -0.2198   -0.5256 C   0  0  0  0  0  0  0  0  0  0  0  0
    6.0784   -1.1693   -0.6285 C   0  0  0  0  0  0  0  0  0  0  0  0
    6.8633   -1.4967    0.4815 C   0  0  0  0  0  0  0  0  0  0  0  0
    6.6463   -0.8695    1.7166 C   0  0  0  0  0  0  0  0  0  0  0  0
    7.4778   -1.2364    2.9212 C   0  0  0  0  0  0  0  0  0  0  0  0
    8.7403   -1.6361    2.5998 F   0  0  0  0  0  0  0  0  0  0  0  0
    7.6288   -0.2073    3.8015 F   0  0  0  0  0  0  0  0  0  0  0  0
    6.9324   -2.2604    3.6339 F   0  0  0  0  0  0  0  0  0  0  0  0
    5.6218    0.0833    1.8189 C   0  0  0  0  0  0  0  0  0  0  0  0
    4.8377    0.4097    0.7069 C   0  0  0  0  0  0  0  0  0  0  0  0
    2.8307    0.3660   -1.7644 C   0  0  0  0  0  0  0  0  0  0  0  0
    1.7522    0.3829   -0.8572 C   0  0  0  0  0  0  0  0  0  0  0  0
   -1.9042   -0.1292   -1.7192 H   0  0  0  0  0  0  0  0  0  0  0  0
   -2.1027   -0.6684    1.7592 H   0  0  0  0  0  0  0  0  0  0  0  0
   -2.6685   -1.8576    0.5990 H   0  0  0  0  0  0  0  0  0  0  0  0
   -4.0883   -1.8429    2.6513 H   0  0  0  0  0  0  0  0  0  0  0  0
   -3.7538    0.5566    3.2621 H   0  0  0  0  0  0  0  0  0  0  0  0
   -5.4696    0.1638    3.1811 H   0  0  0  0  0  0  0  0  0  0  0  0
   -5.0094    2.3183    2.0131 H   0  0  0  0  0  0  0  0  0  0  0  0
   -6.0745    1.7496   -0.1710 H   0  0  0  0  0  0  0  0  0  0  0  0
   -6.8437    0.8684    1.1469 H   0  0  0  0  0  0  0  0  0  0  0  0
   -6.3922   -0.6471   -0.7847 H   0  0  0  0  0  0  0  0  0  0  0  0
   -6.2976   -1.5942    1.5231 H   0  0  0  0  0  0  0  0  0  0  0  0
   -5.1510   -2.4135    0.4653 H   0  0  0  0  0  0  0  0  0  0  0  0
   -4.4166    0.5615   -1.6991 H   0  0  0  0  0  0  0  0  0  0  0  0
   -4.0456   -1.1355   -1.4417 H   0  0  0  0  0  0  0  0  0  0  0  0
   -2.6699    1.8687    1.3735 H   0  0  0  0  0  0  0  0  0  0  0  0
   -3.5953    2.3280   -0.0447 H   0  0  0  0  0  0  0  0  0  0  0  0
   -0.7366    1.2798   -3.0301 H   0  0  0  0  0  0  0  0  0  0  0  0
    1.1438    1.2055   -4.6425 H   0  0  0  0  0  0  0  0  0  0  0  0
    3.9893    0.6733   -4.7098 H   0  0  0  0  0  0  0  0  0  0  0  0
    6.2701   -1.6610   -1.5809 H   0  0  0  0  0  0  0  0  0  0  0  0
    7.6501   -2.2420    0.3737 H   0  0  0  0  0  0  0  0  0  0  0  0
    5.4329    0.5853    2.7672 H   0  0  0  0  0  0  0  0  0  0  0  0
    4.0713    1.1741    0.8150 H   0  0  0  0  0  0  0  0  0  0  0  0
    1.9057    0.1524    0.1940 H   0  0  0  0  0  0  0  0  0  0  0  0
  1  2  2  0
  2  3  1  0
  4  3  1  6
  4  5  1  0
  5  6  1  0
  6  7  1  0
  7  8  1  0
  8  9  1  0
  9 10  1  0
 10 11  1  0
 10 12  1  0
  8 13  1  0
  2 14  1  0
 14 15  2  0
 15 16  1  0
 16 17  2  0
 17 18  1  0
 18 19  1  0
 19 20  2  0
 20 21  1  0
 21 22  1  0
 22 23  2  0
 23 24  1  0
 24 25  1  0
 25 26  1  0
 25 27  1  0
 25 28  1  0
 24 29  2  0
 29 30  1  0
 20 31  1  0
 31 32  2  0
 12  4  1  0
 32 14  1  0
 13  4  1  0
 31 17  1  0
 11  6  1  0
 30 21  2  0
  3 33  1  0
  5 34  1  0
  5 35  1  0
  6 36  1  1
  7 37  1  0
  7 38  1  0
  8 39  1  1
  9 40  1  0
  9 41  1  0
 10 42  1  6
 11 43  1  0
 11 44  1  0
 12 45  1  0
 12 46  1  0
 13 47  1  0
 13 48  1  0
 15 49  1  0
 16 50  1  0
 18 51  1  0
 22 52  1  0
 23 53  1  0
 29 54  1  0
 30 55  1  0
 32 56  1  0
M  END
>  <_SMILES>  (167) 
O=C(N[C@]12C[C@H]3C[C@H](C[C@H](C3)C1)C2)c1ccc2[nH]nc(-c3ccc(C(F)(F)F)cc3)c2c1

$$$$

     RDKit          3D

 56 61  0  0  0  0  0  0  0  0999 V2000
   -0.5985   -0.8740   -0.8779 O   0  0  0  0  0  0  0  0  0  0  0  0
   -0.7067    0.3380   -0.7449 C   0  0  0  0  0  0  0  0  0  0  0  0
   -1.8342    0.9837   -0.2801 N   0  0  0  0  0  0  0  0  0  0  0  0
   -3.0536    0.3012    0.1688 C   0  0  2  0  0  0  0  0  0  0  0  0
   -4.0949    1.3802    0.5736 C   0  0  0  0  0  0  0  0  0  0  0  0
   -5.3999    0.7325    1.0629 C   0  0  1  0  0  0  0  0  0  0  0  0
   -5.9882   -0.1292   -0.0647 C   0  0  0  0  0  0  0  0  0  0  0  0
   -4.9849   -1.2211   -0.4671 C   0  0  2  0  0  0  0  0  0  0  0  0
   -4.6777   -2.1040    0.7546 C   0  0  0  0  0  0  0  0  0  0  0  0
   -4.0878   -1.2504    1.8903 C   0  0  2  0  0  0  0  0  0  0  0  0
   -5.0961   -0.1573    2.2785 C   0  0  0  0  0  0  0  0  0  0  0  0
   -2.7845   -0.5914    1.4051 C   0  0  0  0  0  0  0  0  0  0  0  0
   -3.6825   -0.5616   -0.9549 C   0  0  0  0  0  0  0  0  0  0  0  0
    0.4569    1.2166   -1.0575 C   0  0  0  0  0  0  0  0  0  0  0  0
    0.2399    2.5197   -1.6218 C   0  0  0  0  0  0  0  0  0  0  0  0
    1.2865    3.4141   -1.9436 C   0  0  0  0  0  0  0  0  0  0  0  0
    2.5705    2.9105   -1.6765 C   0  0  0  0  0  0  0  0  0  0  0  0
    3.7692    3.4847   -1.8530 N   0  0  0  0  0  0  0  0  0  0  0  0
    4.6544    2.5564   -1.4449 N   0  0  0  0  0  0  0  0  0  0  0  0
    4.1040    1.3832   -0.9872 C   0  0  0  0  0  0  0  0  0  0  0  0
    4.9146    0.2648   -0.5226 C   0  0  0  0  0  0  0  0  0  0  0  0
    4.7405   -1.0131   -1.0660 C   0  0  0  0  0  0  0  0  0  0  0  0
    5.5225   -2.0859   -0.6271 C   0  0  0  0  0  0  0  0  0  0  0  0
    6.4909   -1.9014    0.3699 C   0  0  0  0  0  0  0  0  0  0  0  0
    7.3513   -3.0530    0.8309 C   0  0  0  0  0  0  0  0  0  0  0  0
    6.7425   -4.2646    0.7032 F   0  0  0  0  0  0  0  0  0  0  0  0
    7.7140   -2.9556    2.1406 F   0  0  0  0  0  0  0  0  0  0  0  0
    8.5137   -3.1414    0.1274 F   0  0  0  0  0  0  0  0  0  0  0  0
    6.6701   -0.6180    0.9069 C   0  0  0  0  0  0  0  0  0  0  0  0
    5.8875    0.4540    0.4664 C   0  0  0  0  0  0  0  0  0  0  0  0
    2.7504    1.5857   -1.1290 C   0  0  0  0  0  0  0  0  0  0  0  0
    1.7408    0.6848   -0.7935 C   0  0  0  0  0  0  0  0  0  0  0  0
   -1.7211    1.9448    0.0145 H   0  0  0  0  0  0  0  0  0  0  0  0
   -4.3048    2.0402   -0.2788 H   0  0  0  0  0  0  0  0  0  0  0  0
   -3.6846    2.0230    1.3641 H   0  0  0  0  0  0  0  0  0  0  0  0
   -6.1168    1.5116    1.3451 H   0  0  0  0  0  0  0  0  0  0  0  0
   -6.2266    0.4989   -0.9318 H   0  0  0  0  0  0  0  0  0  0  0  0
   -6.9288   -0.5872    0.2649 H   0  0  0  0  0  0  0  0  0  0  0  0
   -5.4099   -1.8350   -1.2691 H   0  0  0  0  0  0  0  0  0  0  0  0
   -3.9724   -2.8967    0.4765 H   0  0  0  0  0  0  0  0  0  0  0  0
   -5.5945   -2.5995    1.0973 H   0  0  0  0  0  0  0  0  0  0  0  0
   -3.8788   -1.8848    2.7589 H   0  0  0  0  0  0  0  0  0  0  0  0
   -6.0217   -0.6154    2.6483 H   0  0  0  0  0  0  0  0  0  0  0  0
   -4.6928    0.4510    3.0974 H   0  0  0  0  0  0  0  0  0  0  0  0
   -2.0529   -1.3738    1.1704 H   0  0  0  0  0  0  0  0  0  0  0  0
   -2.3449    0.0068    2.2140 H   0  0  0  0  0  0  0  0  0  0  0  0
   -3.8851    0.0587   -1.8379 H   0  0  0  0  0  0  0  0  0  0  0  0
   -2.9919   -1.3463   -1.2838 H   0  0  0  0  0  0  0  0  0  0  0  0
   -0.7779    2.8404   -1.8435 H   0  0  0  0  0  0  0  0  0  0  0  0
    1.1220    4.3944   -2.3692 H   0  0  0  0  0  0  0  0  0  0  0  0
    5.6409    2.7790   -1.5164 H   0  0  0  0  0  0  0  0  0  0  0  0
    3.9983   -1.1850   -1.8440 H   0  0  0  0  0  0  0  0  0  0  0  0
    5.3686   -3.0701   -1.0683 H   0  0  0  0  0  0  0  0  0  0  0  0
    7.4184   -0.4488    1.6806 H   0  0  0  0  0  0  0  0  0  0  0  0
    6.0350    1.4325    0.9191 H   0  0  0  0  0  0  0  0  0  0  0  0
    1.8917   -0.3019   -0.3750 H   0  0  0  0  0  0  0  0  0  0  0  0
  1  2  2  0
  2  3  1  0
  4  3  1  6
  4  5  1  0
  5  6  1  0
  6  7  1  0
  7  8  1  0
  8  9  1  0
  9 10  1  0
 10 11  1  0
 10 12  1  0
  8 13  1  0
  2 14  1  0
 14 15  1  0
 15 16  2  0
 16 17  1  0
 17 18  2  0
 18 19  1  0
 19 20  1  0
 20 21  1  0
 21 22  1  0
 22 23  2  0
 23 24  1  0
 24 25  1  0
 25 26  1  0
 25 27  1  0
 25 28  1  0
 24 29  2  0
 29 30  1  0
 20 31  2  0
 31 32  1  0
 12  4  1  0
 32 14  2  0
 13  4  1  0
 31 17  1  0
 11  6  1  0
 30 21  2  0
  3 33  1  0
  5 34  1  0
  5 35  1  0
  6 36  1  1
  7 37  1  0
  7 38  1  0
  8 39  1  6
  9 40  1  0
  9 41  1  0
 10 42  1  1
 11 43  1  0
 11 44  1  0
 12 45  1  0
 12 46  1  0
 13 47  1  0
 13 48  1  0
 15 49  1  0
 16 50  1  0
 19 51  1  0
 22 52  1  0
 23 53  1  0
 29 54  1  0
 30 55  1  0
 32 56  1  0
M  END
>  <_SMILES>  (168) 
O=C(N[C@]12C[C@H]3C[C@H](C[C@H](C3)C1)C2)c1ccc2n[nH]c(-c3ccc(C(F)(F)F)cc3)c2c1

$$$$

     RDKit          3D

 55 60  0  0  0  0  0  0  0  0999 V2000
    9.1202   -1.2096   -1.0902 C   0  0  0  0  0  0  0  0  0  0  0  0
    8.3719   -2.0689   -0.2942 C   0  0  0  0  0  0  0  0  0  0  0  0
    7.0434   -1.7586   -0.0136 C   0  0  0  0  0  0  0  0  0  0  0  0
    6.5103   -0.5912   -0.5444 C   0  0  0  0  0  0  0  0  0  0  0  0
    5.1330   -0.1681   -0.3147 C   0  0  0  0  0  0  0  0  0  0  0  0
    4.0750   -0.7325    0.3756 C   0  0  0  0  0  0  0  0  0  0  0  0
    2.9521    0.1352    0.2636 C   0  0  0  0  0  0  0  0  0  0  0  0
    1.6289    0.0917    0.7445 C   0  0  0  0  0  0  0  0  0  0  0  0
    0.7449    1.1475    0.4481 C   0  0  0  0  0  0  0  0  0  0  0  0
   -0.6859    1.0762    0.9020 C   0  0  0  0  0  0  0  0  0  0  0  0
   -1.5108    0.3736   -0.1271 N   0  0  0  0  0  0  0  0  0  0  0  0
   -2.9783    0.1794    0.1095 C   0  0  2  0  0  0  0  0  0  0  0  0
   -3.2251   -0.6752    1.3683 C   0  0  0  0  0  0  0  0  0  0  0  0
   -4.7378   -0.9089    1.5475 C   0  0  1  0  0  0  0  0  0  0  0  0
   -5.4474    0.4507    1.6834 C   0  0  0  0  0  0  0  0  0  0  0  0
   -5.2120    1.3023    0.4225 C   0  0  2  0  0  0  0  0  0  0  0  0
   -5.7606    0.5518   -0.8026 C   0  0  0  0  0  0  0  0  0  0  0  0
   -5.0523   -0.8050   -0.9511 C   0  0  2  0  0  0  0  0  0  0  0  0
   -5.2896   -1.6449    0.3150 C   0  0  0  0  0  0  0  0  0  0  0  0
   -3.5422   -0.5682   -1.1221 C   0  0  0  0  0  0  0  0  0  0  0  0
   -3.6991    1.5352    0.2436 C   0  0  0  0  0  0  0  0  0  0  0  0
    1.1875    2.2291   -0.3267 C   0  0  0  0  0  0  0  0  0  0  0  0
    2.4977    2.2892   -0.8117 C   0  0  0  0  0  0  0  0  0  0  0  0
    3.3511    1.2270   -0.5010 C   0  0  0  0  0  0  0  0  0  0  0  0
    4.6680    1.0204   -0.8339 N   0  0  0  0  0  0  0  0  0  0  0  0
    7.2200    0.2622   -1.3239 N   0  0  0  0  0  0  0  0  0  0  0  0
    8.5066   -0.0676   -1.5768 C   0  0  0  0  0  0  0  0  0  0  0  0
   10.1572   -1.4241   -1.3249 H   0  0  0  0  0  0  0  0  0  0  0  0
    8.8205   -2.9739    0.1066 H   0  0  0  0  0  0  0  0  0  0  0  0
    6.4527   -2.4207    0.6080 H   0  0  0  0  0  0  0  0  0  0  0  0
    4.1034   -1.6731    0.9098 H   0  0  0  0  0  0  0  0  0  0  0  0
    1.3184   -0.7584    1.3467 H   0  0  0  0  0  0  0  0  0  0  0  0
   -0.7640    0.5230    1.8426 H   0  0  0  0  0  0  0  0  0  0  0  0
   -1.0956    2.0805    1.0444 H   0  0  0  0  0  0  0  0  0  0  0  0
   -1.0700   -0.5424   -0.2880 H   0  0  0  0  0  0  0  0  0  0  0  0
   -1.3747    0.8785   -1.0135 H   0  0  0  0  0  0  0  0  0  0  0  0
   -2.7060   -1.6388    1.2888 H   0  0  0  0  0  0  0  0  0  0  0  0
   -2.8384   -0.1764    2.2648 H   0  0  0  0  0  0  0  0  0  0  0  0
   -4.9143   -1.5097    2.4467 H   0  0  0  0  0  0  0  0  0  0  0  0
   -5.0742    0.9809    2.5682 H   0  0  0  0  0  0  0  0  0  0  0  0
   -6.5229    0.2971    1.8347 H   0  0  0  0  0  0  0  0  0  0  0  0
   -5.7239    2.2655    0.5258 H   0  0  0  0  0  0  0  0  0  0  0  0
   -5.6119    1.1534   -1.7077 H   0  0  0  0  0  0  0  0  0  0  0  0
   -6.8417    0.3998   -0.6953 H   0  0  0  0  0  0  0  0  0  0  0  0
   -5.4459   -1.3345   -1.8259 H   0  0  0  0  0  0  0  0  0  0  0  0
   -6.3623   -1.8355    0.4420 H   0  0  0  0  0  0  0  0  0  0  0  0
   -4.8022   -2.6223    0.2134 H   0  0  0  0  0  0  0  0  0  0  0  0
   -3.0320   -1.5315   -1.2532 H   0  0  0  0  0  0  0  0  0  0  0  0
   -3.3627    0.0104   -2.0378 H   0  0  0  0  0  0  0  0  0  0  0  0
   -3.3257    2.0957    1.1088 H   0  0  0  0  0  0  0  0  0  0  0  0
   -3.5201    2.1572   -0.6426 H   0  0  0  0  0  0  0  0  0  0  0  0
    0.5214    3.0586   -0.5624 H   0  0  0  0  0  0  0  0  0  0  0  0
    2.8409    3.1333   -1.4039 H   0  0  0  0  0  0  0  0  0  0  0  0
    5.2527    1.6381   -1.3835 H   0  0  0  0  0  0  0  0  0  0  0  0
    9.0520    0.6339   -2.2024 H   0  0  0  0  0  0  0  0  0  0  0  0
  1  2  2  0
  2  3  1  0
  3  4  2  0
  4  5  1  0
  5  6  2  0
  6  7  1  0
  7  8  2  0
  8  9  1  0
  9 10  1  0
 10 11  1  0
 12 11  1  6
 12 13  1  0
 13 14  1  0
 14 15  1  0
 15 16  1  0
 16 17  1  0
 17 18  1  0
 18 19  1  0
 18 20  1  0
 16 21  1  0
  9 22  2  0
 22 23  1  0
 23 24  2  0
 24 25  1  0
  4 26  1  0
 26 27  2  0
 27  1  1  0
 25  5  1  0
 24  7  1  0
 20 12  1  0
 21 12  1  0
 19 14  1  0
  1 28  1  0
  2 29  1  0
  3 30  1  0
  6 31  1  0
  8 32  1  0
 10 33  1  0
 10 34  1  0
 11 35  1  0
 11 36  1  0
 13 37  1  0
 13 38  1  0
 14 39  1  1
 15 40  1  0
 15 41  1  0
 16 42  1  1
 17 43  1  0
 17 44  1  0
 18 45  1  6
 19 46  1  0
 19 47  1  0
 20 48  1  0
 20 49  1  0
 21 50  1  0
 21 51  1  0
 22 52  1  0
 23 53  1  0
 25 54  1  0
 27 55  1  0
M  CHG  1  11   1
M  END
>  <_SMILES>  (169) 
c1ccc(-c2cc3cc(C[NH2+][C@]45C[C@H]6C[C@H](C[C@H](C6)C4)C5)ccc3[nH]2)nc1

$$$$

     RDKit          3D

 63 68  0  0  0  0  0  0  0  0999 V2000
    9.4458    2.3615    0.5945 C   0  0  0  0  0  0  0  0  0  0  0  0
    8.6615    1.3175    1.3741 C   0  0  0  0  0  0  0  0  0  0  0  0
    8.7822   -0.0960    0.7967 C   0  0  0  0  0  0  0  0  0  0  0  0
    8.2343   -0.2705   -0.6206 C   0  0  0  0  0  0  0  0  0  0  0  0
    6.8058   -0.0421   -0.7213 N   0  0  0  0  0  0  0  0  0  0  0  0
    5.8151   -0.9227   -0.3887 C   0  0  0  0  0  0  0  0  0  0  0  0
    4.6336   -0.2790   -0.6638 C   0  0  0  0  0  0  0  0  0  0  0  0
    3.2164   -0.8532   -0.4520 C   0  0  0  0  0  0  0  0  0  0  0  0
    2.8865   -2.0948    0.0429 C   0  0  0  0  0  0  0  0  0  0  0  0
    1.4670   -2.1911    0.0621 C   0  0  0  0  0  0  0  0  0  0  0  0
    0.5617   -3.2001    0.4420 C   0  0  0  0  0  0  0  0  0  0  0  0
   -0.8142   -2.9638    0.3294 C   0  0  0  0  0  0  0  0  0  0  0  0
   -1.2944   -1.7379   -0.1425 C   0  0  0  0  0  0  0  0  0  0  0  0
   -2.7699   -1.5495   -0.2344 C   0  0  0  0  0  0  0  0  0  0  0  0
   -3.4917   -2.5140   -0.4526 O   0  0  0  0  0  0  0  0  0  0  0  0
   -3.2220   -0.2622   -0.0206 N   0  0  0  0  0  0  0  0  0  0  0  0
   -4.6379    0.1209    0.0266 C   0  0  2  0  0  0  0  0  0  0  0  0
   -4.7192    1.6564    0.2460 C   0  0  0  0  0  0  0  0  0  0  0  0
   -6.1802    2.1285    0.3134 C   0  0  1  0  0  0  0  0  0  0  0  0
   -6.8846    1.7760   -1.0056 C   0  0  0  0  0  0  0  0  0  0  0  0
   -6.8388    0.2574   -1.2340 C   0  0  2  0  0  0  0  0  0  0  0  0
   -7.5409   -0.4537   -0.0644 C   0  0  0  0  0  0  0  0  0  0  0  0
   -6.8430   -0.1074    1.2620 C   0  0  2  0  0  0  0  0  0  0  0  0
   -6.8876    1.4140    1.4756 C   0  0  0  0  0  0  0  0  0  0  0  0
   -5.3764   -0.5696    1.1993 C   0  0  0  0  0  0  0  0  0  0  0  0
   -5.3719   -0.2041   -1.2994 C   0  0  0  0  0  0  0  0  0  0  0  0
   -0.4073   -0.7243   -0.5423 C   0  0  0  0  0  0  0  0  0  0  0  0
    0.9656   -0.9830   -0.4236 C   0  0  0  0  0  0  0  0  0  0  0  0
    2.0505   -0.1939   -0.7364 N   0  0  0  0  0  0  0  0  0  0  0  0
    5.0154    0.9785   -1.1664 C   0  0  0  0  0  0  0  0  0  0  0  0
    6.3428    1.1267   -1.2079 N   0  0  0  0  0  0  0  0  0  0  0  0
    9.0365    2.5061   -0.4093 H   0  0  0  0  0  0  0  0  0  0  0  0
   10.4979    2.0743    0.5019 H   0  0  0  0  0  0  0  0  0  0  0  0
    9.4026    3.3258    1.1111 H   0  0  0  0  0  0  0  0  0  0  0  0
    7.6095    1.6179    1.4333 H   0  0  0  0  0  0  0  0  0  0  0  0
    9.0373    1.3005    2.4044 H   0  0  0  0  0  0  0  0  0  0  0  0
    8.2645   -0.7881    1.4729 H   0  0  0  0  0  0  0  0  0  0  0  0
    9.8387   -0.3914    0.7998 H   0  0  0  0  0  0  0  0  0  0  0  0
    8.4111   -1.2987   -0.9584 H   0  0  0  0  0  0  0  0  0  0  0  0
    8.7374    0.3898   -1.3349 H   0  0  0  0  0  0  0  0  0  0  0  0
    6.0352   -1.9032    0.0076 H   0  0  0  0  0  0  0  0  0  0  0  0
    3.5826   -2.8610    0.3565 H   0  0  0  0  0  0  0  0  0  0  0  0
    0.9220   -4.1551    0.8137 H   0  0  0  0  0  0  0  0  0  0  0  0
   -1.5141   -3.7470    0.6161 H   0  0  0  0  0  0  0  0  0  0  0  0
   -2.5663    0.3823    0.4004 H   0  0  0  0  0  0  0  0  0  0  0  0
   -4.1963    2.1814   -0.5647 H   0  0  0  0  0  0  0  0  0  0  0  0
   -4.2004    1.9332    1.1737 H   0  0  0  0  0  0  0  0  0  0  0  0
   -6.2121    3.2123    0.4714 H   0  0  0  0  0  0  0  0  0  0  0  0
   -7.9258    2.1200   -0.9783 H   0  0  0  0  0  0  0  0  0  0  0  0
   -6.3993    2.2957   -1.8409 H   0  0  0  0  0  0  0  0  0  0  0  0
   -7.3451    0.0104   -2.1739 H   0  0  0  0  0  0  0  0  0  0  0  0
   -8.5946   -0.1517   -0.0220 H   0  0  0  0  0  0  0  0  0  0  0  0
   -7.5271   -1.5390   -0.2229 H   0  0  0  0  0  0  0  0  0  0  0  0
   -7.3531   -0.6114    2.0905 H   0  0  0  0  0  0  0  0  0  0  0  0
   -7.9288    1.7523    1.5453 H   0  0  0  0  0  0  0  0  0  0  0  0
   -6.4044    1.6736    2.4255 H   0  0  0  0  0  0  0  0  0  0  0  0
   -4.8726   -0.3430    2.1482 H   0  0  0  0  0  0  0  0  0  0  0  0
   -5.3486   -1.6604    1.0906 H   0  0  0  0  0  0  0  0  0  0  0  0
   -5.3501   -1.2793   -1.5100 H   0  0  0  0  0  0  0  0  0  0  0  0
   -4.8634    0.2838   -2.1413 H   0  0  0  0  0  0  0  0  0  0  0  0
   -0.7619    0.2132   -0.9562 H   0  0  0  0  0  0  0  0  0  0  0  0
    1.9913    0.7377   -1.1206 H   0  0  0  0  0  0  0  0  0  0  0  0
    4.3930    1.7946   -1.5062 H   0  0  0  0  0  0  0  0  0  0  0  0
  1  2  1  0
  2  3  1  0
  3  4  1  0
  4  5  1  0
  5  6  1  0
  6  7  2  0
  7  8  1  0
  8  9  2  0
  9 10  1  0
 10 11  2  0
 11 12  1  0
 12 13  2  0
 13 14  1  0
 14 15  2  0
 14 16  1  0
 17 16  1  6
 17 18  1  0
 18 19  1  0
 19 20  1  0
 20 21  1  0
 21 22  1  0
 22 23  1  0
 23 24  1  0
 23 25  1  0
 21 26  1  0
 13 27  1  0
 27 28  2  0
 28 29  1  0
  7 30  1  0
 30 31  2  0
 31  5  1  0
 29  8  1  0
 28 10  1  0
 25 17  1  0
 26 17  1  0
 24 19  1  0
  1 32  1  0
  1 33  1  0
  1 34  1  0
  2 35  1  0
  2 36  1  0
  3 37  1  0
  3 38  1  0
  4 39  1  0
  4 40  1  0
  6 41  1  0
  9 42  1  0
 11 43  1  0
 12 44  1  0
 16 45  1  0
 18 46  1  0
 18 47  1  0
 19 48  1  1
 20 49  1  0
 20 50  1  0
 21 51  1  6
 22 52  1  0
 22 53  1  0
 23 54  1  1
 24 55  1  0
 24 56  1  0
 25 57  1  0
 25 58  1  0
 26 59  1  0
 26 60  1  0
 27 61  1  0
 29 62  1  0
 30 63  1  0
M  END
>  <_SMILES>  (170) 
CCCCn1cc(-c2cc3ccc(C(=O)N[C@]45C[C@H]6C[C@H](C[C@H](C6)C4)C5)cc3[nH]2)cn1

$$$$
