
     RDKit          3D

 50 54  0  0  0  0  0  0  0  0999 V2000
   10.7340   -2.0890  -53.6980 C   0  0  0  0  0  0  0  0  0  0  0  0
    9.5520   -1.3080  -53.9860 N   0  0  0  0  0  0  0  0  0  0  0  0
    9.6280   -0.3380  -54.9220 N   0  0  0  0  0  0  0  0  0  0  0  0
    8.3700    0.1420  -55.0000 C   0  0  0  0  0  0  0  0  0  0  0  0
    8.0040    1.2240  -55.9300 C   0  0  0  0  0  0  0  0  0  0  0  0
    6.8500    1.6140  -56.0670 O   0  0  0  0  0  0  0  0  0  0  0  0
    9.0900    1.7300  -56.6090 N   0  0  0  0  0  0  0  0  0  0  0  0
    9.0680    2.8030  -57.5970 C   0  0  2  0  0  0  0  0  0  0  0  0
    7.9530    2.5870  -58.6490 C   0  0  0  0  0  0  0  0  0  0  0  0
    7.9800    3.7060  -59.7050 C   0  0  1  0  0  0  0  0  0  0  0  0
    7.7780    5.0620  -59.0110 C   0  0  0  0  0  0  0  0  0  0  0  0
    8.9010    5.3050  -57.9870 C   0  0  2  0  0  0  0  0  0  0  0  0
   10.2570    5.2890  -58.7090 C   0  0  0  0  0  0  0  0  0  0  0  0
   10.4690    3.9320  -59.3980 C   0  0  2  0  0  0  0  0  0  0  0  0
    9.3420    3.6980  -60.4170 C   0  0  0  0  0  0  0  0  0  0  0  0
   10.4300    2.8170  -58.3400 C   0  0  0  0  0  0  0  0  0  0  0  0
    8.8730    4.1880  -56.9310 C   0  0  0  0  0  0  0  0  0  0  0  0
    7.5150   -0.5280  -54.0920 C   0  0  0  0  0  0  0  0  0  0  0  0
    8.3030   -1.4460  -53.4270 C   0  0  0  0  0  0  0  0  0  0  0  0
    7.9460   -2.3990  -52.3820 C   0  0  0  0  0  0  0  0  0  0  0  0
    8.0590   -2.0560  -51.0290 C   0  0  0  0  0  0  0  0  0  0  0  0
    7.7140   -2.9760  -50.0360 C   0  0  0  0  0  0  0  0  0  0  0  0
    7.2470   -4.2410  -50.3890 C   0  0  0  0  0  0  0  0  0  0  0  0
    7.1200   -4.5860  -51.7340 C   0  0  0  0  0  0  0  0  0  0  0  0
    7.4650   -3.6680  -52.7260 C   0  0  0  0  0  0  0  0  0  0  0  0
   10.8614   -2.1732  -52.6087 H   0  0  0  0  0  0  0  0  0  0  0  0
   10.6248   -3.0934  -54.1331 H   0  0  0  0  0  0  0  0  0  0  0  0
   11.6151   -1.5947  -54.1331 H   0  0  0  0  0  0  0  0  0  0  0  0
    9.9710    1.2810  -56.3630 H   0  0  0  0  0  0  0  0  0  0  0  0
    8.1074    1.6177  -59.1455 H   0  0  0  0  0  0  0  0  0  0  0  0
    6.9778    2.6031  -58.1403 H   0  0  0  0  0  0  0  0  0  0  0  0
    7.1775    3.5426  -60.4394 H   0  0  0  0  0  0  0  0  0  0  0  0
    7.7940    5.8626  -59.7652 H   0  0  0  0  0  0  0  0  0  0  0  0
    6.8097    5.0584  -58.4891 H   0  0  0  0  0  0  0  0  0  0  0  0
    8.7542    6.2796  -57.4986 H   0  0  0  0  0  0  0  0  0  0  0  0
   10.2770    6.0883  -59.4645 H   0  0  0  0  0  0  0  0  0  0  0  0
   11.0595    5.4504  -57.9742 H   0  0  0  0  0  0  0  0  0  0  0  0
   11.4416    3.9258  -59.9119 H   0  0  0  0  0  0  0  0  0  0  0  0
    9.3626    4.4969  -61.1729 H   0  0  0  0  0  0  0  0  0  0  0  0
    9.4904    2.7218  -60.9019 H   0  0  0  0  0  0  0  0  0  0  0  0
   10.5798    1.8461  -58.8349 H   0  0  0  0  0  0  0  0  0  0  0  0
   11.2279    3.0024  -57.6058 H   0  0  0  0  0  0  0  0  0  0  0  0
    9.6816    4.3569  -56.2046 H   0  0  0  0  0  0  0  0  0  0  0  0
    7.8968    4.2035  -56.4242 H   0  0  0  0  0  0  0  0  0  0  0  0
    6.4390   -0.3524  -53.9458 H   0  0  0  0  0  0  0  0  0  0  0  0
    8.4214   -1.0566  -50.7466 H   0  0  0  0  0  0  0  0  0  0  0  0
    7.8109   -2.7020  -48.9751 H   0  0  0  0  0  0  0  0  0  0  0  0
    6.9788   -4.9666  -49.6070 H   0  0  0  0  0  0  0  0  0  0  0  0
    6.7475   -5.5827  -52.0130 H   0  0  0  0  0  0  0  0  0  0  0  0
    7.3584   -3.9430  -53.7857 H   0  0  0  0  0  0  0  0  0  0  0  0
  1  2  1  0
  2  3  1  0
  3  4  2  0
  4  5  1  0
  5  6  2  0
  5  7  1  0
  8  7  1  1
  8  9  1  0
  9 10  1  0
 10 11  1  0
 11 12  1  0
 12 13  1  0
 13 14  1  0
 14 15  1  0
 14 16  1  0
 12 17  1  0
  4 18  1  0
 18 19  2  0
 19 20  1  0
 20 21  2  0
 21 22  1  0
 22 23  2  0
 23 24  1  0
 24 25  2  0
 19  2  1  0
 25 20  1  0
 16  8  1  0
 17  8  1  0
 15 10  1  0
  1 26  1  0
  1 27  1  0
  1 28  1  0
  7 29  1  0
  9 30  1  0
  9 31  1  0
 10 32  1  6
 11 33  1  0
 11 34  1  0
 12 35  1  1
 13 36  1  0
 13 37  1  0
 14 38  1  6
 15 39  1  0
 15 40  1  0
 16 41  1  0
 16 42  1  0
 17 43  1  0
 17 44  1  0
 18 45  1  0
 21 46  1  0
 22 47  1  0
 23 48  1  0
 24 49  1  0
 25 50  1  0
M  END
>  <meeko>  (1) 
{"is_sidechain": false}

$$$$

     RDKit          3D

 63 68  0  0  0  0  0  0  0  0999 V2000
    5.5680   -0.3190  -53.5320 O   0  0  0  0  0  0  0  0  0  0  0  0
    6.6840   -0.2890  -54.0410 C   0  0  0  0  0  0  0  0  0  0  0  0
    7.7360   -1.0710  -53.5850 N   0  0  0  0  0  0  0  0  0  0  0  0
    7.6340   -2.0580  -52.5050 C   0  0  2  0  0  0  0  0  0  0  0  0
    8.9640   -2.8600  -52.4530 C   0  0  0  0  0  0  0  0  0  0  0  0
    8.9270   -3.9230  -51.3440 C   0  0  1  0  0  0  0  0  0  0  0  0
    8.7110   -3.2300  -49.9900 C   0  0  0  0  0  0  0  0  0  0  0  0
    7.3880   -2.4490  -50.0070 C   0  0  2  0  0  0  0  0  0  0  0  0
    6.2290   -3.4210  -50.2840 C   0  0  0  0  0  0  0  0  0  0  0  0
    6.4350   -4.1200  -51.6380 C   0  0  2  0  0  0  0  0  0  0  0  0
    7.7650   -4.8910  -51.6120 C   0  0  0  0  0  0  0  0  0  0  0  0
    6.4820   -3.0620  -52.7550 C   0  0  0  0  0  0  0  0  0  0  0  0
    7.4370   -1.3880  -51.1210 C   0  0  0  0  0  0  0  0  0  0  0  0
    7.0170    0.5690  -55.2000 C   0  0  0  0  0  0  0  0  0  0  0  0
    8.2480    1.2140  -55.5010 C   0  0  0  0  0  0  0  0  0  0  0  0
    8.0490    1.9080  -56.6770 C   0  0  0  0  0  0  0  0  0  0  0  0
    8.9700    2.7560  -57.4200 C   0  0  0  0  0  0  0  0  0  0  0  0
    9.0840    4.1140  -57.1060 C   0  0  0  0  0  0  0  0  0  0  0  0
    9.9700    4.9260  -57.8160 C   0  0  0  0  0  0  0  0  0  0  0  0
   10.7400    4.3870  -58.8450 C   0  0  0  0  0  0  0  0  0  0  0  0
   10.6260    3.0360  -59.1670 C   0  0  0  0  0  0  0  0  0  0  0  0
    9.7420    2.2200  -58.4580 C   0  0  0  0  0  0  0  0  0  0  0  0
    6.7470    1.6410  -57.0330 N   0  0  0  0  0  0  0  0  0  0  0  0
    6.0300    2.1070  -58.2180 C   0  0  0  0  0  0  0  0  0  0  0  0
    4.5320    2.2880  -57.9310 C   0  0  0  0  0  0  0  0  0  0  0  0
    3.7830    2.7820  -59.1670 C   0  0  0  0  0  0  0  0  0  0  0  0
    4.0170    1.8720  -60.3690 C   0  0  0  0  0  0  0  0  0  0  0  0
    5.5040    1.6900  -60.6580 C   0  0  0  0  0  0  0  0  0  0  0  0
    6.2600    1.1870  -59.4290 C   0  0  0  0  0  0  0  0  0  0  0  0
    6.1090    0.8500  -56.1500 N   0  0  0  0  0  0  0  0  0  0  0  0
    8.5470   -1.1320  -54.1820 H   0  0  0  0  0  0  0  0  0  0  0  0
    9.1218   -3.3569  -53.4216 H   0  0  0  0  0  0  0  0  0  0  0  0
    9.7853   -2.1604  -52.2386 H   0  0  0  0  0  0  0  0  0  0  0  0
    9.8755   -4.4799  -51.3279 H   0  0  0  0  0  0  0  0  0  0  0  0
    8.6767   -3.9881  -49.1937 H   0  0  0  0  0  0  0  0  0  0  0  0
    9.5408   -2.5323  -49.8040 H   0  0  0  0  0  0  0  0  0  0  0  0
    7.2363   -1.9577  -49.0346 H   0  0  0  0  0  0  0  0  0  0  0  0
    6.1907   -4.1776  -49.4865 H   0  0  0  0  0  0  0  0  0  0  0  0
    5.2854   -2.8563  -50.3112 H   0  0  0  0  0  0  0  0  0  0  0  0
    5.6054   -4.8177  -51.8251 H   0  0  0  0  0  0  0  0  0  0  0  0
    7.7312   -5.6492  -50.8158 H   0  0  0  0  0  0  0  0  0  0  0  0
    7.9187   -5.3796  -52.5855 H   0  0  0  0  0  0  0  0  0  0  0  0
    6.6420   -3.5629  -53.7212 H   0  0  0  0  0  0  0  0  0  0  0  0
    5.5286   -2.5133  -52.7648 H   0  0  0  0  0  0  0  0  0  0  0  0
    6.4931   -0.8232  -51.1240 H   0  0  0  0  0  0  0  0  0  0  0  0
    8.2842   -0.7128  -50.9303 H   0  0  0  0  0  0  0  0  0  0  0  0
    9.1761    1.1687  -54.9123 H   0  0  0  0  0  0  0  0  0  0  0  0
    8.4740    4.5433  -56.2976 H   0  0  0  0  0  0  0  0  0  0  0  0
   10.0606    5.9927  -57.5630 H   0  0  0  0  0  0  0  0  0  0  0  0
   11.4380    5.0282  -59.4032 H   0  0  0  0  0  0  0  0  0  0  0  0
   11.2330    2.6119  -59.9805 H   0  0  0  0  0  0  0  0  0  0  0  0
    9.6520    1.1543  -58.7154 H   0  0  0  0  0  0  0  0  0  0  0  0
    6.4434    3.0928  -58.4776 H   0  0  0  0  0  0  0  0  0  0  0  0
    4.1084    1.3223  -57.6181 H   0  0  0  0  0  0  0  0  0  0  0  0
    4.4205    3.0395  -57.1355 H   0  0  0  0  0  0  0  0  0  0  0  0
    2.7061    2.8088  -58.9443 H   0  0  0  0  0  0  0  0  0  0  0  0
    4.1585    3.7851  -59.4177 H   0  0  0  0  0  0  0  0  0  0  0  0
    3.5708    0.8878  -60.1633 H   0  0  0  0  0  0  0  0  0  0  0  0
    3.5514    2.3398  -61.2490 H   0  0  0  0  0  0  0  0  0  0  0  0
    5.6223    0.9606  -61.4728 H   0  0  0  0  0  0  0  0  0  0  0  0
    5.9209    2.6677  -60.9413 H   0  0  0  0  0  0  0  0  0  0  0  0
    5.9090    0.1742  -59.1817 H   0  0  0  0  0  0  0  0  0  0  0  0
    7.3352    1.1796  -59.6610 H   0  0  0  0  0  0  0  0  0  0  0  0
  1  2  2  0
  2  3  1  0
  4  3  1  6
  4  5  1  0
  5  6  1  0
  6  7  1  0
  7  8  1  0
  8  9  1  0
  9 10  1  0
 10 11  1  0
 10 12  1  0
  8 13  1  0
  2 14  1  0
 14 15  1  0
 15 16  2  0
 16 17  1  0
 17 18  2  0
 18 19  1  0
 19 20  2  0
 20 21  1  0
 21 22  2  0
 16 23  1  0
 23 24  1  0
 24 25  1  0
 25 26  1  0
 26 27  1  0
 27 28  1  0
 28 29  1  0
 23 30  1  0
 12  4  1  0
 30 14  2  0
 13  4  1  0
 22 17  1  0
 29 24  1  0
 11  6  1  0
  3 31  1  0
  5 32  1  0
  5 33  1  0
  6 34  1  1
  7 35  1  0
  7 36  1  0
  8 37  1  1
  9 38  1  0
  9 39  1  0
 10 40  1  6
 11 41  1  0
 11 42  1  0
 12 43  1  0
 12 44  1  0
 13 45  1  0
 13 46  1  0
 15 47  1  0
 18 48  1  0
 19 49  1  0
 20 50  1  0
 21 51  1  0
 22 52  1  0
 24 53  1  0
 25 54  1  0
 25 55  1  0
 26 56  1  0
 26 57  1  0
 27 58  1  0
 27 59  1  0
 28 60  1  0
 28 61  1  0
 29 62  1  0
 29 63  1  0
M  END
>  <meeko>  (2) 
{"is_sidechain": false}

$$$$

     RDKit          3D

 46 49  0  0  0  0  0  0  0  0999 V2000
    8.1600    0.2870  -52.7140 O   0  0  0  0  0  0  0  0  0  0  0  0
    8.3960   -0.1280  -53.8470 C   0  0  0  0  0  0  0  0  0  0  0  0
    9.0440   -1.3320  -54.0660 N   0  0  0  0  0  0  0  0  0  0  0  0
    9.6130   -2.0860  -52.9730 C   0  0  0  0  0  0  0  0  0  0  0  0
    8.5300   -2.7850  -52.1910 C   0  0  0  0  0  0  0  0  0  0  0  0
    7.6280   -3.6480  -52.8280 C   0  0  0  0  0  0  0  0  0  0  0  0
    6.6430   -4.3100  -52.0910 C   0  0  0  0  0  0  0  0  0  0  0  0
    6.5560   -4.1190  -50.7130 C   0  0  0  0  0  0  0  0  0  0  0  0
    7.4520   -3.2700  -50.0700 C   0  0  0  0  0  0  0  0  0  0  0  0
    8.4360   -2.6080  -50.8040 C   0  0  0  0  0  0  0  0  0  0  0  0
    8.0240    0.6130  -55.0710 C   0  0  0  0  0  0  0  0  0  0  0  0
    6.7820    0.6470  -55.7440 C   0  0  0  0  0  0  0  0  0  0  0  0
    6.9540    1.4530  -56.8540 C   0  0  0  0  0  0  0  0  0  0  0  0
    5.9930    1.6670  -57.9300 C   0  0  0  0  0  0  0  0  0  0  0  0
    6.2010    1.0960  -59.1920 C   0  0  0  0  0  0  0  0  0  0  0  0
    5.2670    1.2830  -60.2130 C   0  0  0  0  0  0  0  0  0  0  0  0
    4.1160    2.0330  -59.9760 C   0  0  0  0  0  0  0  0  0  0  0  0
    3.8930    2.5910  -58.7180 C   0  0  0  0  0  0  0  0  0  0  0  0
    4.8260    2.4040  -57.6960 C   0  0  0  0  0  0  0  0  0  0  0  0
    8.2550    1.9500  -56.7600 N   0  0  0  0  0  0  0  0  0  0  0  0
    8.9430    2.9340  -57.5430 C   0  0  0  0  0  0  0  0  0  0  0  0
    8.6570    4.2930  -57.3260 C   0  0  0  0  0  0  0  0  0  0  0  0
    9.3020    5.2870  -58.0660 C   0  0  0  0  0  0  0  0  0  0  0  0
   10.2330    4.9380  -59.0390 C   0  0  0  0  0  0  0  0  0  0  0  0
   10.5100    3.5940  -59.2780 C   0  0  0  0  0  0  0  0  0  0  0  0
    9.8660    2.5950  -58.5400 C   0  0  0  0  0  0  0  0  0  0  0  0
    8.9170    1.3700  -55.7230 N   0  0  0  0  0  0  0  0  0  0  0  0
    9.4010   -1.5290  -54.9880 H   0  0  0  0  0  0  0  0  0  0  0  0
   10.3100   -2.8359  -53.3752 H   0  0  0  0  0  0  0  0  0  0  0  0
   10.1442   -1.3939  -52.3030 H   0  0  0  0  0  0  0  0  0  0  0  0
    7.6960   -3.8050  -53.9146 H   0  0  0  0  0  0  0  0  0  0  0  0
    5.9356   -4.9824  -52.5985 H   0  0  0  0  0  0  0  0  0  0  0  0
    5.7791   -4.6393  -50.1337 H   0  0  0  0  0  0  0  0  0  0  0  0
    7.3840   -3.1210  -48.9823 H   0  0  0  0  0  0  0  0  0  0  0  0
    9.1441   -1.9414  -50.2900 H   0  0  0  0  0  0  0  0  0  0  0  0
    5.8577    0.1321  -55.4431 H   0  0  0  0  0  0  0  0  0  0  0  0
    7.1045    0.4973  -59.3797 H   0  0  0  0  0  0  0  0  0  0  0  0
    5.4394    0.8385  -61.2043 H   0  0  0  0  0  0  0  0  0  0  0  0
    3.3832    2.1846  -60.7822 H   0  0  0  0  0  0  0  0  0  0  0  0
    2.9822    3.1785  -58.5305 H   0  0  0  0  0  0  0  0  0  0  0  0
    4.6430    2.8380  -56.7019 H   0  0  0  0  0  0  0  0  0  0  0  0
    7.9162    4.5773  -56.5642 H   0  0  0  0  0  0  0  0  0  0  0  0
    9.0735    6.3467  -57.8791 H   0  0  0  0  0  0  0  0  0  0  0  0
   10.7479    5.7196  -59.6168 H   0  0  0  0  0  0  0  0  0  0  0  0
   11.2402    3.3161  -60.0524 H   0  0  0  0  0  0  0  0  0  0  0  0
   10.0861    1.5368  -58.7442 H   0  0  0  0  0  0  0  0  0  0  0  0
  1  2  2  0
  2  3  1  0
  3  4  1  0
  4  5  1  0
  5  6  2  0
  6  7  1  0
  7  8  2  0
  8  9  1  0
  9 10  2  0
  2 11  1  0
 11 12  1  0
 12 13  2  0
 13 14  1  0
 14 15  2  0
 15 16  1  0
 16 17  2  0
 17 18  1  0
 18 19  2  0
 13 20  1  0
 20 21  1  0
 21 22  2  0
 22 23  1  0
 23 24  2  0
 24 25  1  0
 25 26  2  0
 20 27  1  0
 10  5  1  0
 27 11  2  0
 19 14  1  0
 26 21  1  0
  3 28  1  0
  4 29  1  0
  4 30  1  0
  6 31  1  0
  7 32  1  0
  8 33  1  0
  9 34  1  0
 10 35  1  0
 12 36  1  0
 15 37  1  0
 16 38  1  0
 17 39  1  0
 18 40  1  0
 19 41  1  0
 22 42  1  0
 23 43  1  0
 24 44  1  0
 25 45  1  0
 26 46  1  0
M  END
>  <meeko>  (3) 
{"is_sidechain": false}

$$$$

     RDKit          3D

 49 52  0  0  0  0  0  0  0  0999 V2000
    9.3130    2.9650  -56.1350 O   0  0  0  0  0  0  0  0  0  0  0  0
   10.0120    2.0250  -56.5070 C   0  0  0  0  0  0  0  0  0  0  0  0
   10.9290    2.1550  -57.5400 N   0  0  0  0  0  0  0  0  0  0  0  0
   11.1960    3.4490  -58.1510 C   0  0  0  0  0  0  0  0  0  0  0  0
   12.6900    3.8070  -58.0510 C   0  0  0  0  0  0  0  0  0  0  0  0
   13.1720    4.7420  -59.1620 C   0  0  0  0  0  0  0  0  0  0  0  0
   12.0570    5.6460  -59.6690 C   0  0  0  0  0  0  0  0  0  0  0  0
   10.8910    4.8420  -60.2480 C   0  0  0  0  0  0  0  0  0  0  0  0
   10.7200    3.4640  -59.6040 C   0  0  0  0  0  0  0  0  0  0  0  0
    9.9620    0.6840  -55.8870 C   0  0  0  0  0  0  0  0  0  0  0  0
    9.2620    0.2720  -54.7310 C   0  0  0  0  0  0  0  0  0  0  0  0
    9.5040   -1.0810  -54.5830 C   0  0  0  0  0  0  0  0  0  0  0  0
    8.8740   -1.9760  -53.6180 C   0  0  0  0  0  0  0  0  0  0  0  0
    7.6840   -2.6430  -53.9390 C   0  0  0  0  0  0  0  0  0  0  0  0
    7.0720   -3.4810  -53.0060 C   0  0  0  0  0  0  0  0  0  0  0  0
    7.6390   -3.6510  -51.7440 C   0  0  0  0  0  0  0  0  0  0  0  0
    8.8150   -2.9790  -51.4110 C   0  0  0  0  0  0  0  0  0  0  0  0
    9.4280   -2.1400  -52.3430 C   0  0  0  0  0  0  0  0  0  0  0  0
   10.4160   -1.4110  -55.5860 N   0  0  0  0  0  0  0  0  0  0  0  0
   11.1360   -2.6250  -55.8370 C   0  0  0  0  0  0  0  0  0  0  0  0
   11.8710   -2.7410  -57.0310 C   0  0  0  0  0  0  0  0  0  0  0  0
   12.5880   -3.9050  -57.3180 C   0  0  0  0  0  0  0  0  0  0  0  0
   12.5900   -4.9630  -56.4140 C   0  0  0  0  0  0  0  0  0  0  0  0
   11.8840   -4.8520  -55.2190 C   0  0  0  0  0  0  0  0  0  0  0  0
   11.1640   -3.6870  -54.9270 C   0  0  0  0  0  0  0  0  0  0  0  0
   10.6160   -0.3560  -56.4230 N   0  0  0  0  0  0  0  0  0  0  0  0
   11.6360    1.4410  -57.6330 H   0  0  0  0  0  0  0  0  0  0  0  0
   10.6321    4.2155  -57.5991 H   0  0  0  0  0  0  0  0  0  0  0  0
   12.8657    4.2982  -57.0826 H   0  0  0  0  0  0  0  0  0  0  0  0
   13.2540    2.8681  -58.1526 H   0  0  0  0  0  0  0  0  0  0  0  0
   13.9870    5.3685  -58.7705 H   0  0  0  0  0  0  0  0  0  0  0  0
   13.5162    4.1220  -60.0029 H   0  0  0  0  0  0  0  0  0  0  0  0
   11.6870    6.2577  -58.8330 H   0  0  0  0  0  0  0  0  0  0  0  0
   12.4675    6.2777  -60.4706 H   0  0  0  0  0  0  0  0  0  0  0  0
    9.9641    5.4146  -60.0964 H   0  0  0  0  0  0  0  0  0  0  0  0
   11.1097    4.6764  -61.3132 H   0  0  0  0  0  0  0  0  0  0  0  0
    9.6555    3.1883  -59.6321 H   0  0  0  0  0  0  0  0  0  0  0  0
   11.3315    2.7457  -60.1698 H   0  0  0  0  0  0  0  0  0  0  0  0
    8.6447    0.9046  -54.0762 H   0  0  0  0  0  0  0  0  0  0  0  0
    7.2301   -2.5053  -54.9315 H   0  0  0  0  0  0  0  0  0  0  0  0
    6.1420   -4.0075  -53.2665 H   0  0  0  0  0  0  0  0  0  0  0  0
    7.1588   -4.3154  -51.0105 H   0  0  0  0  0  0  0  0  0  0  0  0
    9.2596   -3.1103  -50.4134 H   0  0  0  0  0  0  0  0  0  0  0  0
   10.3509   -1.6051  -52.0743 H   0  0  0  0  0  0  0  0  0  0  0  0
   11.8812   -1.9057  -57.7466 H   0  0  0  0  0  0  0  0  0  0  0  0
   13.1515   -3.9854  -58.2593 H   0  0  0  0  0  0  0  0  0  0  0  0
   13.1472   -5.8835  -56.6426 H   0  0  0  0  0  0  0  0  0  0  0  0
   11.8919   -5.6845  -54.5000 H   0  0  0  0  0  0  0  0  0  0  0  0
   10.6170   -3.6065  -53.9760 H   0  0  0  0  0  0  0  0  0  0  0  0
  1  2  2  0
  2  3  1  0
  3  4  1  0
  4  5  1  0
  5  6  1  0
  6  7  1  0
  7  8  1  0
  8  9  1  0
  2 10  1  0
 10 11  1  0
 11 12  2  0
 12 13  1  0
 13 14  2  0
 14 15  1  0
 15 16  2  0
 16 17  1  0
 17 18  2  0
 12 19  1  0
 19 20  1  0
 20 21  2  0
 21 22  1  0
 22 23  2  0
 23 24  1  0
 24 25  2  0
 19 26  1  0
  9  4  1  0
 26 10  2  0
 18 13  1  0
 25 20  1  0
  3 27  1  0
  4 28  1  0
  5 29  1  0
  5 30  1  0
  6 31  1  0
  6 32  1  0
  7 33  1  0
  7 34  1  0
  8 35  1  0
  8 36  1  0
  9 37  1  0
  9 38  1  0
 11 39  1  0
 14 40  1  0
 15 41  1  0
 16 42  1  0
 17 43  1  0
 18 44  1  0
 21 45  1  0
 22 46  1  0
 23 47  1  0
 24 48  1  0
 25 49  1  0
M  END
>  <meeko>  (4) 
{"is_sidechain": false}

$$$$

     RDKit          3D

 52 55  0  0  0  0  0  0  0  0999 V2000
    6.2830    1.6320  -56.2460 O   0  0  0  0  0  0  0  0  0  0  0  0
    7.4710    1.3680  -56.0670 C   0  0  0  0  0  0  0  0  0  0  0  0
    8.4820    2.0650  -56.7160 N   0  0  0  0  0  0  0  0  0  0  0  0
    8.1810    3.0590  -57.7390 C   0  0  0  0  0  0  0  0  0  0  0  0
    8.2520    4.4760  -57.1450 C   0  0  0  0  0  0  0  0  0  0  0  0
    9.6330    5.0980  -57.3240 C   0  0  0  0  0  0  0  0  0  0  0  0
   10.0100    5.2290  -58.8010 C   0  0  0  0  0  0  0  0  0  0  0  0
    9.3460    4.1810  -59.6960 C   0  0  0  0  0  0  0  0  0  0  0  0
    9.1120    2.8730  -58.9510 C   0  0  0  0  0  0  0  0  0  0  0  0
    7.9380    0.2880  -55.1720 C   0  0  0  0  0  0  0  0  0  0  0  0
    7.2020   -0.4190  -54.1810 C   0  0  0  0  0  0  0  0  0  0  0  0
    8.0770   -1.3230  -53.6150 C   0  0  0  0  0  0  0  0  0  0  0  0
    7.8560   -2.3020  -52.5630 C   0  0  0  0  0  0  0  0  0  0  0  0
    7.9450   -1.9230  -51.2190 C   0  0  0  0  0  0  0  0  0  0  0  0
    7.7240   -2.8590  -50.2090 C   0  0  0  0  0  0  0  0  0  0  0  0
    7.4180   -4.1780  -50.5350 C   0  0  0  0  0  0  0  0  0  0  0  0
    7.3350   -4.5650  -51.8720 C   0  0  0  0  0  0  0  0  0  0  0  0
    7.5550   -3.6300  -52.8850 C   0  0  0  0  0  0  0  0  0  0  0  0
    9.2570   -1.1530  -54.3010 N   0  0  0  0  0  0  0  0  0  0  0  0
   10.5090   -1.8840  -54.1200 C   0  0  0  0  0  0  0  0  0  0  0  0
   10.8440   -2.7410  -55.3170 C   0  0  0  0  0  0  0  0  0  0  0  0
   11.5800   -2.2130  -56.3880 C   0  0  0  0  0  0  0  0  0  0  0  0
   11.8920   -3.0070  -57.4930 C   0  0  0  0  0  0  0  0  0  0  0  0
   11.4740   -4.3360  -57.5380 C   0  0  0  0  0  0  0  0  0  0  0  0
   10.7460   -4.8730  -56.4780 C   0  0  0  0  0  0  0  0  0  0  0  0
   10.4340   -4.0810  -55.3720 C   0  0  0  0  0  0  0  0  0  0  0  0
    9.2040   -0.1620  -55.2150 N   0  0  0  0  0  0  0  0  0  0  0  0
    9.4050    1.6580  -56.7160 H   0  0  0  0  0  0  0  0  0  0  0  0
    7.1517    2.9166  -58.1000 H   0  0  0  0  0  0  0  0  0  0  0  0
    7.5079    5.1106  -57.6486 H   0  0  0  0  0  0  0  0  0  0  0  0
    8.0469    4.4048  -56.0666 H   0  0  0  0  0  0  0  0  0  0  0  0
    9.6352    6.0981  -56.8659 H   0  0  0  0  0  0  0  0  0  0  0  0
   10.3697    4.4399  -56.8401 H   0  0  0  0  0  0  0  0  0  0  0  0
    9.7073    6.2272  -59.1503 H   0  0  0  0  0  0  0  0  0  0  0  0
   11.0966    5.0735  -58.8724 H   0  0  0  0  0  0  0  0  0  0  0  0
    8.3784    4.5710  -60.0447 H   0  0  0  0  0  0  0  0  0  0  0  0
   10.0170    3.9783  -60.5438 H   0  0  0  0  0  0  0  0  0  0  0  0
    8.6562    2.1477  -59.6411 H   0  0  0  0  0  0  0  0  0  0  0  0
   10.0837    2.5136  -58.5814 H   0  0  0  0  0  0  0  0  0  0  0  0
    6.1439   -0.2736  -53.9179 H   0  0  0  0  0  0  0  0  0  0  0  0
    8.1902   -0.8829  -50.9581 H   0  0  0  0  0  0  0  0  0  0  0  0
    7.7914   -2.5552  -49.1539 H   0  0  0  0  0  0  0  0  0  0  0  0
    7.2417   -4.9148  -49.7374 H   0  0  0  0  0  0  0  0  0  0  0  0
    7.0960   -5.6076  -52.1287 H   0  0  0  0  0  0  0  0  0  0  0  0
    7.4916   -3.9380  -53.9391 H   0  0  0  0  0  0  0  0  0  0  0  0
   11.3226   -1.1606  -53.9627 H   0  0  0  0  0  0  0  0  0  0  0  0
   10.3914   -2.5474  -53.2505 H   0  0  0  0  0  0  0  0  0  0  0  0
   11.9139   -1.1653  -56.3570 H   0  0  0  0  0  0  0  0  0  0  0  0
   12.4682   -2.5835  -58.3289 H   0  0  0  0  0  0  0  0  0  0  0  0
   11.7187   -4.9606  -58.4098 H   0  0  0  0  0  0  0  0  0  0  0  0
   10.4170   -5.9221  -56.5130 H   0  0  0  0  0  0  0  0  0  0  0  0
    9.8619   -4.5113  -54.5368 H   0  0  0  0  0  0  0  0  0  0  0  0
  1  2  2  0
  2  3  1  0
  3  4  1  0
  4  5  1  0
  5  6  1  0
  6  7  1  0
  7  8  1  0
  8  9  1  0
  2 10  1  0
 10 11  1  0
 11 12  2  0
 12 13  1  0
 13 14  2  0
 14 15  1  0
 15 16  2  0
 16 17  1  0
 17 18  2  0
 12 19  1  0
 19 20  1  0
 20 21  1  0
 21 22  2  0
 22 23  1  0
 23 24  2  0
 24 25  1  0
 25 26  2  0
 19 27  1  0
  9  4  1  0
 27 10  2  0
 18 13  1  0
 26 21  1  0
  3 28  1  0
  4 29  1  0
  5 30  1  0
  5 31  1  0
  6 32  1  0
  6 33  1  0
  7 34  1  0
  7 35  1  0
  8 36  1  0
  8 37  1  0
  9 38  1  0
  9 39  1  0
 11 40  1  0
 14 41  1  0
 15 42  1  0
 16 43  1  0
 17 44  1  0
 18 45  1  0
 20 46  1  0
 20 47  1  0
 22 48  1  0
 23 49  1  0
 24 50  1  0
 25 51  1  0
 26 52  1  0
M  END
>  <meeko>  (5) 
{"is_sidechain": false}

$$$$

     RDKit          3D

 50 53  0  0  0  0  0  0  0  0999 V2000
    5.1390   -4.3220  -50.2790 C   0  0  0  0  0  0  0  0  0  0  0  0
    5.6940   -4.6200  -51.5530 O   0  0  0  0  0  0  0  0  0  0  0  0
    6.7860   -3.8890  -51.9380 C   0  0  0  0  0  0  0  0  0  0  0  0
    7.8080   -3.4400  -51.1030 C   0  0  0  0  0  0  0  0  0  0  0  0
    8.8740   -2.6980  -51.6280 C   0  0  0  0  0  0  0  0  0  0  0  0
    8.9250   -2.3900  -52.9940 C   0  0  0  0  0  0  0  0  0  0  0  0
   10.0820   -1.6130  -53.5670 C   0  0  0  0  0  0  0  0  0  0  0  0
    9.6420   -0.7390  -54.6210 N   0  0  0  0  0  0  0  0  0  0  0  0
    8.8130    0.3350  -54.4000 C   0  0  0  0  0  0  0  0  0  0  0  0
    8.4970    0.7430  -53.2870 O   0  0  0  0  0  0  0  0  0  0  0  0
    8.3230    0.9520  -55.6420 C   0  0  0  0  0  0  0  0  0  0  0  0
    7.0680    0.7580  -56.2470 C   0  0  0  0  0  0  0  0  0  0  0  0
    7.0500    1.5620  -57.3720 C   0  0  0  0  0  0  0  0  0  0  0  0
    5.9040    1.8210  -58.2380 C   0  0  0  0  0  0  0  0  0  0  0  0
    5.9050    1.3620  -59.5620 C   0  0  0  0  0  0  0  0  0  0  0  0
    4.8040    1.5920  -60.3890 C   0  0  0  0  0  0  0  0  0  0  0  0
    3.6910    2.2720  -59.8960 C   0  0  0  0  0  0  0  0  0  0  0  0
    3.6750    2.7180  -58.5760 C   0  0  0  0  0  0  0  0  0  0  0  0
    4.7750    2.4880  -57.7470 C   0  0  0  0  0  0  0  0  0  0  0  0
    8.3260    2.1240  -57.4540 N   0  0  0  0  0  0  0  0  0  0  0  0
    8.9340    2.9080  -58.4860 C   0  0  0  0  0  0  0  0  0  0  0  0
    8.9630    4.3080  -58.4470 C   0  0  0  0  0  0  0  0  0  0  0  0
    9.5660    5.0330  -59.4810 C   0  0  0  0  0  0  0  0  0  0  0  0
   10.1320    4.3720  -60.5670 C   0  0  0  0  0  0  0  0  0  0  0  0
   10.0920    2.9820  -60.6290 C   0  0  0  0  0  0  0  0  0  0  0  0
    9.4910    2.2540  -59.5990 C   0  0  0  0  0  0  0  0  0  0  0  0
    9.0670    1.8220  -56.3460 N   0  0  0  0  0  0  0  0  0  0  0  0
    7.9000   -2.8520  -53.8280 C   0  0  0  0  0  0  0  0  0  0  0  0
    6.8390   -3.5920  -53.3010 C   0  0  0  0  0  0  0  0  0  0  0  0
    5.8149   -4.6849  -49.4906 H   0  0  0  0  0  0  0  0  0  0  0  0
    5.0112   -3.2339  -50.1802 H   0  0  0  0  0  0  0  0  0  0  0  0
    4.1614   -4.8165  -50.1802 H   0  0  0  0  0  0  0  0  0  0  0  0
    7.7773   -3.6692  -50.0276 H   0  0  0  0  0  0  0  0  0  0  0  0
    9.6786   -2.3539  -50.9615 H   0  0  0  0  0  0  0  0  0  0  0  0
   10.5422   -1.0116  -52.7692 H   0  0  0  0  0  0  0  0  0  0  0  0
   10.8115   -2.3241  -53.9819 H   0  0  0  0  0  0  0  0  0  0  0  0
    9.7130   -1.0360  -55.5900 H   0  0  0  0  0  0  0  0  0  0  0  0
    6.2614    0.0980  -55.8952 H   0  0  0  0  0  0  0  0  0  0  0  0
    6.7778    0.8177  -59.9517 H   0  0  0  0  0  0  0  0  0  0  0  0
    4.8145    1.2366  -61.4300 H   0  0  0  0  0  0  0  0  0  0  0  0
    2.8254    2.4564  -60.5493 H   0  0  0  0  0  0  0  0  0  0  0  0
    2.7954    3.2516  -58.1867 H   0  0  0  0  0  0  0  0  0  0  0  0
    4.7544    2.8327  -56.7026 H   0  0  0  0  0  0  0  0  0  0  0  0
    8.5090    4.8407  -57.5984 H   0  0  0  0  0  0  0  0  0  0  0  0
    9.5928    6.1317  -59.4351 H   0  0  0  0  0  0  0  0  0  0  0  0
   10.6097    4.9465  -61.3743 H   0  0  0  0  0  0  0  0  0  0  0  0
   10.5335    2.4568  -61.4888 H   0  0  0  0  0  0  0  0  0  0  0  0
    9.4532    1.1563  -59.6596 H   0  0  0  0  0  0  0  0  0  0  0  0
    7.9303   -2.6309  -54.9051 H   0  0  0  0  0  0  0  0  0  0  0  0
    6.0372   -3.9442  -53.9666 H   0  0  0  0  0  0  0  0  0  0  0  0
  1  2  1  0
  2  3  1  0
  3  4  1  0
  4  5  2  0
  5  6  1  0
  6  7  1  0
  7  8  1  0
  8  9  1  0
  9 10  2  0
  9 11  1  0
 11 12  1  0
 12 13  2  0
 13 14  1  0
 14 15  2  0
 15 16  1  0
 16 17  2  0
 17 18  1  0
 18 19  2  0
 13 20  1  0
 20 21  1  0
 21 22  2  0
 22 23  1  0
 23 24  2  0
 24 25  1  0
 25 26  2  0
 20 27  1  0
  6 28  2  0
 28 29  1  0
 29  3  2  0
 27 11  2  0
 19 14  1  0
 26 21  1  0
  1 30  1  0
  1 31  1  0
  1 32  1  0
  4 33  1  0
  5 34  1  0
  7 35  1  0
  7 36  1  0
  8 37  1  0
 12 38  1  0
 15 39  1  0
 16 40  1  0
 17 41  1  0
 18 42  1  0
 19 43  1  0
 22 44  1  0
 23 45  1  0
 24 46  1  0
 25 47  1  0
 26 48  1  0
 28 49  1  0
 29 50  1  0
M  END
>  <meeko>  (6) 
{"is_sidechain": false}

$$$$

     RDKit          3D

 49 52  0  0  0  0  0  0  0  0999 V2000
    5.5380    1.5100  -56.0760 O   0  0  0  0  0  0  0  0  0  0  0  0
    6.7420    1.2640  -56.0810 C   0  0  0  0  0  0  0  0  0  0  0  0
    7.6160    1.9030  -56.9450 N   0  0  0  0  0  0  0  0  0  0  0  0
    7.1360    2.7800  -57.9860 C   0  0  0  0  0  0  0  0  0  0  0  0
    8.2630    3.1870  -58.8990 C   0  0  0  0  0  0  0  0  0  0  0  0
    8.8710    2.2550  -59.7510 C   0  0  0  0  0  0  0  0  0  0  0  0
    9.9000    2.6480  -60.6090 C   0  0  0  0  0  0  0  0  0  0  0  0
   10.3250    3.9740  -60.6290 C   0  0  0  0  0  0  0  0  0  0  0  0
    9.7220    4.9120  -59.7930 C   0  0  0  0  0  0  0  0  0  0  0  0
    8.6950    4.5210  -58.9330 C   0  0  0  0  0  0  0  0  0  0  0  0
    7.3700    0.2670  -55.1850 C   0  0  0  0  0  0  0  0  0  0  0  0
    6.7610   -0.5290  -54.1760 C   0  0  0  0  0  0  0  0  0  0  0  0
    7.7660   -1.2950  -53.6230 C   0  0  0  0  0  0  0  0  0  0  0  0
    7.7060   -2.2830  -52.5580 C   0  0  0  0  0  0  0  0  0  0  0  0
    7.9080   -1.9000  -51.2280 C   0  0  0  0  0  0  0  0  0  0  0  0
    7.8580   -2.8520  -50.2070 C   0  0  0  0  0  0  0  0  0  0  0  0
    7.6010   -4.1880  -50.5120 C   0  0  0  0  0  0  0  0  0  0  0  0
    7.3930   -4.5740  -51.8360 C   0  0  0  0  0  0  0  0  0  0  0  0
    7.4410   -3.6240  -52.8570 C   0  0  0  0  0  0  0  0  0  0  0  0
    8.8980   -0.9610  -54.3270 N   0  0  0  0  0  0  0  0  0  0  0  0
   10.2490   -1.4870  -54.1500 C   0  0  0  0  0  0  0  0  0  0  0  0
   10.6460   -2.4260  -55.2630 C   0  0  0  0  0  0  0  0  0  0  0  0
   11.4560   -1.9810  -56.3180 C   0  0  0  0  0  0  0  0  0  0  0  0
   11.8260   -2.8500  -57.3450 C   0  0  0  0  0  0  0  0  0  0  0  0
   11.3930   -4.1740  -57.3270 C   0  0  0  0  0  0  0  0  0  0  0  0
   10.5920   -4.6310  -56.2830 C   0  0  0  0  0  0  0  0  0  0  0  0
   10.2210   -3.7630  -55.2530 C   0  0  0  0  0  0  0  0  0  0  0  0
    8.6870   -0.0000  -55.2520 N   0  0  0  0  0  0  0  0  0  0  0  0
    8.5470    1.5320  -57.0540 H   0  0  0  0  0  0  0  0  0  0  0  0
    6.3665    2.2570  -58.5728 H   0  0  0  0  0  0  0  0  0  0  0  0
    6.7127    3.6828  -57.5215 H   0  0  0  0  0  0  0  0  0  0  0  0
    8.5355    1.2074  -59.7437 H   0  0  0  0  0  0  0  0  0  0  0  0
   10.3758    1.9089  -61.2703 H   0  0  0  0  0  0  0  0  0  0  0  0
   11.1368    4.2811  -61.3048 H   0  0  0  0  0  0  0  0  0  0  0  0
   10.0555    5.9601  -59.8111 H   0  0  0  0  0  0  0  0  0  0  0  0
    8.2204    5.2650  -58.2764 H   0  0  0  0  0  0  0  0  0  0  0  0
    5.6982   -0.5330  -53.8925 H   0  0  0  0  0  0  0  0  0  0  0  0
    8.1069   -0.8457  -50.9853 H   0  0  0  0  0  0  0  0  0  0  0  0
    8.0213   -2.5477  -49.1626 H   0  0  0  0  0  0  0  0  0  0  0  0
    7.5623   -4.9379  -49.7081 H   0  0  0  0  0  0  0  0  0  0  0  0
    7.1909   -5.6284  -52.0756 H   0  0  0  0  0  0  0  0  0  0  0  0
    7.2701   -3.9301  -53.8996 H   0  0  0  0  0  0  0  0  0  0  0  0
   10.9567   -0.6452  -54.1275 H   0  0  0  0  0  0  0  0  0  0  0  0
   10.2699   -2.0532  -53.2071 H   0  0  0  0  0  0  0  0  0  0  0  0
   11.8028   -0.9372  -56.3359 H   0  0  0  0  0  0  0  0  0  0  0  0
   12.4596   -2.4897  -58.1689 H   0  0  0  0  0  0  0  0  0  0  0  0
   11.6837   -4.8587  -58.1374 H   0  0  0  0  0  0  0  0  0  0  0  0
   10.2511   -5.6768  -56.2695 H   0  0  0  0  0  0  0  0  0  0  0  0
    9.5917   -4.1302  -54.4289 H   0  0  0  0  0  0  0  0  0  0  0  0
  1  2  2  0
  2  3  1  0
  3  4  1  0
  4  5  1  0
  5  6  2  0
  6  7  1  0
  7  8  2  0
  8  9  1  0
  9 10  2  0
  2 11  1  0
 11 12  1  0
 12 13  2  0
 13 14  1  0
 14 15  2  0
 15 16  1  0
 16 17  2  0
 17 18  1  0
 18 19  2  0
 13 20  1  0
 20 21  1  0
 21 22  1  0
 22 23  2  0
 23 24  1  0
 24 25  2  0
 25 26  1  0
 26 27  2  0
 20 28  1  0
 10  5  1  0
 28 11  2  0
 19 14  1  0
 27 22  1  0
  3 29  1  0
  4 30  1  0
  4 31  1  0
  6 32  1  0
  7 33  1  0
  8 34  1  0
  9 35  1  0
 10 36  1  0
 12 37  1  0
 15 38  1  0
 16 39  1  0
 17 40  1  0
 18 41  1  0
 19 42  1  0
 21 43  1  0
 21 44  1  0
 23 45  1  0
 24 46  1  0
 25 47  1  0
 26 48  1  0
 27 49  1  0
M  END
>  <meeko>  (7) 
{"is_sidechain": false}

$$$$

     RDKit          3D

 43 46  0  0  0  0  0  0  0  0999 V2000
    9.6190   -0.6930  -53.4380 O   0  0  0  0  0  0  0  0  0  0  0  0
    8.4680   -0.6340  -53.8590 C   0  0  0  0  0  0  0  0  0  0  0  0
    7.3910   -1.3400  -53.3360 N   0  0  0  0  0  0  0  0  0  0  0  0
    7.4060   -2.2860  -52.2890 C   0  0  0  0  0  0  0  0  0  0  0  0
    7.7670   -1.9950  -50.9720 C   0  0  0  0  0  0  0  0  0  0  0  0
    7.7590   -2.9990  -49.9970 C   0  0  0  0  0  0  0  0  0  0  0  0
    7.3930   -4.3000  -50.3290 C   0  0  0  0  0  0  0  0  0  0  0  0
    7.0340   -4.6020  -51.6400 C   0  0  0  0  0  0  0  0  0  0  0  0
    7.0420   -3.6000  -52.6130 C   0  0  0  0  0  0  0  0  0  0  0  0
    8.1030    0.2440  -54.9990 C   0  0  0  0  0  0  0  0  0  0  0  0
    7.0090    0.1350  -55.8870 C   0  0  0  0  0  0  0  0  0  0  0  0
    7.0920    1.2110  -56.7520 C   0  0  0  0  0  0  0  0  0  0  0  0
    6.1010    1.6040  -57.7480 C   0  0  0  0  0  0  0  0  0  0  0  0
    6.2660    1.2370  -59.0900 C   0  0  0  0  0  0  0  0  0  0  0  0
    5.3070    1.5930  -60.0390 C   0  0  0  0  0  0  0  0  0  0  0  0
    4.1730    2.3070  -59.6530 C   0  0  0  0  0  0  0  0  0  0  0  0
    3.9930    2.6620  -58.3170 C   0  0  0  0  0  0  0  0  0  0  0  0
    4.9510    2.3080  -57.3650 C   0  0  0  0  0  0  0  0  0  0  0  0
    8.2800    1.8660  -56.4240 N   0  0  0  0  0  0  0  0  0  0  0  0
    8.9590    2.9520  -57.0640 C   0  0  0  0  0  0  0  0  0  0  0  0
   10.0860    2.6710  -57.8600 C   0  0  0  0  0  0  0  0  0  0  0  0
   10.7800    3.6970  -58.5040 C   0  0  0  0  0  0  0  0  0  0  0  0
   10.3550    5.0150  -58.3730 C   0  0  0  0  0  0  0  0  0  0  0  0
    9.2290    5.3050  -57.6070 C   0  0  0  0  0  0  0  0  0  0  0  0
    8.5290    4.2800  -56.9590 C   0  0  0  0  0  0  0  0  0  0  0  0
    8.8360    1.3210  -55.3080 N   0  0  0  0  0  0  0  0  0  0  0  0
    6.4780   -1.1140  -53.7010 H   0  0  0  0  0  0  0  0  0  0  0  0
    8.0595   -0.9703  -50.6991 H   0  0  0  0  0  0  0  0  0  0  0  0
    8.0437   -2.7584  -48.9621 H   0  0  0  0  0  0  0  0  0  0  0  0
    7.3873   -5.0860  -49.5594 H   0  0  0  0  0  0  0  0  0  0  0  0
    6.7444   -5.6285  -51.9091 H   0  0  0  0  0  0  0  0  0  0  0  0
    6.7589   -3.8454  -53.6472 H   0  0  0  0  0  0  0  0  0  0  0  0
    6.2409   -0.6524  -55.8897 H   0  0  0  0  0  0  0  0  0  0  0  0
    7.1548    0.6661  -59.3967 H   0  0  0  0  0  0  0  0  0  0  0  0
    5.4457    1.3101  -61.0929 H   0  0  0  0  0  0  0  0  0  0  0  0
    3.4201    2.5903  -60.4032 H   0  0  0  0  0  0  0  0  0  0  0  0
    3.0959    3.2212  -58.0127 H   0  0  0  0  0  0  0  0  0  0  0  0
    4.8027    2.5827  -56.3102 H   0  0  0  0  0  0  0  0  0  0  0  0
   10.4237    1.6305  -57.9758 H   0  0  0  0  0  0  0  0  0  0  0  0
   11.6638    3.4629  -59.1156 H   0  0  0  0  0  0  0  0  0  0  0  0
   10.9064    5.8251  -58.8727 H   0  0  0  0  0  0  0  0  0  0  0  0
    8.8872    6.3461  -57.5103 H   0  0  0  0  0  0  0  0  0  0  0  0
    7.6356    4.5198  -56.3637 H   0  0  0  0  0  0  0  0  0  0  0  0
  1  2  2  0
  2  3  1  0
  3  4  1  0
  4  5  2  0
  5  6  1  0
  6  7  2  0
  7  8  1  0
  8  9  2  0
  2 10  1  0
 10 11  1  0
 11 12  2  0
 12 13  1  0
 13 14  2  0
 14 15  1  0
 15 16  2  0
 16 17  1  0
 17 18  2  0
 12 19  1  0
 19 20  1  0
 20 21  2  0
 21 22  1  0
 22 23  2  0
 23 24  1  0
 24 25  2  0
 19 26  1  0
  9  4  1  0
 26 10  2  0
 18 13  1  0
 25 20  1  0
  3 27  1  0
  5 28  1  0
  6 29  1  0
  7 30  1  0
  8 31  1  0
  9 32  1  0
 11 33  1  0
 14 34  1  0
 15 35  1  0
 16 36  1  0
 17 37  1  0
 18 38  1  0
 21 39  1  0
 22 40  1  0
 23 41  1  0
 24 42  1  0
 25 43  1  0
M  END
>  <meeko>  (8) 
{"is_sidechain": false}

$$$$

     RDKit          3D

 54 58  0  0  0  0  0  0  0  0999 V2000
   10.3400   -4.0900  -55.2750 C   0  0  0  0  0  0  0  0  0  0  0  0
   11.1530   -3.1380  -54.7960 C   0  0  0  0  0  0  0  0  0  0  0  0
   10.7890   -2.1830  -53.6930 C   0  0  0  0  0  0  0  0  0  0  0  0
    9.5960   -1.3980  -54.0010 N   0  0  0  0  0  0  0  0  0  0  0  0
    9.6730   -0.4430  -54.9510 N   0  0  0  0  0  0  0  0  0  0  0  0
    8.4500    0.1120  -54.9940 C   0  0  0  0  0  0  0  0  0  0  0  0
    8.1340    1.2210  -55.9230 C   0  0  0  0  0  0  0  0  0  0  0  0
    6.9890    1.6120  -56.1290 O   0  0  0  0  0  0  0  0  0  0  0  0
    9.2410    1.7720  -56.5530 N   0  0  0  0  0  0  0  0  0  0  0  0
    9.1790    2.8210  -57.5760 C   0  0  2  0  0  0  0  0  0  0  0  0
   10.5690    2.9090  -58.2640 C   0  0  0  0  0  0  0  0  0  0  0  0
   10.5790    3.9870  -59.3600 C   0  0  1  0  0  0  0  0  0  0  0  0
    9.5150    3.6450  -60.4140 C   0  0  0  0  0  0  0  0  0  0  0  0
    8.1270    3.5810  -59.7570 C   0  0  2  0  0  0  0  0  0  0  0  0
    7.8060    4.9430  -59.1180 C   0  0  0  0  0  0  0  0  0  0  0  0
    8.8670    5.2950  -58.0610 C   0  0  2  0  0  0  0  0  0  0  0  0
   10.2490    5.3480  -58.7270 C   0  0  0  0  0  0  0  0  0  0  0  0
    8.8690    4.2120  -56.9670 C   0  0  0  0  0  0  0  0  0  0  0  0
    8.1280    2.4970  -58.6670 C   0  0  0  0  0  0  0  0  0  0  0  0
    7.5900   -0.5310  -54.0620 C   0  0  0  0  0  0  0  0  0  0  0  0
    8.3430   -1.5120  -53.4460 C   0  0  0  0  0  0  0  0  0  0  0  0
    7.9590   -2.4680  -52.4180 C   0  0  0  0  0  0  0  0  0  0  0  0
    8.1260   -2.1610  -51.0640 C   0  0  0  0  0  0  0  0  0  0  0  0
    7.7560   -3.0830  -50.0830 C   0  0  0  0  0  0  0  0  0  0  0  0
    7.2230   -4.3170  -50.4510 C   0  0  0  0  0  0  0  0  0  0  0  0
    7.0620   -4.6340  -51.7990 C   0  0  0  0  0  0  0  0  0  0  0  0
    7.4330   -3.7140  -52.7820 C   0  0  0  0  0  0  0  0  0  0  0  0
   10.6833   -4.7498  -56.0855 H   0  0  0  0  0  0  0  0  0  0  0  0
    9.3295   -4.2115  -54.8576 H   0  0  0  0  0  0  0  0  0  0  0  0
   12.1553   -3.0493  -55.2403 H   0  0  0  0  0  0  0  0  0  0  0  0
   10.6041   -2.7594  -52.7745 H   0  0  0  0  0  0  0  0  0  0  0  0
   11.6271   -1.4813  -53.5696 H   0  0  0  0  0  0  0  0  0  0  0  0
   10.1030    1.2520  -56.4860 H   0  0  0  0  0  0  0  0  0  0  0  0
   11.3284    3.1585  -57.5083 H   0  0  0  0  0  0  0  0  0  0  0  0
   10.7898    1.9370  -58.7292 H   0  0  0  0  0  0  0  0  0  0  0  0
   11.5699    4.0285  -59.8357 H   0  0  0  0  0  0  0  0  0  0  0  0
    9.5132    4.4198  -61.1948 H   0  0  0  0  0  0  0  0  0  0  0  0
    9.7492    2.6671  -60.8599 H   0  0  0  0  0  0  0  0  0  0  0  0
    7.3693    3.3391  -60.5168 H   0  0  0  0  0  0  0  0  0  0  0  0
    7.7989    5.7182  -59.8984 H   0  0  0  0  0  0  0  0  0  0  0  0
    6.8197    4.8897  -58.6339 H   0  0  0  0  0  0  0  0  0  0  0  0
    8.6361    6.2732  -57.6140 H   0  0  0  0  0  0  0  0  0  0  0  0
   10.2476    6.1225  -59.5081 H   0  0  0  0  0  0  0  0  0  0  0  0
   11.0076    5.5866  -57.9670 H   0  0  0  0  0  0  0  0  0  0  0  0
    9.6356    4.4572  -56.2172 H   0  0  0  0  0  0  0  0  0  0  0  0
    7.8743    4.1799  -56.4984 H   0  0  0  0  0  0  0  0  0  0  0  0
    7.1309    2.4480  -58.2051 H   0  0  0  0  0  0  0  0  0  0  0  0
    8.3820    1.5311  -59.1280 H   0  0  0  0  0  0  0  0  0  0  0  0
    6.5332   -0.2941  -53.8694 H   0  0  0  0  0  0  0  0  0  0  0  0
    8.5505   -1.1895  -50.7707 H   0  0  0  0  0  0  0  0  0  0  0  0
    7.8853   -2.8353  -49.0191 H   0  0  0  0  0  0  0  0  0  0  0  0
    6.9291   -5.0415  -49.6772 H   0  0  0  0  0  0  0  0  0  0  0  0
    6.6427   -5.6089  -52.0884 H   0  0  0  0  0  0  0  0  0  0  0  0
    7.3118   -3.9687  -53.8452 H   0  0  0  0  0  0  0  0  0  0  0  0
  1  2  2  0
  2  3  1  0
  3  4  1  0
  4  5  1  0
  5  6  2  0
  6  7  1  0
  7  8  2  0
  7  9  1  0
 10  9  1  1
 10 11  1  0
 11 12  1  0
 12 13  1  0
 13 14  1  0
 14 15  1  0
 15 16  1  0
 16 17  1  0
 16 18  1  0
 14 19  1  0
  6 20  1  0
 20 21  2  0
 21 22  1  0
 22 23  2  0
 23 24  1  0
 24 25  2  0
 25 26  1  0
 26 27  2  0
 21  4  1  0
 27 22  1  0
 18 10  1  0
 19 10  1  0
 17 12  1  0
  1 28  1  0
  1 29  1  0
  2 30  1  0
  3 31  1  0
  3 32  1  0
  9 33  1  0
 11 34  1  0
 11 35  1  0
 12 36  1  6
 13 37  1  0
 13 38  1  0
 14 39  1  6
 15 40  1  0
 15 41  1  0
 16 42  1  1
 17 43  1  0
 17 44  1  0
 18 45  1  0
 18 46  1  0
 19 47  1  0
 19 48  1  0
 20 49  1  0
 23 50  1  0
 24 51  1  0
 25 52  1  0
 26 53  1  0
 27 54  1  0
M  END
>  <meeko>  (9) 
{"is_sidechain": false}

$$$$

     RDKit          3D

 47 51  0  0  0  0  0  0  0  0999 V2000
    6.6800    1.7220  -56.1810 O   0  0  0  0  0  0  0  0  0  0  0  0
    7.8180    1.2990  -56.0160 C   0  0  0  0  0  0  0  0  0  0  0  0
    8.9310    1.7590  -56.6840 N   0  0  0  0  0  0  0  0  0  0  0  0
    8.9580    2.8130  -57.6930 C   0  0  2  0  0  0  0  0  0  0  0  0
    7.8620    2.6020  -58.7670 C   0  0  0  0  0  0  0  0  0  0  0  0
    7.9420    3.6990  -59.8440 C   0  0  1  0  0  0  0  0  0  0  0  0
    7.7580    5.0740  -59.1810 C   0  0  0  0  0  0  0  0  0  0  0  0
    8.8630    5.3100  -58.1370 C   0  0  2  0  0  0  0  0  0  0  0  0
   10.2350    5.2460  -58.8260 C   0  0  0  0  0  0  0  0  0  0  0  0
   10.4280    3.8710  -59.4830 C   0  0  2  0  0  0  0  0  0  0  0  0
    9.3190    3.6430  -60.5240 C   0  0  0  0  0  0  0  0  0  0  0  0
   10.3370    2.7790  -58.4040 C   0  0  0  0  0  0  0  0  0  0  0  0
    8.7830    4.2150  -57.0590 C   0  0  0  0  0  0  0  0  0  0  0  0
    8.1330    0.2230  -55.0610 C   0  0  0  0  0  0  0  0  0  0  0  0
    7.2400   -0.4010  -54.1540 C   0  0  0  0  0  0  0  0  0  0  0  0
    7.9820   -1.3380  -53.4630 C   0  0  0  0  0  0  0  0  0  0  0  0
    7.6130   -2.2890  -52.4170 C   0  0  0  0  0  0  0  0  0  0  0  0
    6.7500   -3.3550  -52.7070 C   0  0  0  0  0  0  0  0  0  0  0  0
    6.3920   -4.2750  -51.7170 C   0  0  0  0  0  0  0  0  0  0  0  0
    6.8900   -4.1380  -50.4240 C   0  0  0  0  0  0  0  0  0  0  0  0
    7.7410   -3.0800  -50.1190 C   0  0  0  0  0  0  0  0  0  0  0  0
    8.1020   -2.1600  -51.1080 C   0  0  0  0  0  0  0  0  0  0  0  0
    9.2410   -1.2390  -53.9970 N   0  0  0  0  0  0  0  0  0  0  0  0
    9.3710   -0.3020  -54.9530 N   0  0  0  0  0  0  0  0  0  0  0  0
    9.7930    1.2870  -56.4190 H   0  0  0  0  0  0  0  0  0  0  0  0
    8.0039    1.6193  -59.2404 H   0  0  0  0  0  0  0  0  0  0  0  0
    6.8758    2.6514  -58.2824 H   0  0  0  0  0  0  0  0  0  0  0  0
    7.1529    3.5408  -60.5938 H   0  0  0  0  0  0  0  0  0  0  0  0
    7.8106    5.8587  -59.9501 H   0  0  0  0  0  0  0  0  0  0  0  0
    6.7785    5.1045  -58.6814 H   0  0  0  0  0  0  0  0  0  0  0  0
    8.7294    6.2980  -57.6723 H   0  0  0  0  0  0  0  0  0  0  0  0
   10.2930    6.0293  -59.5961 H   0  0  0  0  0  0  0  0  0  0  0  0
   11.0241    5.4022  -58.0757 H   0  0  0  0  0  0  0  0  0  0  0  0
   11.4114    3.8310  -59.9742 H   0  0  0  0  0  0  0  0  0  0  0  0
    9.3767    4.4251  -61.2953 H   0  0  0  0  0  0  0  0  0  0  0  0
    9.4543    2.6538  -60.9858 H   0  0  0  0  0  0  0  0  0  0  0  0
   10.4743    1.7948  -58.8758 H   0  0  0  0  0  0  0  0  0  0  0  0
   11.1219    2.9602  -57.6550 H   0  0  0  0  0  0  0  0  0  0  0  0
    9.5790    4.3785  -56.3177 H   0  0  0  0  0  0  0  0  0  0  0  0
    7.7965    4.2650  -56.5749 H   0  0  0  0  0  0  0  0  0  0  0  0
    6.1696   -0.1823  -54.0263 H   0  0  0  0  0  0  0  0  0  0  0  0
    6.3499   -3.4689  -53.7253 H   0  0  0  0  0  0  0  0  0  0  0  0
    5.7160   -5.1081  -51.9599 H   0  0  0  0  0  0  0  0  0  0  0  0
    6.6116   -4.8639  -49.6459 H   0  0  0  0  0  0  0  0  0  0  0  0
    8.1309   -2.9672  -49.0966 H   0  0  0  0  0  0  0  0  0  0  0  0
    8.7757   -1.3272  -50.8577 H   0  0  0  0  0  0  0  0  0  0  0  0
   10.0540   -1.7950  -53.7590 H   0  0  0  0  0  0  0  0  0  0  0  0
  1  2  2  0
  2  3  1  0
  4  3  1  1
  4  5  1  0
  5  6  1  0
  6  7  1  0
  7  8  1  0
  8  9  1  0
  9 10  1  0
 10 11  1  0
 10 12  1  0
  8 13  1  0
  2 14  1  0
 14 15  1  0
 15 16  2  0
 16 17  1  0
 17 18  2  0
 18 19  1  0
 19 20  2  0
 20 21  1  0
 21 22  2  0
 16 23  1  0
 23 24  1  0
 12  4  1  0
 24 14  2  0
 13  4  1  0
 22 17  1  0
 11  6  1  0
  3 25  1  0
  5 26  1  0
  5 27  1  0
  6 28  1  6
  7 29  1  0
  7 30  1  0
  8 31  1  1
  9 32  1  0
  9 33  1  0
 10 34  1  6
 11 35  1  0
 11 36  1  0
 12 37  1  0
 12 38  1  0
 13 39  1  0
 13 40  1  0
 15 41  1  0
 18 42  1  0
 19 43  1  0
 20 44  1  0
 21 45  1  0
 22 46  1  0
 23 47  1  0
M  END
>  <meeko>  (10) 
{"is_sidechain": false}

$$$$

     RDKit          3D

 47 51  0  0  0  0  0  0  0  0999 V2000
    9.9430    1.5610  -55.7640 O   0  0  0  0  0  0  0  0  0  0  0  0
    8.7500    1.3140  -55.8870 C   0  0  0  0  0  0  0  0  0  0  0  0
    7.9440    1.9120  -56.8360 N   0  0  0  0  0  0  0  0  0  0  0  0
    8.4070    2.9390  -57.7800 C   0  0  2  0  0  0  0  0  0  0  0  0
    8.7050    4.2800  -57.0650 C   0  0  0  0  0  0  0  0  0  0  0  0
    9.1270    5.3540  -58.0830 C   0  0  1  0  0  0  0  0  0  0  0  0
   10.3820    4.8760  -58.8340 C   0  0  0  0  0  0  0  0  0  0  0  0
   10.0860    3.5650  -59.5810 C   0  0  2  0  0  0  0  0  0  0  0  0
    8.9410    3.7980  -60.5800 C   0  0  0  0  0  0  0  0  0  0  0  0
    7.6830    4.2640  -59.8340 C   0  0  2  0  0  0  0  0  0  0  0  0
    7.9880    5.5750  -59.0900 C   0  0  0  0  0  0  0  0  0  0  0  0
    7.2740    3.1900  -58.8130 C   0  0  0  0  0  0  0  0  0  0  0  0
    9.6650    2.4880  -58.5660 C   0  0  0  0  0  0  0  0  0  0  0  0
    8.0620    0.3920  -55.0200 C   0  0  0  0  0  0  0  0  0  0  0  0
    8.5850   -0.4940  -54.0980 C   0  0  0  0  0  0  0  0  0  0  0  0
    7.4790   -1.1730  -53.5170 C   0  0  0  0  0  0  0  0  0  0  0  0
    7.4880   -2.2030  -52.4690 C   0  0  0  0  0  0  0  0  0  0  0  0
    7.8380   -1.8940  -51.1460 C   0  0  0  0  0  0  0  0  0  0  0  0
    7.8420   -2.8830  -50.1570 C   0  0  0  0  0  0  0  0  0  0  0  0
    7.4950   -4.1940  -50.4760 C   0  0  0  0  0  0  0  0  0  0  0  0
    7.1450   -4.5180  -51.7840 C   0  0  0  0  0  0  0  0  0  0  0  0
    7.1410   -3.5290  -52.7720 C   0  0  0  0  0  0  0  0  0  0  0  0
    6.3340   -0.7350  -54.0690 N   0  0  0  0  0  0  0  0  0  0  0  0
    6.7190    0.1590  -54.9880 N   0  0  0  0  0  0  0  0  0  0  0  0
    6.9560    1.9300  -56.6280 H   0  0  0  0  0  0  0  0  0  0  0  0
    7.8006    4.6173  -56.5375 H   0  0  0  0  0  0  0  0  0  0  0  0
    9.5270    4.1261  -56.3504 H   0  0  0  0  0  0  0  0  0  0  0  0
    9.3448    6.2958  -57.5581 H   0  0  0  0  0  0  0  0  0  0  0  0
   10.6876    5.6458  -59.5579 H   0  0  0  0  0  0  0  0  0  0  0  0
   11.1901    4.7014  -58.1084 H   0  0  0  0  0  0  0  0  0  0  0  0
   10.9854    3.2337  -60.1207 H   0  0  0  0  0  0  0  0  0  0  0  0
    9.2411    4.5685  -61.3055 H   0  0  0  0  0  0  0  0  0  0  0  0
    8.7223    2.8569  -61.1058 H   0  0  0  0  0  0  0  0  0  0  0  0
    6.8665    4.4267  -60.5529 H   0  0  0  0  0  0  0  0  0  0  0  0
    8.2879    6.3449  -59.8162 H   0  0  0  0  0  0  0  0  0  0  0  0
    7.0870    5.9024  -58.5505 H   0  0  0  0  0  0  0  0  0  0  0  0
    6.3711    3.5251  -58.2815 H   0  0  0  0  0  0  0  0  0  0  0  0
    7.0794    2.2514  -59.3526 H   0  0  0  0  0  0  0  0  0  0  0  0
    9.4404    1.5542  -59.1023 H   0  0  0  0  0  0  0  0  0  0  0  0
   10.4892    2.3303  -57.8548 H   0  0  0  0  0  0  0  0  0  0  0  0
    9.6483   -0.6446  -53.8600 H   0  0  0  0  0  0  0  0  0  0  0  0
    8.1125   -0.8617  -50.8834 H   0  0  0  0  0  0  0  0  0  0  0  0
    8.1199   -2.6250  -49.1244 H   0  0  0  0  0  0  0  0  0  0  0  0
    7.4975   -4.9706  -49.6970 H   0  0  0  0  0  0  0  0  0  0  0  0
    6.8716   -5.5523  -52.0400 H   0  0  0  0  0  0  0  0  0  0  0  0
    6.8617   -3.7939  -53.8025 H   0  0  0  0  0  0  0  0  0  0  0  0
    6.0050    0.5700  -55.5780 H   0  0  0  0  0  0  0  0  0  0  0  0
  1  2  2  0
  2  3  1  0
  4  3  1  1
  4  5  1  0
  5  6  1  0
  6  7  1  0
  7  8  1  0
  8  9  1  0
  9 10  1  0
 10 11  1  0
 10 12  1  0
  8 13  1  0
  2 14  1  0
 14 15  2  0
 15 16  1  0
 16 17  1  0
 17 18  2  0
 18 19  1  0
 19 20  2  0
 20 21  1  0
 21 22  2  0
 16 23  2  0
 23 24  1  0
 12  4  1  0
 24 14  1  0
 13  4  1  0
 22 17  1  0
 11  6  1  0
  3 25  1  0
  5 26  1  0
  5 27  1  0
  6 28  1  1
  7 29  1  0
  7 30  1  0
  8 31  1  6
  9 32  1  0
  9 33  1  0
 10 34  1  6
 11 35  1  0
 11 36  1  0
 12 37  1  0
 12 38  1  0
 13 39  1  0
 13 40  1  0
 15 41  1  0
 18 42  1  0
 19 43  1  0
 20 44  1  0
 21 45  1  0
 22 46  1  0
 24 47  1  0
M  END
>  <meeko>  (11) 
{"is_sidechain": false}

$$$$

     RDKit          3D

 53 57  0  0  0  0  0  0  0  0999 V2000
   10.9720   -3.4700  -54.5230 C   0  0  0  0  0  0  0  0  0  0  0  0
   10.8380   -2.2180  -53.6740 C   0  0  0  0  0  0  0  0  0  0  0  0
    9.6520   -1.4500  -54.0110 N   0  0  0  0  0  0  0  0  0  0  0  0
    9.7540   -0.4950  -54.9540 N   0  0  0  0  0  0  0  0  0  0  0  0
    8.5360    0.0730  -55.0110 C   0  0  0  0  0  0  0  0  0  0  0  0
    8.2440    1.1920  -55.9350 C   0  0  0  0  0  0  0  0  0  0  0  0
    7.1260    1.6830  -56.0570 O   0  0  0  0  0  0  0  0  0  0  0  0
    9.3470    1.6520  -56.6410 N   0  0  0  0  0  0  0  0  0  0  0  0
    9.3320    2.8020  -57.5520 C   0  0  2  0  0  0  0  0  0  0  0  0
   10.7020    2.8600  -58.2820 C   0  0  0  0  0  0  0  0  0  0  0  0
   10.7620    4.0510  -59.2520 C   0  0  1  0  0  0  0  0  0  0  0  0
    9.6470    3.9040  -60.2990 C   0  0  0  0  0  0  0  0  0  0  0  0
    8.2780    3.8690  -59.6020 C   0  0  2  0  0  0  0  0  0  0  0  0
    8.0780    5.1710  -58.8080 C   0  0  0  0  0  0  0  0  0  0  0  0
    9.1900    5.3280  -57.7580 C   0  0  2  0  0  0  0  0  0  0  0  0
   10.5550    5.3540  -58.4650 C   0  0  0  0  0  0  0  0  0  0  0  0
    9.1430    4.1350  -56.7870 C   0  0  0  0  0  0  0  0  0  0  0  0
    8.2290    2.6740  -58.6340 C   0  0  0  0  0  0  0  0  0  0  0  0
    7.6610   -0.5560  -54.0800 C   0  0  0  0  0  0  0  0  0  0  0  0
    8.3980   -1.5450  -53.4610 C   0  0  0  0  0  0  0  0  0  0  0  0
    8.0080   -2.4790  -52.4150 C   0  0  0  0  0  0  0  0  0  0  0  0
    7.4750   -3.7270  -52.7520 C   0  0  0  0  0  0  0  0  0  0  0  0
    7.1020   -4.6260  -51.7500 C   0  0  0  0  0  0  0  0  0  0  0  0
    7.2650   -4.2830  -50.4090 C   0  0  0  0  0  0  0  0  0  0  0  0
    7.8050   -3.0440  -50.0670 C   0  0  0  0  0  0  0  0  0  0  0  0
    8.1770   -2.1440  -51.0670 C   0  0  0  0  0  0  0  0  0  0  0  0
   11.0661   -4.3488  -53.8681 H   0  0  0  0  0  0  0  0  0  0  0  0
   10.0805   -3.5796  -55.1579 H   0  0  0  0  0  0  0  0  0  0  0  0
   11.8665   -3.3885  -55.1579 H   0  0  0  0  0  0  0  0  0  0  0  0
   10.7804   -2.5123  -52.6157 H   0  0  0  0  0  0  0  0  0  0  0  0
   11.7163   -1.5843  -53.8665 H   0  0  0  0  0  0  0  0  0  0  0  0
   10.2510    1.3370  -56.3210 H   0  0  0  0  0  0  0  0  0  0  0  0
   11.5029    2.9641  -57.5352 H   0  0  0  0  0  0  0  0  0  0  0  0
   10.8299    1.9324  -58.8592 H   0  0  0  0  0  0  0  0  0  0  0  0
   11.7403    4.0752  -59.7544 H   0  0  0  0  0  0  0  0  0  0  0  0
    9.6821    4.7577  -60.9918 H   0  0  0  0  0  0  0  0  0  0  0  0
    9.7942    2.9672  -60.8564 H   0  0  0  0  0  0  0  0  0  0  0  0
    7.4834    3.7680  -60.3560 H   0  0  0  0  0  0  0  0  0  0  0  0
    8.1073    6.0263  -59.4991 H   0  0  0  0  0  0  0  0  0  0  0  0
    7.1044    5.1343  -58.2973 H   0  0  0  0  0  0  0  0  0  0  0  0
    9.0441    6.2650  -57.2006 H   0  0  0  0  0  0  0  0  0  0  0  0
   10.5907    6.2078  -59.1576 H   0  0  0  0  0  0  0  0  0  0  0  0
   11.3507    5.4521  -57.7119 H   0  0  0  0  0  0  0  0  0  0  0  0
    9.9465    4.2422  -56.0434 H   0  0  0  0  0  0  0  0  0  0  0  0
    8.1626    4.1219  -56.2885 H   0  0  0  0  0  0  0  0  0  0  0  0
    7.2443    2.6454  -58.1446 H   0  0  0  0  0  0  0  0  0  0  0  0
    8.3977    1.7487  -59.2044 H   0  0  0  0  0  0  0  0  0  0  0  0
    6.6070   -0.3037  -53.8917 H   0  0  0  0  0  0  0  0  0  0  0  0
    7.3490   -4.0018  -53.8096 H   0  0  0  0  0  0  0  0  0  0  0  0
    6.6794   -5.6052  -52.0195 H   0  0  0  0  0  0  0  0  0  0  0  0
    6.9676   -4.9899  -49.6204 H   0  0  0  0  0  0  0  0  0  0  0  0
    7.9380   -2.7755  -49.0086 H   0  0  0  0  0  0  0  0  0  0  0  0
    8.6046   -1.1679  -50.7944 H   0  0  0  0  0  0  0  0  0  0  0  0
  1  2  1  0
  2  3  1  0
  3  4  1  0
  4  5  2  0
  5  6  1  0
  6  7  2  0
  6  8  1  0
  9  8  1  1
  9 10  1  0
 10 11  1  0
 11 12  1  0
 12 13  1  0
 13 14  1  0
 14 15  1  0
 15 16  1  0
 15 17  1  0
 13 18  1  0
  5 19  1  0
 19 20  2  0
 20 21  1  0
 21 22  2  0
 22 23  1  0
 23 24  2  0
 24 25  1  0
 25 26  2  0
 20  3  1  0
 26 21  1  0
 17  9  1  0
 18  9  1  0
 16 11  1  0
  1 27  1  0
  1 28  1  0
  1 29  1  0
  2 30  1  0
  2 31  1  0
  8 32  1  0
 10 33  1  0
 10 34  1  0
 11 35  1  6
 12 36  1  0
 12 37  1  0
 13 38  1  6
 14 39  1  0
 14 40  1  0
 15 41  1  1
 16 42  1  0
 16 43  1  0
 17 44  1  0
 17 45  1  0
 18 46  1  0
 18 47  1  0
 19 48  1  0
 22 49  1  0
 23 50  1  0
 24 51  1  0
 25 52  1  0
 26 53  1  0
M  END
>  <meeko>  (12) 
{"is_sidechain": false}

$$$$

     RDKit          3D

 50 54  0  0  0  0  0  0  0  0999 V2000
    7.4520    1.9800  -56.2490 O   0  0  0  0  0  0  0  0  0  0  0  0
    8.5740    1.4840  -56.2020 C   0  0  0  0  0  0  0  0  0  0  0  0
    9.6270    1.9320  -56.9860 N   0  0  0  0  0  0  0  0  0  0  0  0
    9.5180    2.9820  -58.0030 C   0  0  2  0  0  0  0  0  0  0  0  0
    9.2410    4.3730  -57.3770 C   0  0  0  0  0  0  0  0  0  0  0  0
    9.1880    5.4580  -58.4680 C   0  0  1  0  0  0  0  0  0  0  0  0
   10.5380    5.5100  -59.2000 C   0  0  0  0  0  0  0  0  0  0  0  0
   10.8340    4.1500  -59.8490 C   0  0  2  0  0  0  0  0  0  0  0  0
    9.7200    3.8100  -60.8520 C   0  0  0  0  0  0  0  0  0  0  0  0
    8.3650    3.7490  -60.1300 C   0  0  2  0  0  0  0  0  0  0  0  0
    8.0770    5.1100  -59.4740 C   0  0  0  0  0  0  0  0  0  0  0  0
    8.4160    2.6610  -59.0420 C   0  0  0  0  0  0  0  0  0  0  0  0
   10.8750    3.0690  -58.7570 C   0  0  0  0  0  0  0  0  0  0  0  0
    8.9130    0.3460  -55.3170 C   0  0  0  0  0  0  0  0  0  0  0  0
    8.1690   -0.1720  -54.2170 C   0  0  0  0  0  0  0  0  0  0  0  0
    8.9050   -1.2240  -53.7290 C   0  0  0  0  0  0  0  0  0  0  0  0
   10.0200   -1.2930  -54.5120 N   0  0  0  0  0  0  0  0  0  0  0  0
   11.0990   -2.2680  -54.4090 C   0  0  0  0  0  0  0  0  0  0  0  0
   11.2170   -3.1030  -55.6610 C   0  0  0  0  0  0  0  0  0  0  0  0
   11.8440   -2.5920  -56.8070 C   0  0  0  0  0  0  0  0  0  0  0  0
   11.9500   -3.3700  -57.9610 C   0  0  0  0  0  0  0  0  0  0  0  0
   11.4310   -4.6640  -57.9820 C   0  0  0  0  0  0  0  0  0  0  0  0
   10.8080   -5.1830  -56.8500 C   0  0  0  0  0  0  0  0  0  0  0  0
   10.7010   -4.4070  -55.6950 C   0  0  0  0  0  0  0  0  0  0  0  0
   10.0410   -0.3680  -55.4890 N   0  0  0  0  0  0  0  0  0  0  0  0
   10.4330    1.3260  -57.0410 H   0  0  0  0  0  0  0  0  0  0  0  0
    8.2772    4.3456  -56.8475 H   0  0  0  0  0  0  0  0  0  0  0  0
   10.0538    4.6145  -56.6762 H   0  0  0  0  0  0  0  0  0  0  0  0
    8.9799    6.4356  -58.0086 H   0  0  0  0  0  0  0  0  0  0  0  0
   10.5006    6.2855  -59.9793 H   0  0  0  0  0  0  0  0  0  0  0  0
   11.3327    5.7468  -58.4773 H   0  0  0  0  0  0  0  0  0  0  0  0
   11.8014    4.1922  -60.3708 H   0  0  0  0  0  0  0  0  0  0  0  0
    9.6829    4.5848  -61.6319 H   0  0  0  0  0  0  0  0  0  0  0  0
    9.9308    2.8317  -61.3085 H   0  0  0  0  0  0  0  0  0  0  0  0
    7.5713    3.5114  -60.8535 H   0  0  0  0  0  0  0  0  0  0  0  0
    8.0340    5.8868  -60.2516 H   0  0  0  0  0  0  0  0  0  0  0  0
    7.1147    5.0575  -58.9436 H   0  0  0  0  0  0  0  0  0  0  0  0
    7.4421    2.6126  -58.5330 H   0  0  0  0  0  0  0  0  0  0  0  0
    8.6455    1.6953  -59.5161 H   0  0  0  0  0  0  0  0  0  0  0  0
   11.0900    2.0960  -59.2228 H   0  0  0  0  0  0  0  0  0  0  0  0
   11.6600    3.3336  -58.0333 H   0  0  0  0  0  0  0  0  0  0  0  0
    7.2041    0.1952  -53.8372 H   0  0  0  0  0  0  0  0  0  0  0  0
    8.6483   -1.8765  -52.8814 H   0  0  0  0  0  0  0  0  0  0  0  0
   12.0471   -1.7348  -54.2452 H   0  0  0  0  0  0  0  0  0  0  0  0
   10.8750   -2.9404  -53.5677 H   0  0  0  0  0  0  0  0  0  0  0  0
   12.2548   -1.5716  -56.7962 H   0  0  0  0  0  0  0  0  0  0  0  0
   12.4437   -2.9617  -58.8552 H   0  0  0  0  0  0  0  0  0  0  0  0
   11.5137   -5.2749  -58.8930 H   0  0  0  0  0  0  0  0  0  0  0  0
   10.4002   -6.2045  -56.8661 H   0  0  0  0  0  0  0  0  0  0  0  0
   10.2077   -4.8215  -54.8035 H   0  0  0  0  0  0  0  0  0  0  0  0
  1  2  2  0
  2  3  1  0
  4  3  1  1
  4  5  1  0
  5  6  1  0
  6  7  1  0
  7  8  1  0
  8  9  1  0
  9 10  1  0
 10 11  1  0
 10 12  1  0
  8 13  1  0
  2 14  1  0
 14 15  1  0
 15 16  2  0
 16 17  1  0
 17 18  1  0
 18 19  1  0
 19 20  2  0
 20 21  1  0
 21 22  2  0
 22 23  1  0
 23 24  2  0
 17 25  1  0
 12  4  1  0
 25 14  2  0
 13  4  1  0
 24 19  1  0
 11  6  1  0
  3 26  1  0
  5 27  1  0
  5 28  1  0
  6 29  1  1
  7 30  1  0
  7 31  1  0
  8 32  1  6
  9 33  1  0
  9 34  1  0
 10 35  1  6
 11 36  1  0
 11 37  1  0
 12 38  1  0
 12 39  1  0
 13 40  1  0
 13 41  1  0
 15 42  1  0
 16 43  1  0
 18 44  1  0
 18 45  1  0
 20 46  1  0
 21 47  1  0
 22 48  1  0
 23 49  1  0
 24 50  1  0
M  END
>  <meeko>  (13) 
{"is_sidechain": false}

$$$$

     RDKit          3D

 56 60  0  0  0  0  0  0  0  0999 V2000
   10.1100   -4.0290  -55.1830 C   0  0  0  0  0  0  0  0  0  0  0  0
   11.1340   -2.9940  -54.7370 C   0  0  0  0  0  0  0  0  0  0  0  0
   10.6210   -2.0850  -53.6200 C   0  0  0  0  0  0  0  0  0  0  0  0
    9.4280   -1.3370  -53.9800 N   0  0  0  0  0  0  0  0  0  0  0  0
    9.5250   -0.4060  -54.9550 N   0  0  0  0  0  0  0  0  0  0  0  0
    8.2920    0.1360  -55.0200 C   0  0  0  0  0  0  0  0  0  0  0  0
    7.9670    1.2230  -55.9580 C   0  0  0  0  0  0  0  0  0  0  0  0
    6.8280    1.6520  -56.1050 O   0  0  0  0  0  0  0  0  0  0  0  0
    9.0730    1.6890  -56.6350 N   0  0  0  0  0  0  0  0  0  0  0  0
    9.0920    2.7550  -57.6290 C   0  0  2  0  0  0  0  0  0  0  0  0
    8.0120    2.5400  -58.7190 C   0  0  0  0  0  0  0  0  0  0  0  0
    8.0840    3.6520  -59.7800 C   0  0  1  0  0  0  0  0  0  0  0  0
    7.8670    5.0150  -59.1010 C   0  0  0  0  0  0  0  0  0  0  0  0
    8.9550    5.2570  -58.0410 C   0  0  2  0  0  0  0  0  0  0  0  0
   10.3350    5.2270  -58.7150 C   0  0  0  0  0  0  0  0  0  0  0  0
   10.5620    3.8640  -59.3880 C   0  0  2  0  0  0  0  0  0  0  0  0
    9.4690    3.6310  -60.4440 C   0  0  0  0  0  0  0  0  0  0  0  0
   10.4790    2.7570  -58.3250 C   0  0  0  0  0  0  0  0  0  0  0  0
    8.8830    4.1450  -56.9790 C   0  0  0  0  0  0  0  0  0  0  0  0
    7.4190   -0.4790  -54.0920 C   0  0  0  0  0  0  0  0  0  0  0  0
    8.1650   -1.4440  -53.4450 C   0  0  0  0  0  0  0  0  0  0  0  0
    7.7650   -2.3710  -52.3970 C   0  0  0  0  0  0  0  0  0  0  0  0
    8.1080   -2.1260  -51.0620 C   0  0  0  0  0  0  0  0  0  0  0  0
    7.7220   -3.0180  -50.0600 C   0  0  0  0  0  0  0  0  0  0  0  0
    6.9960   -4.1620  -50.3870 C   0  0  0  0  0  0  0  0  0  0  0  0
    6.6610   -4.4190  -51.7160 C   0  0  0  0  0  0  0  0  0  0  0  0
    7.0470   -3.5280  -52.7190 C   0  0  0  0  0  0  0  0  0  0  0  0
    9.6498   -4.4942  -54.2988 H   0  0  0  0  0  0  0  0  0  0  0  0
    9.3318   -3.5386  -55.7862 H   0  0  0  0  0  0  0  0  0  0  0  0
   10.6087   -4.8019  -55.7862 H   0  0  0  0  0  0  0  0  0  0  0  0
   12.0297   -3.5207  -54.3760 H   0  0  0  0  0  0  0  0  0  0  0  0
   11.3536   -2.3549  -55.6049 H   0  0  0  0  0  0  0  0  0  0  0  0
   10.3895   -2.7080  -52.7435 H   0  0  0  0  0  0  0  0  0  0  0  0
   11.4126   -1.3497  -53.4135 H   0  0  0  0  0  0  0  0  0  0  0  0
    9.9360    1.2110  -56.3830 H   0  0  0  0  0  0  0  0  0  0  0  0
    8.1767    1.5665  -59.2040 H   0  0  0  0  0  0  0  0  0  0  0  0
    7.0198    2.5661  -58.2449 H   0  0  0  0  0  0  0  0  0  0  0  0
    7.3066    3.4889  -60.5410 H   0  0  0  0  0  0  0  0  0  0  0  0
    7.9143    5.8107  -59.8591 H   0  0  0  0  0  0  0  0  0  0  0  0
    6.8813    5.0210  -58.6129 H   0  0  0  0  0  0  0  0  0  0  0  0
    8.7980    6.2358  -57.5642 H   0  0  0  0  0  0  0  0  0  0  0  0
   10.3869    6.0213  -59.4743 H   0  0  0  0  0  0  0  0  0  0  0  0
   11.1123    5.3875  -57.9534 H   0  0  0  0  0  0  0  0  0  0  0  0
   11.5516    3.8477  -59.8681 H   0  0  0  0  0  0  0  0  0  0  0  0
    9.5210    4.4251  -61.2034 H   0  0  0  0  0  0  0  0  0  0  0  0
    9.6276    2.6509  -60.9176 H   0  0  0  0  0  0  0  0  0  0  0  0
   10.6401    1.7820  -58.8081 H   0  0  0  0  0  0  0  0  0  0  0  0
   11.2517    2.9436  -57.5646 H   0  0  0  0  0  0  0  0  0  0  0  0
    9.6669    4.3133  -56.2259 H   0  0  0  0  0  0  0  0  0  0  0  0
    7.8897    4.1696  -56.5070 H   0  0  0  0  0  0  0  0  0  0  0  0
    6.3597   -0.2372  -53.9205 H   0  0  0  0  0  0  0  0  0  0  0  0
    8.6845   -1.2262  -50.8013 H   0  0  0  0  0  0  0  0  0  0  0  0
    7.9908   -2.8180  -49.0123 H   0  0  0  0  0  0  0  0  0  0  0  0
    6.6873   -4.8621  -49.5967 H   0  0  0  0  0  0  0  0  0  0  0  0
    6.0922   -5.3244  -51.9742 H   0  0  0  0  0  0  0  0  0  0  0  0
    6.7856   -3.7364  -53.7670 H   0  0  0  0  0  0  0  0  0  0  0  0
  1  2  1  0
  2  3  1  0
  3  4  1  0
  4  5  1  0
  5  6  2  0
  6  7  1  0
  7  8  2  0
  7  9  1  0
 10  9  1  1
 10 11  1  0
 11 12  1  0
 12 13  1  0
 13 14  1  0
 14 15  1  0
 15 16  1  0
 16 17  1  0
 16 18  1  0
 14 19  1  0
  6 20  1  0
 20 21  2  0
 21 22  1  0
 22 23  2  0
 23 24  1  0
 24 25  2  0
 25 26  1  0
 26 27  2  0
 21  4  1  0
 27 22  1  0
 18 10  1  0
 19 10  1  0
 17 12  1  0
  1 28  1  0
  1 29  1  0
  1 30  1  0
  2 31  1  0
  2 32  1  0
  3 33  1  0
  3 34  1  0
  9 35  1  0
 11 36  1  0
 11 37  1  0
 12 38  1  6
 13 39  1  0
 13 40  1  0
 14 41  1  1
 15 42  1  0
 15 43  1  0
 16 44  1  6
 17 45  1  0
 17 46  1  0
 18 47  1  0
 18 48  1  0
 19 49  1  0
 19 50  1  0
 20 51  1  0
 23 52  1  0
 24 53  1  0
 25 54  1  0
 26 55  1  0
 27 56  1  0
M  END
>  <meeko>  (14) 
{"is_sidechain": false}

$$$$

     RDKit          3D

 59 63  0  0  0  0  0  0  0  0999 V2000
   11.5310   -3.1810  -56.6240 C   0  0  0  0  0  0  0  0  0  0  0  0
   10.4250   -3.5780  -55.6590 C   0  0  0  0  0  0  0  0  0  0  0  0
   10.8890   -3.4740  -54.2050 C   0  0  0  0  0  0  0  0  0  0  0  0
   10.7960   -2.0520  -53.6460 C   0  0  0  0  0  0  0  0  0  0  0  0
    9.5760   -1.3540  -54.0140 N   0  0  0  0  0  0  0  0  0  0  0  0
    9.6400   -0.4030  -54.9720 N   0  0  0  0  0  0  0  0  0  0  0  0
    8.3840    0.0820  -55.0410 C   0  0  0  0  0  0  0  0  0  0  0  0
    8.0180    1.1690  -55.9650 C   0  0  0  0  0  0  0  0  0  0  0  0
    6.8660    1.5660  -56.0950 O   0  0  0  0  0  0  0  0  0  0  0  0
    9.1040    1.6720  -56.6460 N   0  0  0  0  0  0  0  0  0  0  0  0
    9.0840    2.7550  -57.6250 C   0  0  2  0  0  0  0  0  0  0  0  0
    8.8410    4.1280  -56.9520 C   0  0  0  0  0  0  0  0  0  0  0  0
    8.8710    5.2560  -57.9980 C   0  0  1  0  0  0  0  0  0  0  0  0
   10.2470    5.2760  -58.6840 C   0  0  0  0  0  0  0  0  0  0  0  0
   10.5060    3.9300  -59.3790 C   0  0  2  0  0  0  0  0  0  0  0  0
    9.4130    3.6800  -60.4290 C   0  0  0  0  0  0  0  0  0  0  0  0
    8.0320    3.6510  -59.7540 C   0  0  2  0  0  0  0  0  0  0  0  0
    7.7820    4.9980  -59.0530 C   0  0  0  0  0  0  0  0  0  0  0  0
    8.0010    2.5230  -58.7080 C   0  0  0  0  0  0  0  0  0  0  0  0
   10.4650    2.8060  -58.3320 C   0  0  0  0  0  0  0  0  0  0  0  0
    7.5310   -0.5880  -54.1320 C   0  0  0  0  0  0  0  0  0  0  0  0
    8.3150   -1.5280  -53.4930 C   0  0  0  0  0  0  0  0  0  0  0  0
    7.9520   -2.4850  -52.4560 C   0  0  0  0  0  0  0  0  0  0  0  0
    7.4110   -3.7260  -52.8080 C   0  0  0  0  0  0  0  0  0  0  0  0
    7.0600   -4.6480  -51.8190 C   0  0  0  0  0  0  0  0  0  0  0  0
    7.2550   -4.3350  -50.4740 C   0  0  0  0  0  0  0  0  0  0  0  0
    7.8050   -3.1050  -50.1160 C   0  0  0  0  0  0  0  0  0  0  0  0
    8.1560   -2.1840  -51.1050 C   0  0  0  0  0  0  0  0  0  0  0  0
   12.4172   -2.8629  -56.0552 H   0  0  0  0  0  0  0  0  0  0  0  0
   11.7914   -4.0418  -57.2574 H   0  0  0  0  0  0  0  0  0  0  0  0
   11.1845   -2.3511  -57.2574 H   0  0  0  0  0  0  0  0  0  0  0  0
    9.5632   -2.9109  -55.8083 H   0  0  0  0  0  0  0  0  0  0  0  0
   10.1487   -4.6235  -55.8603 H   0  0  0  0  0  0  0  0  0  0  0  0
   10.2610   -4.1343  -53.5889 H   0  0  0  0  0  0  0  0  0  0  0  0
   11.9482   -3.7694  -54.1765 H   0  0  0  0  0  0  0  0  0  0  0  0
   10.8460   -2.1072  -52.5485 H   0  0  0  0  0  0  0  0  0  0  0  0
   11.6324   -1.4833  -54.0785 H   0  0  0  0  0  0  0  0  0  0  0  0
    9.9840    1.2200  -56.4050 H   0  0  0  0  0  0  0  0  0  0  0  0
    7.8585    4.1195  -56.4574 H   0  0  0  0  0  0  0  0  0  0  0  0
    9.6367    4.3072  -56.2139 H   0  0  0  0  0  0  0  0  0  0  0  0
    8.6888    6.2226  -57.5056 H   0  0  0  0  0  0  0  0  0  0  0  0
   10.2699    6.0826  -59.4316 H   0  0  0  0  0  0  0  0  0  0  0  0
   11.0261    5.4478  -57.9267 H   0  0  0  0  0  0  0  0  0  0  0  0
   11.4911    3.9500  -59.8680 H   0  0  0  0  0  0  0  0  0  0  0  0
    9.4358    4.4858  -61.1774 H   0  0  0  0  0  0  0  0  0  0  0  0
    9.5964    2.7117  -60.9176 H   0  0  0  0  0  0  0  0  0  0  0  0
    7.2536    3.4759  -60.5113 H   0  0  0  0  0  0  0  0  0  0  0  0
    7.8005    5.8055  -59.7997 H   0  0  0  0  0  0  0  0  0  0  0  0
    6.8006    4.9686  -58.5571 H   0  0  0  0  0  0  0  0  0  0  0  0
    7.0106    2.5002  -58.2300 H   0  0  0  0  0  0  0  0  0  0  0  0
    8.2020    1.5661  -59.2118 H   0  0  0  0  0  0  0  0  0  0  0  0
   10.6498    1.8430  -58.8305 H   0  0  0  0  0  0  0  0  0  0  0  0
   11.2391    3.0029  -57.5757 H   0  0  0  0  0  0  0  0  0  0  0  0
    6.4600   -0.3983  -53.9677 H   0  0  0  0  0  0  0  0  0  0  0  0
    7.2613   -3.9770  -53.8685 H   0  0  0  0  0  0  0  0  0  0  0  0
    6.6300   -5.6204  -52.1009 H   0  0  0  0  0  0  0  0  0  0  0  0
    6.9746   -5.0592  -49.6950 H   0  0  0  0  0  0  0  0  0  0  0  0
    7.9623   -2.8603  -49.0552 H   0  0  0  0  0  0  0  0  0  0  0  0
    8.5953   -1.2165  -50.8204 H   0  0  0  0  0  0  0  0  0  0  0  0
  1  2  1  0
  2  3  1  0
  3  4  1  0
  4  5  1  0
  5  6  1  0
  6  7  2  0
  7  8  1  0
  8  9  2  0
  8 10  1  0
 11 10  1  1
 11 12  1  0
 12 13  1  0
 13 14  1  0
 14 15  1  0
 15 16  1  0
 16 17  1  0
 17 18  1  0
 17 19  1  0
 15 20  1  0
  7 21  1  0
 21 22  2  0
 22 23  1  0
 23 24  2  0
 24 25  1  0
 25 26  2  0
 26 27  1  0
 27 28  2  0
 22  5  1  0
 28 23  1  0
 19 11  1  0
 20 11  1  0
 18 13  1  0
  1 29  1  0
  1 30  1  0
  1 31  1  0
  2 32  1  0
  2 33  1  0
  3 34  1  0
  3 35  1  0
  4 36  1  0
  4 37  1  0
 10 38  1  0
 12 39  1  0
 12 40  1  0
 13 41  1  1
 14 42  1  0
 14 43  1  0
 15 44  1  6
 16 45  1  0
 16 46  1  0
 17 47  1  6
 18 48  1  0
 18 49  1  0
 19 50  1  0
 19 51  1  0
 20 52  1  0
 20 53  1  0
 21 54  1  0
 24 55  1  0
 25 56  1  0
 26 57  1  0
 27 58  1  0
 28 59  1  0
M  END
>  <meeko>  (15) 
{"is_sidechain": false}

$$$$

     RDKit          3D

 50 54  0  0  0  0  0  0  0  0999 V2000
   11.1510   -2.9610  -53.5070 C   0  0  0  0  0  0  0  0  0  0  0  0
   10.1250   -1.9730  -53.9190 C   0  0  0  0  0  0  0  0  0  0  0  0
   10.2350   -1.0350  -54.9270 C   0  0  0  0  0  0  0  0  0  0  0  0
    9.0530   -0.2630  -54.8850 C   0  0  0  0  0  0  0  0  0  0  0  0
    8.6640    0.8840  -55.7390 C   0  0  0  0  0  0  0  0  0  0  0  0
    7.5210    1.3280  -55.7730 O   0  0  0  0  0  0  0  0  0  0  0  0
    9.7040    1.4240  -56.4820 N   0  0  0  0  0  0  0  0  0  0  0  0
    9.5860    2.6130  -57.3340 C   0  0  2  0  0  0  0  0  0  0  0  0
   10.9260    2.7950  -58.0980 C   0  0  0  0  0  0  0  0  0  0  0  0
   10.8800    4.0310  -59.0100 C   0  0  1  0  0  0  0  0  0  0  0  0
    9.7440    3.8620  -60.0300 C   0  0  0  0  0  0  0  0  0  0  0  0
    8.4020    3.7050  -59.2970 C   0  0  2  0  0  0  0  0  0  0  0  0
    8.1440    4.9530  -58.4350 C   0  0  0  0  0  0  0  0  0  0  0  0
    9.2780    5.1320  -57.4100 C   0  0  2  0  0  0  0  0  0  0  0  0
   10.6150    5.2790  -58.1540 C   0  0  0  0  0  0  0  0  0  0  0  0
    9.3370    3.8930  -56.4980 C   0  0  0  0  0  0  0  0  0  0  0  0
    8.4610    2.4640  -58.3890 C   0  0  0  0  0  0  0  0  0  0  0  0
    8.2540   -0.7040  -53.9060 N   0  0  0  0  0  0  0  0  0  0  0  0
    8.8680   -1.7810  -53.3480 N   0  0  0  0  0  0  0  0  0  0  0  0
    8.1730   -2.4990  -52.3190 C   0  0  0  0  0  0  0  0  0  0  0  0
    7.4220   -3.6330  -52.6810 C   0  0  0  0  0  0  0  0  0  0  0  0
    6.7220   -4.3710  -51.7220 C   0  0  0  0  0  0  0  0  0  0  0  0
    6.7690   -3.9930  -50.3850 C   0  0  0  0  0  0  0  0  0  0  0  0
    7.5210   -2.8830  -50.0080 C   0  0  0  0  0  0  0  0  0  0  0  0
    8.2220   -2.1410  -50.9670 C   0  0  0  0  0  0  0  0  0  0  0  0
   11.1971   -3.0054  -52.4089 H   0  0  0  0  0  0  0  0  0  0  0  0
   10.8855   -3.9522  -53.9032 H   0  0  0  0  0  0  0  0  0  0  0  0
   12.1315   -2.6583  -53.9032 H   0  0  0  0  0  0  0  0  0  0  0  0
   11.0768   -0.9133  -55.6246 H   0  0  0  0  0  0  0  0  0  0  0  0
   10.6380    1.1400  -56.2260 H   0  0  0  0  0  0  0  0  0  0  0  0
   11.7412    2.9163  -57.3695 H   0  0  0  0  0  0  0  0  0  0  0  0
   11.0950    1.9059  -58.7232 H   0  0  0  0  0  0  0  0  0  0  0  0
   11.8383    4.1418  -59.5386 H   0  0  0  0  0  0  0  0  0  0  0  0
    9.7029    4.7482  -60.6804 H   0  0  0  0  0  0  0  0  0  0  0  0
    9.9326    2.9640  -60.6367 H   0  0  0  0  0  0  0  0  0  0  0  0
    7.5912    3.5885  -60.0312 H   0  0  0  0  0  0  0  0  0  0  0  0
    8.0969    5.8399  -59.0840 H   0  0  0  0  0  0  0  0  0  0  0  0
    7.1911    4.8298  -57.8995 H   0  0  0  0  0  0  0  0  0  0  0  0
    9.0916    6.0303  -56.8031 H   0  0  0  0  0  0  0  0  0  0  0  0
   10.5743    6.1650  -58.8046 H   0  0  0  0  0  0  0  0  0  0  0  0
   11.4262    5.3922  -57.4198 H   0  0  0  0  0  0  0  0  0  0  0  0
   10.1550    4.0162  -55.7730 H   0  0  0  0  0  0  0  0  0  0  0  0
    8.3756    3.7926  -55.9730 H   0  0  0  0  0  0  0  0  0  0  0  0
    7.4960    2.3465  -57.8743 H   0  0  0  0  0  0  0  0  0  0  0  0
    8.6715    1.5804  -59.0094 H   0  0  0  0  0  0  0  0  0  0  0  0
    7.3853   -3.9436  -53.7356 H   0  0  0  0  0  0  0  0  0  0  0  0
    6.1344   -5.2502  -52.0251 H   0  0  0  0  0  0  0  0  0  0  0  0
    6.2149   -4.5679  -49.6284 H   0  0  0  0  0  0  0  0  0  0  0  0
    7.5647   -2.5870  -48.9495 H   0  0  0  0  0  0  0  0  0  0  0  0
    8.8161   -1.2695  -50.6548 H   0  0  0  0  0  0  0  0  0  0  0  0
  1  2  1  0
  2  3  2  0
  3  4  1  0
  4  5  1  0
  5  6  2  0
  5  7  1  0
  8  7  1  1
  8  9  1  0
  9 10  1  0
 10 11  1  0
 11 12  1  0
 12 13  1  0
 13 14  1  0
 14 15  1  0
 14 16  1  0
 12 17  1  0
  4 18  2  0
 18 19  1  0
 19 20  1  0
 20 21  2  0
 21 22  1  0
 22 23  2  0
 23 24  1  0
 24 25  2  0
 19  2  1  0
 25 20  1  0
 16  8  1  0
 17  8  1  0
 15 10  1  0
  1 26  1  0
  1 27  1  0
  1 28  1  0
  3 29  1  0
  7 30  1  0
  9 31  1  0
  9 32  1  0
 10 33  1  6
 11 34  1  0
 11 35  1  0
 12 36  1  6
 13 37  1  0
 13 38  1  0
 14 39  1  1
 15 40  1  0
 15 41  1  0
 16 42  1  0
 16 43  1  0
 17 44  1  0
 17 45  1  0
 21 46  1  0
 22 47  1  0
 23 48  1  0
 24 49  1  0
 25 50  1  0
M  END
>  <meeko>  (16) 
{"is_sidechain": false}

$$$$

     RDKit          3D

 60 65  0  0  0  0  0  0  0  0999 V2000
    7.2090    2.0250  -56.1920 O   0  0  0  0  0  0  0  0  0  0  0  0
    8.3090    1.4830  -56.1600 C   0  0  0  0  0  0  0  0  0  0  0  0
    9.3720    1.8920  -56.9520 N   0  0  0  0  0  0  0  0  0  0  0  0
    9.2980    2.9560  -57.9580 C   0  0  2  0  0  0  0  0  0  0  0  0
    8.1510    2.7070  -58.9690 C   0  0  0  0  0  0  0  0  0  0  0  0
    8.1350    3.8050  -60.0490 C   0  0  1  0  0  0  0  0  0  0  0  0
    7.9460    5.1750  -59.3760 C   0  0  0  0  0  0  0  0  0  0  0  0
    9.1000    5.4500  -58.3970 C   0  0  2  0  0  0  0  0  0  0  0  0
   10.4310    5.4290  -59.1650 C   0  0  0  0  0  0  0  0  0  0  0  0
   10.6290    4.0590  -59.8310 C   0  0  2  0  0  0  0  0  0  0  0  0
    9.4710    3.7930  -60.8060 C   0  0  0  0  0  0  0  0  0  0  0  0
   10.6370    2.9690  -58.7480 C   0  0  0  0  0  0  0  0  0  0  0  0
    9.1200    4.3550  -57.3160 C   0  0  0  0  0  0  0  0  0  0  0  0
    8.6080    0.3260  -55.2850 C   0  0  0  0  0  0  0  0  0  0  0  0
    7.7770   -0.2720  -54.2970 C   0  0  0  0  0  0  0  0  0  0  0  0
    8.5030   -1.3140  -53.7570 C   0  0  0  0  0  0  0  0  0  0  0  0
    8.1360   -2.2640  -52.7190 C   0  0  0  0  0  0  0  0  0  0  0  0
    7.7100   -3.5520  -53.0610 C   0  0  0  0  0  0  0  0  0  0  0  0
    7.3620   -4.4640  -52.0640 C   0  0  0  0  0  0  0  0  0  0  0  0
    7.4330   -4.0930  -50.7220 C   0  0  0  0  0  0  0  0  0  0  0  0
    7.8500   -2.8080  -50.3750 C   0  0  0  0  0  0  0  0  0  0  0  0
    8.1970   -1.8940  -51.3710 C   0  0  0  0  0  0  0  0  0  0  0  0
    9.7060   -1.2940  -54.4200 N   0  0  0  0  0  0  0  0  0  0  0  0
   10.8300   -2.2140  -54.2620 C   0  0  0  0  0  0  0  0  0  0  0  0
   11.0640   -3.0500  -55.4980 C   0  0  0  0  0  0  0  0  0  0  0  0
   11.7040   -2.5020  -56.6180 C   0  0  0  0  0  0  0  0  0  0  0  0
   11.9250   -3.2760  -57.7590 C   0  0  0  0  0  0  0  0  0  0  0  0
   11.5140   -4.6080  -57.7890 C   0  0  0  0  0  0  0  0  0  0  0  0
   10.8830   -5.1660  -56.6790 C   0  0  0  0  0  0  0  0  0  0  0  0
   10.6610   -4.3940  -55.5390 C   0  0  0  0  0  0  0  0  0  0  0  0
    9.7810   -0.3270  -55.3590 N   0  0  0  0  0  0  0  0  0  0  0  0
   10.1570    1.2590  -57.0140 H   0  0  0  0  0  0  0  0  0  0  0  0
    8.2984    1.7287  -59.4498 H   0  0  0  0  0  0  0  0  0  0  0  0
    7.1922    2.7245  -58.4301 H   0  0  0  0  0  0  0  0  0  0  0  0
    7.3099    3.6198  -60.7525 H   0  0  0  0  0  0  0  0  0  0  0  0
    7.9291    5.9593  -60.1471 H   0  0  0  0  0  0  0  0  0  0  0  0
    6.9967    5.1738  -58.8203 H   0  0  0  0  0  0  0  0  0  0  0  0
    8.9599    6.4337  -57.9250 H   0  0  0  0  0  0  0  0  0  0  0  0
   10.4186    6.2118  -59.9377 H   0  0  0  0  0  0  0  0  0  0  0  0
   11.2573    5.6129  -58.4625 H   0  0  0  0  0  0  0  0  0  0  0  0
   11.5827    4.0488  -60.3790 H   0  0  0  0  0  0  0  0  0  0  0  0
    9.4587    4.5752  -61.5793 H   0  0  0  0  0  0  0  0  0  0  0  0
    9.6121    2.8079  -61.2746 H   0  0  0  0  0  0  0  0  0  0  0  0
   10.7819    1.9888  -59.2257 H   0  0  0  0  0  0  0  0  0  0  0  0
   11.4559    3.1809  -58.0447 H   0  0  0  0  0  0  0  0  0  0  0  0
    9.9549    4.5444  -56.6253 H   0  0  0  0  0  0  0  0  0  0  0  0
    8.1637    4.3762  -56.7729 H   0  0  0  0  0  0  0  0  0  0  0  0
    6.7581    0.0353  -54.0188 H   0  0  0  0  0  0  0  0  0  0  0  0
    7.6492   -3.8466  -54.1191 H   0  0  0  0  0  0  0  0  0  0  0  0
    7.0312   -5.4769  -52.3372 H   0  0  0  0  0  0  0  0  0  0  0  0
    7.1602   -4.8136  -49.9369 H   0  0  0  0  0  0  0  0  0  0  0  0
    7.9054   -2.5150  -49.3162 H   0  0  0  0  0  0  0  0  0  0  0  0
    8.5196   -0.8792  -51.0953 H   0  0  0  0  0  0  0  0  0  0  0  0
   11.7384   -1.6301  -54.0526 H   0  0  0  0  0  0  0  0  0  0  0  0
   10.5920   -2.8973  -53.4335 H   0  0  0  0  0  0  0  0  0  0  0  0
   12.0350   -1.4532  -56.5980 H   0  0  0  0  0  0  0  0  0  0  0  0
   12.4236   -2.8347  -58.6346 H   0  0  0  0  0  0  0  0  0  0  0  0
   11.6877   -5.2177  -58.6879 H   0  0  0  0  0  0  0  0  0  0  0  0
   10.5595   -6.2171  -56.7020 H   0  0  0  0  0  0  0  0  0  0  0  0
   10.1660   -4.8420  -54.6647 H   0  0  0  0  0  0  0  0  0  0  0  0
  1  2  2  0
  2  3  1  0
  4  3  1  1
  4  5  1  0
  5  6  1  0
  6  7  1  0
  7  8  1  0
  8  9  1  0
  9 10  1  0
 10 11  1  0
 10 12  1  0
  8 13  1  0
  2 14  1  0
 14 15  1  0
 15 16  2  0
 16 17  1  0
 17 18  2  0
 18 19  1  0
 19 20  2  0
 20 21  1  0
 21 22  2  0
 16 23  1  0
 23 24  1  0
 24 25  1  0
 25 26  2  0
 26 27  1  0
 27 28  2  0
 28 29  1  0
 29 30  2  0
 23 31  1  0
 12  4  1  0
 31 14  2  0
 13  4  1  0
 22 17  1  0
 30 25  1  0
 11  6  1  0
  3 32  1  0
  5 33  1  0
  5 34  1  0
  6 35  1  6
  7 36  1  0
  7 37  1  0
  8 38  1  1
  9 39  1  0
  9 40  1  0
 10 41  1  6
 11 42  1  0
 11 43  1  0
 12 44  1  0
 12 45  1  0
 13 46  1  0
 13 47  1  0
 15 48  1  0
 18 49  1  0
 19 50  1  0
 20 51  1  0
 21 52  1  0
 22 53  1  0
 24 54  1  0
 24 55  1  0
 26 56  1  0
 27 57  1  0
 28 58  1  0
 29 59  1  0
 30 60  1  0
M  END
>  <meeko>  (17) 
{"is_sidechain": false}

$$$$

     RDKit          3D

 53 57  0  0  0  0  0  0  0  0999 V2000
    8.7090   -2.0020  -52.5260 C   0  0  0  0  0  0  0  0  0  0  0  0
    8.9600   -1.1400  -53.7060 C   0  0  0  0  0  0  0  0  0  0  0  0
    8.2310   -0.0850  -54.2110 C   0  0  0  0  0  0  0  0  0  0  0  0
    8.9420    0.3710  -55.3460 C   0  0  0  0  0  0  0  0  0  0  0  0
    8.5720    1.4840  -56.2370 C   0  0  0  0  0  0  0  0  0  0  0  0
    7.4520    1.9830  -56.2420 O   0  0  0  0  0  0  0  0  0  0  0  0
    9.6150    1.8860  -57.0430 N   0  0  0  0  0  0  0  0  0  0  0  0
    9.5770    2.9570  -58.0340 C   0  0  2  0  0  0  0  0  0  0  0  0
    8.4680    2.7180  -59.0890 C   0  0  0  0  0  0  0  0  0  0  0  0
    8.4810    3.8330  -60.1490 C   0  0  1  0  0  0  0  0  0  0  0  0
    8.2540    5.1900  -59.4580 C   0  0  0  0  0  0  0  0  0  0  0  0
    9.3690    5.4550  -58.4320 C   0  0  2  0  0  0  0  0  0  0  0  0
   10.7280    5.4580  -59.1500 C   0  0  0  0  0  0  0  0  0  0  0  0
   10.9630    4.1030  -59.8350 C   0  0  2  0  0  0  0  0  0  0  0  0
    9.8440    3.8470  -60.8560 C   0  0  0  0  0  0  0  0  0  0  0  0
   10.9410    2.9920  -58.7740 C   0  0  0  0  0  0  0  0  0  0  0  0
    9.3570    4.3390  -57.3730 C   0  0  0  0  0  0  0  0  0  0  0  0
   10.0560   -0.3630  -55.5450 N   0  0  0  0  0  0  0  0  0  0  0  0
   10.0530   -1.2590  -54.5300 N   0  0  0  0  0  0  0  0  0  0  0  0
   11.1270   -2.2470  -54.4550 C   0  0  0  0  0  0  0  0  0  0  0  0
   11.2070   -3.1110  -55.6920 C   0  0  0  0  0  0  0  0  0  0  0  0
   10.6340   -4.3920  -55.7150 C   0  0  0  0  0  0  0  0  0  0  0  0
   10.7260   -5.1900  -56.8550 C   0  0  0  0  0  0  0  0  0  0  0  0
   11.3980   -4.7230  -57.9820 C   0  0  0  0  0  0  0  0  0  0  0  0
   11.9820   -3.4580  -57.9690 C   0  0  0  0  0  0  0  0  0  0  0  0
   11.8910   -2.6560  -56.8300 C   0  0  0  0  0  0  0  0  0  0  0  0
    8.8777   -1.4227  -51.6062 H   0  0  0  0  0  0  0  0  0  0  0  0
    7.6692   -2.3603  -52.5482 H   0  0  0  0  0  0  0  0  0  0  0  0
    9.3939   -2.8625  -52.5482 H   0  0  0  0  0  0  0  0  0  0  0  0
    7.2888    0.3198  -53.8129 H   0  0  0  0  0  0  0  0  0  0  0  0
   10.4690    1.3520  -56.9020 H   0  0  0  0  0  0  0  0  0  0  0  0
    8.6396    1.7492  -59.5810 H   0  0  0  0  0  0  0  0  0  0  0  0
    7.4909    2.7199  -58.5837 H   0  0  0  0  0  0  0  0  0  0  0  0
    7.6847    3.6526  -60.8861 H   0  0  0  0  0  0  0  0  0  0  0  0
    8.2587    5.9886  -60.2145 H   0  0  0  0  0  0  0  0  0  0  0  0
    7.2845    5.1714  -58.9387 H   0  0  0  0  0  0  0  0  0  0  0  0
    9.2043    6.4287  -57.9474 H   0  0  0  0  0  0  0  0  0  0  0  0
   10.7382    6.2557  -59.9073 H   0  0  0  0  0  0  0  0  0  0  0  0
   11.5255    5.6333  -58.4130 H   0  0  0  0  0  0  0  0  0  0  0  0
   11.9362    4.1115  -60.3477 H   0  0  0  0  0  0  0  0  0  0  0  0
    9.8530    4.6442  -61.6139 H   0  0  0  0  0  0  0  0  0  0  0  0
   10.0109    2.8723  -61.3377 H   0  0  0  0  0  0  0  0  0  0  0  0
   11.1089    2.0221  -59.2651 H   0  0  0  0  0  0  0  0  0  0  0  0
   11.7338    3.1937  -58.0386 H   0  0  0  0  0  0  0  0  0  0  0  0
   10.1606    4.5233  -56.6448 H   0  0  0  0  0  0  0  0  0  0  0  0
    8.3790    4.3391  -56.8694 H   0  0  0  0  0  0  0  0  0  0  0  0
   12.0840   -1.7188  -54.3313 H   0  0  0  0  0  0  0  0  0  0  0  0
   10.9150   -2.9063  -53.6004 H   0  0  0  0  0  0  0  0  0  0  0  0
   10.1077   -4.7699  -54.8260 H   0  0  0  0  0  0  0  0  0  0  0  0
   10.2672   -6.1897  -56.8641 H   0  0  0  0  0  0  0  0  0  0  0  0
   11.4676   -5.3523  -58.8815 H   0  0  0  0  0  0  0  0  0  0  0  0
   12.5157   -3.0906  -58.8579 H   0  0  0  0  0  0  0  0  0  0  0  0
   12.3587   -1.6604  -56.8244 H   0  0  0  0  0  0  0  0  0  0  0  0
  1  2  1  0
  2  3  2  0
  3  4  1  0
  4  5  1  0
  5  6  2  0
  5  7  1  0
  8  7  1  1
  8  9  1  0
  9 10  1  0
 10 11  1  0
 11 12  1  0
 12 13  1  0
 13 14  1  0
 14 15  1  0
 14 16  1  0
 12 17  1  0
  4 18  2  0
 18 19  1  0
 19 20  1  0
 20 21  1  0
 21 22  2  0
 22 23  1  0
 23 24  2  0
 24 25  1  0
 25 26  2  0
 19  2  1  0
 26 21  1  0
 16  8  1  0
 17  8  1  0
 15 10  1  0
  1 27  1  0
  1 28  1  0
  1 29  1  0
  3 30  1  0
  7 31  1  0
  9 32  1  0
  9 33  1  0
 10 34  1  6
 11 35  1  0
 11 36  1  0
 12 37  1  1
 13 38  1  0
 13 39  1  0
 14 40  1  6
 15 41  1  0
 15 42  1  0
 16 43  1  0
 16 44  1  0
 17 45  1  0
 17 46  1  0
 20 47  1  0
 20 48  1  0
 22 49  1  0
 23 50  1  0
 24 51  1  0
 25 52  1  0
 26 53  1  0
M  END
>  <meeko>  (18) 
{"is_sidechain": false}

$$$$

     RDKit          3D

 49 52  0  0  0  0  0  0  0  0999 V2000
    5.8720    1.3850  -56.0520 O   0  0  0  0  0  0  0  0  0  0  0  0
    7.0980    1.2460  -56.0430 C   0  0  0  0  0  0  0  0  0  0  0  0
    7.6910    0.1700  -55.2150 C   0  0  0  0  0  0  0  0  0  0  0  0
    7.0220   -0.4980  -54.1520 C   0  0  0  0  0  0  0  0  0  0  0  0
    7.9280   -1.3850  -53.6140 C   0  0  0  0  0  0  0  0  0  0  0  0
    7.7740   -2.3190  -52.5090 C   0  0  0  0  0  0  0  0  0  0  0  0
    7.4810   -3.6640  -52.7550 C   0  0  0  0  0  0  0  0  0  0  0  0
    7.3410   -4.5590  -51.6940 C   0  0  0  0  0  0  0  0  0  0  0  0
    7.4860   -4.1120  -50.3810 C   0  0  0  0  0  0  0  0  0  0  0  0
    7.7660   -2.7700  -50.1280 C   0  0  0  0  0  0  0  0  0  0  0  0
    7.9070   -1.8740  -51.1900 C   0  0  0  0  0  0  0  0  0  0  0  0
    9.0800   -1.2050  -54.3430 N   0  0  0  0  0  0  0  0  0  0  0  0
   10.3750   -1.8480  -54.1350 C   0  0  0  0  0  0  0  0  0  0  0  0
   10.7770   -2.7250  -55.2960 C   0  0  0  0  0  0  0  0  0  0  0  0
   11.5200   -2.1950  -56.3610 C   0  0  0  0  0  0  0  0  0  0  0  0
   11.8860   -3.0020  -57.4410 C   0  0  0  0  0  0  0  0  0  0  0  0
   11.5080   -4.3420  -57.4720 C   0  0  0  0  0  0  0  0  0  0  0  0
   10.7610   -4.8790  -56.4250 C   0  0  0  0  0  0  0  0  0  0  0  0
   10.3940   -4.0750  -55.3440 C   0  0  0  0  0  0  0  0  0  0  0  0
    8.9680   -0.2500  -55.2960 N   0  0  0  0  0  0  0  0  0  0  0  0
    7.9220    2.0940  -56.8130 N   0  0  0  0  0  0  0  0  0  0  0  0
    7.3490    3.3840  -57.1900 C   0  0  0  0  0  0  0  0  0  0  0  0
    7.9350    3.9430  -58.4820 C   0  0  0  0  0  0  0  0  0  0  0  0
    9.4560    3.9660  -58.4290 C   0  0  0  0  0  0  0  0  0  0  0  0
    9.9800    2.5660  -58.1410 C   0  0  0  0  0  0  0  0  0  0  0  0
    9.3810    1.9840  -56.8620 C   0  0  0  0  0  0  0  0  0  0  0  0
    5.9844   -0.3376  -53.8240 H   0  0  0  0  0  0  0  0  0  0  0  0
    7.3604   -4.0179  -53.7895 H   0  0  0  0  0  0  0  0  0  0  0  0
    7.1162   -5.6172  -51.8931 H   0  0  0  0  0  0  0  0  0  0  0  0
    7.3794   -4.8186  -49.5447 H   0  0  0  0  0  0  0  0  0  0  0  0
    7.8759   -2.4168  -49.0920 H   0  0  0  0  0  0  0  0  0  0  0  0
    8.1234   -0.8146  -50.9882 H   0  0  0  0  0  0  0  0  0  0  0  0
   11.1389   -1.0679  -54.0009 H   0  0  0  0  0  0  0  0  0  0  0  0
   10.2913   -2.4888  -53.2448 H   0  0  0  0  0  0  0  0  0  0  0  0
   11.8168   -1.1359  -56.3457 H   0  0  0  0  0  0  0  0  0  0  0  0
   12.4739   -2.5782  -58.2685 H   0  0  0  0  0  0  0  0  0  0  0  0
   11.7988   -4.9763  -58.3224 H   0  0  0  0  0  0  0  0  0  0  0  0
   10.4604   -5.9368  -56.4503 H   0  0  0  0  0  0  0  0  0  0  0  0
    9.7998   -4.5028  -54.5231 H   0  0  0  0  0  0  0  0  0  0  0  0
    6.2640    3.2601  -57.3223 H   0  0  0  0  0  0  0  0  0  0  0  0
    7.5867    4.0964  -56.3863 H   0  0  0  0  0  0  0  0  0  0  0  0
    7.6144    3.3123  -59.3243 H   0  0  0  0  0  0  0  0  0  0  0  0
    7.5743    4.9741  -58.6118 H   0  0  0  0  0  0  0  0  0  0  0  0
    9.8505    4.3125  -59.3956 H   0  0  0  0  0  0  0  0  0  0  0  0
    9.7827    4.6488  -57.6309 H   0  0  0  0  0  0  0  0  0  0  0  0
    9.7220    1.9094  -58.9850 H   0  0  0  0  0  0  0  0  0  0  0  0
   11.0699    2.6314  -58.0072 H   0  0  0  0  0  0  0  0  0  0  0  0
    9.6548    0.9205  -56.7989 H   0  0  0  0  0  0  0  0  0  0  0  0
    9.7835    2.5620  -56.0171 H   0  0  0  0  0  0  0  0  0  0  0  0
  1  2  2  0
  2  3  1  0
  3  4  1  0
  4  5  2  0
  5  6  1  0
  6  7  2  0
  7  8  1  0
  8  9  2  0
  9 10  1  0
 10 11  2  0
  5 12  1  0
 12 13  1  0
 13 14  1  0
 14 15  2  0
 15 16  1  0
 16 17  2  0
 17 18  1  0
 18 19  2  0
 12 20  1  0
  2 21  1  0
 21 22  1  0
 22 23  1  0
 23 24  1  0
 24 25  1  0
 25 26  1  0
 20  3  2  0
 26 21  1  0
 11  6  1  0
 19 14  1  0
  4 27  1  0
  7 28  1  0
  8 29  1  0
  9 30  1  0
 10 31  1  0
 11 32  1  0
 13 33  1  0
 13 34  1  0
 15 35  1  0
 16 36  1  0
 17 37  1  0
 18 38  1  0
 19 39  1  0
 22 40  1  0
 22 41  1  0
 23 42  1  0
 23 43  1  0
 24 44  1  0
 24 45  1  0
 25 46  1  0
 25 47  1  0
 26 48  1  0
 26 49  1  0
M  END
>  <meeko>  (19) 
{"is_sidechain": false}

$$$$

     RDKit          3D

 49 52  0  0  0  0  0  0  0  0999 V2000
    5.9050    1.3640  -55.8960 O   0  0  0  0  0  0  0  0  0  0  0  0
    7.1120    1.1560  -55.8150 C   0  0  0  0  0  0  0  0  0  0  0  0
    8.0670    1.8920  -56.4830 N   0  0  0  0  0  0  0  0  0  0  0  0
    7.7520    3.1060  -57.2080 C   0  0  0  0  0  0  0  0  0  0  0  0
    7.9880    2.9380  -58.7050 C   0  0  0  0  0  0  0  0  0  0  0  0
    9.4840    3.1720  -58.8990 C   0  0  0  0  0  0  0  0  0  0  0  0
    9.9550    3.9680  -57.6810 C   0  0  0  0  0  0  0  0  0  0  0  0
    8.7060    4.2430  -56.8500 C   0  0  0  0  0  0  0  0  0  0  0  0
    7.6900    0.0960  -54.9730 C   0  0  0  0  0  0  0  0  0  0  0  0
    7.0200   -0.6690  -53.9880 C   0  0  0  0  0  0  0  0  0  0  0  0
    7.9650   -1.5260  -53.4630 C   0  0  0  0  0  0  0  0  0  0  0  0
    7.8300   -2.5340  -52.4250 C   0  0  0  0  0  0  0  0  0  0  0  0
    8.1550   -2.2300  -51.0990 C   0  0  0  0  0  0  0  0  0  0  0  0
    8.0170   -3.1970  -50.1020 C   0  0  0  0  0  0  0  0  0  0  0  0
    7.5560   -4.4730  -50.4260 C   0  0  0  0  0  0  0  0  0  0  0  0
    7.2390   -4.7840  -51.7470 C   0  0  0  0  0  0  0  0  0  0  0  0
    7.3780   -3.8190  -52.7450 C   0  0  0  0  0  0  0  0  0  0  0  0
    9.1330   -1.2270  -54.1270 N   0  0  0  0  0  0  0  0  0  0  0  0
   10.4350   -1.8690  -53.9660 C   0  0  0  0  0  0  0  0  0  0  0  0
   10.8030   -2.7270  -55.1520 C   0  0  0  0  0  0  0  0  0  0  0  0
   10.4340   -4.0800  -55.2020 C   0  0  0  0  0  0  0  0  0  0  0  0
   10.7810   -4.8710  -56.2970 C   0  0  0  0  0  0  0  0  0  0  0  0
   11.5040   -4.3210  -57.3540 C   0  0  0  0  0  0  0  0  0  0  0  0
   11.8830   -2.9800  -57.3140 C   0  0  0  0  0  0  0  0  0  0  0  0
   11.5370   -2.1870  -56.2180 C   0  0  0  0  0  0  0  0  0  0  0  0
    8.9880   -0.2580  -55.0630 N   0  0  0  0  0  0  0  0  0  0  0  0
    9.0240    1.6750  -56.2170 H   0  0  0  0  0  0  0  0  0  0  0  0
    6.7046    3.3198  -56.9487 H   0  0  0  0  0  0  0  0  0  0  0  0
    7.7103    1.9240  -59.0286 H   0  0  0  0  0  0  0  0  0  0  0  0
    7.3805    3.6362  -59.2995 H   0  0  0  0  0  0  0  0  0  0  0  0
   10.0159    2.2107  -58.9548 H   0  0  0  0  0  0  0  0  0  0  0  0
    9.6860    3.7149  -59.8341 H   0  0  0  0  0  0  0  0  0  0  0  0
   10.6804    3.3813  -57.0982 H   0  0  0  0  0  0  0  0  0  0  0  0
   10.4547    4.9017  -57.9785 H   0  0  0  0  0  0  0  0  0  0  0  0
    8.9425    4.2287  -55.7758 H   0  0  0  0  0  0  0  0  0  0  0  0
    8.2742    5.2331  -57.0581 H   0  0  0  0  0  0  0  0  0  0  0  0
    5.9610   -0.5951  -53.6998 H   0  0  0  0  0  0  0  0  0  0  0  0
    8.5207   -1.2252  -50.8410 H   0  0  0  0  0  0  0  0  0  0  0  0
    8.2719   -2.9527  -49.0602 H   0  0  0  0  0  0  0  0  0  0  0  0
    7.4427   -5.2334  -49.6393 H   0  0  0  0  0  0  0  0  0  0  0  0
    6.8788   -5.7913  -52.0031 H   0  0  0  0  0  0  0  0  0  0  0  0
    7.1313   -4.0693  -53.7874 H   0  0  0  0  0  0  0  0  0  0  0  0
   11.2008   -1.0890  -53.8428 H   0  0  0  0  0  0  0  0  0  0  0  0
   10.3803   -2.5225  -53.0829 H   0  0  0  0  0  0  0  0  0  0  0  0
    9.8657   -4.5208  -54.3697 H   0  0  0  0  0  0  0  0  0  0  0  0
   10.4839   -5.9297  -56.3264 H   0  0  0  0  0  0  0  0  0  0  0  0
   11.7753   -4.9443  -58.2188 H   0  0  0  0  0  0  0  0  0  0  0  0
   12.4554   -2.5460  -58.1470 H   0  0  0  0  0  0  0  0  0  0  0  0
   11.8425   -1.1306  -56.1905 H   0  0  0  0  0  0  0  0  0  0  0  0
  1  2  2  0
  2  3  1  0
  3  4  1  0
  4  5  1  0
  5  6  1  0
  6  7  1  0
  7  8  1  0
  2  9  1  0
  9 10  1  0
 10 11  2  0
 11 12  1  0
 12 13  2  0
 13 14  1  0
 14 15  2  0
 15 16  1  0
 16 17  2  0
 11 18  1  0
 18 19  1  0
 19 20  1  0
 20 21  2  0
 21 22  1  0
 22 23  2  0
 23 24  1  0
 24 25  2  0
 18 26  1  0
  8  4  1  0
 26  9  2  0
 17 12  1  0
 25 20  1  0
  3 27  1  0
  4 28  1  0
  5 29  1  0
  5 30  1  0
  6 31  1  0
  6 32  1  0
  7 33  1  0
  7 34  1  0
  8 35  1  0
  8 36  1  0
 10 37  1  0
 13 38  1  0
 14 39  1  0
 15 40  1  0
 16 41  1  0
 17 42  1  0
 19 43  1  0
 19 44  1  0
 21 45  1  0
 22 46  1  0
 23 47  1  0
 24 48  1  0
 25 49  1  0
M  END
>  <meeko>  (20) 
{"is_sidechain": false}

$$$$

     RDKit          3D

 59 63  0  0  0  0  0  0  0  0999 V2000
   11.5550   -4.4720  -54.9670 C   0  0  0  0  0  0  0  0  0  0  0  0
   10.7830   -3.2210  -55.3920 C   0  0  0  0  0  0  0  0  0  0  0  0
   11.5350   -2.5020  -56.5130 C   0  0  0  0  0  0  0  0  0  0  0  0
   10.5580   -2.2560  -54.2160 C   0  0  0  0  0  0  0  0  0  0  0  0
    9.4130   -1.3760  -54.3870 N   0  0  0  0  0  0  0  0  0  0  0  0
    9.4640   -0.4280  -55.3490 N   0  0  0  0  0  0  0  0  0  0  0  0
    8.2980    0.2380  -55.2190 C   0  0  0  0  0  0  0  0  0  0  0  0
    7.9560    1.3840  -56.0780 C   0  0  0  0  0  0  0  0  0  0  0  0
    6.8400    1.8910  -56.0900 O   0  0  0  0  0  0  0  0  0  0  0  0
    9.0190    1.8060  -56.8460 N   0  0  0  0  0  0  0  0  0  0  0  0
    9.0120    2.9150  -57.7940 C   0  0  2  0  0  0  0  0  0  0  0  0
   10.3600    2.9130  -58.5630 C   0  0  0  0  0  0  0  0  0  0  0  0
   10.4150    4.0640  -59.5810 C   0  0  1  0  0  0  0  0  0  0  0  0
    9.2630    3.9030  -60.5860 C   0  0  0  0  0  0  0  0  0  0  0  0
    7.9150    3.9270  -59.8480 C   0  0  2  0  0  0  0  0  0  0  0  0
    7.7710    5.2640  -59.1010 C   0  0  0  0  0  0  0  0  0  0  0  0
    8.9180    5.4340  -58.0910 C   0  0  2  0  0  0  0  0  0  0  0  0
   10.2600    5.4010  -58.8400 C   0  0  0  0  0  0  0  0  0  0  0  0
    8.8740    4.2790  -57.0750 C   0  0  0  0  0  0  0  0  0  0  0  0
    7.8710    2.7720  -58.8310 C   0  0  0  0  0  0  0  0  0  0  0  0
    7.5110   -0.3160  -54.1820 C   0  0  0  0  0  0  0  0  0  0  0  0
    8.2380   -1.3730  -53.6720 C   0  0  0  0  0  0  0  0  0  0  0  0
    7.9070   -2.2870  -52.5870 C   0  0  0  0  0  0  0  0  0  0  0  0
    8.0690   -1.8820  -51.2570 C   0  0  0  0  0  0  0  0  0  0  0  0
    7.7560   -2.7550  -50.2130 C   0  0  0  0  0  0  0  0  0  0  0  0
    7.2710   -4.0310  -50.4910 C   0  0  0  0  0  0  0  0  0  0  0  0
    7.0930   -4.4370  -51.8130 C   0  0  0  0  0  0  0  0  0  0  0  0
    7.4070   -3.5650  -52.8590 C   0  0  0  0  0  0  0  0  0  0  0  0
   11.5887   -4.5266  -53.8689 H   0  0  0  0  0  0  0  0  0  0  0  0
   11.0513   -5.3660  -55.3633 H   0  0  0  0  0  0  0  0  0  0  0  0
   12.5799   -4.4227  -55.3633 H   0  0  0  0  0  0  0  0  0  0  0  0
    9.7957   -3.5464  -55.7516 H   0  0  0  0  0  0  0  0  0  0  0  0
   12.2647   -1.8043  -56.0762 H   0  0  0  0  0  0  0  0  0  0  0  0
   12.0613   -3.2414  -57.1345 H   0  0  0  0  0  0  0  0  0  0  0  0
   10.8199   -1.9431  -57.1345 H   0  0  0  0  0  0  0  0  0  0  0  0
   10.4041   -2.8514  -53.3039 H   0  0  0  0  0  0  0  0  0  0  0  0
   11.4486   -1.6132  -54.1554 H   0  0  0  0  0  0  0  0  0  0  0  0
    9.8680    1.2650  -56.7010 H   0  0  0  0  0  0  0  0  0  0  0  0
   11.1845    3.0288  -57.8441 H   0  0  0  0  0  0  0  0  0  0  0  0
   10.4528    1.9605  -59.1054 H   0  0  0  0  0  0  0  0  0  0  0  0
   11.3772    4.0457  -60.1137 H   0  0  0  0  0  0  0  0  0  0  0  0
    9.2953    4.7282  -61.3126 H   0  0  0  0  0  0  0  0  0  0  0  0
    9.3715    2.9414  -61.1089 H   0  0  0  0  0  0  0  0  0  0  0  0
    7.0945    3.8147  -60.5720 H   0  0  0  0  0  0  0  0  0  0  0  0
    7.8000    6.0905  -59.8263 H   0  0  0  0  0  0  0  0  0  0  0  0
    6.8128    5.2720  -58.5608 H   0  0  0  0  0  0  0  0  0  0  0  0
    8.8109    6.3940  -57.5647 H   0  0  0  0  0  0  0  0  0  0  0  0
   10.2921    6.2262  -59.5667 H   0  0  0  0  0  0  0  0  0  0  0  0
   11.0807    5.5099  -58.1157 H   0  0  0  0  0  0  0  0  0  0  0  0
    9.7010    4.3956  -56.3592 H   0  0  0  0  0  0  0  0  0  0  0  0
    7.9084    4.3063  -56.5488 H   0  0  0  0  0  0  0  0  0  0  0  0
    6.9033    2.7874  -58.3082 H   0  0  0  0  0  0  0  0  0  0  0  0
    7.9979    1.8209  -59.3689 H   0  0  0  0  0  0  0  0  0  0  0  0
    6.5200    0.0263  -53.8493 H   0  0  0  0  0  0  0  0  0  0  0  0
    8.4442   -0.8724  -51.0334 H   0  0  0  0  0  0  0  0  0  0  0  0
    7.8926   -2.4347  -49.1696 H   0  0  0  0  0  0  0  0  0  0  0  0
    7.0284   -4.7185  -49.6673 H   0  0  0  0  0  0  0  0  0  0  0  0
    6.7057   -5.4429  -52.0325 H   0  0  0  0  0  0  0  0  0  0  0  0
    7.2603   -3.8850  -53.9011 H   0  0  0  0  0  0  0  0  0  0  0  0
  1  2  1  0
  2  3  1  0
  2  4  1  0
  4  5  1  0
  5  6  1  0
  6  7  2  0
  7  8  1  0
  8  9  2  0
  8 10  1  0
 11 10  1  1
 11 12  1  0
 12 13  1  0
 13 14  1  0
 14 15  1  0
 15 16  1  0
 16 17  1  0
 17 18  1  0
 17 19  1  0
 15 20  1  0
  7 21  1  0
 21 22  2  0
 22 23  1  0
 23 24  2  0
 24 25  1  0
 25 26  2  0
 26 27  1  0
 27 28  2  0
 22  5  1  0
 28 23  1  0
 19 11  1  0
 20 11  1  0
 18 13  1  0
  1 29  1  0
  1 30  1  0
  1 31  1  0
  2 32  1  0
  3 33  1  0
  3 34  1  0
  3 35  1  0
  4 36  1  0
  4 37  1  0
 10 38  1  0
 12 39  1  0
 12 40  1  0
 13 41  1  6
 14 42  1  0
 14 43  1  0
 15 44  1  6
 16 45  1  0
 16 46  1  0
 17 47  1  1
 18 48  1  0
 18 49  1  0
 19 50  1  0
 19 51  1  0
 20 52  1  0
 20 53  1  0
 21 54  1  0
 24 55  1  0
 25 56  1  0
 26 57  1  0
 27 58  1  0
 28 59  1  0
M  END
>  <meeko>  (21) 
{"is_sidechain": false}

$$$$

     RDKit          3D

 48 52  0  0  0  0  0  0  0  0999 V2000
    6.5200    2.0750  -56.6880 O   0  0  0  0  0  0  0  0  0  0  0  0
    7.5950    1.6040  -56.3360 C   0  0  0  0  0  0  0  0  0  0  0  0
    8.8220    1.9640  -56.8570 N   0  0  0  0  0  0  0  0  0  0  0  0
    9.0430    2.9560  -57.9090 C   0  0  2  0  0  0  0  0  0  0  0  0
    7.9760    2.8510  -59.0260 C   0  0  0  0  0  0  0  0  0  0  0  0
    8.2020    3.9370  -60.0950 C   0  0  1  0  0  0  0  0  0  0  0  0
    8.0980    5.3220  -59.4400 C   0  0  0  0  0  0  0  0  0  0  0  0
    9.1610    5.4630  -58.3390 C   0  0  2  0  0  0  0  0  0  0  0  0
   10.5580    5.2900  -58.9540 C   0  0  0  0  0  0  0  0  0  0  0  0
   10.6760    3.9030  -59.6060 C   0  0  2  0  0  0  0  0  0  0  0  0
    9.6050    3.7650  -60.7010 C   0  0  0  0  0  0  0  0  0  0  0  0
   10.4510    2.8170  -58.5380 C   0  0  0  0  0  0  0  0  0  0  0  0
    8.9370    4.3710  -57.2800 C   0  0  0  0  0  0  0  0  0  0  0  0
    7.6480    0.5620  -55.2700 C   0  0  0  0  0  0  0  0  0  0  0  0
    8.8270    0.2680  -54.6120 C   0  0  0  0  0  0  0  0  0  0  0  0
    8.8040   -0.7170  -53.6260 C   0  0  0  0  0  0  0  0  0  0  0  0
    7.6080   -1.3690  -53.3330 C   0  0  0  0  0  0  0  0  0  0  0  0
    7.4800   -2.4250  -52.3100 C   0  0  0  0  0  0  0  0  0  0  0  0
    8.1420   -2.3490  -51.0690 C   0  0  0  0  0  0  0  0  0  0  0  0
    8.0130   -3.3610  -50.1120 C   0  0  0  0  0  0  0  0  0  0  0  0
    7.2160   -4.4720  -50.3730 C   0  0  0  0  0  0  0  0  0  0  0  0
    6.5450   -4.5700  -51.5860 C   0  0  0  0  0  0  0  0  0  0  0  0
    6.6740   -3.5560  -52.5410 C   0  0  0  0  0  0  0  0  0  0  0  0
    6.4770   -1.0490  -54.0130 N   0  0  0  0  0  0  0  0  0  0  0  0
    6.4900   -0.0790  -54.9860 N   0  0  0  0  0  0  0  0  0  0  0  0
    9.6280    1.4830  -56.4660 H   0  0  0  0  0  0  0  0  0  0  0  0
    8.0429    1.8596  -59.4979 H   0  0  0  0  0  0  0  0  0  0  0  0
    6.9805    2.9936  -58.5803 H   0  0  0  0  0  0  0  0  0  0  0  0
    7.4427    3.8444  -60.8855 H   0  0  0  0  0  0  0  0  0  0  0  0
    8.2578    6.0986  -60.2024 H   0  0  0  0  0  0  0  0  0  0  0  0
    7.0988    5.4370  -58.9946 H   0  0  0  0  0  0  0  0  0  0  0  0
    9.0827    6.4568  -57.8740 H   0  0  0  0  0  0  0  0  0  0  0  0
   10.7192    6.0662  -59.7166 H   0  0  0  0  0  0  0  0  0  0  0  0
   11.3157    5.3829  -58.1620 H   0  0  0  0  0  0  0  0  0  0  0  0
   11.6766    3.7863  -60.0477 H   0  0  0  0  0  0  0  0  0  0  0  0
    9.7671    4.5372  -61.4674 H   0  0  0  0  0  0  0  0  0  0  0  0
    9.6808    2.7654  -61.1538 H   0  0  0  0  0  0  0  0  0  0  0  0
   10.5420    1.8255  -59.0056 H   0  0  0  0  0  0  0  0  0  0  0  0
   11.2064    2.9349  -57.7471 H   0  0  0  0  0  0  0  0  0  0  0  0
    9.6980    4.4724  -56.4922 H   0  0  0  0  0  0  0  0  0  0  0  0
    7.9280    4.4927  -56.8591 H   0  0  0  0  0  0  0  0  0  0  0  0
    9.7590    0.7972  -54.8597 H   0  0  0  0  0  0  0  0  0  0  0  0
    9.7242   -0.9779  -53.0827 H   0  0  0  0  0  0  0  0  0  0  0  0
    8.7734   -1.4758  -50.8479 H   0  0  0  0  0  0  0  0  0  0  0  0
    8.5424   -3.2787  -49.1513 H   0  0  0  0  0  0  0  0  0  0  0  0
    7.1177   -5.2695  -49.6218 H   0  0  0  0  0  0  0  0  0  0  0  0
    5.9123   -5.4451  -51.7952 H   0  0  0  0  0  0  0  0  0  0  0  0
    6.1331   -3.6444  -53.4947 H   0  0  0  0  0  0  0  0  0  0  0  0
  1  2  2  0
  2  3  1  0
  4  3  1  1
  4  5  1  0
  5  6  1  0
  6  7  1  0
  7  8  1  0
  8  9  1  0
  9 10  1  0
 10 11  1  0
 10 12  1  0
  8 13  1  0
  2 14  1  0
 14 15  2  0
 15 16  1  0
 16 17  2  0
 17 18  1  0
 18 19  2  0
 19 20  1  0
 20 21  2  0
 21 22  1  0
 22 23  2  0
 17 24  1  0
 24 25  2  0
 12  4  1  0
 25 14  1  0
 13  4  1  0
 23 18  1  0
 11  6  1  0
  3 26  1  0
  5 27  1  0
  5 28  1  0
  6 29  1  6
  7 30  1  0
  7 31  1  0
  8 32  1  1
  9 33  1  0
  9 34  1  0
 10 35  1  6
 11 36  1  0
 11 37  1  0
 12 38  1  0
 12 39  1  0
 13 40  1  0
 13 41  1  0
 15 42  1  0
 16 43  1  0
 19 44  1  0
 20 45  1  0
 21 46  1  0
 22 47  1  0
 23 48  1  0
M  END
>  <meeko>  (22) 
{"is_sidechain": false}

$$$$

     RDKit          3D

 49 53  0  0  0  0  0  0  0  0999 V2000
    6.3910    2.1310  -56.7400 O   0  0  0  0  0  0  0  0  0  0  0  0
    7.4490    1.6450  -56.3580 C   0  0  0  0  0  0  0  0  0  0  0  0
    8.6960    1.9820  -56.8430 N   0  0  0  0  0  0  0  0  0  0  0  0
    8.9750    2.9650  -57.8860 C   0  0  2  0  0  0  0  0  0  0  0  0
   10.3990    2.7880  -58.4680 C   0  0  0  0  0  0  0  0  0  0  0  0
   10.6870    3.8640  -59.5310 C   0  0  1  0  0  0  0  0  0  0  0  0
    9.6490    3.7500  -60.6600 C   0  0  0  0  0  0  0  0  0  0  0  0
    8.2320    3.9590  -60.1000 C   0  0  2  0  0  0  0  0  0  0  0  0
    8.1420    5.3500  -59.4520 C   0  0  0  0  0  0  0  0  0  0  0  0
    9.1720    5.4660  -58.3170 C   0  0  2  0  0  0  0  0  0  0  0  0
   10.5840    5.2550  -58.8860 C   0  0  0  0  0  0  0  0  0  0  0  0
    8.8870    4.3830  -57.2640 C   0  0  0  0  0  0  0  0  0  0  0  0
    7.9440    2.8830  -59.0380 C   0  0  0  0  0  0  0  0  0  0  0  0
    7.4790    0.5960  -55.2870 C   0  0  0  0  0  0  0  0  0  0  0  0
    8.6680    0.3090  -54.6300 C   0  0  0  0  0  0  0  0  0  0  0  0
    8.6520   -0.6740  -53.6410 C   0  0  0  0  0  0  0  0  0  0  0  0
    7.4630   -1.3460  -53.3260 C   0  0  0  0  0  0  0  0  0  0  0  0
    7.4140   -2.3870  -52.2900 C   0  0  0  0  0  0  0  0  0  0  0  0
    8.1500   -2.2590  -51.0990 C   0  0  0  0  0  0  0  0  0  0  0  0
    8.1020   -3.2460  -50.1120 C   0  0  0  0  0  0  0  0  0  0  0  0
    7.3170   -4.3820  -50.2980 C   0  0  0  0  0  0  0  0  0  0  0  0
    6.5820   -4.5300  -51.4700 C   0  0  0  0  0  0  0  0  0  0  0  0
    6.6290   -3.5410  -52.4570 C   0  0  0  0  0  0  0  0  0  0  0  0
    6.3280   -0.9740  -54.0510 C   0  0  0  0  0  0  0  0  0  0  0  0
    6.2970   -0.0270  -55.0190 N   0  0  0  0  0  0  0  0  0  0  0  0
    9.4660    1.4740  -56.4120 H   0  0  0  0  0  0  0  0  0  0  0  0
   11.1353    2.8762  -57.6555 H   0  0  0  0  0  0  0  0  0  0  0  0
   10.4692    1.7963  -58.9388 H   0  0  0  0  0  0  0  0  0  0  0  0
   11.6979    3.7201  -59.9401 H   0  0  0  0  0  0  0  0  0  0  0  0
    9.8553    4.5158  -61.4223 H   0  0  0  0  0  0  0  0  0  0  0  0
    9.7141    2.7476  -61.1083 H   0  0  0  0  0  0  0  0  0  0  0  0
    7.4961    3.8829  -60.9141 H   0  0  0  0  0  0  0  0  0  0  0  0
    8.3470    6.1197  -60.2106 H   0  0  0  0  0  0  0  0  0  0  0  0
    7.1320    5.4932  -59.0405 H   0  0  0  0  0  0  0  0  0  0  0  0
    9.1033    6.4627  -57.8567 H   0  0  0  0  0  0  0  0  0  0  0  0
   10.7901    6.0246  -59.6444 H   0  0  0  0  0  0  0  0  0  0  0  0
   11.3177    5.3304  -58.0699 H   0  0  0  0  0  0  0  0  0  0  0  0
    9.6258    4.4665  -56.4533 H   0  0  0  0  0  0  0  0  0  0  0  0
    7.8689    4.5321  -56.8751 H   0  0  0  0  0  0  0  0  0  0  0  0
    6.9339    3.0380  -58.6309 H   0  0  0  0  0  0  0  0  0  0  0  0
    8.0164    1.8915  -59.5089 H   0  0  0  0  0  0  0  0  0  0  0  0
    9.5965    0.8420  -54.8825 H   0  0  0  0  0  0  0  0  0  0  0  0
    9.5791   -0.9238  -53.1043 H   0  0  0  0  0  0  0  0  0  0  0  0
    8.7739   -1.3668  -50.9419 H   0  0  0  0  0  0  0  0  0  0  0  0
    8.6846   -3.1264  -49.1867 H   0  0  0  0  0  0  0  0  0  0  0  0
    7.2785   -5.1594  -49.5207 H   0  0  0  0  0  0  0  0  0  0  0  0
    5.9629   -5.4267  -51.6203 H   0  0  0  0  0  0  0  0  0  0  0  0
    6.0424   -3.6679  -53.3788 H   0  0  0  0  0  0  0  0  0  0  0  0
    5.3855   -1.4908  -53.8173 H   0  0  0  0  0  0  0  0  0  0  0  0
  1  2  2  0
  2  3  1  0
  4  3  1  1
  4  5  1  0
  5  6  1  0
  6  7  1  0
  7  8  1  0
  8  9  1  0
  9 10  1  0
 10 11  1  0
 10 12  1  0
  8 13  1  0
  2 14  1  0
 14 15  2  0
 15 16  1  0
 16 17  2  0
 17 18  1  0
 18 19  2  0
 19 20  1  0
 20 21  2  0
 21 22  1  0
 22 23  2  0
 17 24  1  0
 24 25  2  0
 12  4  1  0
 25 14  1  0
 13  4  1  0
 23 18  1  0
 11  6  1  0
  3 26  1  0
  5 27  1  0
  5 28  1  0
  6 29  1  6
  7 30  1  0
  7 31  1  0
  8 32  1  6
  9 33  1  0
  9 34  1  0
 10 35  1  1
 11 36  1  0
 11 37  1  0
 12 38  1  0
 12 39  1  0
 13 40  1  0
 13 41  1  0
 15 42  1  0
 16 43  1  0
 19 44  1  0
 20 45  1  0
 21 46  1  0
 22 47  1  0
 23 48  1  0
 24 49  1  0
M  END
>  <meeko>  (23) 
{"is_sidechain": false}

$$$$

     RDKit          3D

 43 47  0  0  0  0  0  0  0  0999 V2000
    6.4800    2.1210  -56.4660 O   0  0  0  0  0  0  0  0  0  0  0  0
    7.5360    1.5390  -56.2510 C   0  0  0  0  0  0  0  0  0  0  0  0
    8.7460    1.8690  -56.8300 N   0  0  0  0  0  0  0  0  0  0  0  0
    8.9430    2.9910  -57.7550 C   0  0  2  0  0  0  0  0  0  0  0  0
    7.8880    3.0000  -58.8900 C   0  0  0  0  0  0  0  0  0  0  0  0
    8.1550    4.1570  -59.8700 C   0  0  1  0  0  0  0  0  0  0  0  0
    8.1030    5.4900  -59.1030 C   0  0  0  0  0  0  0  0  0  0  0  0
    9.1720    5.5070  -57.9970 C   0  0  2  0  0  0  0  0  0  0  0  0
   10.5600    5.3260  -58.6320 C   0  0  0  0  0  0  0  0  0  0  0  0
   10.6190    3.9910  -59.3920 C   0  0  2  0  0  0  0  0  0  0  0  0
    9.5470    3.9840  -60.4940 C   0  0  0  0  0  0  0  0  0  0  0  0
   10.3420    2.8400  -58.4120 C   0  0  0  0  0  0  0  0  0  0  0  0
    8.9060    4.3520  -57.0160 C   0  0  0  0  0  0  0  0  0  0  0  0
    7.5670    0.4160  -55.2730 C   0  0  0  0  0  0  0  0  0  0  0  0
    6.3510   -0.2370  -54.9680 C   0  0  0  0  0  0  0  0  0  0  0  0
    6.3170   -1.2990  -54.0600 C   0  0  0  0  0  0  0  0  0  0  0  0
    7.5090   -1.6870  -53.4860 C   0  0  0  0  0  0  0  0  0  0  0  0
    8.6960   -1.0630  -53.7910 C   0  0  0  0  0  0  0  0  0  0  0  0
    8.7650   -0.0120  -54.6820 C   0  0  0  0  0  0  0  0  0  0  0  0
    9.7520   -1.6050  -53.1250 O   0  0  0  0  0  0  0  0  0  0  0  0
    9.0930   -2.6460  -52.3720 C   0  0  0  0  0  0  0  0  0  0  0  0
    7.6670   -2.6950  -52.5890 O   0  0  0  0  0  0  0  0  0  0  0  0
    9.5790    1.4840  -56.4070 H   0  0  0  0  0  0  0  0  0  0  0  0
    7.9360    2.0460  -59.4355 H   0  0  0  0  0  0  0  0  0  0  0  0
    6.8908    3.1350  -58.4457 H   0  0  0  0  0  0  0  0  0  0  0  0
    7.3932    4.1547  -60.6635 H   0  0  0  0  0  0  0  0  0  0  0  0
    8.2894    6.3190  -59.8016 H   0  0  0  0  0  0  0  0  0  0  0  0
    7.1095    5.6024  -58.6444 H   0  0  0  0  0  0  0  0  0  0  0  0
    9.1336    6.4653  -57.4582 H   0  0  0  0  0  0  0  0  0  0  0  0
   10.7512    6.1527  -59.3320 H   0  0  0  0  0  0  0  0  0  0  0  0
   11.3229    5.3250  -57.8395 H   0  0  0  0  0  0  0  0  0  0  0  0
   11.6144    3.8661  -59.8433 H   0  0  0  0  0  0  0  0  0  0  0  0
    9.7382    4.8107  -61.1941 H   0  0  0  0  0  0  0  0  0  0  0  0
    9.5863    3.0250  -61.0314 H   0  0  0  0  0  0  0  0  0  0  0  0
   10.3817    1.8858  -58.9578 H   0  0  0  0  0  0  0  0  0  0  0  0
   11.1049    2.8637  -57.6199 H   0  0  0  0  0  0  0  0  0  0  0  0
    9.6772    4.3588  -56.2316 H   0  0  0  0  0  0  0  0  0  0  0  0
    7.9095    4.4871  -56.5703 H   0  0  0  0  0  0  0  0  0  0  0  0
    5.4201    0.0947  -55.4512 H   0  0  0  0  0  0  0  0  0  0  0  0
    5.3733   -1.8069  -53.8123 H   0  0  0  0  0  0  0  0  0  0  0  0
    9.7236    0.4722  -54.9201 H   0  0  0  0  0  0  0  0  0  0  0  0
    9.5239   -3.6147  -52.6654 H   0  0  0  0  0  0  0  0  0  0  0  0
    9.2520   -2.4261  -51.3060 H   0  0  0  0  0  0  0  0  0  0  0  0
  1  2  2  0
  2  3  1  0
  4  3  1  1
  4  5  1  0
  5  6  1  0
  6  7  1  0
  7  8  1  0
  8  9  1  0
  9 10  1  0
 10 11  1  0
 10 12  1  0
  8 13  1  0
  2 14  1  0
 14 15  1  0
 15 16  2  0
 16 17  1  0
 17 18  2  0
 18 19  1  0
 18 20  1  0
 20 21  1  0
 21 22  1  0
 12  4  1  0
 19 14  2  0
 13  4  1  0
 22 17  1  0
 11  6  1  0
  3 23  1  0
  5 24  1  0
  5 25  1  0
  6 26  1  6
  7 27  1  0
  7 28  1  0
  8 29  1  1
  9 30  1  0
  9 31  1  0
 10 32  1  6
 11 33  1  0
 11 34  1  0
 12 35  1  0
 12 36  1  0
 13 37  1  0
 13 38  1  0
 15 39  1  0
 16 40  1  0
 19 41  1  0
 21 42  1  0
 21 43  1  0
M  END
>  <meeko>  (24) 
{"is_sidechain": false}

$$$$

     RDKit          3D

 44 47  0  0  0  0  0  0  0  0999 V2000
    7.3680    1.9120  -56.2990 O   0  0  0  0  0  0  0  0  0  0  0  0
    8.5230    1.5160  -56.2170 C   0  0  0  0  0  0  0  0  0  0  0  0
    8.8870    0.5360  -55.1630 C   0  0  0  0  0  0  0  0  0  0  0  0
    7.9870   -0.0780  -54.3800 C   0  0  0  0  0  0  0  0  0  0  0  0
    8.3460   -1.0240  -53.3130 C   0  0  0  0  0  0  0  0  0  0  0  0
    7.5030   -1.2780  -52.2220 C   0  0  0  0  0  0  0  0  0  0  0  0
    7.8690   -2.2050  -51.2420 C   0  0  0  0  0  0  0  0  0  0  0  0
    9.0740   -2.8960  -51.3490 C   0  0  0  0  0  0  0  0  0  0  0  0
    9.9130   -2.6640  -52.4370 C   0  0  0  0  0  0  0  0  0  0  0  0
    9.5470   -1.7380  -53.4170 C   0  0  0  0  0  0  0  0  0  0  0  0
    9.5730    1.9490  -56.9870 N   0  0  0  0  0  0  0  0  0  0  0  0
    9.4740    2.9820  -58.0230 C   0  0  2  0  0  0  0  0  0  0  0  0
   10.8270    3.0430  -58.7840 C   0  0  0  0  0  0  0  0  0  0  0  0
   10.7950    4.1160  -59.8840 C   0  0  1  0  0  0  0  0  0  0  0  0
    9.6750    3.7800  -60.8820 C   0  0  0  0  0  0  0  0  0  0  0  0
    8.3220    3.7380  -60.1560 C   0  0  2  0  0  0  0  0  0  0  0  0
    8.0490    5.1080  -59.5110 C   0  0  0  0  0  0  0  0  0  0  0  0
    9.1640    5.4550  -58.5100 C   0  0  2  0  0  0  0  0  0  0  0  0
   10.5130    5.4850  -59.2450 C   0  0  0  0  0  0  0  0  0  0  0  0
    9.2080    4.3800  -57.4090 C   0  0  0  0  0  0  0  0  0  0  0  0
    8.3650    2.6620  -59.0570 C   0  0  0  0  0  0  0  0  0  0  0  0
    9.9514    0.3007  -55.0161 H   0  0  0  0  0  0  0  0  0  0  0  0
    6.9212    0.1383  -54.5454 H   0  0  0  0  0  0  0  0  0  0  0  0
    6.5455   -0.7433  -52.1365 H   0  0  0  0  0  0  0  0  0  0  0  0
    7.2046   -2.3892  -50.3849 H   0  0  0  0  0  0  0  0  0  0  0  0
    9.3625   -3.6234  -50.5760 H   0  0  0  0  0  0  0  0  0  0  0  0
   10.8638   -3.2101  -52.5243 H   0  0  0  0  0  0  0  0  0  0  0  0
   10.2086   -1.5677  -54.2792 H   0  0  0  0  0  0  0  0  0  0  0  0
   10.5020    1.6950  -56.6810 H   0  0  0  0  0  0  0  0  0  0  0  0
   11.6297    3.2830  -58.0712 H   0  0  0  0  0  0  0  0  0  0  0  0
   11.0076    2.0653  -59.2546 H   0  0  0  0  0  0  0  0  0  0  0  0
   11.7621    4.1441  -60.4073 H   0  0  0  0  0  0  0  0  0  0  0  0
    9.6436    4.5495  -61.6674 H   0  0  0  0  0  0  0  0  0  0  0  0
    9.8747    2.7965  -61.3323 H   0  0  0  0  0  0  0  0  0  0  0  0
    7.5252    3.5000  -60.8760 H   0  0  0  0  0  0  0  0  0  0  0  0
    8.0123    5.8782  -60.2955 H   0  0  0  0  0  0  0  0  0  0  0  0
    7.0875    5.0688  -58.9782 H   0  0  0  0  0  0  0  0  0  0  0  0
    8.9664    6.4389  -58.0596 H   0  0  0  0  0  0  0  0  0  0  0  0
   10.4825    6.2542  -60.0307 H   0  0  0  0  0  0  0  0  0  0  0  0
   11.3111    5.7182  -58.5248 H   0  0  0  0  0  0  0  0  0  0  0  0
   10.0125    4.6222  -56.6990 H   0  0  0  0  0  0  0  0  0  0  0  0
    8.2373    4.3617  -56.8918 H   0  0  0  0  0  0  0  0  0  0  0  0
    7.3920    2.6292  -58.5450 H   0  0  0  0  0  0  0  0  0  0  0  0
    8.5836    1.6892  -59.5217 H   0  0  0  0  0  0  0  0  0  0  0  0
  1  2  2  0
  2  3  1  0
  3  4  2  0
  4  5  1  0
  5  6  2  0
  6  7  1  0
  7  8  2  0
  8  9  1  0
  9 10  2  0
  2 11  1  0
 12 11  1  1
 12 13  1  0
 13 14  1  0
 14 15  1  0
 15 16  1  0
 16 17  1  0
 17 18  1  0
 18 19  1  0
 18 20  1  0
 16 21  1  0
 10  5  1  0
 20 12  1  0
 21 12  1  0
 19 14  1  0
  3 22  1  0
  4 23  1  0
  6 24  1  0
  7 25  1  0
  8 26  1  0
  9 27  1  0
 10 28  1  0
 11 29  1  0
 13 30  1  0
 13 31  1  0
 14 32  1  6
 15 33  1  0
 15 34  1  0
 16 35  1  6
 17 36  1  0
 17 37  1  0
 18 38  1  1
 19 39  1  0
 19 40  1  0
 20 41  1  0
 20 42  1  0
 21 43  1  0
 21 44  1  0
M  END
>  <meeko>  (25) 
{"is_sidechain": false}

$$$$

     RDKit          3D

 52 56  0  0  0  0  0  0  0  0999 V2000
   10.0300   -1.4670  -53.7060 C   0  0  0  0  0  0  0  0  0  0  0  0
    8.6710   -0.9150  -54.0380 C   0  0  0  0  0  0  0  0  0  0  0  0
    8.6460    0.0420  -55.0030 N   0  0  0  0  0  0  0  0  0  0  0  0
    7.4290    0.5670  -55.3290 C   0  0  0  0  0  0  0  0  0  0  0  0
    7.4310    1.6210  -56.3970 C   0  0  0  0  0  0  0  0  0  0  0  0
    6.3920    2.1620  -56.7550 O   0  0  0  0  0  0  0  0  0  0  0  0
    8.6840    1.8960  -56.9040 N   0  0  0  0  0  0  0  0  0  0  0  0
    8.9930    2.8710  -57.9470 C   0  0  2  0  0  0  0  0  0  0  0  0
   10.4490    2.7200  -58.4560 C   0  0  0  0  0  0  0  0  0  0  0  0
   10.7640    3.7880  -59.5180 C   0  0  1  0  0  0  0  0  0  0  0  0
    9.7870    3.6350  -60.6960 C   0  0  0  0  0  0  0  0  0  0  0  0
    8.3390    3.8180  -60.2100 C   0  0  2  0  0  0  0  0  0  0  0  0
    8.1860    5.2140  -59.5880 C   0  0  0  0  0  0  0  0  0  0  0  0
    9.1540    5.3710  -58.4040 C   0  0  2  0  0  0  0  0  0  0  0  0
   10.5970    5.1850  -58.8990 C   0  0  0  0  0  0  0  0  0  0  0  0
    8.8400    4.2960  -57.3500 C   0  0  0  0  0  0  0  0  0  0  0  0
    8.0220    2.7490  -59.1480 C   0  0  0  0  0  0  0  0  0  0  0  0
    6.2380    0.1810  -54.7390 C   0  0  0  0  0  0  0  0  0  0  0  0
    6.2890   -0.8010  -53.7530 C   0  0  0  0  0  0  0  0  0  0  0  0
    7.5150   -1.3720  -53.3810 C   0  0  0  0  0  0  0  0  0  0  0  0
    7.5460   -2.4050  -52.3400 C   0  0  0  0  0  0  0  0  0  0  0  0
    7.8510   -2.0740  -51.0110 C   0  0  0  0  0  0  0  0  0  0  0  0
    7.8790   -3.0570  -50.0200 C   0  0  0  0  0  0  0  0  0  0  0  0
    7.6010   -4.3830  -50.3450 C   0  0  0  0  0  0  0  0  0  0  0  0
    7.2910   -4.7270  -51.6600 C   0  0  0  0  0  0  0  0  0  0  0  0
    7.2630   -3.7430  -52.6520 C   0  0  0  0  0  0  0  0  0  0  0  0
   10.1492   -1.5154  -52.6136 H   0  0  0  0  0  0  0  0  0  0  0  0
   10.1294   -2.4768  -54.1308 H   0  0  0  0  0  0  0  0  0  0  0  0
   10.8054   -0.8125  -54.1308 H   0  0  0  0  0  0  0  0  0  0  0  0
    9.4350    1.3500  -56.4880 H   0  0  0  0  0  0  0  0  0  0  0  0
   11.1419    2.8362  -57.6096 H   0  0  0  0  0  0  0  0  0  0  0  0
   10.5654    1.7242  -58.9086 H   0  0  0  0  0  0  0  0  0  0  0  0
   11.7971    3.6624  -59.8741 H   0  0  0  0  0  0  0  0  0  0  0  0
   10.0138    4.3955  -61.4577 H   0  0  0  0  0  0  0  0  0  0  0  0
    9.8975    2.6288  -61.1266 H   0  0  0  0  0  0  0  0  0  0  0  0
    7.6464    3.7138  -61.0582 H   0  0  0  0  0  0  0  0  0  0  0  0
    8.4118    5.9777  -60.3469 H   0  0  0  0  0  0  0  0  0  0  0  0
    7.1536    5.3383  -59.2293 H   0  0  0  0  0  0  0  0  0  0  0  0
    9.0399    6.3720  -57.9623 H   0  0  0  0  0  0  0  0  0  0  0  0
   10.8234    5.9490  -59.6573 H   0  0  0  0  0  0  0  0  0  0  0  0
   11.2868    5.2881  -58.0484 H   0  0  0  0  0  0  0  0  0  0  0  0
    9.5339    4.4081  -56.5039 H   0  0  0  0  0  0  0  0  0  0  0  0
    7.8003    4.4262  -57.0151 H   0  0  0  0  0  0  0  0  0  0  0  0
    6.9896    2.8858  -58.7939 H   0  0  0  0  0  0  0  0  0  0  0  0
    8.1396    1.7532  -59.6002 H   0  0  0  0  0  0  0  0  0  0  0  0
    5.2822    0.6352  -55.0392 H   0  0  0  0  0  0  0  0  0  0  0  0
    5.3614   -1.1312  -53.2625 H   0  0  0  0  0  0  0  0  0  0  0  0
    8.0704   -1.0289  -50.7471 H   0  0  0  0  0  0  0  0  0  0  0  0
    8.1207   -2.7845  -48.9821 H   0  0  0  0  0  0  0  0  0  0  0  0
    7.6261   -5.1579  -49.5647 H   0  0  0  0  0  0  0  0  0  0  0  0
    7.0684   -5.7732  -51.9168 H   0  0  0  0  0  0  0  0  0  0  0  0
    7.0166   -4.0204  -53.6875 H   0  0  0  0  0  0  0  0  0  0  0  0
  1  2  1  0
  2  3  1  0
  3  4  2  0
  4  5  1  0
  5  6  2  0
  5  7  1  0
  8  7  1  1
  8  9  1  0
  9 10  1  0
 10 11  1  0
 11 12  1  0
 12 13  1  0
 13 14  1  0
 14 15  1  0
 14 16  1  0
 12 17  1  0
  4 18  1  0
 18 19  2  0
 19 20  1  0
 20 21  1  0
 21 22  2  0
 22 23  1  0
 23 24  2  0
 24 25  1  0
 25 26  2  0
 20  2  2  0
 26 21  1  0
 16  8  1  0
 17  8  1  0
 15 10  1  0
  1 27  1  0
  1 28  1  0
  1 29  1  0
  7 30  1  0
  9 31  1  0
  9 32  1  0
 10 33  1  6
 11 34  1  0
 11 35  1  0
 12 36  1  6
 13 37  1  0
 13 38  1  0
 14 39  1  1
 15 40  1  0
 15 41  1  0
 16 42  1  0
 16 43  1  0
 17 44  1  0
 17 45  1  0
 18 46  1  0
 19 47  1  0
 22 48  1  0
 23 49  1  0
 24 50  1  0
 25 51  1  0
 26 52  1  0
M  END
>  <meeko>  (26) 
{"is_sidechain": false}

$$$$

     RDKit          3D

 49 53  0  0  0  0  0  0  0  0999 V2000
    6.3930    2.1280  -56.7490 O   0  0  0  0  0  0  0  0  0  0  0  0
    7.4640    1.6320  -56.4240 C   0  0  0  0  0  0  0  0  0  0  0  0
    8.6770    1.9240  -57.0180 N   0  0  0  0  0  0  0  0  0  0  0  0
    8.8410    2.8480  -58.1480 C   0  0  2  0  0  0  0  0  0  0  0  0
    8.5300    4.3140  -57.7500 C   0  0  0  0  0  0  0  0  0  0  0  0
    8.7620    5.2600  -58.9420 C   0  0  1  0  0  0  0  0  0  0  0  0
   10.2320    5.1720  -59.3830 C   0  0  0  0  0  0  0  0  0  0  0  0
   10.5670    3.7320  -59.8030 C   0  0  2  0  0  0  0  0  0  0  0  0
    9.6570    3.3160  -60.9680 C   0  0  0  0  0  0  0  0  0  0  0  0
    8.1840    3.3940  -60.5380 C   0  0  2  0  0  0  0  0  0  0  0  0
    7.8550    4.8350  -60.1090 C   0  0  0  0  0  0  0  0  0  0  0  0
    7.9490    2.4460  -59.3480 C   0  0  0  0  0  0  0  0  0  0  0  0
   10.3230    2.7910  -58.6110 C   0  0  0  0  0  0  0  0  0  0  0  0
    7.4880    0.6130  -55.3490 C   0  0  0  0  0  0  0  0  0  0  0  0
    8.6830    0.3170  -54.7000 C   0  0  0  0  0  0  0  0  0  0  0  0
    8.6990   -0.6490  -53.6920 C   0  0  0  0  0  0  0  0  0  0  0  0
    7.5170   -1.3120  -53.3550 C   0  0  0  0  0  0  0  0  0  0  0  0
    7.4450   -2.3440  -52.2980 C   0  0  0  0  0  0  0  0  0  0  0  0
    6.6560   -3.4970  -52.4730 C   0  0  0  0  0  0  0  0  0  0  0  0
    6.5680   -4.4820  -51.4850 C   0  0  0  0  0  0  0  0  0  0  0  0
    7.2750   -4.3390  -50.2960 C   0  0  0  0  0  0  0  0  0  0  0  0
    8.0710   -3.2150  -50.0980 C   0  0  0  0  0  0  0  0  0  0  0  0
    8.1560   -2.2300  -51.0880 C   0  0  0  0  0  0  0  0  0  0  0  0
    6.3460   -1.0320  -53.9880 N   0  0  0  0  0  0  0  0  0  0  0  0
    6.3600   -0.0970  -54.9720 C   0  0  0  0  0  0  0  0  0  0  0  0
    9.4420    1.2810  -56.8570 H   0  0  0  0  0  0  0  0  0  0  0  0
    7.4801    4.3867  -57.4298 H   0  0  0  0  0  0  0  0  0  0  0  0
    9.1997    4.6080  -56.9284 H   0  0  0  0  0  0  0  0  0  0  0  0
    8.5269    6.2931  -58.6463 H   0  0  0  0  0  0  0  0  0  0  0  0
   10.3985    5.8483  -60.2344 H   0  0  0  0  0  0  0  0  0  0  0  0
   10.8800    5.4644  -58.5436 H   0  0  0  0  0  0  0  0  0  0  0  0
   11.6194    3.6731  -60.1175 H   0  0  0  0  0  0  0  0  0  0  0  0
    9.8240    3.9916  -61.8199 H   0  0  0  0  0  0  0  0  0  0  0  0
    9.8937    2.2821  -61.2597 H   0  0  0  0  0  0  0  0  0  0  0  0
    7.5387    3.1001  -61.3790 H   0  0  0  0  0  0  0  0  0  0  0  0
    8.0154    5.5134  -60.9599 H   0  0  0  0  0  0  0  0  0  0  0  0
    6.8051    4.8828  -59.7844 H   0  0  0  0  0  0  0  0  0  0  0  0
    6.8923    2.4986  -59.0468 H   0  0  0  0  0  0  0  0  0  0  0  0
    8.2063    1.4213  -59.6541 H   0  0  0  0  0  0  0  0  0  0  0  0
   10.5665    1.7610  -58.9106 H   0  0  0  0  0  0  0  0  0  0  0  0
   10.9627    3.1119  -57.7757 H   0  0  0  0  0  0  0  0  0  0  0  0
    9.6091    0.8408  -54.9794 H   0  0  0  0  0  0  0  0  0  0  0  0
    9.6361   -0.8862  -53.1670 H   0  0  0  0  0  0  0  0  0  0  0  0
    6.0950   -3.6259  -53.4104 H   0  0  0  0  0  0  0  0  0  0  0  0
    5.9396   -5.3700  -51.6480 H   0  0  0  0  0  0  0  0  0  0  0  0
    7.2053   -5.1110  -49.5155 H   0  0  0  0  0  0  0  0  0  0  0  0
    8.6350   -3.1005  -49.1605 H   0  0  0  0  0  0  0  0  0  0  0  0
    8.7914   -1.3484  -50.9176 H   0  0  0  0  0  0  0  0  0  0  0  0
    5.4185    0.1093  -55.5021 H   0  0  0  0  0  0  0  0  0  0  0  0
  1  2  2  0
  2  3  1  0
  4  3  1  1
  4  5  1  0
  5  6  1  0
  6  7  1  0
  7  8  1  0
  8  9  1  0
  9 10  1  0
 10 11  1  0
 10 12  1  0
  8 13  1  0
  2 14  1  0
 14 15  2  0
 15 16  1  0
 16 17  2  0
 17 18  1  0
 18 19  2  0
 19 20  1  0
 20 21  2  0
 21 22  1  0
 22 23  2  0
 17 24  1  0
 24 25  2  0
 12  4  1  0
 25 14  1  0
 13  4  1  0
 23 18  1  0
 11  6  1  0
  3 26  1  0
  5 27  1  0
  5 28  1  0
  6 29  1  1
  7 30  1  0
  7 31  1  0
  8 32  1  6
  9 33  1  0
  9 34  1  0
 10 35  1  6
 11 36  1  0
 11 37  1  0
 12 38  1  0
 12 39  1  0
 13 40  1  0
 13 41  1  0
 15 42  1  0
 16 43  1  0
 19 44  1  0
 20 45  1  0
 21 46  1  0
 22 47  1  0
 23 48  1  0
 25 49  1  0
M  END
>  <meeko>  (27) 
{"is_sidechain": false}

$$$$

     RDKit          3D

 52 56  0  0  0  0  0  0  0  0999 V2000
   10.1190   -1.5950  -53.5880 C   0  0  0  0  0  0  0  0  0  0  0  0
    8.7980   -0.9800  -53.9610 C   0  0  0  0  0  0  0  0  0  0  0  0
    8.7630    0.0350  -54.9260 C   0  0  0  0  0  0  0  0  0  0  0  0
    7.5380    0.5990  -55.2640 C   0  0  0  0  0  0  0  0  0  0  0  0
    7.4720    1.6870  -56.2960 C   0  0  0  0  0  0  0  0  0  0  0  0
    6.4170    2.2520  -56.5540 O   0  0  0  0  0  0  0  0  0  0  0  0
    8.6850    1.9600  -56.8930 N   0  0  0  0  0  0  0  0  0  0  0  0
    8.9270    2.9630  -57.9280 C   0  0  2  0  0  0  0  0  0  0  0  0
    7.8680    2.8840  -59.0560 C   0  0  0  0  0  0  0  0  0  0  0  0
    8.1180    3.9800  -60.1080 C   0  0  1  0  0  0  0  0  0  0  0  0
    8.0260    5.3590  -59.4370 C   0  0  0  0  0  0  0  0  0  0  0  0
    9.0810    5.4720  -58.3250 C   0  0  2  0  0  0  0  0  0  0  0  0
   10.4810    5.2880  -58.9310 C   0  0  0  0  0  0  0  0  0  0  0  0
   10.5870    3.9080  -59.5990 C   0  0  2  0  0  0  0  0  0  0  0  0
    9.5230    3.7970  -60.7050 C   0  0  0  0  0  0  0  0  0  0  0  0
   10.3380    2.8130  -58.5470 C   0  0  0  0  0  0  0  0  0  0  0  0
    8.8340    4.3700  -57.2820 C   0  0  0  0  0  0  0  0  0  0  0  0
    6.3520    0.2270  -54.7080 N   0  0  0  0  0  0  0  0  0  0  0  0
    6.4180   -0.7520  -53.7750 C   0  0  0  0  0  0  0  0  0  0  0  0
    7.5920   -1.3890  -53.3580 C   0  0  0  0  0  0  0  0  0  0  0  0
    7.5290   -2.4340  -52.3320 C   0  0  0  0  0  0  0  0  0  0  0  0
    7.8340   -2.1430  -50.9940 C   0  0  0  0  0  0  0  0  0  0  0  0
    7.7780   -3.1390  -50.0170 C   0  0  0  0  0  0  0  0  0  0  0  0
    7.4200   -4.4400  -50.3660 C   0  0  0  0  0  0  0  0  0  0  0  0
    7.1170   -4.7450  -51.6910 C   0  0  0  0  0  0  0  0  0  0  0  0
    7.1710   -3.7480  -52.6670 C   0  0  0  0  0  0  0  0  0  0  0  0
   10.2079   -1.6364  -52.4924 H   0  0  0  0  0  0  0  0  0  0  0  0
   10.1785   -2.6134  -53.9994 H   0  0  0  0  0  0  0  0  0  0  0  0
   10.9367   -0.9850  -53.9994 H   0  0  0  0  0  0  0  0  0  0  0  0
    9.6895    0.3800  -55.4083 H   0  0  0  0  0  0  0  0  0  0  0  0
    9.4590    1.3910  -56.5560 H   0  0  0  0  0  0  0  0  0  0  0  0
    7.9271    1.8978  -59.5396 H   0  0  0  0  0  0  0  0  0  0  0  0
    6.8699    3.0323  -58.6180 H   0  0  0  0  0  0  0  0  0  0  0  0
    7.3641    3.9073  -60.9057 H   0  0  0  0  0  0  0  0  0  0  0  0
    8.2029    6.1426  -60.1884 H   0  0  0  0  0  0  0  0  0  0  0  0
    7.0244    5.4823  -58.9993 H   0  0  0  0  0  0  0  0  0  0  0  0
    9.0114    6.4606  -57.8477 H   0  0  0  0  0  0  0  0  0  0  0  0
   10.6584    6.0712  -59.6827 H   0  0  0  0  0  0  0  0  0  0  0  0
   11.2331    5.3611  -58.1316 H   0  0  0  0  0  0  0  0  0  0  0  0
   11.5899    3.7838  -60.0335 H   0  0  0  0  0  0  0  0  0  0  0  0
    9.7013    4.5762  -61.4607 H   0  0  0  0  0  0  0  0  0  0  0  0
    9.5896    2.8022  -61.1696 H   0  0  0  0  0  0  0  0  0  0  0  0
   10.4196    1.8262  -59.0261 H   0  0  0  0  0  0  0  0  0  0  0  0
   11.0880    2.9114  -57.7483 H   0  0  0  0  0  0  0  0  0  0  0  0
    9.5896    4.4514  -56.4867 H   0  0  0  0  0  0  0  0  0  0  0  0
    7.8233    4.4995  -56.8677 H   0  0  0  0  0  0  0  0  0  0  0  0
    5.4747   -1.0717  -53.3082 H   0  0  0  0  0  0  0  0  0  0  0  0
    8.1203   -1.1192  -50.7115 H   0  0  0  0  0  0  0  0  0  0  0  0
    8.0166   -2.8966  -48.9709 H   0  0  0  0  0  0  0  0  0  0  0  0
    7.3768   -5.2247  -49.5964 H   0  0  0  0  0  0  0  0  0  0  0  0
    6.8352   -5.7715  -51.9684 H   0  0  0  0  0  0  0  0  0  0  0  0
    6.9299   -3.9961  -53.7112 H   0  0  0  0  0  0  0  0  0  0  0  0
  1  2  1  0
  2  3  1  0
  3  4  2  0
  4  5  1  0
  5  6  2  0
  5  7  1  0
  8  7  1  1
  8  9  1  0
  9 10  1  0
 10 11  1  0
 11 12  1  0
 12 13  1  0
 13 14  1  0
 14 15  1  0
 14 16  1  0
 12 17  1  0
  4 18  1  0
 18 19  2  0
 19 20  1  0
 20 21  1  0
 21 22  2  0
 22 23  1  0
 23 24  2  0
 24 25  1  0
 25 26  2  0
 20  2  2  0
 26 21  1  0
 16  8  1  0
 17  8  1  0
 15 10  1  0
  1 27  1  0
  1 28  1  0
  1 29  1  0
  3 30  1  0
  7 31  1  0
  9 32  1  0
  9 33  1  0
 10 34  1  6
 11 35  1  0
 11 36  1  0
 12 37  1  1
 13 38  1  0
 13 39  1  0
 14 40  1  6
 15 41  1  0
 15 42  1  0
 16 43  1  0
 16 44  1  0
 17 45  1  0
 17 46  1  0
 19 47  1  0
 22 48  1  0
 23 49  1  0
 24 50  1  0
 25 51  1  0
 26 52  1  0
M  END
>  <meeko>  (28) 
{"is_sidechain": false}

$$$$

     RDKit          3D

 48 52  0  0  0  0  0  0  0  0999 V2000
    6.5880    2.1640  -56.6530 O   0  0  0  0  0  0  0  0  0  0  0  0
    7.6680    1.6480  -56.3910 C   0  0  0  0  0  0  0  0  0  0  0  0
    8.8650    1.9750  -56.9950 N   0  0  0  0  0  0  0  0  0  0  0  0
    9.0460    2.9850  -58.0380 C   0  0  2  0  0  0  0  0  0  0  0  0
   10.4590    2.9050  -58.6710 C   0  0  0  0  0  0  0  0  0  0  0  0
   10.6410    4.0070  -59.7290 C   0  0  1  0  0  0  0  0  0  0  0  0
    9.5740    3.8380  -60.8240 C   0  0  0  0  0  0  0  0  0  0  0  0
    8.1650    3.9510  -60.2140 C   0  0  2  0  0  0  0  0  0  0  0  0
    8.0120    5.3270  -59.5470 C   0  0  0  0  0  0  0  0  0  0  0  0
    9.0710    5.4980  -58.4460 C   0  0  2  0  0  0  0  0  0  0  0  0
   10.4720    5.3830  -59.0650 C   0  0  0  0  0  0  0  0  0  0  0  0
    8.8900    4.3900  -57.3970 C   0  0  0  0  0  0  0  0  0  0  0  0
    7.9830    2.8490  -59.1550 C   0  0  0  0  0  0  0  0  0  0  0  0
    7.7610    0.5820  -55.3510 C   0  0  0  0  0  0  0  0  0  0  0  0
    8.9020    0.4250  -54.5860 C   0  0  0  0  0  0  0  0  0  0  0  0
    8.9210   -0.5910  -53.6320 C   0  0  0  0  0  0  0  0  0  0  0  0
    7.8050   -1.4100  -53.4790 C   0  0  0  0  0  0  0  0  0  0  0  0
    7.7240   -2.5120  -52.5000 C   0  0  0  0  0  0  0  0  0  0  0  0
    8.5800   -2.5840  -51.3810 C   0  0  0  0  0  0  0  0  0  0  0  0
    8.4870   -3.6340  -50.4610 C   0  0  0  0  0  0  0  0  0  0  0  0
    7.5390   -4.6300  -50.6490 C   0  0  0  0  0  0  0  0  0  0  0  0
    7.4510   -5.6340  -49.7690 F   0  0  0  0  0  0  0  0  0  0  0  0
    6.6840   -4.5970  -51.7410 C   0  0  0  0  0  0  0  0  0  0  0  0
    6.7790   -3.5470  -52.6590 C   0  0  0  0  0  0  0  0  0  0  0  0
    6.7060   -1.2120  -54.2490 N   0  0  0  0  0  0  0  0  0  0  0  0
    6.6780   -0.2130  -55.1940 N   0  0  0  0  0  0  0  0  0  0  0  0
    9.6820    1.4630  -56.6690 H   0  0  0  0  0  0  0  0  0  0  0  0
   11.2159    3.0317  -57.8830 H   0  0  0  0  0  0  0  0  0  0  0  0
   10.5755    1.9246  -59.1561 H   0  0  0  0  0  0  0  0  0  0  0  0
   11.6446    3.9319  -60.1729 H   0  0  0  0  0  0  0  0  0  0  0  0
    9.7052    4.6227  -61.5837 H   0  0  0  0  0  0  0  0  0  0  0  0
    9.6871    2.8461  -61.2859 H   0  0  0  0  0  0  0  0  0  0  0  0
    7.4071    3.8358  -61.0028 H   0  0  0  0  0  0  0  0  0  0  0  0
    8.1423    6.1150  -60.3034 H   0  0  0  0  0  0  0  0  0  0  0  0
    7.0101    5.4019  -59.0992 H   0  0  0  0  0  0  0  0  0  0  0  0
    8.9565    6.4838  -57.9716 H   0  0  0  0  0  0  0  0  0  0  0  0
   10.6021    6.1711  -59.8213 H   0  0  0  0  0  0  0  0  0  0  0  0
   11.2274    5.4977  -58.2736 H   0  0  0  0  0  0  0  0  0  0  0  0
    9.6488    4.5125  -56.6101 H   0  0  0  0  0  0  0  0  0  0  0  0
    7.8781    4.4711  -56.9732 H   0  0  0  0  0  0  0  0  0  0  0  0
    6.9800    2.9358  -58.7118 H   0  0  0  0  0  0  0  0  0  0  0  0
    8.1017    1.8687  -59.6397 H   0  0  0  0  0  0  0  0  0  0  0  0
    9.7713    1.0842  -54.7265 H   0  0  0  0  0  0  0  0  0  0  0  0
    9.8112   -0.7449  -53.0044 H   0  0  0  0  0  0  0  0  0  0  0  0
    9.3355   -1.7991  -51.2288 H   0  0  0  0  0  0  0  0  0  0  0  0
    9.1619   -3.6699  -49.5931 H   0  0  0  0  0  0  0  0  0  0  0  0
    5.9366   -5.3914  -51.8835 H   0  0  0  0  0  0  0  0  0  0  0  0
    6.1013   -3.5275  -53.5252 H   0  0  0  0  0  0  0  0  0  0  0  0
  1  2  2  0
  2  3  1  0
  4  3  1  1
  4  5  1  0
  5  6  1  0
  6  7  1  0
  7  8  1  0
  8  9  1  0
  9 10  1  0
 10 11  1  0
 10 12  1  0
  8 13  1  0
  2 14  1  0
 14 15  2  0
 15 16  1  0
 16 17  2  0
 17 18  1  0
 18 19  1  0
 19 20  2  0
 20 21  1  0
 21 22  1  0
 21 23  2  0
 23 24  1  0
 17 25  1  0
 25 26  2  0
 12  4  1  0
 26 14  1  0
 13  4  1  0
 24 18  2  0
 11  6  1  0
  3 27  1  0
  5 28  1  0
  5 29  1  0
  6 30  1  6
  7 31  1  0
  7 32  1  0
  8 33  1  6
  9 34  1  0
  9 35  1  0
 10 36  1  1
 11 37  1  0
 11 38  1  0
 12 39  1  0
 12 40  1  0
 13 41  1  0
 13 42  1  0
 15 43  1  0
 16 44  1  0
 19 45  1  0
 20 46  1  0
 23 47  1  0
 24 48  1  0
M  END
>  <meeko>  (29) 
{"is_sidechain": false}

$$$$

     RDKit          3D

 42 46  0  0  0  0  0  0  0  0999 V2000
    6.3980    2.1880  -56.5240 O   0  0  0  0  0  0  0  0  0  0  0  0
    7.4540    1.6060  -56.3090 C   0  0  0  0  0  0  0  0  0  0  0  0
    8.6660    1.9180  -56.8880 N   0  0  0  0  0  0  0  0  0  0  0  0
    8.9060    2.9890  -57.8510 C   0  0  2  0  0  0  0  0  0  0  0  0
   10.3840    2.9100  -58.3180 C   0  0  0  0  0  0  0  0  0  0  0  0
   10.7000    4.0160  -59.3380 C   0  0  1  0  0  0  0  0  0  0  0  0
    9.7780    3.8570  -60.5570 C   0  0  0  0  0  0  0  0  0  0  0  0
    8.3080    3.9580  -60.1190 C   0  0  2  0  0  0  0  0  0  0  0  0
    8.0680    5.3280  -59.4620 C   0  0  0  0  0  0  0  0  0  0  0  0
    8.9860    5.4970  -58.2400 C   0  0  2  0  0  0  0  0  0  0  0  0
   10.4510    5.3860  -58.6880 C   0  0  0  0  0  0  0  0  0  0  0  0
    8.6810    4.3850  -57.2200 C   0  0  0  0  0  0  0  0  0  0  0  0
    8.0020    2.8470  -59.1000 C   0  0  0  0  0  0  0  0  0  0  0  0
    7.5180    0.4500  -55.3550 C   0  0  0  0  0  0  0  0  0  0  0  0
    6.3390   -0.2200  -54.9940 C   0  0  0  0  0  0  0  0  0  0  0  0
    6.4180   -1.2930  -54.1040 C   0  0  0  0  0  0  0  0  0  0  0  0
    7.6670   -1.6250  -53.6360 C   0  0  0  0  0  0  0  0  0  0  0  0
    8.7630   -0.9100  -54.0460 C   0  0  0  0  0  0  0  0  0  0  0  0
    8.7620    0.1260  -54.8930 N   0  0  0  0  0  0  0  0  0  0  0  0
    9.9260   -1.3760  -53.4820 O   0  0  0  0  0  0  0  0  0  0  0  0
    9.4110   -2.4560  -52.6810 C   0  0  0  0  0  0  0  0  0  0  0  0
    7.9780   -2.6210  -52.7720 O   0  0  0  0  0  0  0  0  0  0  0  0
    9.4420    1.3270  -56.5930 H   0  0  0  0  0  0  0  0  0  0  0  0
   11.0436    3.0264  -57.4454 H   0  0  0  0  0  0  0  0  0  0  0  0
   10.5479    1.9338  -58.7978 H   0  0  0  0  0  0  0  0  0  0  0  0
   11.7503    3.9415  -59.6563 H   0  0  0  0  0  0  0  0  0  0  0  0
    9.9967    4.6515  -61.2856 H   0  0  0  0  0  0  0  0  0  0  0  0
    9.9519    2.8726  -61.0161 H   0  0  0  0  0  0  0  0  0  0  0  0
    7.6529    3.8461  -60.9955 H   0  0  0  0  0  0  0  0  0  0  0  0
    8.2826    6.1235  -60.1908 H   0  0  0  0  0  0  0  0  0  0  0  0
    7.0194    5.3917  -59.1357 H   0  0  0  0  0  0  0  0  0  0  0  0
    8.8134    6.4808  -57.7791 H   0  0  0  0  0  0  0  0  0  0  0  0
   10.6701    6.1801  -59.4169 H   0  0  0  0  0  0  0  0  0  0  0  0
   11.1058    5.4935  -57.8107 H   0  0  0  0  0  0  0  0  0  0  0  0
    9.3451    4.4999  -56.3507 H   0  0  0  0  0  0  0  0  0  0  0  0
    7.6291    4.4680  -56.9093 H   0  0  0  0  0  0  0  0  0  0  0  0
    6.9480    2.9180  -58.7934 H   0  0  0  0  0  0  0  0  0  0  0  0
    8.1968    1.8716  -59.5697 H   0  0  0  0  0  0  0  0  0  0  0  0
    5.3686    0.0949  -55.4054 H   0  0  0  0  0  0  0  0  0  0  0  0
    5.5210   -1.8477  -53.7914 H   0  0  0  0  0  0  0  0  0  0  0  0
    9.8888   -3.3903  -53.0109 H   0  0  0  0  0  0  0  0  0  0  0  0
    9.6384   -2.2126  -51.6327 H   0  0  0  0  0  0  0  0  0  0  0  0
  1  2  2  0
  2  3  1  0
  4  3  1  1
  4  5  1  0
  5  6  1  0
  6  7  1  0
  7  8  1  0
  8  9  1  0
  9 10  1  0
 10 11  1  0
 10 12  1  0
  8 13  1  0
  2 14  1  0
 14 15  2  0
 15 16  1  0
 16 17  2  0
 17 18  1  0
 18 19  2  0
 18 20  1  0
 20 21  1  0
 21 22  1  0
 12  4  1  0
 19 14  1  0
 13  4  1  0
 22 17  1  0
 11  6  1  0
  3 23  1  0
  5 24  1  0
  5 25  1  0
  6 26  1  6
  7 27  1  0
  7 28  1  0
  8 29  1  6
  9 30  1  0
  9 31  1  0
 10 32  1  1
 11 33  1  0
 11 34  1  0
 12 35  1  0
 12 36  1  0
 13 37  1  0
 13 38  1  0
 15 39  1  0
 16 40  1  0
 21 41  1  0
 21 42  1  0
M  END
>  <meeko>  (30) 
{"is_sidechain": false}

$$$$

     RDKit          3D

 45 48  0  0  0  0  0  0  0  0999 V2000
    7.7680   -2.7270  -49.9170 C   0  0  0  0  0  0  0  0  0  0  0  0
    7.9930   -2.1810  -51.2950 C   0  0  0  0  0  0  0  0  0  0  0  0
    7.0710   -1.3050  -51.8750 C   0  0  0  0  0  0  0  0  0  0  0  0
    7.2890   -0.8380  -53.1720 C   0  0  0  0  0  0  0  0  0  0  0  0
    6.3100    0.1070  -53.8020 C   0  0  0  0  0  0  0  0  0  0  0  0
    8.3600   -1.2040  -53.9100 N   0  0  0  0  0  0  0  0  0  0  0  0
    9.2400   -2.0710  -53.3300 C   0  0  0  0  0  0  0  0  0  0  0  0
   10.4190   -2.4730  -54.1680 C   0  0  0  0  0  0  0  0  0  0  0  0
   11.5170   -1.9550  -54.0100 O   0  0  0  0  0  0  0  0  0  0  0  0
   10.1300   -3.4520  -55.0960 N   0  0  0  0  0  0  0  0  0  0  0  0
   11.0710   -4.0400  -56.0470 C   0  0  2  0  0  0  0  0  0  0  0  0
   11.7210   -2.9610  -56.9470 C   0  0  0  0  0  0  0  0  0  0  0  0
   12.6710   -3.6100  -57.9700 C   0  0  1  0  0  0  0  0  0  0  0  0
   13.7670   -4.3860  -57.2210 C   0  0  0  0  0  0  0  0  0  0  0  0
   13.1360   -5.4850  -56.3490 C   0  0  2  0  0  0  0  0  0  0  0  0
   12.3370   -6.4460  -57.2430 C   0  0  0  0  0  0  0  0  0  0  0  0
   11.2350   -5.6780  -57.9880 C   0  0  2  0  0  0  0  0  0  0  0  0
   11.8760   -4.5820  -58.8550 C   0  0  0  0  0  0  0  0  0  0  0  0
   10.2960   -5.0240  -56.9620 C   0  0  0  0  0  0  0  0  0  0  0  0
   12.1860   -4.8360  -55.3260 C   0  0  0  0  0  0  0  0  0  0  0  0
    9.0970   -2.5810  -52.0470 C   0  0  0  0  0  0  0  0  0  0  0  0
    8.0762   -1.9792  -49.1715 H   0  0  0  0  0  0  0  0  0  0  0  0
    6.7010   -2.9590  -49.7842 H   0  0  0  0  0  0  0  0  0  0  0  0
    8.3618   -3.6434  -49.7842 H   0  0  0  0  0  0  0  0  0  0  0  0
    6.1805   -0.9862  -51.3135 H   0  0  0  0  0  0  0  0  0  0  0  0
    5.7571    0.6407  -53.0149 H   0  0  0  0  0  0  0  0  0  0  0  0
    6.8511    0.8330  -54.4266 H   0  0  0  0  0  0  0  0  0  0  0  0
    5.6036   -0.4594  -54.4266 H   0  0  0  0  0  0  0  0  0  0  0  0
    9.1620   -3.7670  -55.0860 H   0  0  0  0  0  0  0  0  0  0  0  0
   10.9316   -2.4137  -57.4830 H   0  0  0  0  0  0  0  0  0  0  0  0
   12.2987   -2.2716  -56.3137 H   0  0  0  0  0  0  0  0  0  0  0  0
   13.1301   -2.8309  -58.5964 H   0  0  0  0  0  0  0  0  0  0  0  0
   14.4490   -4.8473  -57.9504 H   0  0  0  0  0  0  0  0  0  0  0  0
   14.3233   -3.6901  -56.5758 H   0  0  0  0  0  0  0  0  0  0  0  0
   13.9263   -6.0402  -55.8225 H   0  0  0  0  0  0  0  0  0  0  0  0
   13.0145   -6.9114  -57.9741 H   0  0  0  0  0  0  0  0  0  0  0  0
   11.8746   -7.2222  -56.6155 H   0  0  0  0  0  0  0  0  0  0  0  0
   10.6672   -6.3706  -58.6267 H   0  0  0  0  0  0  0  0  0  0  0  0
   12.5538   -5.0461  -59.5865 H   0  0  0  0  0  0  0  0  0  0  0  0
   11.0841   -4.0274  -59.3797 H   0  0  0  0  0  0  0  0  0  0  0  0
    9.5074   -4.4735  -57.4959 H   0  0  0  0  0  0  0  0  0  0  0  0
    9.8575   -5.8141  -56.3348 H   0  0  0  0  0  0  0  0  0  0  0  0
   11.7274   -5.6226  -54.7087 H   0  0  0  0  0  0  0  0  0  0  0  0
   12.7634   -4.1450  -54.6942 H   0  0  0  0  0  0  0  0  0  0  0  0
    9.8361   -3.2831  -51.6338 H   0  0  0  0  0  0  0  0  0  0  0  0
  1  2  1  0
  2  3  1  0
  3  4  2  0
  4  5  1  0
  4  6  1  0
  6  7  2  0
  7  8  1  0
  8  9  2  0
  8 10  1  0
 11 10  1  1
 11 12  1  0
 12 13  1  0
 13 14  1  0
 14 15  1  0
 15 16  1  0
 16 17  1  0
 17 18  1  0
 17 19  1  0
 15 20  1  0
  7 21  1  0
 21  2  2  0
 19 11  1  0
 20 11  1  0
 18 13  1  0
  1 22  1  0
  1 23  1  0
  1 24  1  0
  3 25  1  0
  5 26  1  0
  5 27  1  0
  5 28  1  0
 10 29  1  0
 12 30  1  0
 12 31  1  0
 13 32  1  6
 14 33  1  0
 14 34  1  0
 15 35  1  1
 16 36  1  0
 16 37  1  0
 17 38  1  6
 18 39  1  0
 18 40  1  0
 19 41  1  0
 19 42  1  0
 20 43  1  0
 20 44  1  0
 21 45  1  0
M  END
>  <meeko>  (31) 
{"is_sidechain": false}

$$$$

     RDKit          3D

 50 54  0  0  0  0  0  0  0  0999 V2000
    6.4240    2.2830  -56.6240 O   0  0  0  0  0  0  0  0  0  0  0  0
    7.4540    1.6690  -56.3730 C   0  0  0  0  0  0  0  0  0  0  0  0
    8.6780    1.9180  -56.9600 N   0  0  0  0  0  0  0  0  0  0  0  0
    8.9280    2.9860  -57.9350 C   0  0  2  0  0  0  0  0  0  0  0  0
    7.9300    2.9370  -59.1190 C   0  0  0  0  0  0  0  0  0  0  0  0
    8.2530    4.0370  -60.1460 C   0  0  1  0  0  0  0  0  0  0  0  0
    8.1740    5.4100  -59.4580 C   0  0  0  0  0  0  0  0  0  0  0  0
    9.1880    5.4840  -58.3040 C   0  0  2  0  0  0  0  0  0  0  0  0
   10.6030    5.2610  -58.8580 C   0  0  0  0  0  0  0  0  0  0  0  0
   10.6900    3.8870  -59.5410 C   0  0  2  0  0  0  0  0  0  0  0  0
    9.6730    3.8240  -60.6910 C   0  0  0  0  0  0  0  0  0  0  0  0
   10.3570    2.7930  -58.5130 C   0  0  0  0  0  0  0  0  0  0  0  0
    8.8650    4.3850  -57.2740 C   0  0  0  0  0  0  0  0  0  0  0  0
    7.4360    0.5980  -55.3390 C   0  0  0  0  0  0  0  0  0  0  0  0
    6.2670   -0.0990  -55.0140 C   0  0  0  0  0  0  0  0  0  0  0  0
    6.2960   -1.0980  -54.0330 C   0  0  0  0  0  0  0  0  0  0  0  0
    7.4850   -1.4140  -53.3530 C   0  0  0  0  0  0  0  0  0  0  0  0
    7.5100   -2.4640  -52.3200 C   0  0  0  0  0  0  0  0  0  0  0  0
    8.0750   -2.2220  -51.0560 C   0  0  0  0  0  0  0  0  0  0  0  0
    8.1000   -3.2170  -50.0760 C   0  0  0  0  0  0  0  0  0  0  0  0
    7.5600   -4.4730  -50.3430 C   0  0  0  0  0  0  0  0  0  0  0  0
    6.9960   -4.7340  -51.5890 C   0  0  0  0  0  0  0  0  0  0  0  0
    6.9710   -3.7360  -52.5680 C   0  0  0  0  0  0  0  0  0  0  0  0
    8.6450   -0.6940  -53.6800 C   0  0  0  0  0  0  0  0  0  0  0  0
    8.6220    0.3060  -54.6580 C   0  0  0  0  0  0  0  0  0  0  0  0
    9.4910    1.5270  -56.5020 H   0  0  0  0  0  0  0  0  0  0  0  0
    7.9979    1.9543  -59.6085 H   0  0  0  0  0  0  0  0  0  0  0  0
    6.9132    3.1003  -58.7325 H   0  0  0  0  0  0  0  0  0  0  0  0
    7.5301    3.9940  -60.9740 H   0  0  0  0  0  0  0  0  0  0  0  0
    8.4001    6.1978  -60.1917 H   0  0  0  0  0  0  0  0  0  0  0  0
    7.1603    5.5523  -59.0552 H   0  0  0  0  0  0  0  0  0  0  0  0
    9.1310    6.4713  -57.8223 H   0  0  0  0  0  0  0  0  0  0  0  0
   10.8352    6.0475  -59.5911 H   0  0  0  0  0  0  0  0  0  0  0  0
   11.3252    5.2984  -58.0291 H   0  0  0  0  0  0  0  0  0  0  0  0
   11.7048    3.7333  -59.9366 H   0  0  0  0  0  0  0  0  0  0  0  0
    9.9035    4.6101  -61.4251 H   0  0  0  0  0  0  0  0  0  0  0  0
    9.7316    2.8366  -61.1723 H   0  0  0  0  0  0  0  0  0  0  0  0
   10.4169    1.8097  -59.0024 H   0  0  0  0  0  0  0  0  0  0  0  0
   11.0801    2.8579  -57.6867 H   0  0  0  0  0  0  0  0  0  0  0  0
    9.5968    4.4311  -56.4540 H   0  0  0  0  0  0  0  0  0  0  0  0
    7.8491    4.5493  -56.8856 H   0  0  0  0  0  0  0  0  0  0  0  0
    5.3246    0.1379  -55.5294 H   0  0  0  0  0  0  0  0  0  0  0  0
    5.3728   -1.6446  -53.7905 H   0  0  0  0  0  0  0  0  0  0  0  0
    8.5042   -1.2336  -50.8351 H   0  0  0  0  0  0  0  0  0  0  0  0
    8.5465   -3.0086  -49.0925 H   0  0  0  0  0  0  0  0  0  0  0  0
    7.5791   -5.2567  -49.5714 H   0  0  0  0  0  0  0  0  0  0  0  0
    6.5701   -5.7253  -51.8032 H   0  0  0  0  0  0  0  0  0  0  0  0
    6.5215   -3.9513  -53.5486 H   0  0  0  0  0  0  0  0  0  0  0  0
    9.5870   -0.9198  -53.1589 H   0  0  0  0  0  0  0  0  0  0  0  0
    9.5402    0.8647  -54.8922 H   0  0  0  0  0  0  0  0  0  0  0  0
  1  2  2  0
  2  3  1  0
  4  3  1  1
  4  5  1  0
  5  6  1  0
  6  7  1  0
  7  8  1  0
  8  9  1  0
  9 10  1  0
 10 11  1  0
 10 12  1  0
  8 13  1  0
  2 14  1  0
 14 15  1  0
 15 16  2  0
 16 17  1  0
 17 18  1  0
 18 19  2  0
 19 20  1  0
 20 21  2  0
 21 22  1  0
 22 23  2  0
 17 24  2  0
 24 25  1  0
 12  4  1  0
 25 14  2  0
 13  4  1  0
 23 18  1  0
 11  6  1  0
  3 26  1  0
  5 27  1  0
  5 28  1  0
  6 29  1  6
  7 30  1  0
  7 31  1  0
  8 32  1  1
  9 33  1  0
  9 34  1  0
 10 35  1  6
 11 36  1  0
 11 37  1  0
 12 38  1  0
 12 39  1  0
 13 40  1  0
 13 41  1  0
 15 42  1  0
 16 43  1  0
 19 44  1  0
 20 45  1  0
 21 46  1  0
 22 47  1  0
 23 48  1  0
 24 49  1  0
 25 50  1  0
M  END
>  <meeko>  (32) 
{"is_sidechain": false}

$$$$

     RDKit          3D

 45 48  0  0  0  0  0  0  0  0999 V2000
    8.7900   -2.6110  -52.0060 C   0  0  0  0  0  0  0  0  0  0  0  0
    8.5270   -1.5670  -53.0500 C   0  0  0  0  0  0  0  0  0  0  0  0
    7.2840   -0.9230  -53.0970 C   0  0  0  0  0  0  0  0  0  0  0  0
    7.0380    0.0460  -54.0640 C   0  0  0  0  0  0  0  0  0  0  0  0
    8.0530    0.3410  -54.9590 C   0  0  0  0  0  0  0  0  0  0  0  0
    7.8380    1.3780  -56.0220 C   0  0  0  0  0  0  0  0  0  0  0  0
    6.7100    1.7370  -56.3400 O   0  0  0  0  0  0  0  0  0  0  0  0
    9.0080    1.8570  -56.5740 N   0  0  0  0  0  0  0  0  0  0  0  0
    9.1120    2.8680  -57.6240 C   0  0  2  0  0  0  0  0  0  0  0  0
   10.5820    2.9140  -58.1190 C   0  0  0  0  0  0  0  0  0  0  0  0
   10.7570    3.9620  -59.2290 C   0  0  1  0  0  0  0  0  0  0  0  0
    9.8400    3.6040  -60.4090 C   0  0  0  0  0  0  0  0  0  0  0  0
    8.3750    3.5780  -59.9460 C   0  0  2  0  0  0  0  0  0  0  0  0
    7.9930    4.9610  -59.3940 C   0  0  0  0  0  0  0  0  0  0  0  0
    8.9040    5.3290  -58.2100 C   0  0  2  0  0  0  0  0  0  0  0  0
   10.3670    5.3450  -58.6820 C   0  0  0  0  0  0  0  0  0  0  0  0
    8.7400    4.2760  -57.0990 C   0  0  0  0  0  0  0  0  0  0  0  0
    8.2110    2.5250  -58.8360 C   0  0  0  0  0  0  0  0  0  0  0  0
    9.2760   -0.2620  -54.9480 N   0  0  0  0  0  0  0  0  0  0  0  0
    9.4960   -1.2040  -53.9980 C   0  0  0  0  0  0  0  0  0  0  0  0
   10.8530   -1.8460  -54.0160 C   0  0  0  0  0  0  0  0  0  0  0  0
    8.6779   -2.1662  -51.0062 H   0  0  0  0  0  0  0  0  0  0  0  0
    8.0716   -3.4357  -52.1230 H   0  0  0  0  0  0  0  0  0  0  0  0
    9.8134   -2.9969  -52.1230 H   0  0  0  0  0  0  0  0  0  0  0  0
    6.5019   -1.1838  -52.3687 H   0  0  0  0  0  0  0  0  0  0  0  0
    6.0678    0.5618  -54.1163 H   0  0  0  0  0  0  0  0  0  0  0  0
    9.8540    1.4440  -56.1880 H   0  0  0  0  0  0  0  0  0  0  0  0
   11.2380    3.1716  -57.2744 H   0  0  0  0  0  0  0  0  0  0  0  0
   10.8461    1.9263  -58.5249 H   0  0  0  0  0  0  0  0  0  0  0  0
   11.8040    3.9788  -59.5659 H   0  0  0  0  0  0  0  0  0  0  0  0
    9.9579    4.3558  -61.2033 H   0  0  0  0  0  0  0  0  0  0  0  0
   10.1156    2.6105  -60.7924 H   0  0  0  0  0  0  0  0  0  0  0  0
    7.7230    3.3249  -60.7950 H   0  0  0  0  0  0  0  0  0  0  0  0
    8.1069    5.7136  -60.1881 H   0  0  0  0  0  0  0  0  0  0  0  0
    6.9487    4.9347  -59.0495 H   0  0  0  0  0  0  0  0  0  0  0  0
    8.6289    6.3216  -57.8240 H   0  0  0  0  0  0  0  0  0  0  0  0
   10.4858    6.0975  -59.4755 H   0  0  0  0  0  0  0  0  0  0  0  0
   11.0186    5.5943  -57.8316 H   0  0  0  0  0  0  0  0  0  0  0  0
    9.3989    4.5335  -56.2567 H   0  0  0  0  0  0  0  0  0  0  0  0
    7.6899    4.2665  -56.7715 H   0  0  0  0  0  0  0  0  0  0  0  0
    7.1604    2.5026  -58.5109 H   0  0  0  0  0  0  0  0  0  0  0  0
    8.5070    1.5424  -59.2319 H   0  0  0  0  0  0  0  0  0  0  0  0
   11.1957   -2.0081  -52.9834 H   0  0  0  0  0  0  0  0  0  0  0  0
   10.7947   -2.8120  -54.5389 H   0  0  0  0  0  0  0  0  0  0  0  0
   11.5629   -1.1883  -54.5389 H   0  0  0  0  0  0  0  0  0  0  0  0
  1  2  1  0
  2  3  1  0
  3  4  2  0
  4  5  1  0
  5  6  1  0
  6  7  2  0
  6  8  1  0
  9  8  1  1
  9 10  1  0
 10 11  1  0
 11 12  1  0
 12 13  1  0
 13 14  1  0
 14 15  1  0
 15 16  1  0
 15 17  1  0
 13 18  1  0
  5 19  2  0
 19 20  1  0
 20 21  1  0
 20  2  2  0
 17  9  1  0
 18  9  1  0
 16 11  1  0
  1 22  1  0
  1 23  1  0
  1 24  1  0
  3 25  1  0
  4 26  1  0
  8 27  1  0
 10 28  1  0
 10 29  1  0
 11 30  1  6
 12 31  1  0
 12 32  1  0
 13 33  1  6
 14 34  1  0
 14 35  1  0
 15 36  1  1
 16 37  1  0
 16 38  1  0
 17 39  1  0
 17 40  1  0
 18 41  1  0
 18 42  1  0
 21 43  1  0
 21 44  1  0
 21 45  1  0
M  END
>  <meeko>  (33) 
{"is_sidechain": false}

$$$$

     RDKit          3D

 49 53  0  0  0  0  0  0  0  0999 V2000
   10.4880    0.7460  -56.3240 O   0  0  0  0  0  0  0  0  0  0  0  0
    9.3490    1.1840  -56.2260 C   0  0  0  0  0  0  0  0  0  0  0  0
    8.8620    2.2830  -56.9020 N   0  0  0  0  0  0  0  0  0  0  0  0
    9.6090    3.1150  -57.8410 C   0  0  2  0  0  0  0  0  0  0  0  0
    9.9730    2.2560  -59.0810 C   0  0  0  0  0  0  0  0  0  0  0  0
   10.7640    3.0790  -60.1100 C   0  0  1  0  0  0  0  0  0  0  0  0
    9.9130    4.2760  -60.5600 C   0  0  0  0  0  0  0  0  0  0  0  0
    9.5620    5.1560  -59.3490 C   0  0  2  0  0  0  0  0  0  0  0  0
   10.8590    5.6600  -58.6950 C   0  0  0  0  0  0  0  0  0  0  0  0
   11.7200    4.4690  -58.2400 C   0  0  2  0  0  0  0  0  0  0  0  0
   12.0580    3.5930  -59.4570 C   0  0  0  0  0  0  0  0  0  0  0  0
   10.9280    3.6360  -57.2160 C   0  0  0  0  0  0  0  0  0  0  0  0
    8.7700    4.3230  -58.3270 C   0  0  0  0  0  0  0  0  0  0  0  0
    8.3410    0.5340  -55.3230 C   0  0  0  0  0  0  0  0  0  0  0  0
    8.7710   -0.2660  -54.2720 C   0  0  0  0  0  0  0  0  0  0  0  0
    7.8140   -0.8600  -53.4410 C   0  0  0  0  0  0  0  0  0  0  0  0
    8.2120   -1.7150  -52.3110 C   0  0  0  0  0  0  0  0  0  0  0  0
    9.3770   -2.5000  -52.3700 C   0  0  0  0  0  0  0  0  0  0  0  0
    9.7550   -3.3130  -51.2970 C   0  0  0  0  0  0  0  0  0  0  0  0
    8.9730   -3.3550  -50.1450 C   0  0  0  0  0  0  0  0  0  0  0  0
    7.8150   -2.5860  -50.0660 C   0  0  0  0  0  0  0  0  0  0  0  0
    7.4400   -1.7740  -51.1390 C   0  0  0  0  0  0  0  0  0  0  0  0
    6.4640   -0.6110  -53.7210 C   0  0  0  0  0  0  0  0  0  0  0  0
    6.1280    0.2030  -54.7940 C   0  0  0  0  0  0  0  0  0  0  0  0
    7.0320    0.7840  -55.6060 N   0  0  0  0  0  0  0  0  0  0  0  0
    7.8900    2.5090  -56.6950 H   0  0  0  0  0  0  0  0  0  0  0  0
   10.5844    1.4003  -58.7586 H   0  0  0  0  0  0  0  0  0  0  0  0
    9.0414    1.9092  -59.5520 H   0  0  0  0  0  0  0  0  0  0  0  0
   11.0106    2.4518  -60.9794 H   0  0  0  0  0  0  0  0  0  0  0  0
   10.4795    4.8715  -61.2911 H   0  0  0  0  0  0  0  0  0  0  0  0
    8.9843    3.9066  -61.0194 H   0  0  0  0  0  0  0  0  0  0  0  0
    8.9553    6.0124  -59.6783 H   0  0  0  0  0  0  0  0  0  0  0  0
   11.4242    6.2601  -59.4233 H   0  0  0  0  0  0  0  0  0  0  0  0
   10.6048    6.2754  -57.8194 H   0  0  0  0  0  0  0  0  0  0  0  0
   12.6497    4.8356  -57.7804 H   0  0  0  0  0  0  0  0  0  0  0  0
   12.6238    4.1884  -60.1887 H   0  0  0  0  0  0  0  0  0  0  0  0
   12.6622    2.7348  -59.1278 H   0  0  0  0  0  0  0  0  0  0  0  0
   11.5396    2.7795  -56.8960 H   0  0  0  0  0  0  0  0  0  0  0  0
   10.6844    4.2728  -56.3528 H   0  0  0  0  0  0  0  0  0  0  0  0
    8.5148    4.9563  -57.4646 H   0  0  0  0  0  0  0  0  0  0  0  0
    7.8545    3.9483  -58.8081 H   0  0  0  0  0  0  0  0  0  0  0  0
    9.8444   -0.4298  -54.0959 H   0  0  0  0  0  0  0  0  0  0  0  0
   10.0014   -2.4741  -53.2752 H   0  0  0  0  0  0  0  0  0  0  0  0
   10.6702   -3.9196  -51.3626 H   0  0  0  0  0  0  0  0  0  0  0  0
    9.2695   -3.9939  -49.3001 H   0  0  0  0  0  0  0  0  0  0  0  0
    7.1950   -2.6179  -49.1580 H   0  0  0  0  0  0  0  0  0  0  0  0
    6.5237   -1.1699  -51.0648 H   0  0  0  0  0  0  0  0  0  0  0  0
    5.6766   -1.0570  -53.0956 H   0  0  0  0  0  0  0  0  0  0  0  0
    5.0614    0.3841  -54.9927 H   0  0  0  0  0  0  0  0  0  0  0  0
  1  2  2  0
  2  3  1  0
  4  3  1  1
  4  5  1  0
  5  6  1  0
  6  7  1  0
  7  8  1  0
  8  9  1  0
  9 10  1  0
 10 11  1  0
 10 12  1  0
  8 13  1  0
  2 14  1  0
 14 15  2  0
 15 16  1  0
 16 17  1  0
 17 18  2  0
 18 19  1  0
 19 20  2  0
 20 21  1  0
 21 22  2  0
 16 23  2  0
 23 24  1  0
 24 25  2  0
 12  4  1  0
 25 14  1  0
 13  4  1  0
 22 17  1  0
 11  6  1  0
  3 26  1  0
  5 27  1  0
  5 28  1  0
  6 29  1  6
  7 30  1  0
  7 31  1  0
  8 32  1  6
  9 33  1  0
  9 34  1  0
 10 35  1  1
 11 36  1  0
 11 37  1  0
 12 38  1  0
 12 39  1  0
 13 40  1  0
 13 41  1  0
 15 42  1  0
 18 43  1  0
 19 44  1  0
 20 45  1  0
 21 46  1  0
 22 47  1  0
 23 48  1  0
 24 49  1  0
M  END
>  <meeko>  (34) 
{"is_sidechain": false}

$$$$

     RDKit          3D

 48 51  0  0  0  0  0  0  0  0999 V2000
    7.0400   -0.3080  -52.6540 C   0  0  0  0  0  0  0  0  0  0  0  0
    8.2420   -0.5320  -53.5310 C   0  0  0  0  0  0  0  0  0  0  0  0
    8.5270    0.4000  -54.5330 C   0  0  0  0  0  0  0  0  0  0  0  0
    9.6290    0.1870  -55.3440 C   0  0  0  0  0  0  0  0  0  0  0  0
    9.9630    1.1670  -56.4310 C   0  0  0  0  0  0  0  0  0  0  0  0
   11.1080    1.2870  -56.8480 O   0  0  0  0  0  0  0  0  0  0  0  0
    8.8760    1.8850  -56.8840 N   0  0  0  0  0  0  0  0  0  0  0  0
    8.8930    2.9040  -57.9290 C   0  0  2  0  0  0  0  0  0  0  0  0
    9.5160    2.3660  -59.2400 C   0  0  0  0  0  0  0  0  0  0  0  0
    9.4800    3.4450  -60.3380 C   0  0  1  0  0  0  0  0  0  0  0  0
    8.0210    3.8440  -60.6100 C   0  0  0  0  0  0  0  0  0  0  0  0
    7.3820    4.4010  -59.3280 C   0  0  2  0  0  0  0  0  0  0  0  0
    8.1720    5.6330  -58.8600 C   0  0  0  0  0  0  0  0  0  0  0  0
    9.6330    5.2440  -58.5790 C   0  0  2  0  0  0  0  0  0  0  0  0
   10.2640    4.6800  -59.8630 C   0  0  0  0  0  0  0  0  0  0  0  0
    9.6690    4.1670  -57.4800 C   0  0  0  0  0  0  0  0  0  0  0  0
    7.4300    3.3240  -58.2320 C   0  0  0  0  0  0  0  0  0  0  0  0
   10.4570   -0.8850  -55.2310 N   0  0  0  0  0  0  0  0  0  0  0  0
   10.1790   -1.7830  -54.2540 C   0  0  0  0  0  0  0  0  0  0  0  0
   11.1170   -2.9560  -54.1820 C   0  0  0  0  0  0  0  0  0  0  0  0
    9.0990   -1.6400  -53.3630 C   0  0  0  0  0  0  0  0  0  0  0  0
    8.8250   -2.6780  -52.3060 C   0  0  0  0  0  0  0  0  0  0  0  0
    7.3413   -0.3642  -51.5976 H   0  0  0  0  0  0  0  0  0  0  0  0
    6.6145    0.6849  -52.8617 H   0  0  0  0  0  0  0  0  0  0  0  0
    6.2854   -1.0810  -52.8617 H   0  0  0  0  0  0  0  0  0  0  0  0
    7.8888    1.2847  -54.6744 H   0  0  0  0  0  0  0  0  0  0  0  0
    7.9990    1.6530  -56.4200 H   0  0  0  0  0  0  0  0  0  0  0  0
   10.5603    2.0759  -59.0519 H   0  0  0  0  0  0  0  0  0  0  0  0
    8.9351    1.4953  -59.5783 H   0  0  0  0  0  0  0  0  0  0  0  0
    9.9338    3.0505  -61.2591 H   0  0  0  0  0  0  0  0  0  0  0  0
    7.9940    4.6141  -61.3950 H   0  0  0  0  0  0  0  0  0  0  0  0
    7.4589    2.9574  -60.9385 H   0  0  0  0  0  0  0  0  0  0  0  0
    6.3380    4.6847  -59.5272 H   0  0  0  0  0  0  0  0  0  0  0  0
    8.1444    6.4033  -59.6447 H   0  0  0  0  0  0  0  0  0  0  0  0
    7.7183    6.0245  -57.9376 H   0  0  0  0  0  0  0  0  0  0  0  0
   10.1952    6.1298  -58.2484 H   0  0  0  0  0  0  0  0  0  0  0  0
   10.2410    5.4499  -60.6483 H   0  0  0  0  0  0  0  0  0  0  0  0
   11.3042    4.3885  -59.6553 H   0  0  0  0  0  0  0  0  0  0  0  0
   10.7148    3.8948  -57.2747 H   0  0  0  0  0  0  0  0  0  0  0  0
    9.1956    4.5702  -56.5726 H   0  0  0  0  0  0  0  0  0  0  0  0
    6.9731    3.7236  -57.3146 H   0  0  0  0  0  0  0  0  0  0  0  0
    6.8774    2.4405  -58.5843 H   0  0  0  0  0  0  0  0  0  0  0  0
   11.3147   -3.2032  -53.1285 H   0  0  0  0  0  0  0  0  0  0  0  0
   10.6598   -3.8224  -54.6824 H   0  0  0  0  0  0  0  0  0  0  0  0
   12.0627   -2.7005  -54.6824 H   0  0  0  0  0  0  0  0  0  0  0  0
    8.9440   -2.2271  -51.3097 H   0  0  0  0  0  0  0  0  0  0  0  0
    7.7971   -3.0532  -52.4183 H   0  0  0  0  0  0  0  0  0  0  0  0
    9.5339   -3.5116  -52.4183 H   0  0  0  0  0  0  0  0  0  0  0  0
  1  2  1  0
  2  3  2  0
  3  4  1  0
  4  5  1  0
  5  6  2  0
  5  7  1  0
  8  7  1  1
  8  9  1  0
  9 10  1  0
 10 11  1  0
 11 12  1  0
 12 13  1  0
 13 14  1  0
 14 15  1  0
 14 16  1  0
 12 17  1  0
  4 18  2  0
 18 19  1  0
 19 20  1  0
 19 21  2  0
 21 22  1  0
 21  2  1  0
 16  8  1  0
 17  8  1  0
 15 10  1  0
  1 23  1  0
  1 24  1  0
  1 25  1  0
  3 26  1  0
  7 27  1  0
  9 28  1  0
  9 29  1  0
 10 30  1  6
 11 31  1  0
 11 32  1  0
 12 33  1  6
 13 34  1  0
 13 35  1  0
 14 36  1  1
 15 37  1  0
 15 38  1  0
 16 39  1  0
 16 40  1  0
 17 41  1  0
 17 42  1  0
 20 43  1  0
 20 44  1  0
 20 45  1  0
 22 46  1  0
 22 47  1  0
 22 48  1  0
M  END
>  <meeko>  (35) 
{"is_sidechain": false}

$$$$

     RDKit          3D

 47 49  0  0  0  0  0  0  0  0999 V2000
    6.1020    2.5650  -58.1670 C   0  0  0  0  0  0  0  0  0  0  0  0
    7.1120    1.9600  -57.2270 C   0  0  0  0  0  0  0  0  0  0  0  0
    6.6570    1.2710  -56.0960 C   0  0  0  0  0  0  0  0  0  0  0  0
    7.5910    0.7170  -55.2350 C   0  0  0  0  0  0  0  0  0  0  0  0
    7.1350   -0.0230  -54.0120 C   0  0  0  0  0  0  0  0  0  0  0  0
    6.2220    0.3950  -53.3110 O   0  0  0  0  0  0  0  0  0  0  0  0
    7.8430   -1.1820  -53.7600 N   0  0  0  0  0  0  0  0  0  0  0  0
    7.6910   -1.9450  -52.5370 C   0  0  0  0  0  0  0  0  0  0  0  0
    9.0370   -2.4910  -52.0550 C   0  0  0  0  0  0  0  0  0  0  0  0
    8.9130   -3.2150  -50.7130 C   0  0  0  0  0  0  0  0  0  0  0  0
    7.5360   -3.8380  -50.4770 C   0  0  0  0  0  0  0  0  0  0  0  0
    6.8770   -4.2610  -51.7820 C   0  0  0  0  0  0  0  0  0  0  0  0
    6.6720   -3.0790  -52.7320 C   0  0  0  0  0  0  0  0  0  0  0  0
    8.9360    0.8030  -55.4170 N   0  0  0  0  0  0  0  0  0  0  0  0
    9.3700    1.4720  -56.5170 C   0  0  0  0  0  0  0  0  0  0  0  0
   10.8650    1.5380  -56.6770 C   0  0  0  0  0  0  0  0  0  0  0  0
    8.5030    2.0700  -57.4550 C   0  0  0  0  0  0  0  0  0  0  0  0
    9.0250    2.7850  -58.6300 C   0  0  0  0  0  0  0  0  0  0  0  0
    9.2040    2.1190  -59.8520 C   0  0  0  0  0  0  0  0  0  0  0  0
    9.7010    2.7960  -60.9670 C   0  0  0  0  0  0  0  0  0  0  0  0
   10.0260    4.1490  -60.8740 C   0  0  0  0  0  0  0  0  0  0  0  0
    9.8520    4.8240  -59.6690 C   0  0  0  0  0  0  0  0  0  0  0  0
    9.3540    4.1480  -58.5530 C   0  0  0  0  0  0  0  0  0  0  0  0
    5.3011    3.0448  -57.5853 H   0  0  0  0  0  0  0  0  0  0  0  0
    6.5953    3.3165  -58.8010 H   0  0  0  0  0  0  0  0  0  0  0  0
    5.6722    1.7755  -58.8010 H   0  0  0  0  0  0  0  0  0  0  0  0
    5.5801    1.1715  -55.8950 H   0  0  0  0  0  0  0  0  0  0  0  0
    8.6530   -1.3280  -54.3590 H   0  0  0  0  0  0  0  0  0  0  0  0
    7.3089   -1.2695  -51.7575 H   0  0  0  0  0  0  0  0  0  0  0  0
    9.4234   -3.1967  -52.8051 H   0  0  0  0  0  0  0  0  0  0  0  0
    9.7210   -1.6400  -51.9206 H   0  0  0  0  0  0  0  0  0  0  0  0
    9.6670   -4.0152  -50.6788 H   0  0  0  0  0  0  0  0  0  0  0  0
    9.0652   -2.4621  -49.9256 H   0  0  0  0  0  0  0  0  0  0  0  0
    7.6507   -4.7223  -49.8328 H   0  0  0  0  0  0  0  0  0  0  0  0
    6.8955   -3.0820  -49.9994 H   0  0  0  0  0  0  0  0  0  0  0  0
    7.5161   -5.0072  -52.2767 H   0  0  0  0  0  0  0  0  0  0  0  0
    5.8881   -4.6790  -51.5426 H   0  0  0  0  0  0  0  0  0  0  0  0
    6.7546   -3.4460  -53.7657 H   0  0  0  0  0  0  0  0  0  0  0  0
    5.6789   -2.6596  -52.5133 H   0  0  0  0  0  0  0  0  0  0  0  0
   11.3394    1.5589  -55.6848 H   0  0  0  0  0  0  0  0  0  0  0  0
   11.2138    0.6544  -57.2316 H   0  0  0  0  0  0  0  0  0  0  0  0
   11.1345    2.4489  -57.2316 H   0  0  0  0  0  0  0  0  0  0  0  0
    8.9499    1.0518  -59.9322 H   0  0  0  0  0  0  0  0  0  0  0  0
    9.8363    2.2622  -61.9192 H   0  0  0  0  0  0  0  0  0  0  0  0
   10.4195    4.6823  -61.7519 H   0  0  0  0  0  0  0  0  0  0  0  0
   10.1072    5.8915  -59.5957 H   0  0  0  0  0  0  0  0  0  0  0  0
    9.2182    4.6884  -57.6046 H   0  0  0  0  0  0  0  0  0  0  0  0
  1  2  1  0
  2  3  2  0
  3  4  1  0
  4  5  1  0
  5  6  2  0
  5  7  1  0
  7  8  1  0
  8  9  1  0
  9 10  1  0
 10 11  1  0
 11 12  1  0
 12 13  1  0
  4 14  2  0
 14 15  1  0
 15 16  1  0
 15 17  2  0
 17 18  1  0
 18 19  2  0
 19 20  1  0
 20 21  2  0
 21 22  1  0
 22 23  2  0
 17  2  1  0
 23 18  1  0
 13  8  1  0
  1 24  1  0
  1 25  1  0
  1 26  1  0
  3 27  1  0
  7 28  1  0
  8 29  1  0
  9 30  1  0
  9 31  1  0
 10 32  1  0
 10 33  1  0
 11 34  1  0
 11 35  1  0
 12 36  1  0
 12 37  1  0
 13 38  1  0
 13 39  1  0
 16 40  1  0
 16 41  1  0
 16 42  1  0
 19 43  1  0
 20 44  1  0
 21 45  1  0
 22 46  1  0
 23 47  1  0
M  END
>  <meeko>  (36) 
{"is_sidechain": false}

$$$$

     RDKit          3D

 44 46  0  0  0  0  0  0  0  0999 V2000
    6.2020    3.0150  -58.3390 C   0  0  0  0  0  0  0  0  0  0  0  0
    7.1030    2.2450  -57.4090 C   0  0  0  0  0  0  0  0  0  0  0  0
    6.5280    1.4680  -56.3960 C   0  0  0  0  0  0  0  0  0  0  0  0
    7.3620    0.7620  -55.5440 C   0  0  0  0  0  0  0  0  0  0  0  0
    6.7750   -0.0840  -54.4540 C   0  0  0  0  0  0  0  0  0  0  0  0
    6.0900    0.4020  -53.5600 O   0  0  0  0  0  0  0  0  0  0  0  0
    7.0700   -1.4250  -54.5660 N   0  0  0  0  0  0  0  0  0  0  0  0
    6.4640   -2.4320  -53.7320 C   0  0  0  0  0  0  0  0  0  0  0  0
    7.3240   -2.7240  -52.5290 C   0  0  0  0  0  0  0  0  0  0  0  0
    8.7210   -2.6650  -52.6150 C   0  0  0  0  0  0  0  0  0  0  0  0
    9.5110   -2.9550  -51.5010 C   0  0  0  0  0  0  0  0  0  0  0  0
    8.9120   -3.3130  -50.2940 C   0  0  0  0  0  0  0  0  0  0  0  0
    7.5240   -3.3840  -50.2000 C   0  0  0  0  0  0  0  0  0  0  0  0
    6.7330   -3.0950  -51.3120 C   0  0  0  0  0  0  0  0  0  0  0  0
    8.7190    0.7760  -55.6290 N   0  0  0  0  0  0  0  0  0  0  0  0
    9.2710    1.5310  -56.6140 C   0  0  0  0  0  0  0  0  0  0  0  0
   10.7750    1.5130  -56.6680 C   0  0  0  0  0  0  0  0  0  0  0  0
    8.5110    2.2870  -57.5320 C   0  0  0  0  0  0  0  0  0  0  0  0
    9.1590    3.0890  -58.5810 C   0  0  0  0  0  0  0  0  0  0  0  0
    9.4000    2.5450  -59.8520 C   0  0  0  0  0  0  0  0  0  0  0  0
   10.0170    3.3060  -60.8470 C   0  0  0  0  0  0  0  0  0  0  0  0
   10.3990    4.6200  -60.5850 C   0  0  0  0  0  0  0  0  0  0  0  0
   10.1650    5.1740  -59.3270 C   0  0  0  0  0  0  0  0  0  0  0  0
    9.5480    4.4140  -58.3320 C   0  0  0  0  0  0  0  0  0  0  0  0
    5.4960    3.6183  -57.7495 H   0  0  0  0  0  0  0  0  0  0  0  0
    6.8096    3.6772  -58.9733 H   0  0  0  0  0  0  0  0  0  0  0  0
    5.6425    2.3117  -58.9733 H   0  0  0  0  0  0  0  0  0  0  0  0
    5.4354    1.4190  -56.2788 H   0  0  0  0  0  0  0  0  0  0  0  0
    7.5480   -1.7010  -55.4180 H   0  0  0  0  0  0  0  0  0  0  0  0
    5.4804   -2.0747  -53.3932 H   0  0  0  0  0  0  0  0  0  0  0  0
    6.3562   -3.3559  -54.3192 H   0  0  0  0  0  0  0  0  0  0  0  0
    9.1987   -2.3884  -53.5665 H   0  0  0  0  0  0  0  0  0  0  0  0
   10.6071   -2.9010  -51.5757 H   0  0  0  0  0  0  0  0  0  0  0  0
    9.5352   -3.5393  -49.4163 H   0  0  0  0  0  0  0  0  0  0  0  0
    7.0514   -3.6682  -49.2482 H   0  0  0  0  0  0  0  0  0  0  0  0
    5.6376   -3.1585  -51.2341 H   0  0  0  0  0  0  0  0  0  0  0  0
   11.1786    1.5082  -55.6447 H   0  0  0  0  0  0  0  0  0  0  0  0
   11.1121    0.6108  -57.1994 H   0  0  0  0  0  0  0  0  0  0  0  0
   11.1336    2.4069  -57.1994 H   0  0  0  0  0  0  0  0  0  0  0  0
    9.0998    1.5087  -60.0666 H   0  0  0  0  0  0  0  0  0  0  0  0
   10.2017    2.8676  -61.8388 H   0  0  0  0  0  0  0  0  0  0  0  0
   10.8844    5.2194  -61.3693 H   0  0  0  0  0  0  0  0  0  0  0  0
   10.4669    6.2110  -59.1185 H   0  0  0  0  0  0  0  0  0  0  0  0
    9.3648    4.8583  -57.3425 H   0  0  0  0  0  0  0  0  0  0  0  0
  1  2  1  0
  2  3  2  0
  3  4  1  0
  4  5  1  0
  5  6  2  0
  5  7  1  0
  7  8  1  0
  8  9  1  0
  9 10  2  0
 10 11  1  0
 11 12  2  0
 12 13  1  0
 13 14  2  0
  4 15  2  0
 15 16  1  0
 16 17  1  0
 16 18  2  0
 18 19  1  0
 19 20  2  0
 20 21  1  0
 21 22  2  0
 22 23  1  0
 23 24  2  0
 18  2  1  0
 24 19  1  0
 14  9  1  0
  1 25  1  0
  1 26  1  0
  1 27  1  0
  3 28  1  0
  7 29  1  0
  8 30  1  0
  8 31  1  0
 10 32  1  0
 11 33  1  0
 12 34  1  0
 13 35  1  0
 14 36  1  0
 17 37  1  0
 17 38  1  0
 17 39  1  0
 20 40  1  0
 21 41  1  0
 22 42  1  0
 23 43  1  0
 24 44  1  0
M  END
>  <meeko>  (37) 
{"is_sidechain": false}

$$$$

     RDKit          3D

 44 46  0  0  0  0  0  0  0  0999 V2000
    9.6460    3.0090  -61.7150 C   0  0  0  0  0  0  0  0  0  0  0  0
    8.7910    3.2410  -60.4990 C   0  0  0  0  0  0  0  0  0  0  0  0
    7.4740    2.7670  -60.4950 C   0  0  0  0  0  0  0  0  0  0  0  0
    6.6920    2.9850  -59.3720 C   0  0  0  0  0  0  0  0  0  0  0  0
    5.2790    2.4850  -59.3340 C   0  0  0  0  0  0  0  0  0  0  0  0
    4.5910    2.5710  -58.3250 O   0  0  0  0  0  0  0  0  0  0  0  0
    4.8420    1.9450  -60.5280 N   0  0  0  0  0  0  0  0  0  0  0  0
    3.4610    1.5700  -60.7550 C   0  0  0  0  0  0  0  0  0  0  0  0
    3.3590    0.2770  -61.5560 C   0  0  0  0  0  0  0  0  0  0  0  0
    3.5180    0.7030  -63.0150 C   0  0  0  0  0  0  0  0  0  0  0  0
    3.1680    2.1900  -63.0680 C   0  0  0  0  0  0  0  0  0  0  0  0
    2.7420    2.5730  -61.6540 C   0  0  0  0  0  0  0  0  0  0  0  0
    7.1270    3.6320  -58.2570 N   0  0  0  0  0  0  0  0  0  0  0  0
    8.4070    4.0900  -58.2670 C   0  0  0  0  0  0  0  0  0  0  0  0
    8.8430    4.8010  -57.0150 C   0  0  0  0  0  0  0  0  0  0  0  0
    9.2830    3.9220  -59.3610 C   0  0  0  0  0  0  0  0  0  0  0  0
   10.6610    4.4370  -59.3210 C   0  0  0  0  0  0  0  0  0  0  0  0
   11.6950    3.6710  -58.7590 C   0  0  0  0  0  0  0  0  0  0  0  0
   13.0020    4.1590  -58.7210 C   0  0  0  0  0  0  0  0  0  0  0  0
   13.2930    5.4170  -59.2450 C   0  0  0  0  0  0  0  0  0  0  0  0
   12.2770    6.1890  -59.8040 C   0  0  0  0  0  0  0  0  0  0  0  0
   10.9700    5.7020  -59.8420 C   0  0  0  0  0  0  0  0  0  0  0  0
   10.6633    2.7329  -61.4007 H   0  0  0  0  0  0  0  0  0  0  0  0
    9.2147    2.1954  -62.3167 H   0  0  0  0  0  0  0  0  0  0  0  0
    9.6851    3.9290  -62.3167 H   0  0  0  0  0  0  0  0  0  0  0  0
    7.0678    2.2320  -61.3661 H   0  0  0  0  0  0  0  0  0  0  0  0
    5.4860    2.0520  -61.3100 H   0  0  0  0  0  0  0  0  0  0  0  0
    3.0242    1.4990  -59.7479 H   0  0  0  0  0  0  0  0  0  0  0  0
    4.1589   -0.4208  -61.2675 H   0  0  0  0  0  0  0  0  0  0  0  0
    2.4071   -0.2451  -61.3790 H   0  0  0  0  0  0  0  0  0  0  0  0
    4.5543    0.5435  -63.3476 H   0  0  0  0  0  0  0  0  0  0  0  0
    2.8654    0.1147  -63.6768 H   0  0  0  0  0  0  0  0  0  0  0  0
    4.0452    2.7783  -63.3753 H   0  0  0  0  0  0  0  0  0  0  0  0
    2.3691    2.3899  -63.7973 H   0  0  0  0  0  0  0  0  0  0  0  0
    3.0550    3.6009  -61.4183 H   0  0  0  0  0  0  0  0  0  0  0  0
    1.6501    2.5451  -61.5234 H   0  0  0  0  0  0  0  0  0  0  0  0
    8.4981    4.2385  -56.1349 H   0  0  0  0  0  0  0  0  0  0  0  0
    9.9405    4.8727  -56.9973 H   0  0  0  0  0  0  0  0  0  0  0  0
    8.4092    5.8117  -56.9973 H   0  0  0  0  0  0  0  0  0  0  0  0
   11.4727    2.6766  -58.3446 H   0  0  0  0  0  0  0  0  0  0  0  0
   13.8032    3.5500  -58.2770 H   0  0  0  0  0  0  0  0  0  0  0  0
   14.3238    5.8000  -59.2173 H   0  0  0  0  0  0  0  0  0  0  0  0
   12.5053    7.1832  -60.2157 H   0  0  0  0  0  0  0  0  0  0  0  0
   10.1731    6.3170  -60.2855 H   0  0  0  0  0  0  0  0  0  0  0  0
  1  2  1  0
  2  3  2  0
  3  4  1  0
  4  5  1  0
  5  6  2  0
  5  7  1  0
  7  8  1  0
  8  9  1  0
  9 10  1  0
 10 11  1  0
 11 12  1  0
  4 13  2  0
 13 14  1  0
 14 15  1  0
 14 16  2  0
 16 17  1  0
 17 18  2  0
 18 19  1  0
 19 20  2  0
 20 21  1  0
 21 22  2  0
 16  2  1  0
 22 17  1  0
 12  8  1  0
  1 23  1  0
  1 24  1  0
  1 25  1  0
  3 26  1  0
  7 27  1  0
  8 28  1  0
  9 29  1  0
  9 30  1  0
 10 31  1  0
 10 32  1  0
 11 33  1  0
 11 34  1  0
 12 35  1  0
 12 36  1  0
 15 37  1  0
 15 38  1  0
 15 39  1  0
 18 40  1  0
 19 41  1  0
 20 42  1  0
 21 43  1  0
 22 44  1  0
M  END
>  <meeko>  (38) 
{"is_sidechain": false}

$$$$

     RDKit          3D

 50 52  0  0  0  0  0  0  0  0999 V2000
    6.7220    0.1070  -52.9280 C   0  0  0  0  0  0  0  0  0  0  0  0
    7.9460   -0.3940  -53.6470 C   0  0  0  0  0  0  0  0  0  0  0  0
    8.5460    0.4210  -54.6130 C   0  0  0  0  0  0  0  0  0  0  0  0
    9.6730   -0.0450  -55.2700 C   0  0  0  0  0  0  0  0  0  0  0  0
   10.3360    0.8010  -56.3160 C   0  0  0  0  0  0  0  0  0  0  0  0
   11.5410    0.7320  -56.5300 O   0  0  0  0  0  0  0  0  0  0  0  0
    9.4750    1.6500  -56.9800 N   0  0  0  0  0  0  0  0  0  0  0  0
    9.9330    2.6850  -57.8920 C   0  0  2  0  0  0  0  0  0  0  0  0
    9.9920    4.0500  -57.1920 C   0  0  0  0  0  0  0  0  0  0  0  0
    8.6030    4.6240  -56.9120 C   0  0  0  0  0  0  0  0  0  0  0  0
    7.7140    4.6900  -58.1630 C   0  0  1  0  0  0  0  0  0  0  0  0
    8.1600    5.8030  -59.1160 C   0  0  0  0  0  0  0  0  0  0  0  0
    7.6630    3.3290  -58.8690 C   0  0  0  0  0  0  0  0  0  0  0  0
    9.0480    2.7370  -59.1420 C   0  0  0  0  0  0  0  0  0  0  0  0
   10.2380   -1.2600  -55.0390 N   0  0  0  0  0  0  0  0  0  0  0  0
    9.6500   -2.0470  -54.0990 C   0  0  0  0  0  0  0  0  0  0  0  0
   10.3110   -3.3800  -53.8760 C   0  0  0  0  0  0  0  0  0  0  0  0
    8.5030   -1.6640  -53.3730 C   0  0  0  0  0  0  0  0  0  0  0  0
    7.9050   -2.5540  -52.3660 C   0  0  0  0  0  0  0  0  0  0  0  0
    6.8800   -3.4480  -52.7170 C   0  0  0  0  0  0  0  0  0  0  0  0
    6.3110   -4.2910  -51.7590 C   0  0  0  0  0  0  0  0  0  0  0  0
    6.7590   -4.2510  -50.4400 C   0  0  0  0  0  0  0  0  0  0  0  0
    7.7760   -3.3700  -50.0770 C   0  0  0  0  0  0  0  0  0  0  0  0
    8.3460   -2.5270  -51.0330 C   0  0  0  0  0  0  0  0  0  0  0  0
    6.8823    0.0414  -51.8417 H   0  0  0  0  0  0  0  0  0  0  0  0
    6.5349    1.1541  -53.2084 H   0  0  0  0  0  0  0  0  0  0  0  0
    5.8544   -0.5084  -53.2084 H   0  0  0  0  0  0  0  0  0  0  0  0
    8.1309    1.4126  -54.8463 H   0  0  0  0  0  0  0  0  0  0  0  0
    8.5300    1.6760  -56.6040 H   0  0  0  0  0  0  0  0  0  0  0  0
   10.9546    2.4326  -58.2122 H   0  0  0  0  0  0  0  0  0  0  0  0
   10.5250    3.9340  -56.2368 H   0  0  0  0  0  0  0  0  0  0  0  0
   10.5134    4.7481  -57.8635 H   0  0  0  0  0  0  0  0  0  0  0  0
    8.1066    3.9895  -56.1630 H   0  0  0  0  0  0  0  0  0  0  0  0
    8.7406    5.6547  -56.5531 H   0  0  0  0  0  0  0  0  0  0  0  0
    6.6935    4.9382  -57.8361 H   0  0  0  0  0  0  0  0  0  0  0  0
    8.5068    6.6684  -58.5323 H   0  0  0  0  0  0  0  0  0  0  0  0
    8.9805    5.4359  -59.7501 H   0  0  0  0  0  0  0  0  0  0  0  0
    7.3131    6.1040  -59.7501 H   0  0  0  0  0  0  0  0  0  0  0  0
    7.1021    2.6271  -58.2344 H   0  0  0  0  0  0  0  0  0  0  0  0
    7.1772    3.4851  -59.8435 H   0  0  0  0  0  0  0  0  0  0  0  0
    8.9226    1.7138  -59.5257 H   0  0  0  0  0  0  0  0  0  0  0  0
    9.5475    3.3906  -59.8723 H   0  0  0  0  0  0  0  0  0  0  0  0
   10.4038   -3.5671  -52.7960 H   0  0  0  0  0  0  0  0  0  0  0  0
    9.7016   -4.1727  -54.3345 H   0  0  0  0  0  0  0  0  0  0  0  0
   11.3109   -3.3747  -54.3345 H   0  0  0  0  0  0  0  0  0  0  0  0
    6.5217   -3.4848  -53.7564 H   0  0  0  0  0  0  0  0  0  0  0  0
    5.5088   -4.9868  -52.0461 H   0  0  0  0  0  0  0  0  0  0  0  0
    6.3102   -4.9143  -49.6859 H   0  0  0  0  0  0  0  0  0  0  0  0
    8.1301   -3.3387  -49.0360 H   0  0  0  0  0  0  0  0  0  0  0  0
    9.1487   -1.8347  -50.7390 H   0  0  0  0  0  0  0  0  0  0  0  0
  1  2  1  0
  2  3  2  0
  3  4  1  0
  4  5  1  0
  5  6  2  0
  5  7  1  0
  7  8  1  0
  8  9  1  0
  9 10  1  0
 10 11  1  0
 11 12  1  0
 11 13  1  0
 13 14  1  0
  4 15  2  0
 15 16  1  0
 16 17  1  0
 16 18  2  0
 18 19  1  0
 19 20  2  0
 20 21  1  0
 21 22  2  0
 22 23  1  0
 23 24  2  0
 18  2  1  0
 24 19  1  0
 14  8  1  0
  1 25  1  0
  1 26  1  0
  1 27  1  0
  3 28  1  0
  7 29  1  0
  8 30  1  1
  9 31  1  0
  9 32  1  0
 10 33  1  0
 10 34  1  0
 11 35  1  6
 12 36  1  0
 12 37  1  0
 12 38  1  0
 13 39  1  0
 13 40  1  0
 14 41  1  0
 14 42  1  0
 17 43  1  0
 17 44  1  0
 17 45  1  0
 20 46  1  0
 21 47  1  0
 22 48  1  0
 23 49  1  0
 24 50  1  0
M  END
>  <meeko>  (39) 
{"is_sidechain": false}

$$$$

     RDKit          3D

 50 52  0  0  0  0  0  0  0  0999 V2000
   10.5650   -2.0960  -53.5620 C   0  0  0  0  0  0  0  0  0  0  0  0
    9.4020   -1.2450  -53.9970 C   0  0  0  0  0  0  0  0  0  0  0  0
    9.6100   -0.2530  -54.9620 C   0  0  0  0  0  0  0  0  0  0  0  0
    8.5350    0.5260  -55.3570 C   0  0  0  0  0  0  0  0  0  0  0  0
    8.7240    1.5940  -56.3930 C   0  0  0  0  0  0  0  0  0  0  0  0
    7.8070    2.3340  -56.7300 O   0  0  0  0  0  0  0  0  0  0  0  0
   10.0050    1.6610  -56.9020 N   0  0  0  0  0  0  0  0  0  0  0  0
   10.4610    2.7300  -57.7770 C   0  0  0  0  0  0  0  0  0  0  0  0
   11.9610    3.0180  -57.5930 C   0  0  0  0  0  0  0  0  0  0  0  0
   12.5040    4.1610  -58.4490 C   0  0  0  0  0  0  0  0  0  0  0  0
   11.5170    5.2890  -58.7330 C   0  0  0  0  0  0  0  0  0  0  0  0
   10.3330    4.9510  -59.6370 C   0  0  0  0  0  0  0  0  0  0  0  0
   10.3600    3.5520  -60.2430 C   0  0  0  0  0  0  0  0  0  0  0  0
   10.0300    2.4600  -59.2220 C   0  0  0  0  0  0  0  0  0  0  0  0
    7.2740    0.3880  -54.8650 N   0  0  0  0  0  0  0  0  0  0  0  0
    7.0790   -0.5780  -53.9290 C   0  0  0  0  0  0  0  0  0  0  0  0
    5.6700   -0.6930  -53.4140 C   0  0  0  0  0  0  0  0  0  0  0  0
    8.1060   -1.4220  -53.4580 C   0  0  0  0  0  0  0  0  0  0  0  0
    7.8410   -2.4530  -52.4420 C   0  0  0  0  0  0  0  0  0  0  0  0
    7.4030   -3.7330  -52.8180 C   0  0  0  0  0  0  0  0  0  0  0  0
    7.1550   -4.7130  -51.8540 C   0  0  0  0  0  0  0  0  0  0  0  0
    7.3380   -4.4240  -50.5030 C   0  0  0  0  0  0  0  0  0  0  0  0
    7.7710   -3.1580  -50.1140 C   0  0  0  0  0  0  0  0  0  0  0  0
    8.0200   -2.1780  -51.0780 C   0  0  0  0  0  0  0  0  0  0  0  0
   10.6064   -2.1263  -52.4632 H   0  0  0  0  0  0  0  0  0  0  0  0
   10.4388   -3.1166  -53.9525 H   0  0  0  0  0  0  0  0  0  0  0  0
   11.4996   -1.6670  -53.9525 H   0  0  0  0  0  0  0  0  0  0  0  0
   10.6074   -0.0951  -55.3981 H   0  0  0  0  0  0  0  0  0  0  0  0
   10.6790    1.0520  -56.4420 H   0  0  0  0  0  0  0  0  0  0  0  0
    9.9674    3.6698  -57.4885 H   0  0  0  0  0  0  0  0  0  0  0  0
   12.1339    3.2699  -56.5363 H   0  0  0  0  0  0  0  0  0  0  0  0
   12.4923    2.1104  -57.9155 H   0  0  0  0  0  0  0  0  0  0  0  0
   13.3722    4.5921  -57.9290 H   0  0  0  0  0  0  0  0  0  0  0  0
   12.7498    3.7190  -59.4258 H   0  0  0  0  0  0  0  0  0  0  0  0
   11.1134    5.6300  -57.7682 H   0  0  0  0  0  0  0  0  0  0  0  0
   12.0939    6.0474  -59.2825 H   0  0  0  0  0  0  0  0  0  0  0  0
    9.4123    5.0472  -59.0428 H   0  0  0  0  0  0  0  0  0  0  0  0
   10.3839    5.6521  -60.4831 H   0  0  0  0  0  0  0  0  0  0  0  0
    9.6221    3.5069  -61.0575 H   0  0  0  0  0  0  0  0  0  0  0  0
   11.3809    3.3677  -60.6087 H   0  0  0  0  0  0  0  0  0  0  0  0
    8.9394    2.3165  -59.2253 H   0  0  0  0  0  0  0  0  0  0  0  0
   10.6049    1.5776  -59.5398 H   0  0  0  0  0  0  0  0  0  0  0  0
    5.6804   -0.6921  -52.3141 H   0  0  0  0  0  0  0  0  0  0  0  0
    5.0767    0.1597  -53.7757 H   0  0  0  0  0  0  0  0  0  0  0  0
    5.2228   -1.6306  -53.7757 H   0  0  0  0  0  0  0  0  0  0  0  0
    7.2536   -3.9664  -53.8825 H   0  0  0  0  0  0  0  0  0  0  0  0
    6.8152   -5.7131  -52.1613 H   0  0  0  0  0  0  0  0  0  0  0  0
    7.1406   -5.1952  -49.7439 H   0  0  0  0  0  0  0  0  0  0  0  0
    7.9168   -2.9302  -49.0478 H   0  0  0  0  0  0  0  0  0  0  0  0
    8.3601   -1.1801  -50.7642 H   0  0  0  0  0  0  0  0  0  0  0  0
  1  2  1  0
  2  3  2  0
  3  4  1  0
  4  5  1  0
  5  6  2  0
  5  7  1  0
  7  8  1  0
  8  9  1  0
  9 10  1  0
 10 11  1  0
 11 12  1  0
 12 13  1  0
 13 14  1  0
  4 15  2  0
 15 16  1  0
 16 17  1  0
 16 18  2  0
 18 19  1  0
 19 20  2  0
 20 21  1  0
 21 22  2  0
 22 23  1  0
 23 24  2  0
 18  2  1  0
 24 19  1  0
 14  8  1  0
  1 25  1  0
  1 26  1  0
  1 27  1  0
  3 28  1  0
  7 29  1  0
  8 30  1  0
  9 31  1  0
  9 32  1  0
 10 33  1  0
 10 34  1  0
 11 35  1  0
 11 36  1  0
 12 37  1  0
 12 38  1  0
 13 39  1  0
 13 40  1  0
 14 41  1  0
 14 42  1  0
 17 43  1  0
 17 44  1  0
 17 45  1  0
 20 46  1  0
 21 47  1  0
 22 48  1  0
 23 49  1  0
 24 50  1  0
M  END
>  <meeko>  (40) 
{"is_sidechain": false}

$$$$

     RDKit          3D

 38 40  0  0  0  0  0  0  0  0999 V2000
    9.6550    3.0230  -61.7150 C   0  0  0  0  0  0  0  0  0  0  0  0
    8.8580    3.2590  -60.4590 C   0  0  0  0  0  0  0  0  0  0  0  0
    7.5400    2.7930  -60.3950 C   0  0  0  0  0  0  0  0  0  0  0  0
    6.8120    3.0130  -59.2370 C   0  0  0  0  0  0  0  0  0  0  0  0
    5.3980    2.5260  -59.1360 C   0  0  0  0  0  0  0  0  0  0  0  0
    4.8490    2.3720  -58.0510 O   0  0  0  0  0  0  0  0  0  0  0  0
    4.8050    2.2830  -60.3590 N   0  0  0  0  0  0  0  0  0  0  0  0
    3.4740    1.8020  -60.5040 C   0  0  0  0  0  0  0  0  0  0  0  0
    3.1200    0.8640  -61.6240 C   0  0  0  0  0  0  0  0  0  0  0  0
    2.6070    2.2740  -61.6380 C   0  0  0  0  0  0  0  0  0  0  0  0
    7.3010    3.6610  -58.1440 N   0  0  0  0  0  0  0  0  0  0  0  0
    8.5820    4.1110  -58.2140 C   0  0  0  0  0  0  0  0  0  0  0  0
    9.0780    4.8200  -56.9830 C   0  0  0  0  0  0  0  0  0  0  0  0
    9.4060    3.9370  -59.3460 C   0  0  0  0  0  0  0  0  0  0  0  0
   10.7870    4.4450  -59.3700 C   0  0  0  0  0  0  0  0  0  0  0  0
   11.0690    5.7330  -59.8510 C   0  0  0  0  0  0  0  0  0  0  0  0
   12.3800    6.2140  -59.8720 C   0  0  0  0  0  0  0  0  0  0  0  0
   13.4230    5.4150  -59.4120 C   0  0  0  0  0  0  0  0  0  0  0  0
   13.1600    4.1330  -58.9320 C   0  0  0  0  0  0  0  0  0  0  0  0
   11.8500    3.6500  -58.9120 C   0  0  0  0  0  0  0  0  0  0  0  0
   10.6783    2.7200  -61.4484 H   0  0  0  0  0  0  0  0  0  0  0  0
    9.1794    2.2271  -62.3069 H   0  0  0  0  0  0  0  0  0  0  0  0
    9.6894    3.9495  -62.3069 H   0  0  0  0  0  0  0  0  0  0  0  0
    7.0908    2.2624  -61.2475 H   0  0  0  0  0  0  0  0  0  0  0  0
    5.3840    2.4620  -61.1760 H   0  0  0  0  0  0  0  0  0  0  0  0
    3.3773    1.7800  -59.4085 H   0  0  0  0  0  0  0  0  0  0  0  0
    3.8907    0.5521  -62.3443 H   0  0  0  0  0  0  0  0  0  0  0  0
    2.6576   -0.1321  -61.6870 H   0  0  0  0  0  0  0  0  0  0  0  0
    3.0017    2.9955  -62.3685 H   0  0  0  0  0  0  0  0  0  0  0  0
    1.6131    2.7390  -61.7154 H   0  0  0  0  0  0  0  0  0  0  0  0
    8.7125    4.2975  -56.0866 H   0  0  0  0  0  0  0  0  0  0  0  0
   10.1780    4.8255  -56.9812 H   0  0  0  0  0  0  0  0  0  0  0  0
    8.7061    5.8552  -56.9812 H   0  0  0  0  0  0  0  0  0  0  0  0
   10.2494    6.3699  -60.2150 H   0  0  0  0  0  0  0  0  0  0  0  0
   12.5885    7.2249  -60.2523 H   0  0  0  0  0  0  0  0  0  0  0  0
   14.4550    5.7954  -59.4273 H   0  0  0  0  0  0  0  0  0  0  0  0
   13.9845    3.5018  -58.5690 H   0  0  0  0  0  0  0  0  0  0  0  0
   11.6488    2.6369  -58.5338 H   0  0  0  0  0  0  0  0  0  0  0  0
  1  2  1  0
  2  3  2  0
  3  4  1  0
  4  5  1  0
  5  6  2  0
  5  7  1  0
  7  8  1  0
  8  9  1  0
  9 10  1  0
  4 11  2  0
 11 12  1  0
 12 13  1  0
 12 14  2  0
 14 15  1  0
 15 16  2  0
 16 17  1  0
 17 18  2  0
 18 19  1  0
 19 20  2  0
 14  2  1  0
 20 15  1  0
 10  8  1  0
  1 21  1  0
  1 22  1  0
  1 23  1  0
  3 24  1  0
  7 25  1  0
  8 26  1  0
  9 27  1  0
  9 28  1  0
 10 29  1  0
 10 30  1  0
 13 31  1  0
 13 32  1  0
 13 33  1  0
 16 34  1  0
 17 35  1  0
 18 36  1  0
 19 37  1  0
 20 38  1  0
M  END
>  <meeko>  (41) 
{"is_sidechain": false}

$$$$

     RDKit          3D

 60 65  0  0  0  0  0  0  0  0999 V2000
    6.1690    0.0260  -53.7410 C   0  0  0  0  0  0  0  0  0  0  0  0
    7.5500   -0.4360  -54.0350 C   0  0  0  0  0  0  0  0  0  0  0  0
    8.4490    0.1200  -54.9940 C   0  0  0  0  0  0  0  0  0  0  0  0
    8.2150    1.2600  -55.9040 C   0  0  0  0  0  0  0  0  0  0  0  0
    7.1040    1.7430  -56.0990 O   0  0  0  0  0  0  0  0  0  0  0  0
    9.3750    1.7070  -56.4980 N   0  0  0  0  0  0  0  0  0  0  0  0
    9.4920    2.8020  -57.4550 C   0  0  2  0  0  0  0  0  0  0  0  0
    9.1560    4.1670  -56.8050 C   0  0  0  0  0  0  0  0  0  0  0  0
    9.3330    5.3080  -57.8220 C   0  0  1  0  0  0  0  0  0  0  0  0
   10.7910    5.3340  -58.3080 C   0  0  0  0  0  0  0  0  0  0  0  0
   11.1450    3.9960  -58.9780 C   0  0  2  0  0  0  0  0  0  0  0  0
   10.2080    3.7630  -60.1730 C   0  0  0  0  0  0  0  0  0  0  0  0
    8.7470    3.7280  -59.6980 C   0  0  2  0  0  0  0  0  0  0  0  0
    8.4020    5.0660  -59.0210 C   0  0  0  0  0  0  0  0  0  0  0  0
    8.5710    2.5860  -58.6810 C   0  0  0  0  0  0  0  0  0  0  0  0
   10.9570    2.8600  -57.9610 C   0  0  0  0  0  0  0  0  0  0  0  0
    9.6260   -0.5390  -54.9990 N   0  0  0  0  0  0  0  0  0  0  0  0
    9.4720   -1.5060  -54.0700 N   0  0  0  0  0  0  0  0  0  0  0  0
   10.5750   -2.4320  -53.8290 C   0  0  0  0  0  0  0  0  0  0  0  0
   10.4090   -3.7190  -54.5820 C   0  0  0  0  0  0  0  0  0  0  0  0
   10.7120   -3.7960  -56.0570 C   0  0  0  0  0  0  0  0  0  0  0  0
   11.6200   -4.4740  -55.0690 C   0  0  0  0  0  0  0  0  0  0  0  0
    8.2450   -1.4830  -53.4480 C   0  0  0  0  0  0  0  0  0  0  0  0
    7.8320   -2.4180  -52.4100 C   0  0  0  0  0  0  0  0  0  0  0  0
    7.1210   -3.5740  -52.7470 C   0  0  0  0  0  0  0  0  0  0  0  0
    6.7270   -4.4720  -51.7530 C   0  0  0  0  0  0  0  0  0  0  0  0
    7.0370   -4.2140  -50.4180 C   0  0  0  0  0  0  0  0  0  0  0  0
    7.7360   -3.0570  -50.0750 C   0  0  0  0  0  0  0  0  0  0  0  0
    8.1320   -2.1590  -51.0690 C   0  0  0  0  0  0  0  0  0  0  0  0
    6.0228    0.0749  -52.6519 H   0  0  0  0  0  0  0  0  0  0  0  0
    6.0158    1.0243  -54.1767 H   0  0  0  0  0  0  0  0  0  0  0  0
    5.4459   -0.6792  -54.1767 H   0  0  0  0  0  0  0  0  0  0  0  0
   10.2010    1.1780  -56.2230 H   0  0  0  0  0  0  0  0  0  0  0  0
    8.1136    4.1537  -56.4541 H   0  0  0  0  0  0  0  0  0  0  0  0
    9.8394    4.3356  -55.9597 H   0  0  0  0  0  0  0  0  0  0  0  0
    9.0847    6.2690  -57.3478 H   0  0  0  0  0  0  0  0  0  0  0  0
   10.9186    6.1503  -59.0343 H   0  0  0  0  0  0  0  0  0  0  0  0
   11.4563    5.4942  -57.4468 H   0  0  0  0  0  0  0  0  0  0  0  0
   12.1886    4.0187  -59.3249 H   0  0  0  0  0  0  0  0  0  0  0  0
   10.3351    4.5789  -60.8997 H   0  0  0  0  0  0  0  0  0  0  0  0
   10.4571    2.8007  -60.6442 H   0  0  0  0  0  0  0  0  0  0  0  0
    8.0815    3.5645  -60.5585 H   0  0  0  0  0  0  0  0  0  0  0  0
    8.5244    5.8832  -59.7471 H   0  0  0  0  0  0  0  0  0  0  0  0
    7.3611    5.0320  -58.6669 H   0  0  0  0  0  0  0  0  0  0  0  0
    7.5236    2.5583  -58.3460 H   0  0  0  0  0  0  0  0  0  0  0  0
    8.8409    1.6355  -59.1645 H   0  0  0  0  0  0  0  0  0  0  0  0
   11.2099    1.9028  -58.4404 H   0  0  0  0  0  0  0  0  0  0  0  0
   11.6170    3.0473  -57.1012 H   0  0  0  0  0  0  0  0  0  0  0  0
   11.5140   -1.9547  -54.1459 H   0  0  0  0  0  0  0  0  0  0  0  0
   10.5889   -2.6685  -52.7548 H   0  0  0  0  0  0  0  0  0  0  0  0
    9.5365   -3.9585  -53.9564 H   0  0  0  0  0  0  0  0  0  0  0  0
   10.0723   -4.3982  -56.7189 H   0  0  0  0  0  0  0  0  0  0  0  0
   10.8509   -3.0587  -56.8614 H   0  0  0  0  0  0  0  0  0  0  0  0
   11.6443   -5.5721  -55.0083 H   0  0  0  0  0  0  0  0  0  0  0  0
   12.6977   -4.4378  -54.8518 H   0  0  0  0  0  0  0  0  0  0  0  0
    6.8712   -3.7766  -53.7989 H   0  0  0  0  0  0  0  0  0  0  0  0
    6.1722   -5.3827  -52.0229 H   0  0  0  0  0  0  0  0  0  0  0  0
    6.7301   -4.9233  -49.6353 H   0  0  0  0  0  0  0  0  0  0  0  0
    7.9756   -2.8515  -49.0213 H   0  0  0  0  0  0  0  0  0  0  0  0
    8.6812   -1.2458  -50.7962 H   0  0  0  0  0  0  0  0  0  0  0  0
  1  2  1  0
  2  3  1  0
  3  4  1  0
  4  5  2  0
  4  6  1  0
  7  6  1  1
  7  8  1  0
  8  9  1  0
  9 10  1  0
 10 11  1  0
 11 12  1  0
 12 13  1  0
 13 14  1  0
 13 15  1  0
 11 16  1  0
  3 17  2  0
 17 18  1  0
 18 19  1  0
 19 20  1  0
 20 21  1  0
 21 22  1  0
 18 23  1  0
 23 24  1  0
 24 25  2  0
 25 26  1  0
 26 27  2  0
 27 28  1  0
 28 29  2  0
 23  2  2  0
 29 24  1  0
 15  7  1  0
 22 20  1  0
 16  7  1  0
 14  9  1  0
  1 30  1  0
  1 31  1  0
  1 32  1  0
  6 33  1  0
  8 34  1  0
  8 35  1  0
  9 36  1  1
 10 37  1  0
 10 38  1  0
 11 39  1  6
 12 40  1  0
 12 41  1  0
 13 42  1  6
 14 43  1  0
 14 44  1  0
 15 45  1  0
 15 46  1  0
 16 47  1  0
 16 48  1  0
 19 49  1  0
 19 50  1  0
 20 51  1  0
 21 52  1  0
 21 53  1  0
 22 54  1  0
 22 55  1  0
 25 56  1  0
 26 57  1  0
 27 58  1  0
 28 59  1  0
 29 60  1  0
M  END
>  <meeko>  (42) 
{"is_sidechain": false}

$$$$

     RDKit          3D

 53 57  0  0  0  0  0  0  0  0999 V2000
    5.9530   -0.3450  -53.9210 C   0  0  0  0  0  0  0  0  0  0  0  0
    7.4130   -0.5610  -54.0900 C   0  0  0  0  0  0  0  0  0  0  0  0
    8.2820    0.1430  -54.9790 C   0  0  0  0  0  0  0  0  0  0  0  0
    7.9320    1.2230  -55.9240 C   0  0  0  0  0  0  0  0  0  0  0  0
    6.7790    1.5950  -56.1180 O   0  0  0  0  0  0  0  0  0  0  0  0
    9.0370    1.7530  -56.5530 N   0  0  0  0  0  0  0  0  0  0  0  0
    9.0400    2.8240  -57.5430 C   0  0  2  0  0  0  0  0  0  0  0  0
   10.4480    2.8930  -58.1910 C   0  0  0  0  0  0  0  0  0  0  0  0
   10.5140    4.0070  -59.2480 C   0  0  1  0  0  0  0  0  0  0  0  0
    9.4710    3.7280  -60.3410 C   0  0  0  0  0  0  0  0  0  0  0  0
    8.0640    3.6810  -59.7230 C   0  0  2  0  0  0  0  0  0  0  0  0
    7.7610    5.0290  -59.0490 C   0  0  0  0  0  0  0  0  0  0  0  0
    8.8000    5.3170  -57.9520 C   0  0  2  0  0  0  0  0  0  0  0  0
   10.2030    5.3550  -58.5790 C   0  0  0  0  0  0  0  0  0  0  0  0
    8.7440    4.2000  -56.8960 C   0  0  0  0  0  0  0  0  0  0  0  0
    8.0080    2.5620  -58.6680 C   0  0  0  0  0  0  0  0  0  0  0  0
    9.5530   -0.2990  -54.8700 N   0  0  0  0  0  0  0  0  0  0  0  0
    9.4860   -1.2710  -53.9420 N   0  0  0  0  0  0  0  0  0  0  0  0
   10.6900   -1.9950  -53.5990 C   0  0  0  0  0  0  0  0  0  0  0  0
    8.2290   -1.4660  -53.4270 C   0  0  0  0  0  0  0  0  0  0  0  0
    7.9090   -2.4570  -52.4060 C   0  0  0  0  0  0  0  0  0  0  0  0
    8.1290   -2.1770  -51.0530 C   0  0  0  0  0  0  0  0  0  0  0  0
    7.8250   -3.1300  -50.0790 C   0  0  0  0  0  0  0  0  0  0  0  0
    7.2990   -4.3660  -50.4530 C   0  0  0  0  0  0  0  0  0  0  0  0
    7.0720   -4.6500  -51.7990 C   0  0  0  0  0  0  0  0  0  0  0  0
    7.3730   -3.6970  -52.7740 C   0  0  0  0  0  0  0  0  0  0  0  0
    5.7094   -0.3090  -52.8489 H   0  0  0  0  0  0  0  0  0  0  0  0
    5.6657    0.6054  -54.3945 H   0  0  0  0  0  0  0  0  0  0  0  0
    5.4028   -1.1715  -54.3945 H   0  0  0  0  0  0  0  0  0  0  0  0
    9.9130    1.3150  -56.2700 H   0  0  0  0  0  0  0  0  0  0  0  0
   11.1945    3.0947  -57.4087 H   0  0  0  0  0  0  0  0  0  0  0  0
   10.6551    1.9309  -58.6824 H   0  0  0  0  0  0  0  0  0  0  0  0
   11.5184    4.0387  -59.6953 H   0  0  0  0  0  0  0  0  0  0  0  0
    9.5112    4.5272  -61.0958 H   0  0  0  0  0  0  0  0  0  0  0  0
    9.6915    2.7591  -60.8127 H   0  0  0  0  0  0  0  0  0  0  0  0
    7.3210    3.4845  -60.5100 H   0  0  0  0  0  0  0  0  0  0  0  0
    7.7969    5.8290  -59.8031 H   0  0  0  0  0  0  0  0  0  0  0  0
    6.7600    4.9874  -58.5947 H   0  0  0  0  0  0  0  0  0  0  0  0
    8.5812    6.2854  -57.4785 H   0  0  0  0  0  0  0  0  0  0  0  0
   10.2437    6.1545  -59.3334 H   0  0  0  0  0  0  0  0  0  0  0  0
   10.9463    5.5483  -57.7915 H   0  0  0  0  0  0  0  0  0  0  0  0
    9.4931    4.4016  -56.1162 H   0  0  0  0  0  0  0  0  0  0  0  0
    7.7356    4.1764  -56.4573 H   0  0  0  0  0  0  0  0  0  0  0  0
    6.9987    2.5259  -58.2320 H   0  0  0  0  0  0  0  0  0  0  0  0
    8.2464    1.6039  -59.1530 H   0  0  0  0  0  0  0  0  0  0  0  0
   10.7845   -2.0518  -52.5045 H   0  0  0  0  0  0  0  0  0  0  0  0
   10.6378   -3.0116  -54.0158 H   0  0  0  0  0  0  0  0  0  0  0  0
   11.5635   -1.4722  -54.0158 H   0  0  0  0  0  0  0  0  0  0  0  0
    8.5431   -1.2023  -50.7555 H   0  0  0  0  0  0  0  0  0  0  0  0
    8.0005   -2.9058  -49.0165 H   0  0  0  0  0  0  0  0  0  0  0  0
    7.0629   -5.1177  -49.6854 H   0  0  0  0  0  0  0  0  0  0  0  0
    6.6558   -5.6249  -52.0928 H   0  0  0  0  0  0  0  0  0  0  0  0
    7.1884   -3.9212  -53.8350 H   0  0  0  0  0  0  0  0  0  0  0  0
  1  2  1  0
  2  3  1  0
  3  4  1  0
  4  5  2  0
  4  6  1  0
  7  6  1  1
  7  8  1  0
  8  9  1  0
  9 10  1  0
 10 11  1  0
 11 12  1  0
 12 13  1  0
 13 14  1  0
 13 15  1  0
 11 16  1  0
  3 17  2  0
 17 18  1  0
 18 19  1  0
 18 20  1  0
 20 21  1  0
 21 22  2  0
 22 23  1  0
 23 24  2  0
 24 25  1  0
 25 26  2  0
 20  2  2  0
 26 21  1  0
 15  7  1  0
 16  7  1  0
 14  9  1  0
  1 27  1  0
  1 28  1  0
  1 29  1  0
  6 30  1  0
  8 31  1  0
  8 32  1  0
  9 33  1  6
 10 34  1  0
 10 35  1  0
 11 36  1  6
 12 37  1  0
 12 38  1  0
 13 39  1  1
 14 40  1  0
 14 41  1  0
 15 42  1  0
 15 43  1  0
 16 44  1  0
 16 45  1  0
 19 46  1  0
 19 47  1  0
 19 48  1  0
 22 49  1  0
 23 50  1  0
 24 51  1  0
 25 52  1  0
 26 53  1  0
M  END
>  <meeko>  (43) 
{"is_sidechain": false}

$$$$

     RDKit          3D

 57 62  0  0  0  0  0  0  0  0999 V2000
    5.8920    0.1650  -53.5810 C   0  0  0  0  0  0  0  0  0  0  0  0
    7.2080   -0.4090  -53.9620 C   0  0  0  0  0  0  0  0  0  0  0  0
    8.0760    0.0570  -54.9980 C   0  0  0  0  0  0  0  0  0  0  0  0
    7.8590    1.1920  -55.9190 C   0  0  0  0  0  0  0  0  0  0  0  0
    6.7510    1.6600  -56.1520 O   0  0  0  0  0  0  0  0  0  0  0  0
    9.0330    1.6500  -56.4770 N   0  0  0  0  0  0  0  0  0  0  0  0
    9.1670    2.7490  -57.4280 C   0  0  2  0  0  0  0  0  0  0  0  0
    8.3560    2.4860  -58.7200 C   0  0  0  0  0  0  0  0  0  0  0  0
    8.5530    3.6350  -59.7250 C   0  0  1  0  0  0  0  0  0  0  0  0
    8.0880    4.9530  -59.0830 C   0  0  0  0  0  0  0  0  0  0  0  0
    8.9100    5.2450  -57.8160 C   0  0  2  0  0  0  0  0  0  0  0  0
   10.3980    5.3450  -58.1890 C   0  0  0  0  0  0  0  0  0  0  0  0
   10.8700    4.0270  -58.8230 C   0  0  2  0  0  0  0  0  0  0  0  0
   10.0420    3.7450  -60.0870 C   0  0  0  0  0  0  0  0  0  0  0  0
   10.6630    2.8810  -57.8190 C   0  0  0  0  0  0  0  0  0  0  0  0
    8.7140    4.0950  -56.8110 C   0  0  0  0  0  0  0  0  0  0  0  0
    9.2000   -0.6840  -55.0670 N   0  0  0  0  0  0  0  0  0  0  0  0
    9.0340   -1.6130  -54.1140 N   0  0  0  0  0  0  0  0  0  0  0  0
   10.0670   -2.6530  -53.8840 C   0  0  0  0  0  0  0  0  0  0  0  0
   11.1820   -2.4700  -52.8780 C   0  0  0  0  0  0  0  0  0  0  0  0
   11.4970   -2.4860  -54.3440 C   0  0  0  0  0  0  0  0  0  0  0  0
    7.8690   -1.4920  -53.3980 C   0  0  0  0  0  0  0  0  0  0  0  0
    7.4770   -2.3770  -52.3060 C   0  0  0  0  0  0  0  0  0  0  0  0
    6.6480   -3.4760  -52.5570 C   0  0  0  0  0  0  0  0  0  0  0  0
    6.2710   -4.3280  -51.5170 C   0  0  0  0  0  0  0  0  0  0  0  0
    6.7160   -4.0800  -50.2180 C   0  0  0  0  0  0  0  0  0  0  0  0
    7.5350   -2.9830  -49.9590 C   0  0  0  0  0  0  0  0  0  0  0  0
    7.9140   -2.1320  -50.9990 C   0  0  0  0  0  0  0  0  0  0  0  0
    5.8110    0.2003  -52.4846 H   0  0  0  0  0  0  0  0  0  0  0  0
    5.8043    1.1831  -53.9882 H   0  0  0  0  0  0  0  0  0  0  0  0
    5.0862   -0.4634  -53.9882 H   0  0  0  0  0  0  0  0  0  0  0  0
    9.8590    1.1380  -56.1720 H   0  0  0  0  0  0  0  0  0  0  0  0
    8.6966    1.5445  -59.1756 H   0  0  0  0  0  0  0  0  0  0  0  0
    7.2888    2.4188  -58.4620 H   0  0  0  0  0  0  0  0  0  0  0  0
    7.9662    3.4368  -60.6340 H   0  0  0  0  0  0  0  0  0  0  0  0
    8.2233    5.7749  -59.8015 H   0  0  0  0  0  0  0  0  0  0  0  0
    7.0262    4.8645  -58.8098 H   0  0  0  0  0  0  0  0  0  0  0  0
    8.5772    6.1922  -57.3665 H   0  0  0  0  0  0  0  0  0  0  0  0
   10.5392    6.1660  -58.9073 H   0  0  0  0  0  0  0  0  0  0  0  0
   10.9861    5.5397  -57.2800 H   0  0  0  0  0  0  0  0  0  0  0  0
   11.9350    4.1043  -59.0872 H   0  0  0  0  0  0  0  0  0  0  0  0
   10.1827    4.5660  -60.8055 H   0  0  0  0  0  0  0  0  0  0  0  0
   10.3763    2.7972  -60.5341 H   0  0  0  0  0  0  0  0  0  0  0  0
   11.0005    1.9383  -58.2743 H   0  0  0  0  0  0  0  0  0  0  0  0
   11.2448    3.1001  -56.9116 H   0  0  0  0  0  0  0  0  0  0  0  0
    9.3097    4.2978  -55.9088 H   0  0  0  0  0  0  0  0  0  0  0  0
    7.6465    4.0262  -56.5545 H   0  0  0  0  0  0  0  0  0  0  0  0
    9.2764   -3.3999  -54.0487 H   0  0  0  0  0  0  0  0  0  0  0  0
   11.2604   -1.5316  -52.3094 H   0  0  0  0  0  0  0  0  0  0  0  0
   11.5368   -3.0318  -52.0014 H   0  0  0  0  0  0  0  0  0  0  0  0
   11.8066   -1.5593  -54.8493 H   0  0  0  0  0  0  0  0  0  0  0  0
   12.1785   -3.0646  -54.9849 H   0  0  0  0  0  0  0  0  0  0  0  0
    6.2913   -3.6698  -53.5794 H   0  0  0  0  0  0  0  0  0  0  0  0
    5.6239   -5.1937  -51.7215 H   0  0  0  0  0  0  0  0  0  0  0  0
    6.4201   -4.7509  -49.3980 H   0  0  0  0  0  0  0  0  0  0  0  0
    7.8834   -2.7872  -48.9342 H   0  0  0  0  0  0  0  0  0  0  0  0
    8.5587   -1.2655  -50.7904 H   0  0  0  0  0  0  0  0  0  0  0  0
  1  2  1  0
  2  3  1  0
  3  4  1  0
  4  5  2  0
  4  6  1  0
  7  6  1  1
  7  8  1  0
  8  9  1  0
  9 10  1  0
 10 11  1  0
 11 12  1  0
 12 13  1  0
 13 14  1  0
 13 15  1  0
 11 16  1  0
  3 17  2  0
 17 18  1  0
 18 19  1  0
 19 20  1  0
 20 21  1  0
 18 22  1  0
 22 23  1  0
 23 24  2  0
 24 25  1  0
 25 26  2  0
 26 27  1  0
 27 28  2  0
 22  2  2  0
 28 23  1  0
 15  7  1  0
 21 19  1  0
 16  7  1  0
 14  9  1  0
  1 29  1  0
  1 30  1  0
  1 31  1  0
  6 32  1  0
  8 33  1  0
  8 34  1  0
  9 35  1  6
 10 36  1  0
 10 37  1  0
 11 38  1  1
 12 39  1  0
 12 40  1  0
 13 41  1  6
 14 42  1  0
 14 43  1  0
 15 44  1  0
 15 45  1  0
 16 46  1  0
 16 47  1  0
 19 48  1  0
 20 49  1  0
 20 50  1  0
 21 51  1  0
 21 52  1  0
 24 53  1  0
 25 54  1  0
 26 55  1  0
 27 56  1  0
 28 57  1  0
M  END
>  <meeko>  (44) 
{"is_sidechain": false}

$$$$

     RDKit          3D

 59 63  0  0  0  0  0  0  0  0999 V2000
   10.3300   -4.0150  -55.1070 C   0  0  0  0  0  0  0  0  0  0  0  0
   11.2120   -2.8100  -54.8250 C   0  0  0  0  0  0  0  0  0  0  0  0
   10.6720   -1.9860  -53.6600 C   0  0  0  0  0  0  0  0  0  0  0  0
    9.4550   -1.2730  -54.0130 N   0  0  0  0  0  0  0  0  0  0  0  0
    9.5170   -0.3370  -54.9740 N   0  0  0  0  0  0  0  0  0  0  0  0
    8.2700    0.1530  -55.0620 C   0  0  0  0  0  0  0  0  0  0  0  0
    7.9360    1.2120  -56.0360 C   0  0  0  0  0  0  0  0  0  0  0  0
    6.8030    1.6640  -56.1670 O   0  0  0  0  0  0  0  0  0  0  0  0
    9.0280    1.6620  -56.7610 N   0  0  0  0  0  0  0  0  0  0  0  0
    8.9950    2.7790  -57.7080 C   0  0  2  0  0  0  0  0  0  0  0  0
    7.9120    2.5850  -58.7980 C   0  0  0  0  0  0  0  0  0  0  0  0
    7.9430    3.7480  -59.8060 C   0  0  1  0  0  0  0  0  0  0  0  0
    7.6980    5.0710  -59.0600 C   0  0  0  0  0  0  0  0  0  0  0  0
    8.7910    5.2910  -58.0010 C   0  0  2  0  0  0  0  0  0  0  0  0
   10.1640    5.3290  -58.6890 C   0  0  0  0  0  0  0  0  0  0  0  0
   10.4170    4.0070  -59.4300 C   0  0  2  0  0  0  0  0  0  0  0  0
    9.3210    3.7960  -60.4850 C   0  0  0  0  0  0  0  0  0  0  0  0
   10.3740    2.8480  -58.4210 C   0  0  0  0  0  0  0  0  0  0  0  0
    8.7600    4.1300  -56.9900 C   0  0  0  0  0  0  0  0  0  0  0  0
    7.4020   -0.4990  -54.1250 C   0  0  0  0  0  0  0  0  0  0  0  0
    5.9610   -0.2240  -53.8780 C   0  0  0  0  0  0  0  0  0  0  0  0
    8.2010   -1.4290  -53.4760 C   0  0  0  0  0  0  0  0  0  0  0  0
    7.8680   -2.3830  -52.4270 C   0  0  0  0  0  0  0  0  0  0  0  0
    7.4600   -3.6800  -52.7570 C   0  0  0  0  0  0  0  0  0  0  0  0
    7.1450   -4.5940  -51.7500 C   0  0  0  0  0  0  0  0  0  0  0  0
    7.2310   -4.2140  -50.4110 C   0  0  0  0  0  0  0  0  0  0  0  0
    7.6300   -2.9210  -50.0770 C   0  0  0  0  0  0  0  0  0  0  0  0
    7.9470   -2.0060  -51.0820 C   0  0  0  0  0  0  0  0  0  0  0  0
   10.0035   -4.4610  -54.1560 H   0  0  0  0  0  0  0  0  0  0  0  0
    9.4493   -3.6976  -55.6846 H   0  0  0  0  0  0  0  0  0  0  0  0
   10.8988   -4.7586  -55.6846 H   0  0  0  0  0  0  0  0  0  0  0  0
   12.2256   -3.1583  -54.5776 H   0  0  0  0  0  0  0  0  0  0  0  0
   11.2263   -2.1736  -55.7221 H   0  0  0  0  0  0  0  0  0  0  0  0
   10.4566   -2.6604  -52.8181 H   0  0  0  0  0  0  0  0  0  0  0  0
   11.4349   -1.2412  -53.3892 H   0  0  0  0  0  0  0  0  0  0  0  0
    9.9300    1.4050  -56.3820 H   0  0  0  0  0  0  0  0  0  0  0  0
    8.0996    1.6406  -59.3299 H   0  0  0  0  0  0  0  0  0  0  0  0
    6.9238    2.5603  -58.3155 H   0  0  0  0  0  0  0  0  0  0  0  0
    7.1618    3.6002  -60.5662 H   0  0  0  0  0  0  0  0  0  0  0  0
    7.7158    5.9030  -59.7794 H   0  0  0  0  0  0  0  0  0  0  0  0
    6.7181    5.0274  -58.5622 H   0  0  0  0  0  0  0  0  0  0  0  0
    8.6135    6.2421  -57.4777 H   0  0  0  0  0  0  0  0  0  0  0  0
   10.1879    6.1605  -59.4088 H   0  0  0  0  0  0  0  0  0  0  0  0
   10.9454    5.4718  -57.9281 H   0  0  0  0  0  0  0  0  0  0  0  0
   11.4010    4.0406  -59.9205 H   0  0  0  0  0  0  0  0  0  0  0  0
    9.3437    4.6268  -61.2056 H   0  0  0  0  0  0  0  0  0  0  0  0
    9.5002    2.8450  -61.0079 H   0  0  0  0  0  0  0  0  0  0  0  0
   10.5513    1.9016  -58.9529 H   0  0  0  0  0  0  0  0  0  0  0  0
   11.1522    3.0161  -57.6619 H   0  0  0  0  0  0  0  0  0  0  0  0
    9.5491    4.2828  -56.2391 H   0  0  0  0  0  0  0  0  0  0  0  0
    7.7733    4.1077  -56.5043 H   0  0  0  0  0  0  0  0  0  0  0  0
    5.7750   -0.1885  -52.7944 H   0  0  0  0  0  0  0  0  0  0  0  0
    5.6896    0.7421  -54.3285 H   0  0  0  0  0  0  0  0  0  0  0  0
    5.3529   -1.0223  -54.3285 H   0  0  0  0  0  0  0  0  0  0  0  0
    7.3873   -3.9803  -53.8127 H   0  0  0  0  0  0  0  0  0  0  0  0
    6.8288   -5.6143  -52.0128 H   0  0  0  0  0  0  0  0  0  0  0  0
    6.9838   -4.9351  -49.6180 H   0  0  0  0  0  0  0  0  0  0  0  0
    7.6951   -2.6215  -49.0206 H   0  0  0  0  0  0  0  0  0  0  0  0
    8.2598   -0.9856  -50.8159 H   0  0  0  0  0  0  0  0  0  0  0  0
  1  2  1  0
  2  3  1  0
  3  4  1  0
  4  5  1  0
  5  6  2  0
  6  7  1  0
  7  8  2  0
  7  9  1  0
 10  9  1  1
 10 11  1  0
 11 12  1  0
 12 13  1  0
 13 14  1  0
 14 15  1  0
 15 16  1  0
 16 17  1  0
 16 18  1  0
 14 19  1  0
  6 20  1  0
 20 21  1  0
 20 22  2  0
 22 23  1  0
 23 24  2  0
 24 25  1  0
 25 26  2  0
 26 27  1  0
 27 28  2  0
 22  4  1  0
 28 23  1  0
 18 10  1  0
 19 10  1  0
 17 12  1  0
  1 29  1  0
  1 30  1  0
  1 31  1  0
  2 32  1  0
  2 33  1  0
  3 34  1  0
  3 35  1  0
  9 36  1  0
 11 37  1  0
 11 38  1  0
 12 39  1  6
 13 40  1  0
 13 41  1  0
 14 42  1  1
 15 43  1  0
 15 44  1  0
 16 45  1  6
 17 46  1  0
 17 47  1  0
 18 48  1  0
 18 49  1  0
 19 50  1  0
 19 51  1  0
 21 52  1  0
 21 53  1  0
 21 54  1  0
 24 55  1  0
 25 56  1  0
 26 57  1  0
 27 58  1  0
 28 59  1  0
M  END
>  <meeko>  (45) 
{"is_sidechain": false}

$$$$

     RDKit          3D

 59 63  0  0  0  0  0  0  0  0999 V2000
    6.2630    0.1410  -53.6020 C   0  0  0  0  0  0  0  0  0  0  0  0
    7.5650   -0.4690  -53.9790 C   0  0  0  0  0  0  0  0  0  0  0  0
    8.4880   -0.0160  -54.9760 C   0  0  0  0  0  0  0  0  0  0  0  0
    8.3510    1.1290  -55.9000 C   0  0  0  0  0  0  0  0  0  0  0  0
    7.2880    1.7110  -56.0910 O   0  0  0  0  0  0  0  0  0  0  0  0
    9.5440    1.4980  -56.5020 N   0  0  0  0  0  0  0  0  0  0  0  0
    9.7110    2.6660  -57.3710 C   0  0  2  0  0  0  0  0  0  0  0  0
    8.7830    2.6070  -58.6110 C   0  0  0  0  0  0  0  0  0  0  0  0
    9.0240    3.8190  -59.5280 C   0  0  1  0  0  0  0  0  0  0  0  0
    8.7530    5.1120  -58.7380 C   0  0  0  0  0  0  0  0  0  0  0  0
    9.6960    5.1990  -57.5260 C   0  0  2  0  0  0  0  0  0  0  0  0
   11.1530    5.1840  -58.0160 C   0  0  0  0  0  0  0  0  0  0  0  0
   11.4310    3.8900  -58.7980 C   0  0  2  0  0  0  0  0  0  0  0  0
   10.4840    3.8130  -60.0050 C   0  0  0  0  0  0  0  0  0  0  0  0
   11.1770    2.6830  -57.8820 C   0  0  0  0  0  0  0  0  0  0  0  0
    9.4550    3.9880  -56.6070 C   0  0  0  0  0  0  0  0  0  0  0  0
    9.5780   -0.7990  -55.0060 N   0  0  0  0  0  0  0  0  0  0  0  0
    9.3680   -1.7280  -54.0550 N   0  0  0  0  0  0  0  0  0  0  0  0
   10.3960   -2.7400  -53.8170 C   0  0  0  0  0  0  0  0  0  0  0  0
   11.3810   -2.2900  -52.7370 C   0  0  0  0  0  0  0  0  0  0  0  0
   11.1210   -3.1150  -55.1110 C   0  0  0  0  0  0  0  0  0  0  0  0
    8.1590   -1.5900  -53.4170 C   0  0  0  0  0  0  0  0  0  0  0  0
    7.6820   -2.4650  -52.3550 C   0  0  0  0  0  0  0  0  0  0  0  0
    6.8850   -3.5740  -52.6620 C   0  0  0  0  0  0  0  0  0  0  0  0
    6.4320   -4.4150  -51.6450 C   0  0  0  0  0  0  0  0  0  0  0  0
    6.7690   -4.1490  -50.3180 C   0  0  0  0  0  0  0  0  0  0  0  0
    7.5580   -3.0420  -50.0060 C   0  0  0  0  0  0  0  0  0  0  0  0
    8.0130   -2.2000  -51.0220 C   0  0  0  0  0  0  0  0  0  0  0  0
    6.1800    0.1799  -52.5058 H   0  0  0  0  0  0  0  0  0  0  0  0
    6.2038    1.1606  -54.0106 H   0  0  0  0  0  0  0  0  0  0  0  0
    5.4417   -0.4660  -54.0106 H   0  0  0  0  0  0  0  0  0  0  0  0
   10.3770    1.1220  -56.0710 H   0  0  0  0  0  0  0  0  0  0  0  0
    8.9880    1.6832  -59.1719 H   0  0  0  0  0  0  0  0  0  0  0  0
    7.7369    2.6227  -58.2713 H   0  0  0  0  0  0  0  0  0  0  0  0
    8.3516    3.7663  -60.3970 H   0  0  0  0  0  0  0  0  0  0  0  0
    8.9208    5.9800  -59.3925 H   0  0  0  0  0  0  0  0  0  0  0  0
    7.7116    5.1057  -58.3839 H   0  0  0  0  0  0  0  0  0  0  0  0
    9.5019    6.1285  -56.9707 H   0  0  0  0  0  0  0  0  0  0  0  0
   11.3258    6.0502  -58.6716 H   0  0  0  0  0  0  0  0  0  0  0  0
   11.8266    5.2332  -57.1478 H   0  0  0  0  0  0  0  0  0  0  0  0
   12.4751    3.8835  -59.1441 H   0  0  0  0  0  0  0  0  0  0  0  0
   10.6570    4.6799  -60.6597 H   0  0  0  0  0  0  0  0  0  0  0  0
   10.6793    2.8827  -60.5586 H   0  0  0  0  0  0  0  0  0  0  0  0
   11.3718    1.7581  -58.4446 H   0  0  0  0  0  0  0  0  0  0  0  0
   11.8482    2.7568  -57.0136 H   0  0  0  0  0  0  0  0  0  0  0  0
   10.1370    4.0460  -55.7459 H   0  0  0  0  0  0  0  0  0  0  0  0
    8.4095    4.0040  -56.2654 H   0  0  0  0  0  0  0  0  0  0  0  0
    9.8900   -3.6443  -53.4481 H   0  0  0  0  0  0  0  0  0  0  0  0
   10.9510   -2.4864  -51.7438 H   0  0  0  0  0  0  0  0  0  0  0  0
   12.3234   -2.8469  -52.8452 H   0  0  0  0  0  0  0  0  0  0  0  0
   11.5770   -1.2130  -52.8452 H   0  0  0  0  0  0  0  0  0  0  0  0
   12.0739   -3.6079  -54.8678 H   0  0  0  0  0  0  0  0  0  0  0  0
   10.4926   -3.8011  -55.6978 H   0  0  0  0  0  0  0  0  0  0  0  0
   11.3178   -2.2056  -55.6978 H   0  0  0  0  0  0  0  0  0  0  0  0
    6.6151   -3.7830  -53.7077 H   0  0  0  0  0  0  0  0  0  0  0  0
    5.8090   -5.2879  -51.8898 H   0  0  0  0  0  0  0  0  0  0  0  0
    6.4122   -4.8129  -49.5168 H   0  0  0  0  0  0  0  0  0  0  0  0
    7.8218   -2.8324  -48.9589 H   0  0  0  0  0  0  0  0  0  0  0  0
    8.6333   -1.3261  -50.7739 H   0  0  0  0  0  0  0  0  0  0  0  0
  1  2  1  0
  2  3  1  0
  3  4  1  0
  4  5  2  0
  4  6  1  0
  7  6  1  1
  7  8  1  0
  8  9  1  0
  9 10  1  0
 10 11  1  0
 11 12  1  0
 12 13  1  0
 13 14  1  0
 13 15  1  0
 11 16  1  0
  3 17  2  0
 17 18  1  0
 18 19  1  0
 19 20  1  0
 19 21  1  0
 18 22  1  0
 22 23  1  0
 23 24  2  0
 24 25  1  0
 25 26  2  0
 26 27  1  0
 27 28  2  0
 22  2  2  0
 28 23  1  0
 15  7  1  0
 16  7  1  0
 14  9  1  0
  1 29  1  0
  1 30  1  0
  1 31  1  0
  6 32  1  0
  8 33  1  0
  8 34  1  0
  9 35  1  6
 10 36  1  0
 10 37  1  0
 11 38  1  1
 12 39  1  0
 12 40  1  0
 13 41  1  6
 14 42  1  0
 14 43  1  0
 15 44  1  0
 15 45  1  0
 16 46  1  0
 16 47  1  0
 19 48  1  0
 20 49  1  0
 20 50  1  0
 20 51  1  0
 21 52  1  0
 21 53  1  0
 21 54  1  0
 24 55  1  0
 25 56  1  0
 26 57  1  0
 27 58  1  0
 28 59  1  0
M  END
>  <meeko>  (46) 
{"is_sidechain": false}

$$$$

     RDKit          3D

 62 66  0  0  0  0  0  0  0  0999 V2000
    6.2050    0.0640  -53.7560 C   0  0  0  0  0  0  0  0  0  0  0  0
    7.5670   -0.3550  -54.1750 C   0  0  0  0  0  0  0  0  0  0  0  0
    8.3580    0.2310  -55.2070 C   0  0  0  0  0  0  0  0  0  0  0  0
    8.0070    1.3650  -56.0880 C   0  0  0  0  0  0  0  0  0  0  0  0
    6.8790    1.8410  -56.1490 O   0  0  0  0  0  0  0  0  0  0  0  0
    9.0840    1.8130  -56.8230 N   0  0  0  0  0  0  0  0  0  0  0  0
    9.0770    2.9060  -57.7890 C   0  0  2  0  0  0  0  0  0  0  0  0
    8.9510    4.2830  -57.0920 C   0  0  0  0  0  0  0  0  0  0  0  0
    8.9940    5.4200  -58.1280 C   0  0  1  0  0  0  0  0  0  0  0  0
   10.3310    5.3670  -58.8850 C   0  0  0  0  0  0  0  0  0  0  0  0
   10.4720    4.0160  -59.6050 C   0  0  2  0  0  0  0  0  0  0  0  0
    9.3130    3.8440  -60.5990 C   0  0  0  0  0  0  0  0  0  0  0  0
    7.9700    3.8890  -59.8520 C   0  0  2  0  0  0  0  0  0  0  0  0
    7.8370    5.2390  -59.1260 C   0  0  0  0  0  0  0  0  0  0  0  0
    7.9270    2.7510  -58.8150 C   0  0  0  0  0  0  0  0  0  0  0  0
   10.4190    2.8840  -58.5670 C   0  0  0  0  0  0  0  0  0  0  0  0
    9.5510   -0.3890  -55.3200 N   0  0  0  0  0  0  0  0  0  0  0  0
    9.5080   -1.3640  -54.3910 N   0  0  0  0  0  0  0  0  0  0  0  0
   10.6550   -2.2490  -54.2580 C   0  0  0  0  0  0  0  0  0  0  0  0
   10.8310   -3.2210  -55.4370 C   0  0  0  0  0  0  0  0  0  0  0  0
   11.5780   -2.5750  -56.6060 C   0  0  0  0  0  0  0  0  0  0  0  0
   11.5780   -4.4710  -54.9700 C   0  0  0  0  0  0  0  0  0  0  0  0
    8.3460   -1.3790  -53.6570 C   0  0  0  0  0  0  0  0  0  0  0  0
    8.0590   -2.3260  -52.5860 C   0  0  0  0  0  0  0  0  0  0  0  0
    7.6520   -3.6290  -52.8900 C   0  0  0  0  0  0  0  0  0  0  0  0
    7.3780   -4.5360  -51.8650 C   0  0  0  0  0  0  0  0  0  0  0  0
    7.5050   -4.1450  -50.5340 C   0  0  0  0  0  0  0  0  0  0  0  0
    7.9010   -2.8440  -50.2230 C   0  0  0  0  0  0  0  0  0  0  0  0
    8.1750   -1.9350  -51.2470 C   0  0  0  0  0  0  0  0  0  0  0  0
    6.1484    0.0814  -52.6576 H   0  0  0  0  0  0  0  0  0  0  0  0
    5.9930    1.0689  -54.1501 H   0  0  0  0  0  0  0  0  0  0  0  0
    5.4649   -0.6480  -54.1501 H   0  0  0  0  0  0  0  0  0  0  0  0
    9.9410    1.2930  -56.6460 H   0  0  0  0  0  0  0  0  0  0  0  0
    7.9965    4.3264  -56.5470 H   0  0  0  0  0  0  0  0  0  0  0  0
    9.7930    4.4062  -56.3949 H   0  0  0  0  0  0  0  0  0  0  0  0
    8.8963    6.3901  -57.6187 H   0  0  0  0  0  0  0  0  0  0  0  0
   10.3633    6.1799  -59.6254 H   0  0  0  0  0  0  0  0  0  0  0  0
   11.1575    5.4833  -58.1685 H   0  0  0  0  0  0  0  0  0  0  0  0
   11.4296    3.9831  -60.1453 H   0  0  0  0  0  0  0  0  0  0  0  0
    9.3451    4.6560  -61.3403 H   0  0  0  0  0  0  0  0  0  0  0  0
    9.4125    2.8728  -61.1058 H   0  0  0  0  0  0  0  0  0  0  0  0
    7.1443    3.7701  -60.5690 H   0  0  0  0  0  0  0  0  0  0  0  0
    7.8634    6.0534  -59.8649 H   0  0  0  0  0  0  0  0  0  0  0  0
    6.8832    5.2605  -58.5785 H   0  0  0  0  0  0  0  0  0  0  0  0
    6.9633    2.7805  -58.2854 H   0  0  0  0  0  0  0  0  0  0  0  0
    8.0443    1.7901  -59.3373 H   0  0  0  0  0  0  0  0  0  0  0  0
   10.5200    1.9178  -59.0829 H   0  0  0  0  0  0  0  0  0  0  0  0
   11.2418    3.0261  -57.8509 H   0  0  0  0  0  0  0  0  0  0  0  0
   11.5619   -1.6315  -54.1797 H   0  0  0  0  0  0  0  0  0  0  0  0
   10.4834   -2.8622  -53.3610 H   0  0  0  0  0  0  0  0  0  0  0  0
    9.8281   -3.4963  -55.7953 H   0  0  0  0  0  0  0  0  0  0  0  0
   12.3562   -1.9020  -56.2168 H   0  0  0  0  0  0  0  0  0  0  0  0
   12.0449   -3.3587  -57.2207 H   0  0  0  0  0  0  0  0  0  0  0  0
   10.8699   -2.0000  -57.2207 H   0  0  0  0  0  0  0  0  0  0  0  0
   11.5946   -4.4988  -53.8705 H   0  0  0  0  0  0  0  0  0  0  0  0
   11.0674   -5.3674  -55.3518 H   0  0  0  0  0  0  0  0  0  0  0  0
   12.6093   -4.4459  -55.3518 H   0  0  0  0  0  0  0  0  0  0  0  0
    7.5475   -3.9400  -53.9399 H   0  0  0  0  0  0  0  0  0  0  0  0
    7.0614   -5.5609  -52.1086 H   0  0  0  0  0  0  0  0  0  0  0  0
    7.2929   -4.8626  -49.7277 H   0  0  0  0  0  0  0  0  0  0  0  0
    7.9973   -2.5344  -49.1719 H   0  0  0  0  0  0  0  0  0  0  0  0
    8.4830   -0.9082  -51.0005 H   0  0  0  0  0  0  0  0  0  0  0  0
  1  2  1  0
  2  3  1  0
  3  4  1  0
  4  5  2  0
  4  6  1  0
  7  6  1  1
  7  8  1  0
  8  9  1  0
  9 10  1  0
 10 11  1  0
 11 12  1  0
 12 13  1  0
 13 14  1  0
 13 15  1  0
 11 16  1  0
  3 17  2  0
 17 18  1  0
 18 19  1  0
 19 20  1  0
 20 21  1  0
 20 22  1  0
 18 23  1  0
 23 24  1  0
 24 25  2  0
 25 26  1  0
 26 27  2  0
 27 28  1  0
 28 29  2  0
 23  2  2  0
 29 24  1  0
 15  7  1  0
 16  7  1  0
 14  9  1  0
  1 30  1  0
  1 31  1  0
  1 32  1  0
  6 33  1  0
  8 34  1  0
  8 35  1  0
  9 36  1  1
 10 37  1  0
 10 38  1  0
 11 39  1  6
 12 40  1  0
 12 41  1  0
 13 42  1  6
 14 43  1  0
 14 44  1  0
 15 45  1  0
 15 46  1  0
 16 47  1  0
 16 48  1  0
 19 49  1  0
 19 50  1  0
 20 51  1  0
 21 52  1  0
 21 53  1  0
 21 54  1  0
 22 55  1  0
 22 56  1  0
 22 57  1  0
 25 58  1  0
 26 59  1  0
 27 60  1  0
 28 61  1  0
 29 62  1  0
M  END
>  <meeko>  (47) 
{"is_sidechain": false}

$$$$

     RDKit          3D

 56 60  0  0  0  0  0  0  0  0999 V2000
   10.8320   -3.6470  -54.6180 C   0  0  0  0  0  0  0  0  0  0  0  0
   10.8190   -2.4110  -53.7360 C   0  0  0  0  0  0  0  0  0  0  0  0
    9.6830   -1.5490  -54.0140 N   0  0  0  0  0  0  0  0  0  0  0  0
    9.8250   -0.5810  -54.9340 N   0  0  0  0  0  0  0  0  0  0  0  0
    8.6260    0.0240  -54.9880 C   0  0  0  0  0  0  0  0  0  0  0  0
    8.3920    1.1660  -55.8960 C   0  0  0  0  0  0  0  0  0  0  0  0
    7.2720    1.5870  -56.1640 O   0  0  0  0  0  0  0  0  0  0  0  0
    9.5560    1.6920  -56.4340 N   0  0  0  0  0  0  0  0  0  0  0  0
    9.6020    2.7520  -57.4450 C   0  0  2  0  0  0  0  0  0  0  0  0
    9.1090    4.1110  -56.8850 C   0  0  0  0  0  0  0  0  0  0  0  0
    9.2220    5.2100  -57.9550 C   0  0  1  0  0  0  0  0  0  0  0  0
   10.6910    5.3580  -58.3800 C   0  0  0  0  0  0  0  0  0  0  0  0
   11.2040    4.0290  -58.9580 C   0  0  2  0  0  0  0  0  0  0  0  0
   10.3540    3.6420  -60.1780 C   0  0  0  0  0  0  0  0  0  0  0  0
    8.8820    3.4860  -59.7640 C   0  0  2  0  0  0  0  0  0  0  0  0
    8.3760    4.8150  -59.1790 C   0  0  0  0  0  0  0  0  0  0  0  0
    8.7680    2.3830  -58.6960 C   0  0  0  0  0  0  0  0  0  0  0  0
   11.0790    2.9340  -57.8890 C   0  0  0  0  0  0  0  0  0  0  0  0
    7.7080   -0.5870  -54.0720 C   0  0  0  0  0  0  0  0  0  0  0  0
    6.2790   -0.2430  -53.8540 C   0  0  0  0  0  0  0  0  0  0  0  0
    8.4340   -1.5890  -53.4460 C   0  0  0  0  0  0  0  0  0  0  0  0
    8.0280   -2.5390  -52.4180 C   0  0  0  0  0  0  0  0  0  0  0  0
    8.1800   -2.2200  -51.0650 C   0  0  0  0  0  0  0  0  0  0  0  0
    7.7920   -3.1310  -50.0810 C   0  0  0  0  0  0  0  0  0  0  0  0
    7.2470   -4.3620  -50.4460 C   0  0  0  0  0  0  0  0  0  0  0  0
    7.0860   -4.6820  -51.7930 C   0  0  0  0  0  0  0  0  0  0  0  0
    7.4740   -3.7720  -52.7780 C   0  0  0  0  0  0  0  0  0  0  0  0
   10.8415   -4.5478  -53.9868 H   0  0  0  0  0  0  0  0  0  0  0  0
    9.9339   -3.6537  -55.2531 H   0  0  0  0  0  0  0  0  0  0  0  0
   11.7301   -3.6348  -55.2531 H   0  0  0  0  0  0  0  0  0  0  0  0
   10.7740   -2.7276  -52.6835 H   0  0  0  0  0  0  0  0  0  0  0  0
   11.7352   -1.8389  -53.9438 H   0  0  0  0  0  0  0  0  0  0  0  0
   10.3740    1.1040  -56.3460 H   0  0  0  0  0  0  0  0  0  0  0  0
    8.0579    4.0146  -56.5753 H   0  0  0  0  0  0  0  0  0  0  0  0
    9.7352    4.3882  -56.0242 H   0  0  0  0  0  0  0  0  0  0  0  0
    8.8588    6.1639  -57.5450 H   0  0  0  0  0  0  0  0  0  0  0  0
   10.7721    6.1441  -59.1451 H   0  0  0  0  0  0  0  0  0  0  0  0
   11.2966    5.6296  -57.5028 H   0  0  0  0  0  0  0  0  0  0  0  0
   12.2560    4.1383  -59.2602 H   0  0  0  0  0  0  0  0  0  0  0  0
   10.4360    4.4278  -60.9433 H   0  0  0  0  0  0  0  0  0  0  0  0
   10.7184    2.6868  -60.5841 H   0  0  0  0  0  0  0  0  0  0  0  0
    8.2772    3.2141  -60.6417 H   0  0  0  0  0  0  0  0  0  0  0  0
    8.4529    5.6019  -59.9438 H   0  0  0  0  0  0  0  0  0  0  0  0
    7.3274    4.6959  -58.8688 H   0  0  0  0  0  0  0  0  0  0  0  0
    7.7131    2.2669  -58.4066 H   0  0  0  0  0  0  0  0  0  0  0  0
    9.1520    1.4411  -59.1147 H   0  0  0  0  0  0  0  0  0  0  0  0
   11.4495    1.9844  -58.3024 H   0  0  0  0  0  0  0  0  0  0  0  0
   11.6731    3.2320  -57.0125 H   0  0  0  0  0  0  0  0  0  0  0  0
    6.0743   -0.1937  -52.7743 H   0  0  0  0  0  0  0  0  0  0  0  0
    6.0626    0.7329  -54.3131 H   0  0  0  0  0  0  0  0  0  0  0  0
    5.6422   -1.0135  -54.3131 H   0  0  0  0  0  0  0  0  0  0  0  0
    8.6066   -1.2484  -50.7752 H   0  0  0  0  0  0  0  0  0  0  0  0
    7.9161   -2.8780  -49.0177 H   0  0  0  0  0  0  0  0  0  0  0  0
    6.9441   -5.0807  -49.6703 H   0  0  0  0  0  0  0  0  0  0  0  0
    6.6532   -5.6517  -52.0799 H   0  0  0  0  0  0  0  0  0  0  0  0
    7.3437   -4.0253  -53.8405 H   0  0  0  0  0  0  0  0  0  0  0  0
  1  2  1  0
  2  3  1  0
  3  4  1  0
  4  5  2  0
  5  6  1  0
  6  7  2  0
  6  8  1  0
  9  8  1  1
  9 10  1  0
 10 11  1  0
 11 12  1  0
 12 13  1  0
 13 14  1  0
 14 15  1  0
 15 16  1  0
 15 17  1  0
 13 18  1  0
  5 19  1  0
 19 20  1  0
 19 21  2  0
 21 22  1  0
 22 23  2  0
 23 24  1  0
 24 25  2  0
 25 26  1  0
 26 27  2  0
 21  3  1  0
 27 22  1  0
 17  9  1  0
 18  9  1  0
 16 11  1  0
  1 28  1  0
  1 29  1  0
  1 30  1  0
  2 31  1  0
  2 32  1  0
  8 33  1  0
 10 34  1  0
 10 35  1  0
 11 36  1  1
 12 37  1  0
 12 38  1  0
 13 39  1  6
 14 40  1  0
 14 41  1  0
 15 42  1  6
 16 43  1  0
 16 44  1  0
 17 45  1  0
 17 46  1  0
 18 47  1  0
 18 48  1  0
 20 49  1  0
 20 50  1  0
 20 51  1  0
 23 52  1  0
 24 53  1  0
 25 54  1  0
 26 55  1  0
 27 56  1  0
M  END
>  <meeko>  (48) 
{"is_sidechain": false}

$$$$

     RDKit          3D

 52 55  0  0  0  0  0  0  0  0999 V2000
    5.9660   -0.2300  -53.5180 C   0  0  0  0  0  0  0  0  0  0  0  0
    7.3590   -0.5670  -53.9110 C   0  0  0  0  0  0  0  0  0  0  0  0
    8.1600    0.0640  -54.9180 C   0  0  0  0  0  0  0  0  0  0  0  0
    7.8230    1.2240  -55.7670 C   0  0  0  0  0  0  0  0  0  0  0  0
    6.6850    1.4600  -56.1670 O   0  0  0  0  0  0  0  0  0  0  0  0
    8.9090    2.0150  -56.1000 N   0  0  0  0  0  0  0  0  0  0  0  0
    8.7820    3.1830  -56.9600 C   0  0  0  0  0  0  0  0  0  0  0  0
    9.9040    4.1970  -56.6950 C   0  0  0  0  0  0  0  0  0  0  0  0
   11.2620    3.7150  -57.2040 C   0  0  0  0  0  0  0  0  0  0  0  0
   11.2060    3.3280  -58.6790 C   0  0  0  0  0  0  0  0  0  0  0  0
   10.1140    2.2980  -58.9500 C   0  0  0  0  0  0  0  0  0  0  0  0
    8.7530    2.7700  -58.4380 C   0  0  0  0  0  0  0  0  0  0  0  0
    9.3560   -0.5390  -55.0220 N   0  0  0  0  0  0  0  0  0  0  0  0
    9.3220   -1.5360  -54.1190 N   0  0  0  0  0  0  0  0  0  0  0  0
   10.4830   -2.4130  -54.0000 C   0  0  0  0  0  0  0  0  0  0  0  0
   10.4080   -3.5840  -54.9360 C   0  0  0  0  0  0  0  0  0  0  0  0
   11.6130   -4.4670  -55.1460 C   0  0  0  0  0  0  0  0  0  0  0  0
   11.1410   -3.5660  -56.2530 C   0  0  0  0  0  0  0  0  0  0  0  0
    8.1540   -1.5800  -53.3960 C   0  0  0  0  0  0  0  0  0  0  0  0
    7.8730   -2.5530  -52.3480 C   0  0  0  0  0  0  0  0  0  0  0  0
    7.3270   -3.8000  -52.6740 C   0  0  0  0  0  0  0  0  0  0  0  0
    7.0580   -4.7330  -51.6700 C   0  0  0  0  0  0  0  0  0  0  0  0
    7.3290   -4.4210  -50.3390 C   0  0  0  0  0  0  0  0  0  0  0  0
    7.8650   -3.1780  -50.0080 C   0  0  0  0  0  0  0  0  0  0  0  0
    8.1350   -2.2440  -51.0090 C   0  0  0  0  0  0  0  0  0  0  0  0
    5.8889   -0.2113  -52.4209 H   0  0  0  0  0  0  0  0  0  0  0  0
    5.7002    0.7584  -53.9211 H   0  0  0  0  0  0  0  0  0  0  0  0
    5.2778   -0.9876  -53.9211 H   0  0  0  0  0  0  0  0  0  0  0  0
    9.8290    1.6800  -55.8510 H   0  0  0  0  0  0  0  0  0  0  0  0
    7.8270    3.6740  -56.7214 H   0  0  0  0  0  0  0  0  0  0  0  0
    9.6528    5.1410  -57.2007 H   0  0  0  0  0  0  0  0  0  0  0  0
    9.9836    4.3297  -55.6059 H   0  0  0  0  0  0  0  0  0  0  0  0
   11.9982    4.5220  -57.0747 H   0  0  0  0  0  0  0  0  0  0  0  0
   11.5487    2.8241  -56.6260 H   0  0  0  0  0  0  0  0  0  0  0  0
   11.0028    4.2289  -59.2766 H   0  0  0  0  0  0  0  0  0  0  0  0
   12.1736    2.8830  -58.9541 H   0  0  0  0  0  0  0  0  0  0  0  0
   10.0470    2.1262  -60.0344 H   0  0  0  0  0  0  0  0  0  0  0  0
   10.3775    1.3709  -58.4199 H   0  0  0  0  0  0  0  0  0  0  0  0
    8.4328    3.6346  -59.0379 H   0  0  0  0  0  0  0  0  0  0  0  0
    8.0540    1.9258  -58.5315 H   0  0  0  0  0  0  0  0  0  0  0  0
   11.3895   -1.8337  -54.2295 H   0  0  0  0  0  0  0  0  0  0  0  0
   10.5068   -2.8037  -52.9720 H   0  0  0  0  0  0  0  0  0  0  0  0
    9.3635   -3.7458  -54.6314 H   0  0  0  0  0  0  0  0  0  0  0  0
   12.5543   -4.2466  -54.6213 H   0  0  0  0  0  0  0  0  0  0  0  0
   11.8130   -5.5446  -55.0525 H   0  0  0  0  0  0  0  0  0  0  0  0
   11.7374   -2.6868  -56.5381 H   0  0  0  0  0  0  0  0  0  0  0  0
   10.8531   -3.7123  -57.3045 H   0  0  0  0  0  0  0  0  0  0  0  0
    7.1092   -4.0458  -53.7238 H   0  0  0  0  0  0  0  0  0  0  0  0
    6.6325   -5.7136  -51.9297 H   0  0  0  0  0  0  0  0  0  0  0  0
    7.1195   -5.1569  -49.5487 H   0  0  0  0  0  0  0  0  0  0  0  0
    8.0755   -2.9328  -48.9565 H   0  0  0  0  0  0  0  0  0  0  0  0
    8.5549   -1.2623  -50.7445 H   0  0  0  0  0  0  0  0  0  0  0  0
  1  2  1  0
  2  3  1  0
  3  4  1  0
  4  5  2  0
  4  6  1  0
  6  7  1  0
  7  8  1  0
  8  9  1  0
  9 10  1  0
 10 11  1  0
 11 12  1  0
  3 13  2  0
 13 14  1  0
 14 15  1  0
 15 16  1  0
 16 17  1  0
 17 18  1  0
 14 19  1  0
 19 20  1  0
 20 21  2  0
 21 22  1  0
 22 23  2  0
 23 24  1  0
 24 25  2  0
 19  2  2  0
 25 20  1  0
 12  7  1  0
 18 16  1  0
  1 26  1  0
  1 27  1  0
  1 28  1  0
  6 29  1  0
  7 30  1  0
  8 31  1  0
  8 32  1  0
  9 33  1  0
  9 34  1  0
 10 35  1  0
 10 36  1  0
 11 37  1  0
 11 38  1  0
 12 39  1  0
 12 40  1  0
 15 41  1  0
 15 42  1  0
 16 43  1  0
 17 44  1  0
 17 45  1  0
 18 46  1  0
 18 47  1  0
 21 48  1  0
 22 49  1  0
 23 50  1  0
 24 51  1  0
 25 52  1  0
M  END
>  <meeko>  (49) 
{"is_sidechain": false}

$$$$

     RDKit          3D

 43 46  0  0  0  0  0  0  0  0999 V2000
    6.1320   -0.1900  -53.7700 C   0  0  0  0  0  0  0  0  0  0  0  0
    7.5630   -0.5000  -54.0240 C   0  0  0  0  0  0  0  0  0  0  0  0
    8.4490    0.1390  -54.9530 C   0  0  0  0  0  0  0  0  0  0  0  0
    8.1730    1.2850  -55.8420 C   0  0  0  0  0  0  0  0  0  0  0  0
    7.0670    1.5180  -56.3220 O   0  0  0  0  0  0  0  0  0  0  0  0
    9.2910    2.0640  -56.1080 N   0  0  0  0  0  0  0  0  0  0  0  0
    9.2480    3.1820  -56.9940 C   0  0  0  0  0  0  0  0  0  0  0  0
    9.2180    4.5820  -56.4480 C   0  0  0  0  0  0  0  0  0  0  0  0
   10.4450    4.0790  -57.1510 C   0  0  0  0  0  0  0  0  0  0  0  0
    9.6580   -0.4470  -54.9390 N   0  0  0  0  0  0  0  0  0  0  0  0
    9.5600   -1.4220  -54.0170 N   0  0  0  0  0  0  0  0  0  0  0  0
   10.7290   -2.2590  -53.7560 C   0  0  0  0  0  0  0  0  0  0  0  0
   11.2120   -2.9610  -54.9920 C   0  0  0  0  0  0  0  0  0  0  0  0
   11.6350   -4.4070  -54.9250 C   0  0  0  0  0  0  0  0  0  0  0  0
   10.3720   -4.0280  -55.6500 C   0  0  0  0  0  0  0  0  0  0  0  0
    8.3210   -1.4990  -53.4300 C   0  0  0  0  0  0  0  0  0  0  0  0
    7.9510   -2.4680  -52.4050 C   0  0  0  0  0  0  0  0  0  0  0  0
    7.4250   -3.7110  -52.7720 C   0  0  0  0  0  0  0  0  0  0  0  0
    7.0720   -4.6400  -51.7920 C   0  0  0  0  0  0  0  0  0  0  0  0
    7.2510   -4.3340  -50.4430 C   0  0  0  0  0  0  0  0  0  0  0  0
    7.7840   -3.1010  -50.0720 C   0  0  0  0  0  0  0  0  0  0  0  0
    8.1370   -2.1700  -51.0510 C   0  0  0  0  0  0  0  0  0  0  0  0
    5.9522   -0.1510  -52.6855 H   0  0  0  0  0  0  0  0  0  0  0  0
    5.8825    0.7830  -54.2182 H   0  0  0  0  0  0  0  0  0  0  0  0
    5.5021   -0.9725  -54.2182 H   0  0  0  0  0  0  0  0  0  0  0  0
   10.1930    1.6910  -55.8420 H   0  0  0  0  0  0  0  0  0  0  0  0
    8.6175    2.5997  -57.6821 H   0  0  0  0  0  0  0  0  0  0  0  0
    8.5849    5.3447  -56.9250 H   0  0  0  0  0  0  0  0  0  0  0  0
    9.0142    5.0281  -55.4634 H   0  0  0  0  0  0  0  0  0  0  0  0
   10.7107    4.4728  -58.1431 H   0  0  0  0  0  0  0  0  0  0  0  0
   11.5121    4.0037  -56.8950 H   0  0  0  0  0  0  0  0  0  0  0  0
   11.5399   -1.6241  -53.3696 H   0  0  0  0  0  0  0  0  0  0  0  0
   10.4377   -3.0267  -53.0240 H   0  0  0  0  0  0  0  0  0  0  0  0
   11.6794   -2.0242  -55.3295 H   0  0  0  0  0  0  0  0  0  0  0  0
   12.5128   -4.7498  -55.4924 H   0  0  0  0  0  0  0  0  0  0  0  0
   11.8855   -5.1067  -54.1140 H   0  0  0  0  0  0  0  0  0  0  0  0
   10.3270   -4.0936  -56.7471 H   0  0  0  0  0  0  0  0  0  0  0  0
    9.3178   -4.3358  -55.5881 H   0  0  0  0  0  0  0  0  0  0  0  0
    7.2892   -3.9570  -53.8355 H   0  0  0  0  0  0  0  0  0  0  0  0
    6.6524   -5.6141  -52.0837 H   0  0  0  0  0  0  0  0  0  0  0  0
    6.9713   -5.0664  -49.6715 H   0  0  0  0  0  0  0  0  0  0  0  0
    7.9266   -2.8612  -49.0080 H   0  0  0  0  0  0  0  0  0  0  0  0
    8.5626   -1.1993  -50.7566 H   0  0  0  0  0  0  0  0  0  0  0  0
  1  2  1  0
  2  3  1  0
  3  4  1  0
  4  5  2  0
  4  6  1  0
  6  7  1  0
  7  8  1  0
  8  9  1  0
  3 10  2  0
 10 11  1  0
 11 12  1  0
 12 13  1  0
 13 14  1  0
 14 15  1  0
 11 16  1  0
 16 17  1  0
 17 18  2  0
 18 19  1  0
 19 20  2  0
 20 21  1  0
 21 22  2  0
 16  2  2  0
 22 17  1  0
  9  7  1  0
 15 13  1  0
  1 23  1  0
  1 24  1  0
  1 25  1  0
  6 26  1  0
  7 27  1  0
  8 28  1  0
  8 29  1  0
  9 30  1  0
  9 31  1  0
 12 32  1  0
 12 33  1  0
 13 34  1  0
 14 35  1  0
 14 36  1  0
 15 37  1  0
 15 38  1  0
 18 39  1  0
 19 40  1  0
 20 41  1  0
 21 42  1  0
 22 43  1  0
M  END
>  <meeko>  (50) 
{"is_sidechain": false}

$$$$

     RDKit          3D

 62 66  0  0  0  0  0  0  0  0999 V2000
   10.7170   -4.5160  -56.6620 C   0  0  0  0  0  0  0  0  0  0  0  0
   10.2900   -3.9600  -55.3110 C   0  0  0  0  0  0  0  0  0  0  0  0
   11.2300   -2.8460  -54.8450 C   0  0  0  0  0  0  0  0  0  0  0  0
   10.6740   -2.0450  -53.6670 C   0  0  0  0  0  0  0  0  0  0  0  0
    9.4640   -1.3020  -53.9770 N   0  0  0  0  0  0  0  0  0  0  0  0
    9.5300   -0.3220  -54.9010 N   0  0  0  0  0  0  0  0  0  0  0  0
    8.2690    0.1510  -54.9770 C   0  0  0  0  0  0  0  0  0  0  0  0
    7.9230    1.2390  -55.9140 C   0  0  0  0  0  0  0  0  0  0  0  0
    6.7740    1.6270  -56.0930 O   0  0  0  0  0  0  0  0  0  0  0  0
    9.0280    1.7550  -56.5540 N   0  0  0  0  0  0  0  0  0  0  0  0
    9.0350    2.8260  -57.5440 C   0  0  2  0  0  0  0  0  0  0  0  0
   10.4200    2.8450  -58.2410 C   0  0  0  0  0  0  0  0  0  0  0  0
   10.4900    3.9560  -59.3000 C   0  0  1  0  0  0  0  0  0  0  0  0
    9.3990    3.7160  -60.3560 C   0  0  0  0  0  0  0  0  0  0  0  0
    8.0140    3.7190  -59.6890 C   0  0  2  0  0  0  0  0  0  0  0  0
    7.7840    5.0780  -59.0040 C   0  0  0  0  0  0  0  0  0  0  0  0
    8.8710    5.3270  -57.9450 C   0  0  2  0  0  0  0  0  0  0  0  0
   10.2510    5.3140  -58.6210 C   0  0  0  0  0  0  0  0  0  0  0  0
    8.8120    4.2110  -56.8870 C   0  0  0  0  0  0  0  0  0  0  0  0
    7.9550    2.6030  -58.6320 C   0  0  0  0  0  0  0  0  0  0  0  0
    7.4060   -0.5330  -54.0680 C   0  0  0  0  0  0  0  0  0  0  0  0
    5.9570   -0.2820  -53.8640 C   0  0  0  0  0  0  0  0  0  0  0  0
    8.2150   -1.4600  -53.4270 C   0  0  0  0  0  0  0  0  0  0  0  0
    7.8830   -2.4410  -52.4010 C   0  0  0  0  0  0  0  0  0  0  0  0
    8.0680   -2.1390  -51.0480 C   0  0  0  0  0  0  0  0  0  0  0  0
    7.7490   -3.0820  -50.0680 C   0  0  0  0  0  0  0  0  0  0  0  0
    7.2400   -4.3270  -50.4370 C   0  0  0  0  0  0  0  0  0  0  0  0
    7.0430   -4.6290  -51.7830 C   0  0  0  0  0  0  0  0  0  0  0  0
    7.3620   -3.6880  -52.7640 C   0  0  0  0  0  0  0  0  0  0  0  0
   11.3806   -5.3800  -56.5098 H   0  0  0  0  0  0  0  0  0  0  0  0
    9.8272   -4.8320  -57.2263 H   0  0  0  0  0  0  0  0  0  0  0  0
   11.2518   -3.7379  -57.2263 H   0  0  0  0  0  0  0  0  0  0  0  0
    9.2704   -3.5561  -55.3960 H   0  0  0  0  0  0  0  0  0  0  0  0
   10.3259   -4.7753  -54.5734 H   0  0  0  0  0  0  0  0  0  0  0  0
   12.1853   -3.2986  -54.5407 H   0  0  0  0  0  0  0  0  0  0  0  0
   11.3540   -2.1484  -55.6864 H   0  0  0  0  0  0  0  0  0  0  0  0
   10.4504   -2.7443  -52.8478 H   0  0  0  0  0  0  0  0  0  0  0  0
   11.4411   -1.3053  -53.3943 H   0  0  0  0  0  0  0  0  0  0  0  0
    9.9000    1.3040  -56.2840 H   0  0  0  0  0  0  0  0  0  0  0  0
   11.2003    3.0190  -57.4854 H   0  0  0  0  0  0  0  0  0  0  0  0
   10.5741    1.8765  -58.7393 H   0  0  0  0  0  0  0  0  0  0  0  0
   11.4787    3.9513  -59.7821 H   0  0  0  0  0  0  0  0  0  0  0  0
    9.4414    4.5141  -61.1118 H   0  0  0  0  0  0  0  0  0  0  0  0
    9.5677    2.7402  -60.8350 H   0  0  0  0  0  0  0  0  0  0  0  0
    7.2374    3.5497  -60.4494 H   0  0  0  0  0  0  0  0  0  0  0  0
    7.8219    5.8770  -59.7591 H   0  0  0  0  0  0  0  0  0  0  0  0
    6.7990    5.0721  -58.5143 H   0  0  0  0  0  0  0  0  0  0  0  0
    8.7045    6.3025  -57.4646 H   0  0  0  0  0  0  0  0  0  0  0  0
   10.2941    6.1120  -59.3769 H   0  0  0  0  0  0  0  0  0  0  0  0
   11.0279    5.4793  -57.8600 H   0  0  0  0  0  0  0  0  0  0  0  0
    9.5950    4.3845  -56.1342 H   0  0  0  0  0  0  0  0  0  0  0  0
    7.8195    4.2234  -56.4128 H   0  0  0  0  0  0  0  0  0  0  0  0
    6.9612    2.6036  -58.1605 H   0  0  0  0  0  0  0  0  0  0  0  0
    8.1415    1.6373  -59.1246 H   0  0  0  0  0  0  0  0  0  0  0  0
    5.7396   -0.2443  -52.7864 H   0  0  0  0  0  0  0  0  0  0  0  0
    5.6822    0.6771  -54.3272 H   0  0  0  0  0  0  0  0  0  0  0  0
    5.3756   -1.0928  -54.3272 H   0  0  0  0  0  0  0  0  0  0  0  0
    8.4658   -1.1563  -50.7548 H   0  0  0  0  0  0  0  0  0  0  0  0
    7.8993   -2.8426  -49.0049 H   0  0  0  0  0  0  0  0  0  0  0  0
    6.9939   -5.0710  -49.6650 H   0  0  0  0  0  0  0  0  0  0  0  0
    6.6361   -5.6090  -52.0728 H   0  0  0  0  0  0  0  0  0  0  0  0
    7.2032   -3.9277  -53.8258 H   0  0  0  0  0  0  0  0  0  0  0  0
  1  2  1  0
  2  3  1  0
  3  4  1  0
  4  5  1  0
  5  6  1  0
  6  7  2  0
  7  8  1  0
  8  9  2  0
  8 10  1  0
 11 10  1  1
 11 12  1  0
 12 13  1  0
 13 14  1  0
 14 15  1  0
 15 16  1  0
 16 17  1  0
 17 18  1  0
 17 19  1  0
 15 20  1  0
  7 21  1  0
 21 22  1  0
 21 23  2  0
 23 24  1  0
 24 25  2  0
 25 26  1  0
 26 27  2  0
 27 28  1  0
 28 29  2  0
 23  5  1  0
 29 24  1  0
 19 11  1  0
 20 11  1  0
 18 13  1  0
  1 30  1  0
  1 31  1  0
  1 32  1  0
  2 33  1  0
  2 34  1  0
  3 35  1  0
  3 36  1  0
  4 37  1  0
  4 38  1  0
 10 39  1  0
 12 40  1  0
 12 41  1  0
 13 42  1  6
 14 43  1  0
 14 44  1  0
 15 45  1  6
 16 46  1  0
 16 47  1  0
 17 48  1  1
 18 49  1  0
 18 50  1  0
 19 51  1  0
 19 52  1  0
 20 53  1  0
 20 54  1  0
 22 55  1  0
 22 56  1  0
 22 57  1  0
 25 58  1  0
 26 59  1  0
 27 60  1  0
 28 61  1  0
 29 62  1  0
M  END
>  <meeko>  (51) 
{"is_sidechain": false}

$$$$

     RDKit          3D

 57 62  0  0  0  0  0  0  0  0999 V2000
    7.0910    1.7240  -56.0580 O   0  0  0  0  0  0  0  0  0  0  0  0
    8.2050    1.2310  -55.9100 C   0  0  0  0  0  0  0  0  0  0  0  0
    9.3260    1.6970  -56.5830 N   0  0  0  0  0  0  0  0  0  0  0  0
    9.3120    2.7690  -57.5820 C   0  0  2  0  0  0  0  0  0  0  0  0
    8.2860    2.4900  -58.7060 C   0  0  0  0  0  0  0  0  0  0  0  0
    8.3340    3.6000  -59.7710 C   0  0  1  0  0  0  0  0  0  0  0  0
    8.0210    4.9520  -59.1080 C   0  0  0  0  0  0  0  0  0  0  0  0
    9.0590    5.2590  -58.0160 C   0  0  2  0  0  0  0  0  0  0  0  0
   10.4600    5.3010  -58.6440 C   0  0  0  0  0  0  0  0  0  0  0  0
   10.7820    3.9490  -59.2990 C   0  0  2  0  0  0  0  0  0  0  0  0
    9.7400    3.6510  -60.3890 C   0  0  0  0  0  0  0  0  0  0  0  0
   10.7220    2.8460  -58.2310 C   0  0  0  0  0  0  0  0  0  0  0  0
    9.0120    4.1520  -56.9480 C   0  0  0  0  0  0  0  0  0  0  0  0
    8.4630    0.0800  -55.0150 C   0  0  0  0  0  0  0  0  0  0  0  0
    7.6090   -0.4790  -54.0230 C   0  0  0  0  0  0  0  0  0  0  0  0
    8.2940   -1.5440  -53.4710 C   0  0  0  0  0  0  0  0  0  0  0  0
    7.8860   -2.4590  -52.4160 C   0  0  0  0  0  0  0  0  0  0  0  0
    8.2170   -2.1980  -51.0810 C   0  0  0  0  0  0  0  0  0  0  0  0
    7.8260   -3.0820  -50.0730 C   0  0  0  0  0  0  0  0  0  0  0  0
    7.1070   -4.2330  -50.3950 C   0  0  0  0  0  0  0  0  0  0  0  0
    6.7830   -4.5040  -51.7240 C   0  0  0  0  0  0  0  0  0  0  0  0
    7.1750   -3.6220  -52.7320 C   0  0  0  0  0  0  0  0  0  0  0  0
    9.5000   -1.5670  -54.1280 N   0  0  0  0  0  0  0  0  0  0  0  0
   10.6270   -2.4720  -53.9130 C   0  0  0  0  0  0  0  0  0  0  0  0
   10.4550   -3.7690  -54.6470 C   0  0  0  0  0  0  0  0  0  0  0  0
   10.6750   -3.8630  -56.1360 C   0  0  0  0  0  0  0  0  0  0  0  0
   11.6640   -4.4890  -55.1930 C   0  0  0  0  0  0  0  0  0  0  0  0
    9.6180   -0.6060  -55.0650 N   0  0  0  0  0  0  0  0  0  0  0  0
   10.1460    1.1080  -56.5570 H   0  0  0  0  0  0  0  0  0  0  0  0
    8.5212    1.5250  -59.1788 H   0  0  0  0  0  0  0  0  0  0  0  0
    7.2777    2.4630  -58.2671 H   0  0  0  0  0  0  0  0  0  0  0  0
    7.5927    3.3918  -60.5566 H   0  0  0  0  0  0  0  0  0  0  0  0
    8.0487    5.7454  -59.8694 H   0  0  0  0  0  0  0  0  0  0  0  0
    7.0214    4.9056  -58.6512 H   0  0  0  0  0  0  0  0  0  0  0  0
    8.8339    6.2309  -57.5526 H   0  0  0  0  0  0  0  0  0  0  0  0
   10.4938    6.0928  -59.4068 H   0  0  0  0  0  0  0  0  0  0  0  0
   11.2020    5.5081  -57.8588 H   0  0  0  0  0  0  0  0  0  0  0  0
   11.7865    3.9834  -59.7460 H   0  0  0  0  0  0  0  0  0  0  0  0
    9.7742    4.4426  -61.1520 H   0  0  0  0  0  0  0  0  0  0  0  0
    9.9675    2.6787  -60.8503 H   0  0  0  0  0  0  0  0  0  0  0  0
   10.9543    1.8788  -58.7006 H   0  0  0  0  0  0  0  0  0  0  0  0
   11.4550    3.0814  -57.4453 H   0  0  0  0  0  0  0  0  0  0  0  0
    9.7631    4.3651  -56.1731 H   0  0  0  0  0  0  0  0  0  0  0  0
    8.0051    4.1285  -56.5056 H   0  0  0  0  0  0  0  0  0  0  0  0
    6.6018   -0.1314  -53.7497 H   0  0  0  0  0  0  0  0  0  0  0  0
    8.7874   -1.2930  -50.8249 H   0  0  0  0  0  0  0  0  0  0  0  0
    8.0851   -2.8705  -49.0251 H   0  0  0  0  0  0  0  0  0  0  0  0
    6.7955   -4.9271  -49.6005 H   0  0  0  0  0  0  0  0  0  0  0  0
    6.2183   -5.4132  -51.9779 H   0  0  0  0  0  0  0  0  0  0  0  0
    6.9238   -3.8422  -53.7801 H   0  0  0  0  0  0  0  0  0  0  0  0
   11.5470   -1.9834  -54.2663 H   0  0  0  0  0  0  0  0  0  0  0  0
   10.6826   -2.6954  -52.8374 H   0  0  0  0  0  0  0  0  0  0  0  0
    9.6235   -4.0238  -53.9735 H   0  0  0  0  0  0  0  0  0  0  0  0
   10.0208   -4.5004  -56.7490 H   0  0  0  0  0  0  0  0  0  0  0  0
   10.7393   -3.1362  -56.9592 H   0  0  0  0  0  0  0  0  0  0  0  0
   11.7329   -5.5841  -55.1160 H   0  0  0  0  0  0  0  0  0  0  0  0
   12.7505   -4.4096  -55.0408 H   0  0  0  0  0  0  0  0  0  0  0  0
  1  2  2  0
  2  3  1  0
  4  3  1  1
  4  5  1  0
  5  6  1  0
  6  7  1  0
  7  8  1  0
  8  9  1  0
  9 10  1  0
 10 11  1  0
 10 12  1  0
  8 13  1  0
  2 14  1  0
 14 15  1  0
 15 16  2  0
 16 17  1  0
 17 18  2  0
 18 19  1  0
 19 20  2  0
 20 21  1  0
 21 22  2  0
 16 23  1  0
 23 24  1  0
 24 25  1  0
 25 26  1  0
 26 27  1  0
 23 28  1  0
 12  4  1  0
 28 14  2  0
 13  4  1  0
 22 17  1  0
 27 25  1  0
 11  6  1  0
  3 29  1  0
  5 30  1  0
  5 31  1  0
  6 32  1  6
  7 33  1  0
  7 34  1  0
  8 35  1  1
  9 36  1  0
  9 37  1  0
 10 38  1  6
 11 39  1  0
 11 40  1  0
 12 41  1  0
 12 42  1  0
 13 43  1  0
 13 44  1  0
 15 45  1  0
 18 46  1  0
 19 47  1  0
 20 48  1  0
 21 49  1  0
 22 50  1  0
 24 51  1  0
 24 52  1  0
 25 53  1  0
 26 54  1  0
 26 55  1  0
 27 56  1  0
 27 57  1  0
M  END
>  <meeko>  (52) 
{"is_sidechain": false}

$$$$

     RDKit          3D

 49 52  0  0  0  0  0  0  0  0999 V2000
    6.1590   -0.1330  -53.6460 C   0  0  0  0  0  0  0  0  0  0  0  0
    7.5510   -0.5100  -54.0110 C   0  0  0  0  0  0  0  0  0  0  0  0
    8.4020    0.1080  -54.9860 C   0  0  0  0  0  0  0  0  0  0  0  0
    8.1030    1.2320  -55.8980 C   0  0  0  0  0  0  0  0  0  0  0  0
    6.9940    1.4190  -56.3950 O   0  0  0  0  0  0  0  0  0  0  0  0
    9.1720    2.0800  -56.1230 N   0  0  0  0  0  0  0  0  0  0  0  0
    9.0020    3.3280  -56.8270 C   0  0  0  0  0  0  0  0  0  0  0  0
   10.1660    3.5850  -57.7480 C   0  0  0  0  0  0  0  0  0  0  0  0
    9.9450    3.8710  -59.1040 C   0  0  0  0  0  0  0  0  0  0  0  0
   11.0170    4.1320  -59.9570 C   0  0  0  0  0  0  0  0  0  0  0  0
   12.3210    4.1130  -59.4660 C   0  0  0  0  0  0  0  0  0  0  0  0
   12.5530    3.8360  -58.1200 C   0  0  0  0  0  0  0  0  0  0  0  0
   11.4830    3.5760  -57.2640 C   0  0  0  0  0  0  0  0  0  0  0  0
    9.6090   -0.4830  -55.0030 N   0  0  0  0  0  0  0  0  0  0  0  0
    9.5380   -1.4500  -54.0710 N   0  0  0  0  0  0  0  0  0  0  0  0
   10.7150   -2.2810  -53.8320 C   0  0  0  0  0  0  0  0  0  0  0  0
   11.1690   -2.9910  -55.0740 C   0  0  0  0  0  0  0  0  0  0  0  0
   10.3210   -4.0740  -55.6950 C   0  0  0  0  0  0  0  0  0  0  0  0
   11.6080   -4.4330  -55.0040 C   0  0  0  0  0  0  0  0  0  0  0  0
    8.3100   -1.5320  -53.4600 C   0  0  0  0  0  0  0  0  0  0  0  0
    7.9700   -2.5010  -52.4260 C   0  0  0  0  0  0  0  0  0  0  0  0
    8.1760   -2.1920  -51.0770 C   0  0  0  0  0  0  0  0  0  0  0  0
    7.8500   -3.1200  -50.0860 C   0  0  0  0  0  0  0  0  0  0  0  0
    7.3150   -4.3580  -50.4400 C   0  0  0  0  0  0  0  0  0  0  0  0
    7.1000   -4.6690  -51.7820 C   0  0  0  0  0  0  0  0  0  0  0  0
    7.4250   -3.7410  -52.7740 C   0  0  0  0  0  0  0  0  0  0  0  0
    6.0615   -0.1066  -52.5506 H   0  0  0  0  0  0  0  0  0  0  0  0
    5.9279    0.8601  -54.0587 H   0  0  0  0  0  0  0  0  0  0  0  0
    5.4583   -0.8737  -54.0587 H   0  0  0  0  0  0  0  0  0  0  0  0
    9.9520    2.0150  -55.4850 H   0  0  0  0  0  0  0  0  0  0  0  0
    8.0761    3.2848  -57.4193 H   0  0  0  0  0  0  0  0  0  0  0  0
    8.9478    4.1437  -56.0910 H   0  0  0  0  0  0  0  0  0  0  0  0
    8.9179    3.8895  -59.4973 H   0  0  0  0  0  0  0  0  0  0  0  0
   10.8330    4.3531  -61.0187 H   0  0  0  0  0  0  0  0  0  0  0  0
   13.1662    4.3164  -60.1400 H   0  0  0  0  0  0  0  0  0  0  0  0
   13.5822    3.8224  -57.7319 H   0  0  0  0  0  0  0  0  0  0  0  0
   11.6729    3.3623  -56.2018 H   0  0  0  0  0  0  0  0  0  0  0  0
   11.5333   -1.6408  -53.4707 H   0  0  0  0  0  0  0  0  0  0  0  0
   10.4445   -3.0435  -53.0867 H   0  0  0  0  0  0  0  0  0  0  0  0
   11.6169   -2.0535  -55.4352 H   0  0  0  0  0  0  0  0  0  0  0  0
    9.3577   -4.3470  -55.2394 H   0  0  0  0  0  0  0  0  0  0  0  0
    9.8994   -4.2536  -56.6950 H   0  0  0  0  0  0  0  0  0  0  0  0
   11.5854   -4.9685  -54.0434 H   0  0  0  0  0  0  0  0  0  0  0  0
   12.5163   -4.9836  -55.2900 H   0  0  0  0  0  0  0  0  0  0  0  0
    8.5961   -1.2149  -50.7963 H   0  0  0  0  0  0  0  0  0  0  0  0
    8.0152   -2.8746  -49.0265 H   0  0  0  0  0  0  0  0  0  0  0  0
    7.0622   -5.0905  -49.6592 H   0  0  0  0  0  0  0  0  0  0  0  0
    6.6746   -5.6448  -52.0594 H   0  0  0  0  0  0  0  0  0  0  0  0
    7.2517   -3.9863  -53.8322 H   0  0  0  0  0  0  0  0  0  0  0  0
  1  2  1  0
  2  3  1  0
  3  4  1  0
  4  5  2  0
  4  6  1  0
  6  7  1  0
  7  8  1  0
  8  9  2  0
  9 10  1  0
 10 11  2  0
 11 12  1  0
 12 13  2  0
  3 14  2  0
 14 15  1  0
 15 16  1  0
 16 17  1  0
 17 18  1  0
 18 19  1  0
 15 20  1  0
 20 21  1  0
 21 22  2  0
 22 23  1  0
 23 24  2  0
 24 25  1  0
 25 26  2  0
 20  2  2  0
 26 21  1  0
 13  8  1  0
 19 17  1  0
  1 27  1  0
  1 28  1  0
  1 29  1  0
  6 30  1  0
  7 31  1  0
  7 32  1  0
  9 33  1  0
 10 34  1  0
 11 35  1  0
 12 36  1  0
 13 37  1  0
 16 38  1  0
 16 39  1  0
 17 40  1  0
 18 41  1  0
 18 42  1  0
 19 43  1  0
 19 44  1  0
 22 45  1  0
 23 46  1  0
 24 47  1  0
 25 48  1  0
 26 49  1  0
M  END
>  <meeko>  (53) 
{"is_sidechain": false}

$$$$

     RDKit          3D

 48 50  0  0  0  0  0  0  0  0999 V2000
    3.2440    0.8320  -63.1370 C   0  0  0  0  0  0  0  0  0  0  0  0
    2.7610    1.9930  -62.2820 C   0  0  0  0  0  0  0  0  0  0  0  0
    3.2750    1.9480  -60.8400 C   0  0  0  0  0  0  0  0  0  0  0  0
    4.5980    1.2050  -60.6510 C   0  0  0  0  0  0  0  0  0  0  0  0
    5.6590    2.0580  -60.1650 N   0  0  0  0  0  0  0  0  0  0  0  0
    6.4950    2.7400  -61.0330 C   0  0  0  0  0  0  0  0  0  0  0  0
    6.3260    2.7380  -62.2500 O   0  0  0  0  0  0  0  0  0  0  0  0
    7.6170    3.4320  -60.3690 C   0  0  0  0  0  0  0  0  0  0  0  0
    7.4200    4.1340  -59.2400 N   0  0  0  0  0  0  0  0  0  0  0  0
    8.6260    4.6430  -58.9320 N   0  0  0  0  0  0  0  0  0  0  0  0
    8.7510    5.4770  -57.7390 C   0  0  0  0  0  0  0  0  0  0  0  0
    8.9310    4.6580  -56.4940 C   0  0  0  0  0  0  0  0  0  0  0  0
   10.3080    4.1970  -56.0840 C   0  0  0  0  0  0  0  0  0  0  0  0
    9.2980    3.1970  -56.5770 C   0  0  0  0  0  0  0  0  0  0  0  0
    9.6150    4.2870  -59.8180 C   0  0  0  0  0  0  0  0  0  0  0  0
   11.0070    4.7010  -59.7100 C   0  0  0  0  0  0  0  0  0  0  0  0
   11.3770    6.0190  -59.9960 C   0  0  0  0  0  0  0  0  0  0  0  0
   12.7130    6.4130  -59.8900 C   0  0  0  0  0  0  0  0  0  0  0  0
   13.6810    5.4930  -59.4930 C   0  0  0  0  0  0  0  0  0  0  0  0
   13.3170    4.1790  -59.1980 C   0  0  0  0  0  0  0  0  0  0  0  0
   11.9830    3.7840  -59.3030 C   0  0  0  0  0  0  0  0  0  0  0  0
    8.9930    3.4880  -60.7670 C   0  0  0  0  0  0  0  0  0  0  0  0
    9.6350    2.8120  -61.9240 C   0  0  0  0  0  0  0  0  0  0  0  0
    3.5845    0.0136  -62.4855 H   0  0  0  0  0  0  0  0  0  0  0  0
    2.4192    0.4763  -63.7720 H   0  0  0  0  0  0  0  0  0  0  0  0
    4.0777    1.1662  -63.7720 H   0  0  0  0  0  0  0  0  0  0  0  0
    3.1029    2.9309  -62.7440 H   0  0  0  0  0  0  0  0  0  0  0  0
    1.6641    1.9250  -62.2357 H   0  0  0  0  0  0  0  0  0  0  0  0
    3.4118    2.9830  -60.4936 H   0  0  0  0  0  0  0  0  0  0  0  0
    2.5231    1.3911  -60.2617 H   0  0  0  0  0  0  0  0  0  0  0  0
    4.4430    0.3911  -59.9274 H   0  0  0  0  0  0  0  0  0  0  0  0
    4.9060    0.8246  -61.6361 H   0  0  0  0  0  0  0  0  0  0  0  0
    5.9880    1.9200  -59.2190 H   0  0  0  0  0  0  0  0  0  0  0  0
    9.6223    6.1379  -57.8579 H   0  0  0  0  0  0  0  0  0  0  0  0
    7.8222    6.0566  -57.6319 H   0  0  0  0  0  0  0  0  0  0  0  0
    8.1210    5.2275  -56.0149 H   0  0  0  0  0  0  0  0  0  0  0  0
   11.1799    4.4496  -56.7052 H   0  0  0  0  0  0  0  0  0  0  0  0
   10.9238    4.2978  -55.1781 H   0  0  0  0  0  0  0  0  0  0  0  0
    9.4318    2.7187  -57.5585 H   0  0  0  0  0  0  0  0  0  0  0  0
    8.8701    2.2644  -56.1805 H   0  0  0  0  0  0  0  0  0  0  0  0
   10.6134    6.7479  -60.3055 H   0  0  0  0  0  0  0  0  0  0  0  0
   13.0007    7.4495  -60.1199 H   0  0  0  0  0  0  0  0  0  0  0  0
   14.7333    5.8030  -59.4121 H   0  0  0  0  0  0  0  0  0  0  0  0
   14.0819    3.4542  -58.8825 H   0  0  0  0  0  0  0  0  0  0  0  0
   11.6974    2.7487  -59.0652 H   0  0  0  0  0  0  0  0  0  0  0  0
   10.3495    2.0596  -61.5588 H   0  0  0  0  0  0  0  0  0  0  0  0
    8.8641    2.3195  -62.5349 H   0  0  0  0  0  0  0  0  0  0  0  0
   10.1666    3.5565  -62.5349 H   0  0  0  0  0  0  0  0  0  0  0  0
  1  2  1  0
  2  3  1  0
  3  4  1  0
  4  5  1  0
  5  6  1  0
  6  7  2  0
  6  8  1  0
  8  9  2  0
  9 10  1  0
 10 11  1  0
 11 12  1  0
 12 13  1  0
 13 14  1  0
 10 15  1  0
 15 16  1  0
 16 17  2  0
 17 18  1  0
 18 19  2  0
 19 20  1  0
 20 21  2  0
 15 22  2  0
 22 23  1  0
 22  8  1  0
 14 12  1  0
 21 16  1  0
  1 24  1  0
  1 25  1  0
  1 26  1  0
  2 27  1  0
  2 28  1  0
  3 29  1  0
  3 30  1  0
  4 31  1  0
  4 32  1  0
  5 33  1  0
 11 34  1  0
 11 35  1  0
 12 36  1  0
 13 37  1  0
 13 38  1  0
 14 39  1  0
 14 40  1  0
 17 41  1  0
 18 42  1  0
 19 43  1  0
 20 44  1  0
 21 45  1  0
 23 46  1  0
 23 47  1  0
 23 48  1  0
M  END
>  <meeko>  (54) 
{"is_sidechain": false}

$$$$

     RDKit          3D

 51 53  0  0  0  0  0  0  0  0999 V2000
    6.1960   -0.1080  -53.7100 C   0  0  0  0  0  0  0  0  0  0  0  0
    7.5960   -0.4940  -54.0210 C   0  0  0  0  0  0  0  0  0  0  0  0
    8.4580    0.1230  -54.9770 C   0  0  0  0  0  0  0  0  0  0  0  0
    8.1600    1.2670  -55.8600 C   0  0  0  0  0  0  0  0  0  0  0  0
    7.0990    1.3980  -56.4630 O   0  0  0  0  0  0  0  0  0  0  0  0
    9.2020    2.1660  -55.9390 N   0  0  0  0  0  0  0  0  0  0  0  0
    9.1910    3.3460  -56.7700 C   0  0  0  0  0  0  0  0  0  0  0  0
   10.3130    3.3700  -57.8360 C   0  0  0  0  0  0  0  0  0  0  0  0
    9.8710    2.6330  -59.1110 C   0  0  0  0  0  0  0  0  0  0  0  0
   11.5460    2.6530  -57.2540 C   0  0  0  0  0  0  0  0  0  0  0  0
   10.7090    4.8120  -58.1940 C   0  0  0  0  0  0  0  0  0  0  0  0
    9.6630   -0.4840  -55.0100 N   0  0  0  0  0  0  0  0  0  0  0  0
    9.5730   -1.4560  -54.0770 N   0  0  0  0  0  0  0  0  0  0  0  0
   10.7340   -2.3100  -53.8380 C   0  0  0  0  0  0  0  0  0  0  0  0
   11.1740   -3.0260  -55.0830 C   0  0  0  0  0  0  0  0  0  0  0  0
   11.5970   -4.4720  -55.0150 C   0  0  0  0  0  0  0  0  0  0  0  0
   10.3140   -4.0980  -55.7030 C   0  0  0  0  0  0  0  0  0  0  0  0
    8.3460   -1.5170  -53.4600 C   0  0  0  0  0  0  0  0  0  0  0  0
    7.9940   -2.4780  -52.4240 C   0  0  0  0  0  0  0  0  0  0  0  0
    8.2000   -2.1670  -51.0760 C   0  0  0  0  0  0  0  0  0  0  0  0
    7.8650   -3.0880  -50.0830 C   0  0  0  0  0  0  0  0  0  0  0  0
    7.3180   -4.3220  -50.4330 C   0  0  0  0  0  0  0  0  0  0  0  0
    7.1010   -4.6350  -51.7740 C   0  0  0  0  0  0  0  0  0  0  0  0
    7.4360   -3.7140  -52.7680 C   0  0  0  0  0  0  0  0  0  0  0  0
    6.0597   -0.0704  -52.6191 H   0  0  0  0  0  0  0  0  0  0  0  0
    5.9844    0.8820  -54.1403 H   0  0  0  0  0  0  0  0  0  0  0  0
    5.5070   -0.8497  -54.1403 H   0  0  0  0  0  0  0  0  0  0  0  0
   10.0250    1.9120  -55.3970 H   0  0  0  0  0  0  0  0  0  0  0  0
    8.2210    3.3976  -57.2862 H   0  0  0  0  0  0  0  0  0  0  0  0
    9.3611    4.2067  -56.1064 H   0  0  0  0  0  0  0  0  0  0  0  0
    9.3233    1.7197  -58.8354 H   0  0  0  0  0  0  0  0  0  0  0  0
    9.2165    3.2879  -59.7049 H   0  0  0  0  0  0  0  0  0  0  0  0
   10.7570    2.3641  -59.7049 H   0  0  0  0  0  0  0  0  0  0  0  0
   11.5008    2.6793  -56.1552 H   0  0  0  0  0  0  0  0  0  0  0  0
   11.5573    1.6074  -57.5956 H   0  0  0  0  0  0  0  0  0  0  0  0
   12.4603    3.1603  -57.5956 H   0  0  0  0  0  0  0  0  0  0  0  0
   10.8674    5.3887  -57.2708 H   0  0  0  0  0  0  0  0  0  0  0  0
   11.6375    4.8016  -58.7837 H   0  0  0  0  0  0  0  0  0  0  0  0
    9.9054    5.2773  -58.7837 H   0  0  0  0  0  0  0  0  0  0  0  0
   11.5644   -1.6865  -53.4751 H   0  0  0  0  0  0  0  0  0  0  0  0
   10.4496   -3.0682  -53.0935 H   0  0  0  0  0  0  0  0  0  0  0  0
   11.6299   -2.0927  -55.4450 H   0  0  0  0  0  0  0  0  0  0  0  0
   12.4561   -4.8219  -55.6062 H   0  0  0  0  0  0  0  0  0  0  0  0
   11.8717   -5.1642  -54.2055 H   0  0  0  0  0  0  0  0  0  0  0  0
   10.2347   -4.1744  -56.7975 H   0  0  0  0  0  0  0  0  0  0  0  0
    9.2619   -4.4036  -55.6049 H   0  0  0  0  0  0  0  0  0  0  0  0
    8.6278   -1.1925  -50.7977 H   0  0  0  0  0  0  0  0  0  0  0  0
    8.0323   -2.8408  -49.0243 H   0  0  0  0  0  0  0  0  0  0  0  0
    7.0574   -5.0493  -49.6500 H   0  0  0  0  0  0  0  0  0  0  0  0
    6.6660   -5.6073  -52.0487 H   0  0  0  0  0  0  0  0  0  0  0  0
    7.2607   -3.9609  -53.8255 H   0  0  0  0  0  0  0  0  0  0  0  0
  1  2  1  0
  2  3  1  0
  3  4  1  0
  4  5  2  0
  4  6  1  0
  6  7  1  0
  7  8  1  0
  8  9  1  0
  8 10  1  0
  8 11  1  0
  3 12  2  0
 12 13  1  0
 13 14  1  0
 14 15  1  0
 15 16  1  0
 16 17  1  0
 13 18  1  0
 18 19  1  0
 19 20  2  0
 20 21  1  0
 21 22  2  0
 22 23  1  0
 23 24  2  0
 18  2  2  0
 24 19  1  0
 17 15  1  0
  1 25  1  0
  1 26  1  0
  1 27  1  0
  6 28  1  0
  7 29  1  0
  7 30  1  0
  9 31  1  0
  9 32  1  0
  9 33  1  0
 10 34  1  0
 10 35  1  0
 10 36  1  0
 11 37  1  0
 11 38  1  0
 11 39  1  0
 14 40  1  0
 14 41  1  0
 15 42  1  0
 16 43  1  0
 16 44  1  0
 17 45  1  0
 17 46  1  0
 20 47  1  0
 21 48  1  0
 22 49  1  0
 23 50  1  0
 24 51  1  0
M  END
>  <meeko>  (55) 
{"is_sidechain": false}

$$$$

     RDKit          3D

 55 58  0  0  0  0  0  0  0  0999 V2000
    6.7820    0.0280  -53.4560 C   0  0  0  0  0  0  0  0  0  0  0  0
    8.0500   -0.5680  -53.9520 C   0  0  0  0  0  0  0  0  0  0  0  0
    8.9160   -0.0560  -54.9730 C   0  0  0  0  0  0  0  0  0  0  0  0
    8.7430    1.1480  -55.8090 C   0  0  0  0  0  0  0  0  0  0  0  0
    7.6480    1.5710  -56.1690 O   0  0  0  0  0  0  0  0  0  0  0  0
    9.9290    1.7870  -56.1340 N   0  0  0  0  0  0  0  0  0  0  0  0
    9.9440    3.0400  -56.8590 C   0  0  0  0  0  0  0  0  0  0  0  0
   10.8680    3.0050  -58.0900 C   0  0  0  0  0  0  0  0  0  0  0  0
   12.2710    3.5440  -57.7420 C   0  0  0  0  0  0  0  0  0  0  0  0
   12.9880    4.0870  -58.9720 C   0  0  0  0  0  0  0  0  0  0  0  0
   12.2330    5.2650  -59.5900 C   0  0  0  0  0  0  0  0  0  0  0  0
   10.7200    5.1950  -59.3790 C   0  0  0  0  0  0  0  0  0  0  0  0
   10.2290    3.7570  -59.2760 C   0  0  0  0  0  0  0  0  0  0  0  0
    9.9930   -0.8460  -55.1220 N   0  0  0  0  0  0  0  0  0  0  0  0
    9.8280   -1.8320  -54.2230 N   0  0  0  0  0  0  0  0  0  0  0  0
   10.8660   -2.8540  -54.1150 C   0  0  0  0  0  0  0  0  0  0  0  0
   10.5800   -4.0440  -54.9850 C   0  0  0  0  0  0  0  0  0  0  0  0
   11.7230   -4.8510  -55.5510 C   0  0  0  0  0  0  0  0  0  0  0  0
   10.8680   -4.0200  -56.4650 C   0  0  0  0  0  0  0  0  0  0  0  0
    8.6610   -1.7320  -53.5060 C   0  0  0  0  0  0  0  0  0  0  0  0
    8.2440   -2.6710  -52.4720 C   0  0  0  0  0  0  0  0  0  0  0  0
    7.2740   -3.6420  -52.7480 C   0  0  0  0  0  0  0  0  0  0  0  0
    6.8770   -4.5380  -51.7540 C   0  0  0  0  0  0  0  0  0  0  0  0
    7.4420   -4.4670  -50.4820 C   0  0  0  0  0  0  0  0  0  0  0  0
    8.4020   -3.4970  -50.1990 C   0  0  0  0  0  0  0  0  0  0  0  0
    8.8010   -2.5990  -51.1910 C   0  0  0  0  0  0  0  0  0  0  0  0
    6.7824    0.0278  -52.3560 H   0  0  0  0  0  0  0  0  0  0  0  0
    6.6946    1.0615  -53.8225 H   0  0  0  0  0  0  0  0  0  0  0  0
    5.9305   -0.5642  -53.8225 H   0  0  0  0  0  0  0  0  0  0  0  0
   10.7690    1.4960  -55.6510 H   0  0  0  0  0  0  0  0  0  0  0  0
    8.9206    3.2648  -57.1938 H   0  0  0  0  0  0  0  0  0  0  0  0
   10.3289    3.8129  -56.1774 H   0  0  0  0  0  0  0  0  0  0  0  0
   10.9958    1.9580  -58.4024 H   0  0  0  0  0  0  0  0  0  0  0  0
   12.1690    4.3525  -57.0031 H   0  0  0  0  0  0  0  0  0  0  0  0
   12.8668    2.7125  -57.3374 H   0  0  0  0  0  0  0  0  0  0  0  0
   13.9942    4.4218  -58.6798 H   0  0  0  0  0  0  0  0  0  0  0  0
   13.0433    3.2831  -59.7207 H   0  0  0  0  0  0  0  0  0  0  0  0
   12.6057    6.1949  -59.1357 H   0  0  0  0  0  0  0  0  0  0  0  0
   12.4113    5.2316  -60.6749 H   0  0  0  0  0  0  0  0  0  0  0  0
   10.4652    5.7256  -58.4497 H   0  0  0  0  0  0  0  0  0  0  0  0
   10.2318    5.6615  -60.2474 H   0  0  0  0  0  0  0  0  0  0  0  0
    9.1370    3.7644  -59.1434 H   0  0  0  0  0  0  0  0  0  0  0  0
   10.5172    3.2354  -60.2006 H   0  0  0  0  0  0  0  0  0  0  0  0
   11.8282   -2.4157  -54.4186 H   0  0  0  0  0  0  0  0  0  0  0  0
   10.8957   -3.1975  -53.0704 H   0  0  0  0  0  0  0  0  0  0  0  0
    9.6888   -4.2582  -54.3768 H   0  0  0  0  0  0  0  0  0  0  0  0
   12.7615   -4.5516  -55.3466 H   0  0  0  0  0  0  0  0  0  0  0  0
   12.0205   -5.9094  -55.5139 H   0  0  0  0  0  0  0  0  0  0  0  0
   11.2812   -3.1127  -56.9298 H   0  0  0  0  0  0  0  0  0  0  0  0
   10.2812   -4.2192  -57.3738 H   0  0  0  0  0  0  0  0  0  0  0  0
    6.8238   -3.6990  -53.7501 H   0  0  0  0  0  0  0  0  0  0  0  0
    6.1167   -5.3016  -51.9751 H   0  0  0  0  0  0  0  0  0  0  0  0
    7.1303   -5.1765  -49.7013 H   0  0  0  0  0  0  0  0  0  0  0  0
    8.8454   -3.4389  -49.1940 H   0  0  0  0  0  0  0  0  0  0  0  0
    9.5562   -1.8321  -50.9642 H   0  0  0  0  0  0  0  0  0  0  0  0
  1  2  1  0
  2  3  1  0
  3  4  1  0
  4  5  2  0
  4  6  1  0
  6  7  1  0
  7  8  1  0
  8  9  1  0
  9 10  1  0
 10 11  1  0
 11 12  1  0
 12 13  1  0
  3 14  2  0
 14 15  1  0
 15 16  1  0
 16 17  1  0
 17 18  1  0
 18 19  1  0
 15 20  1  0
 20 21  1  0
 21 22  2  0
 22 23  1  0
 23 24  2  0
 24 25  1  0
 25 26  2  0
 20  2  2  0
 26 21  1  0
 13  8  1  0
 19 17  1  0
  1 27  1  0
  1 28  1  0
  1 29  1  0
  6 30  1  0
  7 31  1  0
  7 32  1  0
  8 33  1  0
  9 34  1  0
  9 35  1  0
 10 36  1  0
 10 37  1  0
 11 38  1  0
 11 39  1  0
 12 40  1  0
 12 41  1  0
 13 42  1  0
 13 43  1  0
 16 44  1  0
 16 45  1  0
 17 46  1  0
 18 47  1  0
 18 48  1  0
 19 49  1  0
 19 50  1  0
 22 51  1  0
 23 52  1  0
 24 53  1  0
 25 54  1  0
 26 55  1  0
M  END
>  <meeko>  (56) 
{"is_sidechain": false}

$$$$

     RDKit          3D

 48 50  0  0  0  0  0  0  0  0999 V2000
    6.6200   -0.0390  -53.3830 C   0  0  0  0  0  0  0  0  0  0  0  0
    7.9200   -0.5660  -53.8740 C   0  0  0  0  0  0  0  0  0  0  0  0
    8.7650   -0.0080  -54.8890 C   0  0  0  0  0  0  0  0  0  0  0  0
    8.5300    1.1870  -55.7260 C   0  0  0  0  0  0  0  0  0  0  0  0
    7.4300    1.4970  -56.1710 O   0  0  0  0  0  0  0  0  0  0  0  0
    9.6650    1.9560  -55.9390 N   0  0  0  0  0  0  0  0  0  0  0  0
    9.5580    3.2510  -56.5780 C   0  0  0  0  0  0  0  0  0  0  0  0
   10.4140    3.3380  -57.8490 C   0  0  0  0  0  0  0  0  0  0  0  0
    9.9000    2.3500  -58.8960 C   0  0  0  0  0  0  0  0  0  0  0  0
   11.8890    3.0650  -57.5510 C   0  0  0  0  0  0  0  0  0  0  0  0
    9.8840   -0.7370  -55.0300 N   0  0  0  0  0  0  0  0  0  0  0  0
    9.7610   -1.7390  -54.1400 N   0  0  0  0  0  0  0  0  0  0  0  0
   10.8350   -2.7250  -54.0520 C   0  0  0  0  0  0  0  0  0  0  0  0
   10.5720   -3.9230  -54.9190 C   0  0  0  0  0  0  0  0  0  0  0  0
   11.7020   -4.7660  -55.4550 C   0  0  0  0  0  0  0  0  0  0  0  0
   10.9240   -3.8780  -56.3850 C   0  0  0  0  0  0  0  0  0  0  0  0
    8.5920   -1.6920  -53.4190 C   0  0  0  0  0  0  0  0  0  0  0  0
    8.2070   -2.6600  -52.4010 C   0  0  0  0  0  0  0  0  0  0  0  0
    8.5550   -2.4560  -51.0600 C   0  0  0  0  0  0  0  0  0  0  0  0
    8.1790   -3.3830  -50.0880 C   0  0  0  0  0  0  0  0  0  0  0  0
    7.4490   -4.5160  -50.4480 C   0  0  0  0  0  0  0  0  0  0  0  0
    7.0900   -4.7200  -51.7810 C   0  0  0  0  0  0  0  0  0  0  0  0
    7.4660   -3.7930  -52.7540 C   0  0  0  0  0  0  0  0  0  0  0  0
    6.6168   -0.0377  -52.2830 H   0  0  0  0  0  0  0  0  0  0  0  0
    6.4779    0.9877  -53.7513 H   0  0  0  0  0  0  0  0  0  0  0  0
    5.8031   -0.6770  -53.7513 H   0  0  0  0  0  0  0  0  0  0  0  0
   10.4210    1.8120  -55.2850 H   0  0  0  0  0  0  0  0  0  0  0  0
    8.5060    3.4291  -56.8456 H   0  0  0  0  0  0  0  0  0  0  0  0
    9.9228    4.0100  -55.8703 H   0  0  0  0  0  0  0  0  0  0  0  0
   10.3321    4.3622  -58.2417 H   0  0  0  0  0  0  0  0  0  0  0  0
    9.4489    1.4828  -58.3915 H   0  0  0  0  0  0  0  0  0  0  0  0
    9.1439    2.8426  -59.5250 H   0  0  0  0  0  0  0  0  0  0  0  0
   10.7374    2.0136  -59.5250 H   0  0  0  0  0  0  0  0  0  0  0  0
   12.0439    3.0363  -56.4623 H   0  0  0  0  0  0  0  0  0  0  0  0
   12.1785    2.0980  -57.9882 H   0  0  0  0  0  0  0  0  0  0  0  0
   12.5054    3.8643  -57.9882 H   0  0  0  0  0  0  0  0  0  0  0  0
   11.7762   -2.2544  -54.3726 H   0  0  0  0  0  0  0  0  0  0  0  0
   10.8966   -3.0679  -53.0086 H   0  0  0  0  0  0  0  0  0  0  0  0
    9.6658   -4.1332  -54.3319 H   0  0  0  0  0  0  0  0  0  0  0  0
   12.7426   -4.5171  -55.1995 H   0  0  0  0  0  0  0  0  0  0  0  0
   11.9518   -5.8370  -55.4307 H   0  0  0  0  0  0  0  0  0  0  0  0
   11.3955   -2.9795  -56.8098 H   0  0  0  0  0  0  0  0  0  0  0  0
   10.3692   -4.0306  -57.3225 H   0  0  0  0  0  0  0  0  0  0  0  0
    9.1269   -1.5615  -50.7722 H   0  0  0  0  0  0  0  0  0  0  0  0
    8.4584   -3.2205  -49.0365 H   0  0  0  0  0  0  0  0  0  0  0  0
    7.1564   -5.2484  -49.6812 H   0  0  0  0  0  0  0  0  0  0  0  0
    6.5109   -5.6111  -52.0647 H   0  0  0  0  0  0  0  0  0  0  0  0
    7.1784   -3.9539  -53.8035 H   0  0  0  0  0  0  0  0  0  0  0  0
  1  2  1  0
  2  3  1  0
  3  4  1  0
  4  5  2  0
  4  6  1  0
  6  7  1  0
  7  8  1  0
  8  9  1  0
  8 10  1  0
  3 11  2  0
 11 12  1  0
 12 13  1  0
 13 14  1  0
 14 15  1  0
 15 16  1  0
 12 17  1  0
 17 18  1  0
 18 19  2  0
 19 20  1  0
 20 21  2  0
 21 22  1  0
 22 23  2  0
 17  2  2  0
 23 18  1  0
 16 14  1  0
  1 24  1  0
  1 25  1  0
  1 26  1  0
  6 27  1  0
  7 28  1  0
  7 29  1  0
  8 30  1  0
  9 31  1  0
  9 32  1  0
  9 33  1  0
 10 34  1  0
 10 35  1  0
 10 36  1  0
 13 37  1  0
 13 38  1  0
 14 39  1  0
 15 40  1  0
 15 41  1  0
 16 42  1  0
 16 43  1  0
 19 44  1  0
 20 45  1  0
 21 46  1  0
 22 47  1  0
 23 48  1  0
M  END
>  <meeko>  (57) 
{"is_sidechain": false}

$$$$

     RDKit          3D

 48 50  0  0  0  0  0  0  0  0999 V2000
    6.9000   -0.0080  -53.5680 C   0  0  0  0  0  0  0  0  0  0  0  0
    8.1800   -0.6110  -54.0240 C   0  0  0  0  0  0  0  0  0  0  0  0
    9.0680   -0.1160  -55.0340 C   0  0  0  0  0  0  0  0  0  0  0  0
    8.9080    1.0790  -55.8890 C   0  0  0  0  0  0  0  0  0  0  0  0
    7.8200    1.6040  -56.1050 O   0  0  0  0  0  0  0  0  0  0  0  0
   10.1030    1.5630  -56.3960 N   0  0  0  0  0  0  0  0  0  0  0  0
   10.2400    2.8010  -57.1750 C   0  0  0  0  0  0  0  0  0  0  0  0
    9.5180    2.6940  -58.5280 C   0  0  0  0  0  0  0  0  0  0  0  0
   11.7400    3.0190  -57.4510 C   0  0  0  0  0  0  0  0  0  0  0  0
    9.7070    4.0060  -56.3840 C   0  0  0  0  0  0  0  0  0  0  0  0
   10.1450   -0.9080  -55.1520 N   0  0  0  0  0  0  0  0  0  0  0  0
    9.9630   -1.8810  -54.2400 N   0  0  0  0  0  0  0  0  0  0  0  0
   10.9980   -2.9010  -54.0940 C   0  0  0  0  0  0  0  0  0  0  0  0
   10.7320   -4.1010  -54.9560 C   0  0  0  0  0  0  0  0  0  0  0  0
   11.8850   -4.8360  -55.5930 C   0  0  0  0  0  0  0  0  0  0  0  0
   10.9310   -4.0540  -56.4490 C   0  0  0  0  0  0  0  0  0  0  0  0
    8.7800   -1.7690  -53.5490 C   0  0  0  0  0  0  0  0  0  0  0  0
    8.3400   -2.6940  -52.5120 C   0  0  0  0  0  0  0  0  0  0  0  0
    8.8690   -2.6020  -51.2200 C   0  0  0  0  0  0  0  0  0  0  0  0
    8.4480   -3.4850  -50.2240 C   0  0  0  0  0  0  0  0  0  0  0  0
    7.4940   -4.4600  -50.5140 C   0  0  0  0  0  0  0  0  0  0  0  0
    6.9570   -4.5510  -51.7970 C   0  0  0  0  0  0  0  0  0  0  0  0
    7.3760   -3.6680  -52.7950 C   0  0  0  0  0  0  0  0  0  0  0  0
    6.8721    0.0052  -52.4684 H   0  0  0  0  0  0  0  0  0  0  0  0
    6.8232    1.0210  -53.9491 H   0  0  0  0  0  0  0  0  0  0  0  0
    6.0576   -0.6040  -53.9491 H   0  0  0  0  0  0  0  0  0  0  0  0
   10.9360    1.2120  -55.9400 H   0  0  0  0  0  0  0  0  0  0  0  0
    8.4429    2.5347  -58.3583 H   0  0  0  0  0  0  0  0  0  0  0  0
    9.6656    3.6238  -59.0969 H   0  0  0  0  0  0  0  0  0  0  0  0
    9.9289    1.8469  -59.0969 H   0  0  0  0  0  0  0  0  0  0  0  0
   12.2808    3.0976  -56.4964 H   0  0  0  0  0  0  0  0  0  0  0  0
   12.1342    2.1687  -58.0268 H   0  0  0  0  0  0  0  0  0  0  0  0
   11.8759    3.9463  -58.0268 H   0  0  0  0  0  0  0  0  0  0  0  0
    9.7958    3.8053  -55.3061 H   0  0  0  0  0  0  0  0  0  0  0  0
   10.2932    4.9009  -56.6399 H   0  0  0  0  0  0  0  0  0  0  0  0
    8.6505    4.1743  -56.6399 H   0  0  0  0  0  0  0  0  0  0  0  0
   11.9673   -2.4665  -54.3798 H   0  0  0  0  0  0  0  0  0  0  0  0
   11.0032   -3.2313  -53.0448 H   0  0  0  0  0  0  0  0  0  0  0  0
    9.8915   -4.3697  -54.2993 H   0  0  0  0  0  0  0  0  0  0  0  0
   12.9142   -4.4762  -55.4471 H   0  0  0  0  0  0  0  0  0  0  0  0
   12.2461   -5.8750  -55.5812 H   0  0  0  0  0  0  0  0  0  0  0  0
   11.2620   -3.1218  -56.9301 H   0  0  0  0  0  0  0  0  0  0  0  0
   10.3049   -4.2840  -57.3237 H   0  0  0  0  0  0  0  0  0  0  0  0
    9.6190   -1.8314  -50.9883 H   0  0  0  0  0  0  0  0  0  0  0  0
    8.8688   -3.4117  -49.2103 H   0  0  0  0  0  0  0  0  0  0  0  0
    7.1651   -5.1577  -49.7297 H   0  0  0  0  0  0  0  0  0  0  0  0
    6.2026   -5.3188  -52.0238 H   0  0  0  0  0  0  0  0  0  0  0  0
    6.9472   -3.7385  -53.8055 H   0  0  0  0  0  0  0  0  0  0  0  0
  1  2  1  0
  2  3  1  0
  3  4  1  0
  4  5  2  0
  4  6  1  0
  6  7  1  0
  7  8  1  0
  7  9  1  0
  7 10  1  0
  3 11  2  0
 11 12  1  0
 12 13  1  0
 13 14  1  0
 14 15  1  0
 15 16  1  0
 12 17  1  0
 17 18  1  0
 18 19  2  0
 19 20  1  0
 20 21  2  0
 21 22  1  0
 22 23  2  0
 17  2  2  0
 23 18  1  0
 16 14  1  0
  1 24  1  0
  1 25  1  0
  1 26  1  0
  6 27  1  0
  8 28  1  0
  8 29  1  0
  8 30  1  0
  9 31  1  0
  9 32  1  0
  9 33  1  0
 10 34  1  0
 10 35  1  0
 10 36  1  0
 13 37  1  0
 13 38  1  0
 14 39  1  0
 15 40  1  0
 15 41  1  0
 16 42  1  0
 16 43  1  0
 19 44  1  0
 20 45  1  0
 21 46  1  0
 22 47  1  0
 23 48  1  0
M  END
>  <meeko>  (58) 
{"is_sidechain": false}

$$$$

     RDKit          3D

 45 47  0  0  0  0  0  0  0  0999 V2000
    5.9000   -0.3490  -53.8240 C   0  0  0  0  0  0  0  0  0  0  0  0
    7.3510   -0.5940  -54.0190 C   0  0  0  0  0  0  0  0  0  0  0  0
    8.2190    0.0940  -54.9220 C   0  0  0  0  0  0  0  0  0  0  0  0
    7.8720    1.1770  -55.8630 C   0  0  0  0  0  0  0  0  0  0  0  0
    6.7310    1.3840  -56.2660 O   0  0  0  0  0  0  0  0  0  0  0  0
    8.9670    1.9180  -56.2530 N   0  0  0  0  0  0  0  0  0  0  0  0
    8.9180    2.9000  -57.3190 C   0  0  0  0  0  0  0  0  0  0  0  0
    9.0490    4.3140  -56.7420 C   0  0  0  0  0  0  0  0  0  0  0  0
    9.0610    5.3720  -57.8420 C   0  0  0  0  0  0  0  0  0  0  0  0
   10.1480    5.0960  -58.8760 C   0  0  0  0  0  0  0  0  0  0  0  0
   10.0260    3.6900  -59.4560 C   0  0  0  0  0  0  0  0  0  0  0  0
   10.0130    2.6270  -58.3600 C   0  0  0  0  0  0  0  0  0  0  0  0
    9.4810   -0.3770  -54.8400 N   0  0  0  0  0  0  0  0  0  0  0  0
    9.4130   -1.3460  -53.9090 N   0  0  0  0  0  0  0  0  0  0  0  0
   10.6080   -2.0920  -53.5860 C   0  0  0  0  0  0  0  0  0  0  0  0
    8.1610   -1.5160  -53.3710 C   0  0  0  0  0  0  0  0  0  0  0  0
    7.8390   -2.5000  -52.3440 C   0  0  0  0  0  0  0  0  0  0  0  0
    7.3390   -3.7560  -52.7070 C   0  0  0  0  0  0  0  0  0  0  0  0
    7.0350   -4.7020  -51.7270 C   0  0  0  0  0  0  0  0  0  0  0  0
    7.2260   -4.3970  -50.3800 C   0  0  0  0  0  0  0  0  0  0  0  0
    7.7170   -3.1450  -50.0110 C   0  0  0  0  0  0  0  0  0  0  0  0
    8.0210   -2.1980  -50.9900 C   0  0  0  0  0  0  0  0  0  0  0  0
    5.6759   -0.3112  -52.7477 H   0  0  0  0  0  0  0  0  0  0  0  0
    5.6239    0.6085  -54.2899 H   0  0  0  0  0  0  0  0  0  0  0  0
    5.3249   -1.1627  -54.2899 H   0  0  0  0  0  0  0  0  0  0  0  0
    9.8570    1.5400  -55.9350 H   0  0  0  0  0  0  0  0  0  0  0  0
    7.9449    2.8211  -57.8257 H   0  0  0  0  0  0  0  0  0  0  0  0
    8.1983    4.5060  -56.0716 H   0  0  0  0  0  0  0  0  0  0  0  0
   10.0019    4.3753  -56.1959 H   0  0  0  0  0  0  0  0  0  0  0  0
    8.0827    5.3750  -58.3449 H   0  0  0  0  0  0  0  0  0  0  0  0
    9.2678    6.3477  -57.3781 H   0  0  0  0  0  0  0  0  0  0  0  0
   10.0587    5.8280  -59.6922 H   0  0  0  0  0  0  0  0  0  0  0  0
   11.1257    5.1800  -58.3789 H   0  0  0  0  0  0  0  0  0  0  0  0
    9.0906    3.6212  -60.0307 H   0  0  0  0  0  0  0  0  0  0  0  0
   10.8985    3.5077  -60.1006 H   0  0  0  0  0  0  0  0  0  0  0  0
    9.8319    1.6438  -58.8188 H   0  0  0  0  0  0  0  0  0  0  0  0
   10.9865    2.6492  -57.8484 H   0  0  0  0  0  0  0  0  0  0  0  0
   10.7146   -2.1585  -52.4932 H   0  0  0  0  0  0  0  0  0  0  0  0
   10.5339   -3.1045  -54.0095 H   0  0  0  0  0  0  0  0  0  0  0  0
   11.4851   -1.5808  -54.0095 H   0  0  0  0  0  0  0  0  0  0  0  0
    7.1851   -3.9984  -53.7689 H   0  0  0  0  0  0  0  0  0  0  0  0
    6.6446   -5.6885  -52.0174 H   0  0  0  0  0  0  0  0  0  0  0  0
    6.9893   -5.1441  -49.6081 H   0  0  0  0  0  0  0  0  0  0  0  0
    7.8647   -2.9038  -48.9480 H   0  0  0  0  0  0  0  0  0  0  0  0
    8.4053   -1.2101  -50.6960 H   0  0  0  0  0  0  0  0  0  0  0  0
  1  2  1  0
  2  3  1  0
  3  4  1  0
  4  5  2  0
  4  6  1  0
  6  7  1  0
  7  8  1  0
  8  9  1  0
  9 10  1  0
 10 11  1  0
 11 12  1  0
  3 13  2  0
 13 14  1  0
 14 15  1  0
 14 16  1  0
 16 17  1  0
 17 18  2  0
 18 19  1  0
 19 20  2  0
 20 21  1  0
 21 22  2  0
 16  2  2  0
 22 17  1  0
 12  7  1  0
  1 23  1  0
  1 24  1  0
  1 25  1  0
  6 26  1  0
  7 27  1  0
  8 28  1  0
  8 29  1  0
  9 30  1  0
  9 31  1  0
 10 32  1  0
 10 33  1  0
 11 34  1  0
 11 35  1  0
 12 36  1  0
 12 37  1  0
 15 38  1  0
 15 39  1  0
 15 40  1  0
 18 41  1  0
 19 42  1  0
 20 43  1  0
 21 44  1  0
 22 45  1  0
M  END
>  <meeko>  (59) 
{"is_sidechain": false}

$$$$

     RDKit          3D

 48 50  0  0  0  0  0  0  0  0999 V2000
   11.4620   -2.6520  -52.6230 C   0  0  0  0  0  0  0  0  0  0  0  0
   10.5280   -2.9330  -53.7880 C   0  0  0  0  0  0  0  0  0  0  0  0
    9.6040   -1.8390  -54.0280 N   0  0  0  0  0  0  0  0  0  0  0  0
    9.9210   -0.9270  -54.9610 N   0  0  0  0  0  0  0  0  0  0  0  0
    8.8910   -0.0650  -54.9670 C   0  0  0  0  0  0  0  0  0  0  0  0
    8.8850    1.1010  -55.8720 C   0  0  0  0  0  0  0  0  0  0  0  0
    7.8960    1.8050  -56.0620 O   0  0  0  0  0  0  0  0  0  0  0  0
   10.0940    1.3290  -56.5060 N   0  0  0  0  0  0  0  0  0  0  0  0
   10.2960    2.4570  -57.3990 C   0  0  0  0  0  0  0  0  0  0  0  0
    9.7940    2.1330  -58.8060 C   0  0  0  0  0  0  0  0  0  0  0  0
    9.9010    3.3370  -59.7430 C   0  0  0  0  0  0  0  0  0  0  0  0
   11.0450    4.2890  -59.3880 C   0  0  0  0  0  0  0  0  0  0  0  0
   12.2020    3.5580  -58.7240 C   0  0  0  0  0  0  0  0  0  0  0  0
   11.7770    2.8760  -57.4210 C   0  0  0  0  0  0  0  0  0  0  0  0
    7.8960   -0.4560  -54.0130 C   0  0  0  0  0  0  0  0  0  0  0  0
    6.5890    0.1960  -53.7390 C   0  0  0  0  0  0  0  0  0  0  0  0
    8.4020   -1.5990  -53.4100 C   0  0  0  0  0  0  0  0  0  0  0  0
    7.8350   -2.4360  -52.3610 C   0  0  0  0  0  0  0  0  0  0  0  0
    8.1280   -2.1780  -51.0180 C   0  0  0  0  0  0  0  0  0  0  0  0
    7.5830   -2.9800  -50.0140 C   0  0  0  0  0  0  0  0  0  0  0  0
    6.7450   -4.0430  -50.3480 C   0  0  0  0  0  0  0  0  0  0  0  0
    6.4530   -4.3080  -51.6860 C   0  0  0  0  0  0  0  0  0  0  0  0
    6.9990   -3.5080  -52.6920 C   0  0  0  0  0  0  0  0  0  0  0  0
   10.9259   -2.8133  -51.6761 H   0  0  0  0  0  0  0  0  0  0  0  0
   12.3269   -3.3297  -52.6747 H   0  0  0  0  0  0  0  0  0  0  0  0
   11.8094   -1.6096  -52.6747 H   0  0  0  0  0  0  0  0  0  0  0  0
   11.1306   -3.0927  -54.6943 H   0  0  0  0  0  0  0  0  0  0  0  0
    9.9359   -3.8256  -53.5377 H   0  0  0  0  0  0  0  0  0  0  0  0
   10.8460    0.6710  -56.3610 H   0  0  0  0  0  0  0  0  0  0  0  0
    9.7092    3.3065  -57.0194 H   0  0  0  0  0  0  0  0  0  0  0  0
   10.3954    1.3086  -59.2167 H   0  0  0  0  0  0  0  0  0  0  0  0
    8.7329    1.8526  -58.7323 H   0  0  0  0  0  0  0  0  0  0  0  0
   10.0606    2.9679  -60.7668 H   0  0  0  0  0  0  0  0  0  0  0  0
    8.9650    3.9065  -59.6451 H   0  0  0  0  0  0  0  0  0  0  0  0
   11.4082    4.7684  -60.3090 H   0  0  0  0  0  0  0  0  0  0  0  0
   10.6604    5.0366  -58.6787 H   0  0  0  0  0  0  0  0  0  0  0  0
   12.5837    2.7936  -59.4169 H   0  0  0  0  0  0  0  0  0  0  0  0
   12.9782    4.2990  -58.4823 H   0  0  0  0  0  0  0  0  0  0  0  0
   12.3949    1.9767  -57.2817 H   0  0  0  0  0  0  0  0  0  0  0  0
   11.9167    3.6091  -56.6129 H   0  0  0  0  0  0  0  0  0  0  0  0
    6.4376    0.2715  -52.6521 H   0  0  0  0  0  0  0  0  0  0  0  0
    6.5819    1.2032  -54.1810 H   0  0  0  0  0  0  0  0  0  0  0  0
    5.7800   -0.4041  -54.1810 H   0  0  0  0  0  0  0  0  0  0  0  0
    8.7899   -1.3406  -50.7522 H   0  0  0  0  0  0  0  0  0  0  0  0
    7.8148   -2.7733  -48.9588 H   0  0  0  0  0  0  0  0  0  0  0  0
    6.3139   -4.6730  -49.5560 H   0  0  0  0  0  0  0  0  0  0  0  0
    5.7924   -5.1474  -51.9488 H   0  0  0  0  0  0  0  0  0  0  0  0
    6.7713   -3.7211  -53.7469 H   0  0  0  0  0  0  0  0  0  0  0  0
  1  2  1  0
  2  3  1  0
  3  4  1  0
  4  5  2  0
  5  6  1  0
  6  7  2  0
  6  8  1  0
  8  9  1  0
  9 10  1  0
 10 11  1  0
 11 12  1  0
 12 13  1  0
 13 14  1  0
  5 15  1  0
 15 16  1  0
 15 17  2  0
 17 18  1  0
 18 19  2  0
 19 20  1  0
 20 21  2  0
 21 22  1  0
 22 23  2  0
 17  3  1  0
 23 18  1  0
 14  9  1  0
  1 24  1  0
  1 25  1  0
  1 26  1  0
  2 27  1  0
  2 28  1  0
  8 29  1  0
  9 30  1  0
 10 31  1  0
 10 32  1  0
 11 33  1  0
 11 34  1  0
 12 35  1  0
 12 36  1  0
 13 37  1  0
 13 38  1  0
 14 39  1  0
 14 40  1  0
 16 41  1  0
 16 42  1  0
 16 43  1  0
 19 44  1  0
 20 45  1  0
 21 46  1  0
 22 47  1  0
 23 48  1  0
M  END
>  <meeko>  (60) 
{"is_sidechain": false}

$$$$

     RDKit          3D

 44 46  0  0  0  0  0  0  0  0999 V2000
   11.1620    2.2500  -57.2470 C   0  0  0  0  0  0  0  0  0  0  0  0
    9.7490    2.7430  -56.9970 C   0  0  0  0  0  0  0  0  0  0  0  0
    9.2720    2.2560  -55.7340 O   0  0  0  0  0  0  0  0  0  0  0  0
    8.2490    1.3480  -55.7900 C   0  0  0  0  0  0  0  0  0  0  0  0
    7.2370    1.5170  -56.4650 O   0  0  0  0  0  0  0  0  0  0  0  0
    8.5000    0.1530  -54.9560 C   0  0  0  0  0  0  0  0  0  0  0  0
    9.6420   -0.5480  -55.0940 N   0  0  0  0  0  0  0  0  0  0  0  0
    9.5610   -1.5360  -54.1830 N   0  0  0  0  0  0  0  0  0  0  0  0
   10.6620   -2.4920  -54.0820 C   0  0  0  0  0  0  0  0  0  0  0  0
   10.9550   -3.1690  -55.3980 C   0  0  0  0  0  0  0  0  0  0  0  0
   10.5540   -4.4950  -55.6220 C   0  0  0  0  0  0  0  0  0  0  0  0
   10.8200   -5.1200  -56.8420 C   0  0  0  0  0  0  0  0  0  0  0  0
   11.4830   -4.4260  -57.8520 C   0  0  0  0  0  0  0  0  0  0  0  0
   11.8790   -3.1070  -57.6460 C   0  0  0  0  0  0  0  0  0  0  0  0
   11.6150   -2.4800  -56.4270 C   0  0  0  0  0  0  0  0  0  0  0  0
    8.3810   -1.5360  -53.4800 C   0  0  0  0  0  0  0  0  0  0  0  0
    8.0390   -2.5130  -52.4550 C   0  0  0  0  0  0  0  0  0  0  0  0
    8.2300   -2.2100  -51.1030 C   0  0  0  0  0  0  0  0  0  0  0  0
    7.9070   -3.1480  -50.1210 C   0  0  0  0  0  0  0  0  0  0  0  0
    7.3860   -4.3900  -50.4870 C   0  0  0  0  0  0  0  0  0  0  0  0
    7.1850   -4.6930  -51.8320 C   0  0  0  0  0  0  0  0  0  0  0  0
    7.5090   -3.7550  -52.8160 C   0  0  0  0  0  0  0  0  0  0  0  0
    7.6680   -0.4400  -53.9460 C   0  0  0  0  0  0  0  0  0  0  0  0
    6.3280    0.0140  -53.4880 C   0  0  0  0  0  0  0  0  0  0  0  0
   11.6648    2.0746  -56.2845 H   0  0  0  0  0  0  0  0  0  0  0  0
   11.1269    1.3110  -57.8189 H   0  0  0  0  0  0  0  0  0  0  0  0
   11.7187    3.0070  -57.8189 H   0  0  0  0  0  0  0  0  0  0  0  0
    9.7439    3.8430  -56.9880 H   0  0  0  0  0  0  0  0  0  0  0  0
    9.0917    2.3717  -57.7971 H   0  0  0  0  0  0  0  0  0  0  0  0
   11.5647   -1.9581  -53.7501 H   0  0  0  0  0  0  0  0  0  0  0  0
   10.3675   -3.2696  -53.3618 H   0  0  0  0  0  0  0  0  0  0  0  0
   10.0259   -5.0465  -54.8302 H   0  0  0  0  0  0  0  0  0  0  0  0
   10.5058   -6.1614  -57.0059 H   0  0  0  0  0  0  0  0  0  0  0  0
   11.6936   -4.9200  -58.8120 H   0  0  0  0  0  0  0  0  0  0  0  0
   12.4003   -2.5586  -58.4445 H   0  0  0  0  0  0  0  0  0  0  0  0
   11.9271   -1.4367  -56.2717 H   0  0  0  0  0  0  0  0  0  0  0  0
    8.6359   -1.2297  -50.8127 H   0  0  0  0  0  0  0  0  0  0  0  0
    8.0631   -2.9083  -49.0588 H   0  0  0  0  0  0  0  0  0  0  0  0
    7.1339   -5.1300  -49.7132 H   0  0  0  0  0  0  0  0  0  0  0  0
    6.7712   -5.6708  -52.1195 H   0  0  0  0  0  0  0  0  0  0  0  0
    7.3465   -3.9947  -53.8772 H   0  0  0  0  0  0  0  0  0  0  0  0
    6.3001    0.0234  -52.3884 H   0  0  0  0  0  0  0  0  0  0  0  0
    6.1346    1.0278  -53.8684 H   0  0  0  0  0  0  0  0  0  0  0  0
    5.5581   -0.6735  -53.8684 H   0  0  0  0  0  0  0  0  0  0  0  0
  1  2  1  0
  2  3  1  0
  3  4  1  0
  4  5  2  0
  4  6  1  0
  6  7  2  0
  7  8  1  0
  8  9  1  0
  9 10  1  0
 10 11  2  0
 11 12  1  0
 12 13  2  0
 13 14  1  0
 14 15  2  0
  8 16  1  0
 16 17  1  0
 17 18  2  0
 18 19  1  0
 19 20  2  0
 20 21  1  0
 21 22  2  0
 16 23  2  0
 23 24  1  0
 23  6  1  0
 15 10  1  0
 22 17  1  0
  1 25  1  0
  1 26  1  0
  1 27  1  0
  2 28  1  0
  2 29  1  0
  9 30  1  0
  9 31  1  0
 11 32  1  0
 12 33  1  0
 13 34  1  0
 14 35  1  0
 15 36  1  0
 18 37  1  0
 19 38  1  0
 20 39  1  0
 21 40  1  0
 22 41  1  0
 24 42  1  0
 24 43  1  0
 24 44  1  0
M  END
>  <meeko>  (61) 
{"is_sidechain": false}

$$$$

     RDKit          3D

 39 41  0  0  0  0  0  0  0  0999 V2000
    5.7350   -0.3670  -53.5330 C   0  0  0  0  0  0  0  0  0  0  0  0
    7.1310   -0.5650  -54.0000 C   0  0  0  0  0  0  0  0  0  0  0  0
    7.8290    0.1570  -55.0240 C   0  0  0  0  0  0  0  0  0  0  0  0
    7.3290    1.2310  -55.9010 C   0  0  0  0  0  0  0  0  0  0  0  0
    8.2880    2.0180  -56.4850 N   0  0  0  0  0  0  0  0  0  0  0  0
    6.1420    1.4810  -56.0960 O   0  0  0  0  0  0  0  0  0  0  0  0
    9.0980   -0.2720  -55.1270 N   0  0  0  0  0  0  0  0  0  0  0  0
    9.2050   -1.2660  -54.2260 N   0  0  0  0  0  0  0  0  0  0  0  0
   10.4900   -1.9450  -54.0750 C   0  0  0  0  0  0  0  0  0  0  0  0
   10.8390   -2.7800  -55.2840 C   0  0  0  0  0  0  0  0  0  0  0  0
   11.5700   -2.2280  -56.3460 C   0  0  0  0  0  0  0  0  0  0  0  0
   11.8970   -3.0020  -57.4610 C   0  0  0  0  0  0  0  0  0  0  0  0
   11.4990   -4.3360  -57.5240 C   0  0  0  0  0  0  0  0  0  0  0  0
   10.7770   -4.8980  -56.4730 C   0  0  0  0  0  0  0  0  0  0  0  0
   10.4500   -4.1260  -55.3570 C   0  0  0  0  0  0  0  0  0  0  0  0
    8.0520   -1.4790  -53.5080 C   0  0  0  0  0  0  0  0  0  0  0  0
    7.9120   -2.4800  -52.4590 C   0  0  0  0  0  0  0  0  0  0  0  0
    8.1520   -2.1400  -51.1230 C   0  0  0  0  0  0  0  0  0  0  0  0
    8.0190   -3.1020  -50.1200 C   0  0  0  0  0  0  0  0  0  0  0  0
    7.6430   -4.4040  -50.4480 C   0  0  0  0  0  0  0  0  0  0  0  0
    7.3950   -4.7460  -51.7770 C   0  0  0  0  0  0  0  0  0  0  0  0
    7.5260   -3.7860  -52.7800 C   0  0  0  0  0  0  0  0  0  0  0  0
    5.7132   -0.3639  -52.4332 H   0  0  0  0  0  0  0  0  0  0  0  0
    5.3551    0.5940  -53.9100 H   0  0  0  0  0  0  0  0  0  0  0  0
    5.1028   -1.1845  -53.9100 H   0  0  0  0  0  0  0  0  0  0  0  0
    7.9290    2.8580  -56.9190 H   0  0  0  0  0  0  0  0  0  0  0  0
    9.2060    2.0680  -56.0660 H   0  0  0  0  0  0  0  0  0  0  0  0
   11.2752   -1.1888  -53.9280 H   0  0  0  0  0  0  0  0  0  0  0  0
   10.4163   -2.6189  -53.2087 H   0  0  0  0  0  0  0  0  0  0  0  0
   11.8885   -1.1761  -56.3001 H   0  0  0  0  0  0  0  0  0  0  0  0
   12.4688   -2.5589  -58.2897 H   0  0  0  0  0  0  0  0  0  0  0  0
   11.7548   -4.9453  -58.4034 H   0  0  0  0  0  0  0  0  0  0  0  0
   10.4643   -5.9514  -56.5229 H   0  0  0  0  0  0  0  0  0  0  0  0
    9.8832   -4.5762  -54.5287 H   0  0  0  0  0  0  0  0  0  0  0  0
    8.4461   -1.1126  -50.8625 H   0  0  0  0  0  0  0  0  0  0  0  0
    8.2109   -2.8328  -49.0709 H   0  0  0  0  0  0  0  0  0  0  0  0
    7.5419   -5.1623  -49.6575 H   0  0  0  0  0  0  0  0  0  0  0  0
    7.0961   -5.7729  -52.0341 H   0  0  0  0  0  0  0  0  0  0  0  0
    7.3252   -4.0565  -53.8271 H   0  0  0  0  0  0  0  0  0  0  0  0
  1  2  1  0
  2  3  1  0
  3  4  1  0
  4  5  1  0
  4  6  2  0
  3  7  2  0
  7  8  1  0
  8  9  1  0
  9 10  1  0
 10 11  2  0
 11 12  1  0
 12 13  2  0
 13 14  1  0
 14 15  2  0
  8 16  1  0
 16 17  1  0
 17 18  2  0
 18 19  1  0
 19 20  2  0
 20 21  1  0
 21 22  2  0
 16  2  2  0
 22 17  1  0
 15 10  1  0
  1 23  1  0
  1 24  1  0
  1 25  1  0
  5 26  1  0
  5 27  1  0
  9 28  1  0
  9 29  1  0
 11 30  1  0
 12 31  1  0
 13 32  1  0
 14 33  1  0
 15 34  1  0
 18 35  1  0
 19 36  1  0
 20 37  1  0
 21 38  1  0
 22 39  1  0
M  END
>  <meeko>  (62) 
{"is_sidechain": false}

$$$$

     RDKit          3D

 51 53  0  0  0  0  0  0  0  0999 V2000
   12.6110    3.8430  -58.4870 C   0  0  0  0  0  0  0  0  0  0  0  0
   11.7060    3.1020  -57.5160 C   0  0  0  0  0  0  0  0  0  0  0  0
   10.6250    3.9870  -56.8970 C   0  0  0  0  0  0  0  0  0  0  0  0
    9.2540    3.3160  -56.8400 C   0  0  0  0  0  0  0  0  0  0  0  0
    9.2730    2.1530  -55.9870 N   0  0  0  0  0  0  0  0  0  0  0  0
    8.1770    1.3360  -55.7990 C   0  0  0  0  0  0  0  0  0  0  0  0
    7.0680    1.5720  -56.2670 O   0  0  0  0  0  0  0  0  0  0  0  0
    8.4830    0.1440  -54.9840 C   0  0  0  0  0  0  0  0  0  0  0  0
    9.6390   -0.5320  -55.1470 N   0  0  0  0  0  0  0  0  0  0  0  0
    9.5570   -1.5530  -54.2650 N   0  0  0  0  0  0  0  0  0  0  0  0
   10.6740   -2.4880  -54.1600 C   0  0  0  0  0  0  0  0  0  0  0  0
   10.9750   -3.1770  -55.4690 C   0  0  0  0  0  0  0  0  0  0  0  0
   11.6860   -2.5080  -56.4770 C   0  0  0  0  0  0  0  0  0  0  0  0
   11.9590   -3.1400  -57.6900 C   0  0  0  0  0  0  0  0  0  0  0  0
   11.5210   -4.4440  -57.9130 C   0  0  0  0  0  0  0  0  0  0  0  0
   10.8090   -5.1170  -56.9240 C   0  0  0  0  0  0  0  0  0  0  0  0
   10.5340   -4.4870  -55.7100 C   0  0  0  0  0  0  0  0  0  0  0  0
    8.4040   -1.5380  -53.5140 C   0  0  0  0  0  0  0  0  0  0  0  0
    8.0860   -2.5160  -52.4820 C   0  0  0  0  0  0  0  0  0  0  0  0
    8.4180   -2.2640  -51.1470 C   0  0  0  0  0  0  0  0  0  0  0  0
    8.1060   -3.1980  -50.1580 C   0  0  0  0  0  0  0  0  0  0  0  0
    7.4700   -4.3910  -50.5000 C   0  0  0  0  0  0  0  0  0  0  0  0
    7.1470   -4.6520  -51.8310 C   0  0  0  0  0  0  0  0  0  0  0  0
    7.4560   -3.7190  -52.8220 C   0  0  0  0  0  0  0  0  0  0  0  0
    7.6750   -0.4510  -53.9690 C   0  0  0  0  0  0  0  0  0  0  0  0
    6.3390    0.0130  -53.5100 C   0  0  0  0  0  0  0  0  0  0  0  0
   13.3418    4.4414  -57.9232 H   0  0  0  0  0  0  0  0  0  0  0  0
   13.1420    3.1170  -59.1202 H   0  0  0  0  0  0  0  0  0  0  0  0
   12.0040    4.5068  -59.1202 H   0  0  0  0  0  0  0  0  0  0  0  0
   11.2155    2.2786  -58.0558 H   0  0  0  0  0  0  0  0  0  0  0  0
   12.3400    2.7406  -56.6929 H   0  0  0  0  0  0  0  0  0  0  0  0
   10.9300    4.2456  -55.8722 H   0  0  0  0  0  0  0  0  0  0  0  0
   10.5261    4.8762  -57.5370 H   0  0  0  0  0  0  0  0  0  0  0  0
    8.5194    4.0351  -56.4485 H   0  0  0  0  0  0  0  0  0  0  0  0
    8.9825    2.9956  -57.8567 H   0  0  0  0  0  0  0  0  0  0  0  0
   10.1430    1.7970  -55.6010 H   0  0  0  0  0  0  0  0  0  0  0  0
   11.5686   -1.9344  -53.8387 H   0  0  0  0  0  0  0  0  0  0  0  0
   10.3946   -3.2626  -53.4307 H   0  0  0  0  0  0  0  0  0  0  0  0
   12.0308   -1.4770  -56.3092 H   0  0  0  0  0  0  0  0  0  0  0  0
   12.5210   -2.6082  -58.4719 H   0  0  0  0  0  0  0  0  0  0  0  0
   11.7377   -4.9413  -58.8700 H   0  0  0  0  0  0  0  0  0  0  0  0
   10.4630   -6.1462  -57.0999 H   0  0  0  0  0  0  0  0  0  0  0  0
    9.9662   -5.0222  -54.9346 H   0  0  0  0  0  0  0  0  0  0  0  0
    8.9264   -1.3270  -50.8757 H   0  0  0  0  0  0  0  0  0  0  0  0
    8.3619   -2.9930  -49.1080 H   0  0  0  0  0  0  0  0  0  0  0  0
    7.2232   -5.1261  -49.7198 H   0  0  0  0  0  0  0  0  0  0  0  0
    6.6480   -5.5945  -52.1004 H   0  0  0  0  0  0  0  0  0  0  0  0
    7.2041   -3.9293  -53.8719 H   0  0  0  0  0  0  0  0  0  0  0  0
    6.3120    0.0224  -52.4104 H   0  0  0  0  0  0  0  0  0  0  0  0
    6.1530    1.0284  -53.8900 H   0  0  0  0  0  0  0  0  0  0  0  0
    5.5637   -0.6685  -53.8900 H   0  0  0  0  0  0  0  0  0  0  0  0
  1  2  1  0
  2  3  1  0
  3  4  1  0
  4  5  1  0
  5  6  1  0
  6  7  2  0
  6  8  1  0
  8  9  2  0
  9 10  1  0
 10 11  1  0
 11 12  1  0
 12 13  2  0
 13 14  1  0
 14 15  2  0
 15 16  1  0
 16 17  2  0
 10 18  1  0
 18 19  1  0
 19 20  2  0
 20 21  1  0
 21 22  2  0
 22 23  1  0
 23 24  2  0
 18 25  2  0
 25 26  1  0
 25  8  1  0
 17 12  1  0
 24 19  1  0
  1 27  1  0
  1 28  1  0
  1 29  1  0
  2 30  1  0
  2 31  1  0
  3 32  1  0
  3 33  1  0
  4 34  1  0
  4 35  1  0
  5 36  1  0
 11 37  1  0
 11 38  1  0
 13 39  1  0
 14 40  1  0
 15 41  1  0
 16 42  1  0
 17 43  1  0
 20 44  1  0
 21 45  1  0
 22 46  1  0
 23 47  1  0
 24 48  1  0
 26 49  1  0
 26 50  1  0
 26 51  1  0
M  END
>  <meeko>  (63) 
{"is_sidechain": false}

$$$$

     RDKit          3D

 54 56  0  0  0  0  0  0  0  0999 V2000
    6.0530   -0.0950  -53.5550 C   0  0  0  0  0  0  0  0  0  0  0  0
    7.4180   -0.4880  -53.9930 C   0  0  0  0  0  0  0  0  0  0  0  0
    8.2000    0.1400  -55.0090 C   0  0  0  0  0  0  0  0  0  0  0  0
    7.8380    1.3020  -55.8440 C   0  0  0  0  0  0  0  0  0  0  0  0
    6.6800    1.6240  -56.0920 O   0  0  0  0  0  0  0  0  0  0  0  0
    8.9400    1.9930  -56.3010 N   0  0  0  0  0  0  0  0  0  0  0  0
    8.8510    3.2820  -56.9610 C   0  0  0  0  0  0  0  0  0  0  0  0
   10.0800    4.1500  -56.6520 C   0  0  0  0  0  0  0  0  0  0  0  0
   11.3420    3.6450  -57.3520 C   0  0  0  0  0  0  0  0  0  0  0  0
   11.1310    3.5040  -58.8560 C   0  0  0  0  0  0  0  0  0  0  0  0
    9.9290    2.6220  -59.1780 C   0  0  0  0  0  0  0  0  0  0  0  0
    8.6640    3.1080  -58.4730 C   0  0  0  0  0  0  0  0  0  0  0  0
    9.3990   -0.4620  -55.1420 N   0  0  0  0  0  0  0  0  0  0  0  0
    9.3670   -1.4710  -54.2490 N   0  0  0  0  0  0  0  0  0  0  0  0
   10.5230   -2.3500  -54.1500 C   0  0  0  0  0  0  0  0  0  0  0  0
   10.7600   -3.2070  -55.4030 C   0  0  0  0  0  0  0  0  0  0  0  0
   11.5480   -4.4630  -55.0270 C   0  0  0  0  0  0  0  0  0  0  0  0
   11.5050   -2.4360  -56.4950 C   0  0  0  0  0  0  0  0  0  0  0  0
    8.2080   -1.5220  -53.5130 C   0  0  0  0  0  0  0  0  0  0  0  0
    7.9340   -2.5060  -52.4740 C   0  0  0  0  0  0  0  0  0  0  0  0
    7.3870   -3.7500  -52.8090 C   0  0  0  0  0  0  0  0  0  0  0  0
    7.1260   -4.6940  -51.8150 C   0  0  0  0  0  0  0  0  0  0  0  0
    7.4050   -4.3970  -50.4810 C   0  0  0  0  0  0  0  0  0  0  0  0
    7.9400   -3.1570  -50.1390 C   0  0  0  0  0  0  0  0  0  0  0  0
    8.2020   -2.2110  -51.1320 C   0  0  0  0  0  0  0  0  0  0  0  0
    6.0100   -0.0826  -52.4559 H   0  0  0  0  0  0  0  0  0  0  0  0
    5.8179    0.9073  -53.9425 H   0  0  0  0  0  0  0  0  0  0  0  0
    5.3210   -0.8189  -53.9425 H   0  0  0  0  0  0  0  0  0  0  0  0
    9.8190    1.6710  -55.9010 H   0  0  0  0  0  0  0  0  0  0  0  0
    7.9669    3.8042  -56.5665 H   0  0  0  0  0  0  0  0  0  0  0  0
    9.8787    5.1787  -56.9857 H   0  0  0  0  0  0  0  0  0  0  0  0
   10.2577    4.1052  -55.5674 H   0  0  0  0  0  0  0  0  0  0  0  0
   12.1600    4.3579  -57.1715 H   0  0  0  0  0  0  0  0  0  0  0  0
   11.5883    2.6534  -56.9445 H   0  0  0  0  0  0  0  0  0  0  0  0
   10.9663    4.5022  -59.2878 H   0  0  0  0  0  0  0  0  0  0  0  0
   12.0271    3.0314  -59.2846 H   0  0  0  0  0  0  0  0  0  0  0  0
    9.7585    2.6352  -60.2646 H   0  0  0  0  0  0  0  0  0  0  0  0
   10.1477    1.6035  -58.8246 H   0  0  0  0  0  0  0  0  0  0  0  0
    8.3726    4.0771  -58.9041 H   0  0  0  0  0  0  0  0  0  0  0  0
    7.8885    2.3424  -58.6231 H   0  0  0  0  0  0  0  0  0  0  0  0
   11.4159   -1.7306  -53.9796 H   0  0  0  0  0  0  0  0  0  0  0  0
   10.3271   -3.0443  -53.3196 H   0  0  0  0  0  0  0  0  0  0  0  0
    9.7756   -3.4863  -55.8068 H   0  0  0  0  0  0  0  0  0  0  0  0
   11.6014   -4.5481  -53.9316 H   0  0  0  0  0  0  0  0  0  0  0  0
   11.0438   -5.3494  -55.4395 H   0  0  0  0  0  0  0  0  0  0  0  0
   12.5654   -4.3947  -55.4395 H   0  0  0  0  0  0  0  0  0  0  0  0
   12.1977   -1.7191  -56.0301 H   0  0  0  0  0  0  0  0  0  0  0  0
   12.0723   -3.1415  -57.1199 H   0  0  0  0  0  0  0  0  0  0  0  0
   10.7805   -1.8933  -57.1199 H   0  0  0  0  0  0  0  0  0  0  0  0
    7.1620   -3.9845  -53.8599 H   0  0  0  0  0  0  0  0  0  0  0  0
    6.7003   -5.6721  -52.0834 H   0  0  0  0  0  0  0  0  0  0  0  0
    7.2024   -5.1427  -49.6982 H   0  0  0  0  0  0  0  0  0  0  0  0
    8.1561   -2.9230  -49.0861 H   0  0  0  0  0  0  0  0  0  0  0  0
    8.6203   -1.2309  -50.8590 H   0  0  0  0  0  0  0  0  0  0  0  0
  1  2  1  0
  2  3  1  0
  3  4  1  0
  4  5  2  0
  4  6  1  0
  6  7  1  0
  7  8  1  0
  8  9  1  0
  9 10  1  0
 10 11  1  0
 11 12  1  0
  3 13  2  0
 13 14  1  0
 14 15  1  0
 15 16  1  0
 16 17  1  0
 16 18  1  0
 14 19  1  0
 19 20  1  0
 20 21  2  0
 21 22  1  0
 22 23  2  0
 23 24  1  0
 24 25  2  0
 19  2  2  0
 25 20  1  0
 12  7  1  0
  1 26  1  0
  1 27  1  0
  1 28  1  0
  6 29  1  0
  7 30  1  0
  8 31  1  0
  8 32  1  0
  9 33  1  0
  9 34  1  0
 10 35  1  0
 10 36  1  0
 11 37  1  0
 11 38  1  0
 12 39  1  0
 12 40  1  0
 15 41  1  0
 15 42  1  0
 16 43  1  0
 17 44  1  0
 17 45  1  0
 17 46  1  0
 18 47  1  0
 18 48  1  0
 18 49  1  0
 21 50  1  0
 22 51  1  0
 23 52  1  0
 24 53  1  0
 25 54  1  0
M  END
>  <meeko>  (64) 
{"is_sidechain": false}

$$$$

     RDKit          3D

 37 39  0  0  0  0  0  0  0  0999 V2000
    6.7600    0.0150  -53.4320 C   0  0  0  0  0  0  0  0  0  0  0  0
    8.0310   -0.5590  -53.9410 C   0  0  0  0  0  0  0  0  0  0  0  0
    8.8670   -0.0300  -54.9760 C   0  0  0  0  0  0  0  0  0  0  0  0
    8.5390    1.3520  -55.7870 C   0  0  0  0  0  0  0  0  0  0  0  0
    7.4250    1.4270  -56.3990 O   0  0  0  0  0  0  0  0  0  0  0  0
    9.4270    2.2660  -55.7510 O   0  0  0  0  0  0  0  0  0  0  0  0
    9.9460   -0.8110  -55.1790 N   0  0  0  0  0  0  0  0  0  0  0  0
    9.7920   -1.8250  -54.3100 N   0  0  0  0  0  0  0  0  0  0  0  0
   10.8340   -2.8430  -54.2420 C   0  0  0  0  0  0  0  0  0  0  0  0
   11.1120   -3.4920  -55.5790 C   0  0  0  0  0  0  0  0  0  0  0  0
   10.8580   -4.8580  -55.7740 C   0  0  0  0  0  0  0  0  0  0  0  0
   11.1260   -5.4610  -57.0040 C   0  0  0  0  0  0  0  0  0  0  0  0
   11.6570   -4.7080  -58.0490 C   0  0  0  0  0  0  0  0  0  0  0  0
   11.9230   -3.3530  -57.8660 C   0  0  0  0  0  0  0  0  0  0  0  0
   11.6560   -2.7480  -56.6370 C   0  0  0  0  0  0  0  0  0  0  0  0
    8.6680   -1.7210  -53.5250 C   0  0  0  0  0  0  0  0  0  0  0  0
    8.2980   -2.6770  -52.4910 C   0  0  0  0  0  0  0  0  0  0  0  0
    8.8910   -2.6140  -51.2250 C   0  0  0  0  0  0  0  0  0  0  0  0
    8.5280   -3.5260  -50.2320 C   0  0  0  0  0  0  0  0  0  0  0  0
    7.5760   -4.5090  -50.5010 C   0  0  0  0  0  0  0  0  0  0  0  0
    6.9880   -4.5830  -51.7650 C   0  0  0  0  0  0  0  0  0  0  0  0
    7.3510   -3.6710  -52.7580 C   0  0  0  0  0  0  0  0  0  0  0  0
    6.7701    0.0104  -52.3321 H   0  0  0  0  0  0  0  0  0  0  0  0
    6.6537    1.0485  -53.7934 H   0  0  0  0  0  0  0  0  0  0  0  0
    5.9144   -0.5886  -53.7934 H   0  0  0  0  0  0  0  0  0  0  0  0
   11.7606   -2.3730  -53.8808 H   0  0  0  0  0  0  0  0  0  0  0  0
   10.4812   -3.6308  -53.5601 H   0  0  0  0  0  0  0  0  0  0  0  0
   10.4442   -5.4588  -54.9507 H   0  0  0  0  0  0  0  0  0  0  0  0
   10.9178   -6.5314  -57.1483 H   0  0  0  0  0  0  0  0  0  0  0  0
   11.8662   -5.1835  -59.0186 H   0  0  0  0  0  0  0  0  0  0  0  0
   12.3439   -2.7593  -58.6909 H   0  0  0  0  0  0  0  0  0  0  0  0
   11.8738   -1.6790  -56.4966 H   0  0  0  0  0  0  0  0  0  0  0  0
    9.6460   -1.8431  -51.0114 H   0  0  0  0  0  0  0  0  0  0  0  0
    8.9932   -3.4691  -49.2368 H   0  0  0  0  0  0  0  0  0  0  0  0
    7.2886   -5.2257  -49.7176 H   0  0  0  0  0  0  0  0  0  0  0  0
    6.2389   -5.3596  -51.9786 H   0  0  0  0  0  0  0  0  0  0  0  0
    6.8901   -3.7346  -53.7548 H   0  0  0  0  0  0  0  0  0  0  0  0
  1  2  1  0
  2  3  1  0
  3  4  1  0
  4  5  2  0
  4  6  1  0
  3  7  2  0
  7  8  1  0
  8  9  1  0
  9 10  1  0
 10 11  2  0
 11 12  1  0
 12 13  2  0
 13 14  1  0
 14 15  2  0
  8 16  1  0
 16 17  1  0
 17 18  2  0
 18 19  1  0
 19 20  2  0
 20 21  1  0
 21 22  2  0
 16  2  2  0
 22 17  1  0
 15 10  1  0
  1 23  1  0
  1 24  1  0
  1 25  1  0
  9 26  1  0
  9 27  1  0
 11 28  1  0
 12 29  1  0
 13 30  1  0
 14 31  1  0
 15 32  1  0
 18 33  1  0
 19 34  1  0
 20 35  1  0
 21 36  1  0
 22 37  1  0
M  CHG  1   6  -1
M  END
>  <meeko>  (65) 
{"is_sidechain": false}

$$$$

     RDKit          3D

 46 49  0  0  0  0  0  0  0  0999 V2000
    6.0630    0.0380  -53.8980 C   0  0  0  0  0  0  0  0  0  0  0  0
    7.4690   -0.2790  -54.2590 C   0  0  0  0  0  0  0  0  0  0  0  0
    8.2690    0.3840  -55.2380 C   0  0  0  0  0  0  0  0  0  0  0  0
    7.8880    1.5180  -56.1010 C   0  0  0  0  0  0  0  0  0  0  0  0
    6.7700    1.6490  -56.5930 O   0  0  0  0  0  0  0  0  0  0  0  0
    8.9260    2.4090  -56.2970 N   0  0  0  0  0  0  0  0  0  0  0  0
    8.8210    3.5900  -57.0800 C   0  0  0  0  0  0  0  0  0  0  0  0
   10.0310    4.4390  -57.3550 C   0  0  0  0  0  0  0  0  0  0  0  0
    8.9550    4.9430  -56.4390 C   0  0  0  0  0  0  0  0  0  0  0  0
    9.5000   -0.1630  -55.3160 N   0  0  0  0  0  0  0  0  0  0  0  0
    9.4910   -1.1410  -54.3800 N   0  0  0  0  0  0  0  0  0  0  0  0
   10.6870   -1.9620  -54.2060 C   0  0  0  0  0  0  0  0  0  0  0  0
   10.9580   -2.8460  -55.3980 C   0  0  0  0  0  0  0  0  0  0  0  0
   10.5080   -4.1750  -55.4150 C   0  0  0  0  0  0  0  0  0  0  0  0
   10.7520   -4.9920  -56.5190 C   0  0  0  0  0  0  0  0  0  0  0  0
   11.4440   -4.4920  -57.6200 C   0  0  0  0  0  0  0  0  0  0  0  0
   11.8910   -3.1720  -57.6200 C   0  0  0  0  0  0  0  0  0  0  0  0
   11.6470   -2.3530  -56.5160 C   0  0  0  0  0  0  0  0  0  0  0  0
    8.2840   -1.2680  -53.7330 C   0  0  0  0  0  0  0  0  0  0  0  0
    8.0090   -2.2590  -52.7010 C   0  0  0  0  0  0  0  0  0  0  0  0
    7.6300   -3.5580  -53.0550 C   0  0  0  0  0  0  0  0  0  0  0  0
    7.3600   -4.5050  -52.0670 C   0  0  0  0  0  0  0  0  0  0  0  0
    7.4730   -4.1600  -50.7200 C   0  0  0  0  0  0  0  0  0  0  0  0
    7.8610   -2.8690  -50.3620 C   0  0  0  0  0  0  0  0  0  0  0  0
    8.1300   -1.9210  -51.3490 C   0  0  0  0  0  0  0  0  0  0  0  0
    5.9618    0.0608  -52.8029 H   0  0  0  0  0  0  0  0  0  0  0  0
    5.7907    1.0201  -54.3119 H   0  0  0  0  0  0  0  0  0  0  0  0
    5.3956   -0.7322  -54.3119 H   0  0  0  0  0  0  0  0  0  0  0  0
    9.7960    2.1610  -55.8340 H   0  0  0  0  0  0  0  0  0  0  0  0
    8.0624    3.0934  -57.7028 H   0  0  0  0  0  0  0  0  0  0  0  0
   11.0103    4.1496  -56.9460 H   0  0  0  0  0  0  0  0  0  0  0  0
   10.5225    4.8217  -58.2616 H   0  0  0  0  0  0  0  0  0  0  0  0
    9.1457    5.0231  -55.3586 H   0  0  0  0  0  0  0  0  0  0  0  0
    8.3314    5.8482  -56.3963 H   0  0  0  0  0  0  0  0  0  0  0  0
   11.5514   -1.2988  -54.0546 H   0  0  0  0  0  0  0  0  0  0  0  0
   10.5214   -2.6146  -53.3361 H   0  0  0  0  0  0  0  0  0  0  0  0
    9.9583   -4.5759  -54.5506 H   0  0  0  0  0  0  0  0  0  0  0  0
   10.3973   -6.0332  -56.5203 H   0  0  0  0  0  0  0  0  0  0  0  0
   11.6374   -5.1386  -58.4886 H   0  0  0  0  0  0  0  0  0  0  0  0
   12.4358   -2.7756  -58.4895 H   0  0  0  0  0  0  0  0  0  0  0  0
   11.9986   -1.3107  -56.5229 H   0  0  0  0  0  0  0  0  0  0  0  0
    7.5445   -3.8338  -54.1164 H   0  0  0  0  0  0  0  0  0  0  0  0
    7.0579   -5.5241  -52.3501 H   0  0  0  0  0  0  0  0  0  0  0  0
    7.2563   -4.9056  -49.9408 H   0  0  0  0  0  0  0  0  0  0  0  0
    7.9549   -2.5982  -49.3000 H   0  0  0  0  0  0  0  0  0  0  0  0
    8.4382   -0.9044  -51.0634 H   0  0  0  0  0  0  0  0  0  0  0  0
  1  2  1  0
  2  3  1  0
  3  4  1  0
  4  5  2  0
  4  6  1  0
  6  7  1  0
  7  8  1  0
  8  9  1  0
  3 10  2  0
 10 11  1  0
 11 12  1  0
 12 13  1  0
 13 14  2  0
 14 15  1  0
 15 16  2  0
 16 17  1  0
 17 18  2  0
 11 19  1  0
 19 20  1  0
 20 21  2  0
 21 22  1  0
 22 23  2  0
 23 24  1  0
 24 25  2  0
 19  2  2  0
 25 20  1  0
  9  7  1  0
 18 13  1  0
  1 26  1  0
  1 27  1  0
  1 28  1  0
  6 29  1  0
  7 30  1  0
  8 31  1  0
  8 32  1  0
  9 33  1  0
  9 34  1  0
 12 35  1  0
 12 36  1  0
 14 37  1  0
 15 38  1  0
 16 39  1  0
 17 40  1  0
 18 41  1  0
 21 42  1  0
 22 43  1  0
 23 44  1  0
 24 45  1  0
 25 46  1  0
M  END
>  <meeko>  (66) 
{"is_sidechain": false}

$$$$

     RDKit          3D

 49 51  0  0  0  0  0  0  0  0999 V2000
   10.3120   -4.0470  -55.0880 C   0  0  0  0  0  0  0  0  0  0  0  0
   11.0500   -2.9880  -54.7280 C   0  0  0  0  0  0  0  0  0  0  0  0
   10.6550   -1.9930  -53.6710 C   0  0  0  0  0  0  0  0  0  0  0  0
    9.3990   -1.3160  -53.9840 N   0  0  0  0  0  0  0  0  0  0  0  0
    9.3900   -0.3730  -54.9520 N   0  0  0  0  0  0  0  0  0  0  0  0
    8.1140    0.0610  -54.9850 C   0  0  0  0  0  0  0  0  0  0  0  0
    7.6980    1.1230  -55.9210 C   0  0  0  0  0  0  0  0  0  0  0  0
    6.5430    1.2650  -56.3150 O   0  0  0  0  0  0  0  0  0  0  0  0
    8.7460    1.9270  -56.3170 N   0  0  0  0  0  0  0  0  0  0  0  0
    8.6340    2.9070  -57.3790 C   0  0  0  0  0  0  0  0  0  0  0  0
    8.8220    4.3270  -56.8230 C   0  0  0  0  0  0  0  0  0  0  0  0
    9.3230    5.3330  -57.8630 C   0  0  0  0  0  0  0  0  0  0  0  0
    8.9060    4.9510  -59.2760 C   0  0  0  0  0  0  0  0  0  0  0  0
    9.4600    3.5830  -59.6800 C   0  0  0  0  0  0  0  0  0  0  0  0
    9.6300    2.6180  -58.5050 C   0  0  0  0  0  0  0  0  0  0  0  0
    7.3040   -0.6420  -54.0440 C   0  0  0  0  0  0  0  0  0  0  0  0
    5.8510   -0.4490  -53.8040 C   0  0  0  0  0  0  0  0  0  0  0  0
    8.1640   -1.5310  -53.4170 C   0  0  0  0  0  0  0  0  0  0  0  0
    7.9030   -2.5010  -52.3600 C   0  0  0  0  0  0  0  0  0  0  0  0
    7.4440   -3.7830  -52.6810 C   0  0  0  0  0  0  0  0  0  0  0  0
    7.1920   -4.7120  -51.6700 C   0  0  0  0  0  0  0  0  0  0  0  0
    7.4010   -4.3650  -50.3360 C   0  0  0  0  0  0  0  0  0  0  0  0
    7.8680   -3.0920  -50.0100 C   0  0  0  0  0  0  0  0  0  0  0  0
    8.1220   -2.1620  -51.0200 C   0  0  0  0  0  0  0  0  0  0  0  0
   10.6737   -4.7285  -55.8721 H   0  0  0  0  0  0  0  0  0  0  0  0
    9.3445   -4.2348  -54.5994 H   0  0  0  0  0  0  0  0  0  0  0  0
   12.0111   -2.8357  -55.2408 H   0  0  0  0  0  0  0  0  0  0  0  0
   10.5420   -2.5217  -52.7130 H   0  0  0  0  0  0  0  0  0  0  0  0
   11.4440   -1.2282  -53.6192 H   0  0  0  0  0  0  0  0  0  0  0  0
    9.6570    1.6010  -56.0030 H   0  0  0  0  0  0  0  0  0  0  0  0
    7.6227    2.8365  -57.8060 H   0  0  0  0  0  0  0  0  0  0  0  0
    7.8544    4.6797  -56.4364 H   0  0  0  0  0  0  0  0  0  0  0  0
    9.5901    4.2662  -56.0380 H   0  0  0  0  0  0  0  0  0  0  0  0
    8.9083    6.3240  -57.6264 H   0  0  0  0  0  0  0  0  0  0  0  0
   10.4223    5.3410  -57.8246 H   0  0  0  0  0  0  0  0  0  0  0  0
    7.8076    4.9200  -59.3273 H   0  0  0  0  0  0  0  0  0  0  0  0
    9.3122    5.7032  -59.9683 H   0  0  0  0  0  0  0  0  0  0  0  0
    8.7691    3.1288  -60.4055 H   0  0  0  0  0  0  0  0  0  0  0  0
   10.4606    3.7534  -60.1040 H   0  0  0  0  0  0  0  0  0  0  0  0
    9.4726    1.5901  -58.8636 H   0  0  0  0  0  0  0  0  0  0  0  0
   10.6456    2.7470  -58.1026 H   0  0  0  0  0  0  0  0  0  0  0  0
    5.6584   -0.4234  -52.7213 H   0  0  0  0  0  0  0  0  0  0  0  0
    5.5275    0.5000  -54.2565 H   0  0  0  0  0  0  0  0  0  0  0  0
    5.2910   -1.2806  -54.2565 H   0  0  0  0  0  0  0  0  0  0  0  0
    7.2812   -4.0597  -53.7331 H   0  0  0  0  0  0  0  0  0  0  0  0
    6.8284   -5.7181  -51.9260 H   0  0  0  0  0  0  0  0  0  0  0  0
    7.1973   -5.0961  -49.5397 H   0  0  0  0  0  0  0  0  0  0  0  0
    8.0362   -2.8206  -48.9574 H   0  0  0  0  0  0  0  0  0  0  0  0
    8.4953   -1.1600  -50.7617 H   0  0  0  0  0  0  0  0  0  0  0  0
  1  2  2  0
  2  3  1  0
  3  4  1  0
  4  5  1  0
  5  6  2  0
  6  7  1  0
  7  8  2  0
  7  9  1  0
  9 10  1  0
 10 11  1  0
 11 12  1  0
 12 13  1  0
 13 14  1  0
 14 15  1  0
  6 16  1  0
 16 17  1  0
 16 18  2  0
 18 19  1  0
 19 20  2  0
 20 21  1  0
 21 22  2  0
 22 23  1  0
 23 24  2  0
 18  4  1  0
 24 19  1  0
 15 10  1  0
  1 25  1  0
  1 26  1  0
  2 27  1  0
  3 28  1  0
  3 29  1  0
  9 30  1  0
 10 31  1  0
 11 32  1  0
 11 33  1  0
 12 34  1  0
 12 35  1  0
 13 36  1  0
 13 37  1  0
 14 38  1  0
 14 39  1  0
 15 40  1  0
 15 41  1  0
 17 42  1  0
 17 43  1  0
 17 44  1  0
 20 45  1  0
 21 46  1  0
 22 47  1  0
 23 48  1  0
 24 49  1  0
M  END
>  <meeko>  (67) 
{"is_sidechain": false}

$$$$

     RDKit          3D

 51 53  0  0  0  0  0  0  0  0999 V2000
   11.9050   -4.8190  -55.4160 C   0  0  0  0  0  0  0  0  0  0  0  0
   10.6370   -4.0360  -55.1050 C   0  0  0  0  0  0  0  0  0  0  0  0
   10.8770   -2.8370  -54.1890 C   0  0  0  0  0  0  0  0  0  0  0  0
    9.8480   -1.8150  -54.2750 N   0  0  0  0  0  0  0  0  0  0  0  0
    9.9900   -0.8390  -55.1870 N   0  0  0  0  0  0  0  0  0  0  0  0
    8.9160   -0.0490  -55.0180 C   0  0  0  0  0  0  0  0  0  0  0  0
    8.7200    1.1510  -55.8540 C   0  0  0  0  0  0  0  0  0  0  0  0
    7.6200    1.6540  -56.0680 O   0  0  0  0  0  0  0  0  0  0  0  0
    9.8910    1.6740  -56.3740 N   0  0  0  0  0  0  0  0  0  0  0  0
    9.8980    2.8110  -57.2810 C   0  0  0  0  0  0  0  0  0  0  0  0
   11.0110    3.8020  -56.9000 C   0  0  0  0  0  0  0  0  0  0  0  0
   12.3090    3.5080  -57.6450 C   0  0  0  0  0  0  0  0  0  0  0  0
   12.1320    3.6230  -59.1600 C   0  0  0  0  0  0  0  0  0  0  0  0
   10.7060    3.3370  -59.6320 C   0  0  0  0  0  0  0  0  0  0  0  0
   10.0120    2.3190  -58.7360 C   0  0  0  0  0  0  0  0  0  0  0  0
    8.0730   -0.5540  -53.9740 C   0  0  0  0  0  0  0  0  0  0  0  0
    6.8150    0.0420  -53.4520 C   0  0  0  0  0  0  0  0  0  0  0  0
    8.6940   -1.7160  -53.5370 C   0  0  0  0  0  0  0  0  0  0  0  0
    8.2950   -2.6580  -52.5000 C   0  0  0  0  0  0  0  0  0  0  0  0
    8.8830   -2.6020  -51.2320 C   0  0  0  0  0  0  0  0  0  0  0  0
    8.4990   -3.5040  -50.2380 C   0  0  0  0  0  0  0  0  0  0  0  0
    7.5230   -4.4630  -50.5070 C   0  0  0  0  0  0  0  0  0  0  0  0
    6.9270   -4.5190  -51.7660 C   0  0  0  0  0  0  0  0  0  0  0  0
    7.3100   -3.6180  -52.7610 C   0  0  0  0  0  0  0  0  0  0  0  0
   12.3907   -5.1189  -54.4757 H   0  0  0  0  0  0  0  0  0  0  0  0
   11.6484   -5.7161  -55.9985 H   0  0  0  0  0  0  0  0  0  0  0  0
   12.5922   -4.1877  -55.9985 H   0  0  0  0  0  0  0  0  0  0  0  0
   10.2100   -3.6725  -56.0514 H   0  0  0  0  0  0  0  0  0  0  0  0
    9.9540   -4.7179  -54.5772 H   0  0  0  0  0  0  0  0  0  0  0  0
   10.9209   -3.1977  -53.1507 H   0  0  0  0  0  0  0  0  0  0  0  0
   11.8185   -2.3702  -54.5142 H   0  0  0  0  0  0  0  0  0  0  0  0
   10.7670    1.2370  -56.1210 H   0  0  0  0  0  0  0  0  0  0  0  0
    8.9480    3.3585  -57.1930 H   0  0  0  0  0  0  0  0  0  0  0  0
   10.6807    4.8214  -57.1484 H   0  0  0  0  0  0  0  0  0  0  0  0
   11.2047    3.7014  -55.8219 H   0  0  0  0  0  0  0  0  0  0  0  0
   13.0765    4.2261  -57.3205 H   0  0  0  0  0  0  0  0  0  0  0  0
   12.6106    2.4759  -57.4130 H   0  0  0  0  0  0  0  0  0  0  0  0
   12.4012    4.6450  -59.4652 H   0  0  0  0  0  0  0  0  0  0  0  0
   12.7827    2.8646  -59.6198 H   0  0  0  0  0  0  0  0  0  0  0  0
   10.1309    4.2746  -59.6190 H   0  0  0  0  0  0  0  0  0  0  0  0
   10.7572    2.9215  -60.6492 H   0  0  0  0  0  0  0  0  0  0  0  0
    9.0012    2.1325  -59.1277 H   0  0  0  0  0  0  0  0  0  0  0  0
   10.6159    1.3996  -58.7366 H   0  0  0  0  0  0  0  0  0  0  0  0
    6.8338    0.0331  -52.3522 H   0  0  0  0  0  0  0  0  0  0  0  0
    6.7247    1.0786  -53.8088 H   0  0  0  0  0  0  0  0  0  0  0  0
    5.9557   -0.5447  -53.8088 H   0  0  0  0  0  0  0  0  0  0  0  0
    9.6510   -1.8443  -51.0172 H   0  0  0  0  0  0  0  0  0  0  0  0
    8.9661   -3.4582  -49.2431 H   0  0  0  0  0  0  0  0  0  0  0  0
    7.2231   -5.1760  -49.7249 H   0  0  0  0  0  0  0  0  0  0  0  0
    6.1545   -5.2736  -51.9754 H   0  0  0  0  0  0  0  0  0  0  0  0
    6.8366   -3.6624  -53.7529 H   0  0  0  0  0  0  0  0  0  0  0  0
  1  2  1  0
  2  3  1  0
  3  4  1  0
  4  5  1  0
  5  6  2  0
  6  7  1  0
  7  8  2  0
  7  9  1  0
  9 10  1  0
 10 11  1  0
 11 12  1  0
 12 13  1  0
 13 14  1  0
 14 15  1  0
  6 16  1  0
 16 17  1  0
 16 18  2  0
 18 19  1  0
 19 20  2  0
 20 21  1  0
 21 22  2  0
 22 23  1  0
 23 24  2  0
 18  4  1  0
 24 19  1  0
 15 10  1  0
  1 25  1  0
  1 26  1  0
  1 27  1  0
  2 28  1  0
  2 29  1  0
  3 30  1  0
  3 31  1  0
  9 32  1  0
 10 33  1  0
 11 34  1  0
 11 35  1  0
 12 36  1  0
 12 37  1  0
 13 38  1  0
 13 39  1  0
 14 40  1  0
 14 41  1  0
 15 42  1  0
 15 43  1  0
 17 44  1  0
 17 45  1  0
 17 46  1  0
 20 47  1  0
 21 48  1  0
 22 49  1  0
 23 50  1  0
 24 51  1  0
M  END
>  <meeko>  (68) 
{"is_sidechain": false}

$$$$

     RDKit          3D

 54 56  0  0  0  0  0  0  0  0999 V2000
   10.7220   -4.5520  -56.6690 C   0  0  0  0  0  0  0  0  0  0  0  0
   10.3150   -3.9080  -55.3530 C   0  0  0  0  0  0  0  0  0  0  0  0
   11.1000   -2.6370  -55.0280 C   0  0  0  0  0  0  0  0  0  0  0  0
   10.5800   -1.9100  -53.7890 C   0  0  0  0  0  0  0  0  0  0  0  0
    9.2970   -1.2670  -54.0350 N   0  0  0  0  0  0  0  0  0  0  0  0
    9.2300   -0.3020  -54.9740 N   0  0  0  0  0  0  0  0  0  0  0  0
    7.9360    0.0770  -54.9710 C   0  0  0  0  0  0  0  0  0  0  0  0
    7.4520    1.1360  -55.8780 C   0  0  0  0  0  0  0  0  0  0  0  0
    6.2710    1.2880  -56.1740 O   0  0  0  0  0  0  0  0  0  0  0  0
    8.4670    1.9460  -56.3440 N   0  0  0  0  0  0  0  0  0  0  0  0
    8.2240    3.1720  -57.0770 C   0  0  0  0  0  0  0  0  0  0  0  0
    8.3630    2.9390  -58.5810 C   0  0  0  0  0  0  0  0  0  0  0  0
    8.0100    4.1890  -59.3880 C   0  0  0  0  0  0  0  0  0  0  0  0
    8.2880    5.4970  -58.6430 C   0  0  0  0  0  0  0  0  0  0  0  0
    9.4440    5.3550  -57.6630 C   0  0  0  0  0  0  0  0  0  0  0  0
    9.1640    4.2930  -56.5980 C   0  0  0  0  0  0  0  0  0  0  0  0
    7.1850   -0.6600  -54.0070 C   0  0  0  0  0  0  0  0  0  0  0  0
    5.7360   -0.5170  -53.7110 C   0  0  0  0  0  0  0  0  0  0  0  0
    8.0970   -1.5220  -53.4170 C   0  0  0  0  0  0  0  0  0  0  0  0
    7.9100   -2.5130  -52.3670 C   0  0  0  0  0  0  0  0  0  0  0  0
    8.1380   -2.1730  -51.0290 C   0  0  0  0  0  0  0  0  0  0  0  0
    7.9530   -3.1220  -50.0220 C   0  0  0  0  0  0  0  0  0  0  0  0
    7.5430   -4.4140  -50.3480 C   0  0  0  0  0  0  0  0  0  0  0  0
    7.3210   -4.7610  -51.6800 C   0  0  0  0  0  0  0  0  0  0  0  0
    7.5060   -3.8140  -52.6880 C   0  0  0  0  0  0  0  0  0  0  0  0
   11.2996   -5.4660  -56.4667 H   0  0  0  0  0  0  0  0  0  0  0  0
    9.8212   -4.8078  -57.2461 H   0  0  0  0  0  0  0  0  0  0  0  0
   11.3396   -3.8481  -57.2461 H   0  0  0  0  0  0  0  0  0  0  0  0
    9.2462   -3.6533  -55.4058 H   0  0  0  0  0  0  0  0  0  0  0  0
   10.5316   -4.6349  -54.5563 H   0  0  0  0  0  0  0  0  0  0  0  0
   12.1520   -2.9095  -54.8579 H   0  0  0  0  0  0  0  0  0  0  0  0
   10.9837   -1.9531  -55.8817 H   0  0  0  0  0  0  0  0  0  0  0  0
   10.4622   -2.6380  -52.9728 H   0  0  0  0  0  0  0  0  0  0  0  0
   11.3070   -1.1289  -53.5220 H   0  0  0  0  0  0  0  0  0  0  0  0
    9.3690    1.7740  -55.9040 H   0  0  0  0  0  0  0  0  0  0  0  0
    7.1909    3.4933  -56.8785 H   0  0  0  0  0  0  0  0  0  0  0  0
    9.4025    2.6551  -58.8021 H   0  0  0  0  0  0  0  0  0  0  0  0
    7.6634    2.1400  -58.8677 H   0  0  0  0  0  0  0  0  0  0  0  0
    8.6026    4.1837  -60.3147 H   0  0  0  0  0  0  0  0  0  0  0  0
    6.9281    4.1523  -59.5836 H   0  0  0  0  0  0  0  0  0  0  0  0
    8.5368    6.2784  -59.3762 H   0  0  0  0  0  0  0  0  0  0  0  0
    7.3864    5.7633  -58.0718 H   0  0  0  0  0  0  0  0  0  0  0  0
   10.3488    5.0699  -58.2198 H   0  0  0  0  0  0  0  0  0  0  0  0
    9.5786    6.3205  -57.1535 H   0  0  0  0  0  0  0  0  0  0  0  0
   10.1207    3.8402  -56.2986 H   0  0  0  0  0  0  0  0  0  0  0  0
    8.6609    4.8001  -55.7615 H   0  0  0  0  0  0  0  0  0  0  0  0
    5.5840   -0.5020  -52.6216 H   0  0  0  0  0  0  0  0  0  0  0  0
    5.3638    0.4222  -54.1461 H   0  0  0  0  0  0  0  0  0  0  0  0
    5.1874   -1.3654  -54.1461 H   0  0  0  0  0  0  0  0  0  0  0  0
    8.4640   -1.1549  -50.7698 H   0  0  0  0  0  0  0  0  0  0  0  0
    8.1308   -2.8503  -48.9710 H   0  0  0  0  0  0  0  0  0  0  0  0
    7.3945   -5.1603  -49.5536 H   0  0  0  0  0  0  0  0  0  0  0  0
    7.0000   -5.7814  -51.9363 H   0  0  0  0  0  0  0  0  0  0  0  0
    7.3337   -4.0909  -53.7385 H   0  0  0  0  0  0  0  0  0  0  0  0
  1  2  1  0
  2  3  1  0
  3  4  1  0
  4  5  1  0
  5  6  1  0
  6  7  2  0
  7  8  1  0
  8  9  2  0
  8 10  1  0
 10 11  1  0
 11 12  1  0
 12 13  1  0
 13 14  1  0
 14 15  1  0
 15 16  1  0
  7 17  1  0
 17 18  1  0
 17 19  2  0
 19 20  1  0
 20 21  2  0
 21 22  1  0
 22 23  2  0
 23 24  1  0
 24 25  2  0
 19  5  1  0
 25 20  1  0
 16 11  1  0
  1 26  1  0
  1 27  1  0
  1 28  1  0
  2 29  1  0
  2 30  1  0
  3 31  1  0
  3 32  1  0
  4 33  1  0
  4 34  1  0
 10 35  1  0
 11 36  1  0
 12 37  1  0
 12 38  1  0
 13 39  1  0
 13 40  1  0
 14 41  1  0
 14 42  1  0
 15 43  1  0
 15 44  1  0
 16 45  1  0
 16 46  1  0
 18 47  1  0
 18 48  1  0
 18 49  1  0
 21 50  1  0
 22 51  1  0
 23 52  1  0
 24 53  1  0
 25 54  1  0
M  END
>  <meeko>  (69) 
{"is_sidechain": false}

$$$$

     RDKit          3D

 58 61  0  0  0  0  0  0  0  0999 V2000
    9.6550    1.8480  -55.8220 C   0  0  0  0  0  0  0  0  0  0  0  0
    8.3390    1.7000  -56.4980 C   0  0  0  0  0  0  0  0  0  0  0  0
    7.1890    1.0290  -55.9860 C   0  0  0  0  0  0  0  0  0  0  0  0
    7.0460    0.3310  -54.6930 C   0  0  0  0  0  0  0  0  0  0  0  0
    6.2920    0.7080  -53.8000 O   0  0  0  0  0  0  0  0  0  0  0  0
    7.8630   -0.7750  -54.5900 N   0  0  0  0  0  0  0  0  0  0  0  0
    8.0580   -1.5000  -53.3510 C   0  0  0  0  0  0  0  0  0  0  0  0
    7.0580   -2.6630  -53.2440 C   0  0  0  0  0  0  0  0  0  0  0  0
    7.5400   -3.8070  -52.3500 C   0  0  0  0  0  0  0  0  0  0  0  0
    8.5010   -3.3260  -51.2730 C   0  0  0  0  0  0  0  0  0  0  0  0
    9.7500   -2.6800  -51.8750 C   0  0  0  0  0  0  0  0  0  0  0  0
    9.5000   -1.9980  -53.2220 C   0  0  0  0  0  0  0  0  0  0  0  0
    6.1630    1.0840  -56.8590 N   0  0  0  0  0  0  0  0  0  0  0  0
    6.6520    1.7750  -57.9100 N   0  0  0  0  0  0  0  0  0  0  0  0
    5.7870    2.0170  -59.0650 C   0  0  0  0  0  0  0  0  0  0  0  0
    4.3550    2.3600  -58.6290 C   0  0  0  0  0  0  0  0  0  0  0  0
    3.4520    2.6150  -59.8330 C   0  0  0  0  0  0  0  0  0  0  0  0
    3.4750    1.4460  -60.8140 C   0  0  0  0  0  0  0  0  0  0  0  0
    4.8970    1.1020  -61.2500 C   0  0  0  0  0  0  0  0  0  0  0  0
    5.8040    0.8380  -60.0510 C   0  0  0  0  0  0  0  0  0  0  0  0
    7.9560    2.1790  -57.7420 C   0  0  0  0  0  0  0  0  0  0  0  0
    8.7140    2.9480  -58.7200 C   0  0  0  0  0  0  0  0  0  0  0  0
    9.3770    2.2970  -59.7670 C   0  0  0  0  0  0  0  0  0  0  0  0
   10.1100    3.0360  -60.6980 C   0  0  0  0  0  0  0  0  0  0  0  0
   10.1810    4.4230  -60.5880 C   0  0  0  0  0  0  0  0  0  0  0  0
    9.5160    5.0770  -59.5500 C   0  0  0  0  0  0  0  0  0  0  0  0
    8.7830    4.3410  -58.6190 C   0  0  0  0  0  0  0  0  0  0  0  0
    9.5110    1.8318  -54.7316 H   0  0  0  0  0  0  0  0  0  0  0  0
   10.3142    1.0183  -56.1171 H   0  0  0  0  0  0  0  0  0  0  0  0
   10.1134    2.8034  -56.1171 H   0  0  0  0  0  0  0  0  0  0  0  0
    8.5210   -0.8730  -55.3590 H   0  0  0  0  0  0  0  0  0  0  0  0
    7.8713   -0.8083  -52.5163 H   0  0  0  0  0  0  0  0  0  0  0  0
    6.1152   -2.2738  -52.8322 H   0  0  0  0  0  0  0  0  0  0  0  0
    6.9346   -3.0756  -54.2562 H   0  0  0  0  0  0  0  0  0  0  0  0
    6.6678   -4.2704  -51.8658 H   0  0  0  0  0  0  0  0  0  0  0  0
    8.0755   -4.5294  -52.9836 H   0  0  0  0  0  0  0  0  0  0  0  0
    7.9869   -2.5868  -50.6412 H   0  0  0  0  0  0  0  0  0  0  0  0
    8.8176   -4.1983  -50.6823 H   0  0  0  0  0  0  0  0  0  0  0  0
   10.1262   -1.9258  -51.1681 H   0  0  0  0  0  0  0  0  0  0  0  0
   10.4761   -3.4870  -52.0525 H   0  0  0  0  0  0  0  0  0  0  0  0
   10.1823   -1.1406  -53.3185 H   0  0  0  0  0  0  0  0  0  0  0  0
    9.6776   -2.7376  -54.0167 H   0  0  0  0  0  0  0  0  0  0  0  0
    6.1935    2.8900  -59.5966 H   0  0  0  0  0  0  0  0  0  0  0  0
    3.9472    1.5202  -58.0473 H   0  0  0  0  0  0  0  0  0  0  0  0
    4.3884    3.2762  -58.0212 H   0  0  0  0  0  0  0  0  0  0  0  0
    2.4209    2.7638  -59.4800 H   0  0  0  0  0  0  0  0  0  0  0  0
    3.8226    3.5088  -60.3562 H   0  0  0  0  0  0  0  0  0  0  0  0
    3.0279    0.5654  -60.3296 H   0  0  0  0  0  0  0  0  0  0  0  0
    2.9036    1.7373  -61.7077 H   0  0  0  0  0  0  0  0  0  0  0  0
    4.8688    0.2017  -61.8814 H   0  0  0  0  0  0  0  0  0  0  0  0
    5.3032    1.9595  -61.8065 H   0  0  0  0  0  0  0  0  0  0  0  0
    5.4568   -0.0676  -59.5321 H   0  0  0  0  0  0  0  0  0  0  0  0
    6.8330    0.7076  -60.4172 H   0  0  0  0  0  0  0  0  0  0  0  0
    9.3205    1.2021  -59.8565 H   0  0  0  0  0  0  0  0  0  0  0  0
   10.6318    2.5225  -61.5190 H   0  0  0  0  0  0  0  0  0  0  0  0
   10.7618    5.0032  -61.3201 H   0  0  0  0  0  0  0  0  0  0  0  0
    9.5698    6.1725  -59.4660 H   0  0  0  0  0  0  0  0  0  0  0  0
    8.2575    4.8581  -57.8026 H   0  0  0  0  0  0  0  0  0  0  0  0
  1  2  1  0
  2  3  1  0
  3  4  1  0
  4  5  2  0
  4  6  1  0
  6  7  1  0
  7  8  1  0
  8  9  1  0
  9 10  1  0
 10 11  1  0
 11 12  1  0
  3 13  2  0
 13 14  1  0
 14 15  1  0
 15 16  1  0
 16 17  1  0
 17 18  1  0
 18 19  1  0
 19 20  1  0
 14 21  1  0
 21 22  1  0
 22 23  2  0
 23 24  1  0
 24 25  2  0
 25 26  1  0
 26 27  2  0
 21  2  2  0
 27 22  1  0
 12  7  1  0
 20 15  1  0
  1 28  1  0
  1 29  1  0
  1 30  1  0
  6 31  1  0
  7 32  1  0
  8 33  1  0
  8 34  1  0
  9 35  1  0
  9 36  1  0
 10 37  1  0
 10 38  1  0
 11 39  1  0
 11 40  1  0
 12 41  1  0
 12 42  1  0
 15 43  1  0
 16 44  1  0
 16 45  1  0
 17 46  1  0
 17 47  1  0
 18 48  1  0
 18 49  1  0
 19 50  1  0
 19 51  1  0
 20 52  1  0
 20 53  1  0
 23 54  1  0
 24 55  1  0
 25 56  1  0
 26 57  1  0
 27 58  1  0
M  END
>  <meeko>  (70) 
{"is_sidechain": false}

$$$$

     RDKit          3D

 50 53  0  0  0  0  0  0  0  0999 V2000
    5.9030   -0.0150  -53.8450 C   0  0  0  0  0  0  0  0  0  0  0  0
    7.3010   -0.3100  -54.2590 C   0  0  0  0  0  0  0  0  0  0  0  0
    8.0450    0.3430  -55.2970 C   0  0  0  0  0  0  0  0  0  0  0  0
    7.5680    1.4720  -56.1370 C   0  0  0  0  0  0  0  0  0  0  0  0
    6.4110    1.4840  -56.5660 O   0  0  0  0  0  0  0  0  0  0  0  0
    8.4380    2.5250  -56.4380 N   0  0  0  0  0  0  0  0  0  0  0  0
    7.9110    3.7060  -57.1160 C   0  0  0  0  0  0  0  0  0  0  0  0
    8.7470    4.9430  -56.7770 C   0  0  0  0  0  0  0  0  0  0  0  0
   10.1330    4.8210  -57.1250 O   0  0  0  0  0  0  0  0  0  0  0  0
   10.6000    3.4670  -57.1890 C   0  0  0  0  0  0  0  0  0  0  0  0
    9.8860    2.5190  -56.2170 C   0  0  0  0  0  0  0  0  0  0  0  0
    9.2880   -0.1670  -55.3770 N   0  0  0  0  0  0  0  0  0  0  0  0
    9.3270   -1.1380  -54.4400 N   0  0  0  0  0  0  0  0  0  0  0  0
   10.5740   -1.8730  -54.2390 C   0  0  0  0  0  0  0  0  0  0  0  0
   10.8970   -2.7840  -55.3990 C   0  0  0  0  0  0  0  0  0  0  0  0
   11.5890   -2.2960  -56.5170 C   0  0  0  0  0  0  0  0  0  0  0  0
   11.8830   -3.1360  -57.5910 C   0  0  0  0  0  0  0  0  0  0  0  0
   11.4840   -4.4710  -57.5640 C   0  0  0  0  0  0  0  0  0  0  0  0
   10.7900   -4.9670  -56.4630 C   0  0  0  0  0  0  0  0  0  0  0  0
   10.4950   -4.1290  -55.3870 C   0  0  0  0  0  0  0  0  0  0  0  0
    8.1590   -1.2590  -53.7280 C   0  0  0  0  0  0  0  0  0  0  0  0
    7.9510   -2.2130  -52.6480 C   0  0  0  0  0  0  0  0  0  0  0  0
    8.1020   -1.8120  -51.3160 C   0  0  0  0  0  0  0  0  0  0  0  0
    7.9070   -2.7280  -50.2810 C   0  0  0  0  0  0  0  0  0  0  0  0
    7.5560   -4.0460  -50.5730 C   0  0  0  0  0  0  0  0  0  0  0  0
    7.3940   -4.4490  -51.8970 C   0  0  0  0  0  0  0  0  0  0  0  0
    7.5880   -3.5340  -52.9330 C   0  0  0  0  0  0  0  0  0  0  0  0
    5.8408   -0.0019  -52.7468 H   0  0  0  0  0  0  0  0  0  0  0  0
    5.6026    0.9663  -54.2410 H   0  0  0  0  0  0  0  0  0  0  0  0
    5.2318   -0.7913  -54.2410 H   0  0  0  0  0  0  0  0  0  0  0  0
    7.9366    3.5398  -58.2031 H   0  0  0  0  0  0  0  0  0  0  0  0
    6.8773    3.8749  -56.7799 H   0  0  0  0  0  0  0  0  0  0  0  0
    8.3281    5.8034  -57.3195 H   0  0  0  0  0  0  0  0  0  0  0  0
    8.7019    5.0694  -55.6852 H   0  0  0  0  0  0  0  0  0  0  0  0
   10.4456    3.0949  -58.2126 H   0  0  0  0  0  0  0  0  0  0  0  0
   11.6617    3.4805  -56.9015 H   0  0  0  0  0  0  0  0  0  0  0  0
   10.2674    1.4981  -56.3664 H   0  0  0  0  0  0  0  0  0  0  0  0
   10.0828    2.8605  -55.1900 H   0  0  0  0  0  0  0  0  0  0  0  0
   11.3946   -1.1505  -54.1178 H   0  0  0  0  0  0  0  0  0  0  0  0
   10.4539   -2.4997  -53.3430 H   0  0  0  0  0  0  0  0  0  0  0  0
   11.9025   -1.2420  -56.5471 H   0  0  0  0  0  0  0  0  0  0  0  0
   12.4307   -2.7441  -58.4607 H   0  0  0  0  0  0  0  0  0  0  0  0
   11.7170   -5.1324  -58.4115 H   0  0  0  0  0  0  0  0  0  0  0  0
   10.4741   -6.0205  -56.4417 H   0  0  0  0  0  0  0  0  0  0  0  0
    9.9429   -4.5256  -54.5222 H   0  0  0  0  0  0  0  0  0  0  0  0
    8.3751   -0.7720  -51.0839 H   0  0  0  0  0  0  0  0  0  0  0  0
    8.0301   -2.4105  -49.2350 H   0  0  0  0  0  0  0  0  0  0  0  0
    7.4069   -4.7683  -49.7569 H   0  0  0  0  0  0  0  0  0  0  0  0
    7.1134   -5.4877  -52.1256 H   0  0  0  0  0  0  0  0  0  0  0  0
    7.4550   -3.8525  -53.9774 H   0  0  0  0  0  0  0  0  0  0  0  0
  1  2  1  0
  2  3  1  0
  3  4  1  0
  4  5  2  0
  4  6  1  0
  6  7  1  0
  7  8  1  0
  8  9  1  0
  9 10  1  0
 10 11  1  0
  3 12  2  0
 12 13  1  0
 13 14  1  0
 14 15  1  0
 15 16  2  0
 16 17  1  0
 17 18  2  0
 18 19  1  0
 19 20  2  0
 13 21  1  0
 21 22  1  0
 22 23  2  0
 23 24  1  0
 24 25  2  0
 25 26  1  0
 26 27  2  0
 21  2  2  0
 27 22  1  0
 11  6  1  0
 20 15  1  0
  1 28  1  0
  1 29  1  0
  1 30  1  0
  7 31  1  0
  7 32  1  0
  8 33  1  0
  8 34  1  0
 10 35  1  0
 10 36  1  0
 11 37  1  0
 11 38  1  0
 14 39  1  0
 14 40  1  0
 16 41  1  0
 17 42  1  0
 18 43  1  0
 19 44  1  0
 20 45  1  0
 23 46  1  0
 24 47  1  0
 25 48  1  0
 26 49  1  0
 27 50  1  0
M  END
>  <meeko>  (71) 
{"is_sidechain": false}

$$$$

     RDKit          3D

 52 55  0  0  0  0  0  0  0  0999 V2000
    5.9240   -0.2330  -53.5910 C   0  0  0  0  0  0  0  0  0  0  0  0
    7.3270   -0.5410  -53.9700 C   0  0  0  0  0  0  0  0  0  0  0  0
    8.1110    0.1270  -54.9570 C   0  0  0  0  0  0  0  0  0  0  0  0
    7.7110    1.2560  -55.8190 C   0  0  0  0  0  0  0  0  0  0  0  0
    6.5570    1.4510  -56.1910 O   0  0  0  0  0  0  0  0  0  0  0  0
    8.7740    2.0580  -56.1790 N   0  0  0  0  0  0  0  0  0  0  0  0
    8.6640    3.1050  -57.1730 C   0  0  0  0  0  0  0  0  0  0  0  0
    9.3600    4.3820  -56.7170 C   0  0  0  0  0  0  0  0  0  0  0  0
   10.8360    4.1700  -57.0550 C   0  0  0  0  0  0  0  0  0  0  0  0
   10.8770    3.0890  -58.1360 C   0  0  0  0  0  0  0  0  0  0  0  0
    9.4220    2.7530  -58.4520 C   0  0  0  0  0  0  0  0  0  0  0  0
    9.3420   -0.4170  -55.0540 N   0  0  0  0  0  0  0  0  0  0  0  0
    9.3510   -1.3910  -54.1170 N   0  0  0  0  0  0  0  0  0  0  0  0
   10.5540   -2.2070  -53.9580 C   0  0  0  0  0  0  0  0  0  0  0  0
   10.9090   -2.9590  -55.2180 C   0  0  0  0  0  0  0  0  0  0  0  0
   11.6140   -2.3310  -56.2560 C   0  0  0  0  0  0  0  0  0  0  0  0
   11.9330   -3.0290  -57.4210 C   0  0  0  0  0  0  0  0  0  0  0  0
   11.5460   -4.3600  -57.5660 C   0  0  0  0  0  0  0  0  0  0  0  0
   10.8390   -4.9940  -56.5460 C   0  0  0  0  0  0  0  0  0  0  0  0
   10.5190   -4.2970  -55.3790 C   0  0  0  0  0  0  0  0  0  0  0  0
    8.1550   -1.5260  -53.4540 C   0  0  0  0  0  0  0  0  0  0  0  0
    7.8990   -2.5190  -52.4190 C   0  0  0  0  0  0  0  0  0  0  0  0
    7.4050   -3.7820  -52.7600 C   0  0  0  0  0  0  0  0  0  0  0  0
    7.1520   -4.7300  -51.7680 C   0  0  0  0  0  0  0  0  0  0  0  0
    7.3980   -4.4220  -50.4300 C   0  0  0  0  0  0  0  0  0  0  0  0
    7.8990   -3.1670  -50.0840 C   0  0  0  0  0  0  0  0  0  0  0  0
    8.1520   -2.2170  -51.0760 C   0  0  0  0  0  0  0  0  0  0  0  0
    5.8361   -0.2137  -52.4947 H   0  0  0  0  0  0  0  0  0  0  0  0
    5.6411    0.7486  -53.9988 H   0  0  0  0  0  0  0  0  0  0  0  0
    5.2559   -1.0059  -53.9988 H   0  0  0  0  0  0  0  0  0  0  0  0
    9.6810    1.6930  -55.8990 H   0  0  0  0  0  0  0  0  0  0  0  0
    7.5820    3.2267  -57.3293 H   0  0  0  0  0  0  0  0  0  0  0  0
    8.9611    5.2536  -57.2565 H   0  0  0  0  0  0  0  0  0  0  0  0
    9.2052    4.5771  -55.6456 H   0  0  0  0  0  0  0  0  0  0  0  0
   11.2783    5.1036  -57.4328 H   0  0  0  0  0  0  0  0  0  0  0  0
   11.4108    3.8694  -56.1666 H   0  0  0  0  0  0  0  0  0  0  0  0
   11.3857    3.4669  -59.0351 H   0  0  0  0  0  0  0  0  0  0  0  0
   11.4305    2.2011  -57.7965 H   0  0  0  0  0  0  0  0  0  0  0  0
    9.0585    3.3548  -59.2980 H   0  0  0  0  0  0  0  0  0  0  0  0
    9.2884    1.7004  -58.7422 H   0  0  0  0  0  0  0  0  0  0  0  0
   11.3942   -1.5495  -53.6903 H   0  0  0  0  0  0  0  0  0  0  0  0
   10.3554   -2.9478  -53.1695 H   0  0  0  0  0  0  0  0  0  0  0  0
   11.9178   -1.2791  -56.1502 H   0  0  0  0  0  0  0  0  0  0  0  0
   12.4907   -2.5282  -58.2261 H   0  0  0  0  0  0  0  0  0  0  0  0
   11.7984   -4.9097  -58.4848 H   0  0  0  0  0  0  0  0  0  0  0  0
   10.5328   -6.0443  -56.6603 H   0  0  0  0  0  0  0  0  0  0  0  0
    9.9565   -4.8012  -54.5794 H   0  0  0  0  0  0  0  0  0  0  0  0
    7.2150   -4.0292  -53.8149 H   0  0  0  0  0  0  0  0  0  0  0  0
    6.7585   -5.7203  -52.0411 H   0  0  0  0  0  0  0  0  0  0  0  0
    7.1969   -5.1687  -49.6477 H   0  0  0  0  0  0  0  0  0  0  0  0
    8.0950   -2.9253  -49.0289 H   0  0  0  0  0  0  0  0  0  0  0  0
    8.5509   -1.2294  -50.8012 H   0  0  0  0  0  0  0  0  0  0  0  0
  1  2  1  0
  2  3  1  0
  3  4  1  0
  4  5  2  0
  4  6  1  0
  6  7  1  0
  7  8  1  0
  8  9  1  0
  9 10  1  0
 10 11  1  0
  3 12  2  0
 12 13  1  0
 13 14  1  0
 14 15  1  0
 15 16  2  0
 16 17  1  0
 17 18  2  0
 18 19  1  0
 19 20  2  0
 13 21  1  0
 21 22  1  0
 22 23  2  0
 23 24  1  0
 24 25  2  0
 25 26  1  0
 26 27  2  0
 21  2  2  0
 27 22  1  0
 11  7  1  0
 20 15  1  0
  1 28  1  0
  1 29  1  0
  1 30  1  0
  6 31  1  0
  7 32  1  0
  8 33  1  0
  8 34  1  0
  9 35  1  0
  9 36  1  0
 10 37  1  0
 10 38  1  0
 11 39  1  0
 11 40  1  0
 14 41  1  0
 14 42  1  0
 16 43  1  0
 17 44  1  0
 18 45  1  0
 19 46  1  0
 20 47  1  0
 23 48  1  0
 24 49  1  0
 25 50  1  0
 26 51  1  0
 27 52  1  0
M  END
>  <meeko>  (72) 
{"is_sidechain": false}

$$$$

     RDKit          3D

 51 53  0  0  0  0  0  0  0  0999 V2000
    6.2640   -0.1430  -53.5830 C   0  0  0  0  0  0  0  0  0  0  0  0
    7.6340   -0.5740  -53.9670 C   0  0  0  0  0  0  0  0  0  0  0  0
    8.4620    0.0230  -54.9590 C   0  0  0  0  0  0  0  0  0  0  0  0
    8.1550    1.1810  -55.8220 C   0  0  0  0  0  0  0  0  0  0  0  0
    7.0190    1.4740  -56.1830 O   0  0  0  0  0  0  0  0  0  0  0  0
    9.2810    1.8870  -56.1900 N   0  0  0  0  0  0  0  0  0  0  0  0
    9.2630    2.9370  -57.1910 C   0  0  0  0  0  0  0  0  0  0  0  0
    9.3120    4.3120  -56.5150 C   0  0  0  0  0  0  0  0  0  0  0  0
    9.3560    5.4420  -57.5410 C   0  0  0  0  0  0  0  0  0  0  0  0
   10.5120    5.2660  -58.5210 C   0  0  0  0  0  0  0  0  0  0  0  0
   10.4710    3.8990  -59.1980 C   0  0  0  0  0  0  0  0  0  0  0  0
   10.4270    2.7660  -58.1770 C   0  0  0  0  0  0  0  0  0  0  0  0
    9.6420   -0.6190  -55.0560 N   0  0  0  0  0  0  0  0  0  0  0  0
    9.5740   -1.6070  -54.1350 N   0  0  0  0  0  0  0  0  0  0  0  0
   10.7440   -2.4770  -54.0120 C   0  0  0  0  0  0  0  0  0  0  0  0
   10.5740   -3.8230  -54.7140 C   0  0  0  0  0  0  0  0  0  0  0  0
   11.2240   -2.6370  -52.5710 C   0  0  0  0  0  0  0  0  0  0  0  0
    8.3790   -1.6250  -53.4510 C   0  0  0  0  0  0  0  0  0  0  0  0
    8.0070   -2.5700  -52.4050 C   0  0  0  0  0  0  0  0  0  0  0  0
    7.4870   -3.8250  -52.7410 C   0  0  0  0  0  0  0  0  0  0  0  0
    7.1000   -4.7180  -51.7390 C   0  0  0  0  0  0  0  0  0  0  0  0
    7.2180   -4.3560  -50.3990 C   0  0  0  0  0  0  0  0  0  0  0  0
    7.7140   -3.0980  -50.0560 C   0  0  0  0  0  0  0  0  0  0  0  0
    8.0990   -2.2040  -51.0570 C   0  0  0  0  0  0  0  0  0  0  0  0
    6.1816   -0.1171  -52.4864 H   0  0  0  0  0  0  0  0  0  0  0  0
    6.0679    0.8602  -53.9892 H   0  0  0  0  0  0  0  0  0  0  0  0
    5.5288   -0.8533  -53.9892 H   0  0  0  0  0  0  0  0  0  0  0  0
   10.1540    1.4440  -55.9160 H   0  0  0  0  0  0  0  0  0  0  0  0
    8.3254    2.8648  -57.7617 H   0  0  0  0  0  0  0  0  0  0  0  0
    8.4162    4.4337  -55.8883 H   0  0  0  0  0  0  0  0  0  0  0  0
   10.2272    4.3638  -55.9069 H   0  0  0  0  0  0  0  0  0  0  0  0
    8.4102    5.4513  -58.1026 H   0  0  0  0  0  0  0  0  0  0  0  0
    9.5026    6.3900  -57.0027 H   0  0  0  0  0  0  0  0  0  0  0  0
   10.4488    6.0482  -59.2918 H   0  0  0  0  0  0  0  0  0  0  0  0
   11.4544    5.3436  -57.9591 H   0  0  0  0  0  0  0  0  0  0  0  0
    9.5745    3.8421  -59.8328 H   0  0  0  0  0  0  0  0  0  0  0  0
   11.3860    3.7853  -59.7979 H   0  0  0  0  0  0  0  0  0  0  0  0
   10.3064    1.8108  -58.7091 H   0  0  0  0  0  0  0  0  0  0  0  0
   11.3666    2.7821  -57.6053 H   0  0  0  0  0  0  0  0  0  0  0  0
   11.5464   -1.9507  -54.5498 H   0  0  0  0  0  0  0  0  0  0  0  0
   10.4735   -4.6189  -53.9614 H   0  0  0  0  0  0  0  0  0  0  0  0
    9.6720   -3.7971  -55.3431 H   0  0  0  0  0  0  0  0  0  0  0  0
   11.4541   -4.0222  -55.3431 H   0  0  0  0  0  0  0  0  0  0  0  0
   10.4109   -2.3660  -51.8815 H   0  0  0  0  0  0  0  0  0  0  0  0
   11.5194   -3.6822  -52.3968 H   0  0  0  0  0  0  0  0  0  0  0  0
   12.0874   -1.9781  -52.3968 H   0  0  0  0  0  0  0  0  0  0  0  0
    7.3826   -4.1094  -53.7985 H   0  0  0  0  0  0  0  0  0  0  0  0
    6.7019   -5.7075  -52.0082 H   0  0  0  0  0  0  0  0  0  0  0  0
    6.9198   -5.0627  -49.6106 H   0  0  0  0  0  0  0  0  0  0  0  0
    7.8017   -2.8106  -48.9978 H   0  0  0  0  0  0  0  0  0  0  0  0
    8.4764   -1.2072  -50.7850 H   0  0  0  0  0  0  0  0  0  0  0  0
  1  2  1  0
  2  3  1  0
  3  4  1  0
  4  5  2  0
  4  6  1  0
  6  7  1  0
  7  8  1  0
  8  9  1  0
  9 10  1  0
 10 11  1  0
 11 12  1  0
  3 13  2  0
 13 14  1  0
 14 15  1  0
 15 16  1  0
 15 17  1  0
 14 18  1  0
 18 19  1  0
 19 20  2  0
 20 21  1  0
 21 22  2  0
 22 23  1  0
 23 24  2  0
 18  2  2  0
 24 19  1  0
 12  7  1  0
  1 25  1  0
  1 26  1  0
  1 27  1  0
  6 28  1  0
  7 29  1  0
  8 30  1  0
  8 31  1  0
  9 32  1  0
  9 33  1  0
 10 34  1  0
 10 35  1  0
 11 36  1  0
 11 37  1  0
 12 38  1  0
 12 39  1  0
 15 40  1  0
 16 41  1  0
 16 42  1  0
 16 43  1  0
 17 44  1  0
 17 45  1  0
 17 46  1  0
 20 47  1  0
 21 48  1  0
 22 49  1  0
 23 50  1  0
 24 51  1  0
M  END
>  <meeko>  (73) 
{"is_sidechain": false}

$$$$

     RDKit          3D

 50 53  0  0  0  0  0  0  0  0999 V2000
    5.9190   -0.2130  -53.4970 C   0  0  0  0  0  0  0  0  0  0  0  0
    7.3000   -0.5080  -53.9560 C   0  0  0  0  0  0  0  0  0  0  0  0
    8.0560    0.1600  -54.9630 C   0  0  0  0  0  0  0  0  0  0  0  0
    7.5770    1.2020  -55.7050 N   0  0  0  0  0  0  0  0  0  0  0  0
    6.3430    0.9350  -56.4640 C   0  0  0  0  0  0  0  0  0  0  0  0
    5.7140    2.2530  -56.9140 C   0  0  0  0  0  0  0  0  0  0  0  0
    6.7030    3.0880  -57.7210 C   0  0  0  0  0  0  0  0  0  0  0  0
    8.0010    3.2810  -56.9440 C   0  0  0  0  0  0  0  0  0  0  0  0
    8.5810    1.9400  -56.4910 C   0  0  0  0  0  0  0  0  0  0  0  0
    9.2860   -0.3430  -55.0630 N   0  0  0  0  0  0  0  0  0  0  0  0
    9.3260   -1.3330  -54.1490 N   0  0  0  0  0  0  0  0  0  0  0  0
   10.5420   -2.1310  -54.0280 C   0  0  0  0  0  0  0  0  0  0  0  0
   10.8530   -2.9110  -55.2840 C   0  0  0  0  0  0  0  0  0  0  0  0
   11.5540   -2.3060  -56.3390 C   0  0  0  0  0  0  0  0  0  0  0  0
   11.8510   -3.0260  -57.4970 C   0  0  0  0  0  0  0  0  0  0  0  0
   11.4590   -4.3570  -57.6130 C   0  0  0  0  0  0  0  0  0  0  0  0
   10.7700   -4.9730  -56.5690 C   0  0  0  0  0  0  0  0  0  0  0  0
   10.4710   -4.2550  -55.4100 C   0  0  0  0  0  0  0  0  0  0  0  0
    8.1440   -1.4960  -53.4690 C   0  0  0  0  0  0  0  0  0  0  0  0
    7.9160   -2.5020  -52.4400 C   0  0  0  0  0  0  0  0  0  0  0  0
    7.4150   -3.7610  -52.7870 C   0  0  0  0  0  0  0  0  0  0  0  0
    7.2020   -4.7270  -51.8020 C   0  0  0  0  0  0  0  0  0  0  0  0
    7.4840   -4.4370  -50.4670 C   0  0  0  0  0  0  0  0  0  0  0  0
    7.9760   -3.1820  -50.1150 C   0  0  0  0  0  0  0  0  0  0  0  0
    8.1890   -2.2150  -51.0980 C   0  0  0  0  0  0  0  0  0  0  0  0
    5.8915   -0.2071  -52.3974 H   0  0  0  0  0  0  0  0  0  0  0  0
    5.6089    0.7717  -53.8768 H   0  0  0  0  0  0  0  0  0  0  0  0
    5.2336   -0.9850  -53.8768 H   0  0  0  0  0  0  0  0  0  0  0  0
    6.5829    0.3249  -57.3473 H   0  0  0  0  0  0  0  0  0  0  0  0
    5.6320    0.3951  -55.8213 H   0  0  0  0  0  0  0  0  0  0  0  0
    4.8343    2.0364  -57.5378 H   0  0  0  0  0  0  0  0  0  0  0  0
    5.4237    2.8241  -56.0198 H   0  0  0  0  0  0  0  0  0  0  0  0
    6.9218    2.5738  -58.6685 H   0  0  0  0  0  0  0  0  0  0  0  0
    6.2572    4.0742  -57.9177 H   0  0  0  0  0  0  0  0  0  0  0  0
    8.7331    3.7886  -57.5893 H   0  0  0  0  0  0  0  0  0  0  0  0
    7.7849    3.8858  -56.0509 H   0  0  0  0  0  0  0  0  0  0  0  0
    8.8619    1.3468  -57.3737 H   0  0  0  0  0  0  0  0  0  0  0  0
    9.4692    2.1204  -55.8677 H   0  0  0  0  0  0  0  0  0  0  0  0
   11.3852   -1.4579  -53.8136 H   0  0  0  0  0  0  0  0  0  0  0  0
   10.3849   -2.8562  -53.2160 H   0  0  0  0  0  0  0  0  0  0  0  0
   11.8716   -1.2564  -56.2523 H   0  0  0  0  0  0  0  0  0  0  0  0
   12.3961   -2.5408  -58.3201 H   0  0  0  0  0  0  0  0  0  0  0  0
   11.6927   -4.9220  -58.5274 H   0  0  0  0  0  0  0  0  0  0  0  0
   10.4620   -6.0252  -56.6588 H   0  0  0  0  0  0  0  0  0  0  0  0
    9.9309   -4.7474  -54.5879 H   0  0  0  0  0  0  0  0  0  0  0  0
    7.1883   -3.9905  -53.8386 H   0  0  0  0  0  0  0  0  0  0  0  0
    6.8116   -5.7174  -52.0787 H   0  0  0  0  0  0  0  0  0  0  0  0
    7.3178   -5.1996  -49.6918 H   0  0  0  0  0  0  0  0  0  0  0  0
    8.1966   -2.9534  -49.0619 H   0  0  0  0  0  0  0  0  0  0  0  0
    8.5730   -1.2233  -50.8169 H   0  0  0  0  0  0  0  0  0  0  0  0
  1  2  1  0
  2  3  1  0
  3  4  1  0
  4  5  1  0
  5  6  1  0
  6  7  1  0
  7  8  1  0
  8  9  1  0
  3 10  2  0
 10 11  1  0
 11 12  1  0
 12 13  1  0
 13 14  2  0
 14 15  1  0
 15 16  2  0
 16 17  1  0
 17 18  2  0
 11 19  1  0
 19 20  1  0
 20 21  2  0
 21 22  1  0
 22 23  2  0
 23 24  1  0
 24 25  2  0
 19  2  2  0
 25 20  1  0
  9  4  1  0
 18 13  1  0
  1 26  1  0
  1 27  1  0
  1 28  1  0
  5 29  1  0
  5 30  1  0
  6 31  1  0
  6 32  1  0
  7 33  1  0
  7 34  1  0
  8 35  1  0
  8 36  1  0
  9 37  1  0
  9 38  1  0
 12 39  1  0
 12 40  1  0
 14 41  1  0
 15 42  1  0
 16 43  1  0
 17 44  1  0
 18 45  1  0
 21 46  1  0
 22 47  1  0
 23 48  1  0
 24 49  1  0
 25 50  1  0
M  END
>  <meeko>  (74) 
{"is_sidechain": false}

$$$$

     RDKit          3D

 45 47  0  0  0  0  0  0  0  0999 V2000
    9.0640    4.7050  -56.5150 C   0  0  0  0  0  0  0  0  0  0  0  0
    8.3580    3.5260  -57.1550 C   0  0  0  0  0  0  0  0  0  0  0  0
    8.6620    2.2930  -56.4630 N   0  0  0  0  0  0  0  0  0  0  0  0
    7.6380    1.4390  -56.0790 C   0  0  0  0  0  0  0  0  0  0  0  0
    6.4700    1.6180  -56.4150 O   0  0  0  0  0  0  0  0  0  0  0  0
    8.0730    0.3330  -55.2010 C   0  0  0  0  0  0  0  0  0  0  0  0
    9.3180   -0.1620  -55.2860 N   0  0  0  0  0  0  0  0  0  0  0  0
    9.3570   -1.1650  -54.3860 N   0  0  0  0  0  0  0  0  0  0  0  0
   10.6010   -1.9100  -54.2150 C   0  0  0  0  0  0  0  0  0  0  0  0
   10.9100   -2.7860  -55.4050 C   0  0  0  0  0  0  0  0  0  0  0  0
   10.4820   -4.1210  -55.4390 C   0  0  0  0  0  0  0  0  0  0  0  0
   10.7710   -4.9310  -56.5390 C   0  0  0  0  0  0  0  0  0  0  0  0
   11.4950   -4.4160  -57.6140 C   0  0  0  0  0  0  0  0  0  0  0  0
   11.9310   -3.0930  -57.5900 C   0  0  0  0  0  0  0  0  0  0  0  0
   11.6420   -2.2820  -56.4910 C   0  0  0  0  0  0  0  0  0  0  0  0
    8.1800   -1.3210  -53.6920 C   0  0  0  0  0  0  0  0  0  0  0  0
    7.9670   -2.3170  -52.6520 C   0  0  0  0  0  0  0  0  0  0  0  0
    7.5750   -3.6160  -52.9930 C   0  0  0  0  0  0  0  0  0  0  0  0
    7.3740   -4.5730  -51.9960 C   0  0  0  0  0  0  0  0  0  0  0  0
    7.5580   -4.2340  -50.6570 C   0  0  0  0  0  0  0  0  0  0  0  0
    7.9400   -2.9380  -50.3100 C   0  0  0  0  0  0  0  0  0  0  0  0
    8.1420   -1.9800  -51.3050 C   0  0  0  0  0  0  0  0  0  0  0  0
    7.3190   -0.3560  -54.1950 C   0  0  0  0  0  0  0  0  0  0  0  0
    5.9250   -0.0840  -53.7550 C   0  0  0  0  0  0  0  0  0  0  0  0
    9.0098    4.6145  -55.4201 H   0  0  0  0  0  0  0  0  0  0  0  0
   10.1178    4.7166  -56.8303 H   0  0  0  0  0  0  0  0  0  0  0  0
    8.5767    5.6394  -56.8303 H   0  0  0  0  0  0  0  0  0  0  0  0
    7.2719    3.6974  -57.1215 H   0  0  0  0  0  0  0  0  0  0  0  0
    8.7057    3.4356  -58.1947 H   0  0  0  0  0  0  0  0  0  0  0  0
    9.4930    2.2650  -55.8870 H   0  0  0  0  0  0  0  0  0  0  0  0
   11.4258   -1.1953  -54.0777 H   0  0  0  0  0  0  0  0  0  0  0  0
   10.4857   -2.5622  -53.3368 H   0  0  0  0  0  0  0  0  0  0  0  0
    9.9139   -4.5334  -54.5921 H   0  0  0  0  0  0  0  0  0  0  0  0
   10.4275   -5.9758  -56.5577 H   0  0  0  0  0  0  0  0  0  0  0  0
   11.7218   -5.0543  -58.4807 H   0  0  0  0  0  0  0  0  0  0  0  0
   12.5032   -2.6873  -58.4373 H   0  0  0  0  0  0  0  0  0  0  0  0
   11.9911   -1.2390  -56.4762 H   0  0  0  0  0  0  0  0  0  0  0  0
    7.4247   -3.8842  -54.0492 H   0  0  0  0  0  0  0  0  0  0  0  0
    7.0703   -5.5947  -52.2678 H   0  0  0  0  0  0  0  0  0  0  0  0
    7.4018   -4.9893  -49.8727 H   0  0  0  0  0  0  0  0  0  0  0  0
    8.0820   -2.6710  -49.2524 H   0  0  0  0  0  0  0  0  0  0  0  0
    8.4395   -0.9574  -51.0296 H   0  0  0  0  0  0  0  0  0  0  0  0
    5.8825   -0.0757  -52.6559 H   0  0  0  0  0  0  0  0  0  0  0  0
    5.6026    0.8940  -54.1418 H   0  0  0  0  0  0  0  0  0  0  0  0
    5.2586   -0.8691  -54.1418 H   0  0  0  0  0  0  0  0  0  0  0  0
  1  2  1  0
  2  3  1  0
  3  4  1  0
  4  5  2  0
  4  6  1  0
  6  7  2  0
  7  8  1  0
  8  9  1  0
  9 10  1  0
 10 11  2  0
 11 12  1  0
 12 13  2  0
 13 14  1  0
 14 15  2  0
  8 16  1  0
 16 17  1  0
 17 18  2  0
 18 19  1  0
 19 20  2  0
 20 21  1  0
 21 22  2  0
 16 23  2  0
 23 24  1  0
 23  6  1  0
 15 10  1  0
 22 17  1  0
  1 25  1  0
  1 26  1  0
  1 27  1  0
  2 28  1  0
  2 29  1  0
  3 30  1  0
  9 31  1  0
  9 32  1  0
 11 33  1  0
 12 34  1  0
 13 35  1  0
 14 36  1  0
 15 37  1  0
 18 38  1  0
 19 39  1  0
 20 40  1  0
 21 41  1  0
 22 42  1  0
 24 43  1  0
 24 44  1  0
 24 45  1  0
M  END
>  <meeko>  (75) 
{"is_sidechain": false}

$$$$

     RDKit          3D

 42 44  0  0  0  0  0  0  0  0999 V2000
    9.4650   -1.1110  -54.6780 C   0  0  0  0  0  0  0  0  0  0  0  0
    8.0850   -0.6740  -54.3430 C   0  0  0  0  0  0  0  0  0  0  0  0
    7.3370    0.3580  -54.9930 C   0  0  0  0  0  0  0  0  0  0  0  0
    7.7490    1.1910  -56.1400 C   0  0  0  0  0  0  0  0  0  0  0  0
    7.0010    1.4760  -57.0710 O   0  0  0  0  0  0  0  0  0  0  0  0
    9.0530    1.6290  -56.0450 N   0  0  0  0  0  0  0  0  0  0  0  0
    9.6200    2.6220  -56.9350 C   0  0  0  0  0  0  0  0  0  0  0  0
   11.1140    2.3460  -57.1660 C   0  0  0  0  0  0  0  0  0  0  0  0
   11.9160    3.5930  -57.5500 C   0  0  0  0  0  0  0  0  0  0  0  0
   11.0560    4.6300  -58.2560 C   0  0  0  0  0  0  0  0  0  0  0  0
    9.8990    5.1040  -57.3760 C   0  0  0  0  0  0  0  0  0  0  0  0
    9.3950    4.0380  -56.3990 C   0  0  0  0  0  0  0  0  0  0  0  0
    6.1210    0.5080  -54.4260 N   0  0  0  0  0  0  0  0  0  0  0  0
    6.1040   -0.4090  -53.4470 N   0  0  0  0  0  0  0  0  0  0  0  0
    7.2480   -1.1530  -53.3460 C   0  0  0  0  0  0  0  0  0  0  0  0
    7.4010   -2.2150  -52.3600 C   0  0  0  0  0  0  0  0  0  0  0  0
    7.8500   -1.9270  -51.0640 C   0  0  0  0  0  0  0  0  0  0  0  0
    7.9830   -2.9460  -50.1190 C   0  0  0  0  0  0  0  0  0  0  0  0
    7.6680   -4.2610  -50.4590 C   0  0  0  0  0  0  0  0  0  0  0  0
    7.2230   -4.5580  -51.7460 C   0  0  0  0  0  0  0  0  0  0  0  0
    7.0900   -3.5390  -52.6920 C   0  0  0  0  0  0  0  0  0  0  0  0
   10.0285   -1.2894  -53.7503 H   0  0  0  0  0  0  0  0  0  0  0  0
    9.4230   -2.0398  -55.2659 H   0  0  0  0  0  0  0  0  0  0  0  0
    9.9652   -0.3273  -55.2659 H   0  0  0  0  0  0  0  0  0  0  0  0
    9.4940    1.4220  -55.1510 H   0  0  0  0  0  0  0  0  0  0  0  0
    9.1037    2.5504  -57.9037 H   0  0  0  0  0  0  0  0  0  0  0  0
   11.5383    1.9313  -56.2397 H   0  0  0  0  0  0  0  0  0  0  0  0
   11.1855    1.6441  -58.0099 H   0  0  0  0  0  0  0  0  0  0  0  0
   12.3343    4.0411  -56.6366 H   0  0  0  0  0  0  0  0  0  0  0  0
   12.7124    3.2840  -58.2431 H   0  0  0  0  0  0  0  0  0  0  0  0
   11.6834    5.4955  -58.5156 H   0  0  0  0  0  0  0  0  0  0  0  0
   10.6309    4.1645  -59.1574 H   0  0  0  0  0  0  0  0  0  0  0  0
   10.2376    5.9751  -56.7959 H   0  0  0  0  0  0  0  0  0  0  0  0
    9.0622    5.3478  -58.0471 H   0  0  0  0  0  0  0  0  0  0  0  0
    9.9322    4.1470  -55.4453 H   0  0  0  0  0  0  0  0  0  0  0  0
    8.3132    4.1837  -56.2631 H   0  0  0  0  0  0  0  0  0  0  0  0
    5.2660   -0.4960  -52.8830 H   0  0  0  0  0  0  0  0  0  0  0  0
    8.0992   -0.8913  -50.7896 H   0  0  0  0  0  0  0  0  0  0  0  0
    8.3369   -2.7110  -49.1044 H   0  0  0  0  0  0  0  0  0  0  0  0
    7.7705   -5.0627  -49.7128 H   0  0  0  0  0  0  0  0  0  0  0  0
    6.9765   -5.5952  -52.0168 H   0  0  0  0  0  0  0  0  0  0  0  0
    6.7380   -3.7788  -53.7062 H   0  0  0  0  0  0  0  0  0  0  0  0
  1  2  1  0
  2  3  1  0
  3  4  1  0
  4  5  2  0
  4  6  1  0
  6  7  1  0
  7  8  1  0
  8  9  1  0
  9 10  1  0
 10 11  1  0
 11 12  1  0
  3 13  2  0
 13 14  1  0
 14 15  1  0
 15 16  1  0
 16 17  2  0
 17 18  1  0
 18 19  2  0
 19 20  1  0
 20 21  2  0
 15  2  2  0
 21 16  1  0
 12  7  1  0
  1 22  1  0
  1 23  1  0
  1 24  1  0
  6 25  1  0
  7 26  1  0
  8 27  1  0
  8 28  1  0
  9 29  1  0
  9 30  1  0
 10 31  1  0
 10 32  1  0
 11 33  1  0
 11 34  1  0
 12 35  1  0
 12 36  1  0
 14 37  1  0
 17 38  1  0
 18 39  1  0
 19 40  1  0
 20 41  1  0
 21 42  1  0
M  END
>  <meeko>  (76) 
{"is_sidechain": false}

$$$$

     RDKit          3D

 42 44  0  0  0  0  0  0  0  0999 V2000
    9.9450   -1.2710  -54.2030 C   0  0  0  0  0  0  0  0  0  0  0  0
    8.5650   -0.7250  -54.0990 C   0  0  0  0  0  0  0  0  0  0  0  0
    7.5030   -1.1640  -53.2450 C   0  0  0  0  0  0  0  0  0  0  0  0
    7.4890   -2.2740  -52.2910 C   0  0  0  0  0  0  0  0  0  0  0  0
    8.1110   -2.1590  -51.0410 C   0  0  0  0  0  0  0  0  0  0  0  0
    8.0890   -3.2250  -50.1370 C   0  0  0  0  0  0  0  0  0  0  0  0
    7.4490   -4.4160  -50.4780 C   0  0  0  0  0  0  0  0  0  0  0  0
    6.8390   -4.5460  -51.7230 C   0  0  0  0  0  0  0  0  0  0  0  0
    6.8610   -3.4810  -52.6280 C   0  0  0  0  0  0  0  0  0  0  0  0
    6.4190   -0.3870  -53.4000 N   0  0  0  0  0  0  0  0  0  0  0  0
    6.7530    0.4600  -54.3760 N   0  0  0  0  0  0  0  0  0  0  0  0
    8.0420    0.3480  -54.8100 C   0  0  0  0  0  0  0  0  0  0  0  0
    8.6410    1.1610  -55.8380 C   0  0  0  0  0  0  0  0  0  0  0  0
    9.8270    1.0930  -56.1440 O   0  0  0  0  0  0  0  0  0  0  0  0
    7.7730    2.0540  -56.4390 N   0  0  0  0  0  0  0  0  0  0  0  0
    8.2340    2.9900  -57.4580 C   0  0  0  0  0  0  0  0  0  0  0  0
    8.5550    4.3490  -56.8240 C   0  0  0  0  0  0  0  0  0  0  0  0
    8.9910    5.3730  -57.8680 C   0  0  0  0  0  0  0  0  0  0  0  0
    7.9540    5.5200  -58.9780 C   0  0  0  0  0  0  0  0  0  0  0  0
    7.6210    4.1750  -59.6150 C   0  0  0  0  0  0  0  0  0  0  0  0
    7.1880    3.1480  -58.5730 C   0  0  0  0  0  0  0  0  0  0  0  0
   10.3525   -1.4322  -53.1941 H   0  0  0  0  0  0  0  0  0  0  0  0
    9.9210   -2.2274  -54.7459 H   0  0  0  0  0  0  0  0  0  0  0  0
   10.5818   -0.5571  -54.7459 H   0  0  0  0  0  0  0  0  0  0  0  0
    8.6205   -1.2229  -50.7688 H   0  0  0  0  0  0  0  0  0  0  0  0
    8.5768   -3.1243  -49.1562 H   0  0  0  0  0  0  0  0  0  0  0  0
    7.4260   -5.2524  -49.7639 H   0  0  0  0  0  0  0  0  0  0  0  0
    6.3394   -5.4876  -51.9945 H   0  0  0  0  0  0  0  0  0  0  0  0
    6.3819   -3.5909  -53.6121 H   0  0  0  0  0  0  0  0  0  0  0  0
    6.0410    1.0960  -54.7180 H   0  0  0  0  0  0  0  0  0  0  0  0
    6.9180    2.2830  -55.9520 H   0  0  0  0  0  0  0  0  0  0  0  0
    9.1521    2.5852  -57.9089 H   0  0  0  0  0  0  0  0  0  0  0  0
    7.6568    4.7237  -56.3113 H   0  0  0  0  0  0  0  0  0  0  0  0
    9.3849    4.2083  -56.1159 H   0  0  0  0  0  0  0  0  0  0  0  0
    9.1285    6.3475  -57.3766 H   0  0  0  0  0  0  0  0  0  0  0  0
    9.9315    5.0247  -58.3198 H   0  0  0  0  0  0  0  0  0  0  0  0
    7.0354    5.9516  -58.5538 H   0  0  0  0  0  0  0  0  0  0  0  0
    8.3724    6.1756  -59.7559 H   0  0  0  0  0  0  0  0  0  0  0  0
    6.8038    4.3156  -60.3378 H   0  0  0  0  0  0  0  0  0  0  0  0
    8.5269    3.7977  -60.1121 H   0  0  0  0  0  0  0  0  0  0  0  0
    6.2373    3.4737  -58.1257 H   0  0  0  0  0  0  0  0  0  0  0  0
    7.0758    2.1765  -59.0766 H   0  0  0  0  0  0  0  0  0  0  0  0
  1  2  1  0
  2  3  1  0
  3  4  1  0
  4  5  2  0
  5  6  1  0
  6  7  2  0
  7  8  1  0
  8  9  2  0
  3 10  2  0
 10 11  1  0
 11 12  1  0
 12 13  1  0
 13 14  2  0
 13 15  1  0
 15 16  1  0
 16 17  1  0
 17 18  1  0
 18 19  1  0
 19 20  1  0
 20 21  1  0
 12  2  2  0
 21 16  1  0
  9  4  1  0
  1 22  1  0
  1 23  1  0
  1 24  1  0
  5 25  1  0
  6 26  1  0
  7 27  1  0
  8 28  1  0
  9 29  1  0
 11 30  1  0
 15 31  1  0
 16 32  1  0
 17 33  1  0
 17 34  1  0
 18 35  1  0
 18 36  1  0
 19 37  1  0
 19 38  1  0
 20 39  1  0
 20 40  1  0
 21 41  1  0
 21 42  1  0
M  END
>  <meeko>  (77) 
{"is_sidechain": false}

$$$$

     RDKit          3D

 45 47  0  0  0  0  0  0  0  0999 V2000
    6.2320    1.0280  -59.6340 C   0  0  0  0  0  0  0  0  0  0  0  0
    7.3410    1.8720  -59.1130 C   0  0  0  0  0  0  0  0  0  0  0  0
    7.5810    2.2040  -57.7550 C   0  0  0  0  0  0  0  0  0  0  0  0
    6.8050    1.7990  -56.5670 C   0  0  0  0  0  0  0  0  0  0  0  0
    5.7270    2.2970  -56.2610 O   0  0  0  0  0  0  0  0  0  0  0  0
    7.4290    0.8130  -55.8300 N   0  0  0  0  0  0  0  0  0  0  0  0
    6.9690    0.3970  -54.5180 C   0  0  0  0  0  0  0  0  0  0  0  0
    5.9630   -0.7590  -54.6420 C   0  0  0  0  0  0  0  0  0  0  0  0
    6.6430   -2.1190  -54.5420 C   0  0  0  0  0  0  0  0  0  0  0  0
    7.3520   -2.3030  -53.1990 C   0  0  0  0  0  0  0  0  0  0  0  0
    7.8160   -0.9890  -52.5670 C   0  0  0  0  0  0  0  0  0  0  0  0
    8.1730    0.0470  -53.6240 C   0  0  0  0  0  0  0  0  0  0  0  0
    8.6450    3.0180  -57.6370 N   0  0  0  0  0  0  0  0  0  0  0  0
    9.1630    3.1320  -58.8910 N   0  0  0  0  0  0  0  0  0  0  0  0
   10.4200    3.7990  -59.0490 C   0  0  0  0  0  0  0  0  0  0  0  0
   10.4420    5.0710  -59.6490 C   0  0  0  0  0  0  0  0  0  0  0  0
   11.6440    5.7600  -59.8220 C   0  0  0  0  0  0  0  0  0  0  0  0
   12.8380    5.1940  -59.3860 C   0  0  0  0  0  0  0  0  0  0  0  0
   12.8280    3.9460  -58.7690 C   0  0  0  0  0  0  0  0  0  0  0  0
   11.6250    3.2510  -58.5960 C   0  0  0  0  0  0  0  0  0  0  0  0
    8.3210    2.5450  -59.8300 C   0  0  0  0  0  0  0  0  0  0  0  0
    8.4410    2.6840  -61.3060 C   0  0  0  0  0  0  0  0  0  0  0  0
    5.6697    0.6001  -58.7910 H   0  0  0  0  0  0  0  0  0  0  0  0
    5.5593    1.6447  -60.2481 H   0  0  0  0  0  0  0  0  0  0  0  0
    6.6471    0.2153  -60.2481 H   0  0  0  0  0  0  0  0  0  0  0  0
    8.3760    0.6010  -56.1380 H   0  0  0  0  0  0  0  0  0  0  0  0
    6.4357    1.2279  -54.0331 H   0  0  0  0  0  0  0  0  0  0  0  0
    5.2210   -0.6725  -53.8346 H   0  0  0  0  0  0  0  0  0  0  0  0
    5.4848   -0.6895  -55.6302 H   0  0  0  0  0  0  0  0  0  0  0  0
    5.8828   -2.9061  -54.6540 H   0  0  0  0  0  0  0  0  0  0  0  0
    7.3987   -2.1825  -55.3388 H   0  0  0  0  0  0  0  0  0  0  0  0
    6.6575   -2.7972  -52.5038 H   0  0  0  0  0  0  0  0  0  0  0  0
    8.2525   -2.9055  -53.3891 H   0  0  0  0  0  0  0  0  0  0  0  0
    7.0073   -0.5912  -51.9364 H   0  0  0  0  0  0  0  0  0  0  0  0
    8.7162   -1.1943  -51.9691 H   0  0  0  0  0  0  0  0  0  0  0  0
    8.5202    0.9619  -53.1216 H   0  0  0  0  0  0  0  0  0  0  0  0
    8.9598   -0.3781  -54.2645 H   0  0  0  0  0  0  0  0  0  0  0  0
    9.5003    5.5287  -59.9862 H   0  0  0  0  0  0  0  0  0  0  0  0
   11.6471    6.7495  -60.3026 H   0  0  0  0  0  0  0  0  0  0  0  0
   13.7873    5.7312  -59.5284 H   0  0  0  0  0  0  0  0  0  0  0  0
   13.7709    3.5034  -58.4153 H   0  0  0  0  0  0  0  0  0  0  0  0
   11.6272    2.2686  -58.1011 H   0  0  0  0  0  0  0  0  0  0  0  0
    9.1431    3.4973  -61.5418 H   0  0  0  0  0  0  0  0  0  0  0  0
    8.8142    1.7418  -61.7339 H   0  0  0  0  0  0  0  0  0  0  0  0
    7.4545    2.9157  -61.7339 H   0  0  0  0  0  0  0  0  0  0  0  0
  1  2  1  0
  2  3  1  0
  3  4  1  0
  4  5  2  0
  4  6  1  0
  6  7  1  0
  7  8  1  0
  8  9  1  0
  9 10  1  0
 10 11  1  0
 11 12  1  0
  3 13  2  0
 13 14  1  0
 14 15  1  0
 15 16  2  0
 16 17  1  0
 17 18  2  0
 18 19  1  0
 19 20  2  0
 14 21  1  0
 21 22  1  0
 21  2  2  0
 12  7  1  0
 20 15  1  0
  1 23  1  0
  1 24  1  0
  1 25  1  0
  6 26  1  0
  7 27  1  0
  8 28  1  0
  8 29  1  0
  9 30  1  0
  9 31  1  0
 10 32  1  0
 10 33  1  0
 11 34  1  0
 11 35  1  0
 12 36  1  0
 12 37  1  0
 16 38  1  0
 17 39  1  0
 18 40  1  0
 19 41  1  0
 20 42  1  0
 22 43  1  0
 22 44  1  0
 22 45  1  0
M  END
>  <meeko>  (78) 
{"is_sidechain": false}

$$$$

     RDKit          3D

 48 50  0  0  0  0  0  0  0  0999 V2000
    6.3300   -0.2260  -53.9980 C   0  0  0  0  0  0  0  0  0  0  0  0
    7.7630   -0.6020  -54.1110 C   0  0  0  0  0  0  0  0  0  0  0  0
    8.7350   -0.0080  -54.9730 C   0  0  0  0  0  0  0  0  0  0  0  0
    8.5450    1.1070  -55.9210 C   0  0  0  0  0  0  0  0  0  0  0  0
    7.4510    1.6050  -56.1700 O   0  0  0  0  0  0  0  0  0  0  0  0
    9.7300    1.5390  -56.4800 N   0  0  0  0  0  0  0  0  0  0  0  0
    9.8420    2.7440  -57.2840 C   0  0  0  0  0  0  0  0  0  0  0  0
   11.0710    2.6680  -58.1940 C   0  0  0  0  0  0  0  0  0  0  0  0
   10.9700    3.4040  -59.5320 C   0  0  0  0  0  0  0  0  0  0  0  0
    9.8380    4.4260  -59.5570 C   0  0  0  0  0  0  0  0  0  0  0  0
    9.9290    5.5230  -58.5030 C   0  0  0  0  0  0  0  0  0  0  0  0
    9.2530    5.2570  -57.1600 C   0  0  0  0  0  0  0  0  0  0  0  0
    9.7540    4.0160  -56.4230 C   0  0  0  0  0  0  0  0  0  0  0  0
    9.9410   -0.5970  -54.8260 N   0  0  0  0  0  0  0  0  0  0  0  0
    9.7370   -1.5380  -53.8870 N   0  0  0  0  0  0  0  0  0  0  0  0
   10.8520   -2.3540  -53.4600 C   0  0  0  0  0  0  0  0  0  0  0  0
    8.4450   -1.5970  -53.4270 C   0  0  0  0  0  0  0  0  0  0  0  0
    7.9810   -2.5370  -52.4130 C   0  0  0  0  0  0  0  0  0  0  0  0
    8.1570   -2.2570  -51.0520 C   0  0  0  0  0  0  0  0  0  0  0  0
    7.7080   -3.1580  -50.0850 C   0  0  0  0  0  0  0  0  0  0  0  0
    7.0850   -4.3430  -50.4720 C   0  0  0  0  0  0  0  0  0  0  0  0
    6.9120   -4.6310  -51.8260 C   0  0  0  0  0  0  0  0  0  0  0  0
    7.3610   -3.7320  -52.7940 C   0  0  0  0  0  0  0  0  0  0  0  0
    6.0527   -0.1532  -52.9360 H   0  0  0  0  0  0  0  0  0  0  0  0
    6.1662    0.7455  -54.4872 H   0  0  0  0  0  0  0  0  0  0  0  0
    5.7103   -0.9919  -54.4872 H   0  0  0  0  0  0  0  0  0  0  0  0
   10.5570    1.1000  -56.0810 H   0  0  0  0  0  0  0  0  0  0  0  0
    8.9746    2.8118  -57.9571 H   0  0  0  0  0  0  0  0  0  0  0  0
   11.9234    3.0911  -57.6422 H   0  0  0  0  0  0  0  0  0  0  0  0
   11.1800    1.6042  -58.4517 H   0  0  0  0  0  0  0  0  0  0  0  0
   11.9199    3.9262  -59.7191 H   0  0  0  0  0  0  0  0  0  0  0  0
   10.7584    2.6544  -60.3087 H   0  0  0  0  0  0  0  0  0  0  0  0
    9.8343    4.9052  -60.5471 H   0  0  0  0  0  0  0  0  0  0  0  0
    8.9173    3.8663  -59.3355 H   0  0  0  0  0  0  0  0  0  0  0  0
   10.9958    5.7055  -58.3063 H   0  0  0  0  0  0  0  0  0  0  0  0
    9.3820    6.3753  -58.9323 H   0  0  0  0  0  0  0  0  0  0  0  0
    9.4224    6.1304  -56.5131 H   0  0  0  0  0  0  0  0  0  0  0  0
    8.1901    5.0777  -57.3794 H   0  0  0  0  0  0  0  0  0  0  0  0
   10.7584    4.2335  -56.0307 H   0  0  0  0  0  0  0  0  0  0  0  0
    9.0157    3.8054  -55.6352 H   0  0  0  0  0  0  0  0  0  0  0  0
   10.8876   -2.3800  -52.3609 H   0  0  0  0  0  0  0  0  0  0  0  0
   10.7278   -3.3761  -53.8472 H   0  0  0  0  0  0  0  0  0  0  0  0
   11.7887   -1.9265  -53.8472 H   0  0  0  0  0  0  0  0  0  0  0  0
    8.6509   -1.3236  -50.7440 H   0  0  0  0  0  0  0  0  0  0  0  0
    7.8460   -2.9326  -49.0172 H   0  0  0  0  0  0  0  0  0  0  0  0
    6.7295   -5.0516  -49.7095 H   0  0  0  0  0  0  0  0  0  0  0  0
    6.4214   -5.5672  -52.1306 H   0  0  0  0  0  0  0  0  0  0  0  0
    7.2270   -3.9637  -53.8609 H   0  0  0  0  0  0  0  0  0  0  0  0
  1  2  1  0
  2  3  1  0
  3  4  1  0
  4  5  2  0
  4  6  1  0
  6  7  1  0
  7  8  1  0
  8  9  1  0
  9 10  1  0
 10 11  1  0
 11 12  1  0
 12 13  1  0
  3 14  2  0
 14 15  1  0
 15 16  1  0
 15 17  1  0
 17 18  1  0
 18 19  2  0
 19 20  1  0
 20 21  2  0
 21 22  1  0
 22 23  2  0
 17  2  2  0
 23 18  1  0
 13  7  1  0
  1 24  1  0
  1 25  1  0
  1 26  1  0
  6 27  1  0
  7 28  1  0
  8 29  1  0
  8 30  1  0
  9 31  1  0
  9 32  1  0
 10 33  1  0
 10 34  1  0
 11 35  1  0
 11 36  1  0
 12 37  1  0
 12 38  1  0
 13 39  1  0
 13 40  1  0
 16 41  1  0
 16 42  1  0
 16 43  1  0
 19 44  1  0
 20 45  1  0
 21 46  1  0
 22 47  1  0
 23 48  1  0
M  END
>  <meeko>  (79) 
{"is_sidechain": false}

$$$$

     RDKit          3D

 48 52  0  0  0  0  0  0  0  0999 V2000
    6.3110    2.2070  -56.6960 O   0  0  0  0  0  0  0  0  0  0  0  0
    7.3560    1.6790  -56.3400 C   0  0  0  0  0  0  0  0  0  0  0  0
    8.6070    1.9760  -56.8370 N   0  0  0  0  0  0  0  0  0  0  0  0
    8.9050    2.9660  -57.8720 C   0  0  2  0  0  0  0  0  0  0  0  0
    8.7490    4.3830  -57.2580 C   0  0  0  0  0  0  0  0  0  0  0  0
    9.0500    5.4710  -58.3020 C   0  0  1  0  0  0  0  0  0  0  0  0
   10.4900    5.2980  -58.8090 C   0  0  0  0  0  0  0  0  0  0  0  0
   10.6590    3.9090  -59.4450 C   0  0  2  0  0  0  0  0  0  0  0  0
    9.6740    3.7650  -60.6170 C   0  0  0  0  0  0  0  0  0  0  0  0
    8.2280    3.9350  -60.1190 C   0  0  2  0  0  0  0  0  0  0  0  0
    8.0730    5.3230  -59.4790 C   0  0  0  0  0  0  0  0  0  0  0  0
    7.9250    2.8530  -59.0670 C   0  0  0  0  0  0  0  0  0  0  0  0
   10.3570    2.8280  -58.3930 C   0  0  0  0  0  0  0  0  0  0  0  0
    7.3560    0.6200  -55.2900 C   0  0  0  0  0  0  0  0  0  0  0  0
    8.4890    0.3950  -54.5270 C   0  0  0  0  0  0  0  0  0  0  0  0
    8.5340   -0.5580  -53.5600 N   0  0  0  0  0  0  0  0  0  0  0  0
    7.4040   -1.2970  -53.3730 C   0  0  0  0  0  0  0  0  0  0  0  0
    7.4620   -2.3320  -52.3230 C   0  0  0  0  0  0  0  0  0  0  0  0
    6.9570   -3.6240  -52.5620 C   0  0  0  0  0  0  0  0  0  0  0  0
    7.0080   -4.6240  -51.5860 C   0  0  0  0  0  0  0  0  0  0  0  0
    7.5630   -4.3520  -50.3410 C   0  0  0  0  0  0  0  0  0  0  0  0
    8.0610   -3.0810  -50.0710 C   0  0  0  0  0  0  0  0  0  0  0  0
    8.0080   -2.0830  -51.0500 C   0  0  0  0  0  0  0  0  0  0  0  0
    6.2690   -1.0440  -54.1510 C   0  0  0  0  0  0  0  0  0  0  0  0
    6.2080   -0.0950  -55.1220 N   0  0  0  0  0  0  0  0  0  0  0  0
    9.3700    1.4370  -56.4320 H   0  0  0  0  0  0  0  0  0  0  0  0
    7.7176    4.5069  -56.8962 H   0  0  0  0  0  0  0  0  0  0  0  0
    9.4632    4.4862  -56.4277 H   0  0  0  0  0  0  0  0  0  0  0  0
    8.9351    6.4668  -57.8490 H   0  0  0  0  0  0  0  0  0  0  0  0
   10.7073    6.0717  -59.5601 H   0  0  0  0  0  0  0  0  0  0  0  0
   11.1855    5.3949  -57.9623 H   0  0  0  0  0  0  0  0  0  0  0  0
   11.6900    3.7921  -59.8103 H   0  0  0  0  0  0  0  0  0  0  0  0
    9.8916    4.5354  -61.3714 H   0  0  0  0  0  0  0  0  0  0  0  0
    9.7862    2.7642  -61.0596 H   0  0  0  0  0  0  0  0  0  0  0  0
    7.5298    3.8371  -60.9634 H   0  0  0  0  0  0  0  0  0  0  0  0
    8.2882    6.0968  -60.2306 H   0  0  0  0  0  0  0  0  0  0  0  0
    7.0431    5.4376  -59.1100 H   0  0  0  0  0  0  0  0  0  0  0  0
    6.8948    2.9807  -58.7032 H   0  0  0  0  0  0  0  0  0  0  0  0
    8.0441    1.8630  -59.5314 H   0  0  0  0  0  0  0  0  0  0  0  0
   10.4851    1.8348  -58.8480 H   0  0  0  0  0  0  0  0  0  0  0  0
   11.0505    2.9514  -57.5481 H   0  0  0  0  0  0  0  0  0  0  0  0
    9.3833    1.0088  -54.7100 H   0  0  0  0  0  0  0  0  0  0  0  0
    6.5110   -3.8527  -53.5412 H   0  0  0  0  0  0  0  0  0  0  0  0
    6.6090   -5.6258  -51.8034 H   0  0  0  0  0  0  0  0  0  0  0  0
    7.6083   -5.1379  -49.5727 H   0  0  0  0  0  0  0  0  0  0  0  0
    8.4973   -2.8605  -49.0856 H   0  0  0  0  0  0  0  0  0  0  0  0
    8.4016   -1.0820  -50.8198 H   0  0  0  0  0  0  0  0  0  0  0  0
    5.3704   -1.6507  -53.9653 H   0  0  0  0  0  0  0  0  0  0  0  0
  1  2  2  0
  2  3  1  0
  4  3  1  1
  4  5  1  0
  5  6  1  0
  6  7  1  0
  7  8  1  0
  8  9  1  0
  9 10  1  0
 10 11  1  0
 10 12  1  0
  8 13  1  0
  2 14  1  0
 14 15  2  0
 15 16  1  0
 16 17  2  0
 17 18  1  0
 18 19  2  0
 19 20  1  0
 20 21  2  0
 21 22  1  0
 22 23  2  0
 17 24  1  0
 24 25  2  0
 12  4  1  0
 25 14  1  0
 13  4  1  0
 23 18  1  0
 11  6  1  0
  3 26  1  0
  5 27  1  0
  5 28  1  0
  6 29  1  1
  7 30  1  0
  7 31  1  0
  8 32  1  6
  9 33  1  0
  9 34  1  0
 10 35  1  6
 11 36  1  0
 11 37  1  0
 12 38  1  0
 12 39  1  0
 13 40  1  0
 13 41  1  0
 15 42  1  0
 19 43  1  0
 20 44  1  0
 21 45  1  0
 22 46  1  0
 23 47  1  0
 24 48  1  0
M  END
>  <meeko>  (80) 
{"is_sidechain": false}

$$$$

     RDKit          3D

 45 49  0  0  0  0  0  0  0  0999 V2000
    6.6560    1.8600  -56.3500 O   0  0  0  0  0  0  0  0  0  0  0  0
    7.7660    1.4090  -56.0800 C   0  0  0  0  0  0  0  0  0  0  0  0
    8.9210    1.8450  -56.7090 N   0  0  0  0  0  0  0  0  0  0  0  0
    8.9980    2.8690  -57.7510 C   0  0  2  0  0  0  0  0  0  0  0  0
    8.0480    2.5540  -58.9330 C   0  0  0  0  0  0  0  0  0  0  0  0
    8.1870    3.6180  -60.0370 C   0  0  1  0  0  0  0  0  0  0  0  0
    7.8470    5.0010  -59.4520 C   0  0  0  0  0  0  0  0  0  0  0  0
    8.8080    5.3400  -58.3010 C   0  0  2  0  0  0  0  0  0  0  0  0
   10.2510    5.3400  -58.8280 C   0  0  0  0  0  0  0  0  0  0  0  0
   10.5990    3.9590  -59.4050 C   0  0  2  0  0  0  0  0  0  0  0  0
    9.6330    3.6290  -60.5540 C   0  0  0  0  0  0  0  0  0  0  0  0
   10.4490    2.9000  -58.3010 C   0  0  0  0  0  0  0  0  0  0  0  0
    8.6690    4.2770  -57.1960 C   0  0  0  0  0  0  0  0  0  0  0  0
    8.0080    0.3780  -55.0820 C   0  0  0  0  0  0  0  0  0  0  0  0
    9.2060   -0.1050  -54.8220 N   0  0  0  0  0  0  0  0  0  0  0  0
    9.1610   -1.0710  -53.8380 N   0  0  0  0  0  0  0  0  0  0  0  0
    7.9370   -1.2900  -53.3810 C   0  0  0  0  0  0  0  0  0  0  0  0
    7.6060   -2.2680  -52.3270 C   0  0  0  0  0  0  0  0  0  0  0  0
    6.8140   -3.3820  -52.6610 C   0  0  0  0  0  0  0  0  0  0  0  0
    6.4690   -4.3410  -51.7050 C   0  0  0  0  0  0  0  0  0  0  0  0
    6.9100   -4.2050  -50.3920 C   0  0  0  0  0  0  0  0  0  0  0  0
    7.6950   -3.1120  -50.0370 C   0  0  0  0  0  0  0  0  0  0  0  0
    8.0410   -2.1520  -50.9960 C   0  0  0  0  0  0  0  0  0  0  0  0
    6.7490   -0.3040  -54.1520 S   0  0  0  0  0  0  0  0  0  0  0  0
    9.7810    1.3970  -56.4010 H   0  0  0  0  0  0  0  0  0  0  0  0
    8.3015    1.5672  -59.3477 H   0  0  0  0  0  0  0  0  0  0  0  0
    7.0112    2.5569  -58.5657 H   0  0  0  0  0  0  0  0  0  0  0  0
    7.5008    3.3848  -60.8645 H   0  0  0  0  0  0  0  0  0  0  0  0
    7.9410    5.7623  -60.2404 H   0  0  0  0  0  0  0  0  0  0  0  0
    6.8166    4.9851  -59.0671 H   0  0  0  0  0  0  0  0  0  0  0  0
    8.5641    6.3322  -57.8936 H   0  0  0  0  0  0  0  0  0  0  0  0
   10.3509    6.1002  -59.6168 H   0  0  0  0  0  0  0  0  0  0  0  0
   10.9381    5.5694  -58.0001 H   0  0  0  0  0  0  0  0  0  0  0  0
   11.6328    3.9643  -59.7807 H   0  0  0  0  0  0  0  0  0  0  0  0
    9.7321    4.3890  -61.3430 H   0  0  0  0  0  0  0  0  0  0  0  0
    9.8793    2.6365  -60.9594 H   0  0  0  0  0  0  0  0  0  0  0  0
   10.6977    1.9116  -58.7149 H   0  0  0  0  0  0  0  0  0  0  0  0
   11.1303    3.1558  -57.4761 H   0  0  0  0  0  0  0  0  0  0  0  0
    9.3635    4.5141  -56.3766 H   0  0  0  0  0  0  0  0  0  0  0  0
    7.6322    4.2804  -56.8284 H   0  0  0  0  0  0  0  0  0  0  0  0
    6.4593   -3.5004  -53.6955 H   0  0  0  0  0  0  0  0  0  0  0  0
    5.8488   -5.2035  -51.9903 H   0  0  0  0  0  0  0  0  0  0  0  0
    6.6392   -4.9585  -49.6377 H   0  0  0  0  0  0  0  0  0  0  0  0
    8.0447   -3.0019  -48.9999 H   0  0  0  0  0  0  0  0  0  0  0  0
    8.6631   -1.2936  -50.7027 H   0  0  0  0  0  0  0  0  0  0  0  0
  1  2  2  0
  2  3  1  0
  4  3  1  1
  4  5  1  0
  5  6  1  0
  6  7  1  0
  7  8  1  0
  8  9  1  0
  9 10  1  0
 10 11  1  0
 10 12  1  0
  8 13  1  0
  2 14  1  0
 14 15  2  0
 15 16  1  0
 16 17  2  0
 17 18  1  0
 18 19  2  0
 19 20  1  0
 20 21  2  0
 21 22  1  0
 22 23  2  0
 17 24  1  0
 12  4  1  0
 24 14  1  0
 13  4  1  0
 23 18  1  0
 11  6  1  0
  3 25  1  0
  5 26  1  0
  5 27  1  0
  6 28  1  6
  7 29  1  0
  7 30  1  0
  8 31  1  1
  9 32  1  0
  9 33  1  0
 10 34  1  6
 11 35  1  0
 11 36  1  0
 12 37  1  0
 12 38  1  0
 13 39  1  0
 13 40  1  0
 19 41  1  0
 20 42  1  0
 21 43  1  0
 22 44  1  0
 23 45  1  0
M  END
>  <meeko>  (81) 
{"is_sidechain": false}

$$$$

     RDKit          3D

 48 52  0  0  0  0  0  0  0  0999 V2000
    6.3990    2.1480  -56.6530 O   0  0  0  0  0  0  0  0  0  0  0  0
    7.4450    1.6000  -56.3290 C   0  0  0  0  0  0  0  0  0  0  0  0
    8.6870    1.9160  -56.8430 N   0  0  0  0  0  0  0  0  0  0  0  0
    8.9240    2.9780  -57.8320 C   0  0  2  0  0  0  0  0  0  0  0  0
   10.3790    2.8360  -58.3580 C   0  0  0  0  0  0  0  0  0  0  0  0
   10.7000    3.9230  -59.3960 C   0  0  1  0  0  0  0  0  0  0  0  0
    9.7280    3.7950  -60.5780 C   0  0  0  0  0  0  0  0  0  0  0  0
    8.2820    3.9560  -60.0860 C   0  0  2  0  0  0  0  0  0  0  0  0
    8.1180    5.3370  -59.4290 C   0  0  0  0  0  0  0  0  0  0  0  0
    9.0880    5.4760  -58.2430 C   0  0  2  0  0  0  0  0  0  0  0  0
   10.5300    5.3060  -58.7450 C   0  0  0  0  0  0  0  0  0  0  0  0
    8.7780    4.3850  -57.2030 C   0  0  0  0  0  0  0  0  0  0  0  0
    7.9720    2.8610  -59.0490 C   0  0  0  0  0  0  0  0  0  0  0  0
    7.4030    0.5510  -55.2940 C   0  0  0  0  0  0  0  0  0  0  0  0
    6.2820   -0.1790  -54.9720 C   0  0  0  0  0  0  0  0  0  0  0  0
    6.2580   -1.1410  -54.0220 N   0  0  0  0  0  0  0  0  0  0  0  0
    7.4100   -1.3620  -53.3510 C   0  0  0  0  0  0  0  0  0  0  0  0
    7.4170   -2.4080  -52.3080 C   0  0  0  0  0  0  0  0  0  0  0  0
    8.1670   -2.2630  -51.1240 C   0  0  0  0  0  0  0  0  0  0  0  0
    8.1730   -3.2520  -50.1350 C   0  0  0  0  0  0  0  0  0  0  0  0
    7.4260   -4.4140  -50.3060 C   0  0  0  0  0  0  0  0  0  0  0  0
    6.6750   -4.5860  -51.4640 C   0  0  0  0  0  0  0  0  0  0  0  0
    6.6710   -3.5950  -52.4510 C   0  0  0  0  0  0  0  0  0  0  0  0
    8.5540   -0.6840  -53.5780 N   0  0  0  0  0  0  0  0  0  0  0  0
    8.5200    0.2660  -54.5430 C   0  0  0  0  0  0  0  0  0  0  0  0
    9.5040    1.5950  -56.3400 H   0  0  0  0  0  0  0  0  0  0  0  0
   11.0772    2.9285  -57.5131 H   0  0  0  0  0  0  0  0  0  0  0  0
   10.4825    1.8520  -58.8387 H   0  0  0  0  0  0  0  0  0  0  0  0
   11.7337    3.8051  -59.7531 H   0  0  0  0  0  0  0  0  0  0  0  0
    9.9502    4.5769  -61.3192 H   0  0  0  0  0  0  0  0  0  0  0  0
    9.8456    2.8025  -61.0375 H   0  0  0  0  0  0  0  0  0  0  0  0
    7.5910    3.8667  -60.9372 H   0  0  0  0  0  0  0  0  0  0  0  0
    8.3345    6.1206  -60.1700 H   0  0  0  0  0  0  0  0  0  0  0  0
    7.0856    5.4422  -59.0643 H   0  0  0  0  0  0  0  0  0  0  0  0
    8.9717    6.4684  -57.7830 H   0  0  0  0  0  0  0  0  0  0  0  0
   10.7523    6.0876  -59.4865 H   0  0  0  0  0  0  0  0  0  0  0  0
   11.2215    5.3922  -57.8939 H   0  0  0  0  0  0  0  0  0  0  0  0
    9.4785    4.4790  -56.3602 H   0  0  0  0  0  0  0  0  0  0  0  0
    7.7431    4.5119  -56.8524 H   0  0  0  0  0  0  0  0  0  0  0  0
    6.9324    2.9710  -58.7068 H   0  0  0  0  0  0  0  0  0  0  0  0
    8.1156    1.8767  -59.5186 H   0  0  0  0  0  0  0  0  0  0  0  0
    5.3514    0.0322  -55.5191 H   0  0  0  0  0  0  0  0  0  0  0  0
    8.7621   -1.3501  -50.9739 H   0  0  0  0  0  0  0  0  0  0  0  0
    8.7687   -3.1114  -49.2210 H   0  0  0  0  0  0  0  0  0  0  0  0
    7.4296   -5.1926  -49.5290 H   0  0  0  0  0  0  0  0  0  0  0  0
    6.0834   -5.5027  -51.6038 H   0  0  0  0  0  0  0  0  0  0  0  0
    6.0712   -3.7458  -53.3607 H   0  0  0  0  0  0  0  0  0  0  0  0
    9.4369    0.8419  -54.7371 H   0  0  0  0  0  0  0  0  0  0  0  0
  1  2  2  0
  2  3  1  0
  4  3  1  1
  4  5  1  0
  5  6  1  0
  6  7  1  0
  7  8  1  0
  8  9  1  0
  9 10  1  0
 10 11  1  0
 10 12  1  0
  8 13  1  0
  2 14  1  0
 14 15  2  0
 15 16  1  0
 16 17  2  0
 17 18  1  0
 18 19  2  0
 19 20  1  0
 20 21  2  0
 21 22  1  0
 22 23  2  0
 17 24  1  0
 24 25  2  0
 12  4  1  0
 25 14  1  0
 13  4  1  0
 23 18  1  0
 11  6  1  0
  3 26  1  0
  5 27  1  0
  5 28  1  0
  6 29  1  6
  7 30  1  0
  7 31  1  0
  8 32  1  6
  9 33  1  0
  9 34  1  0
 10 35  1  1
 11 36  1  0
 11 37  1  0
 12 38  1  0
 12 39  1  0
 13 40  1  0
 13 41  1  0
 15 42  1  0
 19 43  1  0
 20 44  1  0
 21 45  1  0
 22 46  1  0
 23 47  1  0
 25 48  1  0
M  END
>  <meeko>  (82) 
{"is_sidechain": false}

$$$$

     RDKit          3D

 41 44  0  0  0  0  0  0  0  0999 V2000
    2.5350    1.5050  -63.2210 C   0  0  0  0  0  0  0  0  0  0  0  0
    3.6010    1.7930  -62.2120 C   0  0  0  0  0  0  0  0  0  0  0  0
    3.3340    1.7150  -60.8510 C   0  0  0  0  0  0  0  0  0  0  0  0
    4.3560    1.9910  -59.9510 C   0  0  0  0  0  0  0  0  0  0  0  0
    5.5960    2.3310  -60.4620 C   0  0  0  0  0  0  0  0  0  0  0  0
    6.7420    2.6410  -59.5580 C   0  0  0  0  0  0  0  0  0  0  0  0
    6.7010    2.3270  -58.3730 O   0  0  0  0  0  0  0  0  0  0  0  0
    7.8020    3.2870  -60.1640 N   0  0  0  0  0  0  0  0  0  0  0  0
    9.0400    3.6990  -59.5050 C   0  0  2  0  0  0  0  0  0  0  0  0
    9.6910    2.5290  -58.7250 C   0  0  0  0  0  0  0  0  0  0  0  0
   11.0150    2.9770  -58.0810 C   0  0  1  0  0  0  0  0  0  0  0  0
   11.9840    3.4390  -59.1820 C   0  0  0  0  0  0  0  0  0  0  0  0
   11.3730    4.6150  -59.9590 C   0  0  2  0  0  0  0  0  0  0  0  0
   11.1020    5.7780  -58.9920 C   0  0  0  0  0  0  0  0  0  0  0  0
   10.1280    5.3300  -57.8920 C   0  0  2  0  0  0  0  0  0  0  0  0
   10.7410    4.1470  -57.1220 C   0  0  0  0  0  0  0  0  0  0  0  0
    8.8030    4.8840  -58.5350 C   0  0  0  0  0  0  0  0  0  0  0  0
   10.0460    4.1660  -60.5910 C   0  0  0  0  0  0  0  0  0  0  0  0
    5.8380    2.4010  -61.7930 N   0  0  0  0  0  0  0  0  0  0  0  0
    4.8280    2.1290  -62.6740 N   0  0  0  0  0  0  0  0  0  0  0  0
    1.5983    1.2519  -62.7027 H   0  0  0  0  0  0  0  0  0  0  0  0
    2.3771    2.3927  -63.8511 H   0  0  0  0  0  0  0  0  0  0  0  0
    2.8456    0.6586  -63.8511 H   0  0  0  0  0  0  0  0  0  0  0  0
    2.3313    1.4396  -60.4922 H   0  0  0  0  0  0  0  0  0  0  0  0
    4.1845    1.9407  -58.8656 H   0  0  0  0  0  0  0  0  0  0  0  0
    7.6910    3.4810  -61.1570 H   0  0  0  0  0  0  0  0  0  0  0  0
    9.0015    2.1921  -57.9369 H   0  0  0  0  0  0  0  0  0  0  0  0
    9.8982    1.7073  -59.4264 H   0  0  0  0  0  0  0  0  0  0  0  0
   11.4596    2.1384  -57.5251 H   0  0  0  0  0  0  0  0  0  0  0  0
   12.9314    3.7583  -58.7232 H   0  0  0  0  0  0  0  0  0  0  0  0
   12.1680    2.6047  -59.8749 H   0  0  0  0  0  0  0  0  0  0  0  0
   12.0700    4.9415  -60.7448 H   0  0  0  0  0  0  0  0  0  0  0  0
   12.0488    6.0977  -58.5322 H   0  0  0  0  0  0  0  0  0  0  0  0
   10.6569    6.6152  -59.5496 H   0  0  0  0  0  0  0  0  0  0  0  0
    9.9412    6.1657  -57.2015 H   0  0  0  0  0  0  0  0  0  0  0  0
   11.6859    4.4657  -56.6577 H   0  0  0  0  0  0  0  0  0  0  0  0
   10.0345    3.8181  -56.3457 H   0  0  0  0  0  0  0  0  0  0  0  0
    8.1050    4.5704  -57.7447 H   0  0  0  0  0  0  0  0  0  0  0  0
    8.3817    5.7276  -59.1015 H   0  0  0  0  0  0  0  0  0  0  0  0
    9.6093    5.0089  -61.1467 H   0  0  0  0  0  0  0  0  0  0  0  0
   10.2485    3.3215  -61.2662 H   0  0  0  0  0  0  0  0  0  0  0  0
  1  2  1  0
  2  3  2  0
  3  4  1  0
  4  5  2  0
  5  6  1  0
  6  7  2  0
  6  8  1  0
  9  8  1  6
  9 10  1  0
 10 11  1  0
 11 12  1  0
 12 13  1  0
 13 14  1  0
 14 15  1  0
 15 16  1  0
 15 17  1  0
 13 18  1  0
  5 19  1  0
 19 20  2  0
 20  2  1  0
 17  9  1  0
 18  9  1  0
 16 11  1  0
  1 21  1  0
  1 22  1  0
  1 23  1  0
  3 24  1  0
  4 25  1  0
  8 26  1  0
 10 27  1  0
 10 28  1  0
 11 29  1  1
 12 30  1  0
 12 31  1  0
 13 32  1  6
 14 33  1  0
 14 34  1  0
 15 35  1  1
 16 36  1  0
 16 37  1  0
 17 38  1  0
 17 39  1  0
 18 40  1  0
 18 41  1  0
M  END
>  <meeko>  (83) 
{"is_sidechain": false}

$$$$

     RDKit          3D

 43 45  0  0  0  0  0  0  0  0999 V2000
   10.4960   -1.9730  -53.5870 C   0  0  0  0  0  0  0  0  0  0  0  0
    9.2810   -1.1690  -53.9470 C   0  0  0  0  0  0  0  0  0  0  0  0
    9.3810   -0.1750  -54.9280 C   0  0  0  0  0  0  0  0  0  0  0  0
    8.2580    0.5700  -55.2430 C   0  0  0  0  0  0  0  0  0  0  0  0
    8.3090    1.6390  -56.2800 C   0  0  0  0  0  0  0  0  0  0  0  0
    7.2810    2.1650  -56.6930 O   0  0  0  0  0  0  0  0  0  0  0  0
    9.5770    1.9790  -56.7110 N   0  0  0  0  0  0  0  0  0  0  0  0
    9.8290    3.1080  -57.5950 C   0  0  0  0  0  0  0  0  0  0  0  0
   11.0190    3.9470  -57.0940 C   0  0  0  0  0  0  0  0  0  0  0  0
   12.3280    3.5220  -57.7500 C   0  0  0  0  0  0  0  0  0  0  0  0
   12.2830    3.6920  -59.2700 C   0  0  0  0  0  0  0  0  0  0  0  0
   10.8790    3.5560  -59.8580 C   0  0  0  0  0  0  0  0  0  0  0  0
   10.0160    2.6080  -59.0360 C   0  0  0  0  0  0  0  0  0  0  0  0
    7.0660    0.3660  -54.6390 N   0  0  0  0  0  0  0  0  0  0  0  0
    6.9570   -0.6150  -53.6890 N   0  0  0  0  0  0  0  0  0  0  0  0
    8.0300   -1.3790  -53.3530 C   0  0  0  0  0  0  0  0  0  0  0  0
    7.7550   -2.4000  -52.3350 C   0  0  0  0  0  0  0  0  0  0  0  0
    7.3090   -3.6790  -52.7120 C   0  0  0  0  0  0  0  0  0  0  0  0
    7.0410   -4.6600  -51.7550 C   0  0  0  0  0  0  0  0  0  0  0  0
    7.2230   -4.3810  -50.4020 C   0  0  0  0  0  0  0  0  0  0  0  0
    7.6780   -3.1250  -50.0080 C   0  0  0  0  0  0  0  0  0  0  0  0
    7.9450   -2.1450  -50.9670 C   0  0  0  0  0  0  0  0  0  0  0  0
   10.5854   -2.0321  -52.4922 H   0  0  0  0  0  0  0  0  0  0  0  0
   10.4009   -2.9871  -54.0025 H   0  0  0  0  0  0  0  0  0  0  0  0
   11.3922   -1.4891  -54.0025 H   0  0  0  0  0  0  0  0  0  0  0  0
   10.3367    0.0108  -55.4401 H   0  0  0  0  0  0  0  0  0  0  0  0
   10.3530    1.5630  -56.2020 H   0  0  0  0  0  0  0  0  0  0  0  0
    8.9577    3.7795  -57.5888 H   0  0  0  0  0  0  0  0  0  0  0  0
   10.8314    5.0056  -57.3269 H   0  0  0  0  0  0  0  0  0  0  0  0
   11.1141    3.7915  -56.0092 H   0  0  0  0  0  0  0  0  0  0  0  0
   13.1450    4.1384  -57.3468 H   0  0  0  0  0  0  0  0  0  0  0  0
   12.4909    2.4567  -57.5297 H   0  0  0  0  0  0  0  0  0  0  0  0
   12.6698    4.6909  -59.5201 H   0  0  0  0  0  0  0  0  0  0  0  0
   12.8944    2.8869  -59.7035 H   0  0  0  0  0  0  0  0  0  0  0  0
   10.4023    4.5472  -59.8766 H   0  0  0  0  0  0  0  0  0  0  0  0
   10.9701    3.1445  -60.8741 H   0  0  0  0  0  0  0  0  0  0  0  0
    9.0288    2.5213  -59.5134 H   0  0  0  0  0  0  0  0  0  0  0  0
   10.5236    1.6330  -58.9956 H   0  0  0  0  0  0  0  0  0  0  0  0
    7.1689   -3.9106  -53.7782 H   0  0  0  0  0  0  0  0  0  0  0  0
    6.6863   -5.6527  -52.0692 H   0  0  0  0  0  0  0  0  0  0  0  0
    7.0078   -5.1511  -49.6466 H   0  0  0  0  0  0  0  0  0  0  0  0
    7.8272   -2.9045  -48.9407 H   0  0  0  0  0  0  0  0  0  0  0  0
    8.3097   -1.1582  -50.6457 H   0  0  0  0  0  0  0  0  0  0  0  0
  1  2  1  0
  2  3  1  0
  3  4  2  0
  4  5  1  0
  5  6  2  0
  5  7  1  0
  7  8  1  0
  8  9  1  0
  9 10  1  0
 10 11  1  0
 11 12  1  0
 12 13  1  0
  4 14  1  0
 14 15  2  0
 15 16  1  0
 16 17  1  0
 17 18  2  0
 18 19  1  0
 19 20  2  0
 20 21  1  0
 21 22  2  0
 16  2  2  0
 22 17  1  0
 13  8  1  0
  1 23  1  0
  1 24  1  0
  1 25  1  0
  3 26  1  0
  7 27  1  0
  8 28  1  0
  9 29  1  0
  9 30  1  0
 10 31  1  0
 10 32  1  0
 11 33  1  0
 11 34  1  0
 12 35  1  0
 12 36  1  0
 13 37  1  0
 13 38  1  0
 18 39  1  0
 19 40  1  0
 20 41  1  0
 21 42  1  0
 22 43  1  0
M  END
>  <meeko>  (84) 
{"is_sidechain": false}

$$$$

     RDKit          3D

 46 48  0  0  0  0  0  0  0  0999 V2000
   10.5050   -2.3180  -53.6970 C   0  0  0  0  0  0  0  0  0  0  0  0
    9.3920   -1.3740  -54.0460 C   0  0  0  0  0  0  0  0  0  0  0  0
    9.6150   -0.3710  -54.9950 C   0  0  0  0  0  0  0  0  0  0  0  0
    8.5790    0.4870  -55.3190 C   0  0  0  0  0  0  0  0  0  0  0  0
    8.7590    1.5650  -56.3330 C   0  0  0  0  0  0  0  0  0  0  0  0
    7.8320    2.3110  -56.6310 O   0  0  0  0  0  0  0  0  0  0  0  0
   10.0250    1.6500  -56.8800 N   0  0  0  0  0  0  0  0  0  0  0  0
   10.4320    2.7340  -57.7710 C   0  0  0  0  0  0  0  0  0  0  0  0
   11.9250    3.0230  -57.5780 C   0  0  0  0  0  0  0  0  0  0  0  0
   12.5710    3.9820  -58.5760 C   0  0  0  0  0  0  0  0  0  0  0  0
   11.7150    5.1830  -58.9700 C   0  0  0  0  0  0  0  0  0  0  0  0
   10.4460    4.8650  -59.7800 C   0  0  0  0  0  0  0  0  0  0  0  0
   10.3270    3.4310  -60.2870 C   0  0  0  0  0  0  0  0  0  0  0  0
   10.0350    2.3810  -59.2090 C   0  0  0  0  0  0  0  0  0  0  0  0
    7.3570    0.3880  -54.7490 N   0  0  0  0  0  0  0  0  0  0  0  0
    7.1340   -0.5840  -53.8090 N   0  0  0  0  0  0  0  0  0  0  0  0
    8.1270   -1.4400  -53.4480 C   0  0  0  0  0  0  0  0  0  0  0  0
    7.7460   -2.4120  -52.4150 C   0  0  0  0  0  0  0  0  0  0  0  0
    8.1180   -2.2390  -51.0710 C   0  0  0  0  0  0  0  0  0  0  0  0
    7.7510   -3.1730  -50.0980 C   0  0  0  0  0  0  0  0  0  0  0  0
    6.9980   -4.2900  -50.4520 C   0  0  0  0  0  0  0  0  0  0  0  0
    6.6070   -4.4720  -51.7750 C   0  0  0  0  0  0  0  0  0  0  0  0
    6.9740   -3.5380  -52.7480 C   0  0  0  0  0  0  0  0  0  0  0  0
   10.5930   -2.3926  -52.6031 H   0  0  0  0  0  0  0  0  0  0  0  0
   10.2880   -3.3116  -54.1160 H   0  0  0  0  0  0  0  0  0  0  0  0
   11.4499   -1.9417  -54.1160 H   0  0  0  0  0  0  0  0  0  0  0  0
   10.5986   -0.2660  -55.4762 H   0  0  0  0  0  0  0  0  0  0  0  0
   10.7390    1.0520  -56.4710 H   0  0  0  0  0  0  0  0  0  0  0  0
    9.9099    3.6715  -57.5290 H   0  0  0  0  0  0  0  0  0  0  0  0
   12.0549    3.4503  -56.5727 H   0  0  0  0  0  0  0  0  0  0  0  0
   12.4296    2.0582  -57.7349 H   0  0  0  0  0  0  0  0  0  0  0  0
   13.5031    4.3598  -58.1306 H   0  0  0  0  0  0  0  0  0  0  0  0
   12.7281    3.4031  -59.4981 H   0  0  0  0  0  0  0  0  0  0  0  0
   11.4063    5.6947  -58.0465 H   0  0  0  0  0  0  0  0  0  0  0  0
   12.3458    5.7948  -59.6316 H   0  0  0  0  0  0  0  0  0  0  0  0
    9.5758    5.0703  -59.1393 H   0  0  0  0  0  0  0  0  0  0  0  0
   10.4974    5.4975  -60.6785 H   0  0  0  0  0  0  0  0  0  0  0  0
    9.5119    3.3972  -61.0249 H   0  0  0  0  0  0  0  0  0  0  0  0
   11.3102    3.1726  -60.7072 H   0  0  0  0  0  0  0  0  0  0  0  0
    8.9519    2.1889  -59.2170 H   0  0  0  0  0  0  0  0  0  0  0  0
   10.6602    1.5158  -59.4748 H   0  0  0  0  0  0  0  0  0  0  0  0
    8.7063   -1.3561  -50.7805 H   0  0  0  0  0  0  0  0  0  0  0  0
    8.0571   -3.0257  -49.0518 H   0  0  0  0  0  0  0  0  0  0  0  0
    6.7128   -5.0271  -49.6869 H   0  0  0  0  0  0  0  0  0  0  0  0
    6.0087   -5.3515  -52.0553 H   0  0  0  0  0  0  0  0  0  0  0  0
    6.6538   -3.6866  -53.7898 H   0  0  0  0  0  0  0  0  0  0  0  0
  1  2  1  0
  2  3  1  0
  3  4  2  0
  4  5  1  0
  5  6  2  0
  5  7  1  0
  7  8  1  0
  8  9  1  0
  9 10  1  0
 10 11  1  0
 11 12  1  0
 12 13  1  0
 13 14  1  0
  4 15  1  0
 15 16  2  0
 16 17  1  0
 17 18  1  0
 18 19  2  0
 19 20  1  0
 20 21  2  0
 21 22  1  0
 22 23  2  0
 17  2  2  0
 23 18  1  0
 14  8  1  0
  1 24  1  0
  1 25  1  0
  1 26  1  0
  3 27  1  0
  7 28  1  0
  8 29  1  0
  9 30  1  0
  9 31  1  0
 10 32  1  0
 10 33  1  0
 11 34  1  0
 11 35  1  0
 12 36  1  0
 12 37  1  0
 13 38  1  0
 13 39  1  0
 14 40  1  0
 14 41  1  0
 19 42  1  0
 20 43  1  0
 21 44  1  0
 22 45  1  0
 23 46  1  0
M  END
>  <meeko>  (85) 
{"is_sidechain": false}

$$$$

     RDKit          3D

 39 40  0  0  0  0  0  0  0  0999 V2000
   10.6330   -2.1790  -53.5770 C   0  0  0  0  0  0  0  0  0  0  0  0
    9.4710   -1.2990  -53.9330 C   0  0  0  0  0  0  0  0  0  0  0  0
    9.6360   -0.3030  -54.9030 C   0  0  0  0  0  0  0  0  0  0  0  0
    8.5620    0.5110  -55.2160 C   0  0  0  0  0  0  0  0  0  0  0  0
    8.6830    1.5920  -56.2380 C   0  0  0  0  0  0  0  0  0  0  0  0
    7.6800    2.0830  -56.7420 O   0  0  0  0  0  0  0  0  0  0  0  0
    9.9780    1.9620  -56.5410 N   0  0  0  0  0  0  0  0  0  0  0  0
   10.3700    2.9970  -57.5050 C   0  0  0  0  0  0  0  0  0  0  0  0
   11.9080    3.0510  -57.5480 C   0  0  0  0  0  0  0  0  0  0  0  0
    9.8470    4.3750  -57.0710 C   0  0  0  0  0  0  0  0  0  0  0  0
    9.8560    2.6560  -58.9120 C   0  0  0  0  0  0  0  0  0  0  0  0
    7.3570    0.3770  -54.6150 N   0  0  0  0  0  0  0  0  0  0  0  0
    7.1840   -0.6040  -53.6750 N   0  0  0  0  0  0  0  0  0  0  0  0
    8.2070   -1.4360  -53.3450 C   0  0  0  0  0  0  0  0  0  0  0  0
    7.8660   -2.4500  -52.3370 C   0  0  0  0  0  0  0  0  0  0  0  0
    8.0410   -2.1800  -50.9700 C   0  0  0  0  0  0  0  0  0  0  0  0
    7.7230   -3.1350  -50.0010 C   0  0  0  0  0  0  0  0  0  0  0  0
    7.2150   -4.3750  -50.3850 C   0  0  0  0  0  0  0  0  0  0  0  0
    7.0200   -4.6570  -51.7350 C   0  0  0  0  0  0  0  0  0  0  0  0
    7.3400   -3.7010  -52.7030 C   0  0  0  0  0  0  0  0  0  0  0  0
   10.7208   -2.2455  -52.4825 H   0  0  0  0  0  0  0  0  0  0  0  0
   10.4728   -3.1843  -53.9937 H   0  0  0  0  0  0  0  0  0  0  0  0
   11.5573   -1.7523  -53.9937 H   0  0  0  0  0  0  0  0  0  0  0  0
   10.6040   -0.1698  -55.4081 H   0  0  0  0  0  0  0  0  0  0  0  0
   10.7100    1.4650  -56.0370 H   0  0  0  0  0  0  0  0  0  0  0  0
   12.3032    3.0649  -56.5216 H   0  0  0  0  0  0  0  0  0  0  0  0
   12.2913    2.1658  -58.0766 H   0  0  0  0  0  0  0  0  0  0  0  0
   12.2283    3.9609  -58.0766 H   0  0  0  0  0  0  0  0  0  0  0  0
    9.8261    4.4300  -55.9726 H   0  0  0  0  0  0  0  0  0  0  0  0
   10.5099    5.1595  -57.4649 H   0  0  0  0  0  0  0  0  0  0  0  0
    8.8305    4.5221  -57.4649 H   0  0  0  0  0  0  0  0  0  0  0  0
    8.9418    2.0495  -58.8314 H   0  0  0  0  0  0  0  0  0  0  0  0
    9.6325    3.5856  -59.4560 H   0  0  0  0  0  0  0  0  0  0  0  0
   10.6256    2.0887  -59.4560 H   0  0  0  0  0  0  0  0  0  0  0  0
    8.4345   -1.2015  -50.6573 H   0  0  0  0  0  0  0  0  0  0  0  0
    7.8735   -2.9084  -48.9352 H   0  0  0  0  0  0  0  0  0  0  0  0
    6.9686   -5.1294  -49.6233 H   0  0  0  0  0  0  0  0  0  0  0  0
    6.6138   -5.6329  -52.0395 H   0  0  0  0  0  0  0  0  0  0  0  0
    7.1779   -3.9309  -53.7664 H   0  0  0  0  0  0  0  0  0  0  0  0
  1  2  1  0
  2  3  1  0
  3  4  2  0
  4  5  1  0
  5  6  2  0
  5  7  1  0
  7  8  1  0
  8  9  1  0
  8 10  1  0
  8 11  1  0
  4 12  1  0
 12 13  2  0
 13 14  1  0
 14 15  1  0
 15 16  2  0
 16 17  1  0
 17 18  2  0
 18 19  1  0
 19 20  2  0
 14  2  2  0
 20 15  1  0
  1 21  1  0
  1 22  1  0
  1 23  1  0
  3 24  1  0
  7 25  1  0
  9 26  1  0
  9 27  1  0
  9 28  1  0
 10 29  1  0
 10 30  1  0
 10 31  1  0
 11 32  1  0
 11 33  1  0
 11 34  1  0
 16 35  1  0
 17 36  1  0
 18 37  1  0
 19 38  1  0
 20 39  1  0
M  END
>  <meeko>  (86) 
{"is_sidechain": false}

$$$$

     RDKit          3D

 40 42  0  0  0  0  0  0  0  0999 V2000
   10.1180   -1.5200  -53.6400 C   0  0  0  0  0  0  0  0  0  0  0  0
    8.7770   -0.9490  -53.9980 C   0  0  0  0  0  0  0  0  0  0  0  0
    8.6920    0.0270  -54.9980 C   0  0  0  0  0  0  0  0  0  0  0  0
    7.4530    0.5580  -55.3120 C   0  0  0  0  0  0  0  0  0  0  0  0
    7.3080    1.6070  -56.3610 C   0  0  0  0  0  0  0  0  0  0  0  0
    6.2100    2.0910  -56.6180 O   0  0  0  0  0  0  0  0  0  0  0  0
    8.4770    1.9670  -56.9940 N   0  0  0  0  0  0  0  0  0  0  0  0
    8.5030    2.8450  -58.1390 C   0  0  0  0  0  0  0  0  0  0  0  0
    9.9120    3.2760  -58.4530 C   0  0  0  0  0  0  0  0  0  0  0  0
   10.1800    4.1050  -59.5510 C   0  0  0  0  0  0  0  0  0  0  0  0
   11.4860    4.5170  -59.8230 C   0  0  0  0  0  0  0  0  0  0  0  0
   12.5340    4.1120  -58.9970 C   0  0  0  0  0  0  0  0  0  0  0  0
   12.2760    3.2960  -57.8960 C   0  0  0  0  0  0  0  0  0  0  0  0
   10.9720    2.8830  -57.6240 C   0  0  0  0  0  0  0  0  0  0  0  0
    6.3220    0.1620  -54.6860 N   0  0  0  0  0  0  0  0  0  0  0  0
    6.3950   -0.8040  -53.7180 N   0  0  0  0  0  0  0  0  0  0  0  0
    7.5890   -1.3620  -53.3840 C   0  0  0  0  0  0  0  0  0  0  0  0
    7.5070   -2.3960  -52.3430 C   0  0  0  0  0  0  0  0  0  0  0  0
    7.7350   -2.0950  -50.9900 C   0  0  0  0  0  0  0  0  0  0  0  0
    7.6540   -3.0860  -50.0090 C   0  0  0  0  0  0  0  0  0  0  0  0
    7.3490   -4.3970  -50.3660 C   0  0  0  0  0  0  0  0  0  0  0  0
    7.1330   -4.7200  -51.7040 C   0  0  0  0  0  0  0  0  0  0  0  0
    7.2160   -3.7280  -52.6840 C   0  0  0  0  0  0  0  0  0  0  0  0
   10.2180   -1.5626  -52.5454 H   0  0  0  0  0  0  0  0  0  0  0  0
   10.2076   -2.5343  -54.0561 H   0  0  0  0  0  0  0  0  0  0  0  0
   10.9113   -0.8816  -54.0561 H   0  0  0  0  0  0  0  0  0  0  0  0
    9.5955    0.3665  -55.5258 H   0  0  0  0  0  0  0  0  0  0  0  0
    9.3070    1.4220  -56.7810 H   0  0  0  0  0  0  0  0  0  0  0  0
    8.0859    2.3157  -59.0084 H   0  0  0  0  0  0  0  0  0  0  0  0
    7.9043    3.7390  -57.9105 H   0  0  0  0  0  0  0  0  0  0  0  0
    9.3564    4.4330  -60.2023 H   0  0  0  0  0  0  0  0  0  0  0  0
   11.6886    5.1623  -60.6905 H   0  0  0  0  0  0  0  0  0  0  0  0
   13.5627    4.4357  -59.2136 H   0  0  0  0  0  0  0  0  0  0  0  0
   13.1012    2.9780  -57.2419 H   0  0  0  0  0  0  0  0  0  0  0  0
   10.7735    2.2433  -56.7514 H   0  0  0  0  0  0  0  0  0  0  0  0
    7.9811   -1.0632  -50.6986 H   0  0  0  0  0  0  0  0  0  0  0  0
    7.8312   -2.8307  -48.9538 H   0  0  0  0  0  0  0  0  0  0  0  0
    7.2787   -5.1763  -49.5929 H   0  0  0  0  0  0  0  0  0  0  0  0
    6.8971   -5.7560  -51.9886 H   0  0  0  0  0  0  0  0  0  0  0  0
    7.0511   -3.9934  -53.7387 H   0  0  0  0  0  0  0  0  0  0  0  0
  1  2  1  0
  2  3  1  0
  3  4  2  0
  4  5  1  0
  5  6  2  0
  5  7  1  0
  7  8  1  0
  8  9  1  0
  9 10  2  0
 10 11  1  0
 11 12  2  0
 12 13  1  0
 13 14  2  0
  4 15  1  0
 15 16  2  0
 16 17  1  0
 17 18  1  0
 18 19  2  0
 19 20  1  0
 20 21  2  0
 21 22  1  0
 22 23  2  0
 17  2  2  0
 23 18  1  0
 14  9  1  0
  1 24  1  0
  1 25  1  0
  1 26  1  0
  3 27  1  0
  7 28  1  0
  8 29  1  0
  8 30  1  0
 10 31  1  0
 11 32  1  0
 12 33  1  0
 13 34  1  0
 14 35  1  0
 19 36  1  0
 20 37  1  0
 21 38  1  0
 22 39  1  0
 23 40  1  0
M  END
>  <meeko>  (87) 
{"is_sidechain": false}

$$$$

     RDKit          3D

 34 36  0  0  0  0  0  0  0  0999 V2000
    8.8040    4.7590  -57.0740 C   0  0  0  0  0  0  0  0  0  0  0  0
    8.4070    4.0630  -58.3430 C   0  0  0  0  0  0  0  0  0  0  0  0
    7.1230    3.5140  -58.4520 C   0  0  0  0  0  0  0  0  0  0  0  0
    6.7620    2.8860  -59.6310 C   0  0  0  0  0  0  0  0  0  0  0  0
    5.4070    2.2910  -59.8040 C   0  0  0  0  0  0  0  0  0  0  0  0
    4.6210    2.2350  -58.8630 O   0  0  0  0  0  0  0  0  0  0  0  0
    5.1360    1.8250  -61.0770 N   0  0  0  0  0  0  0  0  0  0  0  0
    3.8910    1.2350  -61.4390 C   0  0  0  0  0  0  0  0  0  0  0  0
    2.9090    1.9920  -62.2890 C   0  0  0  0  0  0  0  0  0  0  0  0
    3.6280    0.8040  -62.8560 C   0  0  0  0  0  0  0  0  0  0  0  0
    7.6080    2.7830  -60.6810 N   0  0  0  0  0  0  0  0  0  0  0  0
    8.8700    3.3040  -60.5760 N   0  0  0  0  0  0  0  0  0  0  0  0
    9.2750    3.9190  -59.4330 C   0  0  0  0  0  0  0  0  0  0  0  0
   10.6590    4.4100  -59.4610 C   0  0  0  0  0  0  0  0  0  0  0  0
   11.7190    3.5710  -59.0780 C   0  0  0  0  0  0  0  0  0  0  0  0
   13.0410    4.0240  -59.1010 C   0  0  0  0  0  0  0  0  0  0  0  0
   13.3220    5.3270  -59.5020 C   0  0  0  0  0  0  0  0  0  0  0  0
   12.2850    6.1800  -59.8720 C   0  0  0  0  0  0  0  0  0  0  0  0
   10.9640    5.7260  -59.8480 C   0  0  0  0  0  0  0  0  0  0  0  0
    8.4665    4.1673  -56.2103 H   0  0  0  0  0  0  0  0  0  0  0  0
    9.8984    4.8649  -57.0408 H   0  0  0  0  0  0  0  0  0  0  0  0
    8.3381    5.7549  -57.0408 H   0  0  0  0  0  0  0  0  0  0  0  0
    6.4133    3.5810  -57.6142 H   0  0  0  0  0  0  0  0  0  0  0  0
    5.8710    1.9180  -61.7750 H   0  0  0  0  0  0  0  0  0  0  0  0
    3.8550    0.7405  -60.4571 H   0  0  0  0  0  0  0  0  0  0  0  0
    1.8324    1.9308  -62.0719 H   0  0  0  0  0  0  0  0  0  0  0  0
    2.7893    3.0436  -62.5885 H   0  0  0  0  0  0  0  0  0  0  0  0
    3.0786   -0.1281  -63.0542 H   0  0  0  0  0  0  0  0  0  0  0  0
    4.2535    0.6241  -63.7428 H   0  0  0  0  0  0  0  0  0  0  0  0
   11.5050    2.5415  -58.7550 H   0  0  0  0  0  0  0  0  0  0  0  0
   13.8587    3.3514  -58.8025 H   0  0  0  0  0  0  0  0  0  0  0  0
   14.3626    5.6828  -59.5267 H   0  0  0  0  0  0  0  0  0  0  0  0
   12.5062    7.2116  -60.1833 H   0  0  0  0  0  0  0  0  0  0  0  0
   10.1509    6.4085  -60.1362 H   0  0  0  0  0  0  0  0  0  0  0  0
  1  2  1  0
  2  3  1  0
  3  4  2  0
  4  5  1  0
  5  6  2  0
  5  7  1  0
  7  8  1  0
  8  9  1  0
  9 10  1  0
  4 11  1  0
 11 12  2  0
 12 13  1  0
 13 14  1  0
 14 15  2  0
 15 16  1  0
 16 17  2  0
 17 18  1  0
 18 19  2  0
 13  2  2  0
 19 14  1  0
 10  8  1  0
  1 20  1  0
  1 21  1  0
  1 22  1  0
  3 23  1  0
  7 24  1  0
  8 25  1  0
  9 26  1  0
  9 27  1  0
 10 28  1  0
 10 29  1  0
 15 30  1  0
 16 31  1  0
 17 32  1  0
 18 33  1  0
 19 34  1  0
M  END
>  <meeko>  (88) 
{"is_sidechain": false}

$$$$

     RDKit          3D

 40 42  0  0  0  0  0  0  0  0999 V2000
    6.8960    2.5750  -56.8480 O   0  0  0  0  0  0  0  0  0  0  0  0
    7.8360    1.8630  -56.5120 C   0  0  0  0  0  0  0  0  0  0  0  0
    9.1080    1.9620  -57.0410 N   0  0  0  0  0  0  0  0  0  0  0  0
    9.4220    2.8310  -58.1620 C   0  0  0  0  0  0  0  0  0  0  0  0
   10.9220    3.1710  -58.1760 C   0  0  0  0  0  0  0  0  0  0  0  0
   11.4550    3.5350  -59.5640 C   0  0  0  0  0  0  0  0  0  0  0  0
   10.3730    4.1240  -60.4570 C   0  0  0  0  0  0  0  0  0  0  0  0
    9.2170    3.1450  -60.6700 C   0  0  0  0  0  0  0  0  0  0  0  0
    8.9860    2.2020  -59.4870 C   0  0  0  0  0  0  0  0  0  0  0  0
    7.6590    0.8000  -55.4820 C   0  0  0  0  0  0  0  0  0  0  0  0
    6.4530    0.1380  -55.3360 C   0  0  0  0  0  0  0  0  0  0  0  0
    6.3580   -0.8490  -54.3570 C   0  0  0  0  0  0  0  0  0  0  0  0
    7.4650   -1.1370  -53.5610 C   0  0  0  0  0  0  0  0  0  0  0  0
    7.4660   -2.1630  -52.5000 C   0  0  0  0  0  0  0  0  0  0  0  0
    7.0740   -3.4930  -52.7460 C   0  0  0  0  0  0  0  0  0  0  0  0
    7.0840   -4.4550  -51.7290 C   0  0  0  0  0  0  0  0  0  0  0  0
    7.4860   -4.1070  -50.4420 C   0  0  0  0  0  0  0  0  0  0  0  0
    7.8710   -2.7990  -50.1700 C   0  0  0  0  0  0  0  0  0  0  0  0
    7.8580   -1.8390  -51.1870 C   0  0  0  0  0  0  0  0  0  0  0  0
    8.6300   -0.4650  -53.7500 N   0  0  0  0  0  0  0  0  0  0  0  0
    8.7330    0.5110  -54.7130 N   0  0  0  0  0  0  0  0  0  0  0  0
    9.7690    1.2380  -56.7710 H   0  0  0  0  0  0  0  0  0  0  0  0
    8.8585    3.7677  -58.0391 H   0  0  0  0  0  0  0  0  0  0  0  0
   11.0913    4.0249  -57.5036 H   0  0  0  0  0  0  0  0  0  0  0  0
   11.4603    2.2687  -57.8502 H   0  0  0  0  0  0  0  0  0  0  0  0
   12.2625    4.2734  -59.4513 H   0  0  0  0  0  0  0  0  0  0  0  0
   11.8206    2.6125  -60.0388 H   0  0  0  0  0  0  0  0  0  0  0  0
    9.9828    5.0390  -59.9874 H   0  0  0  0  0  0  0  0  0  0  0  0
   10.8207    4.3430  -61.4376 H   0  0  0  0  0  0  0  0  0  0  0  0
    8.2971    3.7244  -60.8374 H   0  0  0  0  0  0  0  0  0  0  0  0
    9.4805    2.5185  -61.5349 H   0  0  0  0  0  0  0  0  0  0  0  0
    7.9147    1.9591  -59.4298 H   0  0  0  0  0  0  0  0  0  0  0  0
    9.5898    1.2970  -59.6496 H   0  0  0  0  0  0  0  0  0  0  0  0
    5.5924    0.3841  -55.9754 H   0  0  0  0  0  0  0  0  0  0  0  0
    5.4153   -1.3973  -54.2134 H   0  0  0  0  0  0  0  0  0  0  0  0
    6.7534   -3.7819  -53.7578 H   0  0  0  0  0  0  0  0  0  0  0  0
    6.7738   -5.4876  -51.9469 H   0  0  0  0  0  0  0  0  0  0  0  0
    7.4989   -4.8638  -49.6438 H   0  0  0  0  0  0  0  0  0  0  0  0
    8.1861   -2.5189  -49.1540 H   0  0  0  0  0  0  0  0  0  0  0  0
    8.1610   -0.8071  -50.9558 H   0  0  0  0  0  0  0  0  0  0  0  0
  1  2  2  0
  2  3  1  0
  3  4  1  0
  4  5  1  0
  5  6  1  0
  6  7  1  0
  7  8  1  0
  8  9  1  0
  2 10  1  0
 10 11  2  0
 11 12  1  0
 12 13  2  0
 13 14  1  0
 14 15  2  0
 15 16  1  0
 16 17  2  0
 17 18  1  0
 18 19  2  0
 13 20  1  0
 20 21  2  0
  9  4  1  0
 21 10  1  0
 19 14  1  0
  3 22  1  0
  4 23  1  0
  5 24  1  0
  5 25  1  0
  6 26  1  0
  6 27  1  0
  7 28  1  0
  7 29  1  0
  8 30  1  0
  8 31  1  0
  9 32  1  0
  9 33  1  0
 11 34  1  0
 12 35  1  0
 15 36  1  0
 16 37  1  0
 17 38  1  0
 18 39  1  0
 19 40  1  0
M  END
>  <meeko>  (89) 
{"is_sidechain": false}

$$$$

     RDKit          3D

 43 45  0  0  0  0  0  0  0  0999 V2000
    5.8540    2.2490  -57.8830 C   0  0  0  0  0  0  0  0  0  0  0  0
    6.7810    1.6970  -56.8400 C   0  0  0  0  0  0  0  0  0  0  0  0
    6.2670    0.8680  -55.8350 C   0  0  0  0  0  0  0  0  0  0  0  0
    7.1270    0.3740  -54.8700 C   0  0  0  0  0  0  0  0  0  0  0  0
    6.6300   -0.5040  -53.7720 C   0  0  0  0  0  0  0  0  0  0  0  0
    5.4690   -0.4290  -53.3840 O   0  0  0  0  0  0  0  0  0  0  0  0
    7.5660   -1.3720  -53.2440 N   0  0  0  0  0  0  0  0  0  0  0  0
    7.3010   -2.1880  -52.0710 C   0  0  0  0  0  0  0  0  0  0  0  0
    8.6010   -2.4920  -51.3160 C   0  0  0  0  0  0  0  0  0  0  0  0
    8.3580   -3.4070  -50.1190 C   0  0  0  0  0  0  0  0  0  0  0  0
    7.6380   -4.6890  -50.5260 C   0  0  0  0  0  0  0  0  0  0  0  0
    6.3430   -4.3910  -51.2760 C   0  0  0  0  0  0  0  0  0  0  0  0
    6.5850   -3.4810  -52.4760 C   0  0  0  0  0  0  0  0  0  0  0  0
    8.4470    0.6640  -54.8660 N   0  0  0  0  0  0  0  0  0  0  0  0
    8.9600    1.4620  -55.8540 N   0  0  0  0  0  0  0  0  0  0  0  0
    8.1560    1.9600  -56.8300 C   0  0  0  0  0  0  0  0  0  0  0  0
    8.8540    2.7820  -57.8290 C   0  0  0  0  0  0  0  0  0  0  0  0
    9.4510    2.2060  -58.9660 C   0  0  0  0  0  0  0  0  0  0  0  0
   10.1140    2.9990  -59.9070 C   0  0  0  0  0  0  0  0  0  0  0  0
   10.1910    4.3720  -59.7140 C   0  0  0  0  0  0  0  0  0  0  0  0
   10.8260    5.1300  -60.6160 F   0  0  0  0  0  0  0  0  0  0  0  0
    9.6220    4.9670  -58.5960 C   0  0  0  0  0  0  0  0  0  0  0  0
    8.9600    4.1750  -57.6550 C   0  0  0  0  0  0  0  0  0  0  0  0
    5.0082    2.7527  -57.3922 H   0  0  0  0  0  0  0  0  0  0  0  0
    6.3967    2.9712  -58.5107 H   0  0  0  0  0  0  0  0  0  0  0  0
    5.4776    1.4278  -58.5107 H   0  0  0  0  0  0  0  0  0  0  0  0
    5.1970    0.6137  -55.8131 H   0  0  0  0  0  0  0  0  0  0  0  0
    8.5230   -1.2610  -53.5670 H   0  0  0  0  0  0  0  0  0  0  0  0
    6.6422   -1.6256  -51.3930 H   0  0  0  0  0  0  0  0  0  0  0  0
    9.3056   -2.9834  -52.0030 H   0  0  0  0  0  0  0  0  0  0  0  0
    9.0113   -1.5418  -50.9435 H   0  0  0  0  0  0  0  0  0  0  0  0
    9.3266   -3.6697  -49.6686 H   0  0  0  0  0  0  0  0  0  0  0  0
    7.7219   -2.8698  -49.4002 H   0  0  0  0  0  0  0  0  0  0  0  0
    8.2999   -5.2791  -51.1768 H   0  0  0  0  0  0  0  0  0  0  0  0
    7.3862   -5.2475  -49.6124 H   0  0  0  0  0  0  0  0  0  0  0  0
    5.9086   -5.3382  -51.6283 H   0  0  0  0  0  0  0  0  0  0  0  0
    5.6573   -3.8762  -50.5869 H   0  0  0  0  0  0  0  0  0  0  0  0
    7.2045   -4.0166  -53.2105 H   0  0  0  0  0  0  0  0  0  0  0  0
    5.6085   -3.2124  -52.9054 H   0  0  0  0  0  0  0  0  0  0  0  0
    9.3951    1.1177  -59.1160 H   0  0  0  0  0  0  0  0  0  0  0  0
   10.5719    2.5383  -60.7948 H   0  0  0  0  0  0  0  0  0  0  0  0
    9.6921    6.0553  -58.4522 H   0  0  0  0  0  0  0  0  0  0  0  0
    8.5155    4.6461  -56.7659 H   0  0  0  0  0  0  0  0  0  0  0  0
  1  2  1  0
  2  3  1  0
  3  4  2  0
  4  5  1  0
  5  6  2  0
  5  7  1  0
  7  8  1  0
  8  9  1  0
  9 10  1  0
 10 11  1  0
 11 12  1  0
 12 13  1  0
  4 14  1  0
 14 15  2  0
 15 16  1  0
 16 17  1  0
 17 18  1  0
 18 19  2  0
 19 20  1  0
 20 21  1  0
 20 22  2  0
 22 23  1  0
 16  2  2  0
 23 17  2  0
 13  8  1  0
  1 24  1  0
  1 25  1  0
  1 26  1  0
  3 27  1  0
  7 28  1  0
  8 29  1  0
  9 30  1  0
  9 31  1  0
 10 32  1  0
 10 33  1  0
 11 34  1  0
 11 35  1  0
 12 36  1  0
 12 37  1  0
 13 38  1  0
 13 39  1  0
 18 40  1  0
 19 41  1  0
 22 42  1  0
 23 43  1  0
M  END
>  <meeko>  (90) 
{"is_sidechain": false}

$$$$

     RDKit          3D

 40 42  0  0  0  0  0  0  0  0999 V2000
    9.6880    2.4590  -60.5980 C   0  0  0  0  0  0  0  0  0  0  0  0
    9.4250    2.7530  -59.1500 C   0  0  0  0  0  0  0  0  0  0  0  0
    8.3780    2.0910  -58.4960 C   0  0  0  0  0  0  0  0  0  0  0  0
    8.1230    2.3700  -57.1610 C   0  0  0  0  0  0  0  0  0  0  0  0
    7.0280    1.6490  -56.4430 C   0  0  0  0  0  0  0  0  0  0  0  0
    5.8680    1.9820  -56.7000 O   0  0  0  0  0  0  0  0  0  0  0  0
    7.3130    0.6380  -55.5170 N   0  0  0  0  0  0  0  0  0  0  0  0
    8.6390    0.3800  -54.9480 C   0  0  0  0  0  0  0  0  0  0  0  0
    8.5600   -0.2580  -53.5640 C   0  0  0  0  0  0  0  0  0  0  0  0
    7.7530   -1.5550  -53.5720 C   0  0  0  0  0  0  0  0  0  0  0  0
    6.6270   -1.5510  -54.6060 C   0  0  0  0  0  0  0  0  0  0  0  0
    6.1950   -0.1400  -54.9840 C   0  0  0  0  0  0  0  0  0  0  0  0
    8.8810    3.2460  -56.4720 N   0  0  0  0  0  0  0  0  0  0  0  0
    9.9160    3.8960  -57.1020 N   0  0  0  0  0  0  0  0  0  0  0  0
   10.1990    3.6490  -58.4050 C   0  0  0  0  0  0  0  0  0  0  0  0
   11.3460    4.3970  -58.9350 C   0  0  0  0  0  0  0  0  0  0  0  0
   12.6450    3.8600  -58.9150 C   0  0  0  0  0  0  0  0  0  0  0  0
   13.7300    4.5820  -59.4220 C   0  0  0  0  0  0  0  0  0  0  0  0
   13.5330    5.8550  -59.9520 C   0  0  0  0  0  0  0  0  0  0  0  0
   12.2560    6.4110  -59.9680 C   0  0  0  0  0  0  0  0  0  0  0  0
   11.1730    5.6890  -59.4590 C   0  0  0  0  0  0  0  0  0  0  0  0
   10.4194    1.6414  -60.6792 H   0  0  0  0  0  0  0  0  0  0  0  0
    8.7493    2.1612  -61.0881 H   0  0  0  0  0  0  0  0  0  0  0  0
   10.0881    3.3589  -61.0881 H   0  0  0  0  0  0  0  0  0  0  0  0
    7.7631    1.3561  -59.0363 H   0  0  0  0  0  0  0  0  0  0  0  0
    9.1865   -0.2978  -55.6195 H   0  0  0  0  0  0  0  0  0  0  0  0
    9.1552    1.3459  -54.8448 H   0  0  0  0  0  0  0  0  0  0  0  0
    9.5802   -0.4777  -53.2164 H   0  0  0  0  0  0  0  0  0  0  0  0
    8.0528    0.4513  -52.8935 H   0  0  0  0  0  0  0  0  0  0  0  0
    8.4331   -2.3897  -53.7974 H   0  0  0  0  0  0  0  0  0  0  0  0
    7.2889   -1.6601  -52.5803 H   0  0  0  0  0  0  0  0  0  0  0  0
    6.9763   -2.0687  -55.5115 H   0  0  0  0  0  0  0  0  0  0  0  0
    5.7597   -2.0610  -54.1614 H   0  0  0  0  0  0  0  0  0  0  0  0
    5.4054   -0.2004  -55.7474 H   0  0  0  0  0  0  0  0  0  0  0  0
    5.8258    0.3624  -54.0778 H   0  0  0  0  0  0  0  0  0  0  0  0
   12.8104    2.8572  -58.4944 H   0  0  0  0  0  0  0  0  0  0  0  0
   14.7391    4.1446  -59.4023 H   0  0  0  0  0  0  0  0  0  0  0  0
   14.3849    6.4205  -60.3574 H   0  0  0  0  0  0  0  0  0  0  0  0
   12.0999    7.4184  -60.3813 H   0  0  0  0  0  0  0  0  0  0  0  0
   10.1695    6.1394  -59.4688 H   0  0  0  0  0  0  0  0  0  0  0  0
  1  2  1  0
  2  3  1  0
  3  4  2  0
  4  5  1  0
  5  6  2  0
  5  7  1  0
  7  8  1  0
  8  9  1  0
  9 10  1  0
 10 11  1  0
 11 12  1  0
  4 13  1  0
 13 14  2  0
 14 15  1  0
 15 16  1  0
 16 17  2  0
 17 18  1  0
 18 19  2  0
 19 20  1  0
 20 21  2  0
 15  2  2  0
 21 16  1  0
 12  7  1  0
  1 22  1  0
  1 23  1  0
  1 24  1  0
  3 25  1  0
  8 26  1  0
  8 27  1  0
  9 28  1  0
  9 29  1  0
 10 30  1  0
 10 31  1  0
 11 32  1  0
 11 33  1  0
 12 34  1  0
 12 35  1  0
 17 36  1  0
 18 37  1  0
 19 38  1  0
 20 39  1  0
 21 40  1  0
M  END
>  <meeko>  (91) 
{"is_sidechain": false}

$$$$

     RDKit          3D

 44 47  0  0  0  0  0  0  0  0999 V2000
   10.5990   -1.8520  -53.4720 C   0  0  0  0  0  0  0  0  0  0  0  0
    9.2980   -1.1520  -53.7310 C   0  0  0  0  0  0  0  0  0  0  0  0
    9.1910   -0.2380  -54.7820 C   0  0  0  0  0  0  0  0  0  0  0  0
    7.9760    0.3900  -54.9950 C   0  0  0  0  0  0  0  0  0  0  0  0
    7.8020    1.3770  -56.1000 C   0  0  0  0  0  0  0  0  0  0  0  0
    6.6800    1.6980  -56.4760 O   0  0  0  0  0  0  0  0  0  0  0  0
    8.9800    1.8680  -56.6290 N   0  0  0  0  0  0  0  0  0  0  0  0
    9.0860    2.8410  -57.7160 C   0  0  2  0  0  0  0  0  0  0  0  0
    8.1650    2.4750  -58.9050 C   0  0  0  0  0  0  0  0  0  0  0  0
    8.3310    3.4870  -60.0520 C   0  0  1  0  0  0  0  0  0  0  0  0
    7.9800    4.8950  -59.5400 C   0  0  0  0  0  0  0  0  0  0  0  0
    8.9130    5.2850  -58.3810 C   0  0  2  0  0  0  0  0  0  0  0  0
   10.3690    5.2600  -58.8730 C   0  0  0  0  0  0  0  0  0  0  0  0
   10.7290    3.8550  -59.3770 C   0  0  2  0  0  0  0  0  0  0  0  0
    9.7910    3.4730  -60.5330 C   0  0  0  0  0  0  0  0  0  0  0  0
   10.5510    2.8470  -58.2310 C   0  0  0  0  0  0  0  0  0  0  0  0
    8.7460    4.2740  -57.2340 C   0  0  0  0  0  0  0  0  0  0  0  0
    6.8920    0.1500  -54.2220 N   0  0  0  0  0  0  0  0  0  0  0  0
    6.9900   -0.7440  -53.1940 N   0  0  0  0  0  0  0  0  0  0  0  0
    8.1620   -1.3810  -52.9500 C   0  0  0  0  0  0  0  0  0  0  0  0
    8.1650   -2.3420  -51.7990 C   0  0  0  0  0  0  0  0  0  0  0  0
   10.7593   -1.9383  -52.3872 H   0  0  0  0  0  0  0  0  0  0  0  0
   10.5703   -2.8565  -53.9194 H   0  0  0  0  0  0  0  0  0  0  0  0
   11.4215   -1.2746  -53.9194 H   0  0  0  0  0  0  0  0  0  0  0  0
   10.0551   -0.0217  -55.4275 H   0  0  0  0  0  0  0  0  0  0  0  0
    9.8350    1.5070  -56.2130 H   0  0  0  0  0  0  0  0  0  0  0  0
    8.4268    1.4705  -59.2688 H   0  0  0  0  0  0  0  0  0  0  0  0
    7.1198    2.4961  -58.5628 H   0  0  0  0  0  0  0  0  0  0  0  0
    7.6638    3.2172  -60.8839 H   0  0  0  0  0  0  0  0  0  0  0  0
    8.0960    5.6194  -60.3597 H   0  0  0  0  0  0  0  0  0  0  0  0
    6.9402    4.8983  -59.1812 H   0  0  0  0  0  0  0  0  0  0  0  0
    8.6603    6.2943  -58.0241 H   0  0  0  0  0  0  0  0  0  0  0  0
   10.4888    5.9830  -59.6933 H   0  0  0  0  0  0  0  0  0  0  0  0
   11.0362    5.5268  -58.0401 H   0  0  0  0  0  0  0  0  0  0  0  0
   11.7719    3.8436  -59.7265 H   0  0  0  0  0  0  0  0  0  0  0  0
    9.9111    4.1957  -61.3536 H   0  0  0  0  0  0  0  0  0  0  0  0
   10.0453    2.4625  -60.8855 H   0  0  0  0  0  0  0  0  0  0  0  0
   10.8086    1.8410  -58.5938 H   0  0  0  0  0  0  0  0  0  0  0  0
   11.2122    3.1394  -57.4019 H   0  0  0  0  0  0  0  0  0  0  0  0
    9.4209    4.5478  -56.4097 H   0  0  0  0  0  0  0  0  0  0  0  0
    7.7005    4.2946  -56.8927 H   0  0  0  0  0  0  0  0  0  0  0  0
    8.1632   -1.7809  -50.8529 H   0  0  0  0  0  0  0  0  0  0  0  0
    7.2688   -2.9778  -51.8499 H   0  0  0  0  0  0  0  0  0  0  0  0
    9.0651   -2.9722  -51.8499 H   0  0  0  0  0  0  0  0  0  0  0  0
  1  2  1  0
  2  3  1  0
  3  4  2  0
  4  5  1  0
  5  6  2  0
  5  7  1  0
  8  7  1  1
  8  9  1  0
  9 10  1  0
 10 11  1  0
 11 12  1  0
 12 13  1  0
 13 14  1  0
 14 15  1  0
 14 16  1  0
 12 17  1  0
  4 18  1  0
 18 19  2  0
 19 20  1  0
 20 21  1  0
 20  2  2  0
 16  8  1  0
 17  8  1  0
 15 10  1  0
  1 22  1  0
  1 23  1  0
  1 24  1  0
  3 25  1  0
  7 26  1  0
  9 27  1  0
  9 28  1  0
 10 29  1  6
 11 30  1  0
 11 31  1  0
 12 32  1  1
 13 33  1  0
 13 34  1  0
 14 35  1  6
 15 36  1  0
 15 37  1  0
 16 38  1  0
 16 39  1  0
 17 40  1  0
 17 41  1  0
 21 42  1  0
 21 43  1  0
 21 44  1  0
M  END
>  <meeko>  (92) 
{"is_sidechain": false}

$$$$

     RDKit          3D

 32 34  0  0  0  0  0  0  0  0999 V2000
   13.1160    7.2560  -60.2770 C   0  0  0  0  0  0  0  0  0  0  0  0
   11.9670    6.4080  -60.2260 O   0  0  0  0  0  0  0  0  0  0  0  0
   12.0290    5.4440  -59.2630 C   0  0  0  0  0  0  0  0  0  0  0  0
   12.9920    5.2630  -58.5280 O   0  0  0  0  0  0  0  0  0  0  0  0
   10.7410    4.6240  -59.2280 C   0  0  2  0  0  0  0  0  0  0  0  0
    9.6190    5.4110  -58.5110 C   0  0  0  0  0  0  0  0  0  0  0  0
    8.3210    4.5850  -58.4800 C   0  0  1  0  0  0  0  0  0  0  0  0
    7.8780    4.2800  -59.9190 C   0  0  0  0  0  0  0  0  0  0  0  0
    8.9730    3.4830  -60.6480 C   0  0  2  0  0  0  0  0  0  0  0  0
    9.2260    2.1640  -59.8980 C   0  0  0  0  0  0  0  0  0  0  0  0
    9.6770    2.4580  -58.4570 C   0  0  2  0  0  0  0  0  0  0  0  0
    8.5810    3.2620  -57.7370 C   0  0  0  0  0  0  0  0  0  0  0  0
   10.9740    3.2860  -58.4890 C   0  0  0  0  0  0  0  0  0  0  0  0
   10.2700    4.3080  -60.6700 C   0  0  0  0  0  0  0  0  0  0  0  0
   13.4406    7.4956  -59.2537 H   0  0  0  0  0  0  0  0  0  0  0  0
   13.9293    6.7400  -60.8083 H   0  0  0  0  0  0  0  0  0  0  0  0
   12.8626    8.1853  -60.8083 H   0  0  0  0  0  0  0  0  0  0  0  0
    9.9329    5.6319  -57.4801 H   0  0  0  0  0  0  0  0  0  0  0  0
    9.4336    6.3471  -59.0581 H   0  0  0  0  0  0  0  0  0  0  0  0
    7.5327    5.1524  -57.9637 H   0  0  0  0  0  0  0  0  0  0  0  0
    6.9505    3.6890  -59.8972 H   0  0  0  0  0  0  0  0  0  0  0  0
    7.7045    5.2265  -60.4520 H   0  0  0  0  0  0  0  0  0  0  0  0
    8.6510    3.2684  -61.6777 H   0  0  0  0  0  0  0  0  0  0  0  0
    8.2983    1.5733  -59.8763 H   0  0  0  0  0  0  0  0  0  0  0  0
   10.0151    1.5991  -60.4158 H   0  0  0  0  0  0  0  0  0  0  0  0
    9.8543    1.5120  -57.9245 H   0  0  0  0  0  0  0  0  0  0  0  0
    7.6537    2.6709  -57.7112 H   0  0  0  0  0  0  0  0  0  0  0  0
    8.9120    3.4839  -56.7117 H   0  0  0  0  0  0  0  0  0  0  0  0
   11.2975    3.4928  -57.4582 H   0  0  0  0  0  0  0  0  0  0  0  0
   11.7491    2.7148  -59.0209 H   0  0  0  0  0  0  0  0  0  0  0  0
   11.0533    3.7360  -61.1888 H   0  0  0  0  0  0  0  0  0  0  0  0
   10.0785    5.2551  -61.1957 H   0  0  0  0  0  0  0  0  0  0  0  0
  1  2  1  0
  2  3  1  0
  3  4  2  0
  5  3  1  6
  5  6  1  0
  6  7  1  0
  7  8  1  0
  8  9  1  0
  9 10  1  0
 10 11  1  0
 11 12  1  0
 11 13  1  0
  9 14  1  0
 13  5  1  0
 14  5  1  0
 12  7  1  0
  1 15  1  0
  1 16  1  0
  1 17  1  0
  6 18  1  0
  6 19  1  0
  7 20  1  1
  8 21  1  0
  8 22  1  0
  9 23  1  6
 10 24  1  0
 10 25  1  0
 11 26  1  1
 12 27  1  0
 12 28  1  0
 13 29  1  0
 13 30  1  0
 14 31  1  0
 14 32  1  0
M  END
>  <meeko>  (93) 
{"is_sidechain": false}

$$$$

     RDKit          3D

 44 48  0  0  0  0  0  0  0  0999 V2000
    7.2690    1.7070  -56.2780 O   0  0  0  0  0  0  0  0  0  0  0  0
    8.4270    1.3460  -56.1050 C   0  0  0  0  0  0  0  0  0  0  0  0
    9.5200    1.8560  -56.7780 N   0  0  0  0  0  0  0  0  0  0  0  0
    9.4790    2.9020  -57.8010 C   0  0  2  0  0  0  0  0  0  0  0  0
   10.9100    3.0850  -58.3740 C   0  0  0  0  0  0  0  0  0  0  0  0
   10.9340    4.1760  -59.4580 C   0  0  1  0  0  0  0  0  0  0  0  0
    9.9820    3.7740  -60.5970 C   0  0  0  0  0  0  0  0  0  0  0  0
    8.5530    3.6130  -60.0550 C   0  0  2  0  0  0  0  0  0  0  0  0
    8.0920    4.9440  -59.4360 C   0  0  0  0  0  0  0  0  0  0  0  0
    9.0380    5.3530  -58.2940 C   0  0  2  0  0  0  0  0  0  0  0  0
   10.4640    5.5050  -58.8460 C   0  0  0  0  0  0  0  0  0  0  0  0
    9.0260    4.2600  -57.2100 C   0  0  0  0  0  0  0  0  0  0  0  0
    8.5400    2.5190  -58.9720 C   0  0  0  0  0  0  0  0  0  0  0  0
    8.7440    0.2830  -55.1090 C   0  0  0  0  0  0  0  0  0  0  0  0
    7.9180    0.0510  -54.0250 C   0  0  0  0  0  0  0  0  0  0  0  0
    8.2710   -0.9600  -53.1270 C   0  0  0  0  0  0  0  0  0  0  0  0
    7.4800   -1.2520  -52.0020 C   0  0  0  0  0  0  0  0  0  0  0  0
    7.8530   -2.2660  -51.1210 C   0  0  0  0  0  0  0  0  0  0  0  0
    9.0150   -2.9910  -51.3590 C   0  0  0  0  0  0  0  0  0  0  0  0
    9.8000   -2.7000  -52.4780 C   0  0  0  0  0  0  0  0  0  0  0  0
    9.4490   -1.6940  -53.3710 C   0  0  0  0  0  0  0  0  0  0  0  0
   10.2170   -1.4270  -54.4430 N   0  0  0  0  0  0  0  0  0  0  0  0
    9.8710   -0.4340  -55.3240 N   0  0  0  0  0  0  0  0  0  0  0  0
   10.4210    1.4570  -56.5270 H   0  0  0  0  0  0  0  0  0  0  0  0
   11.5899    3.3729  -57.5587 H   0  0  0  0  0  0  0  0  0  0  0  0
   11.2309    2.1348  -58.8258 H   0  0  0  0  0  0  0  0  0  0  0  0
   11.9548    4.2909  -59.8513 H   0  0  0  0  0  0  0  0  0  0  0  0
    9.9918    4.5541  -61.3725 H   0  0  0  0  0  0  0  0  0  0  0  0
   10.3155    2.8176  -61.0260 H   0  0  0  0  0  0  0  0  0  0  0  0
    7.8761    3.3308  -60.8749 H   0  0  0  0  0  0  0  0  0  0  0  0
    8.0968    5.7258  -60.2098 H   0  0  0  0  0  0  0  0  0  0  0  0
    7.0755    4.8206  -59.0341 H   0  0  0  0  0  0  0  0  0  0  0  0
    8.7056    6.3081  -57.8612 H   0  0  0  0  0  0  0  0  0  0  0  0
   10.4738    6.2864  -59.6202 H   0  0  0  0  0  0  0  0  0  0  0  0
   11.1413    5.7848  -58.0257 H   0  0  0  0  0  0  0  0  0  0  0  0
    9.7108    4.5478  -56.3987 H   0  0  0  0  0  0  0  0  0  0  0  0
    8.0015    4.1548  -56.8235 H   0  0  0  0  0  0  0  0  0  0  0  0
    7.5153    2.4002  -58.5901 H   0  0  0  0  0  0  0  0  0  0  0  0
    8.8917    1.5758  -59.4155 H   0  0  0  0  0  0  0  0  0  0  0  0
    7.0060    0.6470  -53.8731 H   0  0  0  0  0  0  0  0  0  0  0  0
    6.5611   -0.6768  -51.8158 H   0  0  0  0  0  0  0  0  0  0  0  0
    7.2311   -2.4912  -50.2421 H   0  0  0  0  0  0  0  0  0  0  0  0
    9.3160   -3.7921  -50.6679 H   0  0  0  0  0  0  0  0  0  0  0  0
   10.7171   -3.2806  -52.6564 H   0  0  0  0  0  0  0  0  0  0  0  0
  1  2  2  0
  2  3  1  0
  4  3  1  1
  4  5  1  0
  5  6  1  0
  6  7  1  0
  7  8  1  0
  8  9  1  0
  9 10  1  0
 10 11  1  0
 10 12  1  0
  8 13  1  0
  2 14  1  0
 14 15  2  0
 15 16  1  0
 16 17  2  0
 17 18  1  0
 18 19  2  0
 19 20  1  0
 20 21  2  0
 21 22  1  0
 22 23  2  0
 12  4  1  0
 23 14  1  0
 13  4  1  0
 21 16  1  0
 11  6  1  0
  3 24  1  0
  5 25  1  0
  5 26  1  0
  6 27  1  6
  7 28  1  0
  7 29  1  0
  8 30  1  6
  9 31  1  0
  9 32  1  0
 10 33  1  1
 11 34  1  0
 11 35  1  0
 12 36  1  0
 12 37  1  0
 13 38  1  0
 13 39  1  0
 15 40  1  0
 17 41  1  0
 18 42  1  0
 19 43  1  0
 20 44  1  0
M  END
>  <meeko>  (94) 
{"is_sidechain": false}

$$$$

     RDKit          3D

 46 50  0  0  0  0  0  0  0  0999 V2000
    6.7250    2.0550  -56.6210 O   0  0  0  0  0  0  0  0  0  0  0  0
    7.7230    1.4940  -56.1790 C   0  0  0  0  0  0  0  0  0  0  0  0
    9.0010    1.8260  -56.5980 N   0  0  0  0  0  0  0  0  0  0  0  0
    9.3160    2.8490  -57.6020 C   0  0  2  0  0  0  0  0  0  0  0  0
    8.9430    4.2710  -57.1160 C   0  0  0  0  0  0  0  0  0  0  0  0
    9.3360    5.3250  -58.1670 C   0  0  1  0  0  0  0  0  0  0  0  0
   10.8530    5.2690  -58.4010 C   0  0  0  0  0  0  0  0  0  0  0  0
   11.2540    3.8730  -58.9050 C   0  0  2  0  0  0  0  0  0  0  0  0
   10.5220    3.5770  -60.2220 C   0  0  0  0  0  0  0  0  0  0  0  0
    9.0030    3.6230  -60.0000 C   0  0  2  0  0  0  0  0  0  0  0  0
    8.6070    5.0190  -59.4860 C   0  0  0  0  0  0  0  0  0  0  0  0
    8.6090    2.5680  -58.9520 C   0  0  0  0  0  0  0  0  0  0  0  0
   10.8490    2.8230  -57.8560 C   0  0  0  0  0  0  0  0  0  0  0  0
    7.6610    0.4410  -55.1890 C   0  0  0  0  0  0  0  0  0  0  0  0
    8.4150    0.1040  -54.0860 C   0  0  0  0  0  0  0  0  0  0  0  0
    7.8030   -1.0620  -53.5460 C   0  0  0  0  0  0  0  0  0  0  0  0
    8.1990   -1.8420  -52.3680 C   0  0  0  0  0  0  0  0  0  0  0  0
    9.3800   -2.5990  -52.3590 C   0  0  0  0  0  0  0  0  0  0  0  0
    9.7460   -3.3420  -51.2310 C   0  0  0  0  0  0  0  0  0  0  0  0
    8.9370   -3.3360  -50.0980 C   0  0  0  0  0  0  0  0  0  0  0  0
    7.7630   -2.5890  -50.0890 C   0  0  0  0  0  0  0  0  0  0  0  0
    7.3970   -1.8470  -51.2150 C   0  0  0  0  0  0  0  0  0  0  0  0
    6.7410   -1.4010  -54.2930 N   0  0  0  0  0  0  0  0  0  0  0  0
    6.6540   -0.4690  -55.3040 O   0  0  0  0  0  0  0  0  0  0  0  0
    9.7760    1.2990  -56.2230 H   0  0  0  0  0  0  0  0  0  0  0  0
    7.8578    4.3205  -56.9430 H   0  0  0  0  0  0  0  0  0  0  0  0
    9.4877    4.4806  -56.1836 H   0  0  0  0  0  0  0  0  0  0  0  0
    9.0547    6.3269  -57.8105 H   0  0  0  0  0  0  0  0  0  0  0  0
   11.1342    6.0224  -59.1516 H   0  0  0  0  0  0  0  0  0  0  0  0
   11.3732    5.4751  -57.4539 H   0  0  0  0  0  0  0  0  0  0  0  0
   12.3410    3.8374  -59.0701 H   0  0  0  0  0  0  0  0  0  0  0  0
   10.8035    4.3303  -60.9726 H   0  0  0  0  0  0  0  0  0  0  0  0
   10.8053    2.5746  -60.5753 H   0  0  0  0  0  0  0  0  0  0  0  0
    8.4851    3.4149  -60.9479 H   0  0  0  0  0  0  0  0  0  0  0  0
    8.8819    5.7743  -60.2370 H   0  0  0  0  0  0  0  0  0  0  0  0
    7.5214    5.0425  -59.3102 H   0  0  0  0  0  0  0  0  0  0  0  0
    7.5196    2.5966  -58.8023 H   0  0  0  0  0  0  0  0  0  0  0  0
    8.9177    1.5762  -59.3141 H   0  0  0  0  0  0  0  0  0  0  0  0
   11.1365    1.8246  -58.2173 H   0  0  0  0  0  0  0  0  0  0  0  0
   11.3637    3.0553  -56.9120 H   0  0  0  0  0  0  0  0  0  0  0  0
    9.3039    0.6267  -53.7030 H   0  0  0  0  0  0  0  0  0  0  0  0
   10.0261   -2.6087  -53.2492 H   0  0  0  0  0  0  0  0  0  0  0  0
   10.6745   -3.9318  -51.2396 H   0  0  0  0  0  0  0  0  0  0  0  0
    9.2252   -3.9205  -49.2118 H   0  0  0  0  0  0  0  0  0  0  0  0
    7.1225   -2.5826  -49.1947 H   0  0  0  0  0  0  0  0  0  0  0  0
    6.4678   -1.2586  -51.1982 H   0  0  0  0  0  0  0  0  0  0  0  0
  1  2  2  0
  2  3  1  0
  4  3  1  1
  4  5  1  0
  5  6  1  0
  6  7  1  0
  7  8  1  0
  8  9  1  0
  9 10  1  0
 10 11  1  0
 10 12  1  0
  8 13  1  0
  2 14  1  0
 14 15  2  0
 15 16  1  0
 16 17  1  0
 17 18  2  0
 18 19  1  0
 19 20  2  0
 20 21  1  0
 21 22  2  0
 16 23  2  0
 23 24  1  0
 12  4  1  0
 24 14  1  0
 13  4  1  0
 22 17  1  0
 11  6  1  0
  3 25  1  0
  5 26  1  0
  5 27  1  0
  6 28  1  1
  7 29  1  0
  7 30  1  0
  8 31  1  6
  9 32  1  0
  9 33  1  0
 10 34  1  6
 11 35  1  0
 11 36  1  0
 12 37  1  0
 12 38  1  0
 13 39  1  0
 13 40  1  0
 15 41  1  0
 18 42  1  0
 19 43  1  0
 20 44  1  0
 21 45  1  0
 22 46  1  0
M  END
>  <meeko>  (95) 
{"is_sidechain": false}

$$$$

     RDKit          3D

 43 45  0  0  0  0  0  0  0  0999 V2000
   10.2270   -1.5190  -53.7150 C   0  0  0  0  0  0  0  0  0  0  0  0
    8.9250   -0.8620  -54.0730 C   0  0  0  0  0  0  0  0  0  0  0  0
    8.9010    0.1050  -55.0850 C   0  0  0  0  0  0  0  0  0  0  0  0
    7.6980    0.7140  -55.3980 C   0  0  0  0  0  0  0  0  0  0  0  0
    7.6150    1.7520  -56.4650 C   0  0  0  0  0  0  0  0  0  0  0  0
    6.5390    2.2420  -56.7880 O   0  0  0  0  0  0  0  0  0  0  0  0
    8.8210    2.1080  -57.0340 N   0  0  0  0  0  0  0  0  0  0  0  0
    8.9280    3.1330  -58.0520 C   0  0  0  0  0  0  0  0  0  0  0  0
    9.9100    2.7460  -59.1590 C   0  0  0  0  0  0  0  0  0  0  0  0
   11.0060    3.7700  -59.3170 C   0  0  0  0  0  0  0  0  0  0  0  0
   10.7400    5.0180  -59.8980 C   0  0  0  0  0  0  0  0  0  0  0  0
   11.7540    5.9690  -60.0220 C   0  0  0  0  0  0  0  0  0  0  0  0
   13.0400    5.6830  -59.5650 C   0  0  0  0  0  0  0  0  0  0  0  0
   13.3130    4.4470  -58.9820 C   0  0  0  0  0  0  0  0  0  0  0  0
   12.3000    3.4950  -58.8560 C   0  0  0  0  0  0  0  0  0  0  0  0
    6.5460    0.4030  -54.7630 N   0  0  0  0  0  0  0  0  0  0  0  0
    6.5600   -0.5530  -53.7820 N   0  0  0  0  0  0  0  0  0  0  0  0
    7.7150   -1.1870  -53.4470 C   0  0  0  0  0  0  0  0  0  0  0  0
    7.5710   -2.2000  -52.3930 C   0  0  0  0  0  0  0  0  0  0  0  0
    7.8270   -1.8990  -51.0450 C   0  0  0  0  0  0  0  0  0  0  0  0
    7.6860   -2.8720  -50.0520 C   0  0  0  0  0  0  0  0  0  0  0  0
    7.2930   -4.1640  -50.3920 C   0  0  0  0  0  0  0  0  0  0  0  0
    7.0490   -4.4870  -51.7250 C   0  0  0  0  0  0  0  0  0  0  0  0
    7.1910   -3.5140  -52.7170 C   0  0  0  0  0  0  0  0  0  0  0  0
   10.3242   -1.5680  -52.6204 H   0  0  0  0  0  0  0  0  0  0  0  0
   10.2507   -2.5370  -54.1312 H   0  0  0  0  0  0  0  0  0  0  0  0
   11.0599   -0.9333  -54.1312 H   0  0  0  0  0  0  0  0  0  0  0  0
    9.8219    0.3761  -55.6220 H   0  0  0  0  0  0  0  0  0  0  0  0
    9.6630    1.6750  -56.6640 H   0  0  0  0  0  0  0  0  0  0  0  0
    7.9357    3.2939  -58.4987 H   0  0  0  0  0  0  0  0  0  0  0  0
    9.3034    4.0487  -57.5718 H   0  0  0  0  0  0  0  0  0  0  0  0
   10.3629    1.7749  -58.9101 H   0  0  0  0  0  0  0  0  0  0  0  0
    9.3537    2.6909  -60.1064 H   0  0  0  0  0  0  0  0  0  0  0  0
    9.7266    5.2489  -60.2581 H   0  0  0  0  0  0  0  0  0  0  0  0
   11.5385    6.9453  -60.4808 H   0  0  0  0  0  0  0  0  0  0  0  0
   13.8387    6.4327  -59.6646 H   0  0  0  0  0  0  0  0  0  0  0  0
   14.3273    4.2215  -58.6209 H   0  0  0  0  0  0  0  0  0  0  0  0
   12.5192    2.5222  -58.3916 H   0  0  0  0  0  0  0  0  0  0  0  0
    8.1430   -0.8827  -50.7671 H   0  0  0  0  0  0  0  0  0  0  0  0
    7.8856   -2.6171  -49.0007 H   0  0  0  0  0  0  0  0  0  0  0  0
    7.1755   -4.9281  -49.6095 H   0  0  0  0  0  0  0  0  0  0  0  0
    6.7444   -5.5086  -51.9964 H   0  0  0  0  0  0  0  0  0  0  0  0
    7.0026   -3.7800  -53.7676 H   0  0  0  0  0  0  0  0  0  0  0  0
  1  2  1  0
  2  3  1  0
  3  4  2  0
  4  5  1  0
  5  6  2  0
  5  7  1  0
  7  8  1  0
  8  9  1  0
  9 10  1  0
 10 11  2  0
 11 12  1  0
 12 13  2  0
 13 14  1  0
 14 15  2  0
  4 16  1  0
 16 17  2  0
 17 18  1  0
 18 19  1  0
 19 20  2  0
 20 21  1  0
 21 22  2  0
 22 23  1  0
 23 24  2  0
 18  2  2  0
 24 19  1  0
 15 10  1  0
  1 25  1  0
  1 26  1  0
  1 27  1  0
  3 28  1  0
  7 29  1  0
  8 30  1  0
  8 31  1  0
  9 32  1  0
  9 33  1  0
 11 34  1  0
 12 35  1  0
 13 36  1  0
 14 37  1  0
 15 38  1  0
 20 39  1  0
 21 40  1  0
 22 41  1  0
 23 42  1  0
 24 43  1  0
M  END
>  <meeko>  (96) 
{"is_sidechain": false}

$$$$

     RDKit          3D

 46 48  0  0  0  0  0  0  0  0999 V2000
   10.4290   -1.8380  -53.5380 C   0  0  0  0  0  0  0  0  0  0  0  0
    9.1790   -1.1210  -53.9570 C   0  0  0  0  0  0  0  0  0  0  0  0
    9.2580   -0.1180  -54.9320 C   0  0  0  0  0  0  0  0  0  0  0  0
    8.0970    0.5290  -55.3200 C   0  0  0  0  0  0  0  0  0  0  0  0
    8.1220    1.5950  -56.3620 C   0  0  0  0  0  0  0  0  0  0  0  0
    7.0840    2.1240  -56.7460 O   0  0  0  0  0  0  0  0  0  0  0  0
    9.3770    1.9250  -56.8350 N   0  0  0  0  0  0  0  0  0  0  0  0
    9.6050    3.0410  -57.7370 C   0  0  2  0  0  0  0  0  0  0  0  0
   10.2870    2.5570  -59.0190 C   0  0  0  0  0  0  0  0  0  0  0  0
   10.5940    3.7120  -59.9680 C   0  0  0  0  0  0  0  0  0  0  0  0
   11.4320    4.7990  -59.2830 C   0  0  1  0  0  0  0  0  0  0  0  0
   11.6840    5.9660  -60.2350 C   0  0  0  0  0  0  0  0  0  0  0  0
   10.7480    5.2860  -57.9990 C   0  0  0  0  0  0  0  0  0  0  0  0
   10.4380    4.1300  -57.0490 C   0  0  0  0  0  0  0  0  0  0  0  0
    6.8910    0.2250  -54.7900 N   0  0  0  0  0  0  0  0  0  0  0  0
    6.8090   -0.7450  -53.8270 N   0  0  0  0  0  0  0  0  0  0  0  0
    7.9240   -1.3990  -53.4030 C   0  0  0  0  0  0  0  0  0  0  0  0
    7.6820   -2.3960  -52.3530 C   0  0  0  0  0  0  0  0  0  0  0  0
    7.8810   -2.0960  -50.9940 C   0  0  0  0  0  0  0  0  0  0  0  0
    7.6490   -3.0550  -50.0040 C   0  0  0  0  0  0  0  0  0  0  0  0
    7.2070   -4.3270  -50.3560 C   0  0  0  0  0  0  0  0  0  0  0  0
    6.9890   -4.6410  -51.6960 C   0  0  0  0  0  0  0  0  0  0  0  0
    7.2220   -3.6820  -52.6840 C   0  0  0  0  0  0  0  0  0  0  0  0
   10.4832   -1.8691  -52.4398 H   0  0  0  0  0  0  0  0  0  0  0  0
   10.4131   -2.8643  -53.9335 H   0  0  0  0  0  0  0  0  0  0  0  0
   11.3069   -1.3061  -53.9335 H   0  0  0  0  0  0  0  0  0  0  0  0
   10.2254    0.1508  -55.3814 H   0  0  0  0  0  0  0  0  0  0  0  0
   10.1690    1.4990  -56.3590 H   0  0  0  0  0  0  0  0  0  0  0  0
    8.6328    3.4786  -58.0079 H   0  0  0  0  0  0  0  0  0  0  0  0
   11.2287    2.0544  -58.7534 H   0  0  0  0  0  0  0  0  0  0  0  0
    9.6012    1.8663  -59.5315 H   0  0  0  0  0  0  0  0  0  0  0  0
   11.1512    3.3242  -60.8335 H   0  0  0  0  0  0  0  0  0  0  0  0
    9.6404    4.1607  -60.2833 H   0  0  0  0  0  0  0  0  0  0  0  0
   12.4032    4.3610  -59.0093 H   0  0  0  0  0  0  0  0  0  0  0  0
   11.8810    6.8782  -59.6527 H   0  0  0  0  0  0  0  0  0  0  0  0
   12.5542    5.7406  -60.8690 H   0  0  0  0  0  0  0  0  0  0  0  0
   10.7984    6.1198  -60.8690 H   0  0  0  0  0  0  0  0  0  0  0  0
   11.4136    5.9978  -57.4887 H   0  0  0  0  0  0  0  0  0  0  0  0
    9.7975    5.7644  -58.2777 H   0  0  0  0  0  0  0  0  0  0  0  0
   11.3844    3.6896  -56.7020 H   0  0  0  0  0  0  0  0  0  0  0  0
    9.8556    4.5260  -56.2040 H   0  0  0  0  0  0  0  0  0  0  0  0
    8.2244   -1.0916  -50.7055 H   0  0  0  0  0  0  0  0  0  0  0  0
    7.8158   -2.8043  -48.9460 H   0  0  0  0  0  0  0  0  0  0  0  0
    7.0300   -5.0835  -49.5773 H   0  0  0  0  0  0  0  0  0  0  0  0
    6.6335   -5.6438  -51.9754 H   0  0  0  0  0  0  0  0  0  0  0  0
    7.0425   -3.9374  -53.7388 H   0  0  0  0  0  0  0  0  0  0  0  0
  1  2  1  0
  2  3  1  0
  3  4  2  0
  4  5  1  0
  5  6  2  0
  5  7  1  0
  7  8  1  0
  8  9  1  0
  9 10  1  0
 10 11  1  0
 11 12  1  0
 11 13  1  0
 13 14  1  0
  4 15  1  0
 15 16  2  0
 16 17  1  0
 17 18  1  0
 18 19  2  0
 19 20  1  0
 20 21  2  0
 21 22  1  0
 22 23  2  0
 17  2  2  0
 23 18  1  0
 14  8  1  0
  1 24  1  0
  1 25  1  0
  1 26  1  0
  3 27  1  0
  7 28  1  0
  8 29  1  1
  9 30  1  0
  9 31  1  0
 10 32  1  0
 10 33  1  0
 11 34  1  6
 12 35  1  0
 12 36  1  0
 12 37  1  0
 13 38  1  0
 13 39  1  0
 14 40  1  0
 14 41  1  0
 19 42  1  0
 20 43  1  0
 21 44  1  0
 22 45  1  0
 23 46  1  0
M  END
>  <meeko>  (97) 
{"is_sidechain": false}

$$$$
