
     RDKit          3D

 65 69  0  0  0  0  0  0  0  0999 V2000
   11.8710   -4.1900  -58.3000 C   0  0  0  0  0  0  0  0  0  0  0  0
   11.5160   -3.3530  -57.0810 C   0  0  0  0  0  0  0  0  0  0  0  0
   11.4630   -4.2080  -55.8140 C   0  0  0  0  0  0  0  0  0  0  0  0
   10.2560   -3.9000  -54.9250 C   0  0  0  0  0  0  0  0  0  0  0  0
   10.4830   -2.7100  -53.9950 C   0  0  0  0  0  0  0  0  0  0  0  0
    9.4580   -1.6900  -54.1560 N   0  0  0  0  0  0  0  0  0  0  0  0
    9.6480   -0.7300  -55.0770 N   0  0  0  0  0  0  0  0  0  0  0  0
    8.5490    0.0400  -55.0040 C   0  0  0  0  0  0  0  0  0  0  0  0
    8.3940    1.2230  -55.8750 C   0  0  0  0  0  0  0  0  0  0  0  0
    7.3040    1.7270  -56.1290 O   0  0  0  0  0  0  0  0  0  0  0  0
    9.5900    1.6880  -56.3970 N   0  0  0  0  0  0  0  0  0  0  0  0
    9.7060    2.7740  -57.3730 C   0  0  2  0  0  0  0  0  0  0  0  0
   11.1860    2.8460  -57.8420 C   0  0  0  0  0  0  0  0  0  0  0  0
   11.3840    3.9640  -58.8790 C   0  0  1  0  0  0  0  0  0  0  0  0
   10.4810    3.6930  -60.0910 C   0  0  0  0  0  0  0  0  0  0  0  0
    9.0090    3.6470  -59.6520 C   0  0  2  0  0  0  0  0  0  0  0  0
    8.6300    4.9930  -59.0110 C   0  0  0  0  0  0  0  0  0  0  0  0
    9.5290    5.2730  -57.7950 C   0  0  2  0  0  0  0  0  0  0  0  0
   10.9960    5.3100  -58.2470 C   0  0  0  0  0  0  0  0  0  0  0  0
    9.3430    4.1510  -56.7580 C   0  0  0  0  0  0  0  0  0  0  0  0
    8.8220    2.5220  -58.6190 C   0  0  0  0  0  0  0  0  0  0  0  0
    7.6470   -0.4540  -54.0050 C   0  0  0  0  0  0  0  0  0  0  0  0
    6.3100    0.0840  -53.6420 C   0  0  0  0  0  0  0  0  0  0  0  0
    8.2780   -1.5640  -53.4640 C   0  0  0  0  0  0  0  0  0  0  0  0
    7.8400   -2.4740  -52.4160 C   0  0  0  0  0  0  0  0  0  0  0  0
    8.1410   -2.2060  -51.0760 C   0  0  0  0  0  0  0  0  0  0  0  0
    7.7160   -3.0790  -50.0720 C   0  0  0  0  0  0  0  0  0  0  0  0
    6.9940   -4.2240  -50.4040 C   0  0  0  0  0  0  0  0  0  0  0  0
    6.6960   -4.5010  -51.7370 C   0  0  0  0  0  0  0  0  0  0  0  0
    7.1210   -3.6300  -52.7430 C   0  0  0  0  0  0  0  0  0  0  0  0
   12.2812   -5.1572  -57.9739 H   0  0  0  0  0  0  0  0  0  0  0  0
   10.9674   -4.3598  -58.9039 H   0  0  0  0  0  0  0  0  0  0  0  0
   12.6211   -3.6585  -58.9039 H   0  0  0  0  0  0  0  0  0  0  0  0
   12.2760   -2.5683  -56.9518 H   0  0  0  0  0  0  0  0  0  0  0  0
   10.5219   -2.9104  -57.2422 H   0  0  0  0  0  0  0  0  0  0  0  0
   11.4180   -5.2667  -56.1091 H   0  0  0  0  0  0  0  0  0  0  0  0
   12.3655   -3.9785  -55.2285 H   0  0  0  0  0  0  0  0  0  0  0  0
    9.3931   -3.6797  -55.5707 H   0  0  0  0  0  0  0  0  0  0  0  0
   10.0826   -4.7822  -54.2913 H   0  0  0  0  0  0  0  0  0  0  0  0
   10.4703   -3.0652  -52.9540 H   0  0  0  0  0  0  0  0  0  0  0  0
   11.4538   -2.2597  -54.2496 H   0  0  0  0  0  0  0  0  0  0  0  0
   10.3670    1.0450  -56.3300 H   0  0  0  0  0  0  0  0  0  0  0  0
   11.8293    3.0447  -56.9721 H   0  0  0  0  0  0  0  0  0  0  0  0
   11.4520    1.8858  -58.3081 H   0  0  0  0  0  0  0  0  0  0  0  0
   12.4356    3.9940  -59.2005 H   0  0  0  0  0  0  0  0  0  0  0  0
   10.6151    4.4954  -60.8314 H   0  0  0  0  0  0  0  0  0  0  0  0
   10.7550    2.7247  -60.5352 H   0  0  0  0  0  0  0  0  0  0  0  0
    8.3671    3.4579  -60.5250 H   0  0  0  0  0  0  0  0  0  0  0  0
    8.7584    5.7969  -59.7508 H   0  0  0  0  0  0  0  0  0  0  0  0
    7.5816    4.9511  -58.6807 H   0  0  0  0  0  0  0  0  0  0  0  0
    9.2565    6.2398  -57.3467 H   0  0  0  0  0  0  0  0  0  0  0  0
   11.1291    6.1123  -58.9877 H   0  0  0  0  0  0  0  0  0  0  0  0
   11.6386    5.4984  -57.3743 H   0  0  0  0  0  0  0  0  0  0  0  0
    9.9962    4.3448  -55.8945 H   0  0  0  0  0  0  0  0  0  0  0  0
    8.2897    4.1316  -56.4414 H   0  0  0  0  0  0  0  0  0  0  0  0
    7.7664    2.4850  -58.3119 H   0  0  0  0  0  0  0  0  0  0  0  0
    9.1187    1.5669  -59.0771 H   0  0  0  0  0  0  0  0  0  0  0  0
    6.2151    0.1222  -52.5468 H   0  0  0  0  0  0  0  0  0  0  0  0
    6.1979    1.0972  -54.0553 H   0  0  0  0  0  0  0  0  0  0  0  0
    5.5274   -0.5692  -54.0553 H   0  0  0  0  0  0  0  0  0  0  0  0
    8.7142   -1.3049  -50.8125 H   0  0  0  0  0  0  0  0  0  0  0  0
    7.9511   -2.8629  -49.0194 H   0  0  0  0  0  0  0  0  0  0  0  0
    6.6587   -4.9103  -49.6125 H   0  0  0  0  0  0  0  0  0  0  0  0
    6.1262   -5.4053  -51.9969 H   0  0  0  0  0  0  0  0  0  0  0  0
    6.8901   -3.8530  -53.7951 H   0  0  0  0  0  0  0  0  0  0  0  0
  1  2  1  0
  2  3  1  0
  3  4  1  0
  4  5  1  0
  5  6  1  0
  6  7  1  0
  7  8  2  0
  8  9  1  0
  9 10  2  0
  9 11  1  0
 12 11  1  1
 12 13  1  0
 13 14  1  0
 14 15  1  0
 15 16  1  0
 16 17  1  0
 17 18  1  0
 18 19  1  0
 18 20  1  0
 16 21  1  0
  8 22  1  0
 22 23  1  0
 22 24  2  0
 24 25  1  0
 25 26  2  0
 26 27  1  0
 27 28  2  0
 28 29  1  0
 29 30  2  0
 24  6  1  0
 30 25  1  0
 20 12  1  0
 21 12  1  0
 19 14  1  0
  1 31  1  0
  1 32  1  0
  1 33  1  0
  2 34  1  0
  2 35  1  0
  3 36  1  0
  3 37  1  0
  4 38  1  0
  4 39  1  0
  5 40  1  0
  5 41  1  0
 11 42  1  0
 13 43  1  0
 13 44  1  0
 14 45  1  6
 15 46  1  0
 15 47  1  0
 16 48  1  6
 17 49  1  0
 17 50  1  0
 18 51  1  1
 19 52  1  0
 19 53  1  0
 20 54  1  0
 20 55  1  0
 21 56  1  0
 21 57  1  0
 23 58  1  0
 23 59  1  0
 23 60  1  0
 26 61  1  0
 27 62  1  0
 28 63  1  0
 29 64  1  0
 30 65  1  0
M  END
>  <meeko>  (1) 
{"is_sidechain": false}

$$$$

     RDKit          3D

 60 65  0  0  0  0  0  0  0  0999 V2000
    6.4540    0.4620  -53.1800 C   0  0  0  0  0  0  0  0  0  0  0  0
    7.5430   -0.2380  -53.9120 C   0  0  0  0  0  0  0  0  0  0  0  0
    8.1310    0.1800  -55.1390 C   0  0  0  0  0  0  0  0  0  0  0  0
    7.8460    1.4060  -55.9140 C   0  0  0  0  0  0  0  0  0  0  0  0
    6.8020    2.0380  -55.8040 O   0  0  0  0  0  0  0  0  0  0  0  0
    8.8820    1.7510  -56.7550 N   0  0  0  0  0  0  0  0  0  0  0  0
    8.9350    2.9230  -57.6240 C   0  0  2  0  0  0  0  0  0  0  0  0
    7.7390    2.9600  -58.6080 C   0  0  0  0  0  0  0  0  0  0  0  0
    7.8450    4.1790  -59.5420 C   0  0  1  0  0  0  0  0  0  0  0  0
    7.8580    5.4640  -58.6980 C   0  0  0  0  0  0  0  0  0  0  0  0
    9.0610    5.4560  -57.7390 C   0  0  2  0  0  0  0  0  0  0  0  0
   10.3590    5.3580  -58.5560 C   0  0  0  0  0  0  0  0  0  0  0  0
   10.3550    4.0720  -59.3960 C   0  0  2  0  0  0  0  0  0  0  0  0
    9.1500    4.0890  -60.3500 C   0  0  0  0  0  0  0  0  0  0  0  0
   10.2400    2.8580  -58.4590 C   0  0  0  0  0  0  0  0  0  0  0  0
    8.9560    4.2370  -56.8050 C   0  0  0  0  0  0  0  0  0  0  0  0
    9.0120   -0.7300  -55.5930 N   0  0  0  0  0  0  0  0  0  0  0  0
    9.1210   -1.6430  -54.5930 N   0  0  0  0  0  0  0  0  0  0  0  0
   10.0810   -2.6810  -54.7320 C   0  0  0  0  0  0  0  0  0  0  0  0
   10.0070   -3.4750  -55.8920 C   0  0  0  0  0  0  0  0  0  0  0  0
   10.8780   -4.5510  -56.0690 C   0  0  0  0  0  0  0  0  0  0  0  0
   11.8430   -4.8290  -55.1050 C   0  0  0  0  0  0  0  0  0  0  0  0
   11.9550   -4.0120  -53.9790 C   0  0  0  0  0  0  0  0  0  0  0  0
   11.0880   -2.9260  -53.7920 C   0  0  0  0  0  0  0  0  0  0  0  0
   11.4810   -1.8540  -52.4950 Cl  0  0  0  0  0  0  0  0  0  0  0  0
    8.1560   -1.4500  -53.6060 C   0  0  0  0  0  0  0  0  0  0  0  0
    7.8040   -2.4180  -52.5620 C   0  0  0  0  0  0  0  0  0  0  0  0
    7.0330   -3.5480  -52.8660 C   0  0  0  0  0  0  0  0  0  0  0  0
    6.6890   -4.4630  -51.8670 C   0  0  0  0  0  0  0  0  0  0  0  0
    7.1050   -4.2530  -50.5550 C   0  0  0  0  0  0  0  0  0  0  0  0
    7.8620   -3.1270  -50.2370 C   0  0  0  0  0  0  0  0  0  0  0  0
    8.2050   -2.2120  -51.2350 C   0  0  0  0  0  0  0  0  0  0  0  0
    6.6149    0.3586  -52.0968 H   0  0  0  0  0  0  0  0  0  0  0  0
    6.4565    1.5281  -53.4509 H   0  0  0  0  0  0  0  0  0  0  0  0
    5.4852    0.0171  -53.4509 H   0  0  0  0  0  0  0  0  0  0  0  0
    9.6850    1.1300  -56.6930 H   0  0  0  0  0  0  0  0  0  0  0  0
    7.7388    2.0406  -59.2118 H   0  0  0  0  0  0  0  0  0  0  0  0
    6.8060    3.0353  -58.0303 H   0  0  0  0  0  0  0  0  0  0  0  0
    6.9859    4.1949  -60.2288 H   0  0  0  0  0  0  0  0  0  0  0  0
    7.9301    6.3361  -59.3645 H   0  0  0  0  0  0  0  0  0  0  0  0
    6.9299    5.5173  -58.1100 H   0  0  0  0  0  0  0  0  0  0  0  0
    9.0670    6.3806  -57.1431 H   0  0  0  0  0  0  0  0  0  0  0  0
   10.4359    6.2289  -59.2235 H   0  0  0  0  0  0  0  0  0  0  0  0
   11.2177    5.3378  -57.8688 H   0  0  0  0  0  0  0  0  0  0  0  0
   11.2860    4.0080  -59.9783 H   0  0  0  0  0  0  0  0  0  0  0  0
    9.2261    4.9593  -61.0184 H   0  0  0  0  0  0  0  0  0  0  0  0
    9.1452    3.1634  -60.9444 H   0  0  0  0  0  0  0  0  0  0  0  0
   10.2363    1.9376  -59.0614 H   0  0  0  0  0  0  0  0  0  0  0  0
   11.0977    2.8640  -57.7703 H   0  0  0  0  0  0  0  0  0  0  0  0
    9.8215    4.2261  -56.1262 H   0  0  0  0  0  0  0  0  0  0  0  0
    8.0217    4.3109  -56.2292 H   0  0  0  0  0  0  0  0  0  0  0  0
    9.2577   -3.2459  -56.6641 H   0  0  0  0  0  0  0  0  0  0  0  0
   10.8021   -5.1786  -56.9692 H   0  0  0  0  0  0  0  0  0  0  0  0
   12.5155   -5.6904  -55.2304 H   0  0  0  0  0  0  0  0  0  0  0  0
   12.7323   -4.2225  -53.2297 H   0  0  0  0  0  0  0  0  0  0  0  0
    6.6957   -3.7163  -53.8994 H   0  0  0  0  0  0  0  0  0  0  0  0
    6.0889   -5.3501  -52.1177 H   0  0  0  0  0  0  0  0  0  0  0  0
    6.8364   -4.9753  -49.7701 H   0  0  0  0  0  0  0  0  0  0  0  0
    8.1893   -2.9589  -49.2004 H   0  0  0  0  0  0  0  0  0  0  0  0
    8.7958   -1.3208  -50.9768 H   0  0  0  0  0  0  0  0  0  0  0  0
  1  2  1  0
  2  3  1  0
  3  4  1  0
  4  5  2  0
  4  6  1  0
  7  6  1  1
  7  8  1  0
  8  9  1  0
  9 10  1  0
 10 11  1  0
 11 12  1  0
 12 13  1  0
 13 14  1  0
 13 15  1  0
 11 16  1  0
  3 17  2  0
 17 18  1  0
 18 19  1  0
 19 20  2  0
 20 21  1  0
 21 22  2  0
 22 23  1  0
 23 24  2  0
 24 25  1  0
 18 26  1  0
 26 27  1  0
 27 28  2  0
 28 29  1  0
 29 30  2  0
 30 31  1  0
 31 32  2  0
 26  2  2  0
 32 27  1  0
 15  7  1  0
 24 19  1  0
 16  7  1  0
 14  9  1  0
  1 33  1  0
  1 34  1  0
  1 35  1  0
  6 36  1  0
  8 37  1  0
  8 38  1  0
  9 39  1  6
 10 40  1  0
 10 41  1  0
 11 42  1  1
 12 43  1  0
 12 44  1  0
 13 45  1  6
 14 46  1  0
 14 47  1  0
 15 48  1  0
 15 49  1  0
 16 50  1  0
 16 51  1  0
 20 52  1  0
 21 53  1  0
 22 54  1  0
 23 55  1  0
 28 56  1  0
 29 57  1  0
 30 58  1  0
 31 59  1  0
 32 60  1  0
M  END
>  <meeko>  (2) 
{"is_sidechain": false}

$$$$

     RDKit          3D

 63 68  0  0  0  0  0  0  0  0999 V2000
    6.1460    0.1680  -53.4020 C   0  0  0  0  0  0  0  0  0  0  0  0
    7.3290   -0.4600  -54.0490 C   0  0  0  0  0  0  0  0  0  0  0  0
    8.0730    0.0720  -55.1340 C   0  0  0  0  0  0  0  0  0  0  0  0
    7.8390    1.3250  -55.8820 C   0  0  0  0  0  0  0  0  0  0  0  0
    6.8050    1.9770  -55.7830 O   0  0  0  0  0  0  0  0  0  0  0  0
    8.9040    1.6630  -56.6890 N   0  0  0  0  0  0  0  0  0  0  0  0
    9.0120    2.8540  -57.5240 C   0  0  2  0  0  0  0  0  0  0  0  0
    8.9570    4.1500  -56.6780 C   0  0  0  0  0  0  0  0  0  0  0  0
    9.1220    5.3890  -57.5750 C   0  0  1  0  0  0  0  0  0  0  0  0
   10.4800    5.3200  -58.2910 C   0  0  0  0  0  0  0  0  0  0  0  0
   10.5560    4.0520  -59.1550 C   0  0  2  0  0  0  0  0  0  0  0  0
    9.4270    4.0800  -60.1990 C   0  0  0  0  0  0  0  0  0  0  0  0
    8.0620    4.1420  -59.4950 C   0  0  2  0  0  0  0  0  0  0  0  0
    7.9970    5.4080  -58.6250 C   0  0  0  0  0  0  0  0  0  0  0  0
    7.8970    2.9030  -58.5970 C   0  0  0  0  0  0  0  0  0  0  0  0
   10.3790    2.8180  -58.2570 C   0  0  0  0  0  0  0  0  0  0  0  0
    9.1140   -0.7180  -55.4390 N   0  0  0  0  0  0  0  0  0  0  0  0
    9.0370   -1.7760  -54.6050 N   0  0  0  0  0  0  0  0  0  0  0  0
    9.9520   -2.8570  -54.8070 C   0  0  0  0  0  0  0  0  0  0  0  0
    9.8620   -3.6220  -55.9850 C   0  0  0  0  0  0  0  0  0  0  0  0
   10.7770   -4.6440  -56.2480 C   0  0  0  0  0  0  0  0  0  0  0  0
   11.7990   -4.9110  -55.3480 C   0  0  0  0  0  0  0  0  0  0  0  0
   11.9040   -4.1610  -54.1790 C   0  0  0  0  0  0  0  0  0  0  0  0
   10.9860   -3.1300  -53.8770 C   0  0  0  0  0  0  0  0  0  0  0  0
   11.1330   -2.4290  -52.5380 C   0  0  0  0  0  0  0  0  0  0  0  0
   10.3740   -2.9750  -51.5470 F   0  0  0  0  0  0  0  0  0  0  0  0
   12.4140   -2.5060  -52.0570 F   0  0  0  0  0  0  0  0  0  0  0  0
   10.8630   -1.0940  -52.5700 F   0  0  0  0  0  0  0  0  0  0  0  0
    7.9740   -1.6470  -53.7110 C   0  0  0  0  0  0  0  0  0  0  0  0
    7.6930   -2.5350  -52.5810 C   0  0  0  0  0  0  0  0  0  0  0  0
    7.3940   -3.8860  -52.7950 C   0  0  0  0  0  0  0  0  0  0  0  0
    7.1280   -4.7280  -51.7140 C   0  0  0  0  0  0  0  0  0  0  0  0
    7.1680   -4.2280  -50.4130 C   0  0  0  0  0  0  0  0  0  0  0  0
    7.4780   -2.8880  -50.1900 C   0  0  0  0  0  0  0  0  0  0  0  0
    7.7430   -2.0440  -51.2690 C   0  0  0  0  0  0  0  0  0  0  0  0
    6.2528    0.1113  -52.3087 H   0  0  0  0  0  0  0  0  0  0  0  0
    6.0763    1.2219  -53.7094 H   0  0  0  0  0  0  0  0  0  0  0  0
    5.2340   -0.3647  -53.7094 H   0  0  0  0  0  0  0  0  0  0  0  0
    9.6910    1.0180  -56.6300 H   0  0  0  0  0  0  0  0  0  0  0  0
    7.9872    4.2039  -56.1617 H   0  0  0  0  0  0  0  0  0  0  0  0
    9.7773    4.1306  -55.9453 H   0  0  0  0  0  0  0  0  0  0  0  0
    9.0726    6.3000  -56.9605 H   0  0  0  0  0  0  0  0  0  0  0  0
   10.5986    6.2055  -58.9328 H   0  0  0  0  0  0  0  0  0  0  0  0
   11.2829    5.2929  -57.5395 H   0  0  0  0  0  0  0  0  0  0  0  0
   11.5308    4.0082  -59.6627 H   0  0  0  0  0  0  0  0  0  0  0  0
    9.5463    4.9652  -60.8411 H   0  0  0  0  0  0  0  0  0  0  0  0
    9.4772    3.1667  -60.8100 H   0  0  0  0  0  0  0  0  0  0  0  0
    7.2591    4.1659  -60.2465 H   0  0  0  0  0  0  0  0  0  0  0  0
    8.1122    6.2952  -59.2651 H   0  0  0  0  0  0  0  0  0  0  0  0
    7.0256    5.4404  -58.1100 H   0  0  0  0  0  0  0  0  0  0  0  0
    6.9174    2.9460  -58.0984 H   0  0  0  0  0  0  0  0  0  0  0  0
    7.9671    2.0006  -59.2221 H   0  0  0  0  0  0  0  0  0  0  0  0
   10.4304    1.9113  -58.8777 H   0  0  0  0  0  0  0  0  0  0  0  0
   11.1803    2.8156  -57.5034 H   0  0  0  0  0  0  0  0  0  0  0  0
    9.0602   -3.4122  -56.7083 H   0  0  0  0  0  0  0  0  0  0  0  0
   10.6874   -5.2379  -57.1696 H   0  0  0  0  0  0  0  0  0  0  0  0
   12.5235   -5.7119  -55.5570 H   0  0  0  0  0  0  0  0  0  0  0  0
   12.7207   -4.3763  -53.4743 H   0  0  0  0  0  0  0  0  0  0  0  0
    7.3686   -4.2856  -53.8195 H   0  0  0  0  0  0  0  0  0  0  0  0
    6.8866   -5.7869  -51.8886 H   0  0  0  0  0  0  0  0  0  0  0  0
    6.9547   -4.8918  -49.5622 H   0  0  0  0  0  0  0  0  0  0  0  0
    7.5138   -2.4954  -49.1631 H   0  0  0  0  0  0  0  0  0  0  0  0
    7.9924   -0.9879  -51.0892 H   0  0  0  0  0  0  0  0  0  0  0  0
  1  2  1  0
  2  3  1  0
  3  4  1  0
  4  5  2  0
  4  6  1  0
  7  6  1  1
  7  8  1  0
  8  9  1  0
  9 10  1  0
 10 11  1  0
 11 12  1  0
 12 13  1  0
 13 14  1  0
 13 15  1  0
 11 16  1  0
  3 17  2  0
 17 18  1  0
 18 19  1  0
 19 20  2  0
 20 21  1  0
 21 22  2  0
 22 23  1  0
 23 24  2  0
 24 25  1  0
 25 26  1  0
 25 27  1  0
 25 28  1  0
 18 29  1  0
 29 30  1  0
 30 31  2  0
 31 32  1  0
 32 33  2  0
 33 34  1  0
 34 35  2  0
 29  2  2  0
 35 30  1  0
 15  7  1  0
 24 19  1  0
 16  7  1  0
 14  9  1  0
  1 36  1  0
  1 37  1  0
  1 38  1  0
  6 39  1  0
  8 40  1  0
  8 41  1  0
  9 42  1  1
 10 43  1  0
 10 44  1  0
 11 45  1  6
 12 46  1  0
 12 47  1  0
 13 48  1  6
 14 49  1  0
 14 50  1  0
 15 51  1  0
 15 52  1  0
 16 53  1  0
 16 54  1  0
 20 55  1  0
 21 56  1  0
 22 57  1  0
 23 58  1  0
 31 59  1  0
 32 60  1  0
 33 61  1  0
 34 62  1  0
 35 63  1  0
M  END
>  <meeko>  (3) 
{"is_sidechain": false}

$$$$

     RDKit          3D

 58 63  0  0  0  0  0  0  0  0999 V2000
    6.6870    0.7690  -52.3440 C   0  0  0  0  0  0  0  0  0  0  0  0
    7.4060    0.1660  -53.0440 N   0  0  0  0  0  0  0  0  0  0  0  0
    8.3070   -0.5460  -53.9420 C   0  0  0  0  0  0  0  0  0  0  0  0
    8.7920   -0.0810  -55.1750 C   0  0  0  0  0  0  0  0  0  0  0  0
    8.5660    1.2060  -55.8690 C   0  0  0  0  0  0  0  0  0  0  0  0
    7.5600    1.8830  -55.6710 O   0  0  0  0  0  0  0  0  0  0  0  0
    9.5550    1.6000  -56.7560 N   0  0  0  0  0  0  0  0  0  0  0  0
    9.5320    2.8420  -57.5400 C   0  0  2  0  0  0  0  0  0  0  0  0
    9.6070    4.0960  -56.6330 C   0  0  0  0  0  0  0  0  0  0  0  0
    9.6350    5.3780  -57.4840 C   0  0  1  0  0  0  0  0  0  0  0  0
   10.8730    5.3560  -58.3950 C   0  0  0  0  0  0  0  0  0  0  0  0
   10.8180    4.1320  -59.3230 C   0  0  2  0  0  0  0  0  0  0  0  0
    9.5490    4.2030  -60.1850 C   0  0  0  0  0  0  0  0  0  0  0  0
    8.3040    4.2180  -59.2840 C   0  0  2  0  0  0  0  0  0  0  0  0
    8.3670    5.4390  -58.3510 C   0  0  0  0  0  0  0  0  0  0  0  0
    8.2730    2.9330  -58.4370 C   0  0  0  0  0  0  0  0  0  0  0  0
   10.7770    2.8550  -58.4690 C   0  0  0  0  0  0  0  0  0  0  0  0
    9.5490   -1.0380  -55.7360 N   0  0  0  0  0  0  0  0  0  0  0  0
    9.6150   -2.0630  -54.8420 N   0  0  0  0  0  0  0  0  0  0  0  0
   10.4870   -3.1620  -55.1340 C   0  0  0  0  0  0  0  0  0  0  0  0
   10.3200   -3.8530  -56.3480 C   0  0  0  0  0  0  0  0  0  0  0  0
   11.1460   -4.9310  -56.6780 C   0  0  0  0  0  0  0  0  0  0  0  0
   12.1550   -5.3260  -55.8070 C   0  0  0  0  0  0  0  0  0  0  0  0
   12.3460   -4.6370  -54.6110 C   0  0  0  0  0  0  0  0  0  0  0  0
   11.5210   -3.5570  -54.2770 C   0  0  0  0  0  0  0  0  0  0  0  0
    8.7830   -1.8260  -53.7480 C   0  0  0  0  0  0  0  0  0  0  0  0
    8.4260   -2.7550  -52.6820 C   0  0  0  0  0  0  0  0  0  0  0  0
    7.4020   -3.6910  -52.8730 C   0  0  0  0  0  0  0  0  0  0  0  0
    7.0460   -4.5670  -51.8450 C   0  0  0  0  0  0  0  0  0  0  0  0
    7.7040   -4.5050  -50.6170 C   0  0  0  0  0  0  0  0  0  0  0  0
    8.7140   -3.5660  -50.4140 C   0  0  0  0  0  0  0  0  0  0  0  0
    9.0730   -2.6900  -51.4410 C   0  0  0  0  0  0  0  0  0  0  0  0
   10.3740    1.0160  -56.8690 H   0  0  0  0  0  0  0  0  0  0  0  0
    8.7268    4.1187  -55.9737 H   0  0  0  0  0  0  0  0  0  0  0  0
   10.5288    4.0468  -56.0347 H   0  0  0  0  0  0  0  0  0  0  0  0
    9.6761    6.2585  -56.8259 H   0  0  0  0  0  0  0  0  0  0  0  0
   10.8956    6.2731  -59.0019 H   0  0  0  0  0  0  0  0  0  0  0  0
   11.7789    5.2989  -57.7736 H   0  0  0  0  0  0  0  0  0  0  0  0
   11.7056    4.1194  -59.9727 H   0  0  0  0  0  0  0  0  0  0  0  0
    9.5711    5.1203  -60.7916 H   0  0  0  0  0  0  0  0  0  0  0  0
    9.5088    3.3225  -60.8431 H   0  0  0  0  0  0  0  0  0  0  0  0
    7.3984    4.2732  -59.9059 H   0  0  0  0  0  0  0  0  0  0  0  0
    8.3836    6.3579  -58.9554 H   0  0  0  0  0  0  0  0  0  0  0  0
    7.4832    5.4370  -57.6961 H   0  0  0  0  0  0  0  0  0  0  0  0
    7.3756    2.9406  -57.8010 H   0  0  0  0  0  0  0  0  0  0  0  0
    8.2538    2.0639  -59.1110 H   0  0  0  0  0  0  0  0  0  0  0  0
   10.7381    1.9795  -59.1338 H   0  0  0  0  0  0  0  0  0  0  0  0
   11.6804    2.8252  -57.8422 H   0  0  0  0  0  0  0  0  0  0  0  0
    9.5294   -3.5409  -57.0462 H   0  0  0  0  0  0  0  0  0  0  0  0
   10.9977   -5.4670  -57.6271 H   0  0  0  0  0  0  0  0  0  0  0  0
   12.8005   -6.1797  -56.0612 H   0  0  0  0  0  0  0  0  0  0  0  0
   13.1498   -4.9437  -53.9255 H   0  0  0  0  0  0  0  0  0  0  0  0
   11.6862   -3.0147  -53.3344 H   0  0  0  0  0  0  0  0  0  0  0  0
    6.8753   -3.7366  -53.8376 H   0  0  0  0  0  0  0  0  0  0  0  0
    6.2467   -5.3058  -52.0040 H   0  0  0  0  0  0  0  0  0  0  0  0
    7.4260   -5.1971  -49.8085 H   0  0  0  0  0  0  0  0  0  0  0  0
    9.2291   -3.5148  -49.4434 H   0  0  0  0  0  0  0  0  0  0  0  0
    9.8665   -1.9465  -51.2749 H   0  0  0  0  0  0  0  0  0  0  0  0
  1  2  3  0
  2  3  1  0
  3  4  1  0
  4  5  1  0
  5  6  2  0
  5  7  1  0
  8  7  1  1
  8  9  1  0
  9 10  1  0
 10 11  1  0
 11 12  1  0
 12 13  1  0
 13 14  1  0
 14 15  1  0
 14 16  1  0
 12 17  1  0
  4 18  2  0
 18 19  1  0
 19 20  1  0
 20 21  2  0
 21 22  1  0
 22 23  2  0
 23 24  1  0
 24 25  2  0
 19 26  1  0
 26 27  1  0
 27 28  2  0
 28 29  1  0
 29 30  2  0
 30 31  1  0
 31 32  2  0
 26  3  2  0
 32 27  1  0
 16  8  1  0
 25 20  1  0
 17  8  1  0
 15 10  1  0
  7 33  1  0
  9 34  1  0
  9 35  1  0
 10 36  1  1
 11 37  1  0
 11 38  1  0
 12 39  1  6
 13 40  1  0
 13 41  1  0
 14 42  1  6
 15 43  1  0
 15 44  1  0
 16 45  1  0
 16 46  1  0
 17 47  1  0
 17 48  1  0
 21 49  1  0
 22 50  1  0
 23 51  1  0
 24 52  1  0
 25 53  1  0
 28 54  1  0
 29 55  1  0
 30 56  1  0
 31 57  1  0
 32 58  1  0
M  CHG  2   1  -1   2   1
M  END
>  <meeko>  (4) 
{"is_sidechain": false}

$$$$

     RDKit          3D

 46 48  0  0  0  0  0  0  0  0999 V2000
    8.5120    2.7130  -61.5640 C   0  0  0  0  0  0  0  0  0  0  0  0
    7.6600    2.5570  -60.3550 C   0  0  0  0  0  0  0  0  0  0  0  0
    6.2670    2.2150  -60.2940 C   0  0  0  0  0  0  0  0  0  0  0  0
    5.3440    1.8890  -61.3950 C   0  0  0  0  0  0  0  0  0  0  0  0
    5.3370    2.4520  -62.4920 O   0  0  0  0  0  0  0  0  0  0  0  0
    4.4060    0.9150  -61.0980 N   0  0  0  0  0  0  0  0  0  0  0  0
    3.3740    0.7630  -62.0610 O   0  0  0  0  0  0  0  0  0  0  0  0
    5.8340    2.2210  -59.0230 N   0  0  0  0  0  0  0  0  0  0  0  0
    6.9120    2.5350  -58.2880 N   0  0  0  0  0  0  0  0  0  0  0  0
    6.7660    2.6420  -56.8460 C   0  0  0  0  0  0  0  0  0  0  0  0
    5.8920    1.5250  -56.2860 C   0  0  0  0  0  0  0  0  0  0  0  0
    6.6820    0.6060  -55.3890 C   0  0  0  0  0  0  0  0  0  0  0  0
    8.0810    0.6840  -55.3530 C   0  0  0  0  0  0  0  0  0  0  0  0
    8.8160   -0.1810  -54.5400 C   0  0  0  0  0  0  0  0  0  0  0  0
    8.1680   -1.1360  -53.7440 C   0  0  0  0  0  0  0  0  0  0  0  0
    8.9640   -2.0840  -52.8820 C   0  0  0  0  0  0  0  0  0  0  0  0
    8.9140   -3.3740  -53.3140 F   0  0  0  0  0  0  0  0  0  0  0  0
    8.5430   -2.1100  -51.5860 F   0  0  0  0  0  0  0  0  0  0  0  0
   10.2850   -1.7540  -52.8380 F   0  0  0  0  0  0  0  0  0  0  0  0
    6.7680   -1.2210  -53.7930 C   0  0  0  0  0  0  0  0  0  0  0  0
    6.0330   -0.3560  -54.6080 C   0  0  0  0  0  0  0  0  0  0  0  0
    8.0450    2.7410  -59.0350 C   0  0  0  0  0  0  0  0  0  0  0  0
    9.3360    3.1160  -58.4730 C   0  0  0  0  0  0  0  0  0  0  0  0
   10.1560    2.1500  -57.8810 C   0  0  0  0  0  0  0  0  0  0  0  0
   11.3870    2.5140  -57.3320 C   0  0  0  0  0  0  0  0  0  0  0  0
   11.8040    3.8440  -57.3750 C   0  0  0  0  0  0  0  0  0  0  0  0
   10.9940    4.8100  -57.9700 C   0  0  0  0  0  0  0  0  0  0  0  0
    9.7640    4.4480  -58.5200 C   0  0  0  0  0  0  0  0  0  0  0  0
    9.5513    2.9033  -61.2581 H   0  0  0  0  0  0  0  0  0  0  0  0
    8.4692    1.7921  -62.1641 H   0  0  0  0  0  0  0  0  0  0  0  0
    8.1457    3.5590  -62.1641 H   0  0  0  0  0  0  0  0  0  0  0  0
    4.1310    0.7630  -60.1350 H   0  0  0  0  0  0  0  0  0  0  0  0
    3.6430    1.3980  -62.7630 H   0  0  0  0  0  0  0  0  0  0  0  0
    7.7612    2.5837  -56.3811 H   0  0  0  0  0  0  0  0  0  0  0  0
    6.2824    3.6037  -56.6195 H   0  0  0  0  0  0  0  0  0  0  0  0
    5.0694    1.9702  -55.7071 H   0  0  0  0  0  0  0  0  0  0  0  0
    5.5016    0.9353  -57.1285 H   0  0  0  0  0  0  0  0  0  0  0  0
    8.6030    1.4311  -55.9689 H   0  0  0  0  0  0  0  0  0  0  0  0
    9.9137   -0.1125  -54.5239 H   0  0  0  0  0  0  0  0  0  0  0  0
    6.2453   -1.9743  -53.1852 H   0  0  0  0  0  0  0  0  0  0  0  0
    4.9360   -0.4322  -54.6356 H   0  0  0  0  0  0  0  0  0  0  0  0
    9.8300    1.0999  -57.8478 H   0  0  0  0  0  0  0  0  0  0  0  0
   12.0281    1.7515  -56.8655 H   0  0  0  0  0  0  0  0  0  0  0  0
   12.7724    4.1310  -56.9393 H   0  0  0  0  0  0  0  0  0  0  0  0
   11.3249    5.8584  -58.0059 H   0  0  0  0  0  0  0  0  0  0  0  0
    9.1285    5.2117  -58.9921 H   0  0  0  0  0  0  0  0  0  0  0  0
  1  2  1  0
  2  3  1  0
  3  4  1  0
  4  5  2  0
  4  6  1  0
  6  7  1  0
  3  8  2  0
  8  9  1  0
  9 10  1  0
 10 11  1  0
 11 12  1  0
 12 13  1  0
 13 14  2  0
 14 15  1  0
 15 16  1  0
 16 17  1  0
 16 18  1  0
 16 19  1  0
 15 20  2  0
 20 21  1  0
  9 22  1  0
 22 23  1  0
 23 24  2  0
 24 25  1  0
 25 26  2  0
 26 27  1  0
 27 28  2  0
 22  2  2  0
 28 23  1  0
 21 12  2  0
  1 29  1  0
  1 30  1  0
  1 31  1  0
  6 32  1  0
  7 33  1  0
 10 34  1  0
 10 35  1  0
 11 36  1  0
 11 37  1  0
 13 38  1  0
 14 39  1  0
 20 40  1  0
 21 41  1  0
 24 42  1  0
 25 43  1  0
 26 44  1  0
 27 45  1  0
 28 46  1  0
M  END
>  <meeko>  (5) 
{"is_sidechain": false}

$$$$

     RDKit          3D

 45 47  0  0  0  0  0  0  0  0999 V2000
    8.4870    2.7030  -61.5750 C   0  0  0  0  0  0  0  0  0  0  0  0
    7.6380    2.6050  -60.3580 C   0  0  0  0  0  0  0  0  0  0  0  0
    6.2400    2.2660  -60.2930 C   0  0  0  0  0  0  0  0  0  0  0  0
    5.3050    1.9790  -61.4210 C   0  0  0  0  0  0  0  0  0  0  0  0
    5.3750    2.6030  -62.4790 O   0  0  0  0  0  0  0  0  0  0  0  0
    4.3950    0.9610  -61.1060 N   0  0  0  0  0  0  0  0  0  0  0  0
    3.5730    0.4410  -62.0940 O   0  0  0  0  0  0  0  0  0  0  0  0
    5.8340    2.2140  -59.0080 N   0  0  0  0  0  0  0  0  0  0  0  0
    6.9130    2.5500  -58.2900 N   0  0  0  0  0  0  0  0  0  0  0  0
    6.7730    2.6490  -56.8490 C   0  0  0  0  0  0  0  0  0  0  0  0
    5.9080    1.5240  -56.2930 C   0  0  0  0  0  0  0  0  0  0  0  0
    6.7140    0.5840  -55.4290 C   0  0  0  0  0  0  0  0  0  0  0  0
    6.0690   -0.3770  -54.6390 C   0  0  0  0  0  0  0  0  0  0  0  0
    6.8100   -1.2330  -53.8220 C   0  0  0  0  0  0  0  0  0  0  0  0
    8.2100   -1.1370  -53.7730 C   0  0  0  0  0  0  0  0  0  0  0  0
    9.0110   -2.0760  -52.9080 C   0  0  0  0  0  0  0  0  0  0  0  0
   10.3360   -1.7600  -52.8560 F   0  0  0  0  0  0  0  0  0  0  0  0
    8.5820   -2.0860  -51.6150 F   0  0  0  0  0  0  0  0  0  0  0  0
    8.9590   -3.3730  -53.3260 F   0  0  0  0  0  0  0  0  0  0  0  0
    8.8510   -0.1750  -54.5670 C   0  0  0  0  0  0  0  0  0  0  0  0
    8.1080    0.6820  -55.3830 C   0  0  0  0  0  0  0  0  0  0  0  0
    8.0320    2.7990  -59.0420 C   0  0  0  0  0  0  0  0  0  0  0  0
    9.3210    3.1980  -58.4920 C   0  0  0  0  0  0  0  0  0  0  0  0
    9.7110    4.5420  -58.5270 C   0  0  0  0  0  0  0  0  0  0  0  0
   10.9400    4.9300  -57.9900 C   0  0  0  0  0  0  0  0  0  0  0  0
   11.7860    3.9790  -57.4230 C   0  0  0  0  0  0  0  0  0  0  0  0
   11.4070    2.6370  -57.3950 C   0  0  0  0  0  0  0  0  0  0  0  0
   10.1790    2.2460  -57.9310 C   0  0  0  0  0  0  0  0  0  0  0  0
    9.5395    2.8245  -61.2791 H   0  0  0  0  0  0  0  0  0  0  0  0
    8.3778    1.7863  -62.1731 H   0  0  0  0  0  0  0  0  0  0  0  0
    8.1718    3.5707  -62.1731 H   0  0  0  0  0  0  0  0  0  0  0  0
    4.6210    0.3100  -60.3680 H   0  0  0  0  0  0  0  0  0  0  0  0
    7.7704    2.5939  -56.3884 H   0  0  0  0  0  0  0  0  0  0  0  0
    6.2857    3.6069  -56.6147 H   0  0  0  0  0  0  0  0  0  0  0  0
    5.0988    1.9601  -55.6889 H   0  0  0  0  0  0  0  0  0  0  0  0
    5.4992    0.9517  -57.1388 H   0  0  0  0  0  0  0  0  0  0  0  0
    4.9722   -0.4574  -54.6627 H   0  0  0  0  0  0  0  0  0  0  0  0
    6.2931   -1.9884  -53.2120 H   0  0  0  0  0  0  0  0  0  0  0  0
    9.9479   -0.0944  -54.5472 H   0  0  0  0  0  0  0  0  0  0  0  0
    8.6231    1.4386  -55.9931 H   0  0  0  0  0  0  0  0  0  0  0  0
    9.0476    5.2942  -58.9787 H   0  0  0  0  0  0  0  0  0  0  0  0
   11.2408    5.9878  -58.0146 H   0  0  0  0  0  0  0  0  0  0  0  0
   12.7526    4.2866  -56.9975 H   0  0  0  0  0  0  0  0  0  0  0  0
   12.0765    1.8861  -56.9501 H   0  0  0  0  0  0  0  0  0  0  0  0
    9.8850    1.1862  -57.9123 H   0  0  0  0  0  0  0  0  0  0  0  0
  1  2  1  0
  2  3  1  0
  3  4  1  0
  4  5  2  0
  4  6  1  0
  6  7  1  0
  3  8  2  0
  8  9  1  0
  9 10  1  0
 10 11  1  0
 11 12  1  0
 12 13  1  0
 13 14  2  0
 14 15  1  0
 15 16  1  0
 16 17  1  0
 16 18  1  0
 16 19  1  0
 15 20  2  0
 20 21  1  0
  9 22  1  0
 22 23  1  0
 23 24  2  0
 24 25  1  0
 25 26  2  0
 26 27  1  0
 27 28  2  0
 22  2  2  0
 28 23  1  0
 21 12  2  0
  1 29  1  0
  1 30  1  0
  1 31  1  0
  6 32  1  0
 10 33  1  0
 10 34  1  0
 11 35  1  0
 11 36  1  0
 13 37  1  0
 14 38  1  0
 20 39  1  0
 21 40  1  0
 24 41  1  0
 25 42  1  0
 26 43  1  0
 27 44  1  0
 28 45  1  0
M  CHG  1   7  -1
M  END
>  <meeko>  (6) 
{"is_sidechain": false}

$$$$

     RDKit          3D

 47 50  0  0  0  0  0  0  0  0999 V2000
    9.6860    1.1270  -56.0600 Cl  0  0  0  0  0  0  0  0  0  0  0  0
    8.4330    0.4190  -55.0990 C   0  0  0  0  0  0  0  0  0  0  0  0
    8.8300   -0.3840  -54.0230 C   0  0  0  0  0  0  0  0  0  0  0  0
    7.8750   -1.0290  -53.2350 C   0  0  0  0  0  0  0  0  0  0  0  0
    6.5210   -0.8790  -53.5230 C   0  0  0  0  0  0  0  0  0  0  0  0
    6.1190   -0.0800  -54.5960 C   0  0  0  0  0  0  0  0  0  0  0  0
    7.0710    0.5850  -55.3910 C   0  0  0  0  0  0  0  0  0  0  0  0
    6.6050    1.4210  -56.4810 C   0  0  0  0  0  0  0  0  0  0  0  0
    5.2770    1.5720  -56.8010 N   0  0  0  0  0  0  0  0  0  0  0  0
    5.2220    2.3910  -57.8420 N   0  0  0  0  0  0  0  0  0  0  0  0
    6.4970    2.6720  -58.1170 N   0  0  0  0  0  0  0  0  0  0  0  0
    6.8530    3.6970  -59.0880 C   0  0  2  0  0  0  0  0  0  0  0  0
    7.4380    3.0960  -60.3750 C   0  0  0  0  0  0  0  0  0  0  0  0
    8.9450    2.9450  -60.2670 C   0  0  0  0  0  0  0  0  0  0  0  0
    9.5900    4.3180  -60.1350 N   0  0  2  0  0  0  0  0  0  0  0  0
   11.0570    4.2180  -59.6810 C   0  0  0  0  0  0  0  0  0  0  0  0
   11.6930    5.6100  -59.6560 C   0  0  0  0  0  0  0  0  0  0  0  0
   13.1240    5.5030  -59.1460 C   0  0  0  0  0  0  0  0  0  0  0  0
   13.1320    4.8600  -57.8760 O   0  0  0  0  0  0  0  0  0  0  0  0
   12.6770    3.5120  -57.9290 C   0  0  0  0  0  0  0  0  0  0  0  0
   11.2130    3.4860  -58.3480 C   0  0  0  0  0  0  0  0  0  0  0  0
    8.7320    5.3600  -59.4370 C   0  0  0  0  0  0  0  0  0  0  0  0
    7.7950    4.7180  -58.4330 C   0  0  0  0  0  0  0  0  0  0  0  0
    7.4160    2.1120  -57.3080 N   0  0  0  0  0  0  0  0  0  0  0  0
    9.8995   -0.5073  -53.7974 H   0  0  0  0  0  0  0  0  0  0  0  0
    8.1918   -1.6549  -52.3877 H   0  0  0  0  0  0  0  0  0  0  0  0
    5.7676   -1.3899  -52.9054 H   0  0  0  0  0  0  0  0  0  0  0  0
    5.0481    0.0305  -54.8217 H   0  0  0  0  0  0  0  0  0  0  0  0
    5.9382    4.2222  -59.3998 H   0  0  0  0  0  0  0  0  0  0  0  0
    6.9885    2.1069  -60.5472 H   0  0  0  0  0  0  0  0  0  0  0  0
    7.2120    3.7722  -61.2127 H   0  0  0  0  0  0  0  0  0  0  0  0
    9.1893    2.3396  -59.3817 H   0  0  0  0  0  0  0  0  0  0  0  0
    9.3271    2.4483  -61.1710 H   0  0  0  0  0  0  0  0  0  0  0  0
    9.6560    4.6570  -61.1060 H   0  0  0  0  0  0  0  0  0  0  0  0
   11.5971    3.6037  -60.4164 H   0  0  0  0  0  0  0  0  0  0  0  0
   11.6961    6.0304  -60.6725 H   0  0  0  0  0  0  0  0  0  0  0  0
   11.1138    6.2668  -58.9904 H   0  0  0  0  0  0  0  0  0  0  0  0
   13.7231    4.9156  -59.8574 H   0  0  0  0  0  0  0  0  0  0  0  0
   13.5528    6.5112  -59.0475 H   0  0  0  0  0  0  0  0  0  0  0  0
   13.2776    2.9509  -58.6601 H   0  0  0  0  0  0  0  0  0  0  0  0
   12.7823    3.0504  -56.9361 H   0  0  0  0  0  0  0  0  0  0  0  0
   10.8812    2.4433  -58.4602 H   0  0  0  0  0  0  0  0  0  0  0  0
   10.6008    3.9824  -57.5807 H   0  0  0  0  0  0  0  0  0  0  0  0
    9.3873    6.0708  -58.9122 H   0  0  0  0  0  0  0  0  0  0  0  0
    8.1267    5.8769  -60.1962 H   0  0  0  0  0  0  0  0  0  0  0  0
    8.3947    4.2056  -57.6663 H   0  0  0  0  0  0  0  0  0  0  0  0
    7.1763    5.5136  -57.9922 H   0  0  0  0  0  0  0  0  0  0  0  0
  1  2  1  0
  2  3  2  0
  3  4  1  0
  4  5  2  0
  5  6  1  0
  6  7  2  0
  7  8  1  0
  8  9  1  0
  9 10  2  0
 10 11  1  0
 11 12  1  0
 12 13  1  0
 13 14  1  0
 14 15  1  0
 15 16  1  0
 16 17  1  0
 17 18  1  0
 18 19  1  0
 19 20  1  0
 20 21  1  0
 15 22  1  0
 22 23  1  0
 11 24  1  0
  7  2  1  0
 24  8  2  0
 23 12  1  0
 21 16  1  0
  3 25  1  0
  4 26  1  0
  5 27  1  0
  6 28  1  0
 12 29  1  1
 13 30  1  0
 13 31  1  0
 14 32  1  0
 14 33  1  0
 15 34  1  1
 16 35  1  0
 17 36  1  0
 17 37  1  0
 18 38  1  0
 18 39  1  0
 20 40  1  0
 20 41  1  0
 21 42  1  0
 21 43  1  0
 22 44  1  0
 22 45  1  0
 23 46  1  0
 23 47  1  0
M  CHG  1  15   1
M  END
>  <meeko>  (7) 
{"is_sidechain": false}

$$$$

     RDKit          3D

 47 50  0  0  0  0  0  0  0  0999 V2000
    9.1610    5.3660  -56.8490 Cl  0  0  0  0  0  0  0  0  0  0  0  0
    9.4380    4.4840  -58.3140 C   0  0  0  0  0  0  0  0  0  0  0  0
   10.1520    5.1490  -59.3200 C   0  0  0  0  0  0  0  0  0  0  0  0
   10.3770    4.5340  -60.5510 C   0  0  0  0  0  0  0  0  0  0  0  0
    9.8840    3.2550  -60.7880 C   0  0  0  0  0  0  0  0  0  0  0  0
    9.1730    2.5870  -59.7890 C   0  0  0  0  0  0  0  0  0  0  0  0
    8.9480    3.1850  -58.5350 C   0  0  0  0  0  0  0  0  0  0  0  0
    8.2100    2.4290  -57.5370 C   0  0  0  0  0  0  0  0  0  0  0  0
    6.8360    2.4780  -57.4380 N   0  0  0  0  0  0  0  0  0  0  0  0
    6.4910    1.6770  -56.4390 N   0  0  0  0  0  0  0  0  0  0  0  0
    7.6500    1.1630  -56.0110 N   0  0  0  0  0  0  0  0  0  0  0  0
    7.7290    0.3200  -54.8340 C   0  0  2  0  0  0  0  0  0  0  0  0
    9.1110   -0.3210  -54.6800 C   0  0  0  0  0  0  0  0  0  0  0  0
    9.1640   -1.2130  -53.4510 C   0  0  0  0  0  0  0  0  0  0  0  0
    8.0680   -2.2660  -53.5370 N   0  0  1  0  0  0  0  0  0  0  0  0
    8.2470   -3.3700  -52.4690 C   0  0  0  0  0  0  0  0  0  0  0  0
    8.9000   -2.8650  -51.1800 C   0  0  0  0  0  0  0  0  0  0  0  0
    7.9000   -2.4880  -50.1000 C   0  0  0  0  0  0  0  0  0  0  0  0
    6.9530   -3.5330  -49.9360 O   0  0  0  0  0  0  0  0  0  0  0  0
    6.1210   -3.7070  -51.0720 C   0  0  0  0  0  0  0  0  0  0  0  0
    6.9470   -4.1580  -52.2650 C   0  0  0  0  0  0  0  0  0  0  0  0
    6.7000   -1.6360  -53.6300 C   0  0  0  0  0  0  0  0  0  0  0  0
    6.6300   -0.7440  -54.8580 C   0  0  0  0  0  0  0  0  0  0  0  0
    8.7490    1.5740  -56.6480 N   0  0  0  0  0  0  0  0  0  0  0  0
   10.5375    6.1629  -59.1373 H   0  0  0  0  0  0  0  0  0  0  0  0
   10.9436    5.0596  -61.3338 H   0  0  0  0  0  0  0  0  0  0  0  0
   10.0540    2.7706  -61.7609 H   0  0  0  0  0  0  0  0  0  0  0  0
    8.7826    1.5775  -59.9852 H   0  0  0  0  0  0  0  0  0  0  0  0
    7.5723    0.9636  -53.9558 H   0  0  0  0  0  0  0  0  0  0  0  0
    9.3286   -0.9256  -55.5728 H   0  0  0  0  0  0  0  0  0  0  0  0
    9.8573    0.4789  -54.5648 H   0  0  0  0  0  0  0  0  0  0  0  0
   10.1447   -1.7086  -53.4003 H   0  0  0  0  0  0  0  0  0  0  0  0
    9.0135   -0.6017  -52.5490 H   0  0  0  0  0  0  0  0  0  0  0  0
    8.2310   -2.7530  -54.4320 H   0  0  0  0  0  0  0  0  0  0  0  0
    8.9793   -4.0932  -52.8572 H   0  0  0  0  0  0  0  0  0  0  0  0
    9.5538   -3.6578  -50.7874 H   0  0  0  0  0  0  0  0  0  0  0  0
    9.4578   -1.9523  -51.4366 H   0  0  0  0  0  0  0  0  0  0  0  0
    8.4316   -2.3246  -49.1510 H   0  0  0  0  0  0  0  0  0  0  0  0
    7.3768   -1.5665  -50.3950 H   0  0  0  0  0  0  0  0  0  0  0  0
    5.3581   -4.4677  -50.8502 H   0  0  0  0  0  0  0  0  0  0  0  0
    5.6378   -2.7485  -51.3125 H   0  0  0  0  0  0  0  0  0  0  0  0
    7.2055   -5.2178  -52.1237 H   0  0  0  0  0  0  0  0  0  0  0  0
    6.3299   -3.9829  -53.1586 H   0  0  0  0  0  0  0  0  0  0  0  0
    5.9382   -2.4257  -53.7077 H   0  0  0  0  0  0  0  0  0  0  0  0
    6.5149   -1.0318  -52.7296 H   0  0  0  0  0  0  0  0  0  0  0  0
    6.7506   -1.3638  -55.7587 H   0  0  0  0  0  0  0  0  0  0  0  0
    5.6543   -0.2361  -54.8637 H   0  0  0  0  0  0  0  0  0  0  0  0
  1  2  1  0
  2  3  2  0
  3  4  1  0
  4  5  2  0
  5  6  1  0
  6  7  2  0
  7  8  1  0
  8  9  1  0
  9 10  2  0
 10 11  1  0
 11 12  1  0
 12 13  1  0
 13 14  1  0
 14 15  1  0
 15 16  1  0
 16 17  1  0
 17 18  1  0
 18 19  1  0
 19 20  1  0
 20 21  1  0
 15 22  1  0
 22 23  1  0
 11 24  1  0
  7  2  1  0
 24  8  2  0
 23 12  1  0
 21 16  1  0
  3 25  1  0
  4 26  1  0
  5 27  1  0
  6 28  1  0
 12 29  1  6
 13 30  1  0
 13 31  1  0
 14 32  1  0
 14 33  1  0
 15 34  1  1
 16 35  1  0
 17 36  1  0
 17 37  1  0
 18 38  1  0
 18 39  1  0
 20 40  1  0
 20 41  1  0
 21 42  1  0
 21 43  1  0
 22 44  1  0
 22 45  1  0
 23 46  1  0
 23 47  1  0
M  CHG  1  15   1
M  END
>  <meeko>  (8) 
{"is_sidechain": false}

$$$$

     RDKit          3D

 72 76  0  0  0  0  0  0  0  0999 V2000
    7.0780    0.3670  -52.5100 N   0  0  0  0  0  0  0  0  0  0  0  0
    7.2140   -0.1600  -53.7560 C   0  0  0  0  0  0  0  0  0  0  0  0
    6.2510   -0.1070  -54.5140 O   0  0  0  0  0  0  0  0  0  0  0  0
    8.4980   -0.7550  -54.1220 C   0  0  0  0  0  0  0  0  0  0  0  0
    9.4890   -0.3840  -55.0880 C   0  0  0  0  0  0  0  0  0  0  0  0
    9.5210    0.7380  -56.0420 C   0  0  0  0  0  0  0  0  0  0  0  0
   10.4900    1.0590  -56.7260 O   0  0  0  0  0  0  0  0  0  0  0  0
    8.3270    1.4370  -56.1050 N   0  0  0  0  0  0  0  0  0  0  0  0
    8.2280    2.7490  -56.7290 C   0  0  2  0  0  0  0  0  0  0  0  0
    7.3370    2.6730  -57.9740 C   0  0  0  0  0  0  0  0  0  0  0  0
    8.1600    2.2810  -59.1880 C   0  0  0  0  0  0  0  0  0  0  0  0
    9.2360    3.3080  -59.5260 C   0  0  0  0  0  0  0  0  0  0  0  0
    9.6120    4.1780  -58.3300 N   0  0  2  0  0  0  0  0  0  0  0  0
   10.9260    4.9530  -58.5730 C   0  0  0  0  0  0  0  0  0  0  0  0
   12.1260    3.9930  -58.4160 C   0  0  0  0  0  0  0  0  0  0  0  0
   13.3970    4.4530  -59.1350 C   0  0  0  0  0  0  0  0  0  0  0  0
   13.4180    5.9550  -59.3520 C   0  0  0  0  0  0  0  0  0  0  0  0
   12.2320    6.4070  -60.2000 C   0  0  0  0  0  0  0  0  0  0  0  0
   10.9560    5.5870  -59.9690 C   0  0  0  0  0  0  0  0  0  0  0  0
    9.6300    3.3420  -57.0560 C   0  0  0  0  0  0  0  0  0  0  0  0
   10.5340   -1.2390  -55.0880 N   0  0  0  0  0  0  0  0  0  0  0  0
   10.2400   -2.1300  -54.1170 N   0  0  0  0  0  0  0  0  0  0  0  0
   11.1740   -3.2260  -53.8520 C   0  0  0  0  0  0  0  0  0  0  0  0
   11.4000   -4.0920  -55.0660 C   0  0  0  0  0  0  0  0  0  0  0  0
   12.5290   -4.9200  -55.1440 C   0  0  0  0  0  0  0  0  0  0  0  0
   12.7480   -5.7170  -56.2680 C   0  0  0  0  0  0  0  0  0  0  0  0
   11.8360   -5.7060  -57.3210 C   0  0  0  0  0  0  0  0  0  0  0  0
   10.7020   -4.8990  -57.2500 C   0  0  0  0  0  0  0  0  0  0  0  0
   10.4830   -4.0980  -56.1290 C   0  0  0  0  0  0  0  0  0  0  0  0
    9.0270   -1.8970  -53.5170 C   0  0  0  0  0  0  0  0  0  0  0  0
    8.4980   -2.7330  -52.4420 C   0  0  0  0  0  0  0  0  0  0  0  0
    9.1900   -2.8500  -51.2310 C   0  0  0  0  0  0  0  0  0  0  0  0
    8.6730   -3.6330  -50.1960 C   0  0  0  0  0  0  0  0  0  0  0  0
    7.4620   -4.3040  -50.3690 C   0  0  0  0  0  0  0  0  0  0  0  0
    6.7780   -4.1950  -51.5780 C   0  0  0  0  0  0  0  0  0  0  0  0
    5.2760   -5.0120  -51.7860 Cl  0  0  0  0  0  0  0  0  0  0  0  0
    7.2890   -3.4180  -52.6150 C   0  0  0  0  0  0  0  0  0  0  0  0
    6.1960    0.8170  -52.3050 H   0  0  0  0  0  0  0  0  0  0  0  0
    7.8280    0.4540  -51.8350 H   0  0  0  0  0  0  0  0  0  0  0  0
    7.6950    1.1710  -55.3450 H   0  0  0  0  0  0  0  0  0  0  0  0
    7.7597    3.4381  -56.0108 H   0  0  0  0  0  0  0  0  0  0  0  0
    6.5497    1.9221  -57.8115 H   0  0  0  0  0  0  0  0  0  0  0  0
    6.8854    3.6602  -58.1515 H   0  0  0  0  0  0  0  0  0  0  0  0
    8.6463    1.3151  -58.9866 H   0  0  0  0  0  0  0  0  0  0  0  0
    7.4763    2.2207  -60.0476 H   0  0  0  0  0  0  0  0  0  0  0  0
   10.1348    2.7761  -59.8714 H   0  0  0  0  0  0  0  0  0  0  0  0
    8.8320    3.9700  -60.3061 H   0  0  0  0  0  0  0  0  0  0  0  0
    8.8770    4.8890  -58.2170 H   0  0  0  0  0  0  0  0  0  0  0  0
   10.9878    5.7621  -57.8304 H   0  0  0  0  0  0  0  0  0  0  0  0
   12.3522    3.8962  -57.3439 H   0  0  0  0  0  0  0  0  0  0  0  0
   11.8299    3.0393  -58.8773 H   0  0  0  0  0  0  0  0  0  0  0  0
   14.2699    4.1700  -58.5284 H   0  0  0  0  0  0  0  0  0  0  0  0
   13.4226    3.9677  -60.1218 H   0  0  0  0  0  0  0  0  0  0  0  0
   13.3737    6.4593  -58.3754 H   0  0  0  0  0  0  0  0  0  0  0  0
   14.3454    6.2173  -59.8823 H   0  0  0  0  0  0  0  0  0  0  0  0
   12.0160    7.4588  -59.9612 H   0  0  0  0  0  0  0  0  0  0  0  0
   12.5182    6.2638  -61.2524 H   0  0  0  0  0  0  0  0  0  0  0  0
   10.0840    6.2487  -60.0774 H   0  0  0  0  0  0  0  0  0  0  0  0
   10.9342    4.7756  -60.7114 H   0  0  0  0  0  0  0  0  0  0  0  0
   10.3445    2.5154  -57.1834 H   0  0  0  0  0  0  0  0  0  0  0  0
    9.9249    3.9973  -56.2232 H   0  0  0  0  0  0  0  0  0  0  0  0
   12.1381   -2.8006  -53.5366 H   0  0  0  0  0  0  0  0  0  0  0  0
   10.7367   -3.8578  -53.0648 H   0  0  0  0  0  0  0  0  0  0  0  0
   13.2481   -4.9413  -54.3119 H   0  0  0  0  0  0  0  0  0  0  0  0
   13.6423   -6.3551  -56.3228 H   0  0  0  0  0  0  0  0  0  0  0  0
   12.0107   -6.3335  -58.2074 H   0  0  0  0  0  0  0  0  0  0  0  0
    9.9788   -4.8936  -58.0788 H   0  0  0  0  0  0  0  0  0  0  0  0
    9.5843   -3.4658  -56.0776 H   0  0  0  0  0  0  0  0  0  0  0  0
   10.1456   -2.3228  -51.0936 H   0  0  0  0  0  0  0  0  0  0  0  0
    9.2201   -3.7204  -49.2457 H   0  0  0  0  0  0  0  0  0  0  0  0
    7.0489   -4.9166  -49.5541 H   0  0  0  0  0  0  0  0  0  0  0  0
    6.7441   -3.3427  -53.5676 H   0  0  0  0  0  0  0  0  0  0  0  0
  1  2  1  0
  2  3  2  0
  2  4  1  0
  4  5  1  0
  5  6  1  0
  6  7  2  0
  6  8  1  0
  8  9  1  0
  9 10  1  0
 10 11  1  0
 11 12  1  0
 12 13  1  0
 13 14  1  0
 14 15  1  0
 15 16  1  0
 16 17  1  0
 17 18  1  0
 18 19  1  0
 13 20  1  0
  5 21  2  0
 21 22  1  0
 22 23  1  0
 23 24  1  0
 24 25  2  0
 25 26  1  0
 26 27  2  0
 27 28  1  0
 28 29  2  0
 22 30  1  0
 30 31  1  0
 31 32  2  0
 32 33  1  0
 33 34  2  0
 34 35  1  0
 35 36  1  0
 35 37  2  0
 30  4  2  0
 37 31  1  0
 20  9  1  0
 29 24  1  0
 19 14  1  0
  1 38  1  0
  1 39  1  0
  8 40  1  0
  9 41  1  1
 10 42  1  0
 10 43  1  0
 11 44  1  0
 11 45  1  0
 12 46  1  0
 12 47  1  0
 13 48  1  1
 14 49  1  0
 15 50  1  0
 15 51  1  0
 16 52  1  0
 16 53  1  0
 17 54  1  0
 17 55  1  0
 18 56  1  0
 18 57  1  0
 19 58  1  0
 19 59  1  0
 20 60  1  0
 20 61  1  0
 23 62  1  0
 23 63  1  0
 25 64  1  0
 26 65  1  0
 27 66  1  0
 28 67  1  0
 29 68  1  0
 32 69  1  0
 33 70  1  0
 34 71  1  0
 37 72  1  0
M  CHG  1  13   1
M  END
>  <meeko>  (9) 
{"is_sidechain": false}

$$$$

     RDKit          3D

 72 76  0  0  0  0  0  0  0  0999 V2000
    5.7430   -0.0590  -53.9880 N   0  0  0  0  0  0  0  0  0  0  0  0
    6.9180    0.1420  -53.3330 C   0  0  0  0  0  0  0  0  0  0  0  0
    6.8970    0.7910  -52.2910 O   0  0  0  0  0  0  0  0  0  0  0  0
    8.1360   -0.4240  -53.9060 C   0  0  0  0  0  0  0  0  0  0  0  0
    8.9810    0.0050  -54.9790 C   0  0  0  0  0  0  0  0  0  0  0  0
    8.8710    1.1720  -55.8710 C   0  0  0  0  0  0  0  0  0  0  0  0
    7.8500    1.5120  -56.4620 O   0  0  0  0  0  0  0  0  0  0  0  0
   10.0660    1.8600  -56.0060 N   0  0  0  0  0  0  0  0  0  0  0  0
   10.2600    2.8830  -57.0180 C   0  0  2  0  0  0  0  0  0  0  0  0
    9.5920    4.2010  -56.5940 C   0  0  0  0  0  0  0  0  0  0  0  0
    8.3030    4.4450  -57.3670 C   0  0  0  0  0  0  0  0  0  0  0  0
    8.5470    4.5470  -58.8740 C   0  0  0  0  0  0  0  0  0  0  0  0
    9.5870    3.5420  -59.3710 N   0  0  1  0  0  0  0  0  0  0  0  0
   10.8860    4.2080  -59.8720 C   0  0  0  0  0  0  0  0  0  0  0  0
   10.8600    5.7290  -59.6490 C   0  0  0  0  0  0  0  0  0  0  0  0
   12.1880    6.3850  -60.0300 C   0  0  0  0  0  0  0  0  0  0  0  0
   13.3630    5.7580  -59.2930 C   0  0  0  0  0  0  0  0  0  0  0  0
   13.4020    4.2490  -59.5010 C   0  0  0  0  0  0  0  0  0  0  0  0
   12.0790    3.5950  -59.1100 C   0  0  0  0  0  0  0  0  0  0  0  0
    9.7510    2.3960  -58.3880 C   0  0  0  0  0  0  0  0  0  0  0  0
   10.0300   -0.8300  -55.1580 N   0  0  0  0  0  0  0  0  0  0  0  0
    9.8490   -1.7970  -54.2320 N   0  0  0  0  0  0  0  0  0  0  0  0
   10.8300   -2.8780  -54.1330 C   0  0  0  0  0  0  0  0  0  0  0  0
   11.1280   -3.5090  -55.4700 C   0  0  0  0  0  0  0  0  0  0  0  0
   11.6530   -2.7510  -56.5280 C   0  0  0  0  0  0  0  0  0  0  0  0
   11.9190   -3.3450  -57.7630 C   0  0  0  0  0  0  0  0  0  0  0  0
   11.6700   -4.7030  -57.9530 C   0  0  0  0  0  0  0  0  0  0  0  0
   11.1600   -5.4680  -56.9080 C   0  0  0  0  0  0  0  0  0  0  0  0
   10.8950   -4.8790  -55.6710 C   0  0  0  0  0  0  0  0  0  0  0  0
    8.7420   -1.5950  -53.4440 C   0  0  0  0  0  0  0  0  0  0  0  0
    8.3470   -2.5120  -52.3780 C   0  0  0  0  0  0  0  0  0  0  0  0
    9.2150   -2.7710  -51.3100 C   0  0  0  0  0  0  0  0  0  0  0  0
    8.8450   -3.6650  -50.3020 C   0  0  0  0  0  0  0  0  0  0  0  0
    7.6050   -4.3020  -50.3570 C   0  0  0  0  0  0  0  0  0  0  0  0
    6.7370   -4.0370  -51.4160 C   0  0  0  0  0  0  0  0  0  0  0  0
    5.2150   -4.8340  -51.4920 Cl  0  0  0  0  0  0  0  0  0  0  0  0
    7.0980   -3.1430  -52.4220 C   0  0  0  0  0  0  0  0  0  0  0  0
    5.6480   -0.5450  -54.8740 H   0  0  0  0  0  0  0  0  0  0  0  0
    4.9140    0.3520  -53.5800 H   0  0  0  0  0  0  0  0  0  0  0  0
   10.8470    1.3620  -55.5750 H   0  0  0  0  0  0  0  0  0  0  0  0
   11.3378    3.0789  -57.1181 H   0  0  0  0  0  0  0  0  0  0  0  0
    9.3616    4.1558  -55.5193 H   0  0  0  0  0  0  0  0  0  0  0  0
   10.2866    5.0261  -56.8103 H   0  0  0  0  0  0  0  0  0  0  0  0
    7.6111    3.6117  -57.1752 H   0  0  0  0  0  0  0  0  0  0  0  0
    7.8794    5.4014  -57.0266 H   0  0  0  0  0  0  0  0  0  0  0  0
    7.5980    4.3601  -59.3979 H   0  0  0  0  0  0  0  0  0  0  0  0
    8.9332    5.5559  -59.0813 H   0  0  0  0  0  0  0  0  0  0  0  0
    9.1770    3.1050  -60.2080 H   0  0  0  0  0  0  0  0  0  0  0  0
   10.9816    4.0281  -60.9530 H   0  0  0  0  0  0  0  0  0  0  0  0
   10.0589    6.1648  -60.2641 H   0  0  0  0  0  0  0  0  0  0  0  0
   10.6838    5.9133  -58.5790 H   0  0  0  0  0  0  0  0  0  0  0  0
   12.3444    6.2687  -61.1126 H   0  0  0  0  0  0  0  0  0  0  0  0
   12.1366    7.4471  -59.7485 H   0  0  0  0  0  0  0  0  0  0  0  0
   14.2986    6.1965  -59.6704 H   0  0  0  0  0  0  0  0  0  0  0  0
   13.2468    5.9585  -58.2177 H   0  0  0  0  0  0  0  0  0  0  0  0
   13.6043    4.0397  -60.5618 H   0  0  0  0  0  0  0  0  0  0  0  0
   14.1944    3.8332  -58.8613 H   0  0  0  0  0  0  0  0  0  0  0  0
   12.1325    2.5203  -59.3386 H   0  0  0  0  0  0  0  0  0  0  0  0
   11.9199    3.7647  -58.0349 H   0  0  0  0  0  0  0  0  0  0  0  0
    8.7773    1.9029  -58.2509 H   0  0  0  0  0  0  0  0  0  0  0  0
   10.4946    1.6976  -58.7994 H   0  0  0  0  0  0  0  0  0  0  0  0
   11.7640   -2.4704  -53.7188 H   0  0  0  0  0  0  0  0  0  0  0  0
   10.4060   -3.6567  -53.4820 H   0  0  0  0  0  0  0  0  0  0  0  0
   11.8566   -1.6798  -56.3829 H   0  0  0  0  0  0  0  0  0  0  0  0
   12.3256   -2.7405  -58.5871 H   0  0  0  0  0  0  0  0  0  0  0  0
   11.8762   -5.1697  -58.9275 H   0  0  0  0  0  0  0  0  0  0  0  0
   10.9652   -6.5402  -57.0577 H   0  0  0  0  0  0  0  0  0  0  0  0
   10.5007   -5.4924  -54.8474 H   0  0  0  0  0  0  0  0  0  0  0  0
   10.1924   -2.2684  -51.2645 H   0  0  0  0  0  0  0  0  0  0  0  0
    9.5308   -3.8664  -49.4658 H   0  0  0  0  0  0  0  0  0  0  0  0
    7.3130   -5.0107  -49.5680 H   0  0  0  0  0  0  0  0  0  0  0  0
    6.4033   -2.9335  -53.2488 H   0  0  0  0  0  0  0  0  0  0  0  0
  1  2  1  0
  2  3  2  0
  2  4  1  0
  4  5  1  0
  5  6  1  0
  6  7  2  0
  6  8  1  0
  8  9  1  0
  9 10  1  0
 10 11  1  0
 11 12  1  0
 12 13  1  0
 13 14  1  0
 14 15  1  0
 15 16  1  0
 16 17  1  0
 17 18  1  0
 18 19  1  0
 13 20  1  0
  5 21  2  0
 21 22  1  0
 22 23  1  0
 23 24  1  0
 24 25  2  0
 25 26  1  0
 26 27  2  0
 27 28  1  0
 28 29  2  0
 22 30  1  0
 30 31  1  0
 31 32  2  0
 32 33  1  0
 33 34  2  0
 34 35  1  0
 35 36  1  0
 35 37  2  0
 30  4  2  0
 37 31  1  0
 20  9  1  0
 29 24  1  0
 19 14  1  0
  1 38  1  0
  1 39  1  0
  8 40  1  0
  9 41  1  6
 10 42  1  0
 10 43  1  0
 11 44  1  0
 11 45  1  0
 12 46  1  0
 12 47  1  0
 13 48  1  6
 14 49  1  0
 15 50  1  0
 15 51  1  0
 16 52  1  0
 16 53  1  0
 17 54  1  0
 17 55  1  0
 18 56  1  0
 18 57  1  0
 19 58  1  0
 19 59  1  0
 20 60  1  0
 20 61  1  0
 23 62  1  0
 23 63  1  0
 25 64  1  0
 26 65  1  0
 27 66  1  0
 28 67  1  0
 29 68  1  0
 32 69  1  0
 33 70  1  0
 34 71  1  0
 37 72  1  0
M  CHG  1  13   1
M  END
>  <meeko>  (10) 
{"is_sidechain": false}

$$$$

     RDKit          3D

 66 71  0  0  0  0  0  0  0  0999 V2000
    5.8940    0.2170  -53.7120 C   0  0  0  0  0  0  0  0  0  0  0  0
    7.2380   -0.2630  -54.1240 C   0  0  0  0  0  0  0  0  0  0  0  0
    8.0840    0.2700  -55.1480 C   0  0  0  0  0  0  0  0  0  0  0  0
    7.8100    1.3880  -56.0740 C   0  0  0  0  0  0  0  0  0  0  0  0
    6.7270    1.9630  -56.1250 O   0  0  0  0  0  0  0  0  0  0  0  0
    8.9000    1.7390  -56.8540 N   0  0  0  0  0  0  0  0  0  0  0  0
    8.9330    2.8830  -57.7700 C   0  0  2  0  0  0  0  0  0  0  0  0
    7.7990    2.8160  -58.8250 C   0  0  0  0  0  0  0  0  0  0  0  0
    7.8980    4.0010  -59.8020 C   0  0  1  0  0  0  0  0  0  0  0  0
    7.7960    5.3170  -59.0120 C   0  0  0  0  0  0  0  0  0  0  0  0
    8.9410    5.4110  -57.9890 C   0  0  2  0  0  0  0  0  0  0  0  0
   10.2870    5.3490  -58.7270 C   0  0  0  0  0  0  0  0  0  0  0  0
   10.3970    4.0310  -59.5110 C   0  0  2  0  0  0  0  0  0  0  0  0
    9.2500    3.9490  -60.5300 C   0  0  0  0  0  0  0  0  0  0  0  0
   10.2860    2.8520  -58.5320 C   0  0  0  0  0  0  0  0  0  0  0  0
    8.8430    4.2280  -57.0090 C   0  0  0  0  0  0  0  0  0  0  0  0
    9.2460   -0.3980  -55.1990 N   0  0  0  0  0  0  0  0  0  0  0  0
    9.1580   -1.3420  -54.2480 N   0  0  0  0  0  0  0  0  0  0  0  0
   10.2820   -2.2560  -54.0260 C   0  0  0  0  0  0  0  0  0  0  0  0
   11.5570   -1.7860  -54.7420 C   0  0  0  0  0  0  0  0  0  0  0  0
   11.6090   -2.1750  -56.2180 C   0  0  0  0  0  0  0  0  0  0  0  0
   11.3770   -3.6680  -56.4120 C   0  0  0  0  0  0  0  0  0  0  0  0
   10.0580   -4.1190  -55.7980 C   0  0  0  0  0  0  0  0  0  0  0  0
    9.9460   -3.7300  -54.3230 C   0  0  0  0  0  0  0  0  0  0  0  0
    7.9590   -1.3120  -53.5700 C   0  0  0  0  0  0  0  0  0  0  0  0
    7.6020   -2.2110  -52.4800 C   0  0  0  0  0  0  0  0  0  0  0  0
    6.7410   -3.2890  -52.7110 C   0  0  0  0  0  0  0  0  0  0  0  0
    6.4010   -4.1530  -51.6680 C   0  0  0  0  0  0  0  0  0  0  0  0
    6.9160   -3.9380  -50.3890 C   0  0  0  0  0  0  0  0  0  0  0  0
    7.7680   -2.8600  -50.1520 C   0  0  0  0  0  0  0  0  0  0  0  0
    8.1100   -1.9970  -51.1940 C   0  0  0  0  0  0  0  0  0  0  0  0
    5.8331    0.2387  -52.6139 H   0  0  0  0  0  0  0  0  0  0  0  0
    5.7289    1.2297  -54.1085 H   0  0  0  0  0  0  0  0  0  0  0  0
    5.1247   -0.4620  -54.1085 H   0  0  0  0  0  0  0  0  0  0  0  0
    9.7890    1.3760  -56.5390 H   0  0  0  0  0  0  0  0  0  0  0  0
    7.8842    1.8750  -59.3882 H   0  0  0  0  0  0  0  0  0  0  0  0
    6.8296    2.8630  -58.3073 H   0  0  0  0  0  0  0  0  0  0  0  0
    7.0815    3.9447  -60.5370 H   0  0  0  0  0  0  0  0  0  0  0  0
    7.8606    6.1655  -59.7091 H   0  0  0  0  0  0  0  0  0  0  0  0
    6.8343    5.3425  -58.4786 H   0  0  0  0  0  0  0  0  0  0  0  0
    8.8668    6.3584  -57.4350 H   0  0  0  0  0  0  0  0  0  0  0  0
   10.3586    6.1955  -59.4258 H   0  0  0  0  0  0  0  0  0  0  0  0
   11.1041    5.4013  -57.9924 H   0  0  0  0  0  0  0  0  0  0  0  0
   11.3629    3.9914  -60.0359 H   0  0  0  0  0  0  0  0  0  0  0  0
    9.3211    4.7962  -61.2279 H   0  0  0  0  0  0  0  0  0  0  0  0
    9.3260    3.0023  -61.0849 H   0  0  0  0  0  0  0  0  0  0  0  0
   10.3598    1.9097  -59.0947 H   0  0  0  0  0  0  0  0  0  0  0  0
   11.1019    2.9293  -57.7983 H   0  0  0  0  0  0  0  0  0  0  0  0
    9.6681    4.2894  -56.2841 H   0  0  0  0  0  0  0  0  0  0  0  0
    7.8754    4.2774  -56.4882 H   0  0  0  0  0  0  0  0  0  0  0  0
   10.4884   -2.2199  -52.9461 H   0  0  0  0  0  0  0  0  0  0  0  0
   11.6125   -0.6898  -54.6693 H   0  0  0  0  0  0  0  0  0  0  0  0
   12.4055   -2.2820  -54.2480 H   0  0  0  0  0  0  0  0  0  0  0  0
   10.8308   -1.6191  -56.7615 H   0  0  0  0  0  0  0  0  0  0  0  0
   12.6092   -1.9288  -56.6041 H   0  0  0  0  0  0  0  0  0  0  0  0
   11.3625   -3.8892  -57.4894 H   0  0  0  0  0  0  0  0  0  0  0  0
   12.1917   -4.2093  -55.9087 H   0  0  0  0  0  0  0  0  0  0  0  0
    9.2308   -3.6510  -56.3518 H   0  0  0  0  0  0  0  0  0  0  0  0
   10.0122   -5.2161  -55.8629 H   0  0  0  0  0  0  0  0  0  0  0  0
    8.9136   -3.9204  -53.9945 H   0  0  0  0  0  0  0  0  0  0  0  0
   10.6872   -4.3361  -53.7814 H   0  0  0  0  0  0  0  0  0  0  0  0
    6.3304   -3.4567  -53.7176 H   0  0  0  0  0  0  0  0  0  0  0  0
    5.7276   -5.0026  -51.8545 H   0  0  0  0  0  0  0  0  0  0  0  0
    6.6497   -4.6192  -49.5674 H   0  0  0  0  0  0  0  0  0  0  0  0
    8.1710   -2.6896  -49.1427 H   0  0  0  0  0  0  0  0  0  0  0  0
    8.7808   -1.1462  -51.0038 H   0  0  0  0  0  0  0  0  0  0  0  0
  1  2  1  0
  2  3  1  0
  3  4  1  0
  4  5  2  0
  4  6  1  0
  7  6  1  1
  7  8  1  0
  8  9  1  0
  9 10  1  0
 10 11  1  0
 11 12  1  0
 12 13  1  0
 13 14  1  0
 13 15  1  0
 11 16  1  0
  3 17  2  0
 17 18  1  0
 18 19  1  0
 19 20  1  0
 20 21  1  0
 21 22  1  0
 22 23  1  0
 23 24  1  0
 18 25  1  0
 25 26  1  0
 26 27  2  0
 27 28  1  0
 28 29  2  0
 29 30  1  0
 30 31  2  0
 25  2  2  0
 31 26  1  0
 15  7  1  0
 24 19  1  0
 16  7  1  0
 14  9  1  0
  1 32  1  0
  1 33  1  0
  1 34  1  0
  6 35  1  0
  8 36  1  0
  8 37  1  0
  9 38  1  6
 10 39  1  0
 10 40  1  0
 11 41  1  1
 12 42  1  0
 12 43  1  0
 13 44  1  6
 14 45  1  0
 14 46  1  0
 15 47  1  0
 15 48  1  0
 16 49  1  0
 16 50  1  0
 19 51  1  0
 20 52  1  0
 20 53  1  0
 21 54  1  0
 21 55  1  0
 22 56  1  0
 22 57  1  0
 23 58  1  0
 23 59  1  0
 24 60  1  0
 24 61  1  0
 27 62  1  0
 28 63  1  0
 29 64  1  0
 30 65  1  0
 31 66  1  0
M  END
>  <meeko>  (11) 
{"is_sidechain": false}

$$$$

     RDKit          3D

 60 65  0  0  0  0  0  0  0  0999 V2000
    6.2310   -0.0100  -53.7240 C   0  0  0  0  0  0  0  0  0  0  0  0
    7.6030   -0.4510  -54.0850 C   0  0  0  0  0  0  0  0  0  0  0  0
    8.4790    0.1230  -55.0640 C   0  0  0  0  0  0  0  0  0  0  0  0
    8.2140    1.2510  -55.9810 C   0  0  0  0  0  0  0  0  0  0  0  0
    7.1140    1.7850  -56.0810 O   0  0  0  0  0  0  0  0  0  0  0  0
    9.3310    1.6620  -56.6890 N   0  0  0  0  0  0  0  0  0  0  0  0
    9.3720    2.8260  -57.5770 C   0  0  2  0  0  0  0  0  0  0  0  0
    8.3200    2.7280  -58.7130 C   0  0  0  0  0  0  0  0  0  0  0  0
    8.4280    3.9390  -59.6560 C   0  0  1  0  0  0  0  0  0  0  0  0
    8.2060    5.2300  -58.8520 C   0  0  0  0  0  0  0  0  0  0  0  0
    9.2690    5.3560  -57.7470 C   0  0  2  0  0  0  0  0  0  0  0  0
   10.6650    5.3760  -58.3870 C   0  0  0  0  0  0  0  0  0  0  0  0
   10.8960    4.0840  -59.1860 C   0  0  2  0  0  0  0  0  0  0  0  0
    9.8290    3.9690  -60.2870 C   0  0  0  0  0  0  0  0  0  0  0  0
   10.7750    2.8780  -58.2410 C   0  0  0  0  0  0  0  0  0  0  0  0
    9.1610    4.1480  -56.7990 C   0  0  0  0  0  0  0  0  0  0  0  0
    9.6600   -0.5150  -55.0800 N   0  0  0  0  0  0  0  0  0  0  0  0
    9.5450   -1.4830  -54.1510 N   0  0  0  0  0  0  0  0  0  0  0  0
   10.6810   -2.3720  -53.9210 C   0  0  0  0  0  0  0  0  0  0  0  0
   10.5360   -3.6760  -54.6520 C   0  0  0  0  0  0  0  0  0  0  0  0
   11.7590   -4.4050  -55.1490 C   0  0  0  0  0  0  0  0  0  0  0  0
   10.8160   -3.7660  -56.1300 C   0  0  0  0  0  0  0  0  0  0  0  0
    8.3240   -1.4930  -53.5200 C   0  0  0  0  0  0  0  0  0  0  0  0
    7.9450   -2.4360  -52.4750 C   0  0  0  0  0  0  0  0  0  0  0  0
    7.3270   -3.6450  -52.8100 C   0  0  0  0  0  0  0  0  0  0  0  0
    6.9620   -4.5470  -51.8090 C   0  0  0  0  0  0  0  0  0  0  0  0
    7.2050   -4.2410  -50.4710 C   0  0  0  0  0  0  0  0  0  0  0  0
    7.8120   -3.0330  -50.1310 C   0  0  0  0  0  0  0  0  0  0  0  0
    8.1790   -2.1300  -51.1300 C   0  0  0  0  0  0  0  0  0  0  0  0
    6.1323    0.0217  -52.6289 H   0  0  0  0  0  0  0  0  0  0  0  0
    6.0473    0.9925  -54.1379 H   0  0  0  0  0  0  0  0  0  0  0  0
    5.4976   -0.7177  -54.1379 H   0  0  0  0  0  0  0  0  0  0  0  0
   10.2150    1.3250  -56.3300 H   0  0  0  0  0  0  0  0  0  0  0  0
    8.4928    1.8059  -59.2873 H   0  0  0  0  0  0  0  0  0  0  0  0
    7.3150    2.7148  -58.2659 H   0  0  0  0  0  0  0  0  0  0  0  0
    7.6678    3.8600  -60.4471 H   0  0  0  0  0  0  0  0  0  0  0  0
    8.2788    6.0956  -59.5269 H   0  0  0  0  0  0  0  0  0  0  0  0
    7.2086    5.1981  -58.3892 H   0  0  0  0  0  0  0  0  0  0  0  0
    9.1080    6.2857  -57.1816 H   0  0  0  0  0  0  0  0  0  0  0  0
   10.7437    6.2408  -59.0623 H   0  0  0  0  0  0  0  0  0  0  0  0
   11.4242    5.4508  -57.5945 H   0  0  0  0  0  0  0  0  0  0  0  0
   11.8976    4.1042  -59.6404 H   0  0  0  0  0  0  0  0  0  0  0  0
    9.9066    4.8341  -60.9620 H   0  0  0  0  0  0  0  0  0  0  0  0
    9.9913    3.0400  -60.8532 H   0  0  0  0  0  0  0  0  0  0  0  0
   10.9348    1.9538  -58.8158 H   0  0  0  0  0  0  0  0  0  0  0  0
   11.5325    2.9772  -57.4495 H   0  0  0  0  0  0  0  0  0  0  0  0
    9.9285    4.2332  -56.0156 H   0  0  0  0  0  0  0  0  0  0  0  0
    8.1576    4.1387  -56.3483 H   0  0  0  0  0  0  0  0  0  0  0  0
   11.5980   -1.8721  -54.2662 H   0  0  0  0  0  0  0  0  0  0  0  0
   10.7266   -2.5911  -52.8440 H   0  0  0  0  0  0  0  0  0  0  0  0
    9.6812   -3.9302  -54.0080 H   0  0  0  0  0  0  0  0  0  0  0  0
   12.7587   -3.9754  -54.9875 H   0  0  0  0  0  0  0  0  0  0  0  0
   12.1709   -5.4157  -55.0119 H   0  0  0  0  0  0  0  0  0  0  0  0
   11.1262   -2.8691  -56.6863 H   0  0  0  0  0  0  0  0  0  0  0  0
   10.2529   -4.1162  -57.0077 H   0  0  0  0  0  0  0  0  0  0  0  0
    7.1281   -3.8858  -53.8647 H   0  0  0  0  0  0  0  0  0  0  0  0
    6.4822   -5.5001  -52.0764 H   0  0  0  0  0  0  0  0  0  0  0  0
    6.9177   -4.9529  -49.6832 H   0  0  0  0  0  0  0  0  0  0  0  0
    8.0018   -2.7913  -49.0748 H   0  0  0  0  0  0  0  0  0  0  0  0
    8.6535   -1.1753  -50.8591 H   0  0  0  0  0  0  0  0  0  0  0  0
  1  2  1  0
  2  3  1  0
  3  4  1  0
  4  5  2  0
  4  6  1  0
  7  6  1  1
  7  8  1  0
  8  9  1  0
  9 10  1  0
 10 11  1  0
 11 12  1  0
 12 13  1  0
 13 14  1  0
 13 15  1  0
 11 16  1  0
  3 17  2  0
 17 18  1  0
 18 19  1  0
 19 20  1  0
 20 21  1  0
 21 22  1  0
 18 23  1  0
 23 24  1  0
 24 25  2  0
 25 26  1  0
 26 27  2  0
 27 28  1  0
 28 29  2  0
 23  2  2  0
 29 24  1  0
 15  7  1  0
 22 20  1  0
 16  7  1  0
 14  9  1  0
  1 30  1  0
  1 31  1  0
  1 32  1  0
  6 33  1  0
  8 34  1  0
  8 35  1  0
  9 36  1  6
 10 37  1  0
 10 38  1  0
 11 39  1  1
 12 40  1  0
 12 41  1  0
 13 42  1  6
 14 43  1  0
 14 44  1  0
 15 45  1  0
 15 46  1  0
 16 47  1  0
 16 48  1  0
 19 49  1  0
 19 50  1  0
 20 51  1  0
 21 52  1  0
 21 53  1  0
 22 54  1  0
 22 55  1  0
 25 56  1  0
 26 57  1  0
 27 58  1  0
 28 59  1  0
 29 60  1  0
M  END
>  <meeko>  (12) 
{"is_sidechain": false}

$$$$

     RDKit          3D

 60 65  0  0  0  0  0  0  0  0999 V2000
    6.1360    0.0120  -53.7710 C   0  0  0  0  0  0  0  0  0  0  0  0
    7.5200   -0.3690  -54.1590 C   0  0  0  0  0  0  0  0  0  0  0  0
    8.3210    0.2410  -55.1700 C   0  0  0  0  0  0  0  0  0  0  0  0
    7.9640    1.3760  -56.0480 C   0  0  0  0  0  0  0  0  0  0  0  0
    6.8390    1.8610  -56.0900 O   0  0  0  0  0  0  0  0  0  0  0  0
    9.0310    1.8160  -56.8000 N   0  0  0  0  0  0  0  0  0  0  0  0
    9.0200    2.9220  -57.7510 C   0  0  2  0  0  0  0  0  0  0  0  0
   10.3560    2.9050  -58.5400 C   0  0  0  0  0  0  0  0  0  0  0  0
   10.4060    4.0520  -59.5640 C   0  0  1  0  0  0  0  0  0  0  0  0
    9.2370    3.8980  -60.5500 C   0  0  0  0  0  0  0  0  0  0  0  0
    7.9020    3.9380  -59.7910 C   0  0  2  0  0  0  0  0  0  0  0  0
    7.7800    5.2780  -59.0470 C   0  0  0  0  0  0  0  0  0  0  0  0
    8.9450    5.4400  -58.0550 C   0  0  2  0  0  0  0  0  0  0  0  0
   10.2750    5.3920  -58.8240 C   0  0  0  0  0  0  0  0  0  0  0  0
    8.9050    4.2900  -57.0350 C   0  0  0  0  0  0  0  0  0  0  0  0
    7.8620    2.7860  -58.7710 C   0  0  0  0  0  0  0  0  0  0  0  0
    9.5300   -0.3500  -55.2580 N   0  0  0  0  0  0  0  0  0  0  0  0
    9.4910   -1.3330  -54.3300 N   0  0  0  0  0  0  0  0  0  0  0  0
   10.6740   -2.1700  -54.1340 C   0  0  0  0  0  0  0  0  0  0  0  0
   10.8690   -3.1300  -55.2710 C   0  0  0  0  0  0  0  0  0  0  0  0
   10.4440   -4.4410  -55.3860 C   0  0  0  0  0  0  0  0  0  0  0  0
   10.8180   -5.0280  -56.6280 C   0  0  0  0  0  0  0  0  0  0  0  0
   11.5050   -4.1450  -57.4290 C   0  0  0  0  0  0  0  0  0  0  0  0
   11.6910   -2.6170  -56.6870 S   0  0  0  0  0  0  0  0  0  0  0  0
    8.3080   -1.3790  -53.6300 C   0  0  0  0  0  0  0  0  0  0  0  0
    8.0240   -2.3310  -52.5640 C   0  0  0  0  0  0  0  0  0  0  0  0
    7.6180   -3.6340  -52.8700 C   0  0  0  0  0  0  0  0  0  0  0  0
    7.3550   -4.5460  -51.8470 C   0  0  0  0  0  0  0  0  0  0  0  0
    7.4890   -4.1580  -50.5150 C   0  0  0  0  0  0  0  0  0  0  0  0
    7.8830   -2.8580  -50.2040 C   0  0  0  0  0  0  0  0  0  0  0  0
    8.1480   -1.9440  -51.2250 C   0  0  0  0  0  0  0  0  0  0  0  0
    6.0556    0.0341  -52.6742 H   0  0  0  0  0  0  0  0  0  0  0  0
    5.9027    1.0078  -54.1759 H   0  0  0  0  0  0  0  0  0  0  0  0
    5.4259   -0.7241  -54.1759 H   0  0  0  0  0  0  0  0  0  0  0  0
    9.8930    1.3040  -56.6230 H   0  0  0  0  0  0  0  0  0  0  0  0
   11.1922    3.0163  -57.8340 H   0  0  0  0  0  0  0  0  0  0  0  0
   10.4321    1.9496  -59.0798 H   0  0  0  0  0  0  0  0  0  0  0  0
   11.3589    4.0233  -60.1127 H   0  0  0  0  0  0  0  0  0  0  0  0
    9.2657    4.7199  -61.2805 H   0  0  0  0  0  0  0  0  0  0  0  0
    9.3280    2.9333  -61.0707 H   0  0  0  0  0  0  0  0  0  0  0  0
    7.0696    3.8322  -60.5022 H   0  0  0  0  0  0  0  0  0  0  0  0
    7.8050    6.1021  -59.7752 H   0  0  0  0  0  0  0  0  0  0  0  0
    6.8300    5.2969  -58.4928 H   0  0  0  0  0  0  0  0  0  0  0  0
    8.8556    6.4028  -57.5306 H   0  0  0  0  0  0  0  0  0  0  0  0
   10.3041    6.2151  -59.5531 H   0  0  0  0  0  0  0  0  0  0  0  0
   11.1075    5.4944  -58.1123 H   0  0  0  0  0  0  0  0  0  0  0  0
    9.7433    4.4014  -56.3316 H   0  0  0  0  0  0  0  0  0  0  0  0
    7.9474    4.3282  -56.4950 H   0  0  0  0  0  0  0  0  0  0  0  0
    6.9022    2.8114  -58.2341 H   0  0  0  0  0  0  0  0  0  0  0  0
    7.9719    1.8323  -59.3080 H   0  0  0  0  0  0  0  0  0  0  0  0
   11.5601   -1.5227  -54.0580 H   0  0  0  0  0  0  0  0  0  0  0  0
   10.5323   -2.7539  -53.2126 H   0  0  0  0  0  0  0  0  0  0  0  0
    9.8797   -4.9713  -54.6047 H   0  0  0  0  0  0  0  0  0  0  0  0
   10.5853   -6.0645  -56.9134 H   0  0  0  0  0  0  0  0  0  0  0  0
   11.8893   -4.3935  -58.4293 H   0  0  0  0  0  0  0  0  0  0  0  0
    7.5057   -3.9408  -53.9203 H   0  0  0  0  0  0  0  0  0  0  0  0
    7.0418   -5.5716  -52.0920 H   0  0  0  0  0  0  0  0  0  0  0  0
    7.2837   -4.8781  -49.7092 H   0  0  0  0  0  0  0  0  0  0  0  0
    7.9853   -2.5518  -49.1524 H   0  0  0  0  0  0  0  0  0  0  0  0
    8.4550   -0.9173  -50.9766 H   0  0  0  0  0  0  0  0  0  0  0  0
  1  2  1  0
  2  3  1  0
  3  4  1  0
  4  5  2  0
  4  6  1  0
  7  6  1  1
  7  8  1  0
  8  9  1  0
  9 10  1  0
 10 11  1  0
 11 12  1  0
 12 13  1  0
 13 14  1  0
 13 15  1  0
 11 16  1  0
  3 17  2  0
 17 18  1  0
 18 19  1  0
 19 20  1  0
 20 21  2  0
 21 22  1  0
 22 23  2  0
 23 24  1  0
 18 25  1  0
 25 26  1  0
 26 27  2  0
 27 28  1  0
 28 29  2  0
 29 30  1  0
 30 31  2  0
 25  2  2  0
 31 26  1  0
 15  7  1  0
 24 20  1  0
 16  7  1  0
 14  9  1  0
  1 32  1  0
  1 33  1  0
  1 34  1  0
  6 35  1  0
  8 36  1  0
  8 37  1  0
  9 38  1  6
 10 39  1  0
 10 40  1  0
 11 41  1  6
 12 42  1  0
 12 43  1  0
 13 44  1  1
 14 45  1  0
 14 46  1  0
 15 47  1  0
 15 48  1  0
 16 49  1  0
 16 50  1  0
 19 51  1  0
 19 52  1  0
 21 53  1  0
 22 54  1  0
 23 55  1  0
 27 56  1  0
 28 57  1  0
 29 58  1  0
 30 59  1  0
 31 60  1  0
M  END
>  <meeko>  (13) 
{"is_sidechain": false}

$$$$

     RDKit          3D

 48 52  0  0  0  0  0  0  0  0999 V2000
    5.9450   -0.3190  -53.8210 C   0  0  0  0  0  0  0  0  0  0  0  0
    7.4040   -0.5310  -54.0290 C   0  0  0  0  0  0  0  0  0  0  0  0
    8.2430    0.1230  -54.9800 C   0  0  0  0  0  0  0  0  0  0  0  0
    7.8920    1.1700  -55.9640 C   0  0  0  0  0  0  0  0  0  0  0  0
    6.7420    1.5270  -56.1890 O   0  0  0  0  0  0  0  0  0  0  0  0
    9.0030    1.7000  -56.5860 N   0  0  0  0  0  0  0  0  0  0  0  0
    9.0110    2.7730  -57.5750 C   0  0  2  0  0  0  0  0  0  0  0  0
    7.9940    2.5080  -58.7140 C   0  0  0  0  0  0  0  0  0  0  0  0
    8.0570    3.6290  -59.7670 C   0  0  1  0  0  0  0  0  0  0  0  0
    7.7410    4.9760  -59.0920 C   0  0  0  0  0  0  0  0  0  0  0  0
    8.7660    5.2650  -57.9830 C   0  0  2  0  0  0  0  0  0  0  0  0
   10.1760    5.3090  -58.5940 C   0  0  0  0  0  0  0  0  0  0  0  0
   10.5010    3.9650  -59.2620 C   0  0  2  0  0  0  0  0  0  0  0  0
    9.4710    3.6830  -60.3670 C   0  0  0  0  0  0  0  0  0  0  0  0
   10.4260    2.8480  -58.2080 C   0  0  0  0  0  0  0  0  0  0  0  0
    8.7030    4.1460  -56.9290 C   0  0  0  0  0  0  0  0  0  0  0  0
    9.5060   -0.3340  -54.8930 N   0  0  0  0  0  0  0  0  0  0  0  0
    9.4770   -1.2390  -53.8980 N   0  0  0  0  0  0  0  0  0  0  0  0
   10.7230   -1.8900  -53.5590 C   0  0  0  0  0  0  0  0  0  0  0  0
    8.2390   -1.3990  -53.3210 C   0  0  0  0  0  0  0  0  0  0  0  0
    7.8790   -2.2470  -52.2410 C   0  0  0  0  0  0  0  0  0  0  0  0
    7.7960   -2.0000  -50.9750 N   0  0  0  0  0  0  0  0  0  0  0  0
    7.3740   -3.3340  -50.5350 C   0  0  0  0  0  0  0  0  0  0  0  0
    7.4270   -3.8750  -52.2310 S   0  0  0  0  0  0  0  0  0  0  0  0
    5.7291   -0.2876  -52.7429 H   0  0  0  0  0  0  0  0  0  0  0  0
    5.6432    0.6324  -54.2832 H   0  0  0  0  0  0  0  0  0  0  0  0
    5.3849   -1.1452  -54.2832 H   0  0  0  0  0  0  0  0  0  0  0  0
    9.8810    1.3100  -56.2510 H   0  0  0  0  0  0  0  0  0  0  0  0
    8.2309    1.5471  -59.1941 H   0  0  0  0  0  0  0  0  0  0  0  0
    6.9811    2.4795  -58.2860 H   0  0  0  0  0  0  0  0  0  0  0  0
    7.3243    3.4312  -60.5632 H   0  0  0  0  0  0  0  0  0  0  0  0
    7.7824    5.7781  -59.8436 H   0  0  0  0  0  0  0  0  0  0  0  0
    6.7352    4.9294  -58.6491 H   0  0  0  0  0  0  0  0  0  0  0  0
    8.5375    6.2316  -57.5103 H   0  0  0  0  0  0  0  0  0  0  0  0
   10.2222    6.1103  -59.3462 H   0  0  0  0  0  0  0  0  0  0  0  0
   10.9090    5.5028  -57.7971 H   0  0  0  0  0  0  0  0  0  0  0  0
   11.5105    4.0027  -59.6974 H   0  0  0  0  0  0  0  0  0  0  0  0
    9.5167    4.4833  -61.1203 H   0  0  0  0  0  0  0  0  0  0  0  0
    9.7011    2.7151  -60.8363 H   0  0  0  0  0  0  0  0  0  0  0  0
   10.6568    1.8853  -58.6874 H   0  0  0  0  0  0  0  0  0  0  0  0
   11.1538    3.0676  -57.4130 H   0  0  0  0  0  0  0  0  0  0  0  0
    9.4430    4.3492  -56.1409 H   0  0  0  0  0  0  0  0  0  0  0  0
    7.6902    4.1179  -56.5008 H   0  0  0  0  0  0  0  0  0  0  0  0
   10.8234   -1.9425  -52.4649 H   0  0  0  0  0  0  0  0  0  0  0  0
   10.7308   -2.9074  -53.9771 H   0  0  0  0  0  0  0  0  0  0  0  0
   11.5626   -1.3153  -53.9771 H   0  0  0  0  0  0  0  0  0  0  0  0
    8.0926   -3.8417  -49.8748 H   0  0  0  0  0  0  0  0  0  0  0  0
    6.4678   -3.4686  -49.9262 H   0  0  0  0  0  0  0  0  0  0  0  0
  1  2  1  0
  2  3  1  0
  3  4  1  0
  4  5  2  0
  4  6  1  0
  7  6  1  1
  7  8  1  0
  8  9  1  0
  9 10  1  0
 10 11  1  0
 11 12  1  0
 12 13  1  0
 13 14  1  0
 13 15  1  0
 11 16  1  0
  3 17  2  0
 17 18  1  0
 18 19  1  0
 18 20  1  0
 20 21  1  0
 21 22  2  0
 22 23  1  0
 23 24  1  0
 20  2  2  0
 24 21  1  0
 15  7  1  0
 16  7  1  0
 14  9  1  0
  1 25  1  0
  1 26  1  0
  1 27  1  0
  6 28  1  0
  8 29  1  0
  8 30  1  0
  9 31  1  6
 10 32  1  0
 10 33  1  0
 11 34  1  1
 12 35  1  0
 12 36  1  0
 13 37  1  6
 14 38  1  0
 14 39  1  0
 15 40  1  0
 15 41  1  0
 16 42  1  0
 16 43  1  0
 19 44  1  0
 19 45  1  0
 19 46  1  0
 23 47  1  0
 23 48  1  0
M  END
>  <meeko>  (14) 
{"is_sidechain": false}

$$$$

     RDKit          3D

 66 68  0  0  0  0  0  0  0  0999 V2000
    9.0640    5.0150  -56.4770 C   0  0  0  0  0  0  0  0  0  0  0  0
    9.2340    4.1420  -57.7080 C   0  0  0  0  0  0  0  0  0  0  0  0
    8.1970    3.0140  -57.8640 C   0  0  2  0  0  0  0  0  0  0  0  0
    8.4290    2.0450  -56.7970 N   0  0  0  0  0  0  0  0  0  0  0  0
    7.4160    1.4320  -56.0900 C   0  0  0  0  0  0  0  0  0  0  0  0
    6.2340    1.7480  -56.1820 O   0  0  0  0  0  0  0  0  0  0  0  0
    7.9040    0.3430  -55.2210 C   0  0  0  0  0  0  0  0  0  0  0  0
    9.1670   -0.1160  -55.3290 N   0  0  0  0  0  0  0  0  0  0  0  0
    9.2560   -1.0740  -54.3860 N   0  0  0  0  0  0  0  0  0  0  0  0
   10.5240   -1.7670  -54.2120 C   0  0  0  0  0  0  0  0  0  0  0  0
   10.8060   -2.8190  -55.3040 C   0  0  0  0  0  0  0  0  0  0  0  0
   11.5860   -2.1950  -56.4740 C   0  0  0  0  0  0  0  0  0  0  0  0
   11.9060   -3.1190  -57.6450 C   0  0  0  0  0  0  0  0  0  0  0  0
   13.1390   -4.0050  -57.4900 C   0  0  0  0  0  0  0  0  0  0  0  0
   12.9990   -5.1520  -56.4860 C   0  0  0  0  0  0  0  0  0  0  0  0
   11.6750   -5.2250  -55.7100 C   0  0  0  0  0  0  0  0  0  0  0  0
   11.4380   -4.0970  -54.7080 C   0  0  0  0  0  0  0  0  0  0  0  0
    8.0870   -1.2790  -53.6940 C   0  0  0  0  0  0  0  0  0  0  0  0
    7.9190   -2.2650  -52.6340 C   0  0  0  0  0  0  0  0  0  0  0  0
    7.5640   -3.5830  -52.9440 C   0  0  0  0  0  0  0  0  0  0  0  0
    7.4080   -4.5270  -51.9270 C   0  0  0  0  0  0  0  0  0  0  0  0
    7.6000   -4.1570  -50.5970 C   0  0  0  0  0  0  0  0  0  0  0  0
    7.9450   -2.8430  -50.2810 C   0  0  0  0  0  0  0  0  0  0  0  0
    8.1000   -1.8980  -51.2970 C   0  0  0  0  0  0  0  0  0  0  0  0
    7.1840   -0.3610  -54.2100 C   0  0  0  0  0  0  0  0  0  0  0  0
    5.7680   -0.1450  -53.8160 C   0  0  0  0  0  0  0  0  0  0  0  0
    8.1500    2.2730  -59.2290 C   0  0  0  0  0  0  0  0  0  0  0  0
    9.4140    2.4570  -60.0710 C   0  0  0  0  0  0  0  0  0  0  0  0
    6.9030    2.6120  -60.0500 C   0  0  0  0  0  0  0  0  0  0  0  0
    9.1836    4.4006  -55.5724 H   0  0  0  0  0  0  0  0  0  0  0  0
    9.8242    5.8100  -56.4835 H   0  0  0  0  0  0  0  0  0  0  0  0
    8.0610    5.4667  -56.4835 H   0  0  0  0  0  0  0  0  0  0  0  0
    9.1681    4.7891  -58.5951 H   0  0  0  0  0  0  0  0  0  0  0  0
   10.2090    3.6451  -57.5959 H   0  0  0  0  0  0  0  0  0  0  0  0
    7.2180    3.5123  -57.8075 H   0  0  0  0  0  0  0  0  0  0  0  0
    9.3340    1.5870  -56.7020 H   0  0  0  0  0  0  0  0  0  0  0  0
   11.3331   -1.0219  -54.2293 H   0  0  0  0  0  0  0  0  0  0  0  0
   10.4704   -2.3031  -53.2530 H   0  0  0  0  0  0  0  0  0  0  0  0
    9.8532   -3.1578  -55.7370 H   0  0  0  0  0  0  0  0  0  0  0  0
   10.9911   -1.3555  -56.8629 H   0  0  0  0  0  0  0  0  0  0  0  0
   12.5610   -1.9064  -56.0544 H   0  0  0  0  0  0  0  0  0  0  0  0
   11.0380   -3.7767  -57.7998 H   0  0  0  0  0  0  0  0  0  0  0  0
   12.1280   -2.4530  -58.4919 H   0  0  0  0  0  0  0  0  0  0  0  0
   13.3702   -4.4405  -58.4733 H   0  0  0  0  0  0  0  0  0  0  0  0
   13.9341   -3.3535  -57.0983 H   0  0  0  0  0  0  0  0  0  0  0  0
   13.1152   -6.0960  -57.0385 H   0  0  0  0  0  0  0  0  0  0  0  0
   13.7728   -4.9699  -55.7257 H   0  0  0  0  0  0  0  0  0  0  0  0
   10.8526   -5.2081  -56.4403 H   0  0  0  0  0  0  0  0  0  0  0  0
   11.7224   -6.1506  -55.1176 H   0  0  0  0  0  0  0  0  0  0  0  0
   10.7684   -4.4742  -53.9210 H   0  0  0  0  0  0  0  0  0  0  0  0
   12.4298   -3.8044  -54.3328 H   0  0  0  0  0  0  0  0  0  0  0  0
    7.4073   -3.8762  -53.9926 H   0  0  0  0  0  0  0  0  0  0  0  0
    7.1335   -5.5628  -52.1755 H   0  0  0  0  0  0  0  0  0  0  0  0
    7.4794   -4.9015  -49.7963 H   0  0  0  0  0  0  0  0  0  0  0  0
    8.0950   -2.5512  -49.2311 H   0  0  0  0  0  0  0  0  0  0  0  0
    8.3655   -0.8608  -51.0447 H   0  0  0  0  0  0  0  0  0  0  0  0
    5.6904   -0.1332  -52.7188 H   0  0  0  0  0  0  0  0  0  0  0  0
    5.4180    0.8169  -54.2187 H   0  0  0  0  0  0  0  0  0  0  0  0
    5.1471   -0.9588  -54.2187 H   0  0  0  0  0  0  0  0  0  0  0  0
    8.0954    1.2082  -58.9582 H   0  0  0  0  0  0  0  0  0  0  0  0
   10.2818    2.5833  -59.4069 H   0  0  0  0  0  0  0  0  0  0  0  0
    9.5639    1.5712  -60.7057 H   0  0  0  0  0  0  0  0  0  0  0  0
    9.3052    3.3488  -60.7057 H   0  0  0  0  0  0  0  0  0  0  0  0
    6.0677    2.8391  -59.3713 H   0  0  0  0  0  0  0  0  0  0  0  0
    7.1083    3.4869  -60.6843 H   0  0  0  0  0  0  0  0  0  0  0  0
    6.6371    1.7536  -60.6843 H   0  0  0  0  0  0  0  0  0  0  0  0
  1  2  1  0
  2  3  1  0
  3  4  1  0
  4  5  1  0
  5  6  2  0
  5  7  1  0
  7  8  2  0
  8  9  1  0
  9 10  1  0
 10 11  1  0
 11 12  1  0
 12 13  1  0
 13 14  1  0
 14 15  1  0
 15 16  1  0
 16 17  1  0
  9 18  1  0
 18 19  1  0
 19 20  2  0
 20 21  1  0
 21 22  2  0
 22 23  1  0
 23 24  2  0
 18 25  2  0
 25 26  1  0
  3 27  1  0
 27 28  1  0
 27 29  1  0
 25  7  1  0
 17 11  1  0
 24 19  1  0
  1 30  1  0
  1 31  1  0
  1 32  1  0
  2 33  1  0
  2 34  1  0
  3 35  1  1
  4 36  1  0
 10 37  1  0
 10 38  1  0
 11 39  1  0
 12 40  1  0
 12 41  1  0
 13 42  1  0
 13 43  1  0
 14 44  1  0
 14 45  1  0
 15 46  1  0
 15 47  1  0
 16 48  1  0
 16 49  1  0
 17 50  1  0
 17 51  1  0
 20 52  1  0
 21 53  1  0
 22 54  1  0
 23 55  1  0
 24 56  1  0
 26 57  1  0
 26 58  1  0
 26 59  1  0
 27 60  1  0
 28 61  1  0
 28 62  1  0
 28 63  1  0
 29 64  1  0
 29 65  1  0
 29 66  1  0
M  END
>  <meeko>  (15) 
{"is_sidechain": false}

$$$$

     RDKit          3D

 60 65  0  0  0  0  0  0  0  0999 V2000
    5.7820   -0.0320  -55.4310 C   0  0  0  0  0  0  0  0  0  0  0  0
    7.0090    0.6730  -55.8930 C   0  0  0  0  0  0  0  0  0  0  0  0
    8.2760    0.7220  -55.2430 C   0  0  0  0  0  0  0  0  0  0  0  0
    8.6970    0.0540  -53.9970 C   0  0  0  0  0  0  0  0  0  0  0  0
    8.8920    0.6530  -52.9430 O   0  0  0  0  0  0  0  0  0  0  0  0
    8.8720   -1.3170  -54.1370 N   0  0  0  0  0  0  0  0  0  0  0  0
    9.3450   -2.1610  -53.0720 C   0  0  0  0  0  0  0  0  0  0  0  0
   10.8470   -2.2270  -52.9350 C   0  0  0  0  0  0  0  0  0  0  0  0
    8.5170   -2.2850  -51.8130 C   0  0  0  0  0  0  0  0  0  0  0  0
    8.5670   -3.4270  -52.7820 C   0  0  0  0  0  0  0  0  0  0  0  0
    9.1260    1.4940  -55.9300 N   0  0  0  0  0  0  0  0  0  0  0  0
    8.4500    1.9290  -57.0160 N   0  0  0  0  0  0  0  0  0  0  0  0
    9.1550    2.8460  -57.9410 C   0  0  2  0  0  0  0  0  0  0  0  0
    9.6160    2.0900  -59.2390 C   0  0  0  0  0  0  0  0  0  0  0  0
   10.3810    3.0140  -60.1990 C   0  0  1  0  0  0  0  0  0  0  0  0
    9.4690    4.1730  -60.6160 C   0  0  0  0  0  0  0  0  0  0  0  0
    9.0310    4.9580  -59.3740 C   0  0  2  0  0  0  0  0  0  0  0  0
   10.2740    5.5070  -58.6510 C   0  0  0  0  0  0  0  0  0  0  0  0
   11.1940    4.3490  -58.2300 C   0  0  2  0  0  0  0  0  0  0  0  0
   11.6210    3.5660  -59.4800 C   0  0  0  0  0  0  0  0  0  0  0  0
   10.4340    3.4140  -57.2710 C   0  0  0  0  0  0  0  0  0  0  0  0
    8.2650    4.0280  -58.4170 C   0  0  0  0  0  0  0  0  0  0  0  0
    7.1500    1.4500  -57.0370 C   0  0  0  0  0  0  0  0  0  0  0  0
    6.1290    1.7190  -58.0440 C   0  0  0  0  0  0  0  0  0  0  0  0
    6.2200    1.1260  -59.3100 C   0  0  0  0  0  0  0  0  0  0  0  0
    5.2270    1.3490  -60.2660 C   0  0  0  0  0  0  0  0  0  0  0  0
    4.1310    2.1520  -59.9580 C   0  0  0  0  0  0  0  0  0  0  0  0
    4.0200    2.7240  -58.6900 C   0  0  0  0  0  0  0  0  0  0  0  0
    5.0110    2.5010  -57.7340 C   0  0  0  0  0  0  0  0  0  0  0  0
    5.7589   -0.0453  -54.3313 H   0  0  0  0  0  0  0  0  0  0  0  0
    4.8928    0.4929  -55.8101 H   0  0  0  0  0  0  0  0  0  0  0  0
    5.7877   -1.0646  -55.8101 H   0  0  0  0  0  0  0  0  0  0  0  0
    8.8770   -1.6920  -55.0760 H   0  0  0  0  0  0  0  0  0  0  0  0
   11.1178   -2.2389  -51.8689 H   0  0  0  0  0  0  0  0  0  0  0  0
   11.2194   -3.1424  -53.4181 H   0  0  0  0  0  0  0  0  0  0  0  0
   11.2982   -1.3478  -53.4181 H   0  0  0  0  0  0  0  0  0  0  0  0
    9.0139   -2.3723  -50.8355 H   0  0  0  0  0  0  0  0  0  0  0  0
    7.7121   -1.6932  -51.3526 H   0  0  0  0  0  0  0  0  0  0  0  0
    9.1010   -4.3509  -52.5151 H   0  0  0  0  0  0  0  0  0  0  0  0
    7.8147   -4.0176  -53.3254 H   0  0  0  0  0  0  0  0  0  0  0  0
   10.2719    1.2554  -58.9504 H   0  0  0  0  0  0  0  0  0  0  0  0
    8.7175    1.7266  -59.7592 H   0  0  0  0  0  0  0  0  0  0  0  0
   10.6922    2.4539  -61.0931 H   0  0  0  0  0  0  0  0  0  0  0  0
   10.0156    4.8416  -61.2973 H   0  0  0  0  0  0  0  0  0  0  0  0
    8.5805    3.7723  -61.1260 H   0  0  0  0  0  0  0  0  0  0  0  0
    8.3796    5.7892  -59.6821 H   0  0  0  0  0  0  0  0  0  0  0  0
   10.8216    6.1792  -59.3280 H   0  0  0  0  0  0  0  0  0  0  0  0
    9.9551    6.0582  -57.7541 H   0  0  0  0  0  0  0  0  0  0  0  0
   12.0842    4.7472  -57.7212 H   0  0  0  0  0  0  0  0  0  0  0  0
   12.1695    4.2347  -60.1597 H   0  0  0  0  0  0  0  0  0  0  0  0
   12.2686    2.7290  -59.1798 H   0  0  0  0  0  0  0  0  0  0  0  0
   11.0916    2.5793  -56.9869 H   0  0  0  0  0  0  0  0  0  0  0  0
   10.1363    3.9913  -56.3832 H   0  0  0  0  0  0  0  0  0  0  0  0
    7.9395    4.6066  -57.5399 H   0  0  0  0  0  0  0  0  0  0  0  0
    7.3994    3.6145  -58.9553 H   0  0  0  0  0  0  0  0  0  0  0  0
    7.0779    0.4815  -59.5521 H   0  0  0  0  0  0  0  0  0  0  0  0
    5.3101    0.8906  -61.2625 H   0  0  0  0  0  0  0  0  0  0  0  0
    3.3533    2.3351  -60.7141 H   0  0  0  0  0  0  0  0  0  0  0  0
    3.1504    3.3512  -58.4442 H   0  0  0  0  0  0  0  0  0  0  0  0
    4.9130    2.9423  -56.7312 H   0  0  0  0  0  0  0  0  0  0  0  0
  1  2  1  0
  2  3  1  0
  3  4  1  0
  4  5  2  0
  4  6  1  0
  6  7  1  0
  7  8  1  0
  7  9  1  0
  9 10  1  0
  3 11  2  0
 11 12  1  0
 13 12  1  1
 13 14  1  0
 14 15  1  0
 15 16  1  0
 16 17  1  0
 17 18  1  0
 18 19  1  0
 19 20  1  0
 19 21  1  0
 17 22  1  0
 12 23  1  0
 23 24  1  0
 24 25  2  0
 25 26  1  0
 26 27  2  0
 27 28  1  0
 28 29  2  0
 23  2  2  0
 29 24  1  0
 10  7  1  0
 21 13  1  0
 22 13  1  0
 20 15  1  0
  1 30  1  0
  1 31  1  0
  1 32  1  0
  6 33  1  0
  8 34  1  0
  8 35  1  0
  8 36  1  0
  9 37  1  0
  9 38  1  0
 10 39  1  0
 10 40  1  0
 14 41  1  0
 14 42  1  0
 15 43  1  6
 16 44  1  0
 16 45  1  0
 17 46  1  6
 18 47  1  0
 18 48  1  0
 19 49  1  1
 20 50  1  0
 20 51  1  0
 21 52  1  0
 21 53  1  0
 22 54  1  0
 22 55  1  0
 25 56  1  0
 26 57  1  0
 27 58  1  0
 28 59  1  0
 29 60  1  0
M  END
>  <meeko>  (16) 
{"is_sidechain": false}

$$$$

     RDKit          3D

 59 63  0  0  0  0  0  0  0  0999 V2000
   12.5230    7.8950  -60.6070 C   0  0  0  0  0  0  0  0  0  0  0  0
   12.5710    6.4690  -60.1440 C   0  0  0  0  0  0  0  0  0  0  0  0
   13.7980    5.8100  -59.9980 C   0  0  0  0  0  0  0  0  0  0  0  0
   13.8430    4.4960  -59.5290 C   0  0  0  0  0  0  0  0  0  0  0  0
   12.6630    3.8320  -59.1930 C   0  0  0  0  0  0  0  0  0  0  0  0
   11.4310    4.4800  -59.3260 C   0  0  0  0  0  0  0  0  0  0  0  0
   10.1920    3.7900  -58.9710 C   0  0  0  0  0  0  0  0  0  0  0  0
    9.6370    3.5610  -57.7160 C   0  0  0  0  0  0  0  0  0  0  0  0
   10.2110    3.9690  -56.4000 C   0  0  0  0  0  0  0  0  0  0  0  0
    8.3980    2.8540  -57.9060 C   0  0  0  0  0  0  0  0  0  0  0  0
    7.4550    2.4150  -56.8660 C   0  0  0  0  0  0  0  0  0  0  0  0
    6.2530    2.6530  -56.9330 O   0  0  0  0  0  0  0  0  0  0  0  0
    8.0540    1.8950  -55.7410 N   0  0  0  0  0  0  0  0  0  0  0  0
    7.6720    0.6560  -55.2860 C   0  0  0  0  0  0  0  0  0  0  0  0
    6.8790   -0.0850  -55.8460 O   0  0  0  0  0  0  0  0  0  0  0  0
    8.3550    0.3520  -54.1260 N   0  0  0  0  0  0  0  0  0  0  0  0
    8.2040   -0.9130  -53.4320 C   0  0  1  0  0  0  0  0  0  0  0  0
    7.5060   -0.7820  -52.0630 C   0  0  0  0  0  0  0  0  0  0  0  0
    7.3370   -2.1760  -51.4470 C   0  0  2  0  0  0  0  0  0  0  0  0
    8.7210   -2.8230  -51.2520 C   0  0  0  0  0  0  0  0  0  0  0  0
    9.4560   -2.9350  -52.6010 C   0  0  1  0  0  0  0  0  0  0  0  0
    8.6170   -3.7820  -53.5670 C   0  0  0  0  0  0  0  0  0  0  0  0
    7.2600   -3.1000  -53.7660 C   0  0  1  0  0  0  0  0  0  0  0  0
    6.5100   -3.0140  -52.4310 C   0  0  0  0  0  0  0  0  0  0  0  0
    7.4680   -1.7850  -54.3020 O   0  0  0  0  0  0  0  0  0  0  0  0
    9.6030   -1.5370  -53.2170 C   0  0  0  0  0  0  0  0  0  0  0  0
    8.2480    2.6990  -59.2760 C   0  0  0  0  0  0  0  0  0  0  0  0
    9.3230    3.2700  -59.9040 N   0  0  0  0  0  0  0  0  0  0  0  0
    9.4870    3.3440  -61.3410 C   0  0  0  0  0  0  0  0  0  0  0  0
   11.3920    5.8000  -59.7900 C   0  0  0  0  0  0  0  0  0  0  0  0
   12.5005    8.5635  -59.7337 H   0  0  0  0  0  0  0  0  0  0  0  0
   13.4143    8.1138  -61.2134 H   0  0  0  0  0  0  0  0  0  0  0  0
   11.6190    8.0534  -61.2134 H   0  0  0  0  0  0  0  0  0  0  0  0
   14.7322    6.3311  -60.2545 H   0  0  0  0  0  0  0  0  0  0  0  0
   14.8105    3.9832  -59.4242 H   0  0  0  0  0  0  0  0  0  0  0  0
   12.7018    2.7969  -58.8228 H   0  0  0  0  0  0  0  0  0  0  0  0
    9.6067    3.5395  -55.5874 H   0  0  0  0  0  0  0  0  0  0  0  0
   11.2450    3.6021  -56.3214 H   0  0  0  0  0  0  0  0  0  0  0  0
   10.2043    5.0662  -56.3214 H   0  0  0  0  0  0  0  0  0  0  0  0
    9.0540    1.9900  -55.7040 H   0  0  0  0  0  0  0  0  0  0  0  0
    8.5060    1.1540  -53.5350 H   0  0  0  0  0  0  0  0  0  0  0  0
    8.1183   -0.1571  -51.3963 H   0  0  0  0  0  0  0  0  0  0  0  0
    6.5191   -0.3145  -52.1949 H   0  0  0  0  0  0  0  0  0  0  0  0
    6.8359   -2.1151  -50.4697 H   0  0  0  0  0  0  0  0  0  0  0  0
    9.3168   -2.2043  -50.5648 H   0  0  0  0  0  0  0  0  0  0  0  0
    8.5878   -3.8315  -50.8333 H   0  0  0  0  0  0  0  0  0  0  0  0
   10.4422   -3.3936  -52.4362 H   0  0  0  0  0  0  0  0  0  0  0  0
    9.1355   -3.8638  -54.5337 H   0  0  0  0  0  0  0  0  0  0  0  0
    8.4725   -4.7907  -53.1526 H   0  0  0  0  0  0  0  0  0  0  0  0
    6.6531   -3.6904  -54.4682 H   0  0  0  0  0  0  0  0  0  0  0  0
    5.5306   -2.5385  -52.5881 H   0  0  0  0  0  0  0  0  0  0  0  0
    6.3592   -4.0245  -52.0235 H   0  0  0  0  0  0  0  0  0  0  0  0
   10.1881   -0.8983  -52.5390 H   0  0  0  0  0  0  0  0  0  0  0  0
   10.1189   -1.6176  -54.1852 H   0  0  0  0  0  0  0  0  0  0  0  0
    7.4048    2.1998  -59.7758 H   0  0  0  0  0  0  0  0  0  0  0  0
   10.4665    3.7860  -61.5760 H   0  0  0  0  0  0  0  0  0  0  0  0
    9.4289    2.3325  -61.7693 H   0  0  0  0  0  0  0  0  0  0  0  0
    8.6901    3.9698  -61.7693 H   0  0  0  0  0  0  0  0  0  0  0  0
   10.4254    6.3176  -59.8776 H   0  0  0  0  0  0  0  0  0  0  0  0
  1  2  1  0
  2  3  2  0
  3  4  1  0
  4  5  2  0
  5  6  1  0
  6  7  1  0
  7  8  2  0
  8  9  1  0
  8 10  1  0
 10 11  1  0
 11 12  2  0
 11 13  1  0
 13 14  1  0
 14 15  2  0
 14 16  1  0
 17 16  1  6
 17 18  1  0
 18 19  1  0
 19 20  1  0
 20 21  1  0
 21 22  1  0
 22 23  1  0
 23 24  1  0
 23 25  1  0
 21 26  1  0
 10 27  2  0
 27 28  1  0
 28 29  1  0
  6 30  2  0
 30  2  1  0
 28  7  1  0
 25 17  1  0
 26 17  1  0
 24 19  1  0
  1 31  1  0
  1 32  1  0
  1 33  1  0
  3 34  1  0
  4 35  1  0
  5 36  1  0
  9 37  1  0
  9 38  1  0
  9 39  1  0
 13 40  1  0
 16 41  1  0
 18 42  1  0
 18 43  1  0
 19 44  1  1
 20 45  1  0
 20 46  1  0
 21 47  1  1
 22 48  1  0
 22 49  1  0
 23 50  1  6
 24 51  1  0
 24 52  1  0
 26 53  1  0
 26 54  1  0
 27 55  1  0
 29 56  1  0
 29 57  1  0
 29 58  1  0
 30 59  1  0
M  END
>  <meeko>  (17) 
{"is_sidechain": false}

$$$$

     RDKit          3D

 57 60  0  0  0  0  0  0  0  0999 V2000
    7.7700   -2.3180  -49.7370 C   0  0  0  0  0  0  0  0  0  0  0  0
    8.2810   -3.4540  -50.5690 C   0  0  0  0  0  0  0  0  0  0  0  0
    7.8910   -4.6080  -50.4760 O   0  0  0  0  0  0  0  0  0  0  0  0
    9.2320   -3.0040  -51.4330 O   0  0  0  0  0  0  0  0  0  0  0  0
    8.8580   -2.9720  -52.8260 C   0  0  2  0  0  0  0  0  0  0  0  0
    9.3300   -1.6270  -53.4030 C   0  0  0  0  0  0  0  0  0  0  0  0
    8.2560   -0.5500  -53.2680 C   0  0  0  0  0  0  0  0  0  0  0  0
    6.9750   -0.9190  -54.0400 C   0  0  1  0  0  0  0  0  0  0  0  0
    6.9760   -0.3340  -55.3740 N   0  0  0  0  0  0  0  0  0  0  0  0
    6.4050    0.9050  -55.6210 C   0  0  0  0  0  0  0  0  0  0  0  0
    5.7840    1.5310  -54.7670 O   0  0  0  0  0  0  0  0  0  0  0  0
    6.6520    1.4180  -56.9830 C   0  0  0  0  0  0  0  0  0  0  0  0
    5.6330    1.6070  -57.8370 N   0  0  0  0  0  0  0  0  0  0  0  0
    6.2120    2.0280  -58.9720 N   0  0  0  0  0  0  0  0  0  0  0  0
    5.4390    1.8980  -60.1830 C   0  0  0  0  0  0  0  0  0  0  0  0
    7.5420    2.3160  -58.8310 C   0  0  0  0  0  0  0  0  0  0  0  0
    8.5250    3.0040  -59.8290 C   0  0  0  0  0  0  0  0  0  0  0  0
    8.7500    2.4690  -61.0740 N   0  0  0  0  0  0  0  0  0  0  0  0
    9.5860    3.2540  -61.7320 N   0  0  0  0  0  0  0  0  0  0  0  0
    9.9170    4.2520  -60.9100 N   0  0  0  0  0  0  0  0  0  0  0  0
    9.3380    4.1080  -59.6710 C   0  0  0  0  0  0  0  0  0  0  0  0
    9.7660    4.9930  -58.5620 C   0  0  0  0  0  0  0  0  0  0  0  0
   11.2210    5.1070  -58.4900 N   0  0  0  0  0  0  0  0  0  0  0  0
   12.0580    4.4590  -57.6290 C   0  0  0  0  0  0  0  0  0  0  0  0
   13.3290    4.8740  -57.9490 C   0  0  0  0  0  0  0  0  0  0  0  0
   13.1570    5.7680  -59.0220 C   0  0  0  0  0  0  0  0  0  0  0  0
   11.8730    5.9150  -59.3600 N   0  0  0  0  0  0  0  0  0  0  0  0
    7.8950    1.7990  -57.5890 C   0  0  0  0  0  0  0  0  0  0  0  0
    9.2560    1.6960  -56.9970 C   0  0  0  0  0  0  0  0  0  0  0  0
    6.7640   -2.4380  -54.1460 C   0  0  0  0  0  0  0  0  0  0  0  0
    7.3380   -3.1670  -52.9400 C   0  0  0  0  0  0  0  0  0  0  0  0
    7.8812   -2.5653  -48.6709 H   0  0  0  0  0  0  0  0  0  0  0  0
    8.3459   -1.4088  -49.9645 H   0  0  0  0  0  0  0  0  0  0  0  0
    6.7077   -2.1457  -49.9645 H   0  0  0  0  0  0  0  0  0  0  0  0
    9.3300   -3.7816  -53.4020 H   0  0  0  0  0  0  0  0  0  0  0  0
   10.2309   -1.3027  -52.8616 H   0  0  0  0  0  0  0  0  0  0  0  0
    9.5441   -1.7675  -54.4728 H   0  0  0  0  0  0  0  0  0  0  0  0
    8.0072   -0.4269  -52.2036 H   0  0  0  0  0  0  0  0  0  0  0  0
    8.6534    0.3840  -53.6920 H   0  0  0  0  0  0  0  0  0  0  0  0
    6.1395   -0.5019  -53.4586 H   0  0  0  0  0  0  0  0  0  0  0  0
    7.6700   -0.6510  -56.0390 H   0  0  0  0  0  0  0  0  0  0  0  0
    4.3840    1.7206  -59.9273 H   0  0  0  0  0  0  0  0  0  0  0  0
    5.5228    2.8229  -60.7726 H   0  0  0  0  0  0  0  0  0  0  0  0
    5.8208    1.0514  -60.7726 H   0  0  0  0  0  0  0  0  0  0  0  0
   10.5460    4.9880  -61.2290 H   0  0  0  0  0  0  0  0  0  0  0  0
    9.3377    5.9939  -58.7195 H   0  0  0  0  0  0  0  0  0  0  0  0
    9.4100    4.5550  -57.6179 H   0  0  0  0  0  0  0  0  0  0  0  0
   11.7735    3.7485  -56.8389 H   0  0  0  0  0  0  0  0  0  0  0  0
   14.2731    4.5733  -57.4712 H   0  0  0  0  0  0  0  0  0  0  0  0
   13.9860    6.2870  -59.5254 H   0  0  0  0  0  0  0  0  0  0  0  0
    9.1799    1.7018  -55.8997 H   0  0  0  0  0  0  0  0  0  0  0  0
    9.7294    0.7595  -57.3268 H   0  0  0  0  0  0  0  0  0  0  0  0
    9.8650    2.5506  -57.3268 H   0  0  0  0  0  0  0  0  0  0  0  0
    5.6856   -2.6454  -54.2089 H   0  0  0  0  0  0  0  0  0  0  0  0
    7.2852   -2.7966  -55.0459 H   0  0  0  0  0  0  0  0  0  0  0  0
    6.8598   -2.7790  -52.0285 H   0  0  0  0  0  0  0  0  0  0  0  0
    7.1393   -4.2418  -53.0636 H   0  0  0  0  0  0  0  0  0  0  0  0
  1  2  1  0
  2  3  2  0
  2  4  1  0
  4  5  1  0
  5  6  1  0
  6  7  1  0
  7  8  1  0
  8  9  1  0
  9 10  1  0
 10 11  2  0
 10 12  1  0
 12 13  2  0
 13 14  1  0
 14 15  1  0
 14 16  1  0
 16 17  1  0
 17 18  1  0
 18 19  2  0
 19 20  1  0
 20 21  1  0
 21 22  1  0
 22 23  1  0
 23 24  1  0
 24 25  2  0
 25 26  1  0
 26 27  2  0
 16 28  2  0
 28 29  1  0
  8 30  1  0
 30 31  1  0
 31  5  1  0
 28 12  1  0
 21 17  2  0
 27 23  1  0
  1 32  1  0
  1 33  1  0
  1 34  1  0
  5 35  1  1
  6 36  1  0
  6 37  1  0
  7 38  1  0
  7 39  1  0
  8 40  1  6
  9 41  1  0
 15 42  1  0
 15 43  1  0
 15 44  1  0
 20 45  1  0
 22 46  1  0
 22 47  1  0
 24 48  1  0
 25 49  1  0
 26 50  1  0
 29 51  1  0
 29 52  1  0
 29 53  1  0
 30 54  1  0
 30 55  1  0
 31 56  1  0
 31 57  1  0
M  END
>  <meeko>  (18) 
{"is_sidechain": false}

$$$$

     RDKit          3D

 57 60  0  0  0  0  0  0  0  0999 V2000
    6.5840   -4.5210  -50.5490 C   0  0  0  0  0  0  0  0  0  0  0  0
    7.9710   -3.9910  -50.7490 C   0  0  0  0  0  0  0  0  0  0  0  0
    8.8180   -3.9250  -49.8710 O   0  0  0  0  0  0  0  0  0  0  0  0
    8.1360   -3.6030  -52.0440 O   0  0  0  0  0  0  0  0  0  0  0  0
    8.5290   -2.2300  -52.2470 C   0  0  2  0  0  0  0  0  0  0  0  0
    7.3230   -1.3210  -51.9630 C   0  0  0  0  0  0  0  0  0  0  0  0
    7.3800   -0.0360  -52.7770 C   0  0  0  0  0  0  0  0  0  0  0  0
    7.3480   -0.3160  -54.2900 C   0  0  1  0  0  0  0  0  0  0  0  0
    8.0600    0.7340  -54.9990 N   0  0  0  0  0  0  0  0  0  0  0  0
    7.5730    1.3070  -56.1600 C   0  0  0  0  0  0  0  0  0  0  0  0
    6.5490    0.9320  -56.7220 O   0  0  0  0  0  0  0  0  0  0  0  0
    8.4070    2.4170  -56.6460 C   0  0  0  0  0  0  0  0  0  0  0  0
    7.9080    3.6530  -56.8180 N   0  0  0  0  0  0  0  0  0  0  0  0
    8.9190    4.3530  -57.3550 N   0  0  0  0  0  0  0  0  0  0  0  0
    8.7000    5.7320  -57.7260 C   0  0  0  0  0  0  0  0  0  0  0  0
   10.0680    3.6200  -57.5130 C   0  0  0  0  0  0  0  0  0  0  0  0
   11.2630    4.1100  -58.1060 C   0  0  0  0  0  0  0  0  0  0  0  0
   12.4640    4.2060  -57.4610 N   0  0  0  0  0  0  0  0  0  0  0  0
   13.4080    4.7150  -58.2670 N   0  0  0  0  0  0  0  0  0  0  0  0
   12.8540    4.9250  -59.4530 N   0  0  0  0  0  0  0  0  0  0  0  0
   11.5350    4.5450  -59.3870 C   0  0  0  0  0  0  0  0  0  0  0  0
   10.6490    4.6630  -60.5710 C   0  0  0  0  0  0  0  0  0  0  0  0
    9.7050    3.5550  -60.6360 N   0  0  0  0  0  0  0  0  0  0  0  0
   10.0080    2.2290  -60.8060 C   0  0  0  0  0  0  0  0  0  0  0  0
    8.8080    1.5700  -60.9060 C   0  0  0  0  0  0  0  0  0  0  0  0
    7.8350    2.5790  -60.7950 C   0  0  0  0  0  0  0  0  0  0  0  0
    8.3710    3.7890  -60.6210 N   0  0  0  0  0  0  0  0  0  0  0  0
    9.7860    2.3570  -57.0290 C   0  0  0  0  0  0  0  0  0  0  0  0
   10.6900    1.1820  -56.9240 C   0  0  0  0  0  0  0  0  0  0  0  0
    7.9300   -1.6940  -54.6500 C   0  0  0  0  0  0  0  0  0  0  0  0
    9.0440   -2.1030  -53.6900 C   0  0  0  0  0  0  0  0  0  0  0  0
    6.3739   -4.6013  -49.4722 H   0  0  0  0  0  0  0  0  0  0  0  0
    5.8593   -3.8364  -51.0140 H   0  0  0  0  0  0  0  0  0  0  0  0
    6.5005   -5.5144  -51.0140 H   0  0  0  0  0  0  0  0  0  0  0  0
    9.3338   -1.9206  -51.5639 H   0  0  0  0  0  0  0  0  0  0  0  0
    6.4005   -1.8633  -52.2177 H   0  0  0  0  0  0  0  0  0  0  0  0
    7.3414   -1.0515  -50.8967 H   0  0  0  0  0  0  0  0  0  0  0  0
    6.5161    0.5915  -52.5127 H   0  0  0  0  0  0  0  0  0  0  0  0
    8.3258    0.4748  -52.5437 H   0  0  0  0  0  0  0  0  0  0  0  0
    6.2927   -0.3264  -54.6001 H   0  0  0  0  0  0  0  0  0  0  0  0
    8.9340    1.0880  -54.6270 H   0  0  0  0  0  0  0  0  0  0  0  0
    8.6026    6.3450  -56.8178 H   0  0  0  0  0  0  0  0  0  0  0  0
    9.5523    6.0913  -58.3213 H   0  0  0  0  0  0  0  0  0  0  0  0
    7.7783    5.8096  -58.3213 H   0  0  0  0  0  0  0  0  0  0  0  0
   12.7080    3.9510  -56.5120 H   0  0  0  0  0  0  0  0  0  0  0  0
   10.0893    5.6078  -60.5074 H   0  0  0  0  0  0  0  0  0  0  0  0
   11.2734    4.6419  -61.4764 H   0  0  0  0  0  0  0  0  0  0  0  0
   11.0121    1.7823  -60.8529 H   0  0  0  0  0  0  0  0  0  0  0  0
    8.6438    0.4910  -61.0428 H   0  0  0  0  0  0  0  0  0  0  0  0
    6.7522    2.3919  -60.8459 H   0  0  0  0  0  0  0  0  0  0  0  0
   10.8683    0.9502  -55.8636 H   0  0  0  0  0  0  0  0  0  0  0  0
   10.2235    0.3154  -57.4153 H   0  0  0  0  0  0  0  0  0  0  0  0
   11.6472    1.4107  -57.4153 H   0  0  0  0  0  0  0  0  0  0  0  0
    7.1264   -2.4437  -54.6041 H   0  0  0  0  0  0  0  0  0  0  0  0
    8.3544   -1.6337  -55.6630 H   0  0  0  0  0  0  0  0  0  0  0  0
    9.4527   -3.0729  -54.0099 H   0  0  0  0  0  0  0  0  0  0  0  0
    9.8199   -1.3236  -53.7111 H   0  0  0  0  0  0  0  0  0  0  0  0
  1  2  1  0
  2  3  2  0
  2  4  1  0
  4  5  1  0
  5  6  1  0
  6  7  1  0
  7  8  1  0
  8  9  1  0
  9 10  1  0
 10 11  2  0
 10 12  1  0
 12 13  2  0
 13 14  1  0
 14 15  1  0
 14 16  1  0
 16 17  1  0
 17 18  1  0
 18 19  1  0
 19 20  2  0
 20 21  1  0
 21 22  1  0
 22 23  1  0
 23 24  1  0
 24 25  2  0
 25 26  1  0
 26 27  2  0
 16 28  2  0
 28 29  1  0
  8 30  1  0
 30 31  1  0
 31  5  1  0
 28 12  1  0
 21 17  2  0
 27 23  1  0
  1 32  1  0
  1 33  1  0
  1 34  1  0
  5 35  1  6
  6 36  1  0
  6 37  1  0
  7 38  1  0
  7 39  1  0
  8 40  1  1
  9 41  1  0
 15 42  1  0
 15 43  1  0
 15 44  1  0
 18 45  1  0
 22 46  1  0
 22 47  1  0
 24 48  1  0
 25 49  1  0
 26 50  1  0
 29 51  1  0
 29 52  1  0
 29 53  1  0
 30 54  1  0
 30 55  1  0
 31 56  1  0
 31 57  1  0
M  END
>  <meeko>  (19) 
{"is_sidechain": false}

$$$$

     RDKit          3D

 57 60  0  0  0  0  0  0  0  0999 V2000
    6.5580   -4.2920  -50.4600 C   0  0  0  0  0  0  0  0  0  0  0  0
    7.3520   -3.0270  -50.5450 C   0  0  0  0  0  0  0  0  0  0  0  0
    8.0950   -2.6140  -49.6660 O   0  0  0  0  0  0  0  0  0  0  0  0
    7.1190   -2.4130  -51.7370 O   0  0  0  0  0  0  0  0  0  0  0  0
    7.5080   -3.1420  -52.9200 C   0  0  2  0  0  0  0  0  0  0  0  0
    8.9830   -2.8790  -53.2260 C   0  0  0  0  0  0  0  0  0  0  0  0
    9.2830   -1.3900  -53.4320 C   0  0  0  0  0  0  0  0  0  0  0  0
    8.0980   -0.5930  -54.0000 C   0  0  1  0  0  0  0  0  0  0  0  0
    8.5690    0.5540  -54.7560 N   0  0  0  0  0  0  0  0  0  0  0  0
    7.7600    1.2280  -55.6550 C   0  0  0  0  0  0  0  0  0  0  0  0
    6.5750    0.9520  -55.8220 O   0  0  0  0  0  0  0  0  0  0  0  0
    8.4500    2.3090  -56.3810 C   0  0  0  0  0  0  0  0  0  0  0  0
    7.8670    3.5050  -56.5480 N   0  0  0  0  0  0  0  0  0  0  0  0
    8.7430    4.2130  -57.2790 N   0  0  0  0  0  0  0  0  0  0  0  0
    8.2260    5.3670  -57.9750 C   0  0  0  0  0  0  0  0  0  0  0  0
    9.9570    3.5960  -57.4260 C   0  0  0  0  0  0  0  0  0  0  0  0
   11.3060    4.1550  -58.0200 C   0  0  0  0  0  0  0  0  0  0  0  0
   12.3330    4.3880  -57.1870 N   0  0  0  0  0  0  0  0  0  0  0  0
   13.2800    4.8350  -58.0110 N   0  0  0  0  0  0  0  0  0  0  0  0
   12.9650    5.0030  -59.2970 N   0  0  0  0  0  0  0  0  0  0  0  0
   11.6880    4.5670  -59.3320 C   0  0  0  0  0  0  0  0  0  0  0  0
   10.9100    4.7480  -60.5860 C   0  0  0  0  0  0  0  0  0  0  0  0
    9.9570    3.6680  -60.8130 N   0  0  0  0  0  0  0  0  0  0  0  0
    8.5960    3.7700  -60.9260 C   0  0  0  0  0  0  0  0  0  0  0  0
    8.1200    2.4860  -61.0430 C   0  0  0  0  0  0  0  0  0  0  0  0
    9.2620    1.6730  -60.9580 C   0  0  0  0  0  0  0  0  0  0  0  0
   10.3830    2.3840  -60.8020 N   0  0  0  0  0  0  0  0  0  0  0  0
    9.7570    2.2960  -56.9670 C   0  0  0  0  0  0  0  0  0  0  0  0
   10.6930    1.1410  -57.0260 C   0  0  0  0  0  0  0  0  0  0  0  0
    7.1980   -1.4820  -54.8620 C   0  0  0  0  0  0  0  0  0  0  0  0
    6.6150   -2.6630  -54.0750 C   0  0  0  0  0  0  0  0  0  0  0  0
    6.3947   -4.5521  -49.4037 H   0  0  0  0  0  0  0  0  0  0  0  0
    5.5870   -4.1495  -50.9569 H   0  0  0  0  0  0  0  0  0  0  0  0
    7.1084   -5.1045  -50.9569 H   0  0  0  0  0  0  0  0  0  0  0  0
    7.3833   -4.2253  -52.7754 H   0  0  0  0  0  0  0  0  0  0  0  0
    9.5890   -3.2480  -52.3854 H   0  0  0  0  0  0  0  0  0  0  0  0
    9.2288   -3.4022  -54.1619 H   0  0  0  0  0  0  0  0  0  0  0  0
    9.5608   -0.9543  -52.4609 H   0  0  0  0  0  0  0  0  0  0  0  0
   10.0965   -1.3254  -54.1696 H   0  0  0  0  0  0  0  0  0  0  0  0
    7.4972   -0.2266  -53.1545 H   0  0  0  0  0  0  0  0  0  0  0  0
    9.5330    0.8500  -54.6710 H   0  0  0  0  0  0  0  0  0  0  0  0
    7.8902    6.1165  -57.2432 H   0  0  0  0  0  0  0  0  0  0  0  0
    9.0165    5.7992  -58.6061 H   0  0  0  0  0  0  0  0  0  0  0  0
    7.3772    5.0648  -58.6061 H   0  0  0  0  0  0  0  0  0  0  0  0
   14.2110    5.0590  -57.6650 H   0  0  0  0  0  0  0  0  0  0  0  0
   10.3587    5.6979  -60.5250 H   0  0  0  0  0  0  0  0  0  0  0  0
   11.6223    4.7467  -61.4242 H   0  0  0  0  0  0  0  0  0  0  0  0
    8.0018    4.6957  -60.9236 H   0  0  0  0  0  0  0  0  0  0  0  0
    7.0758    2.1660  -61.1742 H   0  0  0  0  0  0  0  0  0  0  0  0
    9.2367    0.5747  -61.0136 H   0  0  0  0  0  0  0  0  0  0  0  0
   10.9496    0.8244  -56.0043 H   0  0  0  0  0  0  0  0  0  0  0  0
   10.2129    0.3069  -57.5587 H   0  0  0  0  0  0  0  0  0  0  0  0
   11.6085    1.4378  -57.5587 H   0  0  0  0  0  0  0  0  0  0  0  0
    6.3686   -0.8731  -55.2512 H   0  0  0  0  0  0  0  0  0  0  0  0
    7.8134   -1.8928  -55.6760 H   0  0  0  0  0  0  0  0  0  0  0  0
    5.6443   -2.3562  -53.6582 H   0  0  0  0  0  0  0  0  0  0  0  0
    6.5252   -3.5032  -54.7793 H   0  0  0  0  0  0  0  0  0  0  0  0
  1  2  1  0
  2  3  2  0
  2  4  1  0
  4  5  1  0
  5  6  1  0
  6  7  1  0
  7  8  1  0
  8  9  1  0
  9 10  1  0
 10 11  2  0
 10 12  1  0
 12 13  2  0
 13 14  1  0
 14 15  1  0
 14 16  1  0
 16 17  1  0
 17 18  2  0
 18 19  1  0
 19 20  1  0
 20 21  2  0
 21 22  1  0
 22 23  1  0
 23 24  1  0
 24 25  2  0
 25 26  1  0
 26 27  2  0
 16 28  2  0
 28 29  1  0
  8 30  1  0
 30 31  1  0
 31  5  1  0
 28 12  1  0
 21 17  1  0
 27 23  1  0
  1 32  1  0
  1 33  1  0
  1 34  1  0
  5 35  1  6
  6 36  1  0
  6 37  1  0
  7 38  1  0
  7 39  1  0
  8 40  1  6
  9 41  1  0
 15 42  1  0
 15 43  1  0
 15 44  1  0
 19 45  1  0
 22 46  1  0
 22 47  1  0
 24 48  1  0
 25 49  1  0
 26 50  1  0
 29 51  1  0
 29 52  1  0
 29 53  1  0
 30 54  1  0
 30 55  1  0
 31 56  1  0
 31 57  1  0
M  END
>  <meeko>  (20) 
{"is_sidechain": false}

$$$$

     RDKit          3D

 66 71  0  0  0  0  0  0  0  0999 V2000
    6.2290    0.0450  -53.7330 C   0  0  0  0  0  0  0  0  0  0  0  0
    7.5960   -0.4370  -54.0610 C   0  0  0  0  0  0  0  0  0  0  0  0
    8.4970    0.0800  -55.0510 C   0  0  0  0  0  0  0  0  0  0  0  0
    8.3060    1.2390  -55.9490 C   0  0  0  0  0  0  0  0  0  0  0  0
    7.2060    1.7280  -56.1820 O   0  0  0  0  0  0  0  0  0  0  0  0
    9.4820    1.6960  -56.5210 N   0  0  0  0  0  0  0  0  0  0  0  0
    9.5600    2.7560  -57.5300 C   0  0  2  0  0  0  0  0  0  0  0  0
   11.0340    2.8550  -58.0140 C   0  0  0  0  0  0  0  0  0  0  0  0
   11.1920    3.9470  -59.0830 C   0  0  1  0  0  0  0  0  0  0  0  0
   10.2880    3.6140  -60.2800 C   0  0  0  0  0  0  0  0  0  0  0  0
    8.8210    3.5400  -59.8270 C   0  0  2  0  0  0  0  0  0  0  0  0
    8.4090    4.8930  -59.2230 C   0  0  0  0  0  0  0  0  0  0  0  0
    9.3080    5.2340  -58.0230 C   0  0  2  0  0  0  0  0  0  0  0  0
   10.7710    5.2990  -58.4880 C   0  0  0  0  0  0  0  0  0  0  0  0
    9.1620    4.1380  -56.9530 C   0  0  0  0  0  0  0  0  0  0  0  0
    8.6730    2.4410  -58.7590 C   0  0  0  0  0  0  0  0  0  0  0  0
    9.6310   -0.6390  -55.0840 N   0  0  0  0  0  0  0  0  0  0  0  0
    9.4630   -1.5930  -54.1530 N   0  0  0  0  0  0  0  0  0  0  0  0
   10.5310   -2.5550  -53.9430 C   0  0  0  0  0  0  0  0  0  0  0  0
   10.2410   -3.8760  -54.6480 C   0  0  0  0  0  0  0  0  0  0  0  0
   11.2220   -4.1290  -55.7650 C   0  0  0  0  0  0  0  0  0  0  0  0
   12.1440   -5.1810  -55.6720 C   0  0  0  0  0  0  0  0  0  0  0  0
   13.0370   -5.4300  -56.7170 C   0  0  0  0  0  0  0  0  0  0  0  0
   13.0120   -4.6340  -57.8610 C   0  0  0  0  0  0  0  0  0  0  0  0
   12.0950   -3.5900  -57.9630 C   0  0  0  0  0  0  0  0  0  0  0  0
   11.2020   -3.3380  -56.9220 C   0  0  0  0  0  0  0  0  0  0  0  0
    8.2670   -1.5070  -53.4860 C   0  0  0  0  0  0  0  0  0  0  0  0
    7.8590   -2.4040  -52.4130 C   0  0  0  0  0  0  0  0  0  0  0  0
    7.1060   -3.5470  -52.7020 C   0  0  0  0  0  0  0  0  0  0  0  0
    6.7050   -4.4010  -51.6740 C   0  0  0  0  0  0  0  0  0  0  0  0
    7.0600   -4.1210  -50.3550 C   0  0  0  0  0  0  0  0  0  0  0  0
    7.8170   -2.9880  -50.0620 C   0  0  0  0  0  0  0  0  0  0  0  0
    8.2180   -2.1320  -51.0890 C   0  0  0  0  0  0  0  0  0  0  0  0
    6.1076    0.0878  -52.6406 H   0  0  0  0  0  0  0  0  0  0  0  0
    6.0825    1.0490  -54.1578 H   0  0  0  0  0  0  0  0  0  0  0  0
    5.4851   -0.6451  -54.1578 H   0  0  0  0  0  0  0  0  0  0  0  0
   10.2660    1.0600  -56.4600 H   0  0  0  0  0  0  0  0  0  0  0  0
   11.6786    3.0961  -57.1559 H   0  0  0  0  0  0  0  0  0  0  0  0
   11.3230    1.8895  -58.4549 H   0  0  0  0  0  0  0  0  0  0  0  0
   12.2400    3.9983  -59.4132 H   0  0  0  0  0  0  0  0  0  0  0  0
   10.3938    4.3971  -61.0452 H   0  0  0  0  0  0  0  0  0  0  0  0
   10.5862    2.6411  -60.6978 H   0  0  0  0  0  0  0  0  0  0  0  0
    8.1784    3.3070  -60.6888 H   0  0  0  0  0  0  0  0  0  0  0  0
    8.5096    5.6779  -59.9871 H   0  0  0  0  0  0  0  0  0  0  0  0
    7.3646    4.8316  -58.8833 H   0  0  0  0  0  0  0  0  0  0  0  0
    9.0110    6.2054  -57.6008 H   0  0  0  0  0  0  0  0  0  0  0  0
   10.8759    6.0825  -59.2529 H   0  0  0  0  0  0  0  0  0  0  0  0
   11.4144    5.5312  -57.6265 H   0  0  0  0  0  0  0  0  0  0  0  0
    9.8154    4.3756  -56.1006 H   0  0  0  0  0  0  0  0  0  0  0  0
    8.1119    4.0975  -56.6278 H   0  0  0  0  0  0  0  0  0  0  0  0
    7.6214    2.3842  -58.4414 H   0  0  0  0  0  0  0  0  0  0  0  0
    8.9913    1.4805  -59.1905 H   0  0  0  0  0  0  0  0  0  0  0  0
   11.4697   -2.1383  -54.3369 H   0  0  0  0  0  0  0  0  0  0  0  0
   10.6115   -2.7507  -52.8635 H   0  0  0  0  0  0  0  0  0  0  0  0
   10.3115   -4.6950  -53.9171 H   0  0  0  0  0  0  0  0  0  0  0  0
    9.2303   -3.8244  -55.0792 H   0  0  0  0  0  0  0  0  0  0  0  0
   12.1643   -5.8132  -54.7721 H   0  0  0  0  0  0  0  0  0  0  0  0
   13.7604   -6.2548  -56.6370 H   0  0  0  0  0  0  0  0  0  0  0  0
   13.7161   -4.8300  -58.6831 H   0  0  0  0  0  0  0  0  0  0  0  0
   12.0754   -2.9631  -58.8667 H   0  0  0  0  0  0  0  0  0  0  0  0
   10.4782   -2.5143  -57.0093 H   0  0  0  0  0  0  0  0  0  0  0  0
    6.8293   -3.7731  -53.7424 H   0  0  0  0  0  0  0  0  0  0  0  0
    6.1083   -5.2959  -51.9043 H   0  0  0  0  0  0  0  0  0  0  0  0
    6.7425   -4.7946  -49.5454 H   0  0  0  0  0  0  0  0  0  0  0  0
    8.0984   -2.7684  -49.0215 H   0  0  0  0  0  0  0  0  0  0  0  0
    8.8185   -1.2403  -50.8561 H   0  0  0  0  0  0  0  0  0  0  0  0
  1  2  1  0
  2  3  1  0
  3  4  1  0
  4  5  2  0
  4  6  1  0
  7  6  1  1
  7  8  1  0
  8  9  1  0
  9 10  1  0
 10 11  1  0
 11 12  1  0
 12 13  1  0
 13 14  1  0
 13 15  1  0
 11 16  1  0
  3 17  2  0
 17 18  1  0
 18 19  1  0
 19 20  1  0
 20 21  1  0
 21 22  2  0
 22 23  1  0
 23 24  2  0
 24 25  1  0
 25 26  2  0
 18 27  1  0
 27 28  1  0
 28 29  2  0
 29 30  1  0
 30 31  2  0
 31 32  1  0
 32 33  2  0
 27  2  2  0
 33 28  1  0
 15  7  1  0
 26 21  1  0
 16  7  1  0
 14  9  1  0
  1 34  1  0
  1 35  1  0
  1 36  1  0
  6 37  1  0
  8 38  1  0
  8 39  1  0
  9 40  1  6
 10 41  1  0
 10 42  1  0
 11 43  1  6
 12 44  1  0
 12 45  1  0
 13 46  1  1
 14 47  1  0
 14 48  1  0
 15 49  1  0
 15 50  1  0
 16 51  1  0
 16 52  1  0
 19 53  1  0
 19 54  1  0
 20 55  1  0
 20 56  1  0
 22 57  1  0
 23 58  1  0
 24 59  1  0
 25 60  1  0
 26 61  1  0
 29 62  1  0
 30 63  1  0
 31 64  1  0
 32 65  1  0
 33 66  1  0
M  END
>  <meeko>  (21) 
{"is_sidechain": false}

$$$$

     RDKit          3D

 64 69  0  0  0  0  0  0  0  0999 V2000
    6.2430    0.0830  -53.6680 C   0  0  0  0  0  0  0  0  0  0  0  0
    7.5810   -0.3520  -54.1670 C   0  0  0  0  0  0  0  0  0  0  0  0
    8.3550    0.2540  -55.2190 C   0  0  0  0  0  0  0  0  0  0  0  0
    8.0550    1.3830  -56.1040 C   0  0  0  0  0  0  0  0  0  0  0  0
    6.9890    1.9870  -56.0450 O   0  0  0  0  0  0  0  0  0  0  0  0
    9.0900    1.7300  -56.9440 N   0  0  0  0  0  0  0  0  0  0  0  0
    9.0880    2.8850  -57.8430 C   0  0  2  0  0  0  0  0  0  0  0  0
    9.0130    4.2180  -57.0590 C   0  0  0  0  0  0  0  0  0  0  0  0
    9.0720    5.4170  -58.0220 C   0  0  1  0  0  0  0  0  0  0  0  0
   10.3960    5.3760  -58.8030 C   0  0  0  0  0  0  0  0  0  0  0  0
   10.4890    4.0720  -59.6100 C   0  0  2  0  0  0  0  0  0  0  0  0
    9.3110    3.9960  -60.5950 C   0  0  0  0  0  0  0  0  0  0  0  0
    7.9830    4.0270  -59.8240 C   0  0  2  0  0  0  0  0  0  0  0  0
    7.8970    5.3310  -59.0120 C   0  0  0  0  0  0  0  0  0  0  0  0
    7.9220    2.8280  -58.8620 C   0  0  0  0  0  0  0  0  0  0  0  0
   10.4180    2.8760  -58.6470 C   0  0  0  0  0  0  0  0  0  0  0  0
    9.5540   -0.4330  -55.2600 C   0  0  0  0  0  0  0  0  0  0  0  0
    9.5180   -1.4570  -54.3510 N   0  0  0  0  0  0  0  0  0  0  0  0
   10.6250   -2.3850  -54.1290 C   0  0  0  0  0  0  0  0  0  0  0  0
   10.9870   -3.1600  -55.3730 C   0  0  0  0  0  0  0  0  0  0  0  0
   10.7180   -4.5350  -55.4700 C   0  0  0  0  0  0  0  0  0  0  0  0
   11.0480   -5.2420  -56.6270 C   0  0  0  0  0  0  0  0  0  0  0  0
   11.6480   -4.5860  -57.7010 C   0  0  0  0  0  0  0  0  0  0  0  0
   11.9170   -3.2210  -57.6190 C   0  0  0  0  0  0  0  0  0  0  0  0
   11.5860   -2.5110  -56.4630 C   0  0  0  0  0  0  0  0  0  0  0  0
    8.3240   -1.4170  -53.6600 C   0  0  0  0  0  0  0  0  0  0  0  0
    7.9740   -2.3510  -52.5930 C   0  0  0  0  0  0  0  0  0  0  0  0
    8.1000   -1.9720  -51.2520 C   0  0  0  0  0  0  0  0  0  0  0  0
    7.7640   -2.8670  -50.2340 C   0  0  0  0  0  0  0  0  0  0  0  0
    7.2980   -4.1420  -50.5540 C   0  0  0  0  0  0  0  0  0  0  0  0
    7.1650   -4.5230  -51.8880 C   0  0  0  0  0  0  0  0  0  0  0  0
    7.4990   -3.6290  -52.9050 C   0  0  0  0  0  0  0  0  0  0  0  0
    6.2440    0.0827  -52.5680 H   0  0  0  0  0  0  0  0  0  0  0  0
    6.0272    1.0976  -54.0342 H   0  0  0  0  0  0  0  0  0  0  0  0
    5.4718   -0.6107  -54.0342 H   0  0  0  0  0  0  0  0  0  0  0  0
    9.9890    1.3370  -56.7010 H   0  0  0  0  0  0  0  0  0  0  0  0
    8.0691    4.2532  -56.4953 H   0  0  0  0  0  0  0  0  0  0  0  0
    9.8695    4.2734  -56.3710 H   0  0  0  0  0  0  0  0  0  0  0  0
    9.0077    6.3545  -57.4502 H   0  0  0  0  0  0  0  0  0  0  0  0
   10.4404    6.2338  -59.4902 H   0  0  0  0  0  0  0  0  0  0  0  0
   11.2355    5.4227  -58.0938 H   0  0  0  0  0  0  0  0  0  0  0  0
   11.4381    4.0489  -60.1657 H   0  0  0  0  0  0  0  0  0  0  0  0
    9.3541    4.8539  -61.2822 H   0  0  0  0  0  0  0  0  0  0  0  0
    9.3764    3.0585  -61.1666 H   0  0  0  0  0  0  0  0  0  0  0  0
    7.1444    3.9747  -60.5339 H   0  0  0  0  0  0  0  0  0  0  0  0
    7.9360    6.1899  -59.6981 H   0  0  0  0  0  0  0  0  0  0  0  0
    6.9515    5.3430  -58.4499 H   0  0  0  0  0  0  0  0  0  0  0  0
    6.9659    2.8491  -58.3185 H   0  0  0  0  0  0  0  0  0  0  0  0
    8.0076    1.9002  -59.4466 H   0  0  0  0  0  0  0  0  0  0  0  0
   10.4813    1.9433  -59.2268 H   0  0  0  0  0  0  0  0  0  0  0  0
   11.2560    2.9473  -57.9380 H   0  0  0  0  0  0  0  0  0  0  0  0
   10.4025   -0.1950  -55.9183 H   0  0  0  0  0  0  0  0  0  0  0  0
   11.5052   -1.8124  -53.8013 H   0  0  0  0  0  0  0  0  0  0  0  0
   10.3065   -3.1090  -53.3646 H   0  0  0  0  0  0  0  0  0  0  0  0
   10.2434   -5.0589  -54.6272 H   0  0  0  0  0  0  0  0  0  0  0  0
   10.8343   -6.3191  -56.6918 H   0  0  0  0  0  0  0  0  0  0  0  0
   11.9087   -5.1450  -58.6118 H   0  0  0  0  0  0  0  0  0  0  0  0
   12.3905   -2.7024  -58.4657 H   0  0  0  0  0  0  0  0  0  0  0  0
   11.7969   -1.4329  -56.4065 H   0  0  0  0  0  0  0  0  0  0  0  0
    8.4649   -0.9657  -50.9988 H   0  0  0  0  0  0  0  0  0  0  0  0
    7.8668   -2.5667  -49.1808 H   0  0  0  0  0  0  0  0  0  0  0  0
    7.0351   -4.8479  -49.7524 H   0  0  0  0  0  0  0  0  0  0  0  0
    6.7966   -5.5287  -52.1387 H   0  0  0  0  0  0  0  0  0  0  0  0
    7.3884   -3.9303  -53.9571 H   0  0  0  0  0  0  0  0  0  0  0  0
  1  2  1  0
  2  3  1  0
  3  4  1  0
  4  5  2  0
  4  6  1  0
  7  6  1  1
  7  8  1  0
  8  9  1  0
  9 10  1  0
 10 11  1  0
 11 12  1  0
 12 13  1  0
 13 14  1  0
 13 15  1  0
 11 16  1  0
  3 17  2  0
 17 18  1  0
 18 19  1  0
 19 20  1  0
 20 21  2  0
 21 22  1  0
 22 23  2  0
 23 24  1  0
 24 25  2  0
 18 26  1  0
 26 27  1  0
 27 28  2  0
 28 29  1  0
 29 30  2  0
 30 31  1  0
 31 32  2  0
 26  2  2  0
 32 27  1  0
 15  7  1  0
 25 20  1  0
 16  7  1  0
 14  9  1  0
  1 33  1  0
  1 34  1  0
  1 35  1  0
  6 36  1  0
  8 37  1  0
  8 38  1  0
  9 39  1  1
 10 40  1  0
 10 41  1  0
 11 42  1  6
 12 43  1  0
 12 44  1  0
 13 45  1  6
 14 46  1  0
 14 47  1  0
 15 48  1  0
 15 49  1  0
 16 50  1  0
 16 51  1  0
 17 52  1  0
 19 53  1  0
 19 54  1  0
 21 55  1  0
 22 56  1  0
 23 57  1  0
 24 58  1  0
 25 59  1  0
 28 60  1  0
 29 61  1  0
 30 62  1  0
 31 63  1  0
 32 64  1  0
M  END
>  <meeko>  (22) 
{"is_sidechain": false}

$$$$

     RDKit          3D

 50 54  0  0  0  0  0  0  0  0999 V2000
    9.4880   -0.2670  -55.1070 C   0  0  0  0  0  0  0  0  0  0  0  0
    8.0150   -0.0890  -55.0150 C   0  0  0  0  0  0  0  0  0  0  0  0
    7.2000    0.8340  -55.7540 C   0  0  0  0  0  0  0  0  0  0  0  0
    7.6120    1.7740  -56.8170 C   0  0  0  0  0  0  0  0  0  0  0  0
    6.8520    2.1590  -57.6990 O   0  0  0  0  0  0  0  0  0  0  0  0
    8.9440    2.1510  -56.7360 N   0  0  0  0  0  0  0  0  0  0  0  0
    9.6350    2.9840  -57.7240 C   0  0  2  0  0  0  0  0  0  0  0  0
    8.9530    4.3650  -57.8990 C   0  0  0  0  0  0  0  0  0  0  0  0
    9.7350    5.2320  -58.9010 C   0  0  1  0  0  0  0  0  0  0  0  0
   11.1630    5.4520  -58.3770 C   0  0  0  0  0  0  0  0  0  0  0  0
   11.8730    4.1010  -58.2100 C   0  0  2  0  0  0  0  0  0  0  0  0
   11.9300    3.3840  -59.5680 C   0  0  0  0  0  0  0  0  0  0  0  0
   10.5080    3.1520  -60.1000 C   0  0  2  0  0  0  0  0  0  0  0  0
    9.7970    4.5080  -60.2560 C   0  0  0  0  0  0  0  0  0  0  0  0
    9.7260    2.2820  -59.1000 C   0  0  0  0  0  0  0  0  0  0  0  0
   11.0820    3.2350  -57.2160 C   0  0  0  0  0  0  0  0  0  0  0  0
    5.9170    0.7550  -55.3610 N   0  0  0  0  0  0  0  0  0  0  0  0
    5.9130   -0.1820  -54.4090 N   0  0  0  0  0  0  0  0  0  0  0  0
    7.1380   -0.7410  -54.1610 C   0  0  0  0  0  0  0  0  0  0  0  0
    7.3340   -1.7920  -53.1700 C   0  0  0  0  0  0  0  0  0  0  0  0
    7.2430   -3.1410  -53.5400 C   0  0  0  0  0  0  0  0  0  0  0  0
    7.4250   -4.1510  -52.5920 C   0  0  0  0  0  0  0  0  0  0  0  0
    7.7010   -3.8160  -51.2680 C   0  0  0  0  0  0  0  0  0  0  0  0
    7.9270   -5.0600  -50.1010 Cl  0  0  0  0  0  0  0  0  0  0  0  0
    7.7970   -2.4810  -50.8850 C   0  0  0  0  0  0  0  0  0  0  0  0
    7.6120   -1.4700  -51.8340 C   0  0  0  0  0  0  0  0  0  0  0  0
    9.9150   -0.3186  -54.0946 H   0  0  0  0  0  0  0  0  0  0  0  0
    9.7117   -1.1987  -55.6472 H   0  0  0  0  0  0  0  0  0  0  0  0
    9.9272    0.5846  -55.6472 H   0  0  0  0  0  0  0  0  0  0  0  0
    9.5200    1.5720  -56.1390 H   0  0  0  0  0  0  0  0  0  0  0  0
    7.9284    4.2176  -58.2711 H   0  0  0  0  0  0  0  0  0  0  0  0
    8.9344    4.8772  -56.9257 H   0  0  0  0  0  0  0  0  0  0  0  0
    9.2325    6.2030  -59.0218 H   0  0  0  0  0  0  0  0  0  0  0  0
   11.7226    6.0720  -59.0929 H   0  0  0  0  0  0  0  0  0  0  0  0
   11.1166    5.9593  -57.4021 H   0  0  0  0  0  0  0  0  0  0  0  0
   12.8939    4.2638  -57.8342 H   0  0  0  0  0  0  0  0  0  0  0  0
   12.4901    4.0036  -60.2838 H   0  0  0  0  0  0  0  0  0  0  0  0
   12.4314    2.4130  -59.4427 H   0  0  0  0  0  0  0  0  0  0  0  0
   10.5562    2.6437  -61.0743 H   0  0  0  0  0  0  0  0  0  0  0  0
   10.3516    5.1288  -60.9750 H   0  0  0  0  0  0  0  0  0  0  0  0
    8.7730    4.3375  -60.6199 H   0  0  0  0  0  0  0  0  0  0  0  0
    8.7105    2.1107  -59.4865 H   0  0  0  0  0  0  0  0  0  0  0  0
   10.2519    1.3239  -58.9758 H   0  0  0  0  0  0  0  0  0  0  0  0
   11.5933    2.2686  -57.0948 H   0  0  0  0  0  0  0  0  0  0  0  0
   11.0283    3.7662  -56.2542 H   0  0  0  0  0  0  0  0  0  0  0  0
    5.0290   -0.4120  -53.9680 H   0  0  0  0  0  0  0  0  0  0  0  0
    7.0265   -3.4065  -54.5853 H   0  0  0  0  0  0  0  0  0  0  0  0
    7.3506   -5.2073  -52.8899 H   0  0  0  0  0  0  0  0  0  0  0  0
    8.0177   -2.2219  -49.8390 H   0  0  0  0  0  0  0  0  0  0  0  0
    7.6851   -0.4154  -51.5300 H   0  0  0  0  0  0  0  0  0  0  0  0
  1  2  1  0
  2  3  1  0
  3  4  1  0
  4  5  2  0
  4  6  1  0
  7  6  1  1
  7  8  1  0
  8  9  1  0
  9 10  1  0
 10 11  1  0
 11 12  1  0
 12 13  1  0
 13 14  1  0
 13 15  1  0
 11 16  1  0
  3 17  2  0
 17 18  1  0
 18 19  1  0
 19 20  1  0
 20 21  1  0
 21 22  2  0
 22 23  1  0
 23 24  1  0
 23 25  2  0
 25 26  1  0
 19  2  2  0
 26 20  2  0
 15  7  1  0
 16  7  1  0
 14  9  1  0
  1 27  1  0
  1 28  1  0
  1 29  1  0
  6 30  1  0
  8 31  1  0
  8 32  1  0
  9 33  1  6
 10 34  1  0
 10 35  1  0
 11 36  1  1
 12 37  1  0
 12 38  1  0
 13 39  1  6
 14 40  1  0
 14 41  1  0
 15 42  1  0
 15 43  1  0
 16 44  1  0
 16 45  1  0
 18 46  1  0
 21 47  1  0
 22 48  1  0
 25 49  1  0
 26 50  1  0
M  END
>  <meeko>  (23) 
{"is_sidechain": false}

$$$$

     RDKit          3D

 50 54  0  0  0  0  0  0  0  0999 V2000
    9.4930   -0.3410  -55.0970 C   0  0  0  0  0  0  0  0  0  0  0  0
    8.0340   -0.0700  -54.9880 C   0  0  0  0  0  0  0  0  0  0  0  0
    7.0830   -0.6810  -54.1090 C   0  0  0  0  0  0  0  0  0  0  0  0
    7.2900   -1.7440  -53.1250 C   0  0  0  0  0  0  0  0  0  0  0  0
    7.2180   -3.0890  -53.5190 C   0  0  0  0  0  0  0  0  0  0  0  0
    7.4160   -4.1140  -52.5900 C   0  0  0  0  0  0  0  0  0  0  0  0
    7.6950   -3.7990  -51.2620 C   0  0  0  0  0  0  0  0  0  0  0  0
    7.9400   -5.0580  -50.1170 Cl  0  0  0  0  0  0  0  0  0  0  0  0
    7.7830   -2.4680  -50.8570 C   0  0  0  0  0  0  0  0  0  0  0  0
    7.5840   -1.4430  -51.7880 C   0  0  0  0  0  0  0  0  0  0  0  0
    5.8680   -0.1330  -54.2700 N   0  0  0  0  0  0  0  0  0  0  0  0
    6.0230    0.7330  -55.2750 N   0  0  0  0  0  0  0  0  0  0  0  0
    7.3070    0.8600  -55.7200 C   0  0  0  0  0  0  0  0  0  0  0  0
    7.7290    1.7450  -56.7780 C   0  0  0  0  0  0  0  0  0  0  0  0
    6.9920    2.0700  -57.7010 O   0  0  0  0  0  0  0  0  0  0  0  0
    9.0400    2.1660  -56.6680 N   0  0  0  0  0  0  0  0  0  0  0  0
    9.7210    3.0050  -57.6640 C   0  0  2  0  0  0  0  0  0  0  0  0
    9.8020    2.3040  -59.0430 C   0  0  0  0  0  0  0  0  0  0  0  0
   10.5740    3.1770  -60.0490 C   0  0  1  0  0  0  0  0  0  0  0  0
    9.8610    4.5320  -60.1970 C   0  0  0  0  0  0  0  0  0  0  0  0
    9.8090    5.2560  -58.8400 C   0  0  2  0  0  0  0  0  0  0  0  0
   11.2420    5.4770  -58.3290 C   0  0  0  0  0  0  0  0  0  0  0  0
   11.9540    4.1260  -58.1690 C   0  0  2  0  0  0  0  0  0  0  0  0
   12.0010    3.4110  -59.5290 C   0  0  0  0  0  0  0  0  0  0  0  0
   11.1720    3.2580  -57.1710 C   0  0  0  0  0  0  0  0  0  0  0  0
    9.0370    4.3860  -57.8320 C   0  0  0  0  0  0  0  0  0  0  0  0
    9.9272   -0.4217  -54.0896 H   0  0  0  0  0  0  0  0  0  0  0  0
    9.6512   -1.2839  -55.6410 H   0  0  0  0  0  0  0  0  0  0  0  0
    9.9792    0.4822  -55.6410 H   0  0  0  0  0  0  0  0  0  0  0  0
    7.0038   -3.3387  -54.5686 H   0  0  0  0  0  0  0  0  0  0  0  0
    7.3518   -5.1656  -52.9062 H   0  0  0  0  0  0  0  0  0  0  0  0
    8.0083   -2.2244  -49.8082 H   0  0  0  0  0  0  0  0  0  0  0  0
    7.6588   -0.3931  -51.4684 H   0  0  0  0  0  0  0  0  0  0  0  0
    5.1990    1.2090  -55.6250 H   0  0  0  0  0  0  0  0  0  0  0  0
    9.6430    1.5760  -56.1130 H   0  0  0  0  0  0  0  0  0  0  0  0
   10.3195    1.3401  -58.9289 H   0  0  0  0  0  0  0  0  0  0  0  0
    8.7813    2.1450  -59.4209 H   0  0  0  0  0  0  0  0  0  0  0  0
   10.6136    2.6695  -61.0242 H   0  0  0  0  0  0  0  0  0  0  0  0
   10.4091    5.1540  -60.9200 H   0  0  0  0  0  0  0  0  0  0  0  0
    8.8341    4.3604  -60.5519 H   0  0  0  0  0  0  0  0  0  0  0  0
    9.3038    6.2264  -58.9548 H   0  0  0  0  0  0  0  0  0  0  0  0
   11.7947    6.0974  -59.0499 H   0  0  0  0  0  0  0  0  0  0  0  0
   11.2045    5.9843  -57.3537 H   0  0  0  0  0  0  0  0  0  0  0  0
   12.9774    4.2892  -57.8003 H   0  0  0  0  0  0  0  0  0  0  0  0
   12.5536    4.0329  -60.2486 H   0  0  0  0  0  0  0  0  0  0  0  0
   12.5056    2.4409  -59.4098 H   0  0  0  0  0  0  0  0  0  0  0  0
   11.6856    2.2921  -57.0561 H   0  0  0  0  0  0  0  0  0  0  0  0
   11.1256    3.7891  -56.2088 H   0  0  0  0  0  0  0  0  0  0  0  0
    9.0118    4.8974  -56.8584 H   0  0  0  0  0  0  0  0  0  0  0  0
    8.0150    4.2312  -58.2081 H   0  0  0  0  0  0  0  0  0  0  0  0
  1  2  1  0
  2  3  1  0
  3  4  1  0
  4  5  1  0
  5  6  2  0
  6  7  1  0
  7  8  1  0
  7  9  2  0
  9 10  1  0
  3 11  2  0
 11 12  1  0
 12 13  1  0
 13 14  1  0
 14 15  2  0
 14 16  1  0
 17 16  1  1
 17 18  1  0
 18 19  1  0
 19 20  1  0
 20 21  1  0
 21 22  1  0
 22 23  1  0
 23 24  1  0
 23 25  1  0
 21 26  1  0
 13  2  2  0
 25 17  1  0
 10  4  2  0
 26 17  1  0
 24 19  1  0
  1 27  1  0
  1 28  1  0
  1 29  1  0
  5 30  1  0
  6 31  1  0
  9 32  1  0
 10 33  1  0
 12 34  1  0
 16 35  1  0
 18 36  1  0
 18 37  1  0
 19 38  1  6
 20 39  1  0
 20 40  1  0
 21 41  1  6
 22 42  1  0
 22 43  1  0
 23 44  1  1
 24 45  1  0
 24 46  1  0
 25 47  1  0
 25 48  1  0
 26 49  1  0
 26 50  1  0
M  END
>  <meeko>  (24) 
{"is_sidechain": false}

$$$$

     RDKit          3D

 59 64  0  0  0  0  0  0  0  0999 V2000
    8.0710    0.5760  -53.5640 C   0  0  0  0  0  0  0  0  0  0  0  0
    9.0310   -0.1790  -54.4180 C   0  0  0  0  0  0  0  0  0  0  0  0
    9.6900    0.2870  -55.5910 C   0  0  0  0  0  0  0  0  0  0  0  0
    9.6450    1.6330  -56.1980 C   0  0  0  0  0  0  0  0  0  0  0  0
    9.6770    2.6630  -55.5330 O   0  0  0  0  0  0  0  0  0  0  0  0
    9.5320    1.6150  -57.5790 N   0  0  0  0  0  0  0  0  0  0  0  0
    9.3610    2.8070  -58.4140 C   0  0  2  0  0  0  0  0  0  0  0  0
    7.9990    3.4960  -58.1540 C   0  0  0  0  0  0  0  0  0  0  0  0
    7.8190    4.7080  -59.0850 C   0  0  1  0  0  0  0  0  0  0  0  0
    8.9610    5.7090  -58.8400 C   0  0  0  0  0  0  0  0  0  0  0  0
   10.3180    5.0480  -59.1330 C   0  0  2  0  0  0  0  0  0  0  0  0
   10.3480    4.5750  -60.5950 C   0  0  0  0  0  0  0  0  0  0  0  0
    9.2150    3.5670  -60.8420 C   0  0  2  0  0  0  0  0  0  0  0  0
    7.8640    4.2370  -60.5470 C   0  0  0  0  0  0  0  0  0  0  0  0
    9.3980    2.3650  -59.9020 C   0  0  0  0  0  0  0  0  0  0  0  0
   10.5010    3.8350  -58.2010 C   0  0  0  0  0  0  0  0  0  0  0  0
   10.4020   -0.6940  -56.1550 N   0  0  0  0  0  0  0  0  0  0  0  0
   10.2940   -1.7720  -55.3380 N   0  0  0  0  0  0  0  0  0  0  0  0
   11.0650   -2.9390  -55.6510 C   0  0  0  0  0  0  0  0  0  0  0  0
   11.4760   -3.1370  -56.9820 C   0  0  0  0  0  0  0  0  0  0  0  0
   12.2270   -4.2590  -57.3420 C   0  0  0  0  0  0  0  0  0  0  0  0
   12.5880   -5.1940  -56.3760 C   0  0  0  0  0  0  0  0  0  0  0  0
   12.2030   -5.0000  -55.0510 C   0  0  0  0  0  0  0  0  0  0  0  0
   11.4510   -3.8780  -54.6870 C   0  0  0  0  0  0  0  0  0  0  0  0
    9.4150   -1.5090  -54.2830 C   0  0  0  0  0  0  0  0  0  0  0  0
    8.9130   -2.4720  -53.3050 C   0  0  0  0  0  0  0  0  0  0  0  0
    7.8690   -3.3380  -53.6360 C   0  0  0  0  0  0  0  0  0  0  0  0
    7.4150   -4.2170  -52.6680 C   0  0  0  0  0  0  0  0  0  0  0  0
    7.9190   -4.2800  -51.4170 N   0  0  0  0  0  0  0  0  0  0  0  0
    8.9150   -3.4200  -51.1150 C   0  0  0  0  0  0  0  0  0  0  0  0
    9.4380   -2.5050  -52.0130 C   0  0  0  0  0  0  0  0  0  0  0  0
    8.3019    0.3944  -52.5040 H   0  0  0  0  0  0  0  0  0  0  0  0
    8.1564    1.6514  -53.7788 H   0  0  0  0  0  0  0  0  0  0  0  0
    7.0460    0.2395  -53.7788 H   0  0  0  0  0  0  0  0  0  0  0  0
    9.2560    0.7300  -57.9810 H   0  0  0  0  0  0  0  0  0  0  0  0
    7.1884    2.7755  -58.3377 H   0  0  0  0  0  0  0  0  0  0  0  0
    7.9704    3.8429  -57.1105 H   0  0  0  0  0  0  0  0  0  0  0  0
    6.8517    5.1906  -58.8813 H   0  0  0  0  0  0  0  0  0  0  0  0
    8.8301    6.5786  -59.5009 H   0  0  0  0  0  0  0  0  0  0  0  0
    8.9376    6.0300  -57.7881 H   0  0  0  0  0  0  0  0  0  0  0  0
   11.1283    5.7723  -58.9634 H   0  0  0  0  0  0  0  0  0  0  0  0
   10.2177    5.4406  -61.2611 H   0  0  0  0  0  0  0  0  0  0  0  0
   11.3144    4.0908  -60.7992 H   0  0  0  0  0  0  0  0  0  0  0  0
    9.2397    3.2305  -61.8890 H   0  0  0  0  0  0  0  0  0  0  0  0
    7.7337    5.1029  -61.2128 H   0  0  0  0  0  0  0  0  0  0  0  0
    7.0558    3.5104  -60.7173 H   0  0  0  0  0  0  0  0  0  0  0  0
    8.5888    1.6419  -60.0820 H   0  0  0  0  0  0  0  0  0  0  0  0
   10.3777    1.9084  -60.1061 H   0  0  0  0  0  0  0  0  0  0  0  0
   11.4664    3.3545  -58.4182 H   0  0  0  0  0  0  0  0  0  0  0  0
   10.4752    4.1822  -57.1576 H   0  0  0  0  0  0  0  0  0  0  0  0
   11.2023   -2.3983  -57.7498 H   0  0  0  0  0  0  0  0  0  0  0  0
   12.5329   -4.4034  -58.3887 H   0  0  0  0  0  0  0  0  0  0  0  0
   13.1741   -6.0813  -56.6572 H   0  0  0  0  0  0  0  0  0  0  0  0
   12.4926   -5.7348  -54.2853 H   0  0  0  0  0  0  0  0  0  0  0  0
   11.1609   -3.7325  -53.6360 H   0  0  0  0  0  0  0  0  0  0  0  0
    7.4191   -3.3221  -54.6397 H   0  0  0  0  0  0  0  0  0  0  0  0
    6.5971   -4.9032  -52.9329 H   0  0  0  0  0  0  0  0  0  0  0  0
    9.3345   -3.4478  -50.0985 H   0  0  0  0  0  0  0  0  0  0  0  0
   10.2468   -1.8215  -51.7152 H   0  0  0  0  0  0  0  0  0  0  0  0
  1  2  1  0
  2  3  1  0
  3  4  1  0
  4  5  2  0
  4  6  1  0
  7  6  1  1
  7  8  1  0
  8  9  1  0
  9 10  1  0
 10 11  1  0
 11 12  1  0
 12 13  1  0
 13 14  1  0
 13 15  1  0
 11 16  1  0
  3 17  2  0
 17 18  1  0
 18 19  1  0
 19 20  2  0
 20 21  1  0
 21 22  2  0
 22 23  1  0
 23 24  2  0
 18 25  1  0
 25 26  1  0
 26 27  2  0
 27 28  1  0
 28 29  2  0
 29 30  1  0
 30 31  2  0
 25  2  2  0
 31 26  1  0
 15  7  1  0
 24 19  1  0
 16  7  1  0
 14  9  1  0
  1 32  1  0
  1 33  1  0
  1 34  1  0
  6 35  1  0
  8 36  1  0
  8 37  1  0
  9 38  1  1
 10 39  1  0
 10 40  1  0
 11 41  1  6
 12 42  1  0
 12 43  1  0
 13 44  1  6
 14 45  1  0
 14 46  1  0
 15 47  1  0
 15 48  1  0
 16 49  1  0
 16 50  1  0
 20 51  1  0
 21 52  1  0
 22 53  1  0
 23 54  1  0
 24 55  1  0
 27 56  1  0
 28 57  1  0
 30 58  1  0
 31 59  1  0
M  END
>  <meeko>  (25) 
{"is_sidechain": false}

$$$$

     RDKit          3D

 62 67  0  0  0  0  0  0  0  0999 V2000
    6.7260    0.0590  -53.4280 C   0  0  0  0  0  0  0  0  0  0  0  0
    7.9580   -0.6230  -53.9240 C   0  0  0  0  0  0  0  0  0  0  0  0
    8.8380   -0.1750  -54.9740 C   0  0  0  0  0  0  0  0  0  0  0  0
    8.7710    0.9910  -55.8560 C   0  0  0  0  0  0  0  0  0  0  0  0
    7.7390    1.6400  -56.0000 O   0  0  0  0  0  0  0  0  0  0  0  0
    9.9570    1.3210  -56.4540 N   0  0  0  0  0  0  0  0  0  0  0  0
   10.1630    2.4530  -57.3170 C   0  0  1  0  0  0  0  0  0  0  0  0
   11.6560    2.8330  -57.4160 C   0  0  0  0  0  0  0  0  0  0  0  0
   11.9500    3.6430  -58.6890 C   0  0  0  0  0  0  0  0  0  0  0  0
   10.7420    4.4990  -59.1150 C   0  0  2  0  0  0  0  0  0  0  0  0
   11.1020    5.3460  -60.3370 C   0  0  0  0  0  0  0  0  0  0  0  0
   10.3230    5.3980  -57.9230 C   0  0  0  0  0  0  0  0  0  0  0  0
    9.0990    4.6820  -57.3650 C   0  0  1  0  0  0  0  0  0  0  0  0
    8.3510    4.3310  -58.6400 C   0  0  0  0  0  0  0  0  0  0  0  0
    9.4700    3.6120  -59.3960 C   0  0  2  0  0  0  0  0  0  0  0  0
    9.5900    2.2370  -58.7270 C   0  0  0  0  0  0  0  0  0  0  0  0
    9.4420    3.4980  -56.6280 O   0  0  0  0  0  0  0  0  0  0  0  0
    9.8790   -1.0850  -55.0150 C   0  0  0  0  0  0  0  0  0  0  0  0
    9.6490   -2.0750  -54.0980 N   0  0  0  0  0  0  0  0  0  0  0  0
   10.5480   -3.2090  -53.8920 C   0  0  0  0  0  0  0  0  0  0  0  0
   11.2840   -3.5710  -55.1480 C   0  0  0  0  0  0  0  0  0  0  0  0
   11.8580   -4.9530  -55.3410 C   0  0  0  0  0  0  0  0  0  0  0  0
   10.6610   -4.5200  -56.1400 C   0  0  0  0  0  0  0  0  0  0  0  0
    8.4780   -1.8140  -53.4190 C   0  0  0  0  0  0  0  0  0  0  0  0
    7.9470   -2.6710  -52.3610 C   0  0  0  0  0  0  0  0  0  0  0  0
    8.4170   -2.5480  -51.0490 C   0  0  0  0  0  0  0  0  0  0  0  0
    7.9050   -3.3650  -50.0400 C   0  0  0  0  0  0  0  0  0  0  0  0
    6.9190   -4.3050  -50.3380 C   0  0  0  0  0  0  0  0  0  0  0  0
    6.4400   -4.4270  -51.6410 C   0  0  0  0  0  0  0  0  0  0  0  0
    6.9510   -3.6100  -52.6520 C   0  0  0  0  0  0  0  0  0  0  0  0
    6.7249    0.0596  -52.3280 H   0  0  0  0  0  0  0  0  0  0  0  0
    6.7077    1.0957  -53.7953 H   0  0  0  0  0  0  0  0  0  0  0  0
    5.8377   -0.4758  -53.7953 H   0  0  0  0  0  0  0  0  0  0  0  0
   10.8020    0.8620  -56.1560 H   0  0  0  0  0  0  0  0  0  0  0  0
   11.9299    3.4361  -56.5378 H   0  0  0  0  0  0  0  0  0  0  0  0
   12.2456    1.9052  -57.4545 H   0  0  0  0  0  0  0  0  0  0  0  0
   12.8068    4.3061  -58.4990 H   0  0  0  0  0  0  0  0  0  0  0  0
   12.1703    2.9347  -59.5013 H   0  0  0  0  0  0  0  0  0  0  0  0
   11.5123    6.3114  -60.0060 H   0  0  0  0  0  0  0  0  0  0  0  0
   11.8528    4.8165  -60.9419 H   0  0  0  0  0  0  0  0  0  0  0  0
   10.1997    5.5191  -60.9419 H   0  0  0  0  0  0  0  0  0  0  0  0
   11.1238    5.4557  -57.1711 H   0  0  0  0  0  0  0  0  0  0  0  0
   10.1195    6.4385  -58.2162 H   0  0  0  0  0  0  0  0  0  0  0  0
    8.5287    5.2895  -56.6469 H   0  0  0  0  0  0  0  0  0  0  0  0
    7.4952    3.6681  -58.4449 H   0  0  0  0  0  0  0  0  0  0  0  0
    7.8996    5.1833  -59.1690 H   0  0  0  0  0  0  0  0  0  0  0  0
    9.3198    3.4790  -60.4776 H   0  0  0  0  0  0  0  0  0  0  0  0
    8.5988    1.7647  -58.6605 H   0  0  0  0  0  0  0  0  0  0  0  0
   10.2473    1.5786  -59.3138 H   0  0  0  0  0  0  0  0  0  0  0  0
   10.7534   -1.0229  -55.6795 H   0  0  0  0  0  0  0  0  0  0  0  0
   11.2796   -2.9467  -53.1135 H   0  0  0  0  0  0  0  0  0  0  0  0
    9.9419   -4.0754  -53.5888 H   0  0  0  0  0  0  0  0  0  0  0  0
   11.6935   -2.5509  -55.1882 H   0  0  0  0  0  0  0  0  0  0  0  0
   12.8325   -5.0795  -55.8353 H   0  0  0  0  0  0  0  0  0  0  0  0
   12.0844   -5.8004  -54.6772 H   0  0  0  0  0  0  0  0  0  0  0  0
   10.7599   -4.3301  -57.2190 H   0  0  0  0  0  0  0  0  0  0  0  0
    9.6493   -4.9201  -56.3025 H   0  0  0  0  0  0  0  0  0  0  0  0
    9.1926   -1.8049  -50.8120 H   0  0  0  0  0  0  0  0  0  0  0  0
    8.2790   -3.2675  -49.0102 H   0  0  0  0  0  0  0  0  0  0  0  0
    6.5186   -4.9514  -49.5431 H   0  0  0  0  0  0  0  0  0  0  0  0
    5.6596   -5.1666  -51.8732 H   0  0  0  0  0  0  0  0  0  0  0  0
    6.5697   -3.7049  -53.6794 H   0  0  0  0  0  0  0  0  0  0  0  0
  1  2  1  0
  2  3  1  0
  3  4  1  0
  4  5  2  0
  4  6  1  0
  7  6  1  1
  7  8  1  0
  8  9  1  0
  9 10  1  0
 10 11  1  6
 10 12  1  0
 12 13  1  0
 13 14  1  0
 14 15  1  0
 15 16  1  0
 13 17  1  0
  3 18  2  0
 18 19  1  0
 19 20  1  0
 20 21  1  0
 21 22  1  0
 22 23  1  0
 19 24  1  0
 24 25  1  0
 25 26  2  0
 26 27  1  0
 27 28  2  0
 28 29  1  0
 29 30  2  0
 24  2  2  0
 30 25  1  0
 16  7  1  0
 23 21  1  0
 17  7  1  0
 15 10  1  0
  1 31  1  0
  1 32  1  0
  1 33  1  0
  6 34  1  0
  8 35  1  0
  8 36  1  0
  9 37  1  0
  9 38  1  0
 11 39  1  0
 11 40  1  0
 11 41  1  0
 12 42  1  0
 12 43  1  0
 13 44  1  1
 14 45  1  0
 14 46  1  0
 15 47  1  6
 16 48  1  0
 16 49  1  0
 18 50  1  0
 20 51  1  0
 20 52  1  0
 21 53  1  0
 22 54  1  0
 22 55  1  0
 23 56  1  0
 23 57  1  0
 26 58  1  0
 27 59  1  0
 28 60  1  0
 29 61  1  0
 30 62  1  0
M  END
>  <meeko>  (26) 
{"is_sidechain": false}

$$$$

     RDKit          3D

 69 73  0  0  0  0  0  0  0  0999 V2000
    7.3280   -0.0150  -53.4970 C   0  0  0  0  0  0  0  0  0  0  0  0
    8.5080   -0.7860  -53.9980 C   0  0  0  0  0  0  0  0  0  0  0  0
    9.3860   -0.3710  -55.0580 C   0  0  0  0  0  0  0  0  0  0  0  0
    9.3100    0.8870  -55.8030 C   0  0  0  0  0  0  0  0  0  0  0  0
    8.2450    1.4280  -56.0620 O   0  0  0  0  0  0  0  0  0  0  0  0
   10.5270    1.3860  -56.2460 N   0  0  0  0  0  0  0  0  0  0  0  0
   10.5450    2.4620  -57.2080 C   0  0  1  0  0  0  0  0  0  0  0  0
   11.9760    2.9520  -57.5140 C   0  0  0  0  0  0  0  0  0  0  0  0
   12.0620    3.7090  -58.8480 C   0  0  0  0  0  0  0  0  0  0  0  0
   10.7620    4.4660  -59.1780 C   0  0  2  0  0  0  0  0  0  0  0  0
   10.9320    5.2400  -60.4900 C   0  0  0  0  0  0  0  0  0  0  0  0
   10.4230    5.4340  -58.0140 C   0  0  0  0  0  0  0  0  0  0  0  0
    9.2770    4.7400  -57.2960 C   0  0  1  0  0  0  0  0  0  0  0  0
    8.4440    4.2210  -58.4520 C   0  0  0  0  0  0  0  0  0  0  0  0
    9.5240    3.4970  -59.2570 C   0  0  2  0  0  0  0  0  0  0  0  0
    9.7950    2.1720  -58.5240 C   0  0  0  0  0  0  0  0  0  0  0  0
    9.7910    3.5620  -56.4970 N   0  0  0  0  0  0  0  0  0  0  0  0
   10.3240   -1.3800  -55.2030 C   0  0  0  0  0  0  0  0  0  0  0  0
   10.0750   -2.3530  -54.2610 N   0  0  0  0  0  0  0  0  0  0  0  0
   10.9180   -3.5300  -54.0630 C   0  0  0  0  0  0  0  0  0  0  0  0
   10.8460   -4.5340  -55.2260 C   0  0  0  0  0  0  0  0  0  0  0  0
   12.0290   -4.4370  -56.1830 N   0  0  0  0  0  0  0  0  0  0  0  0
   11.5860   -4.0720  -57.5780 C   0  0  0  0  0  0  0  0  0  0  0  0
   12.9030   -5.6620  -56.2050 C   0  0  0  0  0  0  0  0  0  0  0  0
    8.9430   -2.0270  -53.5420 C   0  0  0  0  0  0  0  0  0  0  0  0
    8.3830   -2.8470  -52.4700 C   0  0  0  0  0  0  0  0  0  0  0  0
    7.3840   -3.7880  -52.7580 C   0  0  0  0  0  0  0  0  0  0  0  0
    6.8140   -4.5440  -51.7340 C   0  0  0  0  0  0  0  0  0  0  0  0
    7.2420   -4.3720  -50.4180 C   0  0  0  0  0  0  0  0  0  0  0  0
    8.2510   -3.4550  -50.1270 C   0  0  0  0  0  0  0  0  0  0  0  0
    8.8250   -2.6990  -51.1500 C   0  0  0  0  0  0  0  0  0  0  0  0
    7.3295   -0.0160  -52.3970 H   0  0  0  0  0  0  0  0  0  0  0  0
    7.3847    1.0208  -53.8628 H   0  0  0  0  0  0  0  0  0  0  0  0
    6.4021   -0.4829  -53.8628 H   0  0  0  0  0  0  0  0  0  0  0  0
   11.2350    0.6640  -56.2920 H   0  0  0  0  0  0  0  0  0  0  0  0
   12.3003    3.6233  -56.7051 H   0  0  0  0  0  0  0  0  0  0  0  0
   12.6254    2.0672  -57.5875 H   0  0  0  0  0  0  0  0  0  0  0  0
   12.8878    4.4334  -58.7906 H   0  0  0  0  0  0  0  0  0  0  0  0
   12.2303    2.9684  -59.6438 H   0  0  0  0  0  0  0  0  0  0  0  0
   11.1631    6.2922  -60.2677 H   0  0  0  0  0  0  0  0  0  0  0  0
   11.7547    4.7990  -61.0720 H   0  0  0  0  0  0  0  0  0  0  0  0
   10.0002    5.1843  -61.0720 H   0  0  0  0  0  0  0  0  0  0  0  0
   11.2865    5.5613  -57.3446 H   0  0  0  0  0  0  0  0  0  0  0  0
   10.1615    6.4448  -58.3604 H   0  0  0  0  0  0  0  0  0  0  0  0
    8.7386    5.3969  -56.5969 H   0  0  0  0  0  0  0  0  0  0  0  0
    7.6582    3.5309  -58.1109 H   0  0  0  0  0  0  0  0  0  0  0  0
    7.8928    4.9936  -59.0081 H   0  0  0  0  0  0  0  0  0  0  0  0
    9.2693    3.2709  -60.3029 H   0  0  0  0  0  0  0  0  0  0  0  0
    8.8402    1.6736  -58.3007 H   0  0  0  0  0  0  0  0  0  0  0  0
   10.4078    1.5171  -59.1609 H   0  0  0  0  0  0  0  0  0  0  0  0
    8.9770    3.1050  -56.0720 H   0  0  0  0  0  0  0  0  0  0  0  0
   10.3610    3.9230  -55.7250 H   0  0  0  0  0  0  0  0  0  0  0  0
   11.1336   -1.4005  -55.9474 H   0  0  0  0  0  0  0  0  0  0  0  0
   11.9608   -3.1978  -53.9529 H   0  0  0  0  0  0  0  0  0  0  0  0
   10.5498   -4.0464  -53.1642 H   0  0  0  0  0  0  0  0  0  0  0  0
   10.8183   -5.5510  -54.8077 H   0  0  0  0  0  0  0  0  0  0  0  0
    9.9403   -4.2976  -55.8038 H   0  0  0  0  0  0  0  0  0  0  0  0
   12.6280   -3.6530  -55.8820 H   0  0  0  0  0  0  0  0  0  0  0  0
   10.7381   -3.3734  -57.5225 H   0  0  0  0  0  0  0  0  0  0  0  0
   12.4195   -3.5950  -58.1144 H   0  0  0  0  0  0  0  0  0  0  0  0
   11.2773   -4.9814  -58.1144 H   0  0  0  0  0  0  0  0  0  0  0  0
   13.1247   -5.9728  -55.1734 H   0  0  0  0  0  0  0  0  0  0  0  0
   12.3804   -6.4759  -56.7289 H   0  0  0  0  0  0  0  0  0  0  0  0
   13.8427   -5.4326  -56.7289 H   0  0  0  0  0  0  0  0  0  0  0  0
    7.0485   -3.9305  -53.7959 H   0  0  0  0  0  0  0  0  0  0  0  0
    6.0263   -5.2764  -51.9646 H   0  0  0  0  0  0  0  0  0  0  0  0
    6.7834   -4.9600  -49.6093 H   0  0  0  0  0  0  0  0  0  0  0  0
    8.5950   -3.3272  -49.0900 H   0  0  0  0  0  0  0  0  0  0  0  0
    9.6280   -1.9839  -50.9182 H   0  0  0  0  0  0  0  0  0  0  0  0
  1  2  1  0
  2  3  1  0
  3  4  1  0
  4  5  2  0
  4  6  1  0
  7  6  1  1
  7  8  1  0
  8  9  1  0
  9 10  1  0
 10 11  1  6
 10 12  1  0
 12 13  1  0
 13 14  1  0
 14 15  1  0
 15 16  1  0
 13 17  1  0
  3 18  2  0
 18 19  1  0
 19 20  1  0
 20 21  1  0
 21 22  1  0
 22 23  1  0
 22 24  1  0
 19 25  1  0
 25 26  1  0
 26 27  2  0
 27 28  1  0
 28 29  2  0
 29 30  1  0
 30 31  2  0
 25  2  2  0
 31 26  1  0
 16  7  1  0
 17  7  1  0
 15 10  1  0
  1 32  1  0
  1 33  1  0
  1 34  1  0
  6 35  1  0
  8 36  1  0
  8 37  1  0
  9 38  1  0
  9 39  1  0
 11 40  1  0
 11 41  1  0
 11 42  1  0
 12 43  1  0
 12 44  1  0
 13 45  1  1
 14 46  1  0
 14 47  1  0
 15 48  1  6
 16 49  1  0
 16 50  1  0
 17 51  1  0
 17 52  1  0
 18 53  1  0
 20 54  1  0
 20 55  1  0
 21 56  1  0
 21 57  1  0
 22 58  1  0
 23 59  1  0
 23 60  1  0
 23 61  1  0
 24 62  1  0
 24 63  1  0
 24 64  1  0
 27 65  1  0
 28 66  1  0
 29 67  1  0
 30 68  1  0
 31 69  1  0
M  CHG  2  17   1  22   1
M  END
>  <meeko>  (27) 
{"is_sidechain": false}

$$$$

     RDKit          3D

 67 72  0  0  0  0  0  0  0  0999 V2000
    6.0730   -0.1220  -53.7020 C   0  0  0  0  0  0  0  0  0  0  0  0
    7.4530   -0.5540  -54.0770 C   0  0  0  0  0  0  0  0  0  0  0  0
    8.2770    0.0510  -55.0870 C   0  0  0  0  0  0  0  0  0  0  0  0
    7.9210    1.1690  -55.9530 C   0  0  0  0  0  0  0  0  0  0  0  0
    6.8540    1.7790  -55.8890 O   0  0  0  0  0  0  0  0  0  0  0  0
    8.8500    1.5220  -56.9170 N   0  0  0  0  0  0  0  0  0  0  0  0
    8.7530    2.7760  -57.6090 C   0  0  1  0  0  0  0  0  0  0  0  0
    7.4800    2.8670  -58.4770 C   0  0  0  0  0  0  0  0  0  0  0  0
    7.0510    4.3170  -58.7440 C   0  0  0  0  0  0  0  0  0  0  0  0
    8.2500    5.2800  -58.7790 C   0  0  2  0  0  0  0  0  0  0  0  0
    7.7690    6.7000  -59.0980 C   0  0  0  0  0  0  0  0  0  0  0  0
    9.2680    4.7950  -59.8480 C   0  0  0  0  0  0  0  0  0  0  0  0
   10.3950    4.1870  -59.0250 C   0  0  1  0  0  0  0  0  0  0  0  0
   10.5140    5.1810  -57.8810 C   0  0  0  0  0  0  0  0  0  0  0  0
    9.0520    5.2520  -57.4250 C   0  0  2  0  0  0  0  0  0  0  0  0
    8.7790    3.9600  -56.6300 C   0  0  0  0  0  0  0  0  0  0  0  0
    9.9780    2.8650  -58.4580 N   0  0  0  0  0  0  0  0  0  0  0  0
    9.4720   -0.6470  -55.0740 C   0  0  0  0  0  0  0  0  0  0  0  0
    9.3830   -1.6810  -54.1650 N   0  0  0  0  0  0  0  0  0  0  0  0
   10.4610   -2.6430  -53.9190 C   0  0  0  0  0  0  0  0  0  0  0  0
   10.9460   -3.3310  -55.1760 C   0  0  0  0  0  0  0  0  0  0  0  0
   10.6990   -4.7090  -55.3270 C   0  0  0  0  0  0  0  0  0  0  0  0
   11.1070   -5.3950  -56.4730 C   0  0  0  0  0  0  0  0  0  0  0  0
   11.7800   -4.7130  -57.4810 C   0  0  0  0  0  0  0  0  0  0  0  0
   12.2810   -5.5520  -58.8960 Cl  0  0  0  0  0  0  0  0  0  0  0  0
   12.0550   -3.3550  -57.3480 C   0  0  0  0  0  0  0  0  0  0  0  0
   11.6440   -2.6690  -56.2010 C   0  0  0  0  0  0  0  0  0  0  0  0
   12.0660   -0.9960  -56.0980 Cl  0  0  0  0  0  0  0  0  0  0  0  0
    8.1710   -1.6040  -53.5090 C   0  0  0  0  0  0  0  0  0  0  0  0
    7.7600   -2.5100  -52.4380 C   0  0  0  0  0  0  0  0  0  0  0  0
    8.1540   -2.2690  -51.1170 C   0  0  0  0  0  0  0  0  0  0  0  0
    7.7570   -3.1360  -50.0970 C   0  0  0  0  0  0  0  0  0  0  0  0
    6.9600   -4.2420  -50.3910 C   0  0  0  0  0  0  0  0  0  0  0  0
    6.5540   -4.4810  -51.7030 C   0  0  0  0  0  0  0  0  0  0  0  0
    6.9490   -3.6140  -52.7240 C   0  0  0  0  0  0  0  0  0  0  0  0
    5.9827   -0.0937  -52.6061 H   0  0  0  0  0  0  0  0  0  0  0  0
    5.8784    0.8801  -54.1119 H   0  0  0  0  0  0  0  0  0  0  0  0
    5.3417   -0.8342  -54.1119 H   0  0  0  0  0  0  0  0  0  0  0  0
    9.7800    1.1490  -56.7740 H   0  0  0  0  0  0  0  0  0  0  0  0
    7.6745    2.3738  -59.4408 H   0  0  0  0  0  0  0  0  0  0  0  0
    6.6651    2.3739  -57.9267 H   0  0  0  0  0  0  0  0  0  0  0  0
    6.5331    4.3605  -59.7135 H   0  0  0  0  0  0  0  0  0  0  0  0
    6.3897    4.6304  -57.9228 H   0  0  0  0  0  0  0  0  0  0  0  0
    7.5847    7.2441  -58.1599 H   0  0  0  0  0  0  0  0  0  0  0  0
    8.5392    7.2256  -59.6815 H   0  0  0  0  0  0  0  0  0  0  0  0
    6.8379    6.6493  -59.6815 H   0  0  0  0  0  0  0  0  0  0  0  0
    8.8140    4.0414  -60.5083 H   0  0  0  0  0  0  0  0  0  0  0  0
    9.6117    5.6056  -60.5075 H   0  0  0  0  0  0  0  0  0  0  0  0
   11.3158    4.0200  -59.6031 H   0  0  0  0  0  0  0  0  0  0  0  0
   11.1713    4.8058  -57.0828 H   0  0  0  0  0  0  0  0  0  0  0  0
   10.9573    6.1491  -58.1571 H   0  0  0  0  0  0  0  0  0  0  0  0
    8.7877    6.1101  -56.7895 H   0  0  0  0  0  0  0  0  0  0  0  0
    9.5749    3.8079  -55.8861 H   0  0  0  0  0  0  0  0  0  0  0  0
    7.8132    4.0372  -56.1091 H   0  0  0  0  0  0  0  0  0  0  0  0
   10.7430    2.4860  -57.8880 H   0  0  0  0  0  0  0  0  0  0  0  0
    9.8710    2.1450  -59.1970 H   0  0  0  0  0  0  0  0  0  0  0  0
   10.3528   -0.4143  -55.6905 H   0  0  0  0  0  0  0  0  0  0  0  0
   11.3083   -2.1093  -53.4637 H   0  0  0  0  0  0  0  0  0  0  0  0
   10.0578   -3.4222  -53.2554 H   0  0  0  0  0  0  0  0  0  0  0  0
   10.1755   -5.2548  -54.5282 H   0  0  0  0  0  0  0  0  0  0  0  0
   10.8970   -6.4697  -56.5779 H   0  0  0  0  0  0  0  0  0  0  0  0
   12.5951   -2.8220  -58.1444 H   0  0  0  0  0  0  0  0  0  0  0  0
    8.7781   -1.3943  -50.8816 H   0  0  0  0  0  0  0  0  0  0  0  0
    8.0732   -2.9465  -49.0606 H   0  0  0  0  0  0  0  0  0  0  0  0
    6.6515   -4.9263  -49.5870 H   0  0  0  0  0  0  0  0  0  0  0  0
    5.9229   -5.3519  -51.9339 H   0  0  0  0  0  0  0  0  0  0  0  0
    6.6212   -3.7997  -53.7575 H   0  0  0  0  0  0  0  0  0  0  0  0
  1  2  1  0
  2  3  1  0
  3  4  1  0
  4  5  2  0
  4  6  1  0
  7  6  1  1
  7  8  1  0
  8  9  1  0
  9 10  1  0
 10 11  1  6
 10 12  1  0
 12 13  1  0
 13 14  1  0
 14 15  1  0
 15 16  1  0
 13 17  1  0
  3 18  2  0
 18 19  1  0
 19 20  1  0
 20 21  1  0
 21 22  1  0
 22 23  2  0
 23 24  1  0
 24 25  1  0
 24 26  2  0
 26 27  1  0
 27 28  1  0
 19 29  1  0
 29 30  1  0
 30 31  2  0
 31 32  1  0
 32 33  2  0
 33 34  1  0
 34 35  2  0
 29  2  2  0
 35 30  1  0
 16  7  1  0
 27 21  2  0
 17  7  1  0
 15 10  1  0
  1 36  1  0
  1 37  1  0
  1 38  1  0
  6 39  1  0
  8 40  1  0
  8 41  1  0
  9 42  1  0
  9 43  1  0
 11 44  1  0
 11 45  1  0
 11 46  1  0
 12 47  1  0
 12 48  1  0
 13 49  1  6
 14 50  1  0
 14 51  1  0
 15 52  1  1
 16 53  1  0
 16 54  1  0
 17 55  1  0
 17 56  1  0
 18 57  1  0
 20 58  1  0
 20 59  1  0
 22 60  1  0
 23 61  1  0
 26 62  1  0
 31 63  1  0
 32 64  1  0
 33 65  1  0
 34 66  1  0
 35 67  1  0
M  CHG  1  17   1
M  END
>  <meeko>  (28) 
{"is_sidechain": false}

$$$$

     RDKit          3D

 77 82  0  0  0  0  0  0  0  0999 V2000
    6.2720    0.1780  -54.7000 C   0  0  0  0  0  0  0  0  0  0  0  0
    7.7270   -0.1620  -54.6380 C   0  0  0  0  0  0  0  0  0  0  0  0
    8.7840    0.5170  -55.3410 C   0  0  0  0  0  0  0  0  0  0  0  0
    8.7500    1.6670  -56.2510 C   0  0  0  0  0  0  0  0  0  0  0  0
    7.6980    2.0150  -56.7720 O   0  0  0  0  0  0  0  0  0  0  0  0
    9.9570    2.3040  -56.4000 N   0  0  0  0  0  0  0  0  0  0  0  0
   10.2720    3.1820  -57.5110 C   0  0  1  0  0  0  0  0  0  0  0  0
    9.6060    4.5720  -57.4100 C   0  0  0  0  0  0  0  0  0  0  0  0
   10.3830    5.6520  -58.1800 C   0  0  0  0  0  0  0  0  0  0  0  0
   11.1220    5.0620  -59.3920 C   0  0  2  0  0  0  0  0  0  0  0  0
   11.8180    6.1740  -60.1790 C   0  0  0  0  0  0  0  0  0  0  0  0
   10.1020    4.3080  -60.2850 C   0  0  0  0  0  0  0  0  0  0  0  0
   10.3630    2.8450  -59.9510 C   0  0  1  0  0  0  0  0  0  0  0  0
   11.8830    2.8090  -59.9320 C   0  0  0  0  0  0  0  0  0  0  0  0
   12.1480    3.9530  -58.9530 C   0  0  2  0  0  0  0  0  0  0  0  0
   11.7990    3.3920  -57.5660 C   0  0  0  0  0  0  0  0  0  0  0  0
    9.8290    2.4580  -58.6740 O   0  0  0  0  0  0  0  0  0  0  0  0
    9.9640   -0.0850  -54.9470 C   0  0  0  0  0  0  0  0  0  0  0  0
    9.6770   -1.0970  -54.0820 N   0  0  0  0  0  0  0  0  0  0  0  0
   10.7000   -1.9160  -53.4530 C   0  0  0  0  0  0  0  0  0  0  0  0
   11.3730   -2.8590  -54.4520 C   0  0  0  0  0  0  0  0  0  0  0  0
   10.4100   -3.9340  -54.9460 C   0  0  0  0  0  0  0  0  0  0  0  0
   10.8230   -4.4380  -56.3450 N   0  0  0  0  0  0  0  0  0  0  0  0
   11.7960   -5.6180  -56.2490 C   0  0  0  0  0  0  0  0  0  0  0  0
   12.1640   -6.1940  -57.6410 C   0  0  0  0  0  0  0  0  0  0  0  0
   12.0710   -5.1700  -58.7460 N   0  0  0  0  0  0  0  0  0  0  0  0
   12.3470   -3.7590  -58.3180 C   0  0  0  0  0  0  0  0  0  0  0  0
   11.3820   -3.2870  -57.1980 C   0  0  0  0  0  0  0  0  0  0  0  0
    8.3160   -1.1600  -53.8590 C   0  0  0  0  0  0  0  0  0  0  0  0
    7.6950   -2.0760  -52.9050 C   0  0  0  0  0  0  0  0  0  0  0  0
    7.0090   -3.2050  -53.3720 C   0  0  0  0  0  0  0  0  0  0  0  0
    6.3800   -4.0680  -52.4740 C   0  0  0  0  0  0  0  0  0  0  0  0
    6.4200   -3.7880  -51.1090 C   0  0  0  0  0  0  0  0  0  0  0  0
    5.4980   -4.7520  -50.0260 Cl  0  0  0  0  0  0  0  0  0  0  0  0
    7.1220   -2.6860  -50.6280 C   0  0  0  0  0  0  0  0  0  0  0  0
    7.7710   -1.8380  -51.5270 C   0  0  0  0  0  0  0  0  0  0  0  0
    5.8734    0.2711  -53.6790 H   0  0  0  0  0  0  0  0  0  0  0  0
    6.1406    1.1311  -55.2333 H   0  0  0  0  0  0  0  0  0  0  0  0
    5.7318   -0.6181  -55.2333 H   0  0  0  0  0  0  0  0  0  0  0  0
   10.7520    1.8610  -55.9720 H   0  0  0  0  0  0  0  0  0  0  0  0
    8.5885    4.5069  -57.8229 H   0  0  0  0  0  0  0  0  0  0  0  0
    9.5929    4.8610  -56.3487 H   0  0  0  0  0  0  0  0  0  0  0  0
    9.6762    6.4182  -58.5312 H   0  0  0  0  0  0  0  0  0  0  0  0
   11.1300    6.0884  -57.5007 H   0  0  0  0  0  0  0  0  0  0  0  0
   12.2679    6.8928  -59.4783 H   0  0  0  0  0  0  0  0  0  0  0  0
   12.6046    5.7379  -60.8123 H   0  0  0  0  0  0  0  0  0  0  0  0
   11.0820    6.6909  -60.8123 H   0  0  0  0  0  0  0  0  0  0  0  0
    9.0700    4.5925  -60.0319 H   0  0  0  0  0  0  0  0  0  0  0  0
   10.2161    4.5334  -61.3556 H   0  0  0  0  0  0  0  0  0  0  0  0
    9.8880    2.1508  -60.6599 H   0  0  0  0  0  0  0  0  0  0  0  0
   12.2664    1.8492  -59.5556 H   0  0  0  0  0  0  0  0  0  0  0  0
   12.3669    2.9109  -60.9146 H   0  0  0  0  0  0  0  0  0  0  0  0
   13.1734    4.3510  -58.9369 H   0  0  0  0  0  0  0  0  0  0  0  0
   12.3142    2.4327  -57.4102 H   0  0  0  0  0  0  0  0  0  0  0  0
   12.1187    4.0901  -56.7784 H   0  0  0  0  0  0  0  0  0  0  0  0
   10.9717    0.2061  -55.2784 H   0  0  0  0  0  0  0  0  0  0  0  0
   11.4645   -1.2564  -53.0167 H   0  0  0  0  0  0  0  0  0  0  0  0
   10.2158   -2.5298  -52.6792 H   0  0  0  0  0  0  0  0  0  0  0  0
   11.7265   -2.2733  -55.3134 H   0  0  0  0  0  0  0  0  0  0  0  0
   12.2124   -3.3562  -53.9439 H   0  0  0  0  0  0  0  0  0  0  0  0
   10.4195   -4.7784  -54.2411 H   0  0  0  0  0  0  0  0  0  0  0  0
    9.4009   -3.5009  -55.0107 H   0  0  0  0  0  0  0  0  0  0  0  0
    9.9560   -4.7720  -56.7970 H   0  0  0  0  0  0  0  0  0  0  0  0
   12.7167   -5.2775  -55.7527 H   0  0  0  0  0  0  0  0  0  0  0  0
   11.3011   -6.4157  -55.6756 H   0  0  0  0  0  0  0  0  0  0  0  0
   13.1954   -6.5745  -57.6015 H   0  0  0  0  0  0  0  0  0  0  0  0
   11.4409   -6.9910  -57.8691 H   0  0  0  0  0  0  0  0  0  0  0  0
   11.1630   -5.2350  -59.2360 H   0  0  0  0  0  0  0  0  0  0  0  0
   12.7460   -5.4300  -59.4880 H   0  0  0  0  0  0  0  0  0  0  0  0
   13.3799   -3.6976  -57.9448 H   0  0  0  0  0  0  0  0  0  0  0  0
   12.1972   -3.1059  -59.1904 H   0  0  0  0  0  0  0  0  0  0  0  0
   11.9266   -2.5965  -56.5372 H   0  0  0  0  0  0  0  0  0  0  0  0
   10.5255   -2.8040  -57.6910 H   0  0  0  0  0  0  0  0  0  0  0  0
    6.9661   -3.4119  -54.4515 H   0  0  0  0  0  0  0  0  0  0  0  0
    5.8562   -4.9631  -52.8406 H   0  0  0  0  0  0  0  0  0  0  0  0
    7.1649   -2.4851  -49.5474 H   0  0  0  0  0  0  0  0  0  0  0  0
    8.3451   -0.9783  -51.1511 H   0  0  0  0  0  0  0  0  0  0  0  0
  1  2  1  0
  2  3  1  0
  3  4  1  0
  4  5  2  0
  4  6  1  0
  7  6  1  1
  7  8  1  0
  8  9  1  0
  9 10  1  0
 10 11  1  6
 10 12  1  0
 12 13  1  0
 13 14  1  0
 14 15  1  0
 15 16  1  0
 13 17  1  0
  3 18  2  0
 18 19  1  0
 19 20  1  0
 20 21  1  0
 21 22  1  0
 22 23  1  0
 23 24  1  0
 24 25  1  0
 25 26  1  0
 26 27  1  0
 27 28  1  0
 19 29  1  0
 29 30  1  0
 30 31  1  0
 31 32  2  0
 32 33  1  0
 33 34  1  0
 33 35  2  0
 35 36  1  0
 29  2  2  0
 36 30  2  0
 16  7  1  0
 28 23  1  0
 17  7  1  0
 15 10  1  0
  1 37  1  0
  1 38  1  0
  1 39  1  0
  6 40  1  0
  8 41  1  0
  8 42  1  0
  9 43  1  0
  9 44  1  0
 11 45  1  0
 11 46  1  0
 11 47  1  0
 12 48  1  0
 12 49  1  0
 13 50  1  6
 14 51  1  0
 14 52  1  0
 15 53  1  1
 16 54  1  0
 16 55  1  0
 18 56  1  0
 20 57  1  0
 20 58  1  0
 21 59  1  0
 21 60  1  0
 22 61  1  0
 22 62  1  0
 23 63  1  0
 24 64  1  0
 24 65  1  0
 25 66  1  0
 25 67  1  0
 26 68  1  0
 26 69  1  0
 27 70  1  0
 27 71  1  0
 28 72  1  0
 28 73  1  0
 31 74  1  0
 32 75  1  0
 35 76  1  0
 36 77  1  0
M  CHG  2  23   1  26   1
M  END
>  <meeko>  (29) 
{"is_sidechain": false}

$$$$

     RDKit          3D

 39 42  0  0  0  0  0  0  0  0999 V2000
   11.4450    5.5340  -59.9690 C   0  0  0  0  0  0  0  0  0  0  0  0
   10.3030    4.5320  -59.7400 C   0  0  2  0  0  0  0  0  0  0  0  0
   10.0040    3.7980  -61.0590 C   0  0  0  0  0  0  0  0  0  0  0  0
    8.8730    2.7680  -60.9410 C   0  0  0  0  0  0  0  0  0  0  0  0
    7.7860    3.1810  -59.9280 C   0  0  2  0  0  0  0  0  0  0  0  0
    6.4960    2.6080  -60.2520 N   0  0  0  0  0  0  0  0  0  0  0  0
    5.9560    2.5490  -61.5120 C   0  0  0  0  0  0  0  0  0  0  0  0
    6.5240    2.9950  -62.5050 O   0  0  0  0  0  0  0  0  0  0  0  0
    4.6420    1.9100  -61.5890 C   0  0  0  0  0  0  0  0  0  0  0  0
    4.0250    1.1730  -62.6470 C   0  0  0  0  0  0  0  0  0  0  0  0
    2.7760    0.7780  -62.2230 C   0  0  0  0  0  0  0  0  0  0  0  0
    2.5970    1.2410  -60.9480 N   0  0  0  0  0  0  0  0  0  0  0  0
    3.7160    1.9240  -60.5570 C   0  0  0  0  0  0  0  0  0  0  0  0
    7.7330    4.7100  -59.7790 C   0  0  0  0  0  0  0  0  0  0  0  0
    9.0370    5.2630  -59.1810 C   0  0  1  0  0  0  0  0  0  0  0  0
    9.0630    4.9440  -57.6830 C   0  0  0  0  0  0  0  0  0  0  0  0
    9.5120    3.4920  -57.6740 C   0  0  2  0  0  0  0  0  0  0  0  0
   10.6990    3.5190  -58.6330 C   0  0  0  0  0  0  0  0  0  0  0  0
    8.1630    2.4040  -58.2730 S   0  0  0  0  0  0  0  0  0  0  0  0
   11.8337    5.8751  -58.9981 H   0  0  0  0  0  0  0  0  0  0  0  0
   12.2518    5.0470  -60.5364 H   0  0  0  0  0  0  0  0  0  0  0  0
   11.0671    6.3973  -60.5364 H   0  0  0  0  0  0  0  0  0  0  0  0
    9.7189    4.5435  -61.8159 H   0  0  0  0  0  0  0  0  0  0  0  0
   10.9152    3.2488  -61.3384 H   0  0  0  0  0  0  0  0  0  0  0  0
    8.4041    2.6474  -61.9287 H   0  0  0  0  0  0  0  0  0  0  0  0
    9.3189    1.8291  -60.5810 H   0  0  0  0  0  0  0  0  0  0  0  0
    5.9970    2.2090  -59.4730 H   0  0  0  0  0  0  0  0  0  0  0  0
    4.4707    0.9586  -63.6295 H   0  0  0  0  0  0  0  0  0  0  0  0
    2.0498    0.1931  -62.8066 H   0  0  0  0  0  0  0  0  0  0  0  0
    1.7700    1.1010  -60.3820 H   0  0  0  0  0  0  0  0  0  0  0  0
    3.8585    2.4075  -59.5793 H   0  0  0  0  0  0  0  0  0  0  0  0
    7.5749    5.1605  -60.7700 H   0  0  0  0  0  0  0  0  0  0  0  0
    6.9067    4.9621  -59.0981 H   0  0  0  0  0  0  0  0  0  0  0  0
    9.0601    6.3362  -59.4214 H   0  0  0  0  0  0  0  0  0  0  0  0
    9.7794    5.5867  -57.1504 H   0  0  0  0  0  0  0  0  0  0  0  0
    8.1004    5.1126  -57.1780 H   0  0  0  0  0  0  0  0  0  0  0  0
    9.7740    3.0994  -56.6804 H   0  0  0  0  0  0  0  0  0  0  0  0
   11.6086    3.8526  -58.1120 H   0  0  0  0  0  0  0  0  0  0  0  0
   10.9177    2.5230  -59.0455 H   0  0  0  0  0  0  0  0  0  0  0  0
  2  1  1  6
  2  3  1  0
  3  4  1  0
  4  5  1  0
  5  6  1  6
  6  7  1  0
  7  8  2  0
  7  9  1  0
  9 10  1  0
 10 11  2  0
 11 12  1  0
 12 13  1  0
  5 14  1  0
 14 15  1  0
 15 16  1  0
 16 17  1  0
 17 18  1  0
 17 19  1  0
 15  2  1  0
 18  2  1  0
 19  5  1  0
 13  9  2  0
  1 20  1  0
  1 21  1  0
  1 22  1  0
  3 23  1  0
  3 24  1  0
  4 25  1  0
  4 26  1  0
  6 27  1  0
 10 28  1  0
 11 29  1  0
 12 30  1  0
 13 31  1  0
 14 32  1  0
 14 33  1  0
 15 34  1  1
 16 35  1  0
 16 36  1  0
 17 37  1  1
 18 38  1  0
 18 39  1  0
M  END
>  <meeko>  (30) 
{"is_sidechain": false}

$$$$

     RDKit          3D

 66 70  0  0  0  0  0  0  0  0999 V2000
   11.8640    6.1190  -60.0970 C   0  0  0  0  0  0  0  0  0  0  0  0
   10.8960    5.1520  -59.4110 C   0  0  2  0  0  0  0  0  0  0  0  0
   11.2940    4.9620  -57.9360 C   0  0  0  0  0  0  0  0  0  0  0  0
   10.3170    4.0350  -57.1960 C   0  0  0  0  0  0  0  0  0  0  0  0
    9.6550    2.9950  -58.1360 C   0  0  2  0  0  0  0  0  0  0  0  0
    9.1840    1.8910  -57.3200 N   0  0  0  0  0  0  0  0  0  0  0  0
    8.0080    1.9130  -56.6150 C   0  0  0  0  0  0  0  0  0  0  0  0
    7.1290    2.7600  -56.6920 O   0  0  0  0  0  0  0  0  0  0  0  0
    7.8560    0.8140  -55.6260 C   0  0  0  0  0  0  0  0  0  0  0  0
    6.7070    0.1660  -55.3960 C   0  0  0  0  0  0  0  0  0  0  0  0
    6.5690   -0.9390  -54.3450 C   0  0  0  0  0  0  0  0  0  0  0  0
    6.3120   -2.2560  -54.2220 C   0  0  0  0  0  0  0  0  0  0  0  0
    6.4480   -2.1310  -52.7800 N   0  0  0  0  0  0  0  0  0  0  0  0
    6.4470   -3.0830  -51.7150 C   0  0  0  0  0  0  0  0  0  0  0  0
    7.7460   -3.8890  -51.6270 C   0  0  0  0  0  0  0  0  0  0  0  0
    8.9930   -2.9960  -51.5990 C   0  0  0  0  0  0  0  0  0  0  0  0
    9.8350   -2.9940  -52.8900 C   0  0  0  0  0  0  0  0  0  0  0  0
    9.2210   -3.8240  -54.0220 C   0  0  0  0  0  0  0  0  0  0  0  0
   10.1870   -3.9750  -55.2000 C   0  0  0  0  0  0  0  0  0  0  0  0
   11.1370   -2.7870  -55.3690 C   0  0  0  0  0  0  0  0  0  0  0  0
   10.5210   -1.4920  -54.8600 C   0  0  0  0  0  0  0  0  0  0  0  0
   10.1680   -1.5680  -53.3720 C   0  0  0  0  0  0  0  0  0  0  0  0
    6.7450   -0.8220  -52.8850 C   0  0  0  0  0  0  0  0  0  0  0  0
    7.0440    0.0580  -52.1090 O   0  0  0  0  0  0  0  0  0  0  0  0
   10.7050    2.6010  -59.1920 C   0  0  0  0  0  0  0  0  0  0  0  0
   10.8360    3.7770  -60.1700 C   0  0  1  0  0  0  0  0  0  0  0  0
    9.4980    3.8290  -60.9130 C   0  0  0  0  0  0  0  0  0  0  0  0
    8.6310    4.4520  -59.8320 C   0  0  2  0  0  0  0  0  0  0  0  0
    9.4430    5.6920  -59.4730 C   0  0  0  0  0  0  0  0  0  0  0  0
    8.4700    3.5730  -58.7100 O   0  0  0  0  0  0  0  0  0  0  0  0
   12.4247    6.6792  -59.3342 H   0  0  0  0  0  0  0  0  0  0  0  0
   12.5662    5.5510  -60.7249 H   0  0  0  0  0  0  0  0  0  0  0  0
   11.2967    6.8218  -60.7249 H   0  0  0  0  0  0  0  0  0  0  0  0
   12.3022    4.5241  -57.8928 H   0  0  0  0  0  0  0  0  0  0  0  0
   11.2691    5.9464  -57.4457 H   0  0  0  0  0  0  0  0  0  0  0  0
   10.8676    3.4986  -56.4091 H   0  0  0  0  0  0  0  0  0  0  0  0
    9.5166    4.6615  -56.7756 H   0  0  0  0  0  0  0  0  0  0  0  0
    9.9240    1.3450  -56.9060 H   0  0  0  0  0  0  0  0  0  0  0  0
    8.7422    0.5144  -55.0472 H   0  0  0  0  0  0  0  0  0  0  0  0
    5.8220    0.4399  -55.9890 H   0  0  0  0  0  0  0  0  0  0  0  0
    6.0921   -3.0785  -54.9186 H   0  0  0  0  0  0  0  0  0  0  0  0
    6.3035   -2.5459  -50.7658 H   0  0  0  0  0  0  0  0  0  0  0  0
    5.6325   -3.7952  -51.9132 H   0  0  0  0  0  0  0  0  0  0  0  0
    7.7244   -4.4930  -50.7079 H   0  0  0  0  0  0  0  0  0  0  0  0
    7.8082   -4.5203  -52.5257 H   0  0  0  0  0  0  0  0  0  0  0  0
    8.6666   -1.9636  -51.4054 H   0  0  0  0  0  0  0  0  0  0  0  0
    9.6435   -3.4091  -50.8140 H   0  0  0  0  0  0  0  0  0  0  0  0
   10.7787   -3.4871  -52.6139 H   0  0  0  0  0  0  0  0  0  0  0  0
    8.9701   -4.8231  -53.6361 H   0  0  0  0  0  0  0  0  0  0  0  0
    8.3210   -3.3031  -54.3806 H   0  0  0  0  0  0  0  0  0  0  0  0
   10.7890   -4.8820  -55.0421 H   0  0  0  0  0  0  0  0  0  0  0  0
    9.5762   -4.0322  -56.1130 H   0  0  0  0  0  0  0  0  0  0  0  0
   12.0605   -2.9871  -54.8059 H   0  0  0  0  0  0  0  0  0  0  0  0
   11.3456   -2.6669  -56.4423 H   0  0  0  0  0  0  0  0  0  0  0  0
   11.2397   -0.6733  -55.0127 H   0  0  0  0  0  0  0  0  0  0  0  0
    9.5908   -1.3162  -55.4203 H   0  0  0  0  0  0  0  0  0  0  0  0
   11.0251   -1.1957  -52.7916 H   0  0  0  0  0  0  0  0  0  0  0  0
    9.2654   -0.9574  -53.2225 H   0  0  0  0  0  0  0  0  0  0  0  0
   11.6725    2.4066  -58.7060 H   0  0  0  0  0  0  0  0  0  0  0  0
   10.3987    1.6871  -59.7222 H   0  0  0  0  0  0  0  0  0  0  0  0
   11.7344    3.6378  -60.7893 H   0  0  0  0  0  0  0  0  0  0  0  0
    9.5521    4.4625  -61.8107 H   0  0  0  0  0  0  0  0  0  0  0  0
    9.1406    2.8630  -61.2992 H   0  0  0  0  0  0  0  0  0  0  0  0
    7.6009    4.6701  -60.1503 H   0  0  0  0  0  0  0  0  0  0  0  0
    9.3423    6.4680  -60.2461 H   0  0  0  0  0  0  0  0  0  0  0  0
    9.1169    6.1673  -58.5361 H   0  0  0  0  0  0  0  0  0  0  0  0
  2  1  1  6
  2  3  1  0
  3  4  1  0
  4  5  1  0
  5  6  1  1
  6  7  1  0
  7  8  2  0
  7  9  1  0
  9 10  2  0
 10 11  1  0
 11 12  2  0
 12 13  1  0
 13 14  1  0
 14 15  1  0
 15 16  1  0
 16 17  1  0
 17 18  1  0
 18 19  1  0
 19 20  1  0
 20 21  1  0
 21 22  1  0
 13 23  1  0
 23 24  2  0
  5 25  1  0
 25 26  1  0
 26 27  1  0
 27 28  1  0
 28 29  1  0
 28 30  1  0
 26  2  1  0
 29  2  1  0
 30  5  1  0
 23 11  1  0
 22 17  1  0
  1 31  1  0
  1 32  1  0
  1 33  1  0
  3 34  1  0
  3 35  1  0
  4 36  1  0
  4 37  1  0
  6 38  1  0
  9 39  1  0
 10 40  1  0
 12 41  1  0
 14 42  1  0
 14 43  1  0
 15 44  1  0
 15 45  1  0
 16 46  1  0
 16 47  1  0
 17 48  1  0
 18 49  1  0
 18 50  1  0
 19 51  1  0
 19 52  1  0
 20 53  1  0
 20 54  1  0
 21 55  1  0
 21 56  1  0
 22 57  1  0
 22 58  1  0
 25 59  1  0
 25 60  1  0
 26 61  1  6
 27 62  1  0
 27 63  1  0
 28 64  1  6
 29 65  1  0
 29 66  1  0
M  END
>  <meeko>  (31) 
{"is_sidechain": false}

$$$$

     RDKit          3D

 69 73  0  0  0  0  0  0  0  0999 V2000
    7.3590    0.2180  -53.6430 C   0  0  0  0  0  0  0  0  0  0  0  0
    8.5500   -0.5430  -54.1250 C   0  0  0  0  0  0  0  0  0  0  0  0
    9.4280   -0.1300  -55.1870 C   0  0  0  0  0  0  0  0  0  0  0  0
    9.3430    1.1070  -55.9750 C   0  0  0  0  0  0  0  0  0  0  0  0
    8.2890    1.7160  -56.1160 O   0  0  0  0  0  0  0  0  0  0  0  0
   10.5340    1.5030  -56.5470 N   0  0  0  0  0  0  0  0  0  0  0  0
   10.6870    2.6190  -57.4620 C   0  0  2  0  0  0  0  0  0  0  0  0
    9.8950    2.3390  -58.7740 C   0  0  0  0  0  0  0  0  0  0  0  0
    9.8900    3.6160  -59.6460 C   0  0  0  0  0  0  0  0  0  0  0  0
   11.1100    4.4780  -59.2470 C   0  0  2  0  0  0  0  0  0  0  0  0
   11.3200    5.6570  -60.1810 C   0  0  0  0  0  0  0  0  0  0  0  0
   12.3020    3.4890  -59.2460 C   0  0  0  0  0  0  0  0  0  0  0  0
   12.2020    3.0250  -57.7860 C   0  0  1  0  0  0  0  0  0  0  0  0
   12.3530    4.4130  -57.1420 C   0  0  0  0  0  0  0  0  0  0  0  0
   11.0250    4.9150  -57.7140 C   0  0  2  0  0  0  0  0  0  0  0  0
   10.0990    3.9550  -56.9460 C   0  0  0  0  0  0  0  0  0  0  0  0
   10.3840   -1.1250  -55.3010 C   0  0  0  0  0  0  0  0  0  0  0  0
   10.1330   -2.0970  -54.3630 N   0  0  0  0  0  0  0  0  0  0  0  0
   10.9580   -3.2850  -54.1980 C   0  0  0  0  0  0  0  0  0  0  0  0
   10.8600   -4.2840  -55.3550 C   0  0  0  0  0  0  0  0  0  0  0  0
   12.2030   -4.9360  -55.7010 C   0  0  0  0  0  0  0  0  0  0  0  0
   12.6000   -4.7640  -57.1800 C   0  0  0  0  0  0  0  0  0  0  0  0
   11.9100   -3.5660  -57.8340 C   0  0  0  0  0  0  0  0  0  0  0  0
   12.2670   -6.0400  -57.9580 C   0  0  0  0  0  0  0  0  0  0  0  0
    9.0020   -1.7700  -53.6470 C   0  0  0  0  0  0  0  0  0  0  0  0
    8.4440   -2.5950  -52.5700 C   0  0  0  0  0  0  0  0  0  0  0  0
    9.1570   -2.6850  -51.3630 C   0  0  0  0  0  0  0  0  0  0  0  0
    8.6700   -3.4510  -50.3020 C   0  0  0  0  0  0  0  0  0  0  0  0
    7.4610   -4.1300  -50.4310 C   0  0  0  0  0  0  0  0  0  0  0  0
    6.7340   -4.0400  -51.6190 C   0  0  0  0  0  0  0  0  0  0  0  0
    7.2200   -3.2740  -52.6850 C   0  0  0  0  0  0  0  0  0  0  0  0
    6.2590   -3.1990  -54.1220 Cl  0  0  0  0  0  0  0  0  0  0  0  0
    7.3486    0.2246  -52.5431 H   0  0  0  0  0  0  0  0  0  0  0  0
    7.4091    1.2518  -54.0154 H   0  0  0  0  0  0  0  0  0  0  0  0
    6.4419   -0.2619  -54.0154 H   0  0  0  0  0  0  0  0  0  0  0  0
   11.2740    0.8160  -56.5360 H   0  0  0  0  0  0  0  0  0  0  0  0
   10.3759    1.5181  -59.3262 H   0  0  0  0  0  0  0  0  0  0  0  0
    8.8612    2.0545  -58.5285 H   0  0  0  0  0  0  0  0  0  0  0  0
    9.9597    3.3414  -60.7089 H   0  0  0  0  0  0  0  0  0  0  0  0
    8.9586    4.1798  -59.4889 H   0  0  0  0  0  0  0  0  0  0  0  0
   11.4825    6.5696  -59.5887 H   0  0  0  0  0  0  0  0  0  0  0  0
   12.1990    5.4702  -60.8154 H   0  0  0  0  0  0  0  0  0  0  0  0
   10.4306    5.7852  -60.8154 H   0  0  0  0  0  0  0  0  0  0  0  0
   12.1561    2.6616  -59.9560 H   0  0  0  0  0  0  0  0  0  0  0  0
   13.2727    3.9063  -59.5520 H   0  0  0  0  0  0  0  0  0  0  0  0
   12.8770    2.2044  -57.5015 H   0  0  0  0  0  0  0  0  0  0  0  0
   12.3720    4.3846  -56.0425 H   0  0  0  0  0  0  0  0  0  0  0  0
   13.2670    4.9917  -57.3414 H   0  0  0  0  0  0  0  0  0  0  0  0
   10.7484    5.9769  -57.6381 H   0  0  0  0  0  0  0  0  0  0  0  0
   10.2022    4.0611  -55.8560 H   0  0  0  0  0  0  0  0  0  0  0  0
    9.0200    4.0983  -57.1052 H   0  0  0  0  0  0  0  0  0  0  0  0
   11.2113   -1.1356  -56.0259 H   0  0  0  0  0  0  0  0  0  0  0  0
   12.0068   -2.9664  -54.1054 H   0  0  0  0  0  0  0  0  0  0  0  0
   10.5890   -3.8036  -53.3009 H   0  0  0  0  0  0  0  0  0  0  0  0
   10.1485   -5.0749  -55.0754 H   0  0  0  0  0  0  0  0  0  0  0  0
   10.5275   -3.7263  -56.2429 H   0  0  0  0  0  0  0  0  0  0  0  0
   12.9841   -4.4806  -55.0744 H   0  0  0  0  0  0  0  0  0  0  0  0
   12.0994   -6.0151  -55.5145 H   0  0  0  0  0  0  0  0  0  0  0  0
   13.6833   -4.5749  -57.2081 H   0  0  0  0  0  0  0  0  0  0  0  0
   11.5232   -2.8945  -57.0533 H   0  0  0  0  0  0  0  0  0  0  0  0
   12.6335   -3.0227  -58.4595 H   0  0  0  0  0  0  0  0  0  0  0  0
   11.0770   -3.9192  -58.4595 H   0  0  0  0  0  0  0  0  0  0  0  0
   12.0542   -6.8555  -57.2511 H   0  0  0  0  0  0  0  0  0  0  0  0
   11.3847   -5.8638  -58.5909 H   0  0  0  0  0  0  0  0  0  0  0  0
   13.1228   -6.3174  -58.5909 H   0  0  0  0  0  0  0  0  0  0  0  0
   10.1095   -2.1460  -51.2525 H   0  0  0  0  0  0  0  0  0  0  0  0
    9.2412   -3.5181  -49.3644 H   0  0  0  0  0  0  0  0  0  0  0  0
    7.0792   -4.7370  -49.5969 H   0  0  0  0  0  0  0  0  0  0  0  0
    5.7765   -4.5725  -51.7178 H   0  0  0  0  0  0  0  0  0  0  0  0
  1  2  1  0
  2  3  1  0
  3  4  1  0
  4  5  2  0
  4  6  1  0
  7  6  1  1
  7  8  1  0
  8  9  1  0
  9 10  1  0
 10 11  1  6
 10 12  1  0
 12 13  1  0
 13 14  1  0
 14 15  1  0
 15 16  1  0
  3 17  2  0
 17 18  1  0
 18 19  1  0
 19 20  1  0
 20 21  1  0
 21 22  1  0
 22 23  1  0
 22 24  1  0
 18 25  1  0
 25 26  1  0
 26 27  2  0
 27 28  1  0
 28 29  2  0
 29 30  1  0
 30 31  2  0
 31 32  1  0
 25  2  2  0
 31 26  1  0
 13  7  1  0
 16  7  1  0
 15 10  1  0
  1 33  1  0
  1 34  1  0
  1 35  1  0
  6 36  1  0
  8 37  1  0
  8 38  1  0
  9 39  1  0
  9 40  1  0
 11 41  1  0
 11 42  1  0
 11 43  1  0
 12 44  1  0
 12 45  1  0
 13 46  1  1
 14 47  1  0
 14 48  1  0
 15 49  1  6
 16 50  1  0
 16 51  1  0
 17 52  1  0
 19 53  1  0
 19 54  1  0
 20 55  1  0
 20 56  1  0
 21 57  1  0
 21 58  1  0
 22 59  1  0
 23 60  1  0
 23 61  1  0
 23 62  1  0
 24 63  1  0
 24 64  1  0
 24 65  1  0
 27 66  1  0
 28 67  1  0
 29 68  1  0
 30 69  1  0
M  END
>  <meeko>  (32) 
{"is_sidechain": false}

$$$$

     RDKit          3D

 86 91  0  0  0  0  0  0  0  0999 V2000
    2.9240    0.3240  -63.1950 C   0  0  0  0  0  0  0  0  0  0  0  0
    2.8500    1.8050  -62.8740 C   0  0  0  0  0  0  0  0  0  0  0  0
    4.0630    2.2440  -62.0910 N   0  0  0  0  0  0  0  0  0  0  0  0
    5.3290    2.2220  -62.9430 C   0  0  0  0  0  0  0  0  0  0  0  0
    6.6160    2.2720  -62.0890 C   0  0  0  0  0  0  0  0  0  0  0  0
    6.4030    2.8380  -60.7540 N   0  0  0  0  0  0  0  0  0  0  0  0
    7.3240    3.6210  -60.0620 C   0  0  0  0  0  0  0  0  0  0  0  0
    7.1320    3.9230  -58.8850 O   0  0  0  0  0  0  0  0  0  0  0  0
    8.5550    4.0970  -60.8160 C   0  0  0  0  0  0  0  0  0  0  0  0
    9.2730    2.9790  -61.5790 C   0  0  0  0  0  0  0  0  0  0  0  0
   10.3570    2.3000  -60.7390 C   0  0  0  0  0  0  0  0  0  0  0  0
   10.1250    2.4470  -59.3060 N   0  0  0  0  0  0  0  0  0  0  0  0
    9.3250    1.6100  -58.5760 C   0  0  0  0  0  0  0  0  0  0  0  0
    9.3710    1.9790  -57.2440 C   0  0  0  0  0  0  0  0  0  0  0  0
    8.6300    1.2620  -56.2070 C   0  0  0  0  0  0  0  0  0  0  0  0
    7.5310    1.6270  -55.8100 O   0  0  0  0  0  0  0  0  0  0  0  0
    9.2920    0.1790  -55.6540 N   0  0  0  0  0  0  0  0  0  0  0  0
    8.7540   -0.4900  -54.5000 C   0  0  1  0  0  0  0  0  0  0  0  0
    9.6480   -1.6510  -54.0220 C   0  0  0  0  0  0  0  0  0  0  0  0
    9.3620   -2.0480  -52.5670 C   0  0  0  0  0  0  0  0  0  0  0  0
    7.8920   -1.8200  -52.1720 C   0  0  2  0  0  0  0  0  0  0  0  0
    7.6640   -2.2810  -50.7290 C   0  0  0  0  0  0  0  0  0  0  0  0
    6.9710   -2.6030  -53.1460 C   0  0  0  0  0  0  0  0  0  0  0  0
    6.4040   -1.5200  -54.0490 C   0  0  1  0  0  0  0  0  0  0  0  0
    6.1130   -0.4050  -53.0640 C   0  0  0  0  0  0  0  0  0  0  0  0
    7.4640   -0.3160  -52.3530 C   0  0  2  0  0  0  0  0  0  0  0  0
    8.4090    0.4300  -53.3120 C   0  0  0  0  0  0  0  0  0  0  0  0
    7.4540   -1.0470  -55.0260 N   0  0  0  0  0  0  0  0  0  0  0  0
   10.2770    3.0980  -57.1710 C   0  0  0  0  0  0  0  0  0  0  0  0
   10.7410    3.8180  -55.9480 C   0  0  0  0  0  0  0  0  0  0  0  0
   10.6950    3.3820  -58.4710 C   0  0  0  0  0  0  0  0  0  0  0  0
   11.6070    4.4280  -58.9320 C   0  0  0  0  0  0  0  0  0  0  0  0
   12.9870    4.1950  -58.9610 C   0  0  0  0  0  0  0  0  0  0  0  0
   13.8570    5.1910  -59.4090 C   0  0  0  0  0  0  0  0  0  0  0  0
   13.3510    6.4190  -59.8350 C   0  0  0  0  0  0  0  0  0  0  0  0
   11.9770    6.6540  -59.8160 C   0  0  0  0  0  0  0  0  0  0  0  0
   11.1060    5.6600  -59.3670 C   0  0  0  0  0  0  0  0  0  0  0  0
    5.3240    2.2420  -59.9520 C   0  0  0  0  0  0  0  0  0  0  0  0
    4.2740    1.4950  -60.7860 C   0  0  0  0  0  0  0  0  0  0  0  0
    2.9528   -0.2531  -62.2590 H   0  0  0  0  0  0  0  0  0  0  0  0
    2.0394    0.0308  -63.7794 H   0  0  0  0  0  0  0  0  0  0  0  0
    3.8334    0.1205  -63.7794 H   0  0  0  0  0  0  0  0  0  0  0  0
    2.8008    2.3757  -63.8131 H   0  0  0  0  0  0  0  0  0  0  0  0
    1.9518    1.9900  -62.2665 H   0  0  0  0  0  0  0  0  0  0  0  0
    3.9270    3.2330  -61.8300 H   0  0  0  0  0  0  0  0  0  0  0  0
    5.3369    1.2980  -63.5398 H   0  0  0  0  0  0  0  0  0  0  0  0
    5.3172    3.1161  -63.5836 H   0  0  0  0  0  0  0  0  0  0  0  0
    7.0008    1.2476  -61.9768 H   0  0  0  0  0  0  0  0  0  0  0  0
    7.3288    2.9271  -62.6112 H   0  0  0  0  0  0  0  0  0  0  0  0
    8.2455    4.8678  -61.5371 H   0  0  0  0  0  0  0  0  0  0  0  0
    9.2626    4.4857  -60.0688 H   0  0  0  0  0  0  0  0  0  0  0  0
    8.5319    2.2227  -61.8769 H   0  0  0  0  0  0  0  0  0  0  0  0
    9.7623    3.4318  -62.4540 H   0  0  0  0  0  0  0  0  0  0  0  0
   10.3752    1.2282  -60.9856 H   0  0  0  0  0  0  0  0  0  0  0  0
   11.3160    2.7846  -60.9746 H   0  0  0  0  0  0  0  0  0  0  0  0
    8.7375    0.7747  -58.9848 H   0  0  0  0  0  0  0  0  0  0  0  0
   10.2950    0.2710  -55.7530 H   0  0  0  0  0  0  0  0  0  0  0  0
    9.4697   -2.5234  -54.6679 H   0  0  0  0  0  0  0  0  0  0  0  0
   10.6938   -1.3148  -54.0789 H   0  0  0  0  0  0  0  0  0  0  0  0
    9.6004   -3.1142  -52.4389 H   0  0  0  0  0  0  0  0  0  0  0  0
    9.9845   -1.4137  -51.9189 H   0  0  0  0  0  0  0  0  0  0  0  0
    8.0425   -1.5157  -50.0354 H   0  0  0  0  0  0  0  0  0  0  0  0
    6.5878   -2.4310  -50.5577 H   0  0  0  0  0  0  0  0  0  0  0  0
    8.1980   -3.2273  -50.5577 H   0  0  0  0  0  0  0  0  0  0  0  0
    7.5479   -3.3371  -53.7275 H   0  0  0  0  0  0  0  0  0  0  0  0
    6.1907   -3.1789  -52.6269 H   0  0  0  0  0  0  0  0  0  0  0  0
    5.5374   -1.8524  -54.6393 H   0  0  0  0  0  0  0  0  0  0  0  0
    5.8587    0.5350  -53.5756 H   0  0  0  0  0  0  0  0  0  0  0  0
    5.2532   -0.5855  -52.4021 H   0  0  0  0  0  0  0  0  0  0  0  0
    7.4616    0.2094  -51.3866 H   0  0  0  0  0  0  0  0  0  0  0  0
    7.9141    1.3398  -53.6826 H   0  0  0  0  0  0  0  0  0  0  0  0
    9.3307    0.7090  -52.7804 H   0  0  0  0  0  0  0  0  0  0  0  0
    7.0420   -0.2850  -55.5770 H   0  0  0  0  0  0  0  0  0  0  0  0
    7.6520   -1.8050  -55.6870 H   0  0  0  0  0  0  0  0  0  0  0  0
   10.3948    3.2808  -55.0527 H   0  0  0  0  0  0  0  0  0  0  0  0
   11.8400    3.8653  -55.9451 H   0  0  0  0  0  0  0  0  0  0  0  0
   10.3301    4.8384  -55.9451 H   0  0  0  0  0  0  0  0  0  0  0  0
   13.3869    3.2251  -58.6301 H   0  0  0  0  0  0  0  0  0  0  0  0
   14.9414    5.0072  -59.4260 H   0  0  0  0  0  0  0  0  0  0  0  0
   14.0373    7.2034  -60.1866 H   0  0  0  0  0  0  0  0  0  0  0  0
   11.5795    7.6222  -60.1546 H   0  0  0  0  0  0  0  0  0  0  0  0
   10.0219    5.8458  -59.3551 H   0  0  0  0  0  0  0  0  0  0  0  0
    5.7717    1.5320  -59.2410 H   0  0  0  0  0  0  0  0  0  0  0  0
    4.8038    3.0700  -59.4481 H   0  0  0  0  0  0  0  0  0  0  0  0
    4.6273    0.4751  -60.9979 H   0  0  0  0  0  0  0  0  0  0  0  0
    3.3265    1.4377  -60.2302 H   0  0  0  0  0  0  0  0  0  0  0  0
  1  2  1  0
  2  3  1  0
  3  4  1  0
  4  5  1  0
  5  6  1  0
  6  7  1  0
  7  8  2  0
  7  9  1  0
  9 10  1  0
 10 11  1  0
 11 12  1  0
 12 13  1  0
 13 14  2  0
 14 15  1  0
 15 16  2  0
 15 17  1  0
 18 17  1  6
 18 19  1  0
 19 20  1  0
 20 21  1  0
 21 22  1  1
 21 23  1  0
 23 24  1  0
 24 25  1  0
 25 26  1  0
 26 27  1  0
 24 28  1  0
 14 29  1  0
 29 30  1  0
 29 31  2  0
 31 32  1  0
 32 33  2  0
 33 34  1  0
 34 35  2  0
 35 36  1  0
 36 37  2  0
  6 38  1  0
 38 39  1  0
 39  3  1  0
 31 12  1  0
 37 32  1  0
 27 18  1  0
 28 18  1  0
 26 21  1  0
  1 40  1  0
  1 41  1  0
  1 42  1  0
  2 43  1  0
  2 44  1  0
  3 45  1  0
  4 46  1  0
  4 47  1  0
  5 48  1  0
  5 49  1  0
  9 50  1  0
  9 51  1  0
 10 52  1  0
 10 53  1  0
 11 54  1  0
 11 55  1  0
 13 56  1  0
 17 57  1  0
 19 58  1  0
 19 59  1  0
 20 60  1  0
 20 61  1  0
 22 62  1  0
 22 63  1  0
 22 64  1  0
 23 65  1  0
 23 66  1  0
 24 67  1  6
 25 68  1  0
 25 69  1  0
 26 70  1  1
 27 71  1  0
 27 72  1  0
 28 73  1  0
 28 74  1  0
 30 75  1  0
 30 76  1  0
 30 77  1  0
 33 78  1  0
 34 79  1  0
 35 80  1  0
 36 81  1  0
 37 82  1  0
 38 83  1  0
 38 84  1  0
 39 85  1  0
 39 86  1  0
M  CHG  2   3   1  28   1
M  END
>  <meeko>  (33) 
{"is_sidechain": false}

$$$$

     RDKit          3D

 68 73  0  0  0  0  0  0  0  0999 V2000
    7.0780   -0.2410  -53.2340 C   0  0  0  0  0  0  0  0  0  0  0  0
    8.2990   -0.8620  -53.8320 C   0  0  0  0  0  0  0  0  0  0  0  0
    9.0550   -0.3470  -54.9440 C   0  0  0  0  0  0  0  0  0  0  0  0
    8.9160    0.8920  -55.7130 C   0  0  0  0  0  0  0  0  0  0  0  0
    7.8240    1.4100  -55.9140 O   0  0  0  0  0  0  0  0  0  0  0  0
   10.1020    1.3690  -56.2280 N   0  0  0  0  0  0  0  0  0  0  0  0
   10.2230    2.5220  -57.1320 C   0  0  1  0  0  0  0  0  0  0  0  0
   11.7110    2.9210  -57.3000 C   0  0  0  0  0  0  0  0  0  0  0  0
   11.9900    3.6440  -58.6250 C   0  0  0  0  0  0  0  0  0  0  0  0
   10.7820    4.4580  -59.1220 C   0  0  2  0  0  0  0  0  0  0  0  0
   11.1450    5.1750  -60.4280 C   0  0  0  0  0  0  0  0  0  0  0  0
   10.3620    5.4850  -58.0380 C   0  0  0  0  0  0  0  0  0  0  0  0
    9.1020    4.8810  -57.4240 C   0  0  1  0  0  0  0  0  0  0  0  0
    8.3930    4.3710  -58.6730 C   0  0  0  0  0  0  0  0  0  0  0  0
    9.5150    3.5540  -59.3160 C   0  0  2  0  0  0  0  0  0  0  0  0
    9.6300    2.2340  -58.5280 C   0  0  0  0  0  0  0  0  0  0  0  0
    9.4180    3.7000  -56.4820 C   0  0  0  0  0  0  0  0  0  0  0  0
   10.0150   -1.2990  -55.2270 C   0  0  0  0  0  0  0  0  0  0  0  0
    9.8820   -2.3550  -54.3610 N   0  0  0  0  0  0  0  0  0  0  0  0
   10.7670   -3.5120  -54.3850 C   0  0  0  0  0  0  0  0  0  0  0  0
   11.0580   -4.1340  -55.7680 C   0  0  0  0  0  0  0  0  0  0  0  0
   11.4540   -3.1050  -56.8410 C   0  0  0  0  0  0  0  0  0  0  0  0
   12.1450   -3.7250  -58.0620 C   0  0  0  0  0  0  0  0  0  0  0  0
   11.7620   -5.1840  -58.2660 C   0  0  0  0  0  0  0  0  0  0  0  0
   12.1280   -6.0420  -57.0530 C   0  0  0  0  0  0  0  0  0  0  0  0
   12.0790   -5.2780  -55.7260 C   0  0  0  0  0  0  0  0  0  0  0  0
    8.8960   -2.0620  -53.4370 C   0  0  0  0  0  0  0  0  0  0  0  0
    8.5820   -2.9040  -52.3130 C   0  0  0  0  0  0  0  0  0  0  0  0
    9.2410   -2.8720  -51.1750 N   0  0  0  0  0  0  0  0  0  0  0  0
    8.7290   -3.7480  -50.2370 N   0  0  0  0  0  0  0  0  0  0  0  0
    7.6930   -4.4070  -50.7070 C   0  0  0  0  0  0  0  0  0  0  0  0
    7.2590   -4.0070  -52.3150 S   0  0  0  0  0  0  0  0  0  0  0  0
    7.1483   -0.2768  -52.1368 H   0  0  0  0  0  0  0  0  0  0  0  0
    7.0007    0.8059  -53.5625 H   0  0  0  0  0  0  0  0  0  0  0  0
    6.1864   -0.7952  -53.5625 H   0  0  0  0  0  0  0  0  0  0  0  0
   10.8630    0.7050  -56.2350 H   0  0  0  0  0  0  0  0  0  0  0  0
   11.9914    3.5873  -56.4709 H   0  0  0  0  0  0  0  0  0  0  0  0
   12.3033    1.9941  -57.2988 H   0  0  0  0  0  0  0  0  0  0  0  0
   12.8399    4.3274  -58.4811 H   0  0  0  0  0  0  0  0  0  0  0  0
   12.2090    2.8773  -59.3827 H   0  0  0  0  0  0  0  0  0  0  0  0
   11.6308    6.1345  -60.1968 H   0  0  0  0  0  0  0  0  0  0  0  0
   11.8336    4.5468  -61.0120 H   0  0  0  0  0  0  0  0  0  0  0  0
   10.2310    5.3581  -61.0120 H   0  0  0  0  0  0  0  0  0  0  0  0
   11.1509    5.5976  -57.2798 H   0  0  0  0  0  0  0  0  0  0  0  0
   10.1912    6.4900  -58.4512 H   0  0  0  0  0  0  0  0  0  0  0  0
    8.5319    5.5913  -56.8072 H   0  0  0  0  0  0  0  0  0  0  0  0
    7.5265    3.7424  -58.4200 H   0  0  0  0  0  0  0  0  0  0  0  0
    7.9731    5.1587  -59.3158 H   0  0  0  0  0  0  0  0  0  0  0  0
    9.3655    3.2988  -60.3755 H   0  0  0  0  0  0  0  0  0  0  0  0
    8.6323    1.7841  -58.4175 H   0  0  0  0  0  0  0  0  0  0  0  0
   10.2865    1.5376  -59.0703 H   0  0  0  0  0  0  0  0  0  0  0  0
   10.0055    4.0873  -55.6365 H   0  0  0  0  0  0  0  0  0  0  0  0
    8.4462    3.2779  -56.1864 H   0  0  0  0  0  0  0  0  0  0  0  0
   10.7696   -1.2224  -56.0236 H   0  0  0  0  0  0  0  0  0  0  0  0
   11.7289   -3.2050  -53.9486 H   0  0  0  0  0  0  0  0  0  0  0  0
   10.2359   -4.2939  -53.8224 H   0  0  0  0  0  0  0  0  0  0  0  0
   10.0899   -4.5635  -56.0653 H   0  0  0  0  0  0  0  0  0  0  0  0
   10.5437   -2.5896  -57.1812 H   0  0  0  0  0  0  0  0  0  0  0  0
   12.1760   -2.4170  -56.3769 H   0  0  0  0  0  0  0  0  0  0  0  0
   11.8572   -3.1555  -58.9580 H   0  0  0  0  0  0  0  0  0  0  0  0
   13.2307   -3.6838  -57.8902 H   0  0  0  0  0  0  0  0  0  0  0  0
   10.6765   -5.2473  -58.4326 H   0  0  0  0  0  0  0  0  0  0  0  0
   12.3180   -5.5654  -59.1351 H   0  0  0  0  0  0  0  0  0  0  0  0
   11.4220   -6.8837  -56.9963 H   0  0  0  0  0  0  0  0  0  0  0  0
   13.1662   -6.3766  -57.1952 H   0  0  0  0  0  0  0  0  0  0  0  0
   11.7998   -5.9759  -54.9229 H   0  0  0  0  0  0  0  0  0  0  0  0
   13.0731   -4.8442  -55.5429 H   0  0  0  0  0  0  0  0  0  0  0  0
    7.1478   -5.1563  -50.1143 H   0  0  0  0  0  0  0  0  0  0  0  0
  1  2  1  0
  2  3  1  0
  3  4  1  0
  4  5  2  0
  4  6  1  0
  7  6  1  1
  7  8  1  0
  8  9  1  0
  9 10  1  0
 10 11  1  6
 10 12  1  0
 12 13  1  0
 13 14  1  0
 14 15  1  0
 15 16  1  0
 13 17  1  0
  3 18  2  0
 18 19  1  0
 19 20  1  0
 20 21  1  0
 21 22  1  0
 22 23  1  0
 23 24  1  0
 24 25  1  0
 25 26  1  0
 19 27  1  0
 27 28  1  0
 28 29  2  0
 29 30  1  0
 30 31  2  0
 31 32  1  0
 27  2  2  0
 32 28  1  0
 16  7  1  0
 26 21  1  0
 17  7  1  0
 15 10  1  0
  1 33  1  0
  1 34  1  0
  1 35  1  0
  6 36  1  0
  8 37  1  0
  8 38  1  0
  9 39  1  0
  9 40  1  0
 11 41  1  0
 11 42  1  0
 11 43  1  0
 12 44  1  0
 12 45  1  0
 13 46  1  1
 14 47  1  0
 14 48  1  0
 15 49  1  6
 16 50  1  0
 16 51  1  0
 17 52  1  0
 17 53  1  0
 18 54  1  0
 20 55  1  0
 20 56  1  0
 21 57  1  0
 22 58  1  0
 22 59  1  0
 23 60  1  0
 23 61  1  0
 24 62  1  0
 24 63  1  0
 25 64  1  0
 25 65  1  0
 26 66  1  0
 26 67  1  0
 31 68  1  0
M  END
>  <meeko>  (34) 
{"is_sidechain": false}

$$$$

     RDKit          3D

 79 83  0  0  0  0  0  0  0  0999 V2000
   12.9800    4.0480  -58.8490 C   0  0  0  0  0  0  0  0  0  0  0  0
   12.1720    4.0540  -57.5610 C   0  0  0  0  0  0  0  0  0  0  0  0
   11.6500    2.6590  -57.2220 C   0  0  0  0  0  0  0  0  0  0  0  0
   10.3860    2.7320  -56.3630 C   0  0  0  0  0  0  0  0  0  0  0  0
    9.6240    1.4050  -56.3810 C   0  0  0  0  0  0  0  0  0  0  0  0
    8.1890    1.5800  -56.7940 C   0  0  0  0  0  0  0  0  0  0  0  0
    7.0340    1.0900  -56.0870 C   0  0  0  0  0  0  0  0  0  0  0  0
    7.0100    0.3130  -54.8410 C   0  0  0  0  0  0  0  0  0  0  0  0
    6.2370    0.5660  -53.9240 O   0  0  0  0  0  0  0  0  0  0  0  0
    7.9060   -0.7370  -54.8060 N   0  0  0  0  0  0  0  0  0  0  0  0
    7.9950   -1.7080  -53.7070 C   0  0  1  0  0  0  0  0  0  0  0  0
    9.4030   -2.3580  -53.6820 C   0  0  0  0  0  0  0  0  0  0  0  0
    9.8480   -2.7880  -52.2780 C   0  0  0  0  0  0  0  0  0  0  0  0
    8.6650   -3.1620  -51.3700 C   0  0  2  0  0  0  0  0  0  0  0  0
    9.1860   -3.6050  -49.9970 C   0  0  0  0  0  0  0  0  0  0  0  0
    7.8360   -4.2990  -52.0250 C   0  0  0  0  0  0  0  0  0  0  0  0
    6.5870   -3.5930  -52.5510 C   0  0  1  0  0  0  0  0  0  0  0  0
    6.2880   -2.6440  -51.3960 C   0  0  0  0  0  0  0  0  0  0  0  0
    7.6540   -1.9730  -51.2250 C   0  0  2  0  0  0  0  0  0  0  0  0
    7.8040   -0.9570  -52.3700 C   0  0  0  0  0  0  0  0  0  0  0  0
    6.8720   -2.7890  -53.8390 C   0  0  0  0  0  0  0  0  0  0  0  0
    5.9350    1.4700  -56.8420 C   0  0  0  0  0  0  0  0  0  0  0  0
    6.3670    2.1760  -57.9370 N   0  0  0  0  0  0  0  0  0  0  0  0
    5.4750    2.7110  -58.9550 C   0  0  0  0  0  0  0  0  0  0  0  0
    5.1860    1.7500  -60.1060 C   0  0  0  0  0  0  0  0  0  0  0  0
    5.7000    2.2570  -61.4510 C   0  0  0  0  0  0  0  0  0  0  0  0
    4.7370    2.0400  -62.4820 O   0  0  0  0  0  0  0  0  0  0  0  0
    3.4250    1.8090  -61.9890 C   0  0  0  0  0  0  0  0  0  0  0  0
    7.7420    2.2440  -57.9340 C   0  0  0  0  0  0  0  0  0  0  0  0
    8.5280    2.9020  -58.9770 C   0  0  0  0  0  0  0  0  0  0  0  0
    8.7020    4.2890  -58.9610 C   0  0  0  0  0  0  0  0  0  0  0  0
    9.4550    4.9150  -59.9540 C   0  0  0  0  0  0  0  0  0  0  0  0
   10.0440    4.1570  -60.9660 C   0  0  0  0  0  0  0  0  0  0  0  0
    9.8830    2.7710  -60.9830 C   0  0  0  0  0  0  0  0  0  0  0  0
    9.1290    2.1440  -59.9890 C   0  0  0  0  0  0  0  0  0  0  0  0
   14.0533    4.0400  -58.6085 H   0  0  0  0  0  0  0  0  0  0  0  0
   12.7289    3.1517  -59.4352 H   0  0  0  0  0  0  0  0  0  0  0  0
   12.7423    4.9479  -59.4352 H   0  0  0  0  0  0  0  0  0  0  0  0
   12.8125    4.4057  -56.7387 H   0  0  0  0  0  0  0  0  0  0  0  0
   11.3088    4.7220  -57.6978 H   0  0  0  0  0  0  0  0  0  0  0  0
   11.4182    2.1264  -58.1561 H   0  0  0  0  0  0  0  0  0  0  0  0
   12.4263    2.1266  -56.6528 H   0  0  0  0  0  0  0  0  0  0  0  0
   10.6701    2.9680  -55.3269 H   0  0  0  0  0  0  0  0  0  0  0  0
    9.7311    3.5140  -56.7748 H   0  0  0  0  0  0  0  0  0  0  0  0
   10.1162    0.7234  -57.0903 H   0  0  0  0  0  0  0  0  0  0  0  0
    9.6342    0.9957  -55.3600 H   0  0  0  0  0  0  0  0  0  0  0  0
    8.3310   -0.9910  -55.6860 H   0  0  0  0  0  0  0  0  0  0  0  0
    9.3892   -3.2459  -54.3311 H   0  0  0  0  0  0  0  0  0  0  0  0
   10.1183   -1.5994  -54.0325 H   0  0  0  0  0  0  0  0  0  0  0  0
   10.5105   -3.6612  -52.3707 H   0  0  0  0  0  0  0  0  0  0  0  0
   10.3643   -1.9334  -51.8164 H   0  0  0  0  0  0  0  0  0  0  0  0
    8.6033   -3.1096  -49.2064 H   0  0  0  0  0  0  0  0  0  0  0  0
    9.0824   -4.6958  -49.9000 H   0  0  0  0  0  0  0  0  0  0  0  0
   10.2459   -3.3273  -49.9000 H   0  0  0  0  0  0  0  0  0  0  0  0
    8.3963   -4.7666  -52.8481 H   0  0  0  0  0  0  0  0  0  0  0  0
    7.5981   -5.1087  -51.3195 H   0  0  0  0  0  0  0  0  0  0  0  0
    5.7727   -4.2812  -52.8220 H   0  0  0  0  0  0  0  0  0  0  0  0
    5.5079   -1.9151  -51.6609 H   0  0  0  0  0  0  0  0  0  0  0  0
    5.9008   -3.1327  -50.4898 H   0  0  0  0  0  0  0  0  0  0  0  0
    7.8034   -1.4368  -50.2763 H   0  0  0  0  0  0  0  0  0  0  0  0
    6.9000   -0.3328  -52.4265 H   0  0  0  0  0  0  0  0  0  0  0  0
    8.6801   -0.3194  -52.1805 H   0  0  0  0  0  0  0  0  0  0  0  0
    7.1712   -3.4980  -54.6250 H   0  0  0  0  0  0  0  0  0  0  0  0
    5.9457   -2.2439  -54.0731 H   0  0  0  0  0  0  0  0  0  0  0  0
    4.8859    1.2424  -56.6021 H   0  0  0  0  0  0  0  0  0  0  0  0
    4.5200    2.9699  -58.4745 H   0  0  0  0  0  0  0  0  0  0  0  0
    5.9838    3.5825  -59.3928 H   0  0  0  0  0  0  0  0  0  0  0  0
    5.6687    0.7861  -59.8872 H   0  0  0  0  0  0  0  0  0  0  0  0
    4.0932    1.6535  -60.1870 H   0  0  0  0  0  0  0  0  0  0  0  0
    5.9075    3.3345  -61.3737 H   0  0  0  0  0  0  0  0  0  0  0  0
    6.6167    1.7051  -61.7062 H   0  0  0  0  0  0  0  0  0  0  0  0
    3.4408    1.8118  -60.8891 H   0  0  0  0  0  0  0  0  0  0  0  0
    2.7534    2.6027  -62.3481 H   0  0  0  0  0  0  0  0  0  0  0  0
    3.0648    0.8336  -62.3481 H   0  0  0  0  0  0  0  0  0  0  0  0
    8.2430    4.8893  -58.1616 H   0  0  0  0  0  0  0  0  0  0  0  0
    9.5845    6.0072  -59.9391 H   0  0  0  0  0  0  0  0  0  0  0  0
   10.6353    4.6517  -61.7506 H   0  0  0  0  0  0  0  0  0  0  0  0
   10.3499    2.1726  -61.7792 H   0  0  0  0  0  0  0  0  0  0  0  0
    9.0068    1.0509  -60.0011 H   0  0  0  0  0  0  0  0  0  0  0  0
  1  2  1  0
  2  3  1  0
  3  4  1  0
  4  5  1  0
  5  6  1  0
  6  7  1  0
  7  8  1  0
  8  9  2  0
  8 10  1  0
 11 10  1  6
 11 12  1  0
 12 13  1  0
 13 14  1  0
 14 15  1  1
 14 16  1  0
 16 17  1  0
 17 18  1  0
 18 19  1  0
 19 20  1  0
 17 21  1  0
  7 22  2  0
 22 23  1  0
 23 24  1  0
 24 25  1  0
 25 26  1  0
 26 27  1  0
 27 28  1  0
 23 29  1  0
 29 30  1  0
 30 31  2  0
 31 32  1  0
 32 33  2  0
 33 34  1  0
 34 35  2  0
 29  6  2  0
 35 30  1  0
 20 11  1  0
 21 11  1  0
 19 14  1  0
  1 36  1  0
  1 37  1  0
  1 38  1  0
  2 39  1  0
  2 40  1  0
  3 41  1  0
  3 42  1  0
  4 43  1  0
  4 44  1  0
  5 45  1  0
  5 46  1  0
 10 47  1  0
 12 48  1  0
 12 49  1  0
 13 50  1  0
 13 51  1  0
 15 52  1  0
 15 53  1  0
 15 54  1  0
 16 55  1  0
 16 56  1  0
 17 57  1  6
 18 58  1  0
 18 59  1  0
 19 60  1  1
 20 61  1  0
 20 62  1  0
 21 63  1  0
 21 64  1  0
 22 65  1  0
 24 66  1  0
 24 67  1  0
 25 68  1  0
 25 69  1  0
 26 70  1  0
 26 71  1  0
 28 72  1  0
 28 73  1  0
 28 74  1  0
 31 75  1  0
 32 76  1  0
 33 77  1  0
 34 78  1  0
 35 79  1  0
M  END
>  <meeko>  (35) 
{"is_sidechain": false}

$$$$

     RDKit          3D

 55 59  0  0  0  0  0  0  0  0999 V2000
    6.4570    0.3590  -53.3380 C   0  0  0  0  0  0  0  0  0  0  0  0
    7.7130   -0.3350  -53.7440 C   0  0  0  0  0  0  0  0  0  0  0  0
    8.5740    0.0780  -54.8260 C   0  0  0  0  0  0  0  0  0  0  0  0
    8.4170    1.1380  -55.8200 C   0  0  0  0  0  0  0  0  0  0  0  0
    7.3260    1.6240  -56.0930 O   0  0  0  0  0  0  0  0  0  0  0  0
    9.6070    1.5680  -56.3680 N   0  0  0  0  0  0  0  0  0  0  0  0
    9.7130    2.5680  -57.4470 C   0  0  1  0  0  0  0  0  0  0  0  0
    9.5430    4.0000  -56.8720 C   0  0  0  0  0  0  0  0  0  0  0  0
   10.2770    5.0750  -57.6850 C   0  0  0  0  0  0  0  0  0  0  0  0
   10.4290    4.6980  -59.1670 C   0  0  2  0  0  0  0  0  0  0  0  0
   11.1610    5.8220  -59.9110 C   0  0  0  0  0  0  0  0  0  0  0  0
    9.0250    4.4680  -59.7880 C   0  0  0  0  0  0  0  0  0  0  0  0
    8.9200    2.9490  -59.9150 C   0  0  1  0  0  0  0  0  0  0  0  0
   10.3240    2.6120  -60.4110 C   0  0  0  0  0  0  0  0  0  0  0  0
   11.1760    3.3260  -59.3560 C   0  0  2  0  0  0  0  0  0  0  0  0
   11.1270    2.4570  -58.0860 C   0  0  1  0  0  0  0  0  0  0  0  0
   12.1650    2.8530  -57.1870 O   0  0  0  0  0  0  0  0  0  0  0  0
    8.6500    2.2690  -58.5540 C   0  0  0  0  0  0  0  0  0  0  0  0
    9.6920   -0.7270  -54.7620 C   0  0  0  0  0  0  0  0  0  0  0  0
    9.5260   -1.6400  -53.7580 N   0  0  0  0  0  0  0  0  0  0  0  0
   10.5210   -2.6400  -53.4480 C   0  0  0  0  0  0  0  0  0  0  0  0
    8.3050   -1.4510  -53.1440 C   0  0  0  0  0  0  0  0  0  0  0  0
    7.7050   -2.3280  -51.9750 C   0  0  0  0  0  0  0  0  0  0  0  0
    8.1130   -2.4080  -50.6180 C   0  0  0  0  0  0  0  0  0  0  0  0
    7.2860   -3.3200  -50.0070 C   0  0  0  0  0  0  0  0  0  0  0  0
    6.3960   -3.8190  -50.8970 O   0  0  0  0  0  0  0  0  0  0  0  0
    6.6580   -3.2180  -52.0860 C   0  0  0  0  0  0  0  0  0  0  0  0
    6.3953    0.3931  -52.2403 H   0  0  0  0  0  0  0  0  0  0  0  0
    6.4590    1.3840  -53.7371 H   0  0  0  0  0  0  0  0  0  0  0  0
    5.5903   -0.1882  -53.7371 H   0  0  0  0  0  0  0  0  0  0  0  0
   10.4490    1.1140  -56.0430 H   0  0  0  0  0  0  0  0  0  0  0  0
    8.4707    4.2450  -56.8581 H   0  0  0  0  0  0  0  0  0  0  0  0
    9.9827    3.9991  -55.8637 H   0  0  0  0  0  0  0  0  0  0  0  0
    9.7101    6.0153  -57.6176 H   0  0  0  0  0  0  0  0  0  0  0  0
   11.2877    5.1778  -57.2633 H   0  0  0  0  0  0  0  0  0  0  0  0
   11.6105    6.5122  -59.1819 H   0  0  0  0  0  0  0  0  0  0  0  0
   11.9513    5.3898  -60.5423 H   0  0  0  0  0  0  0  0  0  0  0  0
   10.4461    6.3701  -60.5423 H   0  0  0  0  0  0  0  0  0  0  0  0
    8.2369    4.8604  -59.1285 H   0  0  0  0  0  0  0  0  0  0  0  0
    8.8995    4.9827  -60.7520 H   0  0  0  0  0  0  0  0  0  0  0  0
    8.0966    2.6116  -60.5617 H   0  0  0  0  0  0  0  0  0  0  0  0
   10.5043    1.5269  -60.4113 H   0  0  0  0  0  0  0  0  0  0  0  0
   10.5284    2.9188  -61.4474 H   0  0  0  0  0  0  0  0  0  0  0  0
   12.2342    3.4838  -59.6116 H   0  0  0  0  0  0  0  0  0  0  0  0
   11.3016    1.3999  -58.3349 H   0  0  0  0  0  0  0  0  0  0  0  0
   11.9110    2.5640  -56.2920 H   0  0  0  0  0  0  0  0  0  0  0  0
    7.6706    2.6118  -58.1889 H   0  0  0  0  0  0  0  0  0  0  0  0
    8.6911    1.1851  -58.7368 H   0  0  0  0  0  0  0  0  0  0  0  0
   10.5747   -0.6473  -55.4135 H   0  0  0  0  0  0  0  0  0  0  0  0
   10.6166   -2.7361  -52.3564 H   0  0  0  0  0  0  0  0  0  0  0  0
   10.2154   -3.6063  -53.8758 H   0  0  0  0  0  0  0  0  0  0  0  0
   11.4888   -2.3393  -53.8758 H   0  0  0  0  0  0  0  0  0  0  0  0
    8.9335   -1.8477  -50.1459 H   0  0  0  0  0  0  0  0  0  0  0  0
    7.3396   -3.6041  -48.9457 H   0  0  0  0  0  0  0  0  0  0  0  0
    6.1065   -3.4156  -53.0170 H   0  0  0  0  0  0  0  0  0  0  0  0
  1  2  1  0
  2  3  1  0
  3  4  1  0
  4  5  2  0
  4  6  1  0
  7  6  1  1
  7  8  1  0
  8  9  1  0
  9 10  1  0
 10 11  1  6
 10 12  1  0
 12 13  1  0
 13 14  1  0
 14 15  1  0
 15 16  1  0
 16 17  1  0
 13 18  1  0
  3 19  2  0
 19 20  1  0
 20 21  1  0
 20 22  1  0
 22 23  1  0
 23 24  1  0
 24 25  2  0
 25 26  1  0
 26 27  1  0
 22  2  2  0
 27 23  2  0
 16  7  1  0
 18  7  1  0
 15 10  1  0
  1 28  1  0
  1 29  1  0
  1 30  1  0
  6 31  1  0
  8 32  1  0
  8 33  1  0
  9 34  1  0
  9 35  1  0
 11 36  1  0
 11 37  1  0
 11 38  1  0
 12 39  1  0
 12 40  1  0
 13 41  1  6
 14 42  1  0
 14 43  1  0
 15 44  1  6
 16 45  1  6
 17 46  1  0
 18 47  1  0
 18 48  1  0
 19 49  1  0
 21 50  1  0
 21 51  1  0
 21 52  1  0
 24 53  1  0
 25 54  1  0
 27 55  1  0
M  END
>  <meeko>  (36) 
{"is_sidechain": false}

$$$$

     RDKit          3D

 68 72  0  0  0  0  0  0  0  0999 V2000
    6.3660    2.4630  -61.4020 C   0  0  0  0  0  0  0  0  0  0  0  0
    5.3220    1.7380  -60.5430 C   0  0  0  0  0  0  0  0  0  0  0  0
    5.8550    0.3650  -60.1100 C   0  0  0  0  0  0  0  0  0  0  0  0
    4.0500    1.5220  -61.3830 C   0  0  0  0  0  0  0  0  0  0  0  0
    4.9870    2.6110  -59.3140 C   0  0  0  0  0  0  0  0  0  0  0  0
    3.8400    2.6520  -58.8620 O   0  0  0  0  0  0  0  0  0  0  0  0
    6.1220    3.4110  -58.6950 C   0  0  0  0  0  0  0  0  0  0  0  0
    6.8880    2.6650  -57.6990 N   0  0  0  0  0  0  0  0  0  0  0  0
    6.3390    1.7470  -56.8430 C   0  0  0  0  0  0  0  0  0  0  0  0
    7.3440    1.1800  -56.0730 C   0  0  0  0  0  0  0  0  0  0  0  0
    7.0730    0.1650  -55.0520 C   0  0  0  0  0  0  0  0  0  0  0  0
    5.9430    0.0000  -54.6020 O   0  0  0  0  0  0  0  0  0  0  0  0
    8.1610   -0.5670  -54.6390 N   0  0  0  0  0  0  0  0  0  0  0  0
    8.1570   -1.5760  -53.5690 C   0  0  1  0  0  0  0  0  0  0  0  0
    9.5530   -2.2410  -53.4530 C   0  0  0  0  0  0  0  0  0  0  0  0
    9.8340   -2.7970  -52.0500 C   0  0  0  0  0  0  0  0  0  0  0  0
    8.5570   -3.2650  -51.3310 C   0  0  2  0  0  0  0  0  0  0  0  0
    8.9200   -3.8360  -49.9550 C   0  0  0  0  0  0  0  0  0  0  0  0
    7.8350   -4.3360  -52.1890 C   0  0  0  0  0  0  0  0  0  0  0  0
    6.6520   -3.5860  -52.7960 C   0  0  1  0  0  0  0  0  0  0  0  0
    6.1920   -2.7610  -51.6000 C   0  0  0  0  0  0  0  0  0  0  0  0
    7.5110   -2.1020  -51.1930 C   0  0  2  0  0  0  0  0  0  0  0  0
    7.7860   -0.9680  -52.1980 C   0  0  0  0  0  0  0  0  0  0  0  0
    7.0780   -2.6500  -53.9470 C   0  0  0  0  0  0  0  0  0  0  0  0
    8.5550    1.7930  -56.5180 C   0  0  0  0  0  0  0  0  0  0  0  0
   10.1280    1.4740  -55.9270 Cl  0  0  0  0  0  0  0  0  0  0  0  0
    8.2550    2.6980  -57.5270 C   0  0  0  0  0  0  0  0  0  0  0  0
    9.1460    3.5680  -58.2880 C   0  0  0  0  0  0  0  0  0  0  0  0
    9.5560    3.2010  -59.5750 C   0  0  0  0  0  0  0  0  0  0  0  0
   10.4130    4.0290  -60.3040 C   0  0  0  0  0  0  0  0  0  0  0  0
   10.8590    5.2250  -59.7440 C   0  0  0  0  0  0  0  0  0  0  0  0
   11.9250    6.2400  -60.6360 Cl  0  0  0  0  0  0  0  0  0  0  0  0
   10.4510    5.6030  -58.4660 C   0  0  0  0  0  0  0  0  0  0  0  0
    9.5920    4.7770  -57.7390 C   0  0  0  0  0  0  0  0  0  0  0  0
    7.0925    2.9675  -60.7480 H   0  0  0  0  0  0  0  0  0  0  0  0
    6.8893    1.7330  -62.0369 H   0  0  0  0  0  0  0  0  0  0  0  0
    5.8647    3.2084  -62.0369 H   0  0  0  0  0  0  0  0  0  0  0  0
    5.8764    0.3098  -59.0116 H   0  0  0  0  0  0  0  0  0  0  0  0
    5.1980   -0.4243  -60.5041 H   0  0  0  0  0  0  0  0  0  0  0  0
    6.8725    0.2257  -60.5041 H   0  0  0  0  0  0  0  0  0  0  0  0
    3.1892    1.3758  -60.7139 H   0  0  0  0  0  0  0  0  0  0  0  0
    3.8756    2.4034  -62.0176 H   0  0  0  0  0  0  0  0  0  0  0  0
    4.1763    0.6325  -62.0176 H   0  0  0  0  0  0  0  0  0  0  0  0
    6.8062    3.7226  -59.4980 H   0  0  0  0  0  0  0  0  0  0  0  0
    5.6674    4.2682  -58.1767 H   0  0  0  0  0  0  0  0  0  0  0  0
    5.2695    1.4986  -56.7767 H   0  0  0  0  0  0  0  0  0  0  0  0
    9.0630   -0.2760  -54.9960 H   0  0  0  0  0  0  0  0  0  0  0  0
    9.6093   -3.0679  -54.1762 H   0  0  0  0  0  0  0  0  0  0  0  0
   10.3063   -1.4662  -53.6585 H   0  0  0  0  0  0  0  0  0  0  0  0
   10.5202   -3.6519  -52.1410 H   0  0  0  0  0  0  0  0  0  0  0  0
   10.2736   -1.9849  -51.4523 H   0  0  0  0  0  0  0  0  0  0  0  0
    8.5075   -3.1871  -49.1683 H   0  0  0  0  0  0  0  0  0  0  0  0
    8.4985   -4.8471  -49.8548 H   0  0  0  0  0  0  0  0  0  0  0  0
   10.0144   -3.8834  -49.8548 H   0  0  0  0  0  0  0  0  0  0  0  0
    8.5003   -4.7200  -52.9764 H   0  0  0  0  0  0  0  0  0  0  0  0
    7.5244   -5.2117  -51.6002 H   0  0  0  0  0  0  0  0  0  0  0  0
    5.8943   -4.2500  -53.2377 H   0  0  0  0  0  0  0  0  0  0  0  0
    5.4368   -2.0147  -51.8876 H   0  0  0  0  0  0  0  0  0  0  0  0
    5.7041   -3.3412  -50.8030 H   0  0  0  0  0  0  0  0  0  0  0  0
    7.5287   -1.6656  -50.1834 H   0  0  0  0  0  0  0  0  0  0  0  0
    6.8854   -0.3454  -52.3043 H   0  0  0  0  0  0  0  0  0  0  0  0
    8.6184   -0.3481  -51.8337 H   0  0  0  0  0  0  0  0  0  0  0  0
    7.4857   -3.2714  -54.7579 H   0  0  0  0  0  0  0  0  0  0  0  0
    6.1764   -2.0893  -54.2344 H   0  0  0  0  0  0  0  0  0  0  0  0
    9.2019    2.2567  -60.0142 H   0  0  0  0  0  0  0  0  0  0  0  0
   10.7343    3.7385  -61.3151 H   0  0  0  0  0  0  0  0  0  0  0  0
   10.8049    6.5495  -58.0315 H   0  0  0  0  0  0  0  0  0  0  0  0
    9.2645    5.0763  -56.7324 H   0  0  0  0  0  0  0  0  0  0  0  0
  1  2  1  0
  2  3  1  0
  2  4  1  0
  2  5  1  0
  5  6  2  0
  5  7  1  0
  7  8  1  0
  8  9  1  0
  9 10  2  0
 10 11  1  0
 11 12  2  0
 11 13  1  0
 14 13  1  6
 14 15  1  0
 15 16  1  0
 16 17  1  0
 17 18  1  1
 17 19  1  0
 19 20  1  0
 20 21  1  0
 21 22  1  0
 22 23  1  0
 20 24  1  0
 10 25  1  0
 25 26  1  0
 25 27  2  0
 27 28  1  0
 28 29  1  0
 29 30  2  0
 30 31  1  0
 31 32  1  0
 31 33  2  0
 33 34  1  0
 27  8  1  0
 34 28  2  0
 23 14  1  0
 24 14  1  0
 22 17  1  0
  1 35  1  0
  1 36  1  0
  1 37  1  0
  3 38  1  0
  3 39  1  0
  3 40  1  0
  4 41  1  0
  4 42  1  0
  4 43  1  0
  7 44  1  0
  7 45  1  0
  9 46  1  0
 13 47  1  0
 15 48  1  0
 15 49  1  0
 16 50  1  0
 16 51  1  0
 18 52  1  0
 18 53  1  0
 18 54  1  0
 19 55  1  0
 19 56  1  0
 20 57  1  6
 21 58  1  0
 21 59  1  0
 22 60  1  1
 23 61  1  0
 23 62  1  0
 24 63  1  0
 24 64  1  0
 29 65  1  0
 30 66  1  0
 33 67  1  0
 34 68  1  0
M  END
>  <meeko>  (37) 
{"is_sidechain": false}

$$$$

     RDKit          3D

 66 71  0  0  0  0  0  0  0  0999 V2000
   12.0680   -5.7870  -56.4860 C   0  0  0  0  0  0  0  0  0  0  0  0
   11.0740   -4.7010  -56.1090 C   0  0  0  0  0  0  0  0  0  0  0  0
   11.7010   -3.6730  -55.1710 C   0  0  0  0  0  0  0  0  0  0  0  0
   11.0670   -2.3720  -55.2830 N   0  0  0  0  0  0  0  0  0  0  0  0
   11.4670   -1.3670  -56.1280 C   0  0  0  0  0  0  0  0  0  0  0  0
   10.6110   -0.2840  -55.9650 C   0  0  0  0  0  0  0  0  0  0  0  0
   10.7130    0.9760  -56.6890 C   0  0  0  0  0  0  0  0  0  0  0  0
   11.7820    1.5640  -56.8190 O   0  0  0  0  0  0  0  0  0  0  0  0
    9.5210    1.4340  -57.2030 N   0  0  0  0  0  0  0  0  0  0  0  0
    9.3480    2.6900  -57.9390 C   0  0  1  0  0  0  0  0  0  0  0  0
    7.9500    2.7290  -58.6090 C   0  0  0  0  0  0  0  0  0  0  0  0
    7.3950    4.1500  -58.7720 C   0  0  0  0  0  0  0  0  0  0  0  0
    8.5040    5.2040  -58.9350 C   0  0  2  0  0  0  0  0  0  0  0  0
    7.8770    6.5900  -59.1200 C   0  0  0  0  0  0  0  0  0  0  0  0
    9.3960    4.8460  -60.1530 C   0  0  0  0  0  0  0  0  0  0  0  0
   10.6750    4.2930  -59.5270 C   0  0  1  0  0  0  0  0  0  0  0  0
   10.8680    5.2620  -58.3660 C   0  0  0  0  0  0  0  0  0  0  0  0
    9.4850    5.1940  -57.7130 C   0  0  2  0  0  0  0  0  0  0  0  0
    9.4160    3.8660  -56.9380 C   0  0  0  0  0  0  0  0  0  0  0  0
   10.4890    2.8560  -58.9950 C   0  0  0  0  0  0  0  0  0  0  0  0
    9.6670   -0.6750  -54.9760 C   0  0  0  0  0  0  0  0  0  0  0  0
    8.6220    0.0110  -54.4450 N   0  0  0  0  0  0  0  0  0  0  0  0
    7.9200   -0.6900  -53.5040 C   0  0  0  0  0  0  0  0  0  0  0  0
    6.7790    0.0800  -52.9000 C   0  0  0  0  0  0  0  0  0  0  0  0
    8.2390   -2.0100  -53.1130 C   0  0  0  0  0  0  0  0  0  0  0  0
    7.4840   -2.7910  -52.0980 C   0  0  0  0  0  0  0  0  0  0  0  0
    7.7290   -2.6390  -50.7290 C   0  0  0  0  0  0  0  0  0  0  0  0
    7.0150   -3.4030  -49.8080 C   0  0  0  0  0  0  0  0  0  0  0  0
    6.0720   -4.3120  -50.2670 C   0  0  0  0  0  0  0  0  0  0  0  0
    5.8850   -4.4170  -51.6320 C   0  0  0  0  0  0  0  0  0  0  0  0
    6.5620   -3.6840  -52.5460 N   0  0  0  0  0  0  0  0  0  0  0  0
    9.3040   -2.6840  -53.6460 N   0  0  0  0  0  0  0  0  0  0  0  0
    9.9700   -1.9660  -54.5720 C   0  0  0  0  0  0  0  0  0  0  0  0
   12.4815   -6.2388  -55.5723 H   0  0  0  0  0  0  0  0  0  0  0  0
   11.5584   -6.5605  -57.0793 H   0  0  0  0  0  0  0  0  0  0  0  0
   12.8835   -5.3477  -57.0793 H   0  0  0  0  0  0  0  0  0  0  0  0
   10.7364   -4.1918  -57.0237 H   0  0  0  0  0  0  0  0  0  0  0  0
   10.2269   -5.1725  -55.5892 H   0  0  0  0  0  0  0  0  0  0  0  0
   11.5987   -4.0292  -54.1353 H   0  0  0  0  0  0  0  0  0  0  0  0
   12.7584   -3.5593  -55.4519 H   0  0  0  0  0  0  0  0  0  0  0  0
   12.3220   -1.4112  -56.8187 H   0  0  0  0  0  0  0  0  0  0  0  0
    8.6960    0.8670  -57.0110 H   0  0  0  0  0  0  0  0  0  0  0  0
    8.0270    2.2678  -59.6047 H   0  0  0  0  0  0  0  0  0  0  0  0
    7.2581    2.1822  -57.9515 H   0  0  0  0  0  0  0  0  0  0  0  0
    6.7504    4.1763  -59.6630 H   0  0  0  0  0  0  0  0  0  0  0  0
    6.8344    4.3953  -57.8579 H   0  0  0  0  0  0  0  0  0  0  0  0
    7.6754    7.0357  -58.1348 H   0  0  0  0  0  0  0  0  0  0  0  0
    8.5711    7.2348  -59.6790 H   0  0  0  0  0  0  0  0  0  0  0  0
    6.9345    6.4944  -59.6790 H   0  0  0  0  0  0  0  0  0  0  0  0
    8.9099    4.0870  -60.7836 H   0  0  0  0  0  0  0  0  0  0  0  0
    9.5849    5.7101  -60.8070 H   0  0  0  0  0  0  0  0  0  0  0  0
   11.5166    4.2255  -60.2321 H   0  0  0  0  0  0  0  0  0  0  0  0
   11.6580    4.9220  -57.6803 H   0  0  0  0  0  0  0  0  0  0  0  0
   11.1866    6.2728  -58.6607 H   0  0  0  0  0  0  0  0  0  0  0  0
    9.2522    6.0069  -57.0094 H   0  0  0  0  0  0  0  0  0  0  0  0
   10.3124    3.7612  -56.3091 H   0  0  0  0  0  0  0  0  0  0  0  0
    8.5192    3.8586  -56.3011 H   0  0  0  0  0  0  0  0  0  0  0  0
   10.2622    2.2015  -59.8495 H   0  0  0  0  0  0  0  0  0  0  0  0
   11.4258    2.5920  -58.4825 H   0  0  0  0  0  0  0  0  0  0  0  0
    6.8461    0.0347  -51.8030 H   0  0  0  0  0  0  0  0  0  0  0  0
    6.8304    1.1289  -53.2275 H   0  0  0  0  0  0  0  0  0  0  0  0
    5.8256   -0.3601  -53.2275 H   0  0  0  0  0  0  0  0  0  0  0  0
    8.4834   -1.9182  -50.3805 H   0  0  0  0  0  0  0  0  0  0  0  0
    7.1967   -3.2870  -48.7293 H   0  0  0  0  0  0  0  0  0  0  0  0
    5.4915   -4.9297  -49.5659 H   0  0  0  0  0  0  0  0  0  0  0  0
    5.1410   -5.1400  -51.9977 H   0  0  0  0  0  0  0  0  0  0  0  0
  1  2  1  0
  2  3  1  0
  3  4  1  0
  4  5  1  0
  5  6  2  0
  6  7  1  0
  7  8  2  0
  7  9  1  0
 10  9  1  1
 10 11  1  0
 11 12  1  0
 12 13  1  0
 13 14  1  6
 13 15  1  0
 15 16  1  0
 16 17  1  0
 17 18  1  0
 18 19  1  0
 16 20  1  0
  6 21  1  0
 21 22  1  0
 22 23  2  0
 23 24  1  0
 23 25  1  0
 25 26  1  0
 26 27  2  0
 27 28  1  0
 28 29  2  0
 29 30  1  0
 30 31  2  0
 25 32  2  0
 32 33  1  0
 33  4  1  0
 19 10  1  0
 33 21  2  0
 20 10  1  0
 31 26  1  0
 18 13  1  0
  1 34  1  0
  1 35  1  0
  1 36  1  0
  2 37  1  0
  2 38  1  0
  3 39  1  0
  3 40  1  0
  5 41  1  0
  9 42  1  0
 11 43  1  0
 11 44  1  0
 12 45  1  0
 12 46  1  0
 14 47  1  0
 14 48  1  0
 14 49  1  0
 15 50  1  0
 15 51  1  0
 16 52  1  6
 17 53  1  0
 17 54  1  0
 18 55  1  1
 19 56  1  0
 19 57  1  0
 20 58  1  0
 20 59  1  0
 24 60  1  0
 24 61  1  0
 24 62  1  0
 27 63  1  0
 28 64  1  0
 29 65  1  0
 30 66  1  0
M  END
>  <meeko>  (38) 
{"is_sidechain": false}

$$$$

     RDKit          3D

 64 68  0  0  0  0  0  0  0  0999 V2000
    5.8010    0.3900  -53.3920 C   0  0  0  0  0  0  0  0  0  0  0  0
    7.1100   -0.2630  -53.6690 C   0  0  0  0  0  0  0  0  0  0  0  0
    7.6260   -1.3330  -52.9570 C   0  0  0  0  0  0  0  0  0  0  0  0
    8.8770   -1.6080  -53.4330 N   0  0  0  0  0  0  0  0  0  0  0  0
    9.7590   -2.6390  -52.9250 C   0  0  0  0  0  0  0  0  0  0  0  0
   10.1700   -3.6870  -53.9690 C   0  0  1  0  0  0  0  0  0  0  0  0
    9.1510   -3.7260  -54.9820 O   0  0  0  0  0  0  0  0  0  0  0  0
   11.5390   -3.3830  -54.6070 C   0  0  0  0  0  0  0  0  0  0  0  0
   11.7310   -4.0760  -55.9350 C   0  0  0  0  0  0  0  0  0  0  0  0
   11.9240   -5.4630  -56.0070 C   0  0  0  0  0  0  0  0  0  0  0  0
   12.1020   -6.0740  -57.2470 C   0  0  0  0  0  0  0  0  0  0  0  0
   12.2880   -7.4000  -57.3030 F   0  0  0  0  0  0  0  0  0  0  0  0
   12.0920   -5.3350  -58.4250 C   0  0  0  0  0  0  0  0  0  0  0  0
   11.8990   -3.9570  -58.3650 C   0  0  0  0  0  0  0  0  0  0  0  0
   11.7210   -3.3410  -57.1270 C   0  0  0  0  0  0  0  0  0  0  0  0
   11.5360   -2.0140  -57.0880 F   0  0  0  0  0  0  0  0  0  0  0  0
    9.1650   -0.7640  -54.4660 C   0  0  0  0  0  0  0  0  0  0  0  0
    8.0890    0.0880  -54.6650 C   0  0  0  0  0  0  0  0  0  0  0  0
    8.0810    1.1240  -55.7020 C   0  0  0  0  0  0  0  0  0  0  0  0
    7.0360    1.5870  -56.1470 O   0  0  0  0  0  0  0  0  0  0  0  0
    9.3310    1.5620  -56.0790 N   0  0  0  0  0  0  0  0  0  0  0  0
    9.5700    2.6630  -57.0210 C   0  0  1  0  0  0  0  0  0  0  0  0
   11.0920    2.8570  -57.2420 C   0  0  0  0  0  0  0  0  0  0  0  0
   11.4380    3.4090  -58.6310 C   0  0  0  0  0  0  0  0  0  0  0  0
   10.3230    4.2920  -59.2140 C   0  0  2  0  0  0  0  0  0  0  0  0
   10.7480    4.8260  -60.5850 C   0  0  0  0  0  0  0  0  0  0  0  0
   10.0200    5.4670  -58.2460 C   0  0  0  0  0  0  0  0  0  0  0  0
    8.7020    5.0720  -57.5810 C   0  0  1  0  0  0  0  0  0  0  0  0
    7.9400    4.5060  -58.7740 C   0  0  0  0  0  0  0  0  0  0  0  0
    8.9670    3.5100  -59.3160 C   0  0  2  0  0  0  0  0  0  0  0  0
    8.9450    2.2860  -58.3830 C   0  0  0  0  0  0  0  0  0  0  0  0
    8.8970    3.9790  -56.5070 C   0  0  0  0  0  0  0  0  0  0  0  0
    5.6513    0.4647  -52.3048 H   0  0  0  0  0  0  0  0  0  0  0  0
    5.7932    1.3976  -53.8333 H   0  0  0  0  0  0  0  0  0  0  0  0
    4.9914   -0.2098  -53.8333 H   0  0  0  0  0  0  0  0  0  0  0  0
    7.1148   -1.8709  -52.1450 H   0  0  0  0  0  0  0  0  0  0  0  0
   10.6708   -2.1558  -52.5439 H   0  0  0  0  0  0  0  0  0  0  0  0
    9.2012   -3.1745  -52.1426 H   0  0  0  0  0  0  0  0  0  0  0  0
   10.2706   -4.6610  -53.4678 H   0  0  0  0  0  0  0  0  0  0  0  0
    9.0760   -4.6370  -55.3130 H   0  0  0  0  0  0  0  0  0  0  0  0
   11.6216   -2.2971  -54.7618 H   0  0  0  0  0  0  0  0  0  0  0  0
   12.3145   -3.7570  -53.9224 H   0  0  0  0  0  0  0  0  0  0  0  0
   11.9349   -6.0670  -55.0877 H   0  0  0  0  0  0  0  0  0  0  0  0
   12.2351   -5.8340  -59.3948 H   0  0  0  0  0  0  0  0  0  0  0  0
   11.8871   -3.3588  -59.2880 H   0  0  0  0  0  0  0  0  0  0  0  0
   10.0992   -0.7601  -55.0467 H   0  0  0  0  0  0  0  0  0  0  0  0
   10.0840    1.3170  -55.4530 H   0  0  0  0  0  0  0  0  0  0  0  0
   11.4682    3.5593  -56.4835 H   0  0  0  0  0  0  0  0  0  0  0  0
   11.5622    1.8661  -57.1588 H   0  0  0  0  0  0  0  0  0  0  0  0
   12.3567    4.0088  -58.5523 H   0  0  0  0  0  0  0  0  0  0  0  0
   11.5687    2.5505  -59.3062 H   0  0  0  0  0  0  0  0  0  0  0  0
   11.4279    5.6803  -60.4511 H   0  0  0  0  0  0  0  0  0  0  0  0
   11.2634    4.0313  -61.1443 H   0  0  0  0  0  0  0  0  0  0  0  0
    9.8579    5.1499  -61.1443 H   0  0  0  0  0  0  0  0  0  0  0  0
   10.8190    5.5720  -57.4973 H   0  0  0  0  0  0  0  0  0  0  0  0
    9.9578    6.4354  -58.7641 H   0  0  0  0  0  0  0  0  0  0  0  0
    8.2080    5.9010  -57.0531 H   0  0  0  0  0  0  0  0  0  0  0  0
    7.0127    4.0033  -58.4618 H   0  0  0  0  0  0  0  0  0  0  0  0
    7.6045    5.2593  -59.5020 H   0  0  0  0  0  0  0  0  0  0  0  0
    8.7881    3.1555  -60.3418 H   0  0  0  0  0  0  0  0  0  0  0  0
    7.9055    1.9596  -58.2313 H   0  0  0  0  0  0  0  0  0  0  0  0
    9.5242    1.4688  -58.8377 H   0  0  0  0  0  0  0  0  0  0  0  0
    9.5267    4.3948  -55.7067 H   0  0  0  0  0  0  0  0  0  0  0  0
    7.8895    3.6977  -56.1665 H   0  0  0  0  0  0  0  0  0  0  0  0
  1  2  1  0
  2  3  2  0
  3  4  1  0
  4  5  1  0
  5  6  1  0
  6  7  1  0
  6  8  1  0
  8  9  1  0
  9 10  1  0
 10 11  2  0
 11 12  1  0
 11 13  1  0
 13 14  2  0
 14 15  1  0
 15 16  1  0
  4 17  1  0
 17 18  2  0
 18 19  1  0
 19 20  2  0
 19 21  1  0
 22 21  1  1
 22 23  1  0
 23 24  1  0
 24 25  1  0
 25 26  1  6
 25 27  1  0
 27 28  1  0
 28 29  1  0
 29 30  1  0
 30 31  1  0
 28 32  1  0
 18  2  1  0
 31 22  1  0
 15  9  2  0
 32 22  1  0
 30 25  1  0
  1 33  1  0
  1 34  1  0
  1 35  1  0
  3 36  1  0
  5 37  1  0
  5 38  1  0
  6 39  1  1
  7 40  1  0
  8 41  1  0
  8 42  1  0
 10 43  1  0
 13 44  1  0
 14 45  1  0
 17 46  1  0
 21 47  1  0
 23 48  1  0
 23 49  1  0
 24 50  1  0
 24 51  1  0
 26 52  1  0
 26 53  1  0
 26 54  1  0
 27 55  1  0
 27 56  1  0
 28 57  1  1
 29 58  1  0
 29 59  1  0
 30 60  1  6
 31 61  1  0
 31 62  1  0
 32 63  1  0
 32 64  1  0
M  END
>  <meeko>  (39) 
{"is_sidechain": false}

$$$$

     RDKit          3D

 72 76  0  0  0  0  0  0  0  0999 V2000
    6.6570    0.2220  -53.4450 C   0  0  0  0  0  0  0  0  0  0  0  0
    7.8360   -0.5790  -53.8880 C   0  0  0  0  0  0  0  0  0  0  0  0
    8.7390   -0.2220  -54.9510 C   0  0  0  0  0  0  0  0  0  0  0  0
    8.6710    0.9730  -55.8040 C   0  0  0  0  0  0  0  0  0  0  0  0
    7.6200    1.5720  -56.0070 O   0  0  0  0  0  0  0  0  0  0  0  0
    9.8820    1.3780  -56.3290 N   0  0  0  0  0  0  0  0  0  0  0  0
   10.0690    2.5880  -57.1410 C   0  0  1  0  0  0  0  0  0  0  0  0
   11.5810    2.8660  -57.3410 C   0  0  0  0  0  0  0  0  0  0  0  0
   11.8960    3.5880  -58.6580 C   0  0  0  0  0  0  0  0  0  0  0  0
   10.7420    4.4870  -59.1310 C   0  0  2  0  0  0  0  0  0  0  0  0
   11.1390    5.1930  -60.4340 C   0  0  0  0  0  0  0  0  0  0  0  0
   10.4010    5.5300  -58.0340 C   0  0  0  0  0  0  0  0  0  0  0  0
    9.1030    5.0080  -57.4170 C   0  0  1  0  0  0  0  0  0  0  0  0
    8.3560    4.5540  -58.6670 C   0  0  0  0  0  0  0  0  0  0  0  0
    9.4190    3.6680  -59.3210 C   0  0  2  0  0  0  0  0  0  0  0  0
    9.4510    2.3450  -58.5370 C   0  0  0  0  0  0  0  0  0  0  0  0
    9.3480    3.8070  -56.4770 C   0  0  0  0  0  0  0  0  0  0  0  0
    9.6690   -1.2470  -55.0230 C   0  0  0  0  0  0  0  0  0  0  0  0
    9.3710   -2.1850  -54.0670 N   0  0  0  0  0  0  0  0  0  0  0  0
   10.1400   -3.4110  -53.8680 C   0  0  0  0  0  0  0  0  0  0  0  0
   11.4670   -3.3820  -54.6310 C   0  0  0  0  0  0  0  0  0  0  0  0
   11.4880   -4.1820  -55.9580 C   0  0  0  0  0  0  0  0  0  0  0  0
   11.8300   -3.2670  -57.1480 C   0  0  0  0  0  0  0  0  0  0  0  0
   12.5780   -5.2670  -55.8500 C   0  0  0  0  0  0  0  0  0  0  0  0
   10.1370   -4.8680  -56.2170 C   0  0  0  0  0  0  0  0  0  0  0  0
    8.2600   -1.7930  -53.3560 C   0  0  0  0  0  0  0  0  0  0  0  0
    7.6760   -2.5780  -52.2690 C   0  0  0  0  0  0  0  0  0  0  0  0
    6.7460   -3.5860  -52.5470 C   0  0  0  0  0  0  0  0  0  0  0  0
    6.1810   -4.3270  -51.5080 C   0  0  0  0  0  0  0  0  0  0  0  0
    6.5480   -4.0670  -50.1870 C   0  0  0  0  0  0  0  0  0  0  0  0
    7.4820   -3.0710  -49.9050 C   0  0  0  0  0  0  0  0  0  0  0  0
    8.0480   -2.3300  -50.9440 C   0  0  0  0  0  0  0  0  0  0  0  0
    6.6220    0.2458  -52.3458 H   0  0  0  0  0  0  0  0  0  0  0  0
    6.7448    1.2482  -53.8314 H   0  0  0  0  0  0  0  0  0  0  0  0
    5.7353   -0.2377  -53.8314 H   0  0  0  0  0  0  0  0  0  0  0  0
   10.7080    0.9360  -55.9530 H   0  0  0  0  0  0  0  0  0  0  0  0
   11.9346    3.4904  -56.5072 H   0  0  0  0  0  0  0  0  0  0  0  0
   12.0901    1.8915  -57.3737 H   0  0  0  0  0  0  0  0  0  0  0  0
   12.7909    4.2109  -58.5128 H   0  0  0  0  0  0  0  0  0  0  0  0
   12.0567    2.8196  -59.4286 H   0  0  0  0  0  0  0  0  0  0  0  0
   11.6656    6.1295  -60.1979 H   0  0  0  0  0  0  0  0  0  0  0  0
   11.8009    4.5376  -61.0192 H   0  0  0  0  0  0  0  0  0  0  0  0
   10.2352    5.4181  -61.0192 H   0  0  0  0  0  0  0  0  0  0  0  0
   11.2001    5.5794  -57.2797 H   0  0  0  0  0  0  0  0  0  0  0  0
   10.2986    6.5488  -58.4360 H   0  0  0  0  0  0  0  0  0  0  0  0
    8.5796    5.7497  -56.7958 H   0  0  0  0  0  0  0  0  0  0  0  0
    7.4507    3.9826  -58.4140 H   0  0  0  0  0  0  0  0  0  0  0  0
    7.9868    5.3722  -59.3028 H   0  0  0  0  0  0  0  0  0  0  0  0
    9.2485    3.4265  -60.3805 H   0  0  0  0  0  0  0  0  0  0  0  0
    8.4263    1.9617  -58.4227 H   0  0  0  0  0  0  0  0  0  0  0  0
   10.0588    1.6093  -59.0840 H   0  0  0  0  0  0  0  0  0  0  0  0
    9.9659    4.1524  -55.6350 H   0  0  0  0  0  0  0  0  0  0  0  0
    8.3547    3.4481  -56.1694 H   0  0  0  0  0  0  0  0  0  0  0  0
   10.5091   -1.2999  -55.7311 H   0  0  0  0  0  0  0  0  0  0  0  0
   10.3493   -3.5293  -52.7946 H   0  0  0  0  0  0  0  0  0  0  0  0
    9.5447   -4.2531  -54.2508 H   0  0  0  0  0  0  0  0  0  0  0  0
   11.7020   -2.3328  -54.8634 H   0  0  0  0  0  0  0  0  0  0  0  0
   12.2052   -3.8651  -53.9740 H   0  0  0  0  0  0  0  0  0  0  0  0
   12.1921   -2.2982  -56.7734 H   0  0  0  0  0  0  0  0  0  0  0  0
   12.6124   -3.7390  -57.7604 H   0  0  0  0  0  0  0  0  0  0  0  0
   10.9298   -3.1101  -57.7604 H   0  0  0  0  0  0  0  0  0  0  0  0
   12.7857   -5.4738  -54.7898 H   0  0  0  0  0  0  0  0  0  0  0  0
   12.2294   -6.1872  -56.3416 H   0  0  0  0  0  0  0  0  0  0  0  0
   13.4966   -4.9141  -56.3416 H   0  0  0  0  0  0  0  0  0  0  0  0
    9.6589   -5.1107  -55.2565 H   0  0  0  0  0  0  0  0  0  0  0  0
    9.4860   -4.1913  -56.7899 H   0  0  0  0  0  0  0  0  0  0  0  0
   10.2993   -5.7929  -56.7899 H   0  0  0  0  0  0  0  0  0  0  0  0
    6.4592   -3.7951  -53.5882 H   0  0  0  0  0  0  0  0  0  0  0  0
    5.4469   -5.1155  -51.7302 H   0  0  0  0  0  0  0  0  0  0  0  0
    6.1001   -4.6483  -49.3676 H   0  0  0  0  0  0  0  0  0  0  0  0
    7.7730   -2.8690  -48.8636 H   0  0  0  0  0  0  0  0  0  0  0  0
    8.7890   -1.5486  -50.7197 H   0  0  0  0  0  0  0  0  0  0  0  0
  1  2  1  0
  2  3  1  0
  3  4  1  0
  4  5  2  0
  4  6  1  0
  7  6  1  1
  7  8  1  0
  8  9  1  0
  9 10  1  0
 10 11  1  6
 10 12  1  0
 12 13  1  0
 13 14  1  0
 14 15  1  0
 15 16  1  0
 13 17  1  0
  3 18  2  0
 18 19  1  0
 19 20  1  0
 20 21  1  0
 21 22  1  0
 22 23  1  0
 22 24  1  0
 22 25  1  0
 19 26  1  0
 26 27  1  0
 27 28  2  0
 28 29  1  0
 29 30  2  0
 30 31  1  0
 31 32  2  0
 26  2  2  0
 32 27  1  0
 16  7  1  0
 17  7  1  0
 15 10  1  0
  1 33  1  0
  1 34  1  0
  1 35  1  0
  6 36  1  0
  8 37  1  0
  8 38  1  0
  9 39  1  0
  9 40  1  0
 11 41  1  0
 11 42  1  0
 11 43  1  0
 12 44  1  0
 12 45  1  0
 13 46  1  1
 14 47  1  0
 14 48  1  0
 15 49  1  6
 16 50  1  0
 16 51  1  0
 17 52  1  0
 17 53  1  0
 18 54  1  0
 20 55  1  0
 20 56  1  0
 21 57  1  0
 21 58  1  0
 23 59  1  0
 23 60  1  0
 23 61  1  0
 24 62  1  0
 24 63  1  0
 24 64  1  0
 25 65  1  0
 25 66  1  0
 25 67  1  0
 28 68  1  0
 29 69  1  0
 30 70  1  0
 31 71  1  0
 32 72  1  0
M  END
>  <meeko>  (40) 
{"is_sidechain": false}

$$$$

     RDKit          3D

 74 79  0  0  0  0  0  0  0  0999 V2000
    7.1880    0.3440  -53.3610 C   0  0  0  0  0  0  0  0  0  0  0  0
    8.3000   -0.3390  -54.0850 C   0  0  0  0  0  0  0  0  0  0  0  0
    9.0340    0.1670  -55.2160 C   0  0  0  0  0  0  0  0  0  0  0  0
    8.8920    1.4120  -55.9780 C   0  0  0  0  0  0  0  0  0  0  0  0
    8.0210    2.2340  -55.7210 O   0  0  0  0  0  0  0  0  0  0  0  0
    9.8530    1.5880  -56.9500 N   0  0  0  0  0  0  0  0  0  0  0  0
    9.9870    2.7840  -57.7950 C   0  0  1  0  0  0  0  0  0  0  0  0
   10.7280    3.9120  -57.0290 C   0  0  0  0  0  0  0  0  0  0  0  0
   11.4620    4.8840  -57.9630 C   0  0  0  0  0  0  0  0  0  0  0  0
   10.7580    5.0440  -59.3210 C   0  0  2  0  0  0  0  0  0  0  0  0
   11.5230    6.0550  -60.1840 C   0  0  0  0  0  0  0  0  0  0  0  0
    9.2970    5.5160  -59.1000 C   0  0  0  0  0  0  0  0  0  0  0  0
    8.4610    4.2600  -59.3450 C   0  0  1  0  0  0  0  0  0  0  0  0
    9.1710    3.6800  -60.5620 C   0  0  0  0  0  0  0  0  0  0  0  0
   10.6180    3.6680  -60.0640 C   0  0  2  0  0  0  0  0  0  0  0  0
   10.7590    2.4790  -59.0960 C   0  0  0  0  0  0  0  0  0  0  0  0
    8.5410    3.2630  -58.1680 C   0  0  0  0  0  0  0  0  0  0  0  0
   10.0060   -0.7750  -55.4960 C   0  0  0  0  0  0  0  0  0  0  0  0
    9.8830   -1.8250  -54.6250 N   0  0  0  0  0  0  0  0  0  0  0  0
   10.7470   -2.9980  -54.6640 C   0  0  0  0  0  0  0  0  0  0  0  0
   10.6610   -3.8000  -55.9800 C   0  0  2  0  0  0  0  0  0  0  0  0
   11.0650   -5.2720  -55.7490 C   0  0  0  0  0  0  0  0  0  0  0  0
   12.5160   -5.5460  -56.1410 C   0  0  0  0  0  0  0  0  0  0  0  0
   12.7620   -5.2540  -57.6260 C   0  0  1  0  0  0  0  0  0  0  0  0
   12.5320   -6.4320  -58.3970 O   0  0  0  0  0  0  0  0  0  0  0  0
   11.8600   -4.1470  -58.1810 C   0  0  0  0  0  0  0  0  0  0  0  0
   11.4910   -3.1410  -57.1000 C   0  0  0  0  0  0  0  0  0  0  0  0
    8.8220   -1.5950  -53.7740 C   0  0  0  0  0  0  0  0  0  0  0  0
    8.3920   -2.5290  -52.7350 C   0  0  0  0  0  0  0  0  0  0  0  0
    9.0080   -2.5220  -51.4780 C   0  0  0  0  0  0  0  0  0  0  0  0
    8.5940   -3.4150  -50.4880 C   0  0  0  0  0  0  0  0  0  0  0  0
    7.5610   -4.3140  -50.7460 C   0  0  0  0  0  0  0  0  0  0  0  0
    6.9370   -4.3210  -51.9920 C   0  0  0  0  0  0  0  0  0  0  0  0
    7.3490   -3.4290  -52.9850 C   0  0  0  0  0  0  0  0  0  0  0  0
    7.3435    0.2485  -52.2762 H   0  0  0  0  0  0  0  0  0  0  0  0
    7.1705    1.4088  -53.6366 H   0  0  0  0  0  0  0  0  0  0  0  0
    6.2304   -0.1218  -53.6366 H   0  0  0  0  0  0  0  0  0  0  0  0
   10.6450    0.9630  -56.8960 H   0  0  0  0  0  0  0  0  0  0  0  0
    9.9919    4.4790  -56.4403 H   0  0  0  0  0  0  0  0  0  0  0  0
   11.4840    3.4350  -56.3879 H   0  0  0  0  0  0  0  0  0  0  0  0
   11.5153    5.8686  -57.4755 H   0  0  0  0  0  0  0  0  0  0  0  0
   12.4636    4.4711  -58.1534 H   0  0  0  0  0  0  0  0  0  0  0  0
   12.0580    6.7621  -59.5330 H   0  0  0  0  0  0  0  0  0  0  0  0
   12.2460    5.5221  -60.8190 H   0  0  0  0  0  0  0  0  0  0  0  0
   10.8136    6.6060  -60.8190 H   0  0  0  0  0  0  0  0  0  0  0  0
    9.1565    5.8850  -58.0733 H   0  0  0  0  0  0  0  0  0  0  0  0
    9.0160    6.3474  -59.7632 H   0  0  0  0  0  0  0  0  0  0  0  0
    7.3877    4.4661  -59.4696 H   0  0  0  0  0  0  0  0  0  0  0  0
    8.8137    2.6661  -60.7952 H   0  0  0  0  0  0  0  0  0  0  0  0
    9.0127    4.2413  -61.4947 H   0  0  0  0  0  0  0  0  0  0  0  0
   11.3858    3.5555  -60.8436 H   0  0  0  0  0  0  0  0  0  0  0  0
   10.3460    1.5734  -59.5643 H   0  0  0  0  0  0  0  0  0  0  0  0
   11.8221    2.3179  -58.8637 H   0  0  0  0  0  0  0  0  0  0  0  0
    8.1038    3.7467  -57.2821 H   0  0  0  0  0  0  0  0  0  0  0  0
    7.9961    2.3641  -58.4921 H   0  0  0  0  0  0  0  0  0  0  0  0
   10.7598   -0.6942  -56.2930 H   0  0  0  0  0  0  0  0  0  0  0  0
   11.7869   -2.6658  -54.5291 H   0  0  0  0  0  0  0  0  0  0  0  0
   10.4080   -3.6688  -53.8608 H   0  0  0  0  0  0  0  0  0  0  0  0
    9.6141   -3.7920  -56.3175 H   0  0  0  0  0  0  0  0  0  0  0  0
   10.9360   -5.5106  -54.6830 H   0  0  0  0  0  0  0  0  0  0  0  0
   10.4219   -5.8998  -56.3833 H   0  0  0  0  0  0  0  0  0  0  0  0
   13.1763   -4.9064  -55.5369 H   0  0  0  0  0  0  0  0  0  0  0  0
   12.7275   -6.6100  -55.9590 H   0  0  0  0  0  0  0  0  0  0  0  0
   13.8064   -4.9171  -57.7014 H   0  0  0  0  0  0  0  0  0  0  0  0
   12.1610   -7.1060  -57.8020 H   0  0  0  0  0  0  0  0  0  0  0  0
   12.3906   -3.6246  -58.9907 H   0  0  0  0  0  0  0  0  0  0  0  0
   10.9348   -4.6084  -58.5566 H   0  0  0  0  0  0  0  0  0  0  0  0
   12.4132   -2.7270  -56.6661 H   0  0  0  0  0  0  0  0  0  0  0  0
   10.8850   -2.3457  -57.5586 H   0  0  0  0  0  0  0  0  0  0  0  0
    9.8208   -1.8107  -51.2697 H   0  0  0  0  0  0  0  0  0  0  0  0
    9.0838   -3.4090  -49.5031 H   0  0  0  0  0  0  0  0  0  0  0  0
    7.2379   -5.0186  -49.9656 H   0  0  0  0  0  0  0  0  0  0  0  0
    6.1198   -5.0291  -52.1937 H   0  0  0  0  0  0  0  0  0  0  0  0
    6.8524   -3.4337  -53.9665 H   0  0  0  0  0  0  0  0  0  0  0  0
  1  2  1  0
  2  3  1  0
  3  4  1  0
  4  5  2  0
  4  6  1  0
  7  6  1  1
  7  8  1  0
  8  9  1  0
  9 10  1  0
 10 11  1  6
 10 12  1  0
 12 13  1  0
 13 14  1  0
 14 15  1  0
 15 16  1  0
 13 17  1  0
  3 18  2  0
 18 19  1  0
 19 20  1  0
 20 21  1  0
 21 22  1  0
 22 23  1  0
 23 24  1  0
 24 25  1  0
 24 26  1  0
 26 27  1  0
 19 28  1  0
 28 29  1  0
 29 30  2  0
 30 31  1  0
 31 32  2  0
 32 33  1  0
 33 34  2  0
 28  2  2  0
 34 29  1  0
 16  7  1  0
 27 21  1  0
 17  7  1  0
 15 10  1  0
  1 35  1  0
  1 36  1  0
  1 37  1  0
  6 38  1  0
  8 39  1  0
  8 40  1  0
  9 41  1  0
  9 42  1  0
 11 43  1  0
 11 44  1  0
 11 45  1  0
 12 46  1  0
 12 47  1  0
 13 48  1  6
 14 49  1  0
 14 50  1  0
 15 51  1  6
 16 52  1  0
 16 53  1  0
 17 54  1  0
 17 55  1  0
 18 56  1  0
 20 57  1  0
 20 58  1  0
 21 59  1  1
 22 60  1  0
 22 61  1  0
 23 62  1  0
 23 63  1  0
 24 64  1  6
 25 65  1  0
 26 66  1  0
 26 67  1  0
 27 68  1  0
 27 69  1  0
 30 70  1  0
 31 71  1  0
 32 72  1  0
 33 73  1  0
 34 74  1  0
M  END
>  <meeko>  (41) 
{"is_sidechain": false}

$$$$

     RDKit          3D

 66 70  0  0  0  0  0  0  0  0999 V2000
   12.7140   -5.5690  -56.0880 C   0  0  0  0  0  0  0  0  0  0  0  0
   11.6410   -4.7890  -56.2870 C   0  0  0  0  0  0  0  0  0  0  0  0
   11.5000   -4.0910  -57.5980 C   0  0  0  0  0  0  0  0  0  0  0  0
   12.0740   -3.0460  -57.8770 O   0  0  0  0  0  0  0  0  0  0  0  0
   10.5860   -4.5360  -55.2440 C   0  0  0  0  0  0  0  0  0  0  0  0
   10.9240   -3.4220  -54.2480 C   0  0  0  0  0  0  0  0  0  0  0  0
   10.0560   -2.2570  -54.3530 N   0  0  0  0  0  0  0  0  0  0  0  0
   10.2320   -1.2650  -55.2870 C   0  0  0  0  0  0  0  0  0  0  0  0
    9.2670   -0.2900  -55.0950 C   0  0  0  0  0  0  0  0  0  0  0  0
    9.1140    0.9630  -55.8480 C   0  0  0  0  0  0  0  0  0  0  0  0
    8.0250    1.5060  -55.9920 O   0  0  0  0  0  0  0  0  0  0  0  0
   10.2870    1.4510  -56.3910 N   0  0  0  0  0  0  0  0  0  0  0  0
   10.3790    2.6230  -57.2740 C   0  0  1  0  0  0  0  0  0  0  0  0
   11.8630    2.9970  -57.5200 C   0  0  0  0  0  0  0  0  0  0  0  0
   12.0800    3.7430  -58.8440 C   0  0  0  0  0  0  0  0  0  0  0  0
   10.8640    4.5920  -59.2530 C   0  0  2  0  0  0  0  0  0  0  0  0
   11.1670    5.3310  -60.5610 C   0  0  0  0  0  0  0  0  0  0  0  0
   10.5290    5.6040  -58.1250 C   0  0  0  0  0  0  0  0  0  0  0  0
    9.2930    5.0100  -57.4520 C   0  0  1  0  0  0  0  0  0  0  0  0
    8.5020    4.5430  -58.6680 C   0  0  0  0  0  0  0  0  0  0  0  0
    9.5680    3.7180  -59.3920 C   0  0  2  0  0  0  0  0  0  0  0  0
    9.7000    2.3800  -58.6410 C   0  0  0  0  0  0  0  0  0  0  0  0
    9.6370    3.8030  -56.5550 C   0  0  0  0  0  0  0  0  0  0  0  0
    8.4590   -0.7440  -53.9940 C   0  0  0  0  0  0  0  0  0  0  0  0
    7.2880   -0.0140  -53.4220 C   0  0  0  0  0  0  0  0  0  0  0  0
    8.9560   -1.9730  -53.5730 C   0  0  0  0  0  0  0  0  0  0  0  0
    8.4730   -2.8390  -52.5000 C   0  0  0  0  0  0  0  0  0  0  0  0
    7.5280   -3.8340  -52.7690 C   0  0  0  0  0  0  0  0  0  0  0  0
    7.0460   -4.6430  -51.7390 C   0  0  0  0  0  0  0  0  0  0  0  0
    7.5200   -4.4740  -50.4380 C   0  0  0  0  0  0  0  0  0  0  0  0
    8.4770   -3.4970  -50.1670 C   0  0  0  0  0  0  0  0  0  0  0  0
    8.9540   -2.6820  -51.1950 C   0  0  0  0  0  0  0  0  0  0  0  0
   12.8418   -6.0948  -55.1303 H   0  0  0  0  0  0  0  0  0  0  0  0
   13.4662   -5.6829  -56.8825 H   0  0  0  0  0  0  0  0  0  0  0  0
   10.8431   -4.5407  -58.3571 H   0  0  0  0  0  0  0  0  0  0  0  0
    9.6532   -4.2633  -55.7594 H   0  0  0  0  0  0  0  0  0  0  0  0
   10.5014   -5.4623  -54.6568 H   0  0  0  0  0  0  0  0  0  0  0  0
   10.8369   -3.8289  -53.2297 H   0  0  0  0  0  0  0  0  0  0  0  0
   11.9446   -3.0834  -54.4799 H   0  0  0  0  0  0  0  0  0  0  0  0
   11.0127   -1.2478  -56.0617 H   0  0  0  0  0  0  0  0  0  0  0  0
   11.0620    0.8070  -56.4080 H   0  0  0  0  0  0  0  0  0  0  0  0
   12.2043    3.6397  -56.6951 H   0  0  0  0  0  0  0  0  0  0  0  0
   12.4353    2.0590  -57.5722 H   0  0  0  0  0  0  0  0  0  0  0  0
   12.9515    4.4055  -58.7360 H   0  0  0  0  0  0  0  0  0  0  0  0
   12.2376    2.9884  -59.6287 H   0  0  0  0  0  0  0  0  0  0  0  0
   11.5753    6.3268  -60.3335 H   0  0  0  0  0  0  0  0  0  0  0  0
   11.9026    4.7576  -61.1442 H   0  0  0  0  0  0  0  0  0  0  0  0
   10.2406    5.4391  -61.1442 H   0  0  0  0  0  0  0  0  0  0  0  0
   11.3623    5.6844  -57.4115 H   0  0  0  0  0  0  0  0  0  0  0  0
   10.3563    6.6214  -58.5060 H   0  0  0  0  0  0  0  0  0  0  0  0
    8.7745    5.7174  -56.7881 H   0  0  0  0  0  0  0  0  0  0  0  0
    7.6382    3.9265  -58.3786 H   0  0  0  0  0  0  0  0  0  0  0  0
    8.0624    5.3531  -59.2684 H   0  0  0  0  0  0  0  0  0  0  0  0
    9.3522    3.4897  -60.4462 H   0  0  0  0  0  0  0  0  0  0  0  0
    8.7009    1.9479  -58.4828 H   0  0  0  0  0  0  0  0  0  0  0  0
   10.3099    1.6838  -59.2354 H   0  0  0  0  0  0  0  0  0  0  0  0
   10.2796    4.1600  -55.7367 H   0  0  0  0  0  0  0  0  0  0  0  0
    8.6747    3.3939  -56.2136 H   0  0  0  0  0  0  0  0  0  0  0  0
    7.3376   -0.0449  -52.3236 H   0  0  0  0  0  0  0  0  0  0  0  0
    7.3072    1.0324  -53.7606 H   0  0  0  0  0  0  0  0  0  0  0  0
    6.3569   -0.4919  -53.7606 H   0  0  0  0  0  0  0  0  0  0  0  0
    7.1631   -3.9796  -53.7964 H   0  0  0  0  0  0  0  0  0  0  0  0
    6.2917   -5.4145  -51.9532 H   0  0  0  0  0  0  0  0  0  0  0  0
    7.1389   -5.1112  -49.6263 H   0  0  0  0  0  0  0  0  0  0  0  0
    8.8564   -3.3683  -49.1425 H   0  0  0  0  0  0  0  0  0  0  0  0
    9.7107   -1.9135  -50.9787 H   0  0  0  0  0  0  0  0  0  0  0  0
  1  2  2  0
  2  3  1  0
  3  4  2  0
  2  5  1  0
  5  6  1  0
  6  7  1  0
  7  8  1  0
  8  9  2  0
  9 10  1  0
 10 11  2  0
 10 12  1  0
 13 12  1  1
 13 14  1  0
 14 15  1  0
 15 16  1  0
 16 17  1  6
 16 18  1  0
 18 19  1  0
 19 20  1  0
 20 21  1  0
 21 22  1  0
 19 23  1  0
  9 24  1  0
 24 25  1  0
 24 26  2  0
 26 27  1  0
 27 28  2  0
 28 29  1  0
 29 30  2  0
 30 31  1  0
 31 32  2  0
 26  7  1  0
 32 27  1  0
 22 13  1  0
 23 13  1  0
 21 16  1  0
  1 33  1  0
  1 34  1  0
  3 35  1  0
  5 36  1  0
  5 37  1  0
  6 38  1  0
  6 39  1  0
  8 40  1  0
 12 41  1  0
 14 42  1  0
 14 43  1  0
 15 44  1  0
 15 45  1  0
 17 46  1  0
 17 47  1  0
 17 48  1  0
 18 49  1  0
 18 50  1  0
 19 51  1  1
 20 52  1  0
 20 53  1  0
 21 54  1  6
 22 55  1  0
 22 56  1  0
 23 57  1  0
 23 58  1  0
 25 59  1  0
 25 60  1  0
 25 61  1  0
 28 62  1  0
 29 63  1  0
 30 64  1  0
 31 65  1  0
 32 66  1  0
M  END
>  <meeko>  (42) 
{"is_sidechain": false}

$$$$

     RDKit          3D

 76 81  0  0  0  0  0  0  0  0999 V2000
   11.2580    5.2540  -60.4470 C   0  0  0  0  0  0  0  0  0  0  0  0
   10.7920    4.5420  -59.1720 C   0  0  2  0  0  0  0  0  0  0  0  0
   11.8810    3.5720  -58.6910 C   0  0  0  0  0  0  0  0  0  0  0  0
   11.4860    2.8320  -57.4060 C   0  0  0  0  0  0  0  0  0  0  0  0
    9.9520    2.6300  -57.2480 C   0  0  1  0  0  0  0  0  0  0  0  0
    9.7500    1.4320  -56.4140 N   0  0  0  0  0  0  0  0  0  0  0  0
    8.5610    1.0430  -55.8520 C   0  0  0  0  0  0  0  0  0  0  0  0
    7.4680    1.5650  -56.0600 O   0  0  0  0  0  0  0  0  0  0  0  0
    8.6630   -0.1280  -54.9940 C   0  0  0  0  0  0  0  0  0  0  0  0
    7.6980   -0.6850  -54.1100 C   0  0  0  0  0  0  0  0  0  0  0  0
    8.3020   -1.6950  -53.3780 C   0  0  0  0  0  0  0  0  0  0  0  0
    7.7270   -2.5120  -52.3150 C   0  0  0  0  0  0  0  0  0  0  0  0
    6.9440   -3.6300  -52.6250 C   0  0  0  0  0  0  0  0  0  0  0  0
    6.3930   -4.4080  -51.6040 C   0  0  0  0  0  0  0  0  0  0  0  0
    6.6170   -4.0700  -50.2710 C   0  0  0  0  0  0  0  0  0  0  0  0
    7.3870   -2.9510  -49.9550 C   0  0  0  0  0  0  0  0  0  0  0  0
    7.9380   -2.1720  -50.9740 C   0  0  0  0  0  0  0  0  0  0  0  0
    9.6160   -1.7580  -53.7940 N   0  0  0  0  0  0  0  0  0  0  0  0
   10.6880   -2.5350  -53.1890 C   0  0  0  0  0  0  0  0  0  0  0  0
   11.4950   -3.3750  -54.1960 C   0  0  0  0  0  0  0  0  0  0  0  0
   10.6650   -4.4290  -54.9520 C   0  0  0  0  0  0  0  0  0  0  0  0
   10.4190   -4.0840  -56.4310 C   0  0  0  0  0  0  0  0  0  0  0  0
   11.4250   -4.7830  -57.3520 C   0  0  2  0  0  0  0  0  0  0  0  0
   12.0130   -6.0760  -56.7850 C   0  0  0  0  0  0  0  0  0  0  0  0
   13.3870   -5.6840  -56.2660 C   0  0  0  0  0  0  0  0  0  0  0  0
   13.8560   -4.6640  -57.2800 C   0  0  0  0  0  0  0  0  0  0  0  0
   12.6180   -3.8890  -57.5610 N   0  0  0  0  0  0  0  0  0  0  0  0
    9.8060   -0.8900  -54.8410 C   0  0  0  0  0  0  0  0  0  0  0  0
    9.3110    3.8790  -56.5590 C   0  0  0  0  0  0  0  0  0  0  0  0
    9.1510    5.1100  -57.4750 C   0  0  2  0  0  0  0  0  0  0  0  0
    8.4040    4.7230  -58.7470 C   0  0  0  0  0  0  0  0  0  0  0  0
    9.4300    3.8010  -59.4110 C   0  0  2  0  0  0  0  0  0  0  0  0
    9.3740    2.4510  -58.6700 C   0  0  0  0  0  0  0  0  0  0  0  0
   10.4840    5.5770  -58.0580 C   0  0  0  0  0  0  0  0  0  0  0  0
   11.8419    6.1461  -60.1763 H   0  0  0  0  0  0  0  0  0  0  0  0
   11.8848    4.5716  -61.0398 H   0  0  0  0  0  0  0  0  0  0  0  0
   10.3818    5.5553  -61.0398 H   0  0  0  0  0  0  0  0  0  0  0  0
   12.0666    2.8303  -59.4819 H   0  0  0  0  0  0  0  0  0  0  0  0
   12.7815    4.1643  -58.4711 H   0  0  0  0  0  0  0  0  0  0  0  0
   11.9678    1.8431  -57.4125 H   0  0  0  0  0  0  0  0  0  0  0  0
   11.8172    3.4543  -56.5616 H   0  0  0  0  0  0  0  0  0  0  0  0
   10.5840    1.0110  -56.0170 H   0  0  0  0  0  0  0  0  0  0  0  0
    6.6485   -0.3675  -54.0221 H   0  0  0  0  0  0  0  0  0  0  0  0
    6.7619   -3.8970  -53.6765 H   0  0  0  0  0  0  0  0  0  0  0  0
    5.7818   -5.2881  -51.8526 H   0  0  0  0  0  0  0  0  0  0  0  0
    6.1864   -4.6859  -49.4677 H   0  0  0  0  0  0  0  0  0  0  0  0
    7.5602   -2.6821  -48.9025 H   0  0  0  0  0  0  0  0  0  0  0  0
    8.5407   -1.2870  -50.7218 H   0  0  0  0  0  0  0  0  0  0  0  0
   11.3774   -1.8410  -52.6860 H   0  0  0  0  0  0  0  0  0  0  0  0
   10.2153   -3.2413  -52.4906 H   0  0  0  0  0  0  0  0  0  0  0  0
   11.9403   -2.6926  -54.9349 H   0  0  0  0  0  0  0  0  0  0  0  0
   12.2483   -3.9260  -53.6138 H   0  0  0  0  0  0  0  0  0  0  0  0
   11.1987   -5.3897  -54.9044 H   0  0  0  0  0  0  0  0  0  0  0  0
    9.6795   -4.4693  -54.4650 H   0  0  0  0  0  0  0  0  0  0  0  0
    9.4027   -4.4020  -56.7068 H   0  0  0  0  0  0  0  0  0  0  0  0
   10.5396   -2.9976  -56.5539 H   0  0  0  0  0  0  0  0  0  0  0  0
   10.8542   -5.0073  -58.2652 H   0  0  0  0  0  0  0  0  0  0  0  0
   11.3856   -6.4611  -55.9676 H   0  0  0  0  0  0  0  0  0  0  0  0
   12.0670   -6.8735  -57.5407 H   0  0  0  0  0  0  0  0  0  0  0  0
   13.3184   -5.2404  -55.2618 H   0  0  0  0  0  0  0  0  0  0  0  0
   14.0714   -6.5390  -56.1630 H   0  0  0  0  0  0  0  0  0  0  0  0
   14.6411   -4.0185  -56.8593 H   0  0  0  0  0  0  0  0  0  0  0  0
   14.3019   -5.1151  -58.1787 H   0  0  0  0  0  0  0  0  0  0  0  0
   12.5720   -3.0530  -56.9660 H   0  0  0  0  0  0  0  0  0  0  0  0
   12.6150   -3.5110  -58.5360 H   0  0  0  0  0  0  0  0  0  0  0  0
   10.7155   -0.8139  -55.4551 H   0  0  0  0  0  0  0  0  0  0  0  0
    8.3142    3.5936  -56.1915 H   0  0  0  0  0  0  0  0  0  0  0  0
    9.9998    4.1777  -55.7550 H   0  0  0  0  0  0  0  0  0  0  0  0
    8.6586    5.8656  -56.8452 H   0  0  0  0  0  0  0  0  0  0  0  0
    7.4679    4.1913  -58.5212 H   0  0  0  0  0  0  0  0  0  0  0  0
    8.0876    5.5747  -59.3671 H   0  0  0  0  0  0  0  0  0  0  0  0
    9.2680    3.6020  -60.4806 H   0  0  0  0  0  0  0  0  0  0  0  0
    8.3301    2.1106  -58.6031 H   0  0  0  0  0  0  0  0  0  0  0  0
    9.9647    1.7025  -59.2185 H   0  0  0  0  0  0  0  0  0  0  0  0
   10.3930    6.5890  -58.4793 H   0  0  0  0  0  0  0  0  0  0  0  0
   11.2801    5.6325  -57.3009 H   0  0  0  0  0  0  0  0  0  0  0  0
  2  1  1  6
  2  3  1  0
  3  4  1  0
  4  5  1  0
  5  6  1  1
  6  7  1  0
  7  8  2  0
  7  9  1  0
  9 10  1  0
 10 11  2  0
 11 12  1  0
 12 13  2  0
 13 14  1  0
 14 15  2  0
 15 16  1  0
 16 17  2  0
 11 18  1  0
 18 19  1  0
 19 20  1  0
 20 21  1  0
 21 22  1  0
 22 23  1  0
 23 24  1  0
 24 25  1  0
 25 26  1  0
 26 27  1  0
 18 28  1  0
  5 29  1  0
 29 30  1  0
 30 31  1  0
 31 32  1  0
 32 33  1  0
 30 34  1  0
 32  2  1  0
 34  2  1  0
 33  5  1  0
 28  9  2  0
 17 12  1  0
 27 23  1  0
  1 35  1  0
  1 36  1  0
  1 37  1  0
  3 38  1  0
  3 39  1  0
  4 40  1  0
  4 41  1  0
  6 42  1  0
 10 43  1  0
 13 44  1  0
 14 45  1  0
 15 46  1  0
 16 47  1  0
 17 48  1  0
 19 49  1  0
 19 50  1  0
 20 51  1  0
 20 52  1  0
 21 53  1  0
 21 54  1  0
 22 55  1  0
 22 56  1  0
 23 57  1  6
 24 58  1  0
 24 59  1  0
 25 60  1  0
 25 61  1  0
 26 62  1  0
 26 63  1  0
 27 64  1  0
 27 65  1  0
 28 66  1  0
 29 67  1  0
 29 68  1  0
 30 69  1  1
 31 70  1  0
 31 71  1  0
 32 72  1  6
 33 73  1  0
 33 74  1  0
 34 75  1  0
 34 76  1  0
M  CHG  1  27   1
M  END
>  <meeko>  (43) 
{"is_sidechain": false}

$$$$

     RDKit          3D

 95101  0  0  0  0  0  0  0  0999 V2000
   11.5560    1.0330  -56.4700 C   0  0  0  0  0  0  0  0  0  0  0  0
   10.4020    1.9610  -56.6850 C   0  0  0  0  0  0  0  0  0  0  0  0
    9.0650    1.8170  -56.1720 C   0  0  0  0  0  0  0  0  0  0  0  0
    8.4020    0.7590  -55.3950 C   0  0  0  0  0  0  0  0  0  0  0  0
    7.1940    0.5720  -55.4880 O   0  0  0  0  0  0  0  0  0  0  0  0
    9.2340   -0.0290  -54.6350 N   0  0  0  0  0  0  0  0  0  0  0  0
    8.7800   -1.1670  -53.8180 C   0  0  1  0  0  0  0  0  0  0  0  0
    9.9980   -1.9930  -53.3330 C   0  0  0  0  0  0  0  0  0  0  0  0
    9.7570   -2.6960  -51.9900 C   0  0  0  0  0  0  0  0  0  0  0  0
    8.2780   -3.0500  -51.7620 C   0  0  2  0  0  0  0  0  0  0  0  0
    8.1200   -3.7700  -50.4190 C   0  0  0  0  0  0  0  0  0  0  0  0
    7.7660   -3.9450  -52.9210 C   0  0  0  0  0  0  0  0  0  0  0  0
    6.9130   -3.0030  -53.7710 C   0  0  1  0  0  0  0  0  0  0  0  0
    6.1860   -2.2200  -52.6850 C   0  0  0  0  0  0  0  0  0  0  0  0
    7.3690   -1.7740  -51.8220 C   0  0  2  0  0  0  0  0  0  0  0  0
    8.0590   -0.6180  -52.5660 C   0  0  0  0  0  0  0  0  0  0  0  0
    7.7760   -2.0510  -54.6280 C   0  0  0  0  0  0  0  0  0  0  0  0
    8.4100    2.9920  -56.4980 C   0  0  0  0  0  0  0  0  0  0  0  0
    9.2280    3.7760  -57.2620 N   0  0  0  0  0  0  0  0  0  0  0  0
    8.8170    5.0660  -57.7850 C   0  0  0  0  0  0  0  0  0  0  0  0
    8.3520    5.0710  -59.2480 C   0  0  0  0  0  0  0  0  0  0  0  0
    8.4940    3.7740  -60.0230 N   0  0  2  0  0  0  0  0  0  0  0  0
    9.7190    3.6680  -60.9190 C   0  0  0  0  0  0  0  0  0  0  0  0
    9.2100    3.0620  -62.2120 C   0  0  0  0  0  0  0  0  0  0  0  0
    7.9530    2.3150  -61.8090 C   0  0  0  0  0  0  0  0  0  0  0  0
    7.2910    3.2640  -60.8210 C   0  0  1  0  0  0  0  0  0  0  0  0
    6.2650    2.6460  -59.8590 C   0  0  0  0  0  0  0  0  0  0  0  0
    5.1610    1.7190  -60.4660 C   0  0  0  0  0  0  0  0  0  0  0  0
    5.5420    0.2420  -60.2280 C   0  0  0  0  0  0  0  0  0  0  0  0
    5.1130    1.9940  -61.9910 C   0  0  0  0  0  0  0  0  0  0  0  0
    4.0280    1.2140  -62.7380 C   0  0  0  0  0  0  0  0  0  0  0  0
    2.7400    1.0330  -61.9390 C   0  0  0  0  0  0  0  0  0  0  0  0
    2.6060    2.0690  -60.8360 C   0  0  0  0  0  0  0  0  0  0  0  0
    3.7710    2.0210  -59.8410 C   0  0  0  0  0  0  0  0  0  0  0  0
   10.4650    3.1770  -57.3750 C   0  0  0  0  0  0  0  0  0  0  0  0
   11.6230    3.7760  -58.0460 C   0  0  0  0  0  0  0  0  0  0  0  0
   12.2670    4.8940  -57.4990 C   0  0  0  0  0  0  0  0  0  0  0  0
   13.3730    5.4560  -58.1380 C   0  0  0  0  0  0  0  0  0  0  0  0
   13.8560    4.8950  -59.3200 C   0  0  0  0  0  0  0  0  0  0  0  0
   13.2380    3.7680  -59.8590 C   0  0  0  0  0  0  0  0  0  0  0  0
   12.1280    3.2080  -59.2230 C   0  0  0  0  0  0  0  0  0  0  0  0
   11.7226    0.8990  -55.3910 H   0  0  0  0  0  0  0  0  0  0  0  0
   11.3340    0.0590  -56.9305 H   0  0  0  0  0  0  0  0  0  0  0  0
   12.4597    1.4588  -56.9305 H   0  0  0  0  0  0  0  0  0  0  0  0
   10.2260    0.0590  -54.7820 H   0  0  0  0  0  0  0  0  0  0  0  0
   10.2265   -2.7566  -54.0911 H   0  0  0  0  0  0  0  0  0  0  0  0
   10.8322   -1.2906  -53.1887 H   0  0  0  0  0  0  0  0  0  0  0  0
   10.3483   -3.6233  -51.9672 H   0  0  0  0  0  0  0  0  0  0  0  0
   10.0589   -2.0011  -51.1925 H   0  0  0  0  0  0  0  0  0  0  0  0
    8.2771   -3.0543  -49.5986 H   0  0  0  0  0  0  0  0  0  0  0  0
    7.1075   -4.1938  -50.3471 H   0  0  0  0  0  0  0  0  0  0  0  0
    8.8620   -4.5788  -50.3471 H   0  0  0  0  0  0  0  0  0  0  0  0
    8.6071   -4.3451  -53.5062 H   0  0  0  0  0  0  0  0  0  0  0  0
    7.2010   -4.8180  -52.5622 H   0  0  0  0  0  0  0  0  0  0  0  0
    6.2663   -3.5230  -54.4930 H   0  0  0  0  0  0  0  0  0  0  0  0
    5.6400   -1.3604  -53.1008 H   0  0  0  0  0  0  0  0  0  0  0  0
    5.4157   -2.7913  -52.1463 H   0  0  0  0  0  0  0  0  0  0  0  0
    7.1133   -1.4201  -50.8123 H   0  0  0  0  0  0  0  0  0  0  0  0
    7.3053    0.1223  -52.8723 H   0  0  0  0  0  0  0  0  0  0  0  0
    8.7933   -0.1407  -51.9004 H   0  0  0  0  0  0  0  0  0  0  0  0
    8.3532   -2.6598  -55.3395 H   0  0  0  0  0  0  0  0  0  0  0  0
    7.0774   -1.3564  -55.1175 H   0  0  0  0  0  0  0  0  0  0  0  0
    7.3874    3.2546  -56.1893 H   0  0  0  0  0  0  0  0  0  0  0  0
    7.9864    5.4336  -57.1646 H   0  0  0  0  0  0  0  0  0  0  0  0
    9.7129    5.7034  -57.7518 H   0  0  0  0  0  0  0  0  0  0  0  0
    7.2872    5.3471  -59.2563 H   0  0  0  0  0  0  0  0  0  0  0  0
    9.0206    5.7811  -59.7567 H   0  0  0  0  0  0  0  0  0  0  0  0
    8.6630    3.0620  -59.2980 H   0  0  0  0  0  0  0  0  0  0  0  0
   10.1508    4.6629  -61.1023 H   0  0  0  0  0  0  0  0  0  0  0  0
   10.5128    3.0587  -60.4622 H   0  0  0  0  0  0  0  0  0  0  0  0
    8.9774    3.8482  -62.9453 H   0  0  0  0  0  0  0  0  0  0  0  0
    9.9531    2.4059  -62.6888 H   0  0  0  0  0  0  0  0  0  0  0  0
    7.3044    2.1348  -62.6790 H   0  0  0  0  0  0  0  0  0  0  0  0
    8.1575    1.3212  -61.3841 H   0  0  0  0  0  0  0  0  0  0  0  0
    6.6928    4.0136  -61.3598 H   0  0  0  0  0  0  0  0  0  0  0  0
    6.8238    2.0510  -59.1216 H   0  0  0  0  0  0  0  0  0  0  0  0
    5.7119    3.5064  -59.4543 H   0  0  0  0  0  0  0  0  0  0  0  0
    5.5926    0.0460  -59.1468 H   0  0  0  0  0  0  0  0  0  0  0  0
    4.7828   -0.4105  -60.6838 H   0  0  0  0  0  0  0  0  0  0  0  0
    6.5221    0.0381  -60.6838 H   0  0  0  0  0  0  0  0  0  0  0  0
    4.9306    3.0682  -62.1418 H   0  0  0  0  0  0  0  0  0  0  0  0
    6.0783    1.6625  -62.4014 H   0  0  0  0  0  0  0  0  0  0  0  0
    3.7880    1.7549  -63.6653 H   0  0  0  0  0  0  0  0  0  0  0  0
    4.4304    0.2084  -62.9299 H   0  0  0  0  0  0  0  0  0  0  0  0
    1.8823    1.1273  -62.6213 H   0  0  0  0  0  0  0  0  0  0  0  0
    2.7671    0.0382  -61.4703 H   0  0  0  0  0  0  0  0  0  0  0  0
    2.5736    3.0689  -61.2933 H   0  0  0  0  0  0  0  0  0  0  0  0
    1.6826    1.8482  -60.2804 H   0  0  0  0  0  0  0  0  0  0  0  0
    3.8290    2.9971  -59.3372 H   0  0  0  0  0  0  0  0  0  0  0  0
    3.5552    1.1866  -59.1575 H   0  0  0  0  0  0  0  0  0  0  0  0
   11.8982    5.3315  -56.5596 H   0  0  0  0  0  0  0  0  0  0  0  0
   13.8641    6.3420  -57.7092 H   0  0  0  0  0  0  0  0  0  0  0  0
   14.7242    5.3417  -59.8266 H   0  0  0  0  0  0  0  0  0  0  0  0
   13.6248    3.3194  -60.7859 H   0  0  0  0  0  0  0  0  0  0  0  0
   11.6470    2.3151  -59.6489 H   0  0  0  0  0  0  0  0  0  0  0  0
  1  2  1  0
  2  3  1  0
  3  4  1  0
  4  5  2  0
  4  6  1  0
  7  6  1  6
  7  8  1  0
  8  9  1  0
  9 10  1  0
 10 11  1  1
 10 12  1  0
 12 13  1  0
 13 14  1  0
 14 15  1  0
 15 16  1  0
 13 17  1  0
  3 18  2  0
 18 19  1  0
 19 20  1  0
 20 21  1  0
 21 22  1  0
 22 23  1  0
 23 24  1  0
 24 25  1  0
 25 26  1  0
 26 27  1  0
 27 28  1  0
 28 29  1  0
 28 30  1  0
 30 31  1  0
 31 32  1  0
 32 33  1  0
 33 34  1  0
 19 35  1  0
 35 36  1  0
 36 37  2  0
 37 38  1  0
 38 39  2  0
 39 40  1  0
 40 41  2  0
 35  2  2  0
 41 36  1  0
 16  7  1  0
 26 22  1  0
 34 28  1  0
 17  7  1  0
 15 10  1  0
  1 42  1  0
  1 43  1  0
  1 44  1  0
  6 45  1  0
  8 46  1  0
  8 47  1  0
  9 48  1  0
  9 49  1  0
 11 50  1  0
 11 51  1  0
 11 52  1  0
 12 53  1  0
 12 54  1  0
 13 55  1  6
 14 56  1  0
 14 57  1  0
 15 58  1  1
 16 59  1  0
 16 60  1  0
 17 61  1  0
 17 62  1  0
 18 63  1  0
 20 64  1  0
 20 65  1  0
 21 66  1  0
 21 67  1  0
 22 68  1  1
 23 69  1  0
 23 70  1  0
 24 71  1  0
 24 72  1  0
 25 73  1  0
 25 74  1  0
 26 75  1  6
 27 76  1  0
 27 77  1  0
 29 78  1  0
 29 79  1  0
 29 80  1  0
 30 81  1  0
 30 82  1  0
 31 83  1  0
 31 84  1  0
 32 85  1  0
 32 86  1  0
 33 87  1  0
 33 88  1  0
 34 89  1  0
 34 90  1  0
 37 91  1  0
 38 92  1  0
 39 93  1  0
 40 94  1  0
 41 95  1  0
M  CHG  1  22   1
M  END
>  <meeko>  (44) 
{"is_sidechain": false}

$$$$

     RDKit          3D

 95101  0  0  0  0  0  0  0  0999 V2000
   11.3270    0.8460  -56.3790 C   0  0  0  0  0  0  0  0  0  0  0  0
   10.2330    1.8280  -56.6600 C   0  0  0  0  0  0  0  0  0  0  0  0
    8.8650    1.7140  -56.2310 C   0  0  0  0  0  0  0  0  0  0  0  0
    8.1810    0.6880  -55.4380 C   0  0  0  0  0  0  0  0  0  0  0  0
    6.9950    0.4440  -55.6180 O   0  0  0  0  0  0  0  0  0  0  0  0
    8.9890    0.0300  -54.5410 N   0  0  0  0  0  0  0  0  0  0  0  0
    8.5740   -1.1070  -53.7040 C   0  0  1  0  0  0  0  0  0  0  0  0
    9.8710   -1.8300  -53.2380 C   0  0  0  0  0  0  0  0  0  0  0  0
    9.7150   -2.5850  -51.9130 C   0  0  0  0  0  0  0  0  0  0  0  0
    8.2790   -3.0800  -51.6810 C   0  0  2  0  0  0  0  0  0  0  0  0
    8.2000   -3.8340  -50.3490 C   0  0  0  0  0  0  0  0  0  0  0  0
    7.8480   -4.0010  -52.8520 C   0  0  0  0  0  0  0  0  0  0  0  0
    6.9120   -3.1290  -53.6860 C   0  0  1  0  0  0  0  0  0  0  0  0
    6.1180   -2.4300  -52.5870 C   0  0  0  0  0  0  0  0  0  0  0  0
    7.2550   -1.8930  -51.7120 C   0  0  2  0  0  0  0  0  0  0  0  0
    7.8320   -0.6550  -52.4270 C   0  0  0  0  0  0  0  0  0  0  0  0
    7.6790   -2.0880  -54.5300 C   0  0  0  0  0  0  0  0  0  0  0  0
    8.2210    2.8460  -56.6920 C   0  0  0  0  0  0  0  0  0  0  0  0
    9.1100    3.6220  -57.3790 N   0  0  0  0  0  0  0  0  0  0  0  0
    8.7420    4.9170  -57.9350 C   0  0  0  0  0  0  0  0  0  0  0  0
    7.5640    4.8130  -58.9100 C   0  0  0  0  0  0  0  0  0  0  0  0
    7.9910    4.3130  -60.2710 N   0  0  1  0  0  0  0  0  0  0  0  0
    9.3950    3.7690  -60.3710 C   0  0  0  0  0  0  0  0  0  0  0  0
    9.3900    2.9300  -61.6410 C   0  0  0  0  0  0  0  0  0  0  0  0
    7.9640    2.9710  -62.1790 C   0  0  0  0  0  0  0  0  0  0  0  0
    7.0860    3.3080  -60.9720 C   0  0  1  0  0  0  0  0  0  0  0  0
    6.7790    2.0850  -60.0800 C   0  0  0  0  0  0  0  0  0  0  0  0
    5.4180    1.3660  -60.3680 C   0  0  0  0  0  0  0  0  0  0  0  0
    5.5950   -0.1040  -59.9090 C   0  0  0  0  0  0  0  0  0  0  0  0
    4.2800    2.0180  -59.5290 C   0  0  0  0  0  0  0  0  0  0  0  0
    2.9720    2.2280  -60.2970 C   0  0  0  0  0  0  0  0  0  0  0  0
    2.6290    1.0350  -61.1770 C   0  0  0  0  0  0  0  0  0  0  0  0
    3.7230    0.7320  -62.1990 C   0  0  0  0  0  0  0  0  0  0  0  0
    5.0680    1.3870  -61.8720 C   0  0  0  0  0  0  0  0  0  0  0  0
   10.3550    3.0240  -57.3720 C   0  0  0  0  0  0  0  0  0  0  0  0
   11.5520    3.6040  -57.9870 C   0  0  0  0  0  0  0  0  0  0  0  0
   12.2580    4.6230  -57.3320 C   0  0  0  0  0  0  0  0  0  0  0  0
   13.3880    5.1930  -57.9210 C   0  0  0  0  0  0  0  0  0  0  0  0
   13.8240    4.7460  -59.1660 C   0  0  0  0  0  0  0  0  0  0  0  0
   13.1400    3.7180  -59.8160 C   0  0  0  0  0  0  0  0  0  0  0  0
   12.0130    3.1440  -59.2260 C   0  0  0  0  0  0  0  0  0  0  0  0
   11.4501    0.7355  -55.2915 H   0  0  0  0  0  0  0  0  0  0  0  0
   11.0675   -0.1280  -56.8195 H   0  0  0  0  0  0  0  0  0  0  0  0
   12.2674    1.2088  -56.8195 H   0  0  0  0  0  0  0  0  0  0  0  0
    9.9830    0.1250  -54.7050 H   0  0  0  0  0  0  0  0  0  0  0  0
   10.1651   -2.5505  -54.0154 H   0  0  0  0  0  0  0  0  0  0  0  0
   10.6317   -1.0520  -53.0764 H   0  0  0  0  0  0  0  0  0  0  0  0
   10.3902   -3.4534  -51.9206 H   0  0  0  0  0  0  0  0  0  0  0  0
    9.9622   -1.8863  -51.1001 H   0  0  0  0  0  0  0  0  0  0  0  0
    8.2750   -3.1180  -49.5173 H   0  0  0  0  0  0  0  0  0  0  0  0
    7.2409   -4.3690  -50.2868 H   0  0  0  0  0  0  0  0  0  0  0  0
    9.0274   -4.5562  -50.2868 H   0  0  0  0  0  0  0  0  0  0  0  0
    8.7206   -4.3145  -53.4439 H   0  0  0  0  0  0  0  0  0  0  0  0
    7.3658   -4.9270  -52.5056 H   0  0  0  0  0  0  0  0  0  0  0  0
    6.3156   -3.6973  -54.4149 H   0  0  0  0  0  0  0  0  0  0  0  0
    5.4980   -1.6159  -52.9904 H   0  0  0  0  0  0  0  0  0  0  0  0
    5.4025   -3.0773  -52.0588 H   0  0  0  0  0  0  0  0  0  0  0  0
    6.9692   -1.5878  -50.6946 H   0  0  0  0  0  0  0  0  0  0  0  0
    7.0135    0.0277  -52.6990 H   0  0  0  0  0  0  0  0  0  0  0  0
    8.5319   -0.1338  -51.7573 H   0  0  0  0  0  0  0  0  0  0  0  0
    8.3257   -2.6292  -55.2363 H   0  0  0  0  0  0  0  0  0  0  0  0
    6.9172   -1.4693  -55.0268 H   0  0  0  0  0  0  0  0  0  0  0  0
    7.1593    3.0846  -56.5310 H   0  0  0  0  0  0  0  0  0  0  0  0
    8.4620    5.5899  -57.1111 H   0  0  0  0  0  0  0  0  0  0  0  0
    9.6082    5.3051  -58.4910 H   0  0  0  0  0  0  0  0  0  0  0  0
    6.8206    4.1170  -58.4942 H   0  0  0  0  0  0  0  0  0  0  0  0
    7.1418    5.8207  -59.0379 H   0  0  0  0  0  0  0  0  0  0  0  0
    7.9620    5.1400  -60.8880 H   0  0  0  0  0  0  0  0  0  0  0  0
   10.1247    4.5884  -60.4494 H   0  0  0  0  0  0  0  0  0  0  0  0
    9.6805    3.1837  -59.4845 H   0  0  0  0  0  0  0  0  0  0  0  0
   10.0873    3.3531  -62.3791 H   0  0  0  0  0  0  0  0  0  0  0  0
    9.7098    1.8973  -61.4377 H   0  0  0  0  0  0  0  0  0  0  0  0
    7.8669    3.7454  -62.9542 H   0  0  0  0  0  0  0  0  0  0  0  0
    7.6736    2.0171  -62.6435 H   0  0  0  0  0  0  0  0  0  0  0  0
    6.0810    3.6733  -61.2301 H   0  0  0  0  0  0  0  0  0  0  0  0
    7.5864    1.3514  -60.2209 H   0  0  0  0  0  0  0  0  0  0  0  0
    6.7054    2.4711  -59.0526 H   0  0  0  0  0  0  0  0  0  0  0  0
    5.6002   -0.1468  -58.8098 H   0  0  0  0  0  0  0  0  0  0  0  0
    4.7635   -0.7115  -60.2957 H   0  0  0  0  0  0  0  0  0  0  0  0
    6.5469   -0.4968  -60.2957 H   0  0  0  0  0  0  0  0  0  0  0  0
    4.0724    1.3680  -58.6662 H   0  0  0  0  0  0  0  0  0  0  0  0
    4.6370    3.0163  -59.2360 H   0  0  0  0  0  0  0  0  0  0  0  0
    2.1570    2.3822  -59.5745 H   0  0  0  0  0  0  0  0  0  0  0  0
    3.0980    3.1053  -60.9485 H   0  0  0  0  0  0  0  0  0  0  0  0
    2.4897    0.1518  -60.5363 H   0  0  0  0  0  0  0  0  0  0  0  0
    1.7108    1.2798  -61.7310 H   0  0  0  0  0  0  0  0  0  0  0  0
    3.8680   -0.3576  -62.2400 H   0  0  0  0  0  0  0  0  0  0  0  0
    3.3884    1.1469  -63.1613 H   0  0  0  0  0  0  0  0  0  0  0  0
    5.8575    0.8519  -62.4200 H   0  0  0  0  0  0  0  0  0  0  0  0
    4.9928    2.4431  -62.1704 H   0  0  0  0  0  0  0  0  0  0  0  0
   11.9190    4.9759  -56.3468 H   0  0  0  0  0  0  0  0  0  0  0  0
   13.9338    5.9948  -57.4021 H   0  0  0  0  0  0  0  0  0  0  0  0
   14.7070    5.2031  -59.6366 H   0  0  0  0  0  0  0  0  0  0  0  0
   13.4898    3.3594  -60.7953 H   0  0  0  0  0  0  0  0  0  0  0  0
   11.4843    2.3260  -59.7372 H   0  0  0  0  0  0  0  0  0  0  0  0
  1  2  1  0
  2  3  1  0
  3  4  1  0
  4  5  2  0
  4  6  1  0
  7  6  1  6
  7  8  1  0
  8  9  1  0
  9 10  1  0
 10 11  1  1
 10 12  1  0
 12 13  1  0
 13 14  1  0
 14 15  1  0
 15 16  1  0
 13 17  1  0
  3 18  2  0
 18 19  1  0
 19 20  1  0
 20 21  1  0
 21 22  1  0
 22 23  1  0
 23 24  1  0
 24 25  1  0
 25 26  1  0
 26 27  1  0
 27 28  1  0
 28 29  1  0
 28 30  1  0
 30 31  1  0
 31 32  1  0
 32 33  1  0
 33 34  1  0
 19 35  1  0
 35 36  1  0
 36 37  2  0
 37 38  1  0
 38 39  2  0
 39 40  1  0
 40 41  2  0
 35  2  2  0
 41 36  1  0
 16  7  1  0
 26 22  1  0
 34 28  1  0
 17  7  1  0
 15 10  1  0
  1 42  1  0
  1 43  1  0
  1 44  1  0
  6 45  1  0
  8 46  1  0
  8 47  1  0
  9 48  1  0
  9 49  1  0
 11 50  1  0
 11 51  1  0
 11 52  1  0
 12 53  1  0
 12 54  1  0
 13 55  1  6
 14 56  1  0
 14 57  1  0
 15 58  1  1
 16 59  1  0
 16 60  1  0
 17 61  1  0
 17 62  1  0
 18 63  1  0
 20 64  1  0
 20 65  1  0
 21 66  1  0
 21 67  1  0
 22 68  1  6
 23 69  1  0
 23 70  1  0
 24 71  1  0
 24 72  1  0
 25 73  1  0
 25 74  1  0
 26 75  1  6
 27 76  1  0
 27 77  1  0
 29 78  1  0
 29 79  1  0
 29 80  1  0
 30 81  1  0
 30 82  1  0
 31 83  1  0
 31 84  1  0
 32 85  1  0
 32 86  1  0
 33 87  1  0
 33 88  1  0
 34 89  1  0
 34 90  1  0
 37 91  1  0
 38 92  1  0
 39 93  1  0
 40 94  1  0
 41 95  1  0
M  CHG  1  22   1
M  END
>  <meeko>  (45) 
{"is_sidechain": false}

$$$$

     RDKit          3D

 37 40  0  0  0  0  0  0  0  0999 V2000
    6.3600    2.7160  -58.7690 O   0  0  0  0  0  0  0  0  0  0  0  0
    6.6790    2.6700  -59.9520 C   0  0  0  0  0  0  0  0  0  0  0  0
    7.9170    3.0260  -60.4490 N   0  0  0  0  0  0  0  0  0  0  0  0
    9.0450    3.5150  -59.6530 C   0  0  2  0  0  0  0  0  0  0  0  0
    9.6060    2.4120  -58.7210 C   0  0  0  0  0  0  0  0  0  0  0  0
   10.8200    2.9360  -57.9330 C   0  0  1  0  0  0  0  0  0  0  0  0
   11.9200    3.3610  -58.9180 C   0  0  0  0  0  0  0  0  0  0  0  0
   11.3970    4.4710  -59.8440 C   0  0  2  0  0  0  0  0  0  0  0  0
   10.9710    5.6810  -58.9970 C   0  0  0  0  0  0  0  0  0  0  0  0
    9.8650    5.2700  -58.0130 C   0  0  2  0  0  0  0  0  0  0  0  0
   10.3920    4.1530  -57.0950 C   0  0  0  0  0  0  0  0  0  0  0  0
    8.6510    4.7470  -58.8010 C   0  0  0  0  0  0  0  0  0  0  0  0
   10.1790    3.9460  -60.6200 C   0  0  0  0  0  0  0  0  0  0  0  0
    5.6970    2.2010  -60.9730 C   0  0  0  0  0  0  0  0  0  0  0  0
    4.6220    1.4420  -60.6010 C   0  0  0  0  0  0  0  0  0  0  0  0
    3.8140    1.0880  -61.6380 C   0  0  0  0  0  0  0  0  0  0  0  0
    4.0550    1.4560  -62.9110 N   0  0  0  0  0  0  0  0  0  0  0  0
    5.1120    2.1860  -63.1830 N   0  0  0  0  0  0  0  0  0  0  0  0
    5.9430    2.5720  -62.2520 N   0  0  0  0  0  0  0  0  0  0  0  0
    8.0390    2.9360  -61.4540 H   0  0  0  0  0  0  0  0  0  0  0  0
    8.8221    2.1026  -58.0141 H   0  0  0  0  0  0  0  0  0  0  0  0
    9.9235    1.5561  -59.3347 H   0  0  0  0  0  0  0  0  0  0  0  0
   11.2019    2.1447  -57.2712 H   0  0  0  0  0  0  0  0  0  0  0  0
   12.7880    3.7350  -58.3553 H   0  0  0  0  0  0  0  0  0  0  0  0
   12.2150    2.4930  -59.5260 H   0  0  0  0  0  0  0  0  0  0  0  0
   12.1881    4.7709  -60.5471 H   0  0  0  0  0  0  0  0  0  0  0  0
   11.8388    6.0553  -58.4341 H   0  0  0  0  0  0  0  0  0  0  0  0
   10.5886    6.4701  -59.6611 H   0  0  0  0  0  0  0  0  0  0  0  0
    9.5673    6.1389  -57.4077 H   0  0  0  0  0  0  0  0  0  0  0  0
   11.2574    4.5265  -56.5279 H   0  0  0  0  0  0  0  0  0  0  0  0
    9.5928    3.8496  -56.4028 H   0  0  0  0  0  0  0  0  0  0  0  0
    7.8579    4.4598  -58.0949 H   0  0  0  0  0  0  0  0  0  0  0  0
    8.2933    5.5425  -59.4713 H   0  0  0  0  0  0  0  0  0  0  0  0
    9.8044    4.7410  -61.2816 H   0  0  0  0  0  0  0  0  0  0  0  0
   10.4898    3.0693  -61.2072 H   0  0  0  0  0  0  0  0  0  0  0  0
    4.4280    1.1449  -59.5598 H   0  0  0  0  0  0  0  0  0  0  0  0
    2.9256    0.4747  -61.4270 H   0  0  0  0  0  0  0  0  0  0  0  0
  1  2  2  0
  2  3  1  0
  4  3  1  6
  4  5  1  0
  5  6  1  0
  6  7  1  0
  7  8  1  0
  8  9  1  0
  9 10  1  0
 10 11  1  0
 10 12  1  0
  8 13  1  0
  2 14  1  0
 14 15  1  0
 15 16  2  0
 16 17  1  0
 17 18  2  0
 18 19  1  0
 12  4  1  0
 19 14  2  0
 13  4  1  0
 11  6  1  0
  3 20  1  0
  5 21  1  0
  5 22  1  0
  6 23  1  1
  7 24  1  0
  7 25  1  0
  8 26  1  6
  9 27  1  0
  9 28  1  0
 10 29  1  1
 11 30  1  0
 11 31  1  0
 12 32  1  0
 12 33  1  0
 13 34  1  0
 13 35  1  0
 15 36  1  0
 16 37  1  0
M  END
>  <meeko>  (46) 
{"is_sidechain": false}

$$$$

     RDKit          3D

 63 68  0  0  0  0  0  0  0  0999 V2000
    5.9700    0.2660  -53.6120 C   0  0  0  0  0  0  0  0  0  0  0  0
    7.2740   -0.2880  -54.0660 C   0  0  0  0  0  0  0  0  0  0  0  0
    8.0700    0.2030  -55.1360 C   0  0  0  0  0  0  0  0  0  0  0  0
    7.7930    1.3500  -56.0250 C   0  0  0  0  0  0  0  0  0  0  0  0
    6.6920    1.8840  -56.1010 O   0  0  0  0  0  0  0  0  0  0  0  0
    8.9010    1.7410  -56.7450 N   0  0  0  0  0  0  0  0  0  0  0  0
    8.9640    2.8360  -57.7070 C   0  0  2  0  0  0  0  0  0  0  0  0
    7.8670    2.7060  -58.7920 C   0  0  0  0  0  0  0  0  0  0  0  0
    7.9850    3.8450  -59.8200 C   0  0  1  0  0  0  0  0  0  0  0  0
    7.8410    5.1970  -59.0980 C   0  0  0  0  0  0  0  0  0  0  0  0
    8.9460    5.3530  -58.0410 C   0  0  2  0  0  0  0  0  0  0  0  0
   10.3190    5.2760  -58.7290 C   0  0  0  0  0  0  0  0  0  0  0  0
   10.4730    3.9250  -59.4450 C   0  0  2  0  0  0  0  0  0  0  0  0
    9.3630    3.7780  -60.4970 C   0  0  0  0  0  0  0  0  0  0  0  0
   10.3440    2.7920  -58.4140 C   0  0  0  0  0  0  0  0  0  0  0  0
    8.8280    4.2140  -57.0120 C   0  0  0  0  0  0  0  0  0  0  0  0
    9.1890   -0.5280  -55.2820 N   0  0  0  0  0  0  0  0  0  0  0  0
    9.1180   -1.4770  -54.3200 N   0  0  0  0  0  0  0  0  0  0  0  0
   10.2470   -2.4400  -54.2500 C   0  0  2  0  0  0  0  0  0  0  0  0
   11.2040   -2.4900  -55.4520 C   0  0  0  0  0  0  0  0  0  0  0  0
   11.2770   -4.0260  -55.2400 C   0  0  2  0  0  0  0  0  0  0  0  0
   11.2900   -4.8790  -56.4920 C   0  0  0  0  0  0  0  0  0  0  0  0
    9.9210   -3.9230  -54.4890 C   0  0  0  0  0  0  0  0  0  0  0  0
    7.9710   -1.3770  -53.5500 C   0  0  0  0  0  0  0  0  0  0  0  0
    7.5700   -2.2280  -52.4340 C   0  0  0  0  0  0  0  0  0  0  0  0
    6.7100   -3.3130  -52.6460 C   0  0  0  0  0  0  0  0  0  0  0  0
    6.3680   -4.1590  -51.5900 C   0  0  0  0  0  0  0  0  0  0  0  0
    6.9010   -3.9410  -50.3210 C   0  0  0  0  0  0  0  0  0  0  0  0
    7.7850   -2.8860  -50.1080 C   0  0  0  0  0  0  0  0  0  0  0  0
    8.1280   -2.0380  -51.1640 C   0  0  0  0  0  0  0  0  0  0  0  0
    5.9399    0.2788  -52.5125 H   0  0  0  0  0  0  0  0  0  0  0  0
    5.8542    1.2910  -53.9939 H   0  0  0  0  0  0  0  0  0  0  0  0
    5.1518   -0.3622  -53.9939 H   0  0  0  0  0  0  0  0  0  0  0  0
    9.7300    1.1830  -56.5540 H   0  0  0  0  0  0  0  0  0  0  0  0
    7.9805    1.7407  -59.3072 H   0  0  0  0  0  0  0  0  0  0  0  0
    6.8808    2.7653  -58.3084 H   0  0  0  0  0  0  0  0  0  0  0  0
    7.1945    3.7422  -60.5779 H   0  0  0  0  0  0  0  0  0  0  0  0
    7.9226    6.0119  -59.8324 H   0  0  0  0  0  0  0  0  0  0  0  0
    6.8603    5.2367  -58.6014 H   0  0  0  0  0  0  0  0  0  0  0  0
    8.8400    6.3230  -57.5332 H   0  0  0  0  0  0  0  0  0  0  0  0
   10.4042    6.0897  -59.4642 H   0  0  0  0  0  0  0  0  0  0  0  0
   11.1092    5.3747  -57.9701 H   0  0  0  0  0  0  0  0  0  0  0  0
   11.4565    3.8746  -59.9351 H   0  0  0  0  0  0  0  0  0  0  0  0
    9.4477    4.5919  -61.2321 H   0  0  0  0  0  0  0  0  0  0  0  0
    9.4704    2.8066  -61.0019 H   0  0  0  0  0  0  0  0  0  0  0  0
   10.4545    1.8251  -58.9268 H   0  0  0  0  0  0  0  0  0  0  0  0
   11.1300    2.9186  -57.6550 H   0  0  0  0  0  0  0  0  0  0  0  0
    9.6250    4.3207  -56.2614 H   0  0  0  0  0  0  0  0  0  0  0  0
    7.8412    4.2723  -56.5295 H   0  0  0  0  0  0  0  0  0  0  0  0
   10.5961   -2.0914  -53.2668 H   0  0  0  0  0  0  0  0  0  0  0  0
   10.7572   -2.1792  -56.4079 H   0  0  0  0  0  0  0  0  0  0  0  0
   12.1099   -1.8677  -55.4977 H   0  0  0  0  0  0  0  0  0  0  0  0
   12.1551   -4.5008  -54.7779 H   0  0  0  0  0  0  0  0  0  0  0  0
   11.3062   -5.9424  -56.2110 H   0  0  0  0  0  0  0  0  0  0  0  0
   10.3886   -4.6707  -57.0870 H   0  0  0  0  0  0  0  0  0  0  0  0
   12.1847   -4.6433  -57.0870 H   0  0  0  0  0  0  0  0  0  0  0  0
    9.0345   -4.1033  -55.1148 H   0  0  0  0  0  0  0  0  0  0  0  0
    9.6636   -4.6006  -53.6616 H   0  0  0  0  0  0  0  0  0  0  0  0
    6.3019   -3.4994  -53.6503 H   0  0  0  0  0  0  0  0  0  0  0  0
    5.6774   -4.9983  -51.7595 H   0  0  0  0  0  0  0  0  0  0  0  0
    6.6234   -4.6025  -49.4871 H   0  0  0  0  0  0  0  0  0  0  0  0
    8.2131   -2.7204  -49.1083 H   0  0  0  0  0  0  0  0  0  0  0  0
    8.8403   -1.2166  -50.9968 H   0  0  0  0  0  0  0  0  0  0  0  0
  1  2  1  0
  2  3  1  0
  3  4  1  0
  4  5  2  0
  4  6  1  0
  7  6  1  1
  7  8  1  0
  8  9  1  0
  9 10  1  0
 10 11  1  0
 11 12  1  0
 12 13  1  0
 13 14  1  0
 13 15  1  0
 11 16  1  0
  3 17  2  0
 17 18  1  0
 18 19  1  0
 19 20  1  0
 20 21  1  0
 21 22  1  0
 21 23  1  0
 18 24  1  0
 24 25  1  0
 25 26  2  0
 26 27  1  0
 27 28  2  0
 28 29  1  0
 29 30  2  0
 24  2  2  0
 30 25  1  0
 15  7  1  0
 23 19  1  0
 16  7  1  0
 14  9  1  0
  1 31  1  0
  1 32  1  0
  1 33  1  0
  6 34  1  0
  8 35  1  0
  8 36  1  0
  9 37  1  6
 10 38  1  0
 10 39  1  0
 11 40  1  1
 12 41  1  0
 12 42  1  0
 13 43  1  6
 14 44  1  0
 14 45  1  0
 15 46  1  0
 15 47  1  0
 16 48  1  0
 16 49  1  0
 19 50  1  6
 20 51  1  0
 20 52  1  0
 21 53  1  6
 22 54  1  0
 22 55  1  0
 22 56  1  0
 23 57  1  0
 23 58  1  0
 26 59  1  0
 27 60  1  0
 28 61  1  0
 29 62  1  0
 30 63  1  0
M  END
>  <meeko>  (47) 
{"is_sidechain": false}

$$$$

     RDKit          3D

 63 68  0  0  0  0  0  0  0  0999 V2000
    5.9410    0.3200  -53.6130 C   0  0  0  0  0  0  0  0  0  0  0  0
    7.2480   -0.2310  -54.0620 C   0  0  0  0  0  0  0  0  0  0  0  0
    8.0500    0.2620  -55.1280 C   0  0  0  0  0  0  0  0  0  0  0  0
    7.7770    1.4110  -56.0150 C   0  0  0  0  0  0  0  0  0  0  0  0
    6.6790    1.9510  -56.0900 O   0  0  0  0  0  0  0  0  0  0  0  0
    8.8860    1.7980  -56.7370 N   0  0  0  0  0  0  0  0  0  0  0  0
    8.9540    2.8930  -57.6980 C   0  0  2  0  0  0  0  0  0  0  0  0
    8.8620    4.2720  -56.9980 C   0  0  0  0  0  0  0  0  0  0  0  0
    8.9830    5.4100  -58.0270 C   0  0  1  0  0  0  0  0  0  0  0  0
   10.3400    5.3060  -58.7420 C   0  0  0  0  0  0  0  0  0  0  0  0
   10.4510    3.9540  -59.4630 C   0  0  2  0  0  0  0  0  0  0  0  0
    9.3180    3.8320  -60.4940 C   0  0  0  0  0  0  0  0  0  0  0  0
    7.9550    3.9270  -59.7900 C   0  0  2  0  0  0  0  0  0  0  0  0
    7.8530    5.2790  -59.0630 C   0  0  0  0  0  0  0  0  0  0  0  0
    7.8330    2.7890  -58.7620 C   0  0  0  0  0  0  0  0  0  0  0  0
   10.3190    2.8200  -58.4320 C   0  0  0  0  0  0  0  0  0  0  0  0
    9.1710   -0.4680  -55.2690 N   0  0  0  0  0  0  0  0  0  0  0  0
    9.0930   -1.4180  -54.3110 N   0  0  0  0  0  0  0  0  0  0  0  0
   10.2190   -2.3880  -54.2270 C   0  0  1  0  0  0  0  0  0  0  0  0
    9.8780   -3.8540  -54.5160 C   0  0  0  0  0  0  0  0  0  0  0  0
   10.8460   -3.8360  -55.7220 C   0  0  2  0  0  0  0  0  0  0  0  0
   11.9880   -4.8350  -55.6620 C   0  0  0  0  0  0  0  0  0  0  0  0
   11.2190   -2.3740  -55.3880 C   0  0  0  0  0  0  0  0  0  0  0  0
    7.9430   -1.3210  -53.5460 C   0  0  0  0  0  0  0  0  0  0  0  0
    7.5450   -2.1780  -52.4360 C   0  0  0  0  0  0  0  0  0  0  0  0
    6.7020   -3.2740  -52.6550 C   0  0  0  0  0  0  0  0  0  0  0  0
    6.3570   -4.1220  -51.6020 C   0  0  0  0  0  0  0  0  0  0  0  0
    6.8700   -3.8950  -50.3260 C   0  0  0  0  0  0  0  0  0  0  0  0
    7.7370   -2.8250  -50.1050 C   0  0  0  0  0  0  0  0  0  0  0  0
    8.0820   -1.9770  -51.1580 C   0  0  0  0  0  0  0  0  0  0  0  0
    5.9073    0.3342  -52.5136 H   0  0  0  0  0  0  0  0  0  0  0  0
    5.8236    1.3442  -53.9967 H   0  0  0  0  0  0  0  0  0  0  0  0
    5.1258   -0.3110  -53.9967 H   0  0  0  0  0  0  0  0  0  0  0  0
    9.7140    1.2350  -56.5470 H   0  0  0  0  0  0  0  0  0  0  0  0
    7.8936    4.3520  -56.4825 H   0  0  0  0  0  0  0  0  0  0  0  0
    9.6860    4.3585  -56.2745 H   0  0  0  0  0  0  0  0  0  0  0  0
    8.9072    6.3810  -57.5157 H   0  0  0  0  0  0  0  0  0  0  0  0
   10.4277    6.1194  -59.4773 H   0  0  0  0  0  0  0  0  0  0  0  0
   11.1471    5.3866  -57.9989 H   0  0  0  0  0  0  0  0  0  0  0  0
   11.4237    3.8850  -59.9721 H   0  0  0  0  0  0  0  0  0  0  0  0
    9.4056    4.6451  -61.2296 H   0  0  0  0  0  0  0  0  0  0  0  0
    9.3952    2.8595  -61.0023 H   0  0  0  0  0  0  0  0  0  0  0  0
    7.1483    3.8429  -60.5331 H   0  0  0  0  0  0  0  0  0  0  0  0
    7.9365    6.0939  -59.7972 H   0  0  0  0  0  0  0  0  0  0  0  0
    6.8834    5.3375  -58.5468 H   0  0  0  0  0  0  0  0  0  0  0  0
    6.8545    2.8552  -58.2639 H   0  0  0  0  0  0  0  0  0  0  0  0
    7.9291    1.8264  -59.2855 H   0  0  0  0  0  0  0  0  0  0  0  0
   10.3982    1.8524  -58.9492 H   0  0  0  0  0  0  0  0  0  0  0  0
   11.1230    2.9262  -57.6888 H   0  0  0  0  0  0  0  0  0  0  0  0
   10.5468   -2.0909  -53.2199 H   0  0  0  0  0  0  0  0  0  0  0  0
   10.1695   -4.5499  -53.7155 H   0  0  0  0  0  0  0  0  0  0  0  0
    8.8320   -4.1692  -54.6442 H   0  0  0  0  0  0  0  0  0  0  0  0
   10.4892   -4.1045  -56.7273 H   0  0  0  0  0  0  0  0  0  0  0  0
   12.2329   -5.0492  -54.6112 H   0  0  0  0  0  0  0  0  0  0  0  0
   11.6878   -5.7657  -56.1657 H   0  0  0  0  0  0  0  0  0  0  0  0
   12.8705   -4.4137  -56.1657 H   0  0  0  0  0  0  0  0  0  0  0  0
   12.2655   -2.2365  -55.0784 H   0  0  0  0  0  0  0  0  0  0  0  0
   11.1650   -1.5938  -56.1615 H   0  0  0  0  0  0  0  0  0  0  0  0
    6.3090   -3.4680  -53.6639 H   0  0  0  0  0  0  0  0  0  0  0  0
    5.6796   -4.9704  -51.7790 H   0  0  0  0  0  0  0  0  0  0  0  0
    6.5914   -4.5589  -49.4943 H   0  0  0  0  0  0  0  0  0  0  0  0
    8.1489   -2.6496  -49.1002 H   0  0  0  0  0  0  0  0  0  0  0  0
    8.7803   -1.1452  -50.9834 H   0  0  0  0  0  0  0  0  0  0  0  0
  1  2  1  0
  2  3  1  0
  3  4  1  0
  4  5  2  0
  4  6  1  0
  7  6  1  1
  7  8  1  0
  8  9  1  0
  9 10  1  0
 10 11  1  0
 11 12  1  0
 12 13  1  0
 13 14  1  0
 13 15  1  0
 11 16  1  0
  3 17  2  0
 17 18  1  0
 18 19  1  0
 19 20  1  0
 20 21  1  0
 21 22  1  0
 21 23  1  0
 18 24  1  0
 24 25  1  0
 25 26  2  0
 26 27  1  0
 27 28  2  0
 28 29  1  0
 29 30  2  0
 24  2  2  0
 30 25  1  0
 15  7  1  0
 23 19  1  0
 16  7  1  0
 14  9  1  0
  1 31  1  0
  1 32  1  0
  1 33  1  0
  6 34  1  0
  8 35  1  0
  8 36  1  0
  9 37  1  1
 10 38  1  0
 10 39  1  0
 11 40  1  6
 12 41  1  0
 12 42  1  0
 13 43  1  6
 14 44  1  0
 14 45  1  0
 15 46  1  0
 15 47  1  0
 16 48  1  0
 16 49  1  0
 19 50  1  1
 20 51  1  0
 20 52  1  0
 21 53  1  6
 22 54  1  0
 22 55  1  0
 22 56  1  0
 23 57  1  0
 23 58  1  0
 26 59  1  0
 27 60  1  0
 28 61  1  0
 29 62  1  0
 30 63  1  0
M  END
>  <meeko>  (48) 
{"is_sidechain": false}

$$$$

     RDKit          3D

 66 71  0  0  0  0  0  0  0  0999 V2000
    6.6100    0.4470  -52.8170 C   0  0  0  0  0  0  0  0  0  0  0  0
    6.7590    0.0470  -54.2760 C   0  0  0  0  0  0  0  0  0  0  0  0
    8.1250   -0.3090  -54.6190 N   0  0  0  0  0  0  0  0  0  0  0  0
    8.9280    0.3510  -55.5250 C   0  0  0  0  0  0  0  0  0  0  0  0
    8.5830    1.5070  -56.3440 C   0  0  0  0  0  0  0  0  0  0  0  0
    7.4930    2.0690  -56.3270 O   0  0  0  0  0  0  0  0  0  0  0  0
    9.6260    1.8990  -57.1570 N   0  0  0  0  0  0  0  0  0  0  0  0
    9.6140    3.0030  -58.1130 C   0  0  2  0  0  0  0  0  0  0  0  0
   10.9920    3.0520  -58.8240 C   0  0  0  0  0  0  0  0  0  0  0  0
   11.0430    4.1970  -59.8490 C   0  0  1  0  0  0  0  0  0  0  0  0
    9.9410    3.9830  -60.8990 C   0  0  0  0  0  0  0  0  0  0  0  0
    8.5650    3.9560  -60.2170 C   0  0  2  0  0  0  0  0  0  0  0  0
    8.3340    5.2920  -59.4880 C   0  0  0  0  0  0  0  0  0  0  0  0
    9.4310    5.5150  -58.4330 C   0  0  2  0  0  0  0  0  0  0  0  0
   10.8030    5.5320  -59.1250 C   0  0  0  0  0  0  0  0  0  0  0  0
    9.3910    4.3660  -57.4100 C   0  0  0  0  0  0  0  0  0  0  0  0
    8.5240    2.8070  -59.1960 C   0  0  0  0  0  0  0  0  0  0  0  0
   10.1250   -0.2190  -55.5820 N   0  0  0  0  0  0  0  0  0  0  0  0
   10.0970   -1.2660  -54.6880 C   0  0  0  0  0  0  0  0  0  0  0  0
   11.3010   -2.1320  -54.5140 C   0  0  0  0  0  0  0  0  0  0  0  0
   11.3350   -3.0800  -55.6890 C   0  0  0  0  0  0  0  0  0  0  0  0
   11.9010   -2.6920  -56.9150 C   0  0  0  0  0  0  0  0  0  0  0  0
   11.9220   -3.5710  -57.9990 C   0  0  0  0  0  0  0  0  0  0  0  0
   11.3710   -4.8450  -57.8750 C   0  0  0  0  0  0  0  0  0  0  0  0
   10.7980   -5.2410  -56.6670 C   0  0  0  0  0  0  0  0  0  0  0  0
   10.7770   -4.3640  -55.5820 C   0  0  0  0  0  0  0  0  0  0  0  0
    8.8500   -1.3580  -54.0870 C   0  0  0  0  0  0  0  0  0  0  0  0
    8.3510   -2.3040  -53.1010 C   0  0  0  0  0  0  0  0  0  0  0  0
    7.4320   -3.2910  -53.4760 C   0  0  0  0  0  0  0  0  0  0  0  0
    6.9430   -4.1940  -52.5300 C   0  0  0  0  0  0  0  0  0  0  0  0
    7.3750   -4.1090  -51.2070 C   0  0  0  0  0  0  0  0  0  0  0  0
    6.7720   -5.2200  -50.0400 Cl  0  0  0  0  0  0  0  0  0  0  0  0
    8.2880   -3.1290  -50.8220 C   0  0  0  0  0  0  0  0  0  0  0  0
    8.7750   -2.2250  -51.7690 C   0  0  0  0  0  0  0  0  0  0  0  0
    6.9215   -0.3893  -52.1739 H   0  0  0  0  0  0  0  0  0  0  0  0
    7.2420    1.3234  -52.6107 H   0  0  0  0  0  0  0  0  0  0  0  0
    5.5587    0.6963  -52.6107 H   0  0  0  0  0  0  0  0  0  0  0  0
    6.1090   -0.8184  -54.4726 H   0  0  0  0  0  0  0  0  0  0  0  0
    6.4754    0.9140  -54.8907 H   0  0  0  0  0  0  0  0  0  0  0  0
   10.4580    1.3190  -57.0690 H   0  0  0  0  0  0  0  0  0  0  0  0
   11.7795    3.2072  -58.0718 H   0  0  0  0  0  0  0  0  0  0  0  0
   11.1470    2.1005  -59.3536 H   0  0  0  0  0  0  0  0  0  0  0  0
   12.0262    4.2139  -60.3420 H   0  0  0  0  0  0  0  0  0  0  0  0
    9.9695    4.8046  -61.6298 H   0  0  0  0  0  0  0  0  0  0  0  0
   10.1100    3.0237  -61.4100 H   0  0  0  0  0  0  0  0  0  0  0  0
    7.7807    3.8053  -60.9734 H   0  0  0  0  0  0  0  0  0  0  0  0
    8.3591    6.1141  -60.2184 H   0  0  0  0  0  0  0  0  0  0  0  0
    7.3543    5.2649  -58.9885 H   0  0  0  0  0  0  0  0  0  0  0  0
    9.2637    6.4735  -57.9198 H   0  0  0  0  0  0  0  0  0  0  0  0
   10.8321    6.3533  -59.8561 H   0  0  0  0  0  0  0  0  0  0  0  0
   11.5876    5.6785  -58.3680 H   0  0  0  0  0  0  0  0  0  0  0  0
   10.1820    4.5205  -56.6614 H   0  0  0  0  0  0  0  0  0  0  0  0
    8.4042    4.3575  -56.9240 H   0  0  0  0  0  0  0  0  0  0  0  0
    7.5352    2.7860  -58.7145 H   0  0  0  0  0  0  0  0  0  0  0  0
    8.7111    1.8585  -59.7208 H   0  0  0  0  0  0  0  0  0  0  0  0
   12.2115   -1.5150  -54.4997 H   0  0  0  0  0  0  0  0  0  0  0  0
   11.2536   -2.6848  -53.5642 H   0  0  0  0  0  0  0  0  0  0  0  0
   12.3319   -1.6855  -57.0216 H   0  0  0  0  0  0  0  0  0  0  0  0
   12.3738   -3.2579  -58.9518 H   0  0  0  0  0  0  0  0  0  0  0  0
   11.3881   -5.5377  -58.7294 H   0  0  0  0  0  0  0  0  0  0  0  0
   10.3620   -6.2461  -56.5693 H   0  0  0  0  0  0  0  0  0  0  0  0
   10.3189   -4.6816  -54.6337 H   0  0  0  0  0  0  0  0  0  0  0  0
    7.0936   -3.3555  -54.5207 H   0  0  0  0  0  0  0  0  0  0  0  0
    6.2206   -4.9686  -52.8269 H   0  0  0  0  0  0  0  0  0  0  0  0
    8.6239   -3.0676  -49.7763 H   0  0  0  0  0  0  0  0  0  0  0  0
    9.4937   -1.4488  -51.4674 H   0  0  0  0  0  0  0  0  0  0  0  0
  1  2  1  0
  2  3  1  0
  3  4  1  0
  4  5  1  0
  5  6  2  0
  5  7  1  0
  8  7  1  1
  8  9  1  0
  9 10  1  0
 10 11  1  0
 11 12  1  0
 12 13  1  0
 13 14  1  0
 14 15  1  0
 14 16  1  0
 12 17  1  0
  4 18  2  0
 18 19  1  0
 19 20  1  0
 20 21  1  0
 21 22  2  0
 22 23  1  0
 23 24  2  0
 24 25  1  0
 25 26  2  0
 19 27  2  0
 27 28  1  0
 28 29  1  0
 29 30  2  0
 30 31  1  0
 31 32  1  0
 31 33  2  0
 33 34  1  0
 27  3  1  0
 34 28  2  0
 16  8  1  0
 26 21  1  0
 17  8  1  0
 15 10  1  0
  1 35  1  0
  1 36  1  0
  1 37  1  0
  2 38  1  0
  2 39  1  0
  7 40  1  0
  9 41  1  0
  9 42  1  0
 10 43  1  6
 11 44  1  0
 11 45  1  0
 12 46  1  6
 13 47  1  0
 13 48  1  0
 14 49  1  1
 15 50  1  0
 15 51  1  0
 16 52  1  0
 16 53  1  0
 17 54  1  0
 17 55  1  0
 20 56  1  0
 20 57  1  0
 22 58  1  0
 23 59  1  0
 24 60  1  0
 25 61  1  0
 26 62  1  0
 29 63  1  0
 30 64  1  0
 33 65  1  0
 34 66  1  0
M  END
>  <meeko>  (49) 
{"is_sidechain": false}

$$$$

     RDKit          3D

 67 72  0  0  0  0  0  0  0  0999 V2000
    6.2960    0.3060  -55.7390 C   0  0  0  0  0  0  0  0  0  0  0  0
    7.1870    0.5650  -54.5380 C   0  0  0  0  0  0  0  0  0  0  0  0
    8.5090   -0.0710  -54.6760 N   0  0  0  0  0  0  0  0  0  0  0  0
    9.5100    0.4160  -55.4630 C   0  0  0  0  0  0  0  0  0  0  0  0
    9.6240    1.6110  -56.2320 C   0  0  0  0  0  0  0  0  0  0  0  0
    9.9650    2.6420  -55.6640 O   0  0  0  0  0  0  0  0  0  0  0  0
    9.2480    1.5290  -57.5610 N   0  0  0  0  0  0  0  0  0  0  0  0
    9.2170    2.6770  -58.4820 C   0  0  2  0  0  0  0  0  0  0  0  0
    8.6600    2.1880  -59.8460 C   0  0  0  0  0  0  0  0  0  0  0  0
    8.5910    3.3410  -60.8600 C   0  0  1  0  0  0  0  0  0  0  0  0
    7.6780    4.4460  -60.3060 C   0  0  0  0  0  0  0  0  0  0  0  0
    8.2290    4.9630  -58.9680 C   0  0  2  0  0  0  0  0  0  0  0  0
    9.6470    5.5200  -59.1870 C   0  0  0  0  0  0  0  0  0  0  0  0
   10.5690    4.4200  -59.7400 C   0  0  2  0  0  0  0  0  0  0  0  0
   10.0040    3.9080  -61.0740 C   0  0  0  0  0  0  0  0  0  0  0  0
   10.6330    3.2580  -58.7340 C   0  0  0  0  0  0  0  0  0  0  0  0
    8.2900    3.8020  -57.9600 C   0  0  0  0  0  0  0  0  0  0  0  0
   10.4790   -0.5130  -55.4220 N   0  0  0  0  0  0  0  0  0  0  0  0
   10.2010   -1.5450  -54.5570 C   0  0  0  0  0  0  0  0  0  0  0  0
   11.1290   -2.7050  -54.4200 C   0  0  0  0  0  0  0  0  0  0  0  0
   11.2910   -3.4650  -55.7130 C   0  0  0  0  0  0  0  0  0  0  0  0
   11.7680   -2.8210  -56.8640 C   0  0  0  0  0  0  0  0  0  0  0  0
   11.9370   -3.5300  -58.0550 C   0  0  0  0  0  0  0  0  0  0  0  0
   11.6250   -4.8850  -58.1120 C   0  0  0  0  0  0  0  0  0  0  0  0
   11.1380   -5.5350  -56.9810 C   0  0  0  0  0  0  0  0  0  0  0  0
   10.9700   -4.8300  -55.7880 C   0  0  0  0  0  0  0  0  0  0  0  0
    8.9330   -1.2740  -54.0440 C   0  0  0  0  0  0  0  0  0  0  0  0
    8.1540   -2.1720  -53.0010 C   0  0  0  0  0  0  0  0  0  0  0  0
    8.5340   -2.2080  -51.6570 C   0  0  0  0  0  0  0  0  0  0  0  0
    7.8330   -3.0080  -50.7480 C   0  0  0  0  0  0  0  0  0  0  0  0
    6.7550   -3.7740  -51.1820 C   0  0  0  0  0  0  0  0  0  0  0  0
    5.8970   -4.7570  -50.0640 Cl  0  0  0  0  0  0  0  0  0  0  0  0
    6.3670   -3.7430  -52.5180 C   0  0  0  0  0  0  0  0  0  0  0  0
    7.0640   -2.9400  -53.4280 C   0  0  0  0  0  0  0  0  0  0  0  0
    5.2927    0.0143  -55.3951 H   0  0  0  0  0  0  0  0  0  0  0  0
    6.2241    1.2204  -56.3462 H   0  0  0  0  0  0  0  0  0  0  0  0
    6.7255   -0.5045  -56.3462 H   0  0  0  0  0  0  0  0  0  0  0  0
    7.3263    1.6506  -54.4282 H   0  0  0  0  0  0  0  0  0  0  0  0
    6.6955    0.1321  -53.6543 H   0  0  0  0  0  0  0  0  0  0  0  0
    8.6640    0.7480  -57.8280 H   0  0  0  0  0  0  0  0  0  0  0  0
    9.3183    1.4005  -60.2415 H   0  0  0  0  0  0  0  0  0  0  0  0
    7.6432    1.7988  -59.6893 H   0  0  0  0  0  0  0  0  0  0  0  0
    8.1896    2.9745  -61.8163 H   0  0  0  0  0  0  0  0  0  0  0  0
    7.6329    5.2762  -61.0263 H   0  0  0  0  0  0  0  0  0  0  0  0
    6.6703    4.0348  -60.1462 H   0  0  0  0  0  0  0  0  0  0  0  0
    7.5737    5.7561  -58.5786 H   0  0  0  0  0  0  0  0  0  0  0  0
    9.6037    6.3527  -59.9044 H   0  0  0  0  0  0  0  0  0  0  0  0
   10.0466    5.8740  -58.2252 H   0  0  0  0  0  0  0  0  0  0  0  0
   11.5784    4.8273  -59.8985 H   0  0  0  0  0  0  0  0  0  0  0  0
    9.9587    4.7386  -61.7938 H   0  0  0  0  0  0  0  0  0  0  0  0
   10.6579    3.1139  -61.4636 H   0  0  0  0  0  0  0  0  0  0  0  0
   11.2824    2.4665  -59.1364 H   0  0  0  0  0  0  0  0  0  0  0  0
   11.0371    3.6339  -57.7825 H   0  0  0  0  0  0  0  0  0  0  0  0
    8.6789    4.1754  -57.0012 H   0  0  0  0  0  0  0  0  0  0  0  0
    7.2772    3.3942  -57.8262 H   0  0  0  0  0  0  0  0  0  0  0  0
   11.3060   -0.4220  -56.0120 H   0  0  0  0  0  0  0  0  0  0  0  0
   12.1145   -2.3339  -54.1021 H   0  0  0  0  0  0  0  0  0  0  0  0
   10.6997   -3.3932  -53.6769 H   0  0  0  0  0  0  0  0  0  0  0  0
   12.0109   -1.7488  -56.8282 H   0  0  0  0  0  0  0  0  0  0  0  0
   12.3176   -3.0164  -58.9502 H   0  0  0  0  0  0  0  0  0  0  0  0
   11.7631   -5.4424  -59.0502 H   0  0  0  0  0  0  0  0  0  0  0  0
   10.8855   -6.6046  -57.0277 H   0  0  0  0  0  0  0  0  0  0  0  0
   10.5826   -5.3484  -54.8985 H   0  0  0  0  0  0  0  0  0  0  0  0
    9.3872   -1.6053  -51.3123 H   0  0  0  0  0  0  0  0  0  0  0  0
    8.1339   -3.0316  -49.6902 H   0  0  0  0  0  0  0  0  0  0  0  0
    5.5140   -4.3485  -52.8582 H   0  0  0  0  0  0  0  0  0  0  0  0
    6.7542   -2.9121  -54.4831 H   0  0  0  0  0  0  0  0  0  0  0  0
  1  2  1  0
  2  3  1  0
  3  4  1  0
  4  5  1  0
  5  6  2  0
  5  7  1  0
  8  7  1  1
  8  9  1  0
  9 10  1  0
 10 11  1  0
 11 12  1  0
 12 13  1  0
 13 14  1  0
 14 15  1  0
 14 16  1  0
 12 17  1  0
  4 18  2  0
 18 19  1  0
 19 20  1  0
 20 21  1  0
 21 22  2  0
 22 23  1  0
 23 24  2  0
 24 25  1  0
 25 26  2  0
 19 27  2  0
 27 28  1  0
 28 29  1  0
 29 30  2  0
 30 31  1  0
 31 32  1  0
 31 33  2  0
 33 34  1  0
 27  3  1  0
 34 28  2  0
 16  8  1  0
 26 21  1  0
 17  8  1  0
 15 10  1  0
  1 35  1  0
  1 36  1  0
  1 37  1  0
  2 38  1  0
  2 39  1  0
  7 40  1  0
  9 41  1  0
  9 42  1  0
 10 43  1  6
 11 44  1  0
 11 45  1  0
 12 46  1  1
 13 47  1  0
 13 48  1  0
 14 49  1  6
 15 50  1  0
 15 51  1  0
 16 52  1  0
 16 53  1  0
 17 54  1  0
 17 55  1  0
 18 56  1  0
 20 57  1  0
 20 58  1  0
 22 59  1  0
 23 60  1  0
 24 61  1  0
 25 62  1  0
 26 63  1  0
 29 64  1  0
 30 65  1  0
 33 66  1  0
 34 67  1  0
M  CHG  1  18   1
M  END
>  <meeko>  (50) 
{"is_sidechain": false}

$$$$

     RDKit          3D

 50 54  0  0  0  0  0  0  0  0999 V2000
   11.3690   -2.6190  -52.5570 C   0  0  0  0  0  0  0  0  0  0  0  0
   10.9140   -2.3300  -53.9810 C   0  0  1  0  0  0  0  0  0  0  0  0
   10.5680   -3.6500  -54.6480 N   0  0  0  0  0  0  0  0  0  0  0  0
   11.3080   -4.0980  -55.8650 C   0  0  2  0  0  0  0  0  0  0  0  0
   12.4280   -5.0570  -55.3960 C   0  0  0  0  0  0  0  0  0  0  0  0
   13.2350   -5.5570  -56.6070 C   0  0  1  0  0  0  0  0  0  0  0  0
   12.2930   -6.2960  -57.5710 C   0  0  0  0  0  0  0  0  0  0  0  0
   11.1760   -5.3530  -58.0450 C   0  0  2  0  0  0  0  0  0  0  0  0
   11.8050   -4.1420  -58.7590 C   0  0  0  0  0  0  0  0  0  0  0  0
   12.7500   -3.3920  -57.8030 C   0  0  2  0  0  0  0  0  0  0  0  0
   13.8570   -4.3500  -57.3310 C   0  0  0  0  0  0  0  0  0  0  0  0
   11.9510   -2.8960  -56.5830 C   0  0  0  0  0  0  0  0  0  0  0  0
   10.3730   -4.8610  -56.8260 C   0  0  0  0  0  0  0  0  0  0  0  0
    9.6900   -1.4450  -54.0320 C   0  0  0  0  0  0  0  0  0  0  0  0
    8.6120   -1.3320  -53.1380 C   0  0  0  0  0  0  0  0  0  0  0  0
    7.7990   -0.3580  -53.6810 C   0  0  0  0  0  0  0  0  0  0  0  0
    6.5780    0.1100  -53.1360 C   0  0  0  0  0  0  0  0  0  0  0  0
    5.5820    0.4830  -52.6790 N   0  0  0  0  0  0  0  0  0  0  0  0
    8.3960    0.0810  -54.8470 N   0  0  0  0  0  0  0  0  0  0  0  0
    8.0120    1.0530  -55.7820 C   0  0  0  0  0  0  0  0  0  0  0  0
    6.7620    1.2960  -56.3120 C   0  0  0  0  0  0  0  0  0  0  0  0
    6.7850    2.3840  -57.2410 C   0  0  0  0  0  0  0  0  0  0  0  0
    8.0430    2.9260  -57.3800 C   0  0  0  0  0  0  0  0  0  0  0  0
    9.1910    2.1270  -56.3990 S   0  0  0  0  0  0  0  0  0  0  0  0
    9.5730   -0.5950  -55.0630 N   0  0  0  0  0  0  0  0  0  0  0  0
   10.6598   -2.1686  -51.8469 H   0  0  0  0  0  0  0  0  0  0  0  0
   11.4064   -3.7068  -52.3976 H   0  0  0  0  0  0  0  0  0  0  0  0
   12.3695   -2.1905  -52.3976 H   0  0  0  0  0  0  0  0  0  0  0  0
   11.7335   -1.8051  -54.4938 H   0  0  0  0  0  0  0  0  0  0  0  0
    9.5670   -3.5230  -54.9080 H   0  0  0  0  0  0  0  0  0  0  0  0
   10.5320   -4.3960  -53.9440 H   0  0  0  0  0  0  0  0  0  0  0  0
   13.0989   -4.5237  -54.7064 H   0  0  0  0  0  0  0  0  0  0  0  0
   11.9744   -5.9185  -54.8841 H   0  0  0  0  0  0  0  0  0  0  0  0
   14.0299   -6.2386  -56.2701 H   0  0  0  0  0  0  0  0  0  0  0  0
   12.8661   -6.6475  -58.4416 H   0  0  0  0  0  0  0  0  0  0  0  0
   11.8429   -7.1528  -57.0482 H   0  0  0  0  0  0  0  0  0  0  0  0
   10.5085   -5.8879  -58.7366 H   0  0  0  0  0  0  0  0  0  0  0  0
   12.3746   -4.4912  -59.6329 H   0  0  0  0  0  0  0  0  0  0  0  0
   11.0043   -3.4596  -59.0803 H   0  0  0  0  0  0  0  0  0  0  0  0
   13.1998   -2.5336  -58.3234 H   0  0  0  0  0  0  0  0  0  0  0  0
   14.4292   -4.7027  -58.2017 H   0  0  0  0  0  0  0  0  0  0  0  0
   14.5240   -3.8172  -56.6373 H   0  0  0  0  0  0  0  0  0  0  0  0
   12.6271   -2.3740  -55.8899 H   0  0  0  0  0  0  0  0  0  0  0  0
   11.1630   -2.2053  -56.9177 H   0  0  0  0  0  0  0  0  0  0  0  0
    9.5687   -4.1907  -57.1635 H   0  0  0  0  0  0  0  0  0  0  0  0
    9.9368   -5.7247  -56.3028 H   0  0  0  0  0  0  0  0  0  0  0  0
    8.4511   -1.8968  -52.2079 H   0  0  0  0  0  0  0  0  0  0  0  0
    5.8590    0.7240  -56.0525 H   0  0  0  0  0  0  0  0  0  0  0  0
    5.8986    2.7461  -57.7825 H   0  0  0  0  0  0  0  0  0  0  0  0
    8.2802    3.7714  -58.0426 H   0  0  0  0  0  0  0  0  0  0  0  0
  1  2  1  0
  2  3  1  0
  4  3  1  1
  4  5  1  0
  5  6  1  0
  6  7  1  0
  7  8  1  0
  8  9  1  0
  9 10  1  0
 10 11  1  0
 10 12  1  0
  8 13  1  0
  2 14  1  0
 14 15  1  0
 15 16  2  0
 16 17  1  0
 17 18  3  0
 16 19  1  0
 19 20  1  0
 20 21  2  0
 21 22  1  0
 22 23  2  0
 23 24  1  0
 19 25  1  0
 12  4  1  0
 25 14  2  0
 13  4  1  0
 24 20  1  0
 11  6  1  0
  1 26  1  0
  1 27  1  0
  1 28  1  0
  2 29  1  6
  3 30  1  0
  3 31  1  0
  5 32  1  0
  5 33  1  0
  6 34  1  1
  7 35  1  0
  7 36  1  0
  8 37  1  6
  9 38  1  0
  9 39  1  0
 10 40  1  6
 11 41  1  0
 11 42  1  0
 12 43  1  0
 12 44  1  0
 13 45  1  0
 13 46  1  0
 15 47  1  0
 21 48  1  0
 22 49  1  0
 23 50  1  0
M  CHG  1   3   1
M  END
>  <meeko>  (51) 
{"is_sidechain": false}

$$$$

     RDKit          3D

 54 58  0  0  0  0  0  0  0  0999 V2000
    6.3750    2.4160  -61.0440 C   0  0  0  0  0  0  0  0  0  0  0  0
    6.3570    2.1700  -59.2810 S   0  0  0  0  0  0  0  0  0  0  0  0
    6.2650    0.7450  -59.0430 O   0  0  0  0  0  0  0  0  0  0  0  0
    5.3530    3.0400  -58.7020 O   0  0  0  0  0  0  0  0  0  0  0  0
    7.8510    2.6990  -58.8400 N   0  0  0  0  0  0  0  0  0  0  0  0
    8.4520    2.3450  -57.6070 C   0  0  0  0  0  0  0  0  0  0  0  0
    7.8050    1.6570  -56.4750 C   0  0  0  0  0  0  0  0  0  0  0  0
    6.6870    1.9980  -56.1130 O   0  0  0  0  0  0  0  0  0  0  0  0
    8.5830    0.6690  -55.9180 N   0  0  0  0  0  0  0  0  0  0  0  0
    8.1120   -0.2500  -54.8750 C   0  0  2  0  0  0  0  0  0  0  0  0
    6.7000   -0.8000  -55.1940 C   0  0  0  0  0  0  0  0  0  0  0  0
    6.2540   -1.8020  -54.1160 C   0  0  1  0  0  0  0  0  0  0  0  0
    7.2450   -2.9770  -54.0730 C   0  0  0  0  0  0  0  0  0  0  0  0
    8.6530   -2.4640  -53.7360 C   0  0  2  0  0  0  0  0  0  0  0  0
    8.6270   -1.7660  -52.3670 C   0  0  0  0  0  0  0  0  0  0  0  0
    7.6450   -0.5840  -52.4010 C   0  0  2  0  0  0  0  0  0  0  0  0
    6.2390   -1.1020  -52.7460 C   0  0  0  0  0  0  0  0  0  0  0  0
    8.0930    0.4200  -53.4780 C   0  0  0  0  0  0  0  0  0  0  0  0
    9.0920   -1.4530  -54.8080 C   0  0  0  0  0  0  0  0  0  0  0  0
    9.6760    2.8800  -57.6010 C   0  0  0  0  0  0  0  0  0  0  0  0
    9.9210    3.5920  -58.7600 N   0  0  0  0  0  0  0  0  0  0  0  0
   11.1100    4.3090  -59.0920 C   0  0  0  0  0  0  0  0  0  0  0  0
   12.3840    3.7320  -58.9840 C   0  0  0  0  0  0  0  0  0  0  0  0
   13.5420    4.4510  -59.3100 C   0  0  0  0  0  0  0  0  0  0  0  0
   13.4500    5.7650  -59.7500 C   0  0  0  0  0  0  0  0  0  0  0  0
   12.2010    6.3620  -59.8630 C   0  0  0  0  0  0  0  0  0  0  0  0
   11.0450    5.6430  -59.5360 C   0  0  0  0  0  0  0  0  0  0  0  0
    8.7560    3.5240  -59.5390 C   0  0  0  0  0  0  0  0  0  0  0  0
    8.4990    4.0700  -60.5960 O   0  0  0  0  0  0  0  0  0  0  0  0
    6.4537    3.4910  -61.2634 H   0  0  0  0  0  0  0  0  0  0  0  0
    7.2370    1.8890  -61.4790 H   0  0  0  0  0  0  0  0  0  0  0  0
    5.4455    2.0200  -61.4790 H   0  0  0  0  0  0  0  0  0  0  0  0
    9.3660    0.3470  -56.4750 H   0  0  0  0  0  0  0  0  0  0  0  0
    5.9857    0.0358  -55.2286 H   0  0  0  0  0  0  0  0  0  0  0  0
    6.7306   -1.3144  -56.1658 H   0  0  0  0  0  0  0  0  0  0  0  0
    5.2466   -2.1750  -54.3529 H   0  0  0  0  0  0  0  0  0  0  0  0
    6.9252   -3.6954  -53.3039 H   0  0  0  0  0  0  0  0  0  0  0  0
    7.2655   -3.4686  -55.0568 H   0  0  0  0  0  0  0  0  0  0  0  0
    9.3570   -3.3088  -53.7079 H   0  0  0  0  0  0  0  0  0  0  0  0
    8.3070   -2.4840  -51.5975 H   0  0  0  0  0  0  0  0  0  0  0  0
    9.6347   -1.3930  -52.1315 H   0  0  0  0  0  0  0  0  0  0  0  0
    7.6281   -0.0899  -51.4183 H   0  0  0  0  0  0  0  0  0  0  0  0
    5.9158   -1.8175  -51.9755 H   0  0  0  0  0  0  0  0  0  0  0  0
    5.5418   -0.2520  -52.7840 H   0  0  0  0  0  0  0  0  0  0  0  0
    7.3937    1.2690  -53.4939 H   0  0  0  0  0  0  0  0  0  0  0  0
    9.1086    0.7676  -53.2379 H   0  0  0  0  0  0  0  0  0  0  0  0
   10.0986   -1.0834  -54.5628 H   0  0  0  0  0  0  0  0  0  0  0  0
    9.0936   -1.9579  -55.7853 H   0  0  0  0  0  0  0  0  0  0  0  0
   10.3973    2.7681  -56.7781 H   0  0  0  0  0  0  0  0  0  0  0  0
   12.4762    2.6926  -58.6359 H   0  0  0  0  0  0  0  0  0  0  0  0
   14.5281    3.9724  -59.2170 H   0  0  0  0  0  0  0  0  0  0  0  0
   14.3591    6.3285  -60.0070 H   0  0  0  0  0  0  0  0  0  0  0  0
   12.1198    7.4026  -60.2104 H   0  0  0  0  0  0  0  0  0  0  0  0
   10.0638    6.1317  -59.6282 H   0  0  0  0  0  0  0  0  0  0  0  0
  1  2  1  0
  2  3  2  0
  2  4  2  0
  2  5  1  0
  5  6  1  0
  6  7  1  0
  7  8  2  0
  7  9  1  0
 10  9  1  6
 10 11  1  0
 11 12  1  0
 12 13  1  0
 13 14  1  0
 14 15  1  0
 15 16  1  0
 16 17  1  0
 16 18  1  0
 14 19  1  0
  6 20  2  0
 20 21  1  0
 21 22  1  0
 22 23  2  0
 23 24  1  0
 24 25  2  0
 25 26  1  0
 26 27  2  0
 21 28  1  0
 28 29  2  0
 28  5  1  0
 18 10  1  0
 27 22  1  0
 19 10  1  0
 17 12  1  0
  1 30  1  0
  1 31  1  0
  1 32  1  0
  9 33  1  0
 11 34  1  0
 11 35  1  0
 12 36  1  6
 13 37  1  0
 13 38  1  0
 14 39  1  1
 15 40  1  0
 15 41  1  0
 16 42  1  1
 17 43  1  0
 17 44  1  0
 18 45  1  0
 18 46  1  0
 19 47  1  0
 19 48  1  0
 20 49  1  0
 23 50  1  0
 24 51  1  0
 25 52  1  0
 26 53  1  0
 27 54  1  0
M  END
>  <meeko>  (52) 
{"is_sidechain": false}

$$$$

     RDKit          3D

 51 54  0  0  0  0  0  0  0  0999 V2000
   11.2350   -0.2960  -55.9870 O   0  0  0  0  0  0  0  0  0  0  0  0
   10.3460    0.5380  -56.1090 C   0  0  0  0  0  0  0  0  0  0  0  0
    9.1950    0.5650  -55.3500 N   0  0  0  0  0  0  0  0  0  0  0  0
    8.9860   -0.3120  -54.2130 C   0  0  2  0  0  0  0  0  0  0  0  0
    8.9980   -1.7780  -54.6640 C   0  0  0  0  0  0  0  0  0  0  0  0
    8.7250   -2.7260  -53.5020 C   0  0  0  0  0  0  0  0  0  0  0  0
    7.4200   -2.3770  -52.7900 C   0  0  1  0  0  0  0  0  0  0  0  0
    7.2470   -3.2310  -51.6650 O   0  0  0  0  0  0  0  0  0  0  0  0
    7.4000   -0.9180  -52.3350 C   0  0  0  0  0  0  0  0  0  0  0  0
    7.6750    0.0350  -53.4940 C   0  0  0  0  0  0  0  0  0  0  0  0
   10.4450    1.6420  -57.1160 C   0  0  0  0  0  0  0  0  0  0  0  0
   11.5280    2.4960  -57.0960 C   0  0  0  0  0  0  0  0  0  0  0  0
   11.5650    3.5040  -58.0500 C   0  0  0  0  0  0  0  0  0  0  0  0
   12.9310    4.5670  -58.0220 Cl  0  0  0  0  0  0  0  0  0  0  0  0
   10.5300    3.6350  -58.9840 C   0  0  0  0  0  0  0  0  0  0  0  0
   10.5930    4.8600  -60.2130 Cl  0  0  0  0  0  0  0  0  0  0  0  0
    9.4550    2.7240  -58.9270 C   0  0  0  0  0  0  0  0  0  0  0  0
    8.3750    2.8190  -59.8330 N   0  0  0  0  0  0  0  0  0  0  0  0
    8.6760    2.2450  -61.1540 C   0  0  0  0  0  0  0  0  0  0  0  0
    7.5810    2.6660  -62.1380 C   0  0  0  0  0  0  0  0  0  0  0  0
    6.2030    2.3660  -61.6040 C   0  0  0  0  0  0  0  0  0  0  0  0
    5.1110    2.3070  -62.4810 C   0  0  0  0  0  0  0  0  0  0  0  0
    3.8270    2.0640  -61.9940 C   0  0  0  0  0  0  0  0  0  0  0  0
    3.6230    1.8870  -60.6280 C   0  0  0  0  0  0  0  0  0  0  0  0
    4.7020    1.9550  -59.7460 C   0  0  0  0  0  0  0  0  0  0  0  0
    5.9980    2.2070  -60.2200 C   0  0  0  0  0  0  0  0  0  0  0  0
    7.1540    2.2430  -59.2350 C   0  0  0  0  0  0  0  0  0  0  0  0
    9.4170    1.7350  -58.0010 N   0  0  0  0  0  0  0  0  0  0  0  0
    8.6060    1.3850  -55.4760 H   0  0  0  0  0  0  0  0  0  0  0  0
    9.8095   -0.1651  -53.4987 H   0  0  0  0  0  0  0  0  0  0  0  0
    8.2229   -1.9216  -55.4312 H   0  0  0  0  0  0  0  0  0  0  0  0
    9.9963   -2.0057  -55.0659 H   0  0  0  0  0  0  0  0  0  0  0  0
    8.6580   -3.7540  -53.8875 H   0  0  0  0  0  0  0  0  0  0  0  0
    9.5486   -2.6319  -52.7789 H   0  0  0  0  0  0  0  0  0  0  0  0
    6.5948   -2.5213  -53.5029 H   0  0  0  0  0  0  0  0  0  0  0  0
    7.6120   -4.1040  -51.8880 H   0  0  0  0  0  0  0  0  0  0  0  0
    6.4107   -0.6895  -51.9119 H   0  0  0  0  0  0  0  0  0  0  0  0
    8.1902   -0.7813  -51.5820 H   0  0  0  0  0  0  0  0  0  0  0  0
    6.8455   -0.0295  -54.2136 H   0  0  0  0  0  0  0  0  0  0  0  0
    7.7649    1.0533  -53.0878 H   0  0  0  0  0  0  0  0  0  0  0  0
   12.3312    2.3828  -56.3530 H   0  0  0  0  0  0  0  0  0  0  0  0
    9.6503    2.6161  -61.5047 H   0  0  0  0  0  0  0  0  0  0  0  0
    8.7131    1.1478  -61.0843 H   0  0  0  0  0  0  0  0  0  0  0  0
    7.6640    3.7473  -62.3219 H   0  0  0  0  0  0  0  0  0  0  0  0
    7.7191    2.0952  -63.0681 H   0  0  0  0  0  0  0  0  0  0  0  0
    5.2678    2.4533  -63.5599 H   0  0  0  0  0  0  0  0  0  0  0  0
    2.9757    2.0122  -62.6887 H   0  0  0  0  0  0  0  0  0  0  0  0
    2.6105    1.6934  -60.2440 H   0  0  0  0  0  0  0  0  0  0  0  0
    4.5348    1.8096  -58.6686 H   0  0  0  0  0  0  0  0  0  0  0  0
    6.8620    2.8531  -58.3675 H   0  0  0  0  0  0  0  0  0  0  0  0
    7.3781    1.2080  -58.9375 H   0  0  0  0  0  0  0  0  0  0  0  0
  1  2  2  0
  2  3  1  0
  3  4  1  0
  4  5  1  0
  5  6  1  0
  6  7  1  0
  7  8  1  0
  7  9  1  0
  9 10  1  0
  2 11  1  0
 11 12  1  0
 12 13  2  0
 13 14  1  0
 13 15  1  0
 15 16  1  0
 15 17  2  0
 17 18  1  0
 18 19  1  0
 19 20  1  0
 20 21  1  0
 21 22  2  0
 22 23  1  0
 23 24  2  0
 24 25  1  0
 25 26  2  0
 26 27  1  0
 17 28  1  0
 10  4  1  0
 28 11  2  0
 27 18  1  0
 26 21  1  0
  3 29  1  0
  4 30  1  6
  5 31  1  0
  5 32  1  0
  6 33  1  0
  6 34  1  0
  7 35  1  1
  8 36  1  0
  9 37  1  0
  9 38  1  0
 10 39  1  0
 10 40  1  0
 12 41  1  0
 19 42  1  0
 19 43  1  0
 20 44  1  0
 20 45  1  0
 22 46  1  0
 23 47  1  0
 24 48  1  0
 25 49  1  0
 27 50  1  0
 27 51  1  0
M  END
>  <meeko>  (53) 
{"is_sidechain": false}

$$$$

     RDKit          3D

 62 66  0  0  0  0  0  0  0  0999 V2000
    6.0860    0.1920  -53.6710 C   0  0  0  0  0  0  0  0  0  0  0  0
    7.4300   -0.2800  -54.1030 C   0  0  0  0  0  0  0  0  0  0  0  0
    8.2410    0.2510  -55.1480 C   0  0  0  0  0  0  0  0  0  0  0  0
    7.9770    1.4200  -56.0120 C   0  0  0  0  0  0  0  0  0  0  0  0
    6.8650    1.9230  -56.1350 O   0  0  0  0  0  0  0  0  0  0  0  0
    9.0980    1.8690  -56.6920 N   0  0  0  0  0  0  0  0  0  0  0  0
    9.0920    2.9370  -57.6940 C   0  0  2  0  0  0  0  0  0  0  0  0
    7.9450    2.7530  -58.7180 C   0  0  0  0  0  0  0  0  0  0  0  0
    7.9980    3.8520  -59.7930 C   0  0  1  0  0  0  0  0  0  0  0  0
    7.8730    5.2290  -59.1180 C   0  0  0  0  0  0  0  0  0  0  0  0
    9.0290    5.4400  -58.1250 C   0  0  2  0  0  0  0  0  0  0  0  0
   10.3660    5.3520  -58.8780 C   0  0  0  0  0  0  0  0  0  0  0  0
   10.5010    3.9750  -59.5460 C   0  0  2  0  0  0  0  0  0  0  0  0
    9.3430    3.7740  -60.5350 C   0  0  0  0  0  0  0  0  0  0  0  0
   10.4390    2.8830  -58.4670 C   0  0  0  0  0  0  0  0  0  0  0  0
    8.9780    4.3410  -57.0480 C   0  0  0  0  0  0  0  0  0  0  0  0
    9.3630   -0.4660  -55.2840 N   0  0  0  0  0  0  0  0  0  0  0  0
    9.3110   -1.4260  -54.3340 N   0  0  0  0  0  0  0  0  0  0  0  0
   10.4290   -2.3980  -54.2790 C   0  0  0  0  0  0  0  0  0  0  0  0
   11.5290   -2.0380  -55.3150 C   0  0  0  0  0  0  0  0  0  0  0  0
   11.1300   -2.4280  -52.9080 C   0  0  0  0  0  0  0  0  0  0  0  0
    9.9030   -3.8020  -54.6290 C   0  0  0  0  0  0  0  0  0  0  0  0
    8.1440   -1.3580  -53.5930 C   0  0  0  0  0  0  0  0  0  0  0  0
    7.7430   -2.2540  -52.5150 C   0  0  0  0  0  0  0  0  0  0  0  0
    6.9440   -3.3710  -52.7810 C   0  0  0  0  0  0  0  0  0  0  0  0
    6.5340   -4.2080  -51.7400 C   0  0  0  0  0  0  0  0  0  0  0  0
    6.9090   -3.9240  -50.4270 C   0  0  0  0  0  0  0  0  0  0  0  0
    7.6870   -2.8000  -50.1520 C   0  0  0  0  0  0  0  0  0  0  0  0
    8.0960   -1.9630  -51.1910 C   0  0  0  0  0  0  0  0  0  0  0  0
    6.0389    0.2085  -52.5721 H   0  0  0  0  0  0  0  0  0  0  0  0
    5.9105    1.2055  -54.0608 H   0  0  0  0  0  0  0  0  0  0  0  0
    5.3153   -0.4893  -54.0608 H   0  0  0  0  0  0  0  0  0  0  0  0
    9.8780    1.2250  -56.7080 H   0  0  0  0  0  0  0  0  0  0  0  0
    8.0456    1.7698  -59.2008 H   0  0  0  0  0  0  0  0  0  0  0  0
    6.9829    2.8203  -58.1890 H   0  0  0  0  0  0  0  0  0  0  0  0
    7.1723    3.7108  -60.5059 H   0  0  0  0  0  0  0  0  0  0  0  0
    7.9062    6.0150  -59.8868 H   0  0  0  0  0  0  0  0  0  0  0  0
    6.9184    5.2768  -58.5735 H   0  0  0  0  0  0  0  0  0  0  0  0
    8.9361    6.4282  -57.6508 H   0  0  0  0  0  0  0  0  0  0  0  0
   10.4028    6.1362  -59.6485 H   0  0  0  0  0  0  0  0  0  0  0  0
   11.1924    5.4912  -58.1655 H   0  0  0  0  0  0  0  0  0  0  0  0
   11.4597    3.9156  -60.0821 H   0  0  0  0  0  0  0  0  0  0  0  0
    9.3806    4.5592  -61.3044 H   0  0  0  0  0  0  0  0  0  0  0  0
    9.4384    2.7848  -61.0065 H   0  0  0  0  0  0  0  0  0  0  0  0
   10.5390    1.8980  -58.9464 H   0  0  0  0  0  0  0  0  0  0  0  0
   11.2588    3.0501  -57.7529 H   0  0  0  0  0  0  0  0  0  0  0  0
    9.8124    4.4844  -56.3457 H   0  0  0  0  0  0  0  0  0  0  0  0
    8.0170    4.4096  -56.5172 H   0  0  0  0  0  0  0  0  0  0  0  0
   12.4460   -1.7379  -54.7868 H   0  0  0  0  0  0  0  0  0  0  0  0
   11.7393   -2.9142  -55.9459 H   0  0  0  0  0  0  0  0  0  0  0  0
   11.1806   -1.2070  -55.9459 H   0  0  0  0  0  0  0  0  0  0  0  0
   10.3745   -2.3957  -52.1091 H   0  0  0  0  0  0  0  0  0  0  0  0
   11.7197   -3.3522  -52.8178 H   0  0  0  0  0  0  0  0  0  0  0  0
   11.7965   -1.5576  -52.8178 H   0  0  0  0  0  0  0  0  0  0  0  0
    9.6950   -4.3571  -53.7024 H   0  0  0  0  0  0  0  0  0  0  0  0
    8.9780   -3.7109  -55.2173 H   0  0  0  0  0  0  0  0  0  0  0  0
   10.6601   -4.3411  -55.2173 H   0  0  0  0  0  0  0  0  0  0  0  0
    6.6372   -3.5914  -53.8141 H   0  0  0  0  0  0  0  0  0  0  0  0
    5.9152   -5.0914  -51.9561 H   0  0  0  0  0  0  0  0  0  0  0  0
    6.5911   -4.5866  -49.6085 H   0  0  0  0  0  0  0  0  0  0  0  0
    7.9784   -2.5730  -49.1159 H   0  0  0  0  0  0  0  0  0  0  0  0
    8.6988   -1.0700  -50.9691 H   0  0  0  0  0  0  0  0  0  0  0  0
  1  2  1  0
  2  3  1  0
  3  4  1  0
  4  5  2  0
  4  6  1  0
  7  6  1  1
  7  8  1  0
  8  9  1  0
  9 10  1  0
 10 11  1  0
 11 12  1  0
 12 13  1  0
 13 14  1  0
 13 15  1  0
 11 16  1  0
  3 17  2  0
 17 18  1  0
 18 19  1  0
 19 20  1  0
 19 21  1  0
 19 22  1  0
 18 23  1  0
 23 24  1  0
 24 25  2  0
 25 26  1  0
 26 27  2  0
 27 28  1  0
 28 29  2  0
 23  2  2  0
 29 24  1  0
 15  7  1  0
 16  7  1  0
 14  9  1  0
  1 30  1  0
  1 31  1  0
  1 32  1  0
  6 33  1  0
  8 34  1  0
  8 35  1  0
  9 36  1  6
 10 37  1  0
 10 38  1  0
 11 39  1  1
 12 40  1  0
 12 41  1  0
 13 42  1  6
 14 43  1  0
 14 44  1  0
 15 45  1  0
 15 46  1  0
 16 47  1  0
 16 48  1  0
 20 49  1  0
 20 50  1  0
 20 51  1  0
 21 52  1  0
 21 53  1  0
 21 54  1  0
 22 55  1  0
 22 56  1  0
 22 57  1  0
 25 58  1  0
 26 59  1  0
 27 60  1  0
 28 61  1  0
 29 62  1  0
M  END
>  <meeko>  (54) 
{"is_sidechain": false}

$$$$

     RDKit          3D

 47 51  0  0  0  0  0  0  0  0999 V2000
    9.6270    1.3740  -55.7140 O   0  0  0  0  0  0  0  0  0  0  0  0
    8.4060    1.3010  -55.8090 C   0  0  0  0  0  0  0  0  0  0  0  0
    7.6700    2.0890  -56.6810 N   0  0  0  0  0  0  0  0  0  0  0  0
    8.2460    3.0490  -57.6260 C   0  0  2  0  0  0  0  0  0  0  0  0
    7.1370    3.4670  -58.6300 C   0  0  0  0  0  0  0  0  0  0  0  0
    7.6730    4.4730  -59.6600 C   0  0  1  0  0  0  0  0  0  0  0  0
    8.1780    5.7250  -58.9260 C   0  0  0  0  0  0  0  0  0  0  0  0
    9.2960    5.3410  -57.9440 C   0  0  2  0  0  0  0  0  0  0  0  0
   10.4530    4.6920  -58.7210 C   0  0  0  0  0  0  0  0  0  0  0  0
    9.9580    3.4370  -59.4600 C   0  0  2  0  0  0  0  0  0  0  0  0
    8.8350    3.8330  -60.4330 C   0  0  0  0  0  0  0  0  0  0  0  0
    9.4100    2.4280  -58.4360 C   0  0  0  0  0  0  0  0  0  0  0  0
    8.7480    4.3340  -56.9180 C   0  0  0  0  0  0  0  0  0  0  0  0
    7.6080    0.3530  -55.0130 C   0  0  0  0  0  0  0  0  0  0  0  0
    6.2470    0.1160  -55.0600 C   0  0  0  0  0  0  0  0  0  0  0  0
    6.0050   -0.8440  -54.1130 N   0  0  0  0  0  0  0  0  0  0  0  0
    7.1950   -1.1800  -53.5110 C   0  0  0  0  0  0  0  0  0  0  0  0
    7.3450   -2.1730  -52.4410 C   0  0  0  0  0  0  0  0  0  0  0  0
    7.7910   -1.8410  -51.1520 C   0  0  0  0  0  0  0  0  0  0  0  0
    7.9190   -2.8240  -50.1650 C   0  0  0  0  0  0  0  0  0  0  0  0
    7.6030   -4.1510  -50.4500 C   0  0  0  0  0  0  0  0  0  0  0  0
    7.1580   -4.4970  -51.7230 C   0  0  0  0  0  0  0  0  0  0  0  0
    7.0300   -3.5140  -52.7080 C   0  0  0  0  0  0  0  0  0  0  0  0
    8.1690   -0.4630  -54.0430 N   0  0  0  0  0  0  0  0  0  0  0  0
    6.7010    1.8430  -56.8060 H   0  0  0  0  0  0  0  0  0  0  0  0
    6.7740    2.5723  -59.1571 H   0  0  0  0  0  0  0  0  0  0  0  0
    6.3198    3.9438  -58.0689 H   0  0  0  0  0  0  0  0  0  0  0  0
    6.8724    4.7522  -60.3607 H   0  0  0  0  0  0  0  0  0  0  0  0
    8.5688    6.4452  -59.6599 H   0  0  0  0  0  0  0  0  0  0  0  0
    7.3454    6.1776  -58.3675 H   0  0  0  0  0  0  0  0  0  0  0  0
    9.6564    6.2410  -57.4242 H   0  0  0  0  0  0  0  0  0  0  0  0
   10.8487    5.4121  -59.4524 H   0  0  0  0  0  0  0  0  0  0  0  0
   11.2438    4.4033  -58.0129 H   0  0  0  0  0  0  0  0  0  0  0  0
   10.7898    2.9828  -60.0183 H   0  0  0  0  0  0  0  0  0  0  0  0
    9.2256    4.5538  -61.1664 H   0  0  0  0  0  0  0  0  0  0  0  0
    8.4721    2.9333  -60.9515 H   0  0  0  0  0  0  0  0  0  0  0  0
    9.0452    1.5364  -58.9670 H   0  0  0  0  0  0  0  0  0  0  0  0
   10.2180    2.1542  -57.7416 H   0  0  0  0  0  0  0  0  0  0  0  0
    9.5473    4.0679  -56.2107 H   0  0  0  0  0  0  0  0  0  0  0  0
    7.9046    4.7963  -56.3842 H   0  0  0  0  0  0  0  0  0  0  0  0
    5.5112    0.5980  -55.7205 H   0  0  0  0  0  0  0  0  0  0  0  0
    5.1030   -1.2310  -53.8810 H   0  0  0  0  0  0  0  0  0  0  0  0
    8.0425   -0.7966  -50.9155 H   0  0  0  0  0  0  0  0  0  0  0  0
    8.2705   -2.5484  -49.1598 H   0  0  0  0  0  0  0  0  0  0  0  0
    7.7048   -4.9221  -49.6722 H   0  0  0  0  0  0  0  0  0  0  0  0
    6.9074   -5.5430  -51.9532 H   0  0  0  0  0  0  0  0  0  0  0  0
    6.6760   -3.7965  -53.7104 H   0  0  0  0  0  0  0  0  0  0  0  0
  1  2  2  0
  2  3  1  0
  4  3  1  1
  4  5  1  0
  5  6  1  0
  6  7  1  0
  7  8  1  0
  8  9  1  0
  9 10  1  0
 10 11  1  0
 10 12  1  0
  8 13  1  0
  2 14  1  0
 14 15  2  0
 15 16  1  0
 16 17  1  0
 17 18  1  0
 18 19  2  0
 19 20  1  0
 20 21  2  0
 21 22  1  0
 22 23  2  0
 17 24  2  0
 12  4  1  0
 24 14  1  0
 13  4  1  0
 23 18  1  0
 11  6  1  0
  3 25  1  0
  5 26  1  0
  5 27  1  0
  6 28  1  6
  7 29  1  0
  7 30  1  0
  8 31  1  1
  9 32  1  0
  9 33  1  0
 10 34  1  6
 11 35  1  0
 11 36  1  0
 12 37  1  0
 12 38  1  0
 13 39  1  0
 13 40  1  0
 15 41  1  0
 16 42  1  0
 19 43  1  0
 20 44  1  0
 21 45  1  0
 22 46  1  0
 23 47  1  0
M  END
>  <meeko>  (55) 
{"is_sidechain": false}

$$$$

     RDKit          3D

 47 51  0  0  0  0  0  0  0  0999 V2000
    9.5420    1.3850  -55.6540 O   0  0  0  0  0  0  0  0  0  0  0  0
    8.3360    1.2690  -55.8410 C   0  0  0  0  0  0  0  0  0  0  0  0
    7.6450    1.9700  -56.8030 N   0  0  0  0  0  0  0  0  0  0  0  0
    8.2380    2.9410  -57.7280 C   0  0  2  0  0  0  0  0  0  0  0  0
    8.5960    4.2690  -57.0140 C   0  0  0  0  0  0  0  0  0  0  0  0
    9.1680    5.2860  -58.0190 C   0  0  1  0  0  0  0  0  0  0  0  0
   10.4260    4.6950  -58.6780 C   0  0  0  0  0  0  0  0  0  0  0  0
   10.0740    3.3960  -59.4220 C   0  0  2  0  0  0  0  0  0  0  0  0
    9.0170    3.6970  -60.4970 C   0  0  0  0  0  0  0  0  0  0  0  0
    7.7550    4.2780  -59.8420 C   0  0  2  0  0  0  0  0  0  0  0  0
    8.1170    5.5760  -59.1020 C   0  0  0  0  0  0  0  0  0  0  0  0
    7.1960    3.2620  -58.8350 C   0  0  0  0  0  0  0  0  0  0  0  0
    9.5040    2.3760  -58.4200 C   0  0  0  0  0  0  0  0  0  0  0  0
    7.5420    0.3680  -55.0470 C   0  0  0  0  0  0  0  0  0  0  0  0
    6.1980    0.0810  -54.9810 C   0  0  0  0  0  0  0  0  0  0  0  0
    5.9410   -0.8780  -54.0340 N   0  0  0  0  0  0  0  0  0  0  0  0
    7.1070   -1.2000  -53.5010 C   0  0  0  0  0  0  0  0  0  0  0  0
    7.3270   -2.1910  -52.4390 C   0  0  0  0  0  0  0  0  0  0  0  0
    7.7940   -1.8440  -51.1620 C   0  0  0  0  0  0  0  0  0  0  0  0
    7.9880   -2.8230  -50.1820 C   0  0  0  0  0  0  0  0  0  0  0  0
    7.7180   -4.1610  -50.4630 C   0  0  0  0  0  0  0  0  0  0  0  0
    7.2520   -4.5220  -51.7240 C   0  0  0  0  0  0  0  0  0  0  0  0
    7.0600   -3.5440  -52.7030 C   0  0  0  0  0  0  0  0  0  0  0  0
    8.0980   -0.4580  -54.0970 N   0  0  0  0  0  0  0  0  0  0  0  0
    6.6520    1.8070  -56.8820 H   0  0  0  0  0  0  0  0  0  0  0  0
    7.6894    4.6873  -56.5523 H   0  0  0  0  0  0  0  0  0  0  0  0
    9.3548    4.0651  -56.2442 H   0  0  0  0  0  0  0  0  0  0  0  0
    9.4267    6.2183  -57.4956 H   0  0  0  0  0  0  0  0  0  0  0  0
   10.8382    5.4228  -59.3924 H   0  0  0  0  0  0  0  0  0  0  0  0
   11.1693    4.4725  -57.8983 H   0  0  0  0  0  0  0  0  0  0  0  0
   10.9770    2.9844  -59.8964 H   0  0  0  0  0  0  0  0  0  0  0  0
    9.4236    4.4250  -61.2144 H   0  0  0  0  0  0  0  0  0  0  0  0
    8.7569    2.7648  -61.0198 H   0  0  0  0  0  0  0  0  0  0  0  0
    7.0014    4.4905  -60.6146 H   0  0  0  0  0  0  0  0  0  0  0  0
    8.5242    6.3034  -59.8197 H   0  0  0  0  0  0  0  0  0  0  0  0
    7.2131    5.9865  -58.6282 H   0  0  0  0  0  0  0  0  0  0  0  0
    6.2921    3.6795  -58.3675 H   0  0  0  0  0  0  0  0  0  0  0  0
    6.9587    2.3318  -59.3721 H   0  0  0  0  0  0  0  0  0  0  0  0
    9.2415    1.4514  -58.9550 H   0  0  0  0  0  0  0  0  0  0  0  0
   10.2649    2.1686  -57.6532 H   0  0  0  0  0  0  0  0  0  0  0  0
    5.4292    0.5585  -55.6063 H   0  0  0  0  0  0  0  0  0  0  0  0
    8.0098   -0.7908  -50.9292 H   0  0  0  0  0  0  0  0  0  0  0  0
    8.3551   -2.5357  -49.1857 H   0  0  0  0  0  0  0  0  0  0  0  0
    7.8726   -4.9292  -49.6910 H   0  0  0  0  0  0  0  0  0  0  0  0
    7.0351   -5.5766  -51.9495 H   0  0  0  0  0  0  0  0  0  0  0  0
    6.6935   -3.8389  -53.6974 H   0  0  0  0  0  0  0  0  0  0  0  0
    9.0860   -0.4940  -53.8890 H   0  0  0  0  0  0  0  0  0  0  0  0
  1  2  2  0
  2  3  1  0
  4  3  1  1
  4  5  1  0
  5  6  1  0
  6  7  1  0
  7  8  1  0
  8  9  1  0
  9 10  1  0
 10 11  1  0
 10 12  1  0
  8 13  1  0
  2 14  1  0
 14 15  2  0
 15 16  1  0
 16 17  2  0
 17 18  1  0
 18 19  2  0
 19 20  1  0
 20 21  2  0
 21 22  1  0
 22 23  2  0
 17 24  1  0
 12  4  1  0
 24 14  1  0
 13  4  1  0
 23 18  1  0
 11  6  1  0
  3 25  1  0
  5 26  1  0
  5 27  1  0
  6 28  1  1
  7 29  1  0
  7 30  1  0
  8 31  1  6
  9 32  1  0
  9 33  1  0
 10 34  1  6
 11 35  1  0
 11 36  1  0
 12 37  1  0
 12 38  1  0
 13 39  1  0
 13 40  1  0
 15 41  1  0
 19 42  1  0
 20 43  1  0
 21 44  1  0
 22 45  1  0
 23 46  1  0
 24 47  1  0
M  END
>  <meeko>  (56) 
{"is_sidechain": false}

$$$$

     RDKit          3D

 48 52  0  0  0  0  0  0  0  0999 V2000
    9.9300    1.5540  -55.7890 O   0  0  0  0  0  0  0  0  0  0  0  0
    8.7300    1.3310  -55.8910 C   0  0  0  0  0  0  0  0  0  0  0  0
    7.9110    1.9700  -56.8110 N   0  0  0  0  0  0  0  0  0  0  0  0
    8.3850    3.0000  -57.7560 C   0  0  2  0  0  0  0  0  0  0  0  0
    9.6140    2.5220  -58.5710 C   0  0  0  0  0  0  0  0  0  0  0  0
   10.0460    3.5990  -59.5820 C   0  0  1  0  0  0  0  0  0  0  0  0
    8.8890    3.8770  -60.5550 C   0  0  0  0  0  0  0  0  0  0  0  0
    7.6590    4.3710  -59.7780 C   0  0  2  0  0  0  0  0  0  0  0  0
    8.0170    5.6620  -59.0260 C   0  0  0  0  0  0  0  0  0  0  0  0
    9.1690    5.3960  -58.0440 C   0  0  2  0  0  0  0  0  0  0  0  0
   10.3950    4.8910  -58.8260 C   0  0  0  0  0  0  0  0  0  0  0  0
    8.7370    4.3220  -57.0300 C   0  0  0  0  0  0  0  0  0  0  0  0
    7.2390    3.2970  -58.7630 C   0  0  0  0  0  0  0  0  0  0  0  0
    7.9690    0.4050  -55.0900 C   0  0  0  0  0  0  0  0  0  0  0  0
    6.6040    0.2730  -55.1220 C   0  0  0  0  0  0  0  0  0  0  0  0
    6.2710   -0.6890  -54.1970 N   0  0  0  0  0  0  0  0  0  0  0  0
    7.3590   -1.1470  -53.5640 C   0  0  0  0  0  0  0  0  0  0  0  0
    7.4130   -2.2180  -52.4250 C   0  0  0  0  0  0  0  0  0  0  0  0
    7.0170   -3.5310  -52.6900 C   0  0  0  0  0  0  0  0  0  0  0  0
    7.0640   -4.4830  -51.6710 C   0  0  0  0  0  0  0  0  0  0  0  0
    7.5070   -4.1230  -50.3980 C   0  0  0  0  0  0  0  0  0  0  0  0
    7.9030   -2.8110  -50.1380 C   0  0  0  0  0  0  0  0  0  0  0  0
    7.8570   -1.8520  -51.1510 C   0  0  0  0  0  0  0  0  0  0  0  0
    8.3940   -0.4880  -54.1060 N   0  0  0  0  0  0  0  0  0  0  0  0
    6.9190    1.9960  -56.6260 H   0  0  0  0  0  0  0  0  0  0  0  0
   10.4471    2.3177  -57.8824 H   0  0  0  0  0  0  0  0  0  0  0  0
    9.3416    1.6088  -59.1205 H   0  0  0  0  0  0  0  0  0  0  0  0
   10.9244    3.2486  -60.1438 H   0  0  0  0  0  0  0  0  0  0  0  0
    9.1972    4.6469  -61.2776 H   0  0  0  0  0  0  0  0  0  0  0  0
    8.6324    2.9490  -61.0869 H   0  0  0  0  0  0  0  0  0  0  0  0
    6.8333    4.5668  -60.4780 H   0  0  0  0  0  0  0  0  0  0  0  0
    8.3252    6.4314  -59.7493 H   0  0  0  0  0  0  0  0  0  0  0  0
    7.1369    6.0089  -58.4647 H   0  0  0  0  0  0  0  0  0  0  0  0
    9.4236    6.3248  -57.5125 H   0  0  0  0  0  0  0  0  0  0  0  0
   10.7086    5.6605  -59.5468 H   0  0  0  0  0  0  0  0  0  0  0  0
   11.2119    4.6841  -58.1190 H   0  0  0  0  0  0  0  0  0  0  0  0
    9.5604    4.1389  -56.3239 H   0  0  0  0  0  0  0  0  0  0  0  0
    7.8472    4.6794  -56.4910 H   0  0  0  0  0  0  0  0  0  0  0  0
    6.3571    3.6514  -58.2093 H   0  0  0  0  0  0  0  0  0  0  0  0
    7.0060    2.3715  -59.3100 H   0  0  0  0  0  0  0  0  0  0  0  0
    5.9077    0.8308  -55.7655 H   0  0  0  0  0  0  0  0  0  0  0  0
    5.3280   -1.0210  -54.0110 H   0  0  0  0  0  0  0  0  0  0  0  0
    6.6704   -3.8126  -53.6953 H   0  0  0  0  0  0  0  0  0  0  0  0
    6.7514   -5.5184  -51.8716 H   0  0  0  0  0  0  0  0  0  0  0  0
    7.5441   -4.8760  -49.5970 H   0  0  0  0  0  0  0  0  0  0  0  0
    8.2521   -2.5317  -49.1329 H   0  0  0  0  0  0  0  0  0  0  0  0
    8.1677   -0.8164  -50.9485 H   0  0  0  0  0  0  0  0  0  0  0  0
    9.3440   -0.5600  -53.7590 H   0  0  0  0  0  0  0  0  0  0  0  0
  1  2  2  0
  2  3  1  0
  4  3  1  1
  4  5  1  0
  5  6  1  0
  6  7  1  0
  7  8  1  0
  8  9  1  0
  9 10  1  0
 10 11  1  0
 10 12  1  0
  8 13  1  0
  2 14  1  0
 14 15  2  0
 15 16  1  0
 16 17  1  0
 17 18  1  0
 18 19  2  0
 19 20  1  0
 20 21  2  0
 21 22  1  0
 22 23  2  0
 17 24  2  0
 12  4  1  0
 24 14  1  0
 13  4  1  0
 23 18  1  0
 11  6  1  0
  3 25  1  0
  5 26  1  0
  5 27  1  0
  6 28  1  6
  7 29  1  0
  7 30  1  0
  8 31  1  6
  9 32  1  0
  9 33  1  0
 10 34  1  1
 11 35  1  0
 11 36  1  0
 12 37  1  0
 12 38  1  0
 13 39  1  0
 13 40  1  0
 15 41  1  0
 16 42  1  0
 19 43  1  0
 20 44  1  0
 21 45  1  0
 22 46  1  0
 23 47  1  0
 24 48  1  0
M  CHG  1  24   1
M  END
>  <meeko>  (57) 
{"is_sidechain": false}

$$$$

     RDKit          3D

 60 65  0  0  0  0  0  0  0  0999 V2000
    8.1420    0.7660  -53.4820 C   0  0  0  0  0  0  0  0  0  0  0  0
    9.0090   -0.0820  -54.3450 C   0  0  0  0  0  0  0  0  0  0  0  0
    9.6660    0.3300  -55.5340 C   0  0  0  0  0  0  0  0  0  0  0  0
    9.6610    1.6700  -56.1580 C   0  0  0  0  0  0  0  0  0  0  0  0
    9.9220    2.6950  -55.5380 O   0  0  0  0  0  0  0  0  0  0  0  0
    9.3340    1.6290  -57.4970 N   0  0  0  0  0  0  0  0  0  0  0  0
    9.2630    2.7710  -58.4020 C   0  0  2  0  0  0  0  0  0  0  0  0
    8.2880    3.8550  -57.8810 C   0  0  0  0  0  0  0  0  0  0  0  0
    8.1950    5.0240  -58.8770 C   0  0  1  0  0  0  0  0  0  0  0  0
    9.5940    5.6360  -59.0690 C   0  0  0  0  0  0  0  0  0  0  0  0
   10.5630    4.5780  -59.6220 C   0  0  2  0  0  0  0  0  0  0  0  0
   10.0340    4.0580  -60.9670 C   0  0  0  0  0  0  0  0  0  0  0  0
    8.6410    3.4380  -60.7790 C   0  0  2  0  0  0  0  0  0  0  0  0
    7.6800    4.5020  -60.2270 C   0  0  0  0  0  0  0  0  0  0  0  0
    8.7380    2.2770  -59.7770 C   0  0  0  0  0  0  0  0  0  0  0  0
   10.6570    3.4090  -58.6260 C   0  0  0  0  0  0  0  0  0  0  0  0
   10.3250   -0.6930  -56.1040 N   0  0  0  0  0  0  0  0  0  0  0  0
   10.1910   -1.7420  -55.2470 N   0  0  0  0  0  0  0  0  0  0  0  0
   10.9200   -2.9430  -55.5330 C   0  0  0  0  0  0  0  0  0  0  0  0
   11.1180   -3.3100  -56.8800 C   0  0  0  0  0  0  0  0  0  0  0  0
   11.8190   -4.4720  -57.2080 C   0  0  0  0  0  0  0  0  0  0  0  0
   12.3360   -5.2670  -56.1970 C   0  0  0  0  0  0  0  0  0  0  0  0
   13.0100   -6.3810  -56.5070 F   0  0  0  0  0  0  0  0  0  0  0  0
   12.1710   -4.9160  -54.8630 C   0  0  0  0  0  0  0  0  0  0  0  0
   11.4680   -3.7520  -54.5290 C   0  0  0  0  0  0  0  0  0  0  0  0
    9.3200   -1.4300  -54.2010 C   0  0  0  0  0  0  0  0  0  0  0  0
    8.7800   -2.3610  -53.2110 C   0  0  0  0  0  0  0  0  0  0  0  0
    9.4280   -2.5310  -51.9780 C   0  0  0  0  0  0  0  0  0  0  0  0
    8.9240   -3.4360  -51.0420 C   0  0  0  0  0  0  0  0  0  0  0  0
    7.7830   -4.1750  -51.3410 C   0  0  0  0  0  0  0  0  0  0  0  0
    7.3050   -5.0400  -50.4380 F   0  0  0  0  0  0  0  0  0  0  0  0
    7.1330   -4.0310  -52.5580 C   0  0  0  0  0  0  0  0  0  0  0  0
    7.6380   -3.1280  -53.4870 C   0  0  0  0  0  0  0  0  0  0  0  0
    7.0000   -2.9900  -54.6580 F   0  0  0  0  0  0  0  0  0  0  0  0
    8.3583    0.5544  -52.4244 H   0  0  0  0  0  0  0  0  0  0  0  0
    8.3415    1.8272  -53.6919 H   0  0  0  0  0  0  0  0  0  0  0  0
    7.0855    0.5430  -53.6919 H   0  0  0  0  0  0  0  0  0  0  0  0
    9.1630    0.6900  -57.8500 H   0  0  0  0  0  0  0  0  0  0  0  0
    7.2901    3.4110  -57.7506 H   0  0  0  0  0  0  0  0  0  0  0  0
    8.6632    4.2370  -56.9201 H   0  0  0  0  0  0  0  0  0  0  0  0
    7.5048    5.7878  -58.4894 H   0  0  0  0  0  0  0  0  0  0  0  0
    9.5297    6.4756  -59.7768 H   0  0  0  0  0  0  0  0  0  0  0  0
    9.9670    5.9927  -58.0976 H   0  0  0  0  0  0  0  0  0  0  0  0
   11.5580    5.0248  -59.7650 H   0  0  0  0  0  0  0  0  0  0  0  0
    9.9679    4.8931  -61.6799 H   0  0  0  0  0  0  0  0  0  0  0  0
   10.7215    3.2912  -61.3535 H   0  0  0  0  0  0  0  0  0  0  0  0
    8.2669    3.0679  -61.7449 H   0  0  0  0  0  0  0  0  0  0  0  0
    7.6133    5.3375  -60.9394 H   0  0  0  0  0  0  0  0  0  0  0  0
    6.6860    4.0527  -60.0855 H   0  0  0  0  0  0  0  0  0  0  0  0
    7.7404    1.8334  -59.6428 H   0  0  0  0  0  0  0  0  0  0  0  0
    9.4419    1.5302  -60.1731 H   0  0  0  0  0  0  0  0  0  0  0  0
   11.3431    2.6477  -59.0256 H   0  0  0  0  0  0  0  0  0  0  0  0
   11.0312    3.7910  -57.6647 H   0  0  0  0  0  0  0  0  0  0  0  0
   10.7155   -2.6734  -57.6817 H   0  0  0  0  0  0  0  0  0  0  0  0
   11.9601   -4.7547  -58.2616 H   0  0  0  0  0  0  0  0  0  0  0  0
   12.5921   -5.5517  -54.0701 H   0  0  0  0  0  0  0  0  0  0  0  0
   11.3453   -3.4712  -53.4725 H   0  0  0  0  0  0  0  0  0  0  0  0
   10.3339   -1.9507  -51.7487 H   0  0  0  0  0  0  0  0  0  0  0  0
    9.4266   -3.5645  -50.0720 H   0  0  0  0  0  0  0  0  0  0  0  0
    6.2329   -4.6214  -52.7844 H   0  0  0  0  0  0  0  0  0  0  0  0
  1  2  1  0
  2  3  1  0
  3  4  1  0
  4  5  2  0
  4  6  1  0
  7  6  1  1
  7  8  1  0
  8  9  1  0
  9 10  1  0
 10 11  1  0
 11 12  1  0
 12 13  1  0
 13 14  1  0
 13 15  1  0
 11 16  1  0
  3 17  2  0
 17 18  1  0
 18 19  1  0
 19 20  1  0
 20 21  2  0
 21 22  1  0
 22 23  1  0
 22 24  2  0
 24 25  1  0
 18 26  1  0
 26 27  1  0
 27 28  1  0
 28 29  2  0
 29 30  1  0
 30 31  1  0
 30 32  2  0
 32 33  1  0
 33 34  1  0
 26  2  2  0
 33 27  2  0
 15  7  1  0
 25 19  2  0
 16  7  1  0
 14  9  1  0
  1 35  1  0
  1 36  1  0
  1 37  1  0
  6 38  1  0
  8 39  1  0
  8 40  1  0
  9 41  1  1
 10 42  1  0
 10 43  1  0
 11 44  1  6
 12 45  1  0
 12 46  1  0
 13 47  1  6
 14 48  1  0
 14 49  1  0
 15 50  1  0
 15 51  1  0
 16 52  1  0
 16 53  1  0
 20 54  1  0
 21 55  1  0
 24 56  1  0
 25 57  1  0
 28 58  1  0
 29 59  1  0
 32 60  1  0
M  END
>  <meeko>  (58) 
{"is_sidechain": false}

$$$$

     RDKit          3D

 60 65  0  0  0  0  0  0  0  0999 V2000
    8.1520    0.1370  -53.2470 C   0  0  0  0  0  0  0  0  0  0  0  0
    9.0920   -0.4930  -54.2100 C   0  0  0  0  0  0  0  0  0  0  0  0
    9.4440    0.0050  -55.4970 C   0  0  0  0  0  0  0  0  0  0  0  0
    8.9600    1.2320  -56.1640 C   0  0  0  0  0  0  0  0  0  0  0  0
    7.8770    1.7500  -55.9090 O   0  0  0  0  0  0  0  0  0  0  0  0
    9.8560    1.7180  -57.0910 N   0  0  0  0  0  0  0  0  0  0  0  0
    9.6830    2.9000  -57.9260 C   0  0  2  0  0  0  0  0  0  0  0  0
   10.9450    3.0670  -58.8130 C   0  0  0  0  0  0  0  0  0  0  0  0
   10.8220    4.3010  -59.7200 C   0  0  1  0  0  0  0  0  0  0  0  0
    9.5910    4.1400  -60.6260 C   0  0  0  0  0  0  0  0  0  0  0  0
    8.3240    3.9990  -59.7680 C   0  0  2  0  0  0  0  0  0  0  0  0
    8.1630    5.2520  -58.8900 C   0  0  0  0  0  0  0  0  0  0  0  0
    9.3900    5.4220  -57.9790 C   0  0  2  0  0  0  0  0  0  0  0  0
   10.6520    5.5540  -58.8480 C   0  0  0  0  0  0  0  0  0  0  0  0
    9.5240    4.1830  -57.0740 C   0  0  0  0  0  0  0  0  0  0  0  0
    8.4570    2.7610  -58.8630 C   0  0  0  0  0  0  0  0  0  0  0  0
   10.3300   -0.8080  -56.1050 N   0  0  0  0  0  0  0  0  0  0  0  0
   10.5440   -1.8060  -55.2230 N   0  0  0  0  0  0  0  0  0  0  0  0
   11.4940   -2.8500  -55.6070 C   0  0  2  0  0  0  0  0  0  0  0  0
   12.0940   -2.6270  -57.0190 C   0  0  0  0  0  0  0  0  0  0  0  0
   12.1420   -3.8890  -57.8860 C   0  0  0  0  0  0  0  0  0  0  0  0
   12.6310   -5.0660  -57.0950 C   0  0  2  0  0  0  0  0  0  0  0  0
   11.7480   -6.2650  -56.8650 C   0  0  0  0  0  0  0  0  0  0  0  0
   11.9900   -5.2830  -55.7490 C   0  0  2  0  0  0  0  0  0  0  0  0
   10.9550   -4.2700  -55.3510 C   0  0  0  0  0  0  0  0  0  0  0  0
    9.8060   -1.6740  -54.0700 C   0  0  0  0  0  0  0  0  0  0  0  0
    9.8280   -2.6310  -52.9320 C   0  0  0  0  0  0  0  0  0  0  0  0
    8.4784   -0.0817  -52.2196 H   0  0  0  0  0  0  0  0  0  0  0  0
    8.1409    1.2256  -53.4043 H   0  0  0  0  0  0  0  0  0  0  0  0
    7.1408   -0.2665  -53.4043 H   0  0  0  0  0  0  0  0  0  0  0  0
   10.6990    1.1520  -57.1730 H   0  0  0  0  0  0  0  0  0  0  0  0
   11.8267    3.1830  -58.1656 H   0  0  0  0  0  0  0  0  0  0  0  0
   11.0473    2.1746  -59.4479 H   0  0  0  0  0  0  0  0  0  0  0  0
   11.7263    4.4012  -60.3383 H   0  0  0  0  0  0  0  0  0  0  0  0
    9.4965    5.0244  -61.2732 H   0  0  0  0  0  0  0  0  0  0  0  0
    9.7119    3.2379  -61.2437 H   0  0  0  0  0  0  0  0  0  0  0  0
    7.4462    3.8880  -60.4216 H   0  0  0  0  0  0  0  0  0  0  0  0
    8.0636    6.1375  -59.5350 H   0  0  0  0  0  0  0  0  0  0  0  0
    7.2644    5.1401  -58.2654 H   0  0  0  0  0  0  0  0  0  0  0  0
    9.2709    6.3232  -57.3596 H   0  0  0  0  0  0  0  0  0  0  0  0
   10.5578    6.4384  -59.4953 H   0  0  0  0  0  0  0  0  0  0  0  0
   11.5307    5.6618  -58.1951 H   0  0  0  0  0  0  0  0  0  0  0  0
   10.4073    4.3003  -56.4290 H   0  0  0  0  0  0  0  0  0  0  0  0
    8.6149    4.0914  -56.4615 H   0  0  0  0  0  0  0  0  0  0  0  0
    7.5465    2.6586  -58.2543 H   0  0  0  0  0  0  0  0  0  0  0  0
    8.5933    1.8718  -59.4960 H   0  0  0  0  0  0  0  0  0  0  0  0
   12.3554   -2.7594  -54.9289 H   0  0  0  0  0  0  0  0  0  0  0  0
   11.4831   -1.8742  -57.5387 H   0  0  0  0  0  0  0  0  0  0  0  0
   13.1351   -2.3033  -56.8731 H   0  0  0  0  0  0  0  0  0  0  0  0
   11.1317   -4.1043  -58.2641 H   0  0  0  0  0  0  0  0  0  0  0  0
   12.8367   -3.7146  -58.7208 H   0  0  0  0  0  0  0  0  0  0  0  0
   13.6506   -4.9477  -57.4905 H   0  0  0  0  0  0  0  0  0  0  0  0
   10.7595   -6.3201  -57.3444 H   0  0  0  0  0  0  0  0  0  0  0  0
   11.8662   -7.3522  -56.9836 H   0  0  0  0  0  0  0  0  0  0  0  0
   12.3134   -5.4099  -54.7053 H   0  0  0  0  0  0  0  0  0  0  0  0
   10.0422   -4.4272  -55.9443 H   0  0  0  0  0  0  0  0  0  0  0  0
   10.7245   -4.3852  -54.2816 H   0  0  0  0  0  0  0  0  0  0  0  0
    9.8152   -2.0735  -51.9838 H   0  0  0  0  0  0  0  0  0  0  0  0
    8.9446   -3.2843  -52.9852 H   0  0  0  0  0  0  0  0  0  0  0  0
   10.7405   -3.2430  -52.9852 H   0  0  0  0  0  0  0  0  0  0  0  0
  1  2  1  0
  2  3  1  0
  3  4  1  0
  4  5  2  0
  4  6  1  0
  7  6  1  1
  7  8  1  0
  8  9  1  0
  9 10  1  0
 10 11  1  0
 11 12  1  0
 12 13  1  0
 13 14  1  0
 13 15  1  0
 11 16  1  0
  3 17  2  0
 17 18  1  0
 18 19  1  0
 19 20  1  0
 20 21  1  0
 21 22  1  0
 22 23  1  0
 23 24  1  0
 24 25  1  0
 18 26  1  0
 26 27  1  0
 26  2  2  0
 15  7  1  0
 25 19  1  0
 16  7  1  0
 24 22  1  0
 14  9  1  0
  1 28  1  0
  1 29  1  0
  1 30  1  0
  6 31  1  0
  8 32  1  0
  8 33  1  0
  9 34  1  6
 10 35  1  0
 10 36  1  0
 11 37  1  6
 12 38  1  0
 12 39  1  0
 13 40  1  1
 14 41  1  0
 14 42  1  0
 15 43  1  0
 15 44  1  0
 16 45  1  0
 16 46  1  0
 19 47  1  1
 20 48  1  0
 20 49  1  0
 21 50  1  0
 21 51  1  0
 22 52  1  1
 23 53  1  0
 23 54  1  0
 24 55  1  1
 25 56  1  0
 25 57  1  0
 27 58  1  0
 27 59  1  0
 27 60  1  0
M  END
>  <meeko>  (59) 
{"is_sidechain": false}

$$$$

     RDKit          3D

 60 65  0  0  0  0  0  0  0  0999 V2000
    7.5800    0.4120  -53.1710 C   0  0  0  0  0  0  0  0  0  0  0  0
    8.5860   -0.2650  -54.0290 C   0  0  0  0  0  0  0  0  0  0  0  0
    9.0750    0.1650  -55.3050 C   0  0  0  0  0  0  0  0  0  0  0  0
    8.6620    1.3430  -56.0960 C   0  0  0  0  0  0  0  0  0  0  0  0
    7.5870    1.9130  -55.9350 O   0  0  0  0  0  0  0  0  0  0  0  0
    9.6180    1.7540  -57.0110 N   0  0  0  0  0  0  0  0  0  0  0  0
    9.5160    2.9600  -57.8360 C   0  0  2  0  0  0  0  0  0  0  0  0
    8.3380    2.8820  -58.8390 C   0  0  0  0  0  0  0  0  0  0  0  0
    8.2950    4.1400  -59.7240 C   0  0  1  0  0  0  0  0  0  0  0  0
    8.1320    5.3810  -58.8300 C   0  0  0  0  0  0  0  0  0  0  0  0
    9.3170    5.4910  -57.8550 C   0  0  2  0  0  0  0  0  0  0  0  0
   10.6250    5.5930  -58.6560 C   0  0  0  0  0  0  0  0  0  0  0  0
   10.7960    4.3510  -59.5450 C   0  0  2  0  0  0  0  0  0  0  0  0
    9.6080    4.2520  -60.5150 C   0  0  0  0  0  0  0  0  0  0  0  0
   10.8270    3.0970  -58.6570 C   0  0  0  0  0  0  0  0  0  0  0  0
    9.3620    4.2340  -56.9680 C   0  0  0  0  0  0  0  0  0  0  0  0
   10.0080   -0.6810  -55.7650 N   0  0  0  0  0  0  0  0  0  0  0  0
   10.1370   -1.6180  -54.8120 N   0  0  0  0  0  0  0  0  0  0  0  0
   11.1130   -2.6980  -54.9990 C   0  0  1  0  0  0  0  0  0  0  0  0
   10.3990   -4.0680  -55.0680 C   0  0  0  0  0  0  0  0  0  0  0  0
   11.0870   -5.0550  -56.0110 C   0  0  0  0  0  0  0  0  0  0  0  0
   11.1470   -4.4610  -57.3830 C   0  0  2  0  0  0  0  0  0  0  0  0
   12.4500   -4.1620  -58.0750 C   0  0  0  0  0  0  0  0  0  0  0  0
   11.6520   -3.0440  -57.4550 C   0  0  2  0  0  0  0  0  0  0  0  0
   12.0890   -2.4100  -56.1630 C   0  0  0  0  0  0  0  0  0  0  0  0
    9.2720   -1.4390  -53.7590 C   0  0  0  0  0  0  0  0  0  0  0  0
    9.1870   -2.3690  -52.6030 C   0  0  0  0  0  0  0  0  0  0  0  0
    7.8287    0.2447  -52.1126 H   0  0  0  0  0  0  0  0  0  0  0  0
    7.5846    1.4915  -53.3825 H   0  0  0  0  0  0  0  0  0  0  0  0
    6.5817    0.0012  -53.3825 H   0  0  0  0  0  0  0  0  0  0  0  0
   10.5440    1.3750  -56.8610 H   0  0  0  0  0  0  0  0  0  0  0  0
    8.4650    1.9952  -59.4774 H   0  0  0  0  0  0  0  0  0  0  0  0
    7.3962    2.8134  -58.2748 H   0  0  0  0  0  0  0  0  0  0  0  0
    7.4488    4.0723  -60.4235 H   0  0  0  0  0  0  0  0  0  0  0  0
    8.0954    6.2814  -59.4609 H   0  0  0  0  0  0  0  0  0  0  0  0
    7.1996    5.2890  -58.2537 H   0  0  0  0  0  0  0  0  0  0  0  0
    9.1974    6.3852  -57.2256 H   0  0  0  0  0  0  0  0  0  0  0  0
   10.5954    6.4924  -59.2886 H   0  0  0  0  0  0  0  0  0  0  0  0
   11.4721    5.6558  -57.9571 H   0  0  0  0  0  0  0  0  0  0  0  0
   11.7337    4.4294  -60.1148 H   0  0  0  0  0  0  0  0  0  0  0  0
    9.5774    5.1516  -61.1472 H   0  0  0  0  0  0  0  0  0  0  0  0
    9.7285    3.3586  -61.1453 H   0  0  0  0  0  0  0  0  0  0  0  0
   10.9461    2.2084  -59.2944 H   0  0  0  0  0  0  0  0  0  0  0  0
   11.6701    3.1863  -57.9561 H   0  0  0  0  0  0  0  0  0  0  0  0
   10.2165    4.3078  -56.2793 H   0  0  0  0  0  0  0  0  0  0  0  0
    8.4217    4.1657  -56.4013 H   0  0  0  0  0  0  0  0  0  0  0  0
   11.7664   -2.7458  -54.1154 H   0  0  0  0  0  0  0  0  0  0  0  0
   10.3794   -4.5040  -54.0583 H   0  0  0  0  0  0  0  0  0  0  0  0
    9.3864   -3.8912  -55.4596 H   0  0  0  0  0  0  0  0  0  0  0  0
   12.1070   -5.2572  -55.6523 H   0  0  0  0  0  0  0  0  0  0  0  0
   10.5196   -5.9970  -56.0396 H   0  0  0  0  0  0  0  0  0  0  0  0
   10.2587   -5.0292  -57.6963 H   0  0  0  0  0  0  0  0  0  0  0  0
   13.4000   -4.4781  -57.6193 H   0  0  0  0  0  0  0  0  0  0  0  0
   12.8634   -4.3610  -59.0747 H   0  0  0  0  0  0  0  0  0  0  0  0
   11.2815   -2.0800  -57.8337 H   0  0  0  0  0  0  0  0  0  0  0  0
   13.0813   -2.8025  -55.8960 H   0  0  0  0  0  0  0  0  0  0  0  0
   12.1113   -1.3211  -56.3172 H   0  0  0  0  0  0  0  0  0  0  0  0
    9.2395   -1.7951  -51.6661 H   0  0  0  0  0  0  0  0  0  0  0  0
    8.2349   -2.9184  -52.6436 H   0  0  0  0  0  0  0  0  0  0  0  0
   10.0237   -3.0819  -52.6436 H   0  0  0  0  0  0  0  0  0  0  0  0
  1  2  1  0
  2  3  1  0
  3  4  1  0
  4  5  2  0
  4  6  1  0
  7  6  1  1
  7  8  1  0
  8  9  1  0
  9 10  1  0
 10 11  1  0
 11 12  1  0
 12 13  1  0
 13 14  1  0
 13 15  1  0
 11 16  1  0
  3 17  2  0
 17 18  1  0
 18 19  1  0
 19 20  1  0
 20 21  1  0
 21 22  1  0
 22 23  1  0
 23 24  1  0
 24 25  1  0
 18 26  1  0
 26 27  1  0
 26  2  2  0
 15  7  1  0
 25 19  1  0
 16  7  1  0
 24 22  1  0
 14  9  1  0
  1 28  1  0
  1 29  1  0
  1 30  1  0
  6 31  1  0
  8 32  1  0
  8 33  1  0
  9 34  1  6
 10 35  1  0
 10 36  1  0
 11 37  1  1
 12 38  1  0
 12 39  1  0
 13 40  1  6
 14 41  1  0
 14 42  1  0
 15 43  1  0
 15 44  1  0
 16 45  1  0
 16 46  1  0
 19 47  1  1
 20 48  1  0
 20 49  1  0
 21 50  1  0
 21 51  1  0
 22 52  1  6
 23 53  1  0
 23 54  1  0
 24 55  1  6
 25 56  1  0
 25 57  1  0
 27 58  1  0
 27 59  1  0
 27 60  1  0
M  END
>  <meeko>  (60) 
{"is_sidechain": false}

$$$$

     RDKit          3D

 60 65  0  0  0  0  0  0  0  0999 V2000
    8.6820    0.7230  -55.2880 C   0  0  0  0  0  0  0  0  0  0  0  0
    8.3970   -0.3940  -54.3510 C   0  0  0  0  0  0  0  0  0  0  0  0
    9.1270   -1.6170  -54.2020 C   0  0  0  0  0  0  0  0  0  0  0  0
   10.2970   -2.0880  -54.9720 C   0  0  0  0  0  0  0  0  0  0  0  0
   11.3500   -1.4610  -55.0380 O   0  0  0  0  0  0  0  0  0  0  0  0
   10.0970   -3.3160  -55.5840 N   0  0  0  0  0  0  0  0  0  0  0  0
   11.1290   -4.0640  -56.3050 C   0  0  2  0  0  0  0  0  0  0  0  0
   10.4290   -5.1650  -57.1460 C   0  0  0  0  0  0  0  0  0  0  0  0
   11.4570   -6.0000  -57.9280 C   0  0  1  0  0  0  0  0  0  0  0  0
   12.2410   -5.0760  -58.8720 C   0  0  0  0  0  0  0  0  0  0  0  0
   12.9630   -3.9900  -58.0610 C   0  0  2  0  0  0  0  0  0  0  0  0
   13.9280   -4.6560  -57.0650 C   0  0  0  0  0  0  0  0  0  0  0  0
   13.1520   -5.5840  -56.1140 C   0  0  2  0  0  0  0  0  0  0  0  0
   12.4280   -6.6610  -56.9370 C   0  0  0  0  0  0  0  0  0  0  0  0
   12.1160   -4.7570  -55.3330 C   0  0  0  0  0  0  0  0  0  0  0  0
   11.9260   -3.1620  -57.2820 C   0  0  0  0  0  0  0  0  0  0  0  0
    8.5980   -2.3680  -53.2250 N   0  0  0  0  0  0  0  0  0  0  0  0
    7.5660   -1.6560  -52.7480 N   0  0  0  0  0  0  0  0  0  0  0  0
    6.7730   -2.1850  -51.6340 C   0  0  2  0  0  0  0  0  0  0  0  0
    7.4270   -1.9190  -50.2280 C   0  0  0  0  0  0  0  0  0  0  0  0
    8.4280   -3.0010  -49.7290 C   0  0  0  0  0  0  0  0  0  0  0  0
    8.2820   -4.2240  -50.5600 C   0  0  1  0  0  0  0  0  0  0  0  0
    7.7300   -5.6050  -50.4020 C   0  0  0  0  0  0  0  0  0  0  0  0
    6.7880   -4.4820  -50.7030 C   0  0  2  0  0  0  0  0  0  0  0  0
    6.3760   -3.6820  -51.8890 C   0  0  0  0  0  0  0  0  0  0  0  0
    7.3760   -0.4680  -53.4150 C   0  0  0  0  0  0  0  0  0  0  0  0
    6.2800    0.4820  -53.0970 C   0  0  0  0  0  0  0  0  0  0  0  0
    8.9141    1.6325  -54.7145 H   0  0  0  0  0  0  0  0  0  0  0  0
    9.5417    0.4597  -55.9217 H   0  0  0  0  0  0  0  0  0  0  0  0
    7.8012    0.9038  -55.9217 H   0  0  0  0  0  0  0  0  0  0  0  0
    9.3030   -3.8400  -55.2390 H   0  0  0  0  0  0  0  0  0  0  0  0
    9.8651   -5.8275  -56.4729 H   0  0  0  0  0  0  0  0  0  0  0  0
    9.7529   -4.6793  -57.8651 H   0  0  0  0  0  0  0  0  0  0  0  0
   10.9422   -6.7761  -58.5133 H   0  0  0  0  0  0  0  0  0  0  0  0
   12.9819   -5.6679  -59.4294 H   0  0  0  0  0  0  0  0  0  0  0  0
   11.5418   -4.5985  -59.5742 H   0  0  0  0  0  0  0  0  0  0  0  0
   13.5257   -3.3346  -58.7421 H   0  0  0  0  0  0  0  0  0  0  0  0
   14.6734   -5.2449  -57.6196 H   0  0  0  0  0  0  0  0  0  0  0  0
   14.4302   -3.8754  -56.4747 H   0  0  0  0  0  0  0  0  0  0  0  0
   13.8491   -6.0628  -55.4106 H   0  0  0  0  0  0  0  0  0  0  0  0
   13.1689   -7.2539  -57.4933 H   0  0  0  0  0  0  0  0  0  0  0  0
   11.8615   -7.3149  -56.2577 H   0  0  0  0  0  0  0  0  0  0  0  0
   11.5545   -5.4223  -54.6607 H   0  0  0  0  0  0  0  0  0  0  0  0
   12.6424   -3.9858  -54.7516 H   0  0  0  0  0  0  0  0  0  0  0  0
   12.4450   -2.3792  -56.7094 H   0  0  0  0  0  0  0  0  0  0  0  0
   11.2246   -2.7086  -57.9978 H   0  0  0  0  0  0  0  0  0  0  0  0
    5.8313   -1.6177  -51.5957 H   0  0  0  0  0  0  0  0  0  0  0  0
    7.9652   -0.9612  -50.2823 H   0  0  0  0  0  0  0  0  0  0  0  0
    6.5964   -1.9264  -49.5069 H   0  0  0  0  0  0  0  0  0  0  0  0
    9.4558   -2.6186  -49.8150 H   0  0  0  0  0  0  0  0  0  0  0  0
    8.2162   -3.2424  -48.6769 H   0  0  0  0  0  0  0  0  0  0  0  0
    9.2641   -4.0124  -51.0080 H   0  0  0  0  0  0  0  0  0  0  0  0
    7.9352   -6.3668  -51.1686 H   0  0  0  0  0  0  0  0  0  0  0  0
    7.7878   -6.3730  -49.6166 H   0  0  0  0  0  0  0  0  0  0  0  0
    5.7589   -4.4483  -50.3160 H   0  0  0  0  0  0  0  0  0  0  0  0
    6.8901   -4.0556  -52.7868 H   0  0  0  0  0  0  0  0  0  0  0  0
    5.2903   -3.7655  -52.0446 H   0  0  0  0  0  0  0  0  0  0  0  0
    6.1772    0.5711  -52.0054 H   0  0  0  0  0  0  0  0  0  0  0  0
    6.5137    1.4680  -53.5250 H   0  0  0  0  0  0  0  0  0  0  0  0
    5.3372    0.1106  -53.5250 H   0  0  0  0  0  0  0  0  0  0  0  0
  1  2  1  0
  2  3  1  0
  3  4  1  0
  4  5  2  0
  4  6  1  0
  7  6  1  1
  7  8  1  0
  8  9  1  0
  9 10  1  0
 10 11  1  0
 11 12  1  0
 12 13  1  0
 13 14  1  0
 13 15  1  0
 11 16  1  0
  3 17  2  0
 17 18  1  0
 18 19  1  0
 19 20  1  0
 20 21  1  0
 21 22  1  0
 22 23  1  0
 23 24  1  0
 24 25  1  0
 18 26  1  0
 26 27  1  0
 26  2  2  0
 15  7  1  0
 25 19  1  0
 16  7  1  0
 24 22  1  0
 14  9  1  0
  1 28  1  0
  1 29  1  0
  1 30  1  0
  6 31  1  0
  8 32  1  0
  8 33  1  0
  9 34  1  6
 10 35  1  0
 10 36  1  0
 11 37  1  6
 12 38  1  0
 12 39  1  0
 13 40  1  1
 14 41  1  0
 14 42  1  0
 15 43  1  0
 15 44  1  0
 16 45  1  0
 16 46  1  0
 19 47  1  1
 20 48  1  0
 20 49  1  0
 21 50  1  0
 21 51  1  0
 22 52  1  6
 23 53  1  0
 23 54  1  0
 24 55  1  1
 25 56  1  0
 25 57  1  0
 27 58  1  0
 27 59  1  0
 27 60  1  0
M  END
>  <meeko>  (61) 
{"is_sidechain": false}

$$$$

     RDKit          3D

 60 65  0  0  0  0  0  0  0  0999 V2000
   11.5380   -0.8870  -56.0920 C   0  0  0  0  0  0  0  0  0  0  0  0
   10.4070   -1.2350  -55.1910 C   0  0  0  0  0  0  0  0  0  0  0  0
    9.1950   -0.5000  -54.9990 C   0  0  0  0  0  0  0  0  0  0  0  0
    8.7540    0.7400  -55.6730 C   0  0  0  0  0  0  0  0  0  0  0  0
    7.6010    1.1560  -55.6190 O   0  0  0  0  0  0  0  0  0  0  0  0
    9.7620    1.3650  -56.3900 N   0  0  0  0  0  0  0  0  0  0  0  0
    9.5700    2.5430  -57.2400 C   0  0  2  0  0  0  0  0  0  0  0  0
   10.8940    2.8050  -58.0080 C   0  0  0  0  0  0  0  0  0  0  0  0
   10.7650    4.0280  -58.9310 C   0  0  1  0  0  0  0  0  0  0  0  0
    9.6360    3.7780  -59.9430 C   0  0  0  0  0  0  0  0  0  0  0  0
    8.3090    3.5450  -59.2010 C   0  0  2  0  0  0  0  0  0  0  0  0
    7.9810    4.7810  -58.3480 C   0  0  0  0  0  0  0  0  0  0  0  0
    9.1070    5.0380  -57.3320 C   0  0  2  0  0  0  0  0  0  0  0  0
   10.4270    5.2640  -58.0840 C   0  0  0  0  0  0  0  0  0  0  0  0
    9.2470    3.8130  -56.4120 C   0  0  0  0  0  0  0  0  0  0  0  0
    8.4480    2.3170  -58.2840 C   0  0  0  0  0  0  0  0  0  0  0  0
    8.4200   -1.0990  -54.0840 N   0  0  0  0  0  0  0  0  0  0  0  0
    9.1020   -2.1910  -53.6960 N   0  0  0  0  0  0  0  0  0  0  0  0
    8.4830   -3.0390  -52.6800 C   0  0  1  0  0  0  0  0  0  0  0  0
    8.9580   -2.7070  -51.2230 C   0  0  0  0  0  0  0  0  0  0  0  0
    8.2630   -3.5640  -50.1230 C   0  0  0  0  0  0  0  0  0  0  0  0
    7.0820   -4.2430  -50.7220 C   0  0  1  0  0  0  0  0  0  0  0  0
    5.5920   -4.1520  -50.6260 C   0  0  0  0  0  0  0  0  0  0  0  0
    6.3180   -3.1700  -51.4900 C   0  0  2  0  0  0  0  0  0  0  0  0
    6.9270   -3.1420  -52.8510 C   0  0  0  0  0  0  0  0  0  0  0  0
   10.3090   -2.3270  -54.3400 C   0  0  0  0  0  0  0  0  0  0  0  0
   11.2670   -3.4430  -54.1210 C   0  0  0  0  0  0  0  0  0  0  0  0
   12.4173   -0.6164  -55.4890 H   0  0  0  0  0  0  0  0  0  0  0  0
   11.7807   -1.7520  -56.7267 H   0  0  0  0  0  0  0  0  0  0  0  0
   11.2525   -0.0352  -56.7267 H   0  0  0  0  0  0  0  0  0  0  0  0
   10.5770    0.7940  -56.5700 H   0  0  0  0  0  0  0  0  0  0  0  0
   11.7006    2.9859  -57.2823 H   0  0  0  0  0  0  0  0  0  0  0  0
   11.1205    1.9233  -58.6254 H   0  0  0  0  0  0  0  0  0  0  0  0
   11.7111    4.1947  -59.4668 H   0  0  0  0  0  0  0  0  0  0  0  0
    9.5365    4.6532  -60.6019 H   0  0  0  0  0  0  0  0  0  0  0  0
    9.8772    2.8871  -60.5415 H   0  0  0  0  0  0  0  0  0  0  0  0
    7.5028    3.3733  -59.9294 H   0  0  0  0  0  0  0  0  0  0  0  0
    7.8760    5.6579  -59.0038 H   0  0  0  0  0  0  0  0  0  0  0  0
    7.0408    4.6038  -57.8052 H   0  0  0  0  0  0  0  0  0  0  0  0
    8.8689    5.9276  -56.7303 H   0  0  0  0  0  0  0  0  0  0  0  0
   10.3267    6.1402  -58.7414 H   0  0  0  0  0  0  0  0  0  0  0  0
   11.2336    5.4354  -57.3559 H   0  0  0  0  0  0  0  0  0  0  0  0
   10.0598    3.9920  -55.6928 H   0  0  0  0  0  0  0  0  0  0  0  0
    8.2963    3.6578  -55.8809 H   0  0  0  0  0  0  0  0  0  0  0  0
    7.4956    2.1465  -57.7606 H   0  0  0  0  0  0  0  0  0  0  0  0
    8.7052    1.4417  -58.8985 H   0  0  0  0  0  0  0  0  0  0  0  0
    8.8555   -4.0591  -52.8552 H   0  0  0  0  0  0  0  0  0  0  0  0
   10.0426   -2.8808  -51.1640 H   0  0  0  0  0  0  0  0  0  0  0  0
    8.6878   -1.6584  -51.0297 H   0  0  0  0  0  0  0  0  0  0  0  0
    8.9678   -4.3167  -49.7399 H   0  0  0  0  0  0  0  0  0  0  0  0
    7.9425   -2.9185  -49.2919 H   0  0  0  0  0  0  0  0  0  0  0  0
    7.6311   -5.1957  -50.6931 H   0  0  0  0  0  0  0  0  0  0  0  0
    4.9661   -4.9291  -51.0890 H   0  0  0  0  0  0  0  0  0  0  0  0
    4.8777   -4.0652  -49.7940 H   0  0  0  0  0  0  0  0  0  0  0  0
    5.9887   -2.1286  -51.6209 H   0  0  0  0  0  0  0  0  0  0  0  0
    6.6707   -4.0635  -53.3943 H   0  0  0  0  0  0  0  0  0  0  0  0
    6.5465   -2.2835  -53.4239 H   0  0  0  0  0  0  0  0  0  0  0  0
   11.4037   -3.6023  -53.0412 H   0  0  0  0  0  0  0  0  0  0  0  0
   10.8715   -4.3611  -54.5799 H   0  0  0  0  0  0  0  0  0  0  0  0
   12.2345   -3.1911  -54.5799 H   0  0  0  0  0  0  0  0  0  0  0  0
  1  2  1  0
  2  3  1  0
  3  4  1  0
  4  5  2  0
  4  6  1  0
  7  6  1  1
  7  8  1  0
  8  9  1  0
  9 10  1  0
 10 11  1  0
 11 12  1  0
 12 13  1  0
 13 14  1  0
 13 15  1  0
 11 16  1  0
  3 17  2  0
 17 18  1  0
 18 19  1  0
 19 20  1  0
 20 21  1  0
 21 22  1  0
 22 23  1  0
 23 24  1  0
 24 25  1  0
 18 26  1  0
 26 27  1  0
 26  2  2  0
 15  7  1  0
 25 19  1  0
 16  7  1  0
 24 22  1  0
 14  9  1  0
  1 28  1  0
  1 29  1  0
  1 30  1  0
  6 31  1  0
  8 32  1  0
  8 33  1  0
  9 34  1  6
 10 35  1  0
 10 36  1  0
 11 37  1  6
 12 38  1  0
 12 39  1  0
 13 40  1  1
 14 41  1  0
 14 42  1  0
 15 43  1  0
 15 44  1  0
 16 45  1  0
 16 46  1  0
 19 47  1  6
 20 48  1  0
 20 49  1  0
 21 50  1  0
 21 51  1  0
 22 52  1  6
 23 53  1  0
 23 54  1  0
 24 55  1  1
 25 56  1  0
 25 57  1  0
 27 58  1  0
 27 59  1  0
 27 60  1  0
M  END
>  <meeko>  (62) 
{"is_sidechain": false}

$$$$

     RDKit          3D

 60 65  0  0  0  0  0  0  0  0999 V2000
   11.1580   -0.7420  -56.1020 C   0  0  0  0  0  0  0  0  0  0  0  0
   10.0730   -0.8250  -55.0900 C   0  0  0  0  0  0  0  0  0  0  0  0
    8.9170    0.0040  -55.0190 C   0  0  0  0  0  0  0  0  0  0  0  0
    8.5340    1.1100  -55.9200 C   0  0  0  0  0  0  0  0  0  0  0  0
    7.3740    1.4810  -56.0710 O   0  0  0  0  0  0  0  0  0  0  0  0
    9.6200    1.6720  -56.5570 N   0  0  0  0  0  0  0  0  0  0  0  0
    9.5910    2.7840  -57.4990 C   0  0  2  0  0  0  0  0  0  0  0  0
    8.6030    2.5210  -58.6630 C   0  0  0  0  0  0  0  0  0  0  0  0
    8.6270    3.6870  -59.6660 C   0  0  1  0  0  0  0  0  0  0  0  0
    8.2370    4.9880  -58.9420 C   0  0  0  0  0  0  0  0  0  0  0  0
    9.2320    5.2780  -57.8050 C   0  0  2  0  0  0  0  0  0  0  0  0
   10.6450    5.4150  -58.3910 C   0  0  0  0  0  0  0  0  0  0  0  0
   11.0440    4.1160  -59.1100 C   0  0  2  0  0  0  0  0  0  0  0  0
   10.0440    3.8330  -60.2420 C   0  0  0  0  0  0  0  0  0  0  0  0
   11.0090    2.9540  -58.1050 C   0  0  0  0  0  0  0  0  0  0  0  0
    9.2080    4.1130  -56.8010 C   0  0  0  0  0  0  0  0  0  0  0  0
    8.1430   -0.3380  -53.9710 N   0  0  0  0  0  0  0  0  0  0  0  0
    8.7910   -1.3640  -53.3810 N   0  0  0  0  0  0  0  0  0  0  0  0
    8.1820   -1.9410  -52.1850 C   0  0  2  0  0  0  0  0  0  0  0  0
    9.1800   -2.8110  -51.3410 C   0  0  0  0  0  0  0  0  0  0  0  0
    8.5310   -3.4810  -50.0930 C   0  0  0  0  0  0  0  0  0  0  0  0
    7.0510   -3.3840  -50.2160 C   0  0  2  0  0  0  0  0  0  0  0  0
    5.9030   -4.3110  -50.4550 C   0  0  0  0  0  0  0  0  0  0  0  0
    6.7090   -3.8490  -51.6270 C   0  0  1  0  0  0  0  0  0  0  0  0
    6.8070   -2.6320  -52.4840 C   0  0  0  0  0  0  0  0  0  0  0  0
    9.9530   -1.7100  -54.0280 C   0  0  0  0  0  0  0  0  0  0  0  0
   10.8660   -2.8080  -53.6140 C   0  0  0  0  0  0  0  0  0  0  0  0
   12.1299   -0.6676  -55.5923 H   0  0  0  0  0  0  0  0  0  0  0  0
   11.1421   -1.6440  -56.7314 H   0  0  0  0  0  0  0  0  0  0  0  0
   11.0051    0.1471  -56.7314 H   0  0  0  0  0  0  0  0  0  0  0  0
   10.5060    1.2400  -56.3010 H   0  0  0  0  0  0  0  0  0  0  0  0
    8.8912    1.5936  -59.1795 H   0  0  0  0  0  0  0  0  0  0  0  0
    7.5870    2.4270  -58.2520 H   0  0  0  0  0  0  0  0  0  0  0  0
    7.9151    3.4883  -60.4807 H   0  0  0  0  0  0  0  0  0  0  0  0
    8.2508    5.8219  -59.6593 H   0  0  0  0  0  0  0  0  0  0  0  0
    7.2281    4.8760  -58.5182 H   0  0  0  0  0  0  0  0  0  0  0  0
    8.9512    6.2114  -57.2952 H   0  0  0  0  0  0  0  0  0  0  0  0
   10.6626    6.2487  -59.1084 H   0  0  0  0  0  0  0  0  0  0  0  0
   11.3569    5.6097  -57.5754 H   0  0  0  0  0  0  0  0  0  0  0  0
   12.0563    4.2195  -59.5277 H   0  0  0  0  0  0  0  0  0  0  0  0
   10.0614    4.6659  -60.9603 H   0  0  0  0  0  0  0  0  0  0  0  0
   10.3264    2.8982  -60.7484 H   0  0  0  0  0  0  0  0  0  0  0  0
   11.2937    2.0246  -58.6200 H   0  0  0  0  0  0  0  0  0  0  0  0
   11.7137    3.1750  -57.2898 H   0  0  0  0  0  0  0  0  0  0  0  0
    9.9261    4.3171  -55.9931 H   0  0  0  0  0  0  0  0  0  0  0  0
    8.1914    4.0185  -56.3915 H   0  0  0  0  0  0  0  0  0  0  0  0
    7.9357   -1.0984  -51.5222 H   0  0  0  0  0  0  0  0  0  0  0  0
    9.5833   -3.6029  -51.9892 H   0  0  0  0  0  0  0  0  0  0  0  0
    9.9615   -2.1318  -50.9695 H   0  0  0  0  0  0  0  0  0  0  0  0
    8.8299   -4.5384  -50.0429 H   0  0  0  0  0  0  0  0  0  0  0  0
    8.8655   -2.9717  -49.1772 H   0  0  0  0  0  0  0  0  0  0  0  0
    7.0494   -2.6111  -49.4333 H   0  0  0  0  0  0  0  0  0  0  0  0
    5.9688   -5.3584  -50.1255 H   0  0  0  0  0  0  0  0  0  0  0  0
    4.8328   -4.2929  -50.2012 H   0  0  0  0  0  0  0  0  0  0  0  0
    6.9022   -4.4792  -52.5077 H   0  0  0  0  0  0  0  0  0  0  0  0
    6.7550   -2.9171  -53.5451 H   0  0  0  0  0  0  0  0  0  0  0  0
    5.9771   -1.9432  -52.2674 H   0  0  0  0  0  0  0  0  0  0  0  0
   10.9065   -2.8567  -52.5158 H   0  0  0  0  0  0  0  0  0  0  0  0
   10.4929   -3.7640  -54.0099 H   0  0  0  0  0  0  0  0  0  0  0  0
   11.8741   -2.6156  -54.0099 H   0  0  0  0  0  0  0  0  0  0  0  0
  1  2  1  0
  2  3  1  0
  3  4  1  0
  4  5  2  0
  4  6  1  0
  7  6  1  1
  7  8  1  0
  8  9  1  0
  9 10  1  0
 10 11  1  0
 11 12  1  0
 12 13  1  0
 13 14  1  0
 13 15  1  0
 11 16  1  0
  3 17  2  0
 17 18  1  0
 18 19  1  0
 19 20  1  0
 20 21  1  0
 21 22  1  0
 22 23  1  0
 23 24  1  0
 24 25  1  0
 18 26  1  0
 26 27  1  0
 26  2  2  0
 15  7  1  0
 25 19  1  0
 16  7  1  0
 24 22  1  0
 14  9  1  0
  1 28  1  0
  1 29  1  0
  1 30  1  0
  6 31  1  0
  8 32  1  0
  8 33  1  0
  9 34  1  6
 10 35  1  0
 10 36  1  0
 11 37  1  1
 12 38  1  0
 12 39  1  0
 13 40  1  6
 14 41  1  0
 14 42  1  0
 15 43  1  0
 15 44  1  0
 16 45  1  0
 16 46  1  0
 19 47  1  1
 20 48  1  0
 20 49  1  0
 21 50  1  0
 21 51  1  0
 22 52  1  6
 23 53  1  0
 23 54  1  0
 24 55  1  6
 25 56  1  0
 25 57  1  0
 27 58  1  0
 27 59  1  0
 27 60  1  0
M  END
>  <meeko>  (63) 
{"is_sidechain": false}

$$$$

     RDKit          3D

 60 65  0  0  0  0  0  0  0  0999 V2000
   11.5600   -1.0620  -56.1040 C   0  0  0  0  0  0  0  0  0  0  0  0
   10.4400   -1.4040  -55.1900 C   0  0  0  0  0  0  0  0  0  0  0  0
    9.2620   -0.6330  -54.9280 C   0  0  0  0  0  0  0  0  0  0  0  0
    8.8480    0.6480  -55.5370 C   0  0  0  0  0  0  0  0  0  0  0  0
    7.7240    1.1200  -55.4030 O   0  0  0  0  0  0  0  0  0  0  0  0
    9.8430    1.2440  -56.2950 N   0  0  0  0  0  0  0  0  0  0  0  0
    9.6630    2.4550  -57.1010 C   0  0  2  0  0  0  0  0  0  0  0  0
    8.3920    2.3730  -57.9810 C   0  0  0  0  0  0  0  0  0  0  0  0
    8.2610    3.6300  -58.8590 C   0  0  1  0  0  0  0  0  0  0  0  0
    8.1860    4.8730  -57.9580 C   0  0  0  0  0  0  0  0  0  0  0  0
    9.4620    4.9870  -57.1050 C   0  0  2  0  0  0  0  0  0  0  0  0
   10.6840    5.0910  -58.0310 C   0  0  0  0  0  0  0  0  0  0  0  0
   10.7680    3.8460  -58.9270 C   0  0  2  0  0  0  0  0  0  0  0  0
    9.4900    3.7410  -59.7750 C   0  0  0  0  0  0  0  0  0  0  0  0
   10.8900    2.5950  -58.0430 C   0  0  0  0  0  0  0  0  0  0  0  0
    9.5950    3.7310  -56.2250 C   0  0  0  0  0  0  0  0  0  0  0  0
    8.4940   -1.2390  -54.0090 N   0  0  0  0  0  0  0  0  0  0  0  0
    9.1520   -2.3630  -53.6840 N   0  0  0  0  0  0  0  0  0  0  0  0
    8.5800   -3.2410  -52.6670 C   0  0  1  0  0  0  0  0  0  0  0  0
    9.1240   -2.9090  -51.2370 C   0  0  0  0  0  0  0  0  0  0  0  0
    8.3290   -3.5990  -50.0940 C   0  0  0  0  0  0  0  0  0  0  0  0
    6.8940   -3.3290  -50.3730 C   0  0  2  0  0  0  0  0  0  0  0  0
    5.6050   -4.0780  -50.4780 C   0  0  0  0  0  0  0  0  0  0  0  0
    6.5660   -4.1400  -51.6230 C   0  0  1  0  0  0  0  0  0  0  0  0
    7.0180   -3.2860  -52.7580 C   0  0  0  0  0  0  0  0  0  0  0  0
   10.3210   -2.5280  -54.3860 C   0  0  0  0  0  0  0  0  0  0  0  0
   11.2150   -3.7030  -54.2200 C   0  0  0  0  0  0  0  0  0  0  0  0
   12.4467   -0.7912  -55.5120 H   0  0  0  0  0  0  0  0  0  0  0  0
   11.7936   -1.9298  -56.7384 H   0  0  0  0  0  0  0  0  0  0  0  0
   11.2690   -0.2118  -56.7384 H   0  0  0  0  0  0  0  0  0  0  0  0
   10.6160    0.6380  -56.5390 H   0  0  0  0  0  0  0  0  0  0  0  0
    8.4562    1.4853  -58.6274 H   0  0  0  0  0  0  0  0  0  0  0  0
    7.5106    2.3033  -57.3265 H   0  0  0  0  0  0  0  0  0  0  0  0
    7.3493    3.5601  -59.4705 H   0  0  0  0  0  0  0  0  0  0  0  0
    8.0864    5.7712  -58.5851 H   0  0  0  0  0  0  0  0  0  0  0  0
    7.3152    4.7824  -57.2921 H   0  0  0  0  0  0  0  0  0  0  0  0
    9.4048    5.8820  -56.4681 H   0  0  0  0  0  0  0  0  0  0  0  0
   10.5892    5.9879  -58.6607 H   0  0  0  0  0  0  0  0  0  0  0  0
   11.5964    5.1602  -57.4205 H   0  0  0  0  0  0  0  0  0  0  0  0
   11.6447    3.9242  -59.5867 H   0  0  0  0  0  0  0  0  0  0  0  0
    9.3956    4.6380  -60.4047 H   0  0  0  0  0  0  0  0  0  0  0  0
    9.5499    2.8449  -60.4102 H   0  0  0  0  0  0  0  0  0  0  0  0
   10.9525    1.7050  -58.6864 H   0  0  0  0  0  0  0  0  0  0  0  0
   11.7956    2.6899  -57.4259 H   0  0  0  0  0  0  0  0  0  0  0  0
   10.5134    3.8063  -55.6243 H   0  0  0  0  0  0  0  0  0  0  0  0
    8.7149    3.6636  -55.5686 H   0  0  0  0  0  0  0  0  0  0  0  0
    8.9183   -4.2669  -52.8747 H   0  0  0  0  0  0  0  0  0  0  0  0
   10.1723   -3.2370  -51.1788 H   0  0  0  0  0  0  0  0  0  0  0  0
    9.0171   -1.8235  -51.0949 H   0  0  0  0  0  0  0  0  0  0  0  0
    8.5213   -4.6821  -50.0943 H   0  0  0  0  0  0  0  0  0  0  0  0
    8.6270   -3.2154  -49.1071 H   0  0  0  0  0  0  0  0  0  0  0  0
    6.9817   -2.3797  -49.8243 H   0  0  0  0  0  0  0  0  0  0  0  0
    5.4390   -4.9695  -49.8553 H   0  0  0  0  0  0  0  0  0  0  0  0
    4.5446   -3.8033  -50.3770 H   0  0  0  0  0  0  0  0  0  0  0  0
    6.6624   -5.0300  -52.2623 H   0  0  0  0  0  0  0  0  0  0  0  0
    6.7032   -3.7253  -53.7161 H   0  0  0  0  0  0  0  0  0  0  0  0
    6.5815   -2.2778  -52.7031 H   0  0  0  0  0  0  0  0  0  0  0  0
   11.3655   -3.9008  -53.1484 H   0  0  0  0  0  0  0  0  0  0  0  0
   10.7559   -4.5829  -54.6943 H   0  0  0  0  0  0  0  0  0  0  0  0
   12.1855   -3.4953  -54.6943 H   0  0  0  0  0  0  0  0  0  0  0  0
  1  2  1  0
  2  3  1  0
  3  4  1  0
  4  5  2  0
  4  6  1  0
  7  6  1  1
  7  8  1  0
  8  9  1  0
  9 10  1  0
 10 11  1  0
 11 12  1  0
 12 13  1  0
 13 14  1  0
 13 15  1  0
 11 16  1  0
  3 17  2  0
 17 18  1  0
 18 19  1  0
 19 20  1  0
 20 21  1  0
 21 22  1  0
 22 23  1  0
 23 24  1  0
 24 25  1  0
 18 26  1  0
 26 27  1  0
 26  2  2  0
 15  7  1  0
 25 19  1  0
 16  7  1  0
 24 22  1  0
 14  9  1  0
  1 28  1  0
  1 29  1  0
  1 30  1  0
  6 31  1  0
  8 32  1  0
  8 33  1  0
  9 34  1  6
 10 35  1  0
 10 36  1  0
 11 37  1  1
 12 38  1  0
 12 39  1  0
 13 40  1  6
 14 41  1  0
 14 42  1  0
 15 43  1  0
 15 44  1  0
 16 45  1  0
 16 46  1  0
 19 47  1  6
 20 48  1  0
 20 49  1  0
 21 50  1  0
 21 51  1  0
 22 52  1  6
 23 53  1  0
 23 54  1  0
 24 55  1  1
 25 56  1  0
 25 57  1  0
 27 58  1  0
 27 59  1  0
 27 60  1  0
M  END
>  <meeko>  (64) 
{"is_sidechain": false}

$$$$

     RDKit          3D

 60 65  0  0  0  0  0  0  0  0999 V2000
    7.7660    0.2150  -53.2980 C   0  0  0  0  0  0  0  0  0  0  0  0
    8.8370   -0.3730  -54.1430 C   0  0  0  0  0  0  0  0  0  0  0  0
    9.2800    0.1170  -55.4070 C   0  0  0  0  0  0  0  0  0  0  0  0
    8.7910    1.2970  -56.1510 C   0  0  0  0  0  0  0  0  0  0  0  0
    7.6740    1.7760  -55.9910 O   0  0  0  0  0  0  0  0  0  0  0  0
    9.7320    1.7870  -57.0300 N   0  0  0  0  0  0  0  0  0  0  0  0
    9.5830    2.9470  -57.9000 C   0  0  2  0  0  0  0  0  0  0  0  0
    9.3610    4.2450  -57.0860 C   0  0  0  0  0  0  0  0  0  0  0  0
    9.2560    5.4620  -58.0240 C   0  0  1  0  0  0  0  0  0  0  0  0
   10.5590    5.5960  -58.8270 C   0  0  0  0  0  0  0  0  0  0  0  0
   10.7950    4.3290  -59.6630 C   0  0  2  0  0  0  0  0  0  0  0  0
    9.6150    4.1280  -60.6270 C   0  0  0  0  0  0  0  0  0  0  0  0
    8.3060    3.9840  -59.8330 C   0  0  2  0  0  0  0  0  0  0  0  0
    8.0810    5.2520  -58.9930 C   0  0  0  0  0  0  0  0  0  0  0  0
    8.4120    2.7680  -58.8960 C   0  0  0  0  0  0  0  0  0  0  0  0
   10.8880    3.1150  -58.7230 C   0  0  0  0  0  0  0  0  0  0  0  0
   10.2680   -0.6510  -55.9050 N   0  0  0  0  0  0  0  0  0  0  0  0
   10.4460   -1.6180  -54.9850 N   0  0  0  0  0  0  0  0  0  0  0  0
   11.4680   -2.6450  -55.2220 C   0  0  2  0  0  0  0  0  0  0  0  0
   12.1600   -2.4160  -56.5870 C   0  0  0  0  0  0  0  0  0  0  0  0
   12.5390   -3.7180  -57.2930 C   0  0  0  0  0  0  0  0  0  0  0  0
   11.3070   -4.5480  -57.4870 C   0  0  1  0  0  0  0  0  0  0  0  0
   11.1470   -5.9040  -56.8560 C   0  0  0  0  0  0  0  0  0  0  0  0
   10.4340   -4.7110  -56.2700 C   0  0  1  0  0  0  0  0  0  0  0  0
   10.9200   -4.0740  -54.9980 C   0  0  0  0  0  0  0  0  0  0  0  0
    9.6250   -1.4860  -53.8920 C   0  0  0  0  0  0  0  0  0  0  0  0
    9.6610   -2.4110  -52.7280 C   0  0  0  0  0  0  0  0  0  0  0  0
    8.0188    0.0762  -52.2365 H   0  0  0  0  0  0  0  0  0  0  0  0
    7.6753    1.2894  -53.5159 H   0  0  0  0  0  0  0  0  0  0  0  0
    6.8109   -0.2852  -53.5159 H   0  0  0  0  0  0  0  0  0  0  0  0
   10.6090    1.2690  -57.0130 H   0  0  0  0  0  0  0  0  0  0  0  0
    8.4303    4.1537  -56.5068 H   0  0  0  0  0  0  0  0  0  0  0  0
   10.2169    4.3907  -56.4106 H   0  0  0  0  0  0  0  0  0  0  0  0
    9.0908    6.3747  -57.4327 H   0  0  0  0  0  0  0  0  0  0  0  0
   10.4862    6.4657  -59.4966 H   0  0  0  0  0  0  0  0  0  0  0  0
   11.3997    5.7301  -58.1304 H   0  0  0  0  0  0  0  0  0  0  0  0
   11.7285    4.4323  -60.2356 H   0  0  0  0  0  0  0  0  0  0  0  0
    9.5405    4.9966  -61.2978 H   0  0  0  0  0  0  0  0  0  0  0  0
    9.7820    3.2146  -61.2167 H   0  0  0  0  0  0  0  0  0  0  0  0
    7.4646    3.8447  -60.5277 H   0  0  0  0  0  0  0  0  0  0  0  0
    8.0017    6.1217  -59.6619 H   0  0  0  0  0  0  0  0  0  0  0  0
    7.1532    5.1386  -58.4131 H   0  0  0  0  0  0  0  0  0  0  0  0
    7.4725    2.6620  -58.3338 H   0  0  0  0  0  0  0  0  0  0  0  0
    8.5968    1.8688  -59.5021 H   0  0  0  0  0  0  0  0  0  0  0  0
   11.0544    2.2079  -59.3225 H   0  0  0  0  0  0  0  0  0  0  0  0
   11.7236    3.2751  -58.0258 H   0  0  0  0  0  0  0  0  0  0  0  0
   12.2603   -2.5447  -54.4656 H   0  0  0  0  0  0  0  0  0  0  0  0
   11.4746   -1.8521  -57.2368 H   0  0  0  0  0  0  0  0  0  0  0  0
   13.0918   -1.8642  -56.3939 H   0  0  0  0  0  0  0  0  0  0  0  0
   12.9868   -3.4895  -58.2714 H   0  0  0  0  0  0  0  0  0  0  0  0
   13.2664   -4.2724  -56.6819 H   0  0  0  0  0  0  0  0  0  0  0  0
   11.2025   -4.1994  -58.5251 H   0  0  0  0  0  0  0  0  0  0  0  0
   10.5741   -6.6874  -57.3738 H   0  0  0  0  0  0  0  0  0  0  0  0
   11.8371   -6.6665  -56.4657 H   0  0  0  0  0  0  0  0  0  0  0  0
    9.3853   -4.5135  -56.0030 H   0  0  0  0  0  0  0  0  0  0  0  0
   10.0824   -4.0230  -54.2868 H   0  0  0  0  0  0  0  0  0  0  0  0
   11.7440   -4.6905  -54.6095 H   0  0  0  0  0  0  0  0  0  0  0  0
    9.6383   -1.8280  -51.7955 H   0  0  0  0  0  0  0  0  0  0  0  0
    8.7882   -3.0795  -52.7638 H   0  0  0  0  0  0  0  0  0  0  0  0
   10.5831   -3.0097  -52.7638 H   0  0  0  0  0  0  0  0  0  0  0  0
  1  2  1  0
  2  3  1  0
  3  4  1  0
  4  5  2  0
  4  6  1  0
  7  6  1  1
  7  8  1  0
  8  9  1  0
  9 10  1  0
 10 11  1  0
 11 12  1  0
 12 13  1  0
 13 14  1  0
 13 15  1  0
 11 16  1  0
  3 17  2  0
 17 18  1  0
 18 19  1  0
 19 20  1  0
 20 21  1  0
 21 22  1  0
 22 23  1  0
 23 24  1  0
 24 25  1  0
 18 26  1  0
 26 27  1  0
 26  2  2  0
 15  7  1  0
 25 19  1  0
 16  7  1  0
 24 22  1  0
 14  9  1  0
  1 28  1  0
  1 29  1  0
  1 30  1  0
  6 31  1  0
  8 32  1  0
  8 33  1  0
  9 34  1  1
 10 35  1  0
 10 36  1  0
 11 37  1  6
 12 38  1  0
 12 39  1  0
 13 40  1  6
 14 41  1  0
 14 42  1  0
 15 43  1  0
 15 44  1  0
 16 45  1  0
 16 46  1  0
 19 47  1  1
 20 48  1  0
 20 49  1  0
 21 50  1  0
 21 51  1  0
 22 52  1  6
 23 53  1  0
 23 54  1  0
 24 55  1  6
 25 56  1  0
 25 57  1  0
 27 58  1  0
 27 59  1  0
 27 60  1  0
M  END
>  <meeko>  (65) 
{"is_sidechain": false}

$$$$

     RDKit          3D

 60 65  0  0  0  0  0  0  0  0999 V2000
   11.5190   -1.0710  -56.1310 C   0  0  0  0  0  0  0  0  0  0  0  0
   10.4970   -1.1940  -55.0590 C   0  0  0  0  0  0  0  0  0  0  0  0
    9.3190   -0.4030  -54.8860 C   0  0  0  0  0  0  0  0  0  0  0  0
    8.8650    0.7560  -55.6830 C   0  0  0  0  0  0  0  0  0  0  0  0
    7.7250    1.2080  -55.6150 O   0  0  0  0  0  0  0  0  0  0  0  0
    9.8560    1.2960  -56.4860 N   0  0  0  0  0  0  0  0  0  0  0  0
    9.7080    2.5140  -57.2860 C   0  0  2  0  0  0  0  0  0  0  0  0
   11.0370    2.7530  -58.0530 C   0  0  0  0  0  0  0  0  0  0  0  0
   10.9580    4.0260  -58.9120 C   0  0  1  0  0  0  0  0  0  0  0  0
    9.8170    3.8750  -59.9290 C   0  0  0  0  0  0  0  0  0  0  0  0
    8.4860    3.6610  -59.1940 C   0  0  2  0  0  0  0  0  0  0  0  0
    8.2100    4.8660  -58.2790 C   0  0  0  0  0  0  0  0  0  0  0  0
    9.3470    5.0260  -57.2550 C   0  0  2  0  0  0  0  0  0  0  0  0
   10.6750    5.2310  -58.0020 C   0  0  0  0  0  0  0  0  0  0  0  0
    9.4380    3.7520  -56.3970 C   0  0  0  0  0  0  0  0  0  0  0  0
    8.5770    2.3850  -58.3370 C   0  0  0  0  0  0  0  0  0  0  0  0
    8.6100   -0.8380  -53.8340 N   0  0  0  0  0  0  0  0  0  0  0  0
    9.2970   -1.8860  -53.3440 N   0  0  0  0  0  0  0  0  0  0  0  0
    8.7190   -2.5720  -52.1890 C   0  0  1  0  0  0  0  0  0  0  0  0
    7.9020   -1.6590  -51.2640 C   0  0  0  0  0  0  0  0  0  0  0  0
    7.5910   -2.3720  -49.9490 C   0  0  0  0  0  0  0  0  0  0  0  0
    7.0530   -3.7590  -50.1340 C   0  0  1  0  0  0  0  0  0  0  0  0
    5.8750   -4.0420  -51.0280 C   0  0  0  0  0  0  0  0  0  0  0  0
    7.2590   -4.4940  -51.4380 C   0  0  1  0  0  0  0  0  0  0  0  0
    7.9370   -3.8260  -52.6020 C   0  0  0  0  0  0  0  0  0  0  0  0
   10.4680   -2.1220  -54.0270 C   0  0  0  0  0  0  0  0  0  0  0  0
   11.4420   -3.1940  -53.7000 C   0  0  0  0  0  0  0  0  0  0  0  0
   12.5138   -0.9513  -55.6772 H   0  0  0  0  0  0  0  0  0  0  0  0
   11.5071   -1.9771  -56.7546 H   0  0  0  0  0  0  0  0  0  0  0  0
   11.2925   -0.1936  -56.7546 H   0  0  0  0  0  0  0  0  0  0  0  0
   10.7970    1.0060  -56.2560 H   0  0  0  0  0  0  0  0  0  0  0  0
   11.8567    2.8594  -57.3272 H   0  0  0  0  0  0  0  0  0  0  0  0
   11.2175    1.8941  -58.7162 H   0  0  0  0  0  0  0  0  0  0  0  0
   11.9091    4.1800  -59.4428 H   0  0  0  0  0  0  0  0  0  0  0  0
    9.7524    4.7858  -60.5425 H   0  0  0  0  0  0  0  0  0  0  0  0
   10.0187    3.0062  -60.5728 H   0  0  0  0  0  0  0  0  0  0  0  0
    7.6725    3.5584  -59.9272 H   0  0  0  0  0  0  0  0  0  0  0  0
    8.1402    5.7780  -58.8901 H   0  0  0  0  0  0  0  0  0  0  0  0
    7.2640    4.7005  -57.7425 H   0  0  0  0  0  0  0  0  0  0  0  0
    9.1471    5.8940  -56.6096 H   0  0  0  0  0  0  0  0  0  0  0  0
   10.6115    6.1427  -58.6142 H   0  0  0  0  0  0  0  0  0  0  0  0
   11.4897    5.3292  -57.2694 H   0  0  0  0  0  0  0  0  0  0  0  0
   10.2580    3.8622  -55.6722 H   0  0  0  0  0  0  0  0  0  0  0  0
    8.4821    3.6094  -55.8717 H   0  0  0  0  0  0  0  0  0  0  0  0
    7.6190    2.2277  -57.8198 H   0  0  0  0  0  0  0  0  0  0  0  0
    8.7990    1.5313  -58.9942 H   0  0  0  0  0  0  0  0  0  0  0  0
    9.5770   -2.8992  -51.5834 H   0  0  0  0  0  0  0  0  0  0  0  0
    8.4792   -0.7466  -51.0536 H   0  0  0  0  0  0  0  0  0  0  0  0
    6.9557   -1.4018  -51.7623 H   0  0  0  0  0  0  0  0  0  0  0  0
    8.5172   -2.4336  -49.3587 H   0  0  0  0  0  0  0  0  0  0  0  0
    6.8105   -1.7872  -49.4403 H   0  0  0  0  0  0  0  0  0  0  0  0
    7.2808   -3.9579  -49.0764 H   0  0  0  0  0  0  0  0  0  0  0  0
    5.1213   -4.7841  -50.7259 H   0  0  0  0  0  0  0  0  0  0  0  0
    5.0874   -3.4308  -51.4928 H   0  0  0  0  0  0  0  0  0  0  0  0
    7.7258   -5.4499  -51.7178 H   0  0  0  0  0  0  0  0  0  0  0  0
    8.6353   -4.5414  -53.0609 H   0  0  0  0  0  0  0  0  0  0  0  0
    7.1543   -3.5129  -53.3086 H   0  0  0  0  0  0  0  0  0  0  0  0
   11.5289   -3.2897  -52.6076 H   0  0  0  0  0  0  0  0  0  0  0  0
   11.0946   -4.1472  -54.1251 H   0  0  0  0  0  0  0  0  0  0  0  0
   12.4241   -2.9393  -54.1251 H   0  0  0  0  0  0  0  0  0  0  0  0
  1  2  1  0
  2  3  1  0
  3  4  1  0
  4  5  2  0
  4  6  1  0
  7  6  1  1
  7  8  1  0
  8  9  1  0
  9 10  1  0
 10 11  1  0
 11 12  1  0
 12 13  1  0
 13 14  1  0
 13 15  1  0
 11 16  1  0
  3 17  2  0
 17 18  1  0
 18 19  1  0
 19 20  1  0
 20 21  1  0
 21 22  1  0
 22 23  1  0
 23 24  1  0
 24 25  1  0
 18 26  1  0
 26 27  1  0
 26  2  2  0
 15  7  1  0
 25 19  1  0
 16  7  1  0
 24 22  1  0
 14  9  1  0
  1 28  1  0
  1 29  1  0
  1 30  1  0
  6 31  1  0
  8 32  1  0
  8 33  1  0
  9 34  1  6
 10 35  1  0
 10 36  1  0
 11 37  1  6
 12 38  1  0
 12 39  1  0
 13 40  1  1
 14 41  1  0
 14 42  1  0
 15 43  1  0
 15 44  1  0
 16 45  1  0
 16 46  1  0
 19 47  1  1
 20 48  1  0
 20 49  1  0
 21 50  1  0
 21 51  1  0
 22 52  1  1
 23 53  1  0
 23 54  1  0
 24 55  1  1
 25 56  1  0
 25 57  1  0
 27 58  1  0
 27 59  1  0
 27 60  1  0
M  END
>  <meeko>  (66) 
{"is_sidechain": false}

$$$$

     RDKit          3D

 62 66  0  0  0  0  0  0  0  0999 V2000
   12.8850    4.9560  -58.1670 C   0  0  0  0  0  0  0  0  0  0  0  0
   11.6980    4.5920  -58.9780 C   0  0  0  0  0  0  0  0  0  0  0  0
   11.6350    4.9810  -60.2610 N   0  0  0  0  0  0  0  0  0  0  0  0
   10.4480    4.4910  -60.7650 O   0  0  0  0  0  0  0  0  0  0  0  0
    9.8140    3.8210  -59.7850 C   0  0  0  0  0  0  0  0  0  0  0  0
   10.5380    3.8550  -58.6170 C   0  0  0  0  0  0  0  0  0  0  0  0
   10.0620    3.1640  -57.3540 C   0  0  0  0  0  0  0  0  0  0  0  0
   10.8270    1.8180  -57.2440 C   0  0  0  0  0  0  0  0  0  0  0  0
   10.3970    3.9920  -56.0950 C   0  0  0  0  0  0  0  0  0  0  0  0
    8.4490    2.9300  -57.4620 C   0  0  2  0  0  0  0  0  0  0  0  0
    7.6580    4.2590  -57.3230 C   0  0  0  0  0  0  0  0  0  0  0  0
    7.9480    1.8890  -56.4730 C   0  0  0  0  0  0  0  0  0  0  0  0
    6.6960    1.4360  -56.2720 C   0  0  0  0  0  0  0  0  0  0  0  0
    6.4890    0.3520  -55.2710 C   0  0  0  0  0  0  0  0  0  0  0  0
    5.3600    0.0170  -54.9410 O   0  0  0  0  0  0  0  0  0  0  0  0
    7.6600   -0.1780  -54.7990 N   0  0  0  0  0  0  0  0  0  0  0  0
    7.7400   -1.2740  -53.8220 C   0  0  2  0  0  0  0  0  0  0  0  0
    7.5960   -0.7590  -52.3680 C   0  0  0  0  0  0  0  0  0  0  0  0
    7.7330   -1.9190  -51.3660 C   0  0  1  0  0  0  0  0  0  0  0  0
    6.6440   -2.9670  -51.6550 C   0  0  0  0  0  0  0  0  0  0  0  0
    6.8010   -3.5140  -53.0840 C   0  0  2  0  0  0  0  0  0  0  0  0
    8.1900   -4.1530  -53.2330 C   0  0  0  0  0  0  0  0  0  0  0  0
    9.2810   -3.1080  -52.9550 C   0  0  2  0  0  0  0  0  0  0  0  0
    9.1170   -2.5680  -51.5250 C   0  0  0  0  0  0  0  0  0  0  0  0
    9.1340   -1.9480  -53.9520 C   0  0  0  0  0  0  0  0  0  0  0  0
    6.6630   -2.3550  -54.0870 C   0  0  0  0  0  0  0  0  0  0  0  0
    8.1040    2.3700  -58.8610 N   0  0  0  0  0  0  0  0  0  0  0  0
    8.5090    3.2130  -60.0450 C   0  0  0  0  0  0  0  0  0  0  0  0
   12.6362    4.8797  -57.0982 H   0  0  0  0  0  0  0  0  0  0  0  0
   13.7129    4.2705  -58.4006 H   0  0  0  0  0  0  0  0  0  0  0  0
   13.1863    5.9878  -58.4006 H   0  0  0  0  0  0  0  0  0  0  0  0
   10.9714    1.5639  -56.1835 H   0  0  0  0  0  0  0  0  0  0  0  0
   10.2450    1.0243  -57.7353 H   0  0  0  0  0  0  0  0  0  0  0  0
   11.8067    1.9119  -57.7353 H   0  0  0  0  0  0  0  0  0  0  0  0
   10.1593    3.4046  -55.1959 H   0  0  0  0  0  0  0  0  0  0  0  0
   11.4678    4.2439  -56.0960 H   0  0  0  0  0  0  0  0  0  0  0  0
    9.8026    4.9176  -56.0960 H   0  0  0  0  0  0  0  0  0  0  0  0
    7.5187    4.4930  -56.2573 H   0  0  0  0  0  0  0  0  0  0  0  0
    8.2193    5.0721  -57.8066 H   0  0  0  0  0  0  0  0  0  0  0  0
    6.6757    4.1533  -57.8066 H   0  0  0  0  0  0  0  0  0  0  0  0
    8.7195    1.4417  -55.8291 H   0  0  0  0  0  0  0  0  0  0  0  0
    5.8476    1.8556  -56.8326 H   0  0  0  0  0  0  0  0  0  0  0  0
    8.5390    0.1430  -55.1820 H   0  0  0  0  0  0  0  0  0  0  0  0
    8.3811   -0.0147  -52.1688 H   0  0  0  0  0  0  0  0  0  0  0  0
    6.6014   -0.3042  -52.2499 H   0  0  0  0  0  0  0  0  0  0  0  0
    7.6200   -1.5384  -50.3401 H   0  0  0  0  0  0  0  0  0  0  0  0
    6.7363   -3.7949  -50.9366 H   0  0  0  0  0  0  0  0  0  0  0  0
    5.6554   -2.4945  -51.5575 H   0  0  0  0  0  0  0  0  0  0  0  0
    6.0250   -4.2685  -53.2804 H   0  0  0  0  0  0  0  0  0  0  0  0
    8.2885   -4.9820  -52.5167 H   0  0  0  0  0  0  0  0  0  0  0  0
    8.3054   -4.5315  -54.2594 H   0  0  0  0  0  0  0  0  0  0  0  0
   10.2729   -3.5709  -53.0641 H   0  0  0  0  0  0  0  0  0  0  0  0
    9.2155   -3.3969  -50.8087 H   0  0  0  0  0  0  0  0  0  0  0  0
    9.8946   -1.8144  -51.3312 H   0  0  0  0  0  0  0  0  0  0  0  0
    9.9151   -1.2000  -53.7511 H   0  0  0  0  0  0  0  0  0  0  0  0
    9.2358   -2.3478  -54.9717 H   0  0  0  0  0  0  0  0  0  0  0  0
    6.7852   -2.7444  -55.1085 H   0  0  0  0  0  0  0  0  0  0  0  0
    5.6681   -1.9008  -53.9696 H   0  0  0  0  0  0  0  0  0  0  0  0
    8.5630    1.4560  -58.9650 H   0  0  0  0  0  0  0  0  0  0  0  0
    7.0960    2.1770  -58.9130 H   0  0  0  0  0  0  0  0  0  0  0  0
    8.5714    2.5797  -60.9422 H   0  0  0  0  0  0  0  0  0  0  0  0
    7.7611    4.0033  -60.2064 H   0  0  0  0  0  0  0  0  0  0  0  0
  1  2  1  0
  2  3  2  0
  3  4  1  0
  4  5  1  0
  5  6  2  0
  6  7  1  0
  7  8  1  0
  7  9  1  0
  7 10  1  0
 10 11  1  1
 10 12  1  0
 12 13  2  0
 13 14  1  0
 14 15  2  0
 14 16  1  0
 17 16  1  6
 17 18  1  0
 18 19  1  0
 19 20  1  0
 20 21  1  0
 21 22  1  0
 22 23  1  0
 23 24  1  0
 23 25  1  0
 21 26  1  0
 10 27  1  0
 27 28  1  0
  6  2  1  0
 25 17  1  0
 28  5  1  0
 26 17  1  0
 24 19  1  0
  1 29  1  0
  1 30  1  0
  1 31  1  0
  8 32  1  0
  8 33  1  0
  8 34  1  0
  9 35  1  0
  9 36  1  0
  9 37  1  0
 11 38  1  0
 11 39  1  0
 11 40  1  0
 12 41  1  0
 13 42  1  0
 16 43  1  0
 18 44  1  0
 18 45  1  0
 19 46  1  1
 20 47  1  0
 20 48  1  0
 21 49  1  6
 22 50  1  0
 22 51  1  0
 23 52  1  1
 24 53  1  0
 24 54  1  0
 25 55  1  0
 25 56  1  0
 26 57  1  0
 26 58  1  0
 27 59  1  0
 27 60  1  0
 28 61  1  0
 28 62  1  0
M  CHG  1  27   1
M  END
>  <meeko>  (67) 
{"is_sidechain": false}

$$$$

     RDKit          3D

 62 66  0  0  0  0  0  0  0  0999 V2000
    6.1530   -3.7460  -50.5640 C   0  0  0  0  0  0  0  0  0  0  0  0
    7.5890   -3.5090  -50.8520 C   0  0  0  0  0  0  0  0  0  0  0  0
    8.5160   -4.0490  -50.0450 N   0  0  0  0  0  0  0  0  0  0  0  0
    9.7430   -3.6560  -50.5360 O   0  0  0  0  0  0  0  0  0  0  0  0
    9.5400   -2.8910  -51.6230 C   0  0  0  0  0  0  0  0  0  0  0  0
    8.2010   -2.7610  -51.8970 C   0  0  0  0  0  0  0  0  0  0  0  0
    7.6830   -1.9290  -53.0640 C   0  0  0  0  0  0  0  0  0  0  0  0
    6.4740   -2.6390  -53.7140 C   0  0  0  0  0  0  0  0  0  0  0  0
    7.2170   -0.5760  -52.4640 C   0  0  0  0  0  0  0  0  0  0  0  0
    8.8980   -1.7200  -54.1440 C   0  0  1  0  0  0  0  0  0  0  0  0
    9.2070   -3.0290  -54.9190 C   0  0  0  0  0  0  0  0  0  0  0  0
    8.7490   -0.6470  -55.2250 C   0  0  0  0  0  0  0  0  0  0  0  0
    8.9090    0.6850  -55.1510 C   0  0  0  0  0  0  0  0  0  0  0  0
    8.5420    1.5690  -56.2870 C   0  0  0  0  0  0  0  0  0  0  0  0
    7.3730    1.8930  -56.4300 O   0  0  0  0  0  0  0  0  0  0  0  0
    9.6050    1.9700  -57.0530 N   0  0  0  0  0  0  0  0  0  0  0  0
    9.4940    2.9270  -58.1670 C   0  0  2  0  0  0  0  0  0  0  0  0
   10.8940    3.0730  -58.8230 C   0  0  0  0  0  0  0  0  0  0  0  0
   10.8530    4.0670  -59.9950 C   0  0  1  0  0  0  0  0  0  0  0  0
    9.8590    3.5600  -61.0500 C   0  0  0  0  0  0  0  0  0  0  0  0
    8.4590    3.4290  -60.4300 C   0  0  2  0  0  0  0  0  0  0  0  0
    8.0050    4.8020  -59.9070 C   0  0  0  0  0  0  0  0  0  0  0  0
    8.9940    5.3190  -58.8470 C   0  0  2  0  0  0  0  0  0  0  0  0
   10.3920    5.4390  -59.4770 C   0  0  0  0  0  0  0  0  0  0  0  0
    9.0470    4.3250  -57.6750 C   0  0  0  0  0  0  0  0  0  0  0  0
    8.5110    2.4330  -59.2600 C   0  0  0  0  0  0  0  0  0  0  0  0
   10.1950   -1.3510  -53.3740 N   0  0  0  0  0  0  0  0  0  0  0  0
   10.6830   -2.3510  -52.3520 C   0  0  0  0  0  0  0  0  0  0  0  0
    5.9967   -3.7718  -49.4755 H   0  0  0  0  0  0  0  0  0  0  0  0
    5.5525   -2.9348  -51.0015 H   0  0  0  0  0  0  0  0  0  0  0  0
    5.8450   -4.7071  -51.0015 H   0  0  0  0  0  0  0  0  0  0  0  0
    5.8110   -3.0283  -52.9273 H   0  0  0  0  0  0  0  0  0  0  0  0
    5.9204   -1.9225  -54.3387 H   0  0  0  0  0  0  0  0  0  0  0  0
    6.8300   -3.4715  -54.3387 H   0  0  0  0  0  0  0  0  0  0  0  0
    7.2375   -0.6354  -51.3658 H   0  0  0  0  0  0  0  0  0  0  0  0
    7.8908    0.2258  -52.8004 H   0  0  0  0  0  0  0  0  0  0  0  0
    6.1924   -0.3592  -52.8004 H   0  0  0  0  0  0  0  0  0  0  0  0
    9.3989   -3.8421  -54.2035 H   0  0  0  0  0  0  0  0  0  0  0  0
    8.3464   -3.2926  -55.5514 H   0  0  0  0  0  0  0  0  0  0  0  0
   10.0946   -2.8799  -55.5514 H   0  0  0  0  0  0  0  0  0  0  0  0
    8.4666   -1.0257  -56.2184 H   0  0  0  0  0  0  0  0  0  0  0  0
    9.3194    1.1291  -54.2321 H   0  0  0  0  0  0  0  0  0  0  0  0
   10.5300    1.8400  -56.6720 H   0  0  0  0  0  0  0  0  0  0  0  0
   11.6084    3.4353  -58.0691 H   0  0  0  0  0  0  0  0  0  0  0  0
   11.2046    2.0904  -59.2079 H   0  0  0  0  0  0  0  0  0  0  0  0
   11.8534    4.1586  -60.4431 H   0  0  0  0  0  0  0  0  0  0  0  0
    9.8217    4.2719  -61.8877 H   0  0  0  0  0  0  0  0  0  0  0  0
   10.1876    2.5751  -61.4131 H   0  0  0  0  0  0  0  0  0  0  0  0
    7.7507    3.0689  -61.1907 H   0  0  0  0  0  0  0  0  0  0  0  0
    7.9638    5.5145  -60.7441 H   0  0  0  0  0  0  0  0  0  0  0  0
    7.0091    4.7016  -59.4509 H   0  0  0  0  0  0  0  0  0  0  0  0
    8.6665    6.3033  -58.4812 H   0  0  0  0  0  0  0  0  0  0  0  0
   10.3545    6.1511  -60.3146 H   0  0  0  0  0  0  0  0  0  0  0  0
   11.1021    5.7958  -58.7165 H   0  0  0  0  0  0  0  0  0  0  0  0
    9.7627    4.6898  -56.9235 H   0  0  0  0  0  0  0  0  0  0  0  0
    8.0425    4.2418  -57.2345 H   0  0  0  0  0  0  0  0  0  0  0  0
    7.5058    2.3340  -58.8244 H   0  0  0  0  0  0  0  0  0  0  0  0
    8.8593    1.4602  -59.6372 H   0  0  0  0  0  0  0  0  0  0  0  0
   10.9620   -1.1820  -54.0320 H   0  0  0  0  0  0  0  0  0  0  0  0
   10.0340   -0.4630  -52.8830 H   0  0  0  0  0  0  0  0  0  0  0  0
   11.2134   -3.1687  -52.8619 H   0  0  0  0  0  0  0  0  0  0  0  0
   11.3683   -1.8552  -51.6487 H   0  0  0  0  0  0  0  0  0  0  0  0
  1  2  1  0
  2  3  2  0
  3  4  1  0
  4  5  1  0
  5  6  2  0
  6  7  1  0
  7  8  1  0
  7  9  1  0
  7 10  1  0
 10 11  1  6
 10 12  1  0
 12 13  2  0
 13 14  1  0
 14 15  2  0
 14 16  1  0
 17 16  1  1
 17 18  1  0
 18 19  1  0
 19 20  1  0
 20 21  1  0
 21 22  1  0
 22 23  1  0
 23 24  1  0
 23 25  1  0
 21 26  1  0
 10 27  1  0
 27 28  1  0
  6  2  1  0
 25 17  1  0
 28  5  1  0
 26 17  1  0
 24 19  1  0
  1 29  1  0
  1 30  1  0
  1 31  1  0
  8 32  1  0
  8 33  1  0
  8 34  1  0
  9 35  1  0
  9 36  1  0
  9 37  1  0
 11 38  1  0
 11 39  1  0
 11 40  1  0
 12 41  1  0
 13 42  1  0
 16 43  1  0
 18 44  1  0
 18 45  1  0
 19 46  1  6
 20 47  1  0
 20 48  1  0
 21 49  1  6
 22 50  1  0
 22 51  1  0
 23 52  1  1
 24 53  1  0
 24 54  1  0
 25 55  1  0
 25 56  1  0
 26 57  1  0
 26 58  1  0
 27 59  1  0
 27 60  1  0
 28 61  1  0
 28 62  1  0
M  CHG  1  27   1
M  END
>  <meeko>  (68) 
{"is_sidechain": false}

$$$$

     RDKit          3D

 66 71  0  0  0  0  0  0  0  0999 V2000
    5.8690    0.5990  -54.1020 O   0  0  0  0  0  0  0  0  0  0  0  0
    6.7390    0.3250  -54.9230 C   0  0  0  0  0  0  0  0  0  0  0  0
    7.5930   -0.7570  -54.7940 N   0  0  0  0  0  0  0  0  0  0  0  0
    7.5880   -1.6930  -53.6650 C   0  0  2  0  0  0  0  0  0  0  0  0
    6.3480   -2.6220  -53.6890 C   0  0  0  0  0  0  0  0  0  0  0  0
    6.4020   -3.6270  -52.5230 C   0  0  1  0  0  0  0  0  0  0  0  0
    7.6660   -4.4900  -52.6550 C   0  0  0  0  0  0  0  0  0  0  0  0
    8.9160   -3.5970  -52.6150 C   0  0  2  0  0  0  0  0  0  0  0  0
    8.9540   -2.8310  -51.2830 C   0  0  0  0  0  0  0  0  0  0  0  0
    7.6970   -1.9590  -51.1440 C   0  0  2  0  0  0  0  0  0  0  0  0
    6.4490   -2.8550  -51.1940 C   0  0  0  0  0  0  0  0  0  0  0  0
    7.6440   -0.9520  -52.3060 C   0  0  0  0  0  0  0  0  0  0  0  0
    8.8520   -2.5890  -53.7740 C   0  0  0  0  0  0  0  0  0  0  0  0
    6.9750    1.1440  -56.1310 C   0  0  0  0  0  0  0  0  0  0  0  0
    5.9960    1.3460  -57.0270 N   0  0  0  0  0  0  0  0  0  0  0  0
    6.5490    2.1040  -57.9900 N   0  0  0  0  0  0  0  0  0  0  0  0
    5.7370    2.4900  -59.1470 C   0  0  0  0  0  0  0  0  0  0  0  0
    6.0890    1.6820  -60.4140 C   0  0  0  0  0  0  0  0  0  0  0  0
    5.0860    0.5650  -60.6880 C   0  0  0  0  0  0  0  0  0  0  0  0
    3.6630    1.1000  -60.8600 C   0  0  0  0  0  0  0  0  0  0  0  0
    3.3790    2.3660  -60.0520 C   0  0  0  0  0  0  0  0  0  0  0  0
    4.2380    2.4450  -58.7960 C   0  0  0  0  0  0  0  0  0  0  0  0
    7.8570    2.4390  -57.7280 C   0  0  0  0  0  0  0  0  0  0  0  0
    8.6770    3.2780  -58.5910 C   0  0  0  0  0  0  0  0  0  0  0  0
    8.6590    4.6690  -58.4440 C   0  0  0  0  0  0  0  0  0  0  0  0
    9.4520    5.4710  -59.2670 C   0  0  0  0  0  0  0  0  0  0  0  0
   10.2610    4.8880  -60.2400 C   0  0  0  0  0  0  0  0  0  0  0  0
   10.2790    3.5020  -60.3940 C   0  0  0  0  0  0  0  0  0  0  0  0
    9.4870    2.6970  -59.5730 C   0  0  0  0  0  0  0  0  0  0  0  0
    8.1740    1.8040  -56.5330 C   0  0  0  0  0  0  0  0  0  0  0  0
    9.4540    1.7770  -55.7900 C   0  0  0  0  0  0  0  0  0  0  0  0
   10.3250    0.9010  -56.3640 F   0  0  0  0  0  0  0  0  0  0  0  0
    9.3280    1.4010  -54.4940 F   0  0  0  0  0  0  0  0  0  0  0  0
   10.0650    2.9880  -55.7860 F   0  0  0  0  0  0  0  0  0  0  0  0
    8.4080   -0.7790  -55.3940 H   0  0  0  0  0  0  0  0  0  0  0  0
    5.4372   -2.0119  -53.5987 H   0  0  0  0  0  0  0  0  0  0  0  0
    6.3399   -3.1789  -54.6376 H   0  0  0  0  0  0  0  0  0  0  0  0
    5.5114   -4.2721  -52.5463 H   0  0  0  0  0  0  0  0  0  0  0  0
    7.7049   -5.2093  -51.8236 H   0  0  0  0  0  0  0  0  0  0  0  0
    7.6373   -5.0299  -53.6130 H   0  0  0  0  0  0  0  0  0  0  0  0
    9.8181   -4.2194  -52.7092 H   0  0  0  0  0  0  0  0  0  0  0  0
    8.9934   -3.5490  -50.4506 H   0  0  0  0  0  0  0  0  0  0  0  0
    9.8453   -2.1867  -51.2616 H   0  0  0  0  0  0  0  0  0  0  0  0
    7.7276   -1.4183  -50.1866 H   0  0  0  0  0  0  0  0  0  0  0  0
    6.4818   -3.5705  -50.3592 H   0  0  0  0  0  0  0  0  0  0  0  0
    5.5512   -2.2245  -51.1134 H   0  0  0  0  0  0  0  0  0  0  0  0
    6.7476   -0.3234  -52.1994 H   0  0  0  0  0  0  0  0  0  0  0  0
    8.5501   -0.3290  -52.2780 H   0  0  0  0  0  0  0  0  0  0  0  0
    9.7480   -1.9515  -53.7459 H   0  0  0  0  0  0  0  0  0  0  0  0
    8.8048   -3.1470  -54.7208 H   0  0  0  0  0  0  0  0  0  0  0  0
    5.9810    3.5328  -59.3982 H   0  0  0  0  0  0  0  0  0  0  0  0
    6.1019    2.3648  -61.2763 H   0  0  0  0  0  0  0  0  0  0  0  0
    7.0731    1.2176  -60.2534 H   0  0  0  0  0  0  0  0  0  0  0  0
    5.3816    0.0405  -61.6086 H   0  0  0  0  0  0  0  0  0  0  0  0
    5.0906   -0.1146  -59.8231 H   0  0  0  0  0  0  0  0  0  0  0  0
    3.5032    1.3249  -61.9248 H   0  0  0  0  0  0  0  0  0  0  0  0
    2.9806    0.3219  -60.4875 H   0  0  0  0  0  0  0  0  0  0  0  0
    3.5882    3.2436  -60.6813 H   0  0  0  0  0  0  0  0  0  0  0  0
    2.3240    2.3420  -59.7416 H   0  0  0  0  0  0  0  0  0  0  0  0
    3.9731    3.3546  -58.2370 H   0  0  0  0  0  0  0  0  0  0  0  0
    4.0497    1.5473  -58.1888 H   0  0  0  0  0  0  0  0  0  0  0  0
    8.0188    5.1319  -57.6785 H   0  0  0  0  0  0  0  0  0  0  0  0
    9.4380    6.5644  -59.1471 H   0  0  0  0  0  0  0  0  0  0  0  0
   10.8858    5.5212  -60.8871 H   0  0  0  0  0  0  0  0  0  0  0  0
   10.9177    3.0427  -61.1629 H   0  0  0  0  0  0  0  0  0  0  0  0
    9.4998    1.6042  -59.6983 H   0  0  0  0  0  0  0  0  0  0  0  0
  1  2  2  0
  2  3  1  0
  4  3  1  6
  4  5  1  0
  5  6  1  0
  6  7  1  0
  7  8  1  0
  8  9  1  0
  9 10  1  0
 10 11  1  0
 10 12  1  0
  8 13  1  0
  2 14  1  0
 14 15  2  0
 15 16  1  0
 16 17  1  0
 17 18  1  0
 18 19  1  0
 19 20  1  0
 20 21  1  0
 21 22  1  0
 16 23  1  0
 23 24  1  0
 24 25  2  0
 25 26  1  0
 26 27  2  0
 27 28  1  0
 28 29  2  0
 23 30  2  0
 30 31  1  0
 31 32  1  0
 31 33  1  0
 31 34  1  0
 12  4  1  0
 30 14  1  0
 13  4  1  0
 22 17  1  0
 29 24  1  0
 11  6  1  0
  3 35  1  0
  5 36  1  0
  5 37  1  0
  6 38  1  1
  7 39  1  0
  7 40  1  0
  8 41  1  6
  9 42  1  0
  9 43  1  0
 10 44  1  1
 11 45  1  0
 11 46  1  0
 12 47  1  0
 12 48  1  0
 13 49  1  0
 13 50  1  0
 17 51  1  0
 18 52  1  0
 18 53  1  0
 19 54  1  0
 19 55  1  0
 20 56  1  0
 20 57  1  0
 21 58  1  0
 21 59  1  0
 22 60  1  0
 22 61  1  0
 25 62  1  0
 26 63  1  0
 27 64  1  0
 28 65  1  0
 29 66  1  0
M  END
>  <meeko>  (69) 
{"is_sidechain": false}

$$$$

     RDKit          3D

 47 51  0  0  0  0  0  0  0  0999 V2000
    5.8840   -0.1200  -53.7850 C   0  0  0  0  0  0  0  0  0  0  0  0
    7.3140   -0.4430  -54.0280 C   0  0  0  0  0  0  0  0  0  0  0  0
    8.1890    0.1670  -54.9930 C   0  0  0  0  0  0  0  0  0  0  0  0
    7.8970    1.2440  -55.9670 C   0  0  0  0  0  0  0  0  0  0  0  0
    6.7660    1.6480  -56.2130 O   0  0  0  0  0  0  0  0  0  0  0  0
    9.0390    1.7390  -56.5610 N   0  0  0  0  0  0  0  0  0  0  0  0
    9.1070    2.8000  -57.5600 C   0  0  2  0  0  0  0  0  0  0  0  0
   10.5410    2.8280  -58.1540 C   0  0  0  0  0  0  0  0  0  0  0  0
   10.6750    3.9290  -59.2170 C   0  0  1  0  0  0  0  0  0  0  0  0
    9.6680    3.6650  -60.3470 C   0  0  0  0  0  0  0  0  0  0  0  0
    8.2380    3.6580  -59.7860 C   0  0  2  0  0  0  0  0  0  0  0  0
    7.9420    5.0200  -59.1350 C   0  0  0  0  0  0  0  0  0  0  0  0
    8.9440    5.2940  -58.0010 C   0  0  2  0  0  0  0  0  0  0  0  0
   10.3710    5.2910  -58.5730 C   0  0  0  0  0  0  0  0  0  0  0  0
    8.8210    4.1890  -56.9370 C   0  0  0  0  0  0  0  0  0  0  0  0
    8.1140    2.5520  -58.7220 C   0  0  0  0  0  0  0  0  0  0  0  0
    9.4260   -0.3740  -54.9390 N   0  0  0  0  0  0  0  0  0  0  0  0
    9.3350   -1.2950  -53.9710 N   0  0  0  0  0  0  0  0  0  0  0  0
    8.1050   -1.3840  -53.3900 C   0  0  0  0  0  0  0  0  0  0  0  0
    7.7720   -2.3930  -52.2380 C   0  0  0  0  0  0  0  0  0  0  0  0
    8.0780   -2.1640  -50.8600 C   0  0  0  0  0  0  0  0  0  0  0  0
    7.6800   -3.2070  -50.0510 C   0  0  0  0  0  0  0  0  0  0  0  0
    6.9380   -4.4610  -50.9430 S   0  0  0  0  0  0  0  0  0  0  0  0
    7.1500   -3.6090  -52.4150 C   0  0  0  0  0  0  0  0  0  0  0  0
    5.6966   -0.0777  -52.7019 H   0  0  0  0  0  0  0  0  0  0  0  0
    5.6463    0.8545  -54.2366 H   0  0  0  0  0  0  0  0  0  0  0  0
    5.2506   -0.8977  -54.2366 H   0  0  0  0  0  0  0  0  0  0  0  0
    9.8940    1.2880  -56.2380 H   0  0  0  0  0  0  0  0  0  0  0  0
   11.2617    3.0191  -57.3453 H   0  0  0  0  0  0  0  0  0  0  0  0
   10.7429    1.8563  -58.6284 H   0  0  0  0  0  0  0  0  0  0  0  0
   11.6966    3.9315  -59.6249 H   0  0  0  0  0  0  0  0  0  0  0  0
    9.7574    4.4556  -61.1065 H   0  0  0  0  0  0  0  0  0  0  0  0
    9.8826    2.6860  -60.8002 H   0  0  0  0  0  0  0  0  0  0  0  0
    7.5226    3.4714  -60.6004 H   0  0  0  0  0  0  0  0  0  0  0  0
    8.0264    5.8118  -59.8939 H   0  0  0  0  0  0  0  0  0  0  0  0
    6.9236    5.0061  -58.7194 H   0  0  0  0  0  0  0  0  0  0  0  0
    8.7298    6.2722  -57.5457 H   0  0  0  0  0  0  0  0  0  0  0  0
   10.4609    6.0815  -59.3326 H   0  0  0  0  0  0  0  0  0  0  0  0
   11.0874    5.4738  -57.7586 H   0  0  0  0  0  0  0  0  0  0  0  0
    9.5452    4.3802  -56.1314 H   0  0  0  0  0  0  0  0  0  0  0  0
    7.7967    4.1944  -56.5360 H   0  0  0  0  0  0  0  0  0  0  0  0
    7.0880    2.5452  -58.3255 H   0  0  0  0  0  0  0  0  0  0  0  0
    8.3482    1.5836  -59.1881 H   0  0  0  0  0  0  0  0  0  0  0  0
   10.1620   -1.8380  -53.7510 H   0  0  0  0  0  0  0  0  0  0  0  0
    8.5756   -1.2566  -50.4870 H   0  0  0  0  0  0  0  0  0  0  0  0
    7.8232   -3.2291  -48.9606 H   0  0  0  0  0  0  0  0  0  0  0  0
    6.8249   -3.9915  -53.3938 H   0  0  0  0  0  0  0  0  0  0  0  0
  1  2  1  0
  2  3  1  0
  3  4  1  0
  4  5  2  0
  4  6  1  0
  7  6  1  1
  7  8  1  0
  8  9  1  0
  9 10  1  0
 10 11  1  0
 11 12  1  0
 12 13  1  0
 13 14  1  0
 13 15  1  0
 11 16  1  0
  3 17  2  0
 17 18  1  0
 18 19  1  0
 19 20  1  0
 20 21  1  0
 21 22  2  0
 22 23  1  0
 23 24  1  0
 19  2  2  0
 24 20  2  0
 15  7  1  0
 16  7  1  0
 14  9  1  0
  1 25  1  0
  1 26  1  0
  1 27  1  0
  6 28  1  0
  8 29  1  0
  8 30  1  0
  9 31  1  6
 10 32  1  0
 10 33  1  0
 11 34  1  6
 12 35  1  0
 12 36  1  0
 13 37  1  1
 14 38  1  0
 14 39  1  0
 15 40  1  0
 15 41  1  0
 16 42  1  0
 16 43  1  0
 18 44  1  0
 21 45  1  0
 22 46  1  0
 24 47  1  0
M  END
>  <meeko>  (70) 
{"is_sidechain": false}

$$$$

     RDKit          3D

 47 51  0  0  0  0  0  0  0  0999 V2000
    5.8980    0.0020  -53.7300 C   0  0  0  0  0  0  0  0  0  0  0  0
    7.3130   -0.3960  -53.9570 C   0  0  0  0  0  0  0  0  0  0  0  0
    8.0860   -1.3820  -53.2800 C   0  0  0  0  0  0  0  0  0  0  0  0
    7.6350   -2.2710  -52.2010 C   0  0  0  0  0  0  0  0  0  0  0  0
    8.0910   -2.1930  -50.8490 C   0  0  0  0  0  0  0  0  0  0  0  0
    7.4960   -3.1390  -50.0430 C   0  0  0  0  0  0  0  0  0  0  0  0
    6.3770   -4.1060  -50.9030 S   0  0  0  0  0  0  0  0  0  0  0  0
    6.6780   -3.2540  -52.3550 C   0  0  0  0  0  0  0  0  0  0  0  0
    9.3480   -1.4140  -53.7210 N   0  0  0  0  0  0  0  0  0  0  0  0
    9.3600   -0.5290  -54.7230 N   0  0  0  0  0  0  0  0  0  0  0  0
    8.1890    0.1530  -54.8880 C   0  0  0  0  0  0  0  0  0  0  0  0
    7.9660    1.1700  -55.8870 C   0  0  0  0  0  0  0  0  0  0  0  0
    6.8490    1.5710  -56.1860 O   0  0  0  0  0  0  0  0  0  0  0  0
    9.1270    1.6630  -56.4510 N   0  0  0  0  0  0  0  0  0  0  0  0
    9.1660    2.7590  -57.4300 C   0  0  2  0  0  0  0  0  0  0  0  0
    8.8520    4.1260  -56.7730 C   0  0  0  0  0  0  0  0  0  0  0  0
    8.9610    5.2610  -57.8060 C   0  0  1  0  0  0  0  0  0  0  0  0
   10.3900    5.3000  -58.3700 C   0  0  0  0  0  0  0  0  0  0  0  0
   10.7230    3.9630  -59.0490 C   0  0  2  0  0  0  0  0  0  0  0  0
    9.7300    3.7110  -60.1930 C   0  0  0  0  0  0  0  0  0  0  0  0
    8.2970    3.6600  -59.6410 C   0  0  2  0  0  0  0  0  0  0  0  0
    7.9700    4.9980  -58.9540 C   0  0  0  0  0  0  0  0  0  0  0  0
    8.1880    2.5230  -58.6100 C   0  0  0  0  0  0  0  0  0  0  0  0
   10.6020    2.8290  -58.0180 C   0  0  0  0  0  0  0  0  0  0  0  0
    5.7015    0.0573  -52.6491 H   0  0  0  0  0  0  0  0  0  0  0  0
    5.7162    0.9861  -54.1865 H   0  0  0  0  0  0  0  0  0  0  0  0
    5.2298   -0.7430  -54.1865 H   0  0  0  0  0  0  0  0  0  0  0  0
    8.8317   -1.4620  -50.4927 H   0  0  0  0  0  0  0  0  0  0  0  0
    7.7149   -3.2585  -48.9717 H   0  0  0  0  0  0  0  0  0  0  0  0
    6.1662   -3.4656  -53.3054 H   0  0  0  0  0  0  0  0  0  0  0  0
   10.2090   -0.4410  -55.2720 H   0  0  0  0  0  0  0  0  0  0  0  0
    9.9650    1.5460  -55.8980 H   0  0  0  0  0  0  0  0  0  0  0  0
    7.8305    4.1051  -56.3653 H   0  0  0  0  0  0  0  0  0  0  0  0
    9.5793    4.3080  -55.9680 H   0  0  0  0  0  0  0  0  0  0  0  0
    8.7268    6.2224  -57.3255 H   0  0  0  0  0  0  0  0  0  0  0  0
   10.4687    6.1126  -59.1072 H   0  0  0  0  0  0  0  0  0  0  0  0
   11.0987    5.4735  -57.5468 H   0  0  0  0  0  0  0  0  0  0  0  0
   11.7472    3.9970  -59.4488 H   0  0  0  0  0  0  0  0  0  0  0  0
    9.8083    4.5243  -60.9295 H   0  0  0  0  0  0  0  0  0  0  0  0
    9.9673    2.7501  -60.6729 H   0  0  0  0  0  0  0  0  0  0  0  0
    7.5903    3.4820  -60.4650 H   0  0  0  0  0  0  0  0  0  0  0  0
    8.0423    5.8120  -59.6904 H   0  0  0  0  0  0  0  0  0  0  0  0
    6.9500    4.9520  -58.5448 H   0  0  0  0  0  0  0  0  0  0  0  0
    7.1588    2.4829  -58.2238 H   0  0  0  0  0  0  0  0  0  0  0  0
    8.4480    1.5736  -59.1010 H   0  0  0  0  0  0  0  0  0  0  0  0
   10.8370    1.8722  -58.5071 H   0  0  0  0  0  0  0  0  0  0  0  0
   11.3066    3.0267  -57.1968 H   0  0  0  0  0  0  0  0  0  0  0  0
  1  2  1  0
  2  3  1  0
  3  4  1  0
  4  5  1  0
  5  6  2  0
  6  7  1  0
  7  8  1  0
  3  9  2  0
  9 10  1  0
 10 11  1  0
 11 12  1  0
 12 13  2  0
 12 14  1  0
 15 14  1  1
 15 16  1  0
 16 17  1  0
 17 18  1  0
 18 19  1  0
 19 20  1  0
 20 21  1  0
 21 22  1  0
 21 23  1  0
 19 24  1  0
 11  2  2  0
 23 15  1  0
  8  4  2  0
 24 15  1  0
 22 17  1  0
  1 25  1  0
  1 26  1  0
  1 27  1  0
  5 28  1  0
  6 29  1  0
  8 30  1  0
 10 31  1  0
 14 32  1  0
 16 33  1  0
 16 34  1  0
 17 35  1  1
 18 36  1  0
 18 37  1  0
 19 38  1  6
 20 39  1  0
 20 40  1  0
 21 41  1  6
 22 42  1  0
 22 43  1  0
 23 44  1  0
 23 45  1  0
 24 46  1  0
 24 47  1  0
M  END
>  <meeko>  (71) 
{"is_sidechain": false}

$$$$

     RDKit          3D

 67 72  0  0  0  0  0  0  0  0999 V2000
   11.9340   -4.4400  -58.6900 C   0  0  0  0  0  0  0  0  0  0  0  0
   12.0380   -5.4470  -57.5570 C   0  0  0  0  0  0  0  0  0  0  0  0
   10.9210   -5.3380  -56.6770 O   0  0  0  0  0  0  0  0  0  0  0  0
   10.9950   -4.4810  -55.6130 C   0  0  0  0  0  0  0  0  0  0  0  0
   11.9490   -4.5080  -54.6000 C   0  0  0  0  0  0  0  0  0  0  0  0
   11.8910   -3.5750  -53.5630 C   0  0  0  0  0  0  0  0  0  0  0  0
   10.8860   -2.6060  -53.5460 C   0  0  0  0  0  0  0  0  0  0  0  0
    9.9300   -2.5470  -54.5730 C   0  0  0  0  0  0  0  0  0  0  0  0
    8.9180   -1.5330  -54.5130 N   0  0  0  0  0  0  0  0  0  0  0  0
    8.8990   -0.5930  -55.4930 N   0  0  0  0  0  0  0  0  0  0  0  0
    7.9550    0.2920  -55.1520 C   0  0  0  0  0  0  0  0  0  0  0  0
    7.7150    1.4930  -55.9780 C   0  0  0  0  0  0  0  0  0  0  0  0
    6.6250    2.0540  -56.0340 O   0  0  0  0  0  0  0  0  0  0  0  0
    8.8240    1.9010  -56.7020 N   0  0  0  0  0  0  0  0  0  0  0  0
    8.8260    2.9940  -57.6770 C   0  0  2  0  0  0  0  0  0  0  0  0
    7.6310    2.8880  -58.6560 C   0  0  0  0  0  0  0  0  0  0  0  0
    7.6920    4.0130  -59.7050 C   0  0  1  0  0  0  0  0  0  0  0  0
    7.6550    5.3750  -58.9910 C   0  0  0  0  0  0  0  0  0  0  0  0
    8.8590    5.5080  -58.0430 C   0  0  2  0  0  0  0  0  0  0  0  0
   10.1590    5.3810  -58.8510 C   0  0  0  0  0  0  0  0  0  0  0  0
   10.2050    4.0180  -59.5580 C   0  0  2  0  0  0  0  0  0  0  0  0
    8.9990    3.8950  -60.5040 C   0  0  0  0  0  0  0  0  0  0  0  0
   10.1360    2.9010  -58.5050 C   0  0  0  0  0  0  0  0  0  0  0  0
    8.8010    4.3850  -56.9910 C   0  0  0  0  0  0  0  0  0  0  0  0
    7.2800   -0.1190  -53.9690 C   0  0  0  0  0  0  0  0  0  0  0  0
    6.1110    0.5360  -53.3230 C   0  0  0  0  0  0  0  0  0  0  0  0
    7.9020   -1.3020  -53.5820 C   0  0  0  0  0  0  0  0  0  0  0  0
    7.5020   -2.1840  -52.4880 C   0  0  0  0  0  0  0  0  0  0  0  0
    6.7090   -3.3100  -52.7460 C   0  0  0  0  0  0  0  0  0  0  0  0
    6.3410   -4.1650  -51.7050 C   0  0  0  0  0  0  0  0  0  0  0  0
    6.7730   -3.9060  -50.4050 C   0  0  0  0  0  0  0  0  0  0  0  0
    7.5760   -2.7960  -50.1440 C   0  0  0  0  0  0  0  0  0  0  0  0
    7.9430   -1.9400  -51.1820 C   0  0  0  0  0  0  0  0  0  0  0  0
    9.9910   -3.5010  -55.5950 C   0  0  0  0  0  0  0  0  0  0  0  0
   11.8295   -3.4277  -58.2724 H   0  0  0  0  0  0  0  0  0  0  0  0
   12.8420   -4.4893  -59.3089 H   0  0  0  0  0  0  0  0  0  0  0  0
   11.0552   -4.6739  -59.3089 H   0  0  0  0  0  0  0  0  0  0  0  0
   12.0667   -6.4625  -57.9789 H   0  0  0  0  0  0  0  0  0  0  0  0
   12.9564   -5.2423  -56.9872 H   0  0  0  0  0  0  0  0  0  0  0  0
   12.7480   -5.2638  -54.6164 H   0  0  0  0  0  0  0  0  0  0  0  0
   12.6392   -3.6034  -52.7571 H   0  0  0  0  0  0  0  0  0  0  0  0
   10.8426   -1.8813  -52.7196 H   0  0  0  0  0  0  0  0  0  0  0  0
    9.5690    1.2210  -56.7710 H   0  0  0  0  0  0  0  0  0  0  0  0
    7.6668    1.9144  -59.1668 H   0  0  0  0  0  0  0  0  0  0  0  0
    6.6948    2.9832  -58.0863 H   0  0  0  0  0  0  0  0  0  0  0  0
    6.8335    3.9281  -60.3874 H   0  0  0  0  0  0  0  0  0  0  0  0
    7.6913    6.1796  -59.7402 H   0  0  0  0  0  0  0  0  0  0  0  0
    6.7264    5.4496  -58.4061 H   0  0  0  0  0  0  0  0  0  0  0  0
    8.8307    6.4871  -57.5425 H   0  0  0  0  0  0  0  0  0  0  0  0
   10.2010    6.1832  -59.6025 H   0  0  0  0  0  0  0  0  0  0  0  0
   11.0183    5.4642  -58.1693 H   0  0  0  0  0  0  0  0  0  0  0  0
   11.1381    3.9307  -60.1339 H   0  0  0  0  0  0  0  0  0  0  0  0
    9.0411    4.6980  -61.2546 H   0  0  0  0  0  0  0  0  0  0  0  0
    9.0300    2.9157  -61.0041 H   0  0  0  0  0  0  0  0  0  0  0  0
   10.1717    1.9258  -59.0127 H   0  0  0  0  0  0  0  0  0  0  0  0
   10.9904    3.0121  -57.8211 H   0  0  0  0  0  0  0  0  0  0  0  0
    9.6681    4.4730  -56.3199 H   0  0  0  0  0  0  0  0  0  0  0  0
    7.8664    4.4821  -56.4191 H   0  0  0  0  0  0  0  0  0  0  0  0
    6.2158    0.4773  -52.2296 H   0  0  0  0  0  0  0  0  0  0  0  0
    6.0654    1.5911  -53.6309 H   0  0  0  0  0  0  0  0  0  0  0  0
    5.1874    0.0240  -53.6309 H   0  0  0  0  0  0  0  0  0  0  0  0
    6.3750   -3.5213  -53.7725 H   0  0  0  0  0  0  0  0  0  0  0  0
    5.7105   -5.0426  -51.9106 H   0  0  0  0  0  0  0  0  0  0  0  0
    6.4803   -4.5777  -49.5845 H   0  0  0  0  0  0  0  0  0  0  0  0
    7.9201   -2.5955  -49.1186 H   0  0  0  0  0  0  0  0  0  0  0  0
    8.5819   -1.0692  -50.9736 H   0  0  0  0  0  0  0  0  0  0  0  0
    9.2392   -3.4823  -56.3978 H   0  0  0  0  0  0  0  0  0  0  0  0
  1  2  1  0
  2  3  1  0
  3  4  1  0
  4  5  1  0
  5  6  2  0
  6  7  1  0
  7  8  2  0
  8  9  1  0
  9 10  1  0
 10 11  2  0
 11 12  1  0
 12 13  2  0
 12 14  1  0
 15 14  1  1
 15 16  1  0
 16 17  1  0
 17 18  1  0
 18 19  1  0
 19 20  1  0
 20 21  1  0
 21 22  1  0
 21 23  1  0
 19 24  1  0
 11 25  1  0
 25 26  1  0
 25 27  2  0
 27 28  1  0
 28 29  2  0
 29 30  1  0
 30 31  2  0
 31 32  1  0
 32 33  2  0
  8 34  1  0
 34  4  2  0
 27  9  1  0
 33 28  1  0
 23 15  1  0
 24 15  1  0
 22 17  1  0
  1 35  1  0
  1 36  1  0
  1 37  1  0
  2 38  1  0
  2 39  1  0
  5 40  1  0
  6 41  1  0
  7 42  1  0
 14 43  1  0
 16 44  1  0
 16 45  1  0
 17 46  1  6
 18 47  1  0
 18 48  1  0
 19 49  1  1
 20 50  1  0
 20 51  1  0
 21 52  1  6
 22 53  1  0
 22 54  1  0
 23 55  1  0
 23 56  1  0
 24 57  1  0
 24 58  1  0
 26 59  1  0
 26 60  1  0
 26 61  1  0
 29 62  1  0
 30 63  1  0
 31 64  1  0
 32 65  1  0
 33 66  1  0
 34 67  1  0
M  END
>  <meeko>  (72) 
{"is_sidechain": false}

$$$$

     RDKit          3D

 54 57  0  0  0  0  0  0  0  0999 V2000
    5.7130   -4.0860  -50.4930 C   0  0  0  0  0  0  0  0  0  0  0  0
    7.0880   -3.5620  -50.1240 C   0  0  0  0  0  0  0  0  0  0  0  0
    7.4050   -2.4050  -50.9120 O   0  0  0  0  0  0  0  0  0  0  0  0
    8.5370   -2.4930  -51.6670 C   0  0  0  0  0  0  0  0  0  0  0  0
    9.5950   -2.9820  -51.2960 O   0  0  0  0  0  0  0  0  0  0  0  0
    8.2800   -1.9180  -53.0470 C   0  0  0  0  0  0  0  0  0  0  0  0
    9.5460   -1.2640  -53.6100 C   0  0  0  0  0  0  0  0  0  0  0  0
    9.2800   -0.6290  -54.9700 C   0  0  0  0  0  0  0  0  0  0  0  0
    8.1430    0.2930  -54.9290 N   0  0  0  0  0  0  0  0  0  0  0  0
    7.9710    1.2780  -55.9070 C   0  0  0  0  0  0  0  0  0  0  0  0
    6.8670    1.6610  -56.2780 O   0  0  0  0  0  0  0  0  0  0  0  0
    9.1520    1.7850  -56.3910 N   0  0  0  0  0  0  0  0  0  0  0  0
    9.2400    2.8400  -57.4070 C   0  0  2  0  0  0  0  0  0  0  0  0
    8.3220    2.5560  -58.6240 C   0  0  0  0  0  0  0  0  0  0  0  0
    8.4860    3.6500  -59.6940 C   0  0  1  0  0  0  0  0  0  0  0  0
    8.1280    5.0150  -59.0810 C   0  0  0  0  0  0  0  0  0  0  0  0
    9.0600    5.3240  -57.8960 C   0  0  2  0  0  0  0  0  0  0  0  0
   10.5170    5.3380  -58.3870 C   0  0  0  0  0  0  0  0  0  0  0  0
   10.8810    3.9740  -58.9930 C   0  0  2  0  0  0  0  0  0  0  0  0
    9.9450    3.6760  -60.1750 C   0  0  0  0  0  0  0  0  0  0  0  0
   10.7040    2.8840  -57.9240 C   0  0  0  0  0  0  0  0  0  0  0  0
    8.8950    4.2330  -56.8230 C   0  0  0  0  0  0  0  0  0  0  0  0
    6.9160   -0.2550  -54.3600 C   0  0  0  0  0  0  0  0  0  0  0  0
    7.1470   -0.8920  -52.9950 C   0  0  0  0  0  0  0  0  0  0  0  0
    5.1449   -4.3025  -49.5762 H   0  0  0  0  0  0  0  0  0  0  0  0
    5.1787   -3.3285  -51.0852 H   0  0  0  0  0  0  0  0  0  0  0  0
    5.8184   -5.0070  -51.0852 H   0  0  0  0  0  0  0  0  0  0  0  0
    7.0993   -3.2901  -49.0582 H   0  0  0  0  0  0  0  0  0  0  0  0
    7.8351   -4.3453  -50.3195 H   0  0  0  0  0  0  0  0  0  0  0  0
    7.9866   -2.7451  -53.7102 H   0  0  0  0  0  0  0  0  0  0  0  0
    9.8890   -0.4863  -52.9118 H   0  0  0  0  0  0  0  0  0  0  0  0
   10.3146   -2.0413  -53.7327 H   0  0  0  0  0  0  0  0  0  0  0  0
   10.1763   -0.0746  -55.2851 H   0  0  0  0  0  0  0  0  0  0  0  0
    9.0411   -1.4335  -55.6811 H   0  0  0  0  0  0  0  0  0  0  0  0
    9.8500    1.8430  -55.6640 H   0  0  0  0  0  0  0  0  0  0  0  0
    8.5898    1.5819  -59.0591 H   0  0  0  0  0  0  0  0  0  0  0  0
    7.2758    2.5467  -58.2842 H   0  0  0  0  0  0  0  0  0  0  0  0
    7.8210    3.4394  -60.5445 H   0  0  0  0  0  0  0  0  0  0  0  0
    8.2401    5.7978  -59.8457 H   0  0  0  0  0  0  0  0  0  0  0  0
    7.0882    4.9871  -58.7232 H   0  0  0  0  0  0  0  0  0  0  0  0
    8.8043    6.3049  -57.4688 H   0  0  0  0  0  0  0  0  0  0  0  0
   10.6361    6.1197  -59.1517 H   0  0  0  0  0  0  0  0  0  0  0  0
   11.1827    5.5439  -57.5358 H   0  0  0  0  0  0  0  0  0  0  0  0
   11.9243    3.9906  -59.3413 H   0  0  0  0  0  0  0  0  0  0  0  0
   10.0629    4.4580  -60.9396 H   0  0  0  0  0  0  0  0  0  0  0  0
   10.2026    2.6957  -60.6023 H   0  0  0  0  0  0  0  0  0  0  0  0
   10.9602    1.9075  -58.3608 H   0  0  0  0  0  0  0  0  0  0  0  0
   11.3668    3.1146  -57.0769 H   0  0  0  0  0  0  0  0  0  0  0  0
    9.5685    4.4491  -55.9806 H   0  0  0  0  0  0  0  0  0  0  0  0
    7.8496    4.2260  -56.4809 H   0  0  0  0  0  0  0  0  0  0  0  0
    6.1823    0.5574  -54.2519 H   0  0  0  0  0  0  0  0  0  0  0  0
    6.5498   -1.0384  -55.0399 H   0  0  0  0  0  0  0  0  0  0  0  0
    7.4084   -0.1055  -52.2718 H   0  0  0  0  0  0  0  0  0  0  0  0
    6.2242   -1.4078  -52.6911 H   0  0  0  0  0  0  0  0  0  0  0  0
  1  2  1  0
  2  3  1  0
  3  4  1  0
  4  5  2  0
  4  6  1  0
  6  7  1  0
  7  8  1  0
  8  9  1  0
  9 10  1  0
 10 11  2  0
 10 12  1  0
 13 12  1  1
 13 14  1  0
 14 15  1  0
 15 16  1  0
 16 17  1  0
 17 18  1  0
 18 19  1  0
 19 20  1  0
 19 21  1  0
 17 22  1  0
  9 23  1  0
 23 24  1  0
 24  6  1  0
 21 13  1  0
 22 13  1  0
 20 15  1  0
  1 25  1  0
  1 26  1  0
  1 27  1  0
  2 28  1  0
  2 29  1  0
  6 30  1  0
  7 31  1  0
  7 32  1  0
  8 33  1  0
  8 34  1  0
 12 35  1  0
 14 36  1  0
 14 37  1  0
 15 38  1  6
 16 39  1  0
 16 40  1  0
 17 41  1  1
 18 42  1  0
 18 43  1  0
 19 44  1  6
 20 45  1  0
 20 46  1  0
 21 47  1  0
 21 48  1  0
 22 49  1  0
 22 50  1  0
 23 51  1  0
 23 52  1  0
 24 53  1  0
 24 54  1  0
M  END
>  <meeko>  (73) 
{"is_sidechain": false}

$$$$

     RDKit          3D

 69 73  0  0  0  0  0  0  0  0999 V2000
    4.8520   -4.5480  -50.4510 C   0  0  0  0  0  0  0  0  0  0  0  0
    6.1440   -3.8570  -50.0550 C   0  0  0  0  0  0  0  0  0  0  0  0
    7.2160   -4.5010  -50.7400 O   0  0  0  0  0  0  0  0  0  0  0  0
    7.8140   -3.8080  -51.7550 C   0  0  0  0  0  0  0  0  0  0  0  0
    7.4160   -3.8010  -53.0920 C   0  0  0  0  0  0  0  0  0  0  0  0
    8.1240   -3.0430  -54.0330 C   0  0  0  0  0  0  0  0  0  0  0  0
    9.2420   -2.2940  -53.6490 C   0  0  0  0  0  0  0  0  0  0  0  0
    9.9750   -1.4990  -54.6250 C   0  0  0  0  0  0  0  0  0  0  0  0
    9.7200   -0.2180  -55.0710 C   0  0  0  0  0  0  0  0  0  0  0  0
   10.7150    0.0700  -56.0340 C   0  0  0  0  0  0  0  0  0  0  0  0
   10.8670    1.3110  -56.8120 C   0  0  0  0  0  0  0  0  0  0  0  0
   11.9050    1.9610  -56.8210 O   0  0  0  0  0  0  0  0  0  0  0  0
    9.7270    1.6380  -57.5130 N   0  0  0  0  0  0  0  0  0  0  0  0
    9.5520    2.7950  -58.3840 C   0  0  2  0  0  0  0  0  0  0  0  0
    9.5770    4.1200  -57.5840 C   0  0  0  0  0  0  0  0  0  0  0  0
    9.3420    5.3220  -58.5180 C   0  0  1  0  0  0  0  0  0  0  0  0
   10.4410    5.3470  -59.5940 C   0  0  0  0  0  0  0  0  0  0  0  0
   10.4040    4.0490  -60.4200 C   0  0  2  0  0  0  0  0  0  0  0  0
    9.0270    3.9120  -61.0880 C   0  0  0  0  0  0  0  0  0  0  0  0
    7.9260    3.8770  -60.0170 C   0  0  2  0  0  0  0  0  0  0  0  0
    7.9710    5.1770  -59.1970 C   0  0  0  0  0  0  0  0  0  0  0  0
    8.1700    2.6820  -59.0810 C   0  0  0  0  0  0  0  0  0  0  0  0
   10.6390    2.8490  -59.4860 C   0  0  0  0  0  0  0  0  0  0  0  0
   11.5570   -0.9720  -56.1800 N   0  0  0  0  0  0  0  0  0  0  0  0
   11.1220   -1.8840  -55.2820 N   0  0  0  0  0  0  0  0  0  0  0  0
   11.8540   -3.1350  -55.1610 C   0  0  0  0  0  0  0  0  0  0  0  0
   11.7210   -4.1290  -56.3470 C   0  0  0  0  0  0  0  0  0  0  0  0
   10.3110   -4.7350  -56.4270 C   0  0  0  0  0  0  0  0  0  0  0  0
   12.7280   -5.2740  -56.1150 C   0  0  0  0  0  0  0  0  0  0  0  0
   12.0560   -3.4520  -57.6860 C   0  0  0  0  0  0  0  0  0  0  0  0
    9.6270   -2.2890  -52.3060 C   0  0  0  0  0  0  0  0  0  0  0  0
    8.9200   -3.0470  -51.3690 C   0  0  0  0  0  0  0  0  0  0  0  0
    4.3013   -4.8425  -49.5455 H   0  0  0  0  0  0  0  0  0  0  0  0
    4.2356   -3.8591  -51.0473 H   0  0  0  0  0  0  0  0  0  0  0  0
    5.0828   -5.4431  -51.0473 H   0  0  0  0  0  0  0  0  0  0  0  0
    6.1025   -2.7956  -50.3408 H   0  0  0  0  0  0  0  0  0  0  0  0
    6.2931   -3.9200  -48.9670 H   0  0  0  0  0  0  0  0  0  0  0  0
    6.5439   -4.3923  -53.4079 H   0  0  0  0  0  0  0  0  0  0  0  0
    7.7983   -3.0363  -55.0837 H   0  0  0  0  0  0  0  0  0  0  0  0
    8.9063    0.4457  -54.7433 H   0  0  0  0  0  0  0  0  0  0  0  0
    8.9640    0.9760  -57.3840 H   0  0  0  0  0  0  0  0  0  0  0  0
    8.7860    4.0959  -56.8199 H   0  0  0  0  0  0  0  0  0  0  0  0
   10.5628    4.2282  -57.1081 H   0  0  0  0  0  0  0  0  0  0  0  0
    9.3693    6.2553  -57.9365 H   0  0  0  0  0  0  0  0  0  0  0  0
   10.2778    6.2068  -60.2604 H   0  0  0  0  0  0  0  0  0  0  0  0
   11.4220    5.4333  -59.1039 H   0  0  0  0  0  0  0  0  0  0  0  0
   11.1872    4.0769  -61.1919 H   0  0  0  0  0  0  0  0  0  0  0  0
    8.8588    4.7698  -61.7557 H   0  0  0  0  0  0  0  0  0  0  0  0
    8.9976    2.9775  -61.6675 H   0  0  0  0  0  0  0  0  0  0  0  0
    6.9430    3.7782  -60.5006 H   0  0  0  0  0  0  0  0  0  0  0  0
    7.8024    6.0349  -59.8645 H   0  0  0  0  0  0  0  0  0  0  0  0
    7.1873    5.1451  -58.4258 H   0  0  0  0  0  0  0  0  0  0  0  0
    7.3813    2.6584  -58.3145 H   0  0  0  0  0  0  0  0  0  0  0  0
    8.1535    1.7590  -59.6792 H   0  0  0  0  0  0  0  0  0  0  0  0
   10.6036    1.9204  -60.0746 H   0  0  0  0  0  0  0  0  0  0  0  0
   11.6235    2.9591  -59.0079 H   0  0  0  0  0  0  0  0  0  0  0  0
   12.9203   -2.8895  -55.0477 H   0  0  0  0  0  0  0  0  0  0  0  0
   11.4116   -3.6506  -54.2959 H   0  0  0  0  0  0  0  0  0  0  0  0
    9.9250   -4.9009  -55.4104 H   0  0  0  0  0  0  0  0  0  0  0  0
    9.6447   -4.0438  -56.9639 H   0  0  0  0  0  0  0  0  0  0  0  0
   10.3540   -5.6941  -56.9639 H   0  0  0  0  0  0  0  0  0  0  0  0
   12.8644   -5.4291  -55.0346 H   0  0  0  0  0  0  0  0  0  0  0  0
   12.3445   -6.1979  -56.5725 H   0  0  0  0  0  0  0  0  0  0  0  0
   13.6933   -5.0116  -56.5725 H   0  0  0  0  0  0  0  0  0  0  0  0
   12.5365   -2.4809  -57.4958 H   0  0  0  0  0  0  0  0  0  0  0  0
   12.7406   -4.0937  -58.2601 H   0  0  0  0  0  0  0  0  0  0  0  0
   11.1306   -3.2970  -58.2601 H   0  0  0  0  0  0  0  0  0  0  0  0
   10.4895   -1.6864  -51.9852 H   0  0  0  0  0  0  0  0  0  0  0  0
    9.2378   -3.0445  -50.3159 H   0  0  0  0  0  0  0  0  0  0  0  0
  1  2  1  0
  2  3  1  0
  3  4  1  0
  4  5  1  0
  5  6  2  0
  6  7  1  0
  7  8  1  0
  8  9  2  0
  9 10  1  0
 10 11  1  0
 11 12  2  0
 11 13  1  0
 14 13  1  1
 14 15  1  0
 15 16  1  0
 16 17  1  0
 17 18  1  0
 18 19  1  0
 19 20  1  0
 20 21  1  0
 20 22  1  0
 18 23  1  0
 10 24  2  0
 24 25  1  0
 25 26  1  0
 26 27  1  0
 27 28  1  0
 27 29  1  0
 27 30  1  0
  7 31  2  0
 31 32  1  0
 32  4  2  0
 25  8  1  0
 22 14  1  0
 23 14  1  0
 21 16  1  0
  1 33  1  0
  1 34  1  0
  1 35  1  0
  2 36  1  0
  2 37  1  0
  5 38  1  0
  6 39  1  0
  9 40  1  0
 13 41  1  0
 15 42  1  0
 15 43  1  0
 16 44  1  1
 17 45  1  0
 17 46  1  0
 18 47  1  6
 19 48  1  0
 19 49  1  0
 20 50  1  6
 21 51  1  0
 21 52  1  0
 22 53  1  0
 22 54  1  0
 23 55  1  0
 23 56  1  0
 26 57  1  0
 26 58  1  0
 28 59  1  0
 28 60  1  0
 28 61  1  0
 29 62  1  0
 29 63  1  0
 29 64  1  0
 30 65  1  0
 30 66  1  0
 30 67  1  0
 31 68  1  0
 32 69  1  0
M  END
>  <meeko>  (74) 
{"is_sidechain": false}

$$$$

     RDKit          3D

 46 50  0  0  0  0  0  0  0  0999 V2000
    7.4660    1.5440  -56.2830 O   0  0  0  0  0  0  0  0  0  0  0  0
    8.6310    1.2120  -56.0820 C   0  0  0  0  0  0  0  0  0  0  0  0
    9.7000    1.7770  -56.7300 N   0  0  0  0  0  0  0  0  0  0  0  0
    9.6270    2.8380  -57.7370 C   0  0  2  0  0  0  0  0  0  0  0  0
    9.1700    4.1840  -57.1200 C   0  0  0  0  0  0  0  0  0  0  0  0
    9.1510    5.2910  -58.1880 C   0  0  1  0  0  0  0  0  0  0  0  0
   10.5650    5.4660  -58.7650 C   0  0  0  0  0  0  0  0  0  0  0  0
   11.0380    4.1510  -59.4040 C   0  0  2  0  0  0  0  0  0  0  0  0
   10.0690    3.7560  -60.5310 C   0  0  0  0  0  0  0  0  0  0  0  0
    8.6530    3.5710  -59.9640 C   0  0  2  0  0  0  0  0  0  0  0  0
    8.1890    4.8870  -59.3180 C   0  0  0  0  0  0  0  0  0  0  0  0
    8.6720    2.4620  -58.8980 C   0  0  0  0  0  0  0  0  0  0  0  0
   11.0450    3.0460  -58.3360 C   0  0  0  0  0  0  0  0  0  0  0  0
    8.9700    0.1400  -55.0910 C   0  0  0  0  0  0  0  0  0  0  0  0
    8.1200   -0.0380  -54.0610 C   0  0  0  0  0  0  0  0  0  0  0  0
    8.3630   -1.0580  -53.0420 C   0  0  0  0  0  0  0  0  0  0  0  0
    7.4850   -1.2470  -51.9710 C   0  0  0  0  0  0  0  0  0  0  0  0
    7.7490   -2.2320  -51.0170 C   0  0  0  0  0  0  0  0  0  0  0  0
    8.8900   -3.0290  -51.1270 C   0  0  0  0  0  0  0  0  0  0  0  0
    9.7720   -2.8460  -52.1930 C   0  0  0  0  0  0  0  0  0  0  0  0
    9.5030   -1.8620  -53.1440 C   0  0  0  0  0  0  0  0  0  0  0  0
   10.3780   -1.6680  -54.2170 N   0  0  0  0  0  0  0  0  0  0  0  0
   10.1860   -0.7230  -55.1920 C   0  0  0  0  0  0  0  0  0  0  0  0
   10.9960   -0.6040  -56.1110 O   0  0  0  0  0  0  0  0  0  0  0  0
   10.6280    1.4260  -56.4870 H   0  0  0  0  0  0  0  0  0  0  0  0
    8.1586    4.0659  -56.7038 H   0  0  0  0  0  0  0  0  0  0  0  0
    9.8772    4.4687  -56.3270 H   0  0  0  0  0  0  0  0  0  0  0  0
    8.8171    6.2363  -57.7354 H   0  0  0  0  0  0  0  0  0  0  0  0
   10.5516    6.2579  -59.5284 H   0  0  0  0  0  0  0  0  0  0  0  0
   11.2546    5.7419  -57.9536 H   0  0  0  0  0  0  0  0  0  0  0  0
   12.0504    4.2813  -59.8140 H   0  0  0  0  0  0  0  0  0  0  0  0
   10.0554    4.5480  -61.2943 H   0  0  0  0  0  0  0  0  0  0  0  0
   10.4046    2.8102  -60.9815 H   0  0  0  0  0  0  0  0  0  0  0  0
    7.9639    3.2927  -60.7750 H   0  0  0  0  0  0  0  0  0  0  0  0
    8.1706    5.6796  -60.0805 H   0  0  0  0  0  0  0  0  0  0  0  0
    7.1817    4.7461  -58.8991 H   0  0  0  0  0  0  0  0  0  0  0  0
    7.6556    2.3254  -58.5002 H   0  0  0  0  0  0  0  0  0  0  0  0
    9.0274    1.5301  -59.3620 H   0  0  0  0  0  0  0  0  0  0  0  0
   11.3827    2.1050  -58.7949 H   0  0  0  0  0  0  0  0  0  0  0  0
   11.7256    3.3473  -57.5261 H   0  0  0  0  0  0  0  0  0  0  0  0
    7.2250    0.5970  -53.9851 H   0  0  0  0  0  0  0  0  0  0  0  0
    6.5860   -0.6198  -51.8796 H   0  0  0  0  0  0  0  0  0  0  0  0
    7.0557   -2.3805  -50.1760 H   0  0  0  0  0  0  0  0  0  0  0  0
    9.0942   -3.8026  -50.3721 H   0  0  0  0  0  0  0  0  0  0  0  0
   10.6717   -3.4726  -52.2824 H   0  0  0  0  0  0  0  0  0  0  0  0
   11.2080   -2.2400  -54.3080 H   0  0  0  0  0  0  0  0  0  0  0  0
  1  2  2  0
  2  3  1  0
  4  3  1  1
  4  5  1  0
  5  6  1  0
  6  7  1  0
  7  8  1  0
  8  9  1  0
  9 10  1  0
 10 11  1  0
 10 12  1  0
  8 13  1  0
  2 14  1  0
 14 15  2  0
 15 16  1  0
 16 17  2  0
 17 18  1  0
 18 19  2  0
 19 20  1  0
 20 21  2  0
 21 22  1  0
 22 23  1  0
 23 24  2  0
 12  4  1  0
 23 14  1  0
 13  4  1  0
 21 16  1  0
 11  6  1  0
  3 25  1  0
  5 26  1  0
  5 27  1  0
  6 28  1  1
  7 29  1  0
  7 30  1  0
  8 31  1  6
  9 32  1  0
  9 33  1  0
 10 34  1  6
 11 35  1  0
 11 36  1  0
 12 37  1  0
 12 38  1  0
 13 39  1  0
 13 40  1  0
 15 41  1  0
 17 42  1  0
 18 43  1  0
 19 44  1  0
 20 45  1  0
 22 46  1  0
M  END
>  <meeko>  (75) 
{"is_sidechain": false}

$$$$

     RDKit          3D

 46 50  0  0  0  0  0  0  0  0999 V2000
    7.5020    1.5700  -56.2680 O   0  0  0  0  0  0  0  0  0  0  0  0
    8.6730    1.2500  -56.0920 C   0  0  0  0  0  0  0  0  0  0  0  0
    9.7300    1.8250  -56.7600 N   0  0  0  0  0  0  0  0  0  0  0  0
    9.6270    2.8880  -57.7630 C   0  0  2  0  0  0  0  0  0  0  0  0
    8.6640    2.4990  -58.9120 C   0  0  0  0  0  0  0  0  0  0  0  0
    8.6150    3.6100  -59.9750 C   0  0  1  0  0  0  0  0  0  0  0  0
    8.1360    4.9170  -59.3200 C   0  0  0  0  0  0  0  0  0  0  0  0
    9.1060    5.3340  -58.2010 C   0  0  2  0  0  0  0  0  0  0  0  0
   10.5100    5.5340  -58.7930 C   0  0  0  0  0  0  0  0  0  0  0  0
   10.9960    4.2280  -59.4420 C   0  0  2  0  0  0  0  0  0  0  0  0
   10.0210    3.8200  -60.5580 C   0  0  0  0  0  0  0  0  0  0  0  0
   11.0340    3.1200  -58.3770 C   0  0  0  0  0  0  0  0  0  0  0  0
    9.1560    4.2230  -57.1350 C   0  0  0  0  0  0  0  0  0  0  0  0
    8.9890    0.1780  -55.1060 C   0  0  0  0  0  0  0  0  0  0  0  0
    8.1180   -0.0230  -54.0320 C   0  0  0  0  0  0  0  0  0  0  0  0
    8.3820   -1.0220  -53.0830 C   0  0  0  0  0  0  0  0  0  0  0  0
    7.5240   -1.2480  -51.9930 C   0  0  0  0  0  0  0  0  0  0  0  0
    7.8120   -2.2470  -51.0660 C   0  0  0  0  0  0  0  0  0  0  0  0
    8.9560   -3.0210  -51.2230 C   0  0  0  0  0  0  0  0  0  0  0  0
    9.8080   -2.7940  -52.3090 C   0  0  0  0  0  0  0  0  0  0  0  0
    9.5440   -1.8050  -53.2480 C   0  0  0  0  0  0  0  0  0  0  0  0
   10.3940   -1.6240  -54.2740 N   0  0  0  0  0  0  0  0  0  0  0  0
   10.0960   -0.6520  -55.1610 C   0  0  0  0  0  0  0  0  0  0  0  0
   11.0310   -0.5750  -56.1440 O   0  0  0  0  0  0  0  0  0  0  0  0
   10.6600    1.4800  -56.5340 H   0  0  0  0  0  0  0  0  0  0  0  0
    9.0155    1.5670  -59.3787 H   0  0  0  0  0  0  0  0  0  0  0  0
    7.6547    2.3591  -58.4976 H   0  0  0  0  0  0  0  0  0  0  0  0
    7.9219    3.3220  -60.7791 H   0  0  0  0  0  0  0  0  0  0  0  0
    8.0945    5.7110  -60.0802 H   0  0  0  0  0  0  0  0  0  0  0  0
    7.1363    4.7586  -58.8894 H   0  0  0  0  0  0  0  0  0  0  0  0
    8.7622    6.2731  -57.7428 H   0  0  0  0  0  0  0  0  0  0  0  0
   10.4753    6.3281  -59.5534 H   0  0  0  0  0  0  0  0  0  0  0  0
   11.2045    5.8187  -57.9889 H   0  0  0  0  0  0  0  0  0  0  0  0
   12.0009    4.3763  -59.8641 H   0  0  0  0  0  0  0  0  0  0  0  0
    9.9853    4.6136  -61.3189 H   0  0  0  0  0  0  0  0  0  0  0  0
   10.3669    2.8811  -61.0149 H   0  0  0  0  0  0  0  0  0  0  0  0
   11.3816    2.1859  -58.8424 H   0  0  0  0  0  0  0  0  0  0  0  0
   11.7193    3.4297  -57.5742 H   0  0  0  0  0  0  0  0  0  0  0  0
    9.8572    4.5160  -56.3397 H   0  0  0  0  0  0  0  0  0  0  0  0
    8.1471    4.0837  -56.7194 H   0  0  0  0  0  0  0  0  0  0  0  0
    7.2208    0.6052  -53.9301 H   0  0  0  0  0  0  0  0  0  0  0  0
    6.6203   -0.6327  -51.8713 H   0  0  0  0  0  0  0  0  0  0  0  0
    7.1380   -2.4225  -50.2146 H   0  0  0  0  0  0  0  0  0  0  0  0
    9.1909   -3.8108  -50.4943 H   0  0  0  0  0  0  0  0  0  0  0  0
   10.7095   -3.4141  -52.4222 H   0  0  0  0  0  0  0  0  0  0  0  0
   11.2010   -1.5280  -56.2760 H   0  0  0  0  0  0  0  0  0  0  0  0
  1  2  2  0
  2  3  1  0
  4  3  1  1
  4  5  1  0
  5  6  1  0
  6  7  1  0
  7  8  1  0
  8  9  1  0
  9 10  1  0
 10 11  1  0
 10 12  1  0
  8 13  1  0
  2 14  1  0
 14 15  2  0
 15 16  1  0
 16 17  2  0
 17 18  1  0
 18 19  2  0
 19 20  1  0
 20 21  2  0
 21 22  1  0
 22 23  2  0
 23 24  1  0
 12  4  1  0
 23 14  1  0
 13  4  1  0
 21 16  1  0
 11  6  1  0
  3 25  1  0
  5 26  1  0
  5 27  1  0
  6 28  1  6
  7 29  1  0
  7 30  1  0
  8 31  1  1
  9 32  1  0
  9 33  1  0
 10 34  1  6
 11 35  1  0
 11 36  1  0
 12 37  1  0
 12 38  1  0
 13 39  1  0
 13 40  1  0
 15 41  1  0
 17 42  1  0
 18 43  1  0
 19 44  1  0
 20 45  1  0
 24 46  1  0
M  END
>  <meeko>  (76) 
{"is_sidechain": false}

$$$$

     RDKit          3D

 41 44  0  0  0  0  0  0  0  0999 V2000
    7.5380   -3.2410  -51.4050 N   0  0  0  0  0  0  0  0  0  0  0  0
    7.5200   -2.4310  -52.2350 C   0  0  0  0  0  0  0  0  0  0  0  0
    7.4920   -1.4330  -53.2640 C   0  0  0  0  0  0  0  0  0  0  0  0
    6.3070   -1.1830  -53.9670 C   0  0  0  0  0  0  0  0  0  0  0  0
    6.2760   -0.2090  -54.9720 C   0  0  0  0  0  0  0  0  0  0  0  0
    7.4350    0.5140  -55.2840 C   0  0  0  0  0  0  0  0  0  0  0  0
    7.4490    1.5650  -56.3400 C   0  0  0  0  0  0  0  0  0  0  0  0
    6.3970    2.0910  -56.6750 O   0  0  0  0  0  0  0  0  0  0  0  0
    8.6900    1.8940  -56.8460 N   0  0  0  0  0  0  0  0  0  0  0  0
    8.9260    2.9580  -57.8310 C   0  0  2  0  0  0  0  0  0  0  0  0
    7.9950    2.8250  -59.0630 C   0  0  0  0  0  0  0  0  0  0  0  0
    8.3050    3.9230  -60.0970 C   0  0  1  0  0  0  0  0  0  0  0  0
    8.1060    5.3010  -59.4440 C   0  0  0  0  0  0  0  0  0  0  0  0
    9.0530    5.4590  -58.2420 C   0  0  2  0  0  0  0  0  0  0  0  0
   10.5070    5.3120  -58.7200 C   0  0  0  0  0  0  0  0  0  0  0  0
   10.7110    3.9330  -59.3650 C   0  0  2  0  0  0  0  0  0  0  0  0
    9.7610    3.7860  -60.5640 C   0  0  0  0  0  0  0  0  0  0  0  0
   10.3920    2.8410  -58.3320 C   0  0  0  0  0  0  0  0  0  0  0  0
    8.7450    4.3630  -57.2060 C   0  0  0  0  0  0  0  0  0  0  0  0
    8.6150    0.2730  -54.5680 C   0  0  0  0  0  0  0  0  0  0  0  0
    8.6450   -0.7000  -53.5650 C   0  0  0  0  0  0  0  0  0  0  0  0
    5.3974   -1.7539  -53.7287 H   0  0  0  0  0  0  0  0  0  0  0  0
    5.3413   -0.0111  -55.5171 H   0  0  0  0  0  0  0  0  0  0  0  0
    9.4970    1.5790  -56.3260 H   0  0  0  0  0  0  0  0  0  0  0  0
    8.1468    1.8389  -59.5262 H   0  0  0  0  0  0  0  0  0  0  0  0
    6.9514    2.9333  -58.7325 H   0  0  0  0  0  0  0  0  0  0  0  0
    7.6314    3.8208  -60.9606 H   0  0  0  0  0  0  0  0  0  0  0  0
    8.3209    6.0877  -60.1822 H   0  0  0  0  0  0  0  0  0  0  0  0
    7.0660    5.3875  -59.0963 H   0  0  0  0  0  0  0  0  0  0  0  0
    8.9116    6.4499  -57.7857 H   0  0  0  0  0  0  0  0  0  0  0  0
   10.7286    6.0962  -59.4589 H   0  0  0  0  0  0  0  0  0  0  0  0
   11.1824    5.4107  -57.8574 H   0  0  0  0  0  0  0  0  0  0  0  0
   11.7527    3.8336  -59.7040 H   0  0  0  0  0  0  0  0  0  0  0  0
    9.9823    4.5702  -61.3030 H   0  0  0  0  0  0  0  0  0  0  0  0
    9.9035    2.7949  -61.0195 H   0  0  0  0  0  0  0  0  0  0  0  0
   10.5356    1.8541  -58.7961 H   0  0  0  0  0  0  0  0  0  0  0  0
   11.0666    2.9650  -57.4721 H   0  0  0  0  0  0  0  0  0  0  0  0
    9.4298    4.4699  -56.3518 H   0  0  0  0  0  0  0  0  0  0  0  0
    7.7023    4.4720  -56.8729 H   0  0  0  0  0  0  0  0  0  0  0  0
    9.5219    0.8522  -54.7963 H   0  0  0  0  0  0  0  0  0  0  0  0
    9.5765   -0.8897  -53.0115 H   0  0  0  0  0  0  0  0  0  0  0  0
  1  2  3  0
  2  3  1  0
  3  4  1  0
  4  5  2  0
  5  6  1  0
  6  7  1  0
  7  8  2  0
  7  9  1  0
 10  9  1  1
 10 11  1  0
 11 12  1  0
 12 13  1  0
 13 14  1  0
 14 15  1  0
 15 16  1  0
 16 17  1  0
 16 18  1  0
 14 19  1  0
  6 20  2  0
 20 21  1  0
 21  3  2  0
 18 10  1  0
 19 10  1  0
 17 12  1  0
  4 22  1  0
  5 23  1  0
  9 24  1  0
 11 25  1  0
 11 26  1  0
 12 27  1  6
 13 28  1  0
 13 29  1  0
 14 30  1  1
 15 31  1  0
 15 32  1  0
 16 33  1  6
 17 34  1  0
 17 35  1  0
 18 36  1  0
 18 37  1  0
 19 38  1  0
 19 39  1  0
 20 40  1  0
 21 41  1  0
M  END
>  <meeko>  (77) 
{"is_sidechain": false}

$$$$

     RDKit          3D

 59 64  0  0  0  0  0  0  0  0999 V2000
    5.5360   -0.6960  -53.7400 O   0  0  0  0  0  0  0  0  0  0  0  0
    6.7130   -0.6390  -54.0710 C   0  0  0  0  0  0  0  0  0  0  0  0
    7.1290    0.3180  -55.1260 C   0  0  0  0  0  0  0  0  0  0  0  0
    8.3740    0.8110  -55.2310 C   0  0  0  0  0  0  0  0  0  0  0  0
    8.7950    1.7360  -56.2940 C   0  0  0  0  0  0  0  0  0  0  0  0
    7.8870    2.0430  -57.3140 C   0  0  0  0  0  0  0  0  0  0  0  0
    8.2100    2.9350  -58.3450 C   0  0  0  0  0  0  0  0  0  0  0  0
    9.4790    3.5210  -58.3140 C   0  0  0  0  0  0  0  0  0  0  0  0
   10.0650    4.4240  -59.1720 N   0  0  0  0  0  0  0  0  0  0  0  0
   11.3420    4.7420  -58.7630 C   0  0  0  0  0  0  0  0  0  0  0  0
   12.2010    5.6790  -59.4930 C   0  0  0  0  0  0  0  0  0  0  0  0
   11.6910    6.9330  -59.8720 C   0  0  0  0  0  0  0  0  0  0  0  0
   12.4810    7.8490  -60.5720 C   0  0  0  0  0  0  0  0  0  0  0  0
   13.7930    7.5250  -60.9060 C   0  0  0  0  0  0  0  0  0  0  0  0
   14.3180    6.2850  -60.5430 C   0  0  0  0  0  0  0  0  0  0  0  0
   13.5260    5.3700  -59.8440 C   0  0  0  0  0  0  0  0  0  0  0  0
   14.0660    4.1630  -59.4850 O   0  0  0  0  0  0  0  0  0  0  0  0
   11.5610    4.0320  -57.5940 C   0  0  0  0  0  0  0  0  0  0  0  0
   10.4050    3.2560  -57.3100 C   0  0  0  0  0  0  0  0  0  0  0  0
   10.0560    2.3570  -56.2820 C   0  0  0  0  0  0  0  0  0  0  0  0
    7.7390   -1.3480  -53.4990 N   0  0  0  0  0  0  0  0  0  0  0  0
    7.5840   -2.2750  -52.3740 C   0  0  2  0  0  0  0  0  0  0  0  0
    7.3440   -1.5210  -51.0430 C   0  0  0  0  0  0  0  0  0  0  0  0
    7.2400   -2.5130  -49.8700 C   0  0  1  0  0  0  0  0  0  0  0  0
    6.0760   -3.4840  -50.1310 C   0  0  0  0  0  0  0  0  0  0  0  0
    6.3210   -4.2680  -51.4330 C   0  0  2  0  0  0  0  0  0  0  0  0
    7.6360   -5.0530  -51.3120 C   0  0  0  0  0  0  0  0  0  0  0  0
    8.8030   -4.0860  -51.0610 C   0  0  2  0  0  0  0  0  0  0  0  0
    8.5500   -3.3090  -49.7600 C   0  0  0  0  0  0  0  0  0  0  0  0
    8.8960   -3.0940  -52.2310 C   0  0  0  0  0  0  0  0  0  0  0  0
    6.4250   -3.2780  -52.6060 C   0  0  0  0  0  0  0  0  0  0  0  0
    6.3775    0.6410  -55.8615 H   0  0  0  0  0  0  0  0  0  0  0  0
    9.1191    0.5064  -54.4813 H   0  0  0  0  0  0  0  0  0  0  0  0
    6.8933    1.5713  -57.3059 H   0  0  0  0  0  0  0  0  0  0  0  0
    7.4934    3.1652  -59.1472 H   0  0  0  0  0  0  0  0  0  0  0  0
    9.6100    4.8180  -59.9810 H   0  0  0  0  0  0  0  0  0  0  0  0
   10.6549    7.1971  -59.6138 H   0  0  0  0  0  0  0  0  0  0  0  0
   12.0659    8.8264  -60.8591 H   0  0  0  0  0  0  0  0  0  0  0  0
   14.4152    8.2465  -61.4558 H   0  0  0  0  0  0  0  0  0  0  0  0
   15.3544    6.0274  -60.8066 H   0  0  0  0  0  0  0  0  0  0  0  0
   13.3910    3.6360  -59.0280 H   0  0  0  0  0  0  0  0  0  0  0  0
   12.4775    4.0636  -56.9865 H   0  0  0  0  0  0  0  0  0  0  0  0
   10.7688    2.1419  -55.4723 H   0  0  0  0  0  0  0  0  0  0  0  0
    8.6800   -1.0550  -53.7250 H   0  0  0  0  0  0  0  0  0  0  0  0
    8.1824   -0.8326  -50.8611 H   0  0  0  0  0  0  0  0  0  0  0  0
    6.4008   -0.9600  -51.1180 H   0  0  0  0  0  0  0  0  0  0  0  0
    7.0624   -1.9633  -48.9339 H   0  0  0  0  0  0  0  0  0  0  0  0
    5.9961   -4.1899  -49.2911 H   0  0  0  0  0  0  0  0  0  0  0  0
    5.1432   -2.9091  -50.2277 H   0  0  0  0  0  0  0  0  0  0  0  0
    5.4894   -4.9662  -51.6093 H   0  0  0  0  0  0  0  0  0  0  0  0
    7.5621   -5.7606  -50.4730 H   0  0  0  0  0  0  0  0  0  0  0  0
    7.8165   -5.6021  -52.2479 H   0  0  0  0  0  0  0  0  0  0  0  0
    9.7418   -4.6531  -50.9763 H   0  0  0  0  0  0  0  0  0  0  0  0
    8.4769   -4.0169  -48.9212 H   0  0  0  0  0  0  0  0  0  0  0  0
    9.3831   -2.6116  -49.5878 H   0  0  0  0  0  0  0  0  0  0  0  0
    9.7330   -2.4034  -52.0510 H   0  0  0  0  0  0  0  0  0  0  0  0
    9.0568   -3.6619  -53.1592 H   0  0  0  0  0  0  0  0  0  0  0  0
    6.6113   -3.8368  -53.5350 H   0  0  0  0  0  0  0  0  0  0  0  0
    5.4814   -2.7176  -52.6811 H   0  0  0  0  0  0  0  0  0  0  0  0
  1  2  2  0
  2  3  1  0
  3  4  2  0
  4  5  1  0
  5  6  2  0
  6  7  1  0
  7  8  2  0
  8  9  1  0
  9 10  1  0
 10 11  1  0
 11 12  2  0
 12 13  1  0
 13 14  2  0
 14 15  1  0
 15 16  2  0
 16 17  1  0
 10 18  2  0
 18 19  1  0
 19 20  2  0
  2 21  1  0
 22 21  1  6
 22 23  1  0
 23 24  1  0
 24 25  1  0
 25 26  1  0
 26 27  1  0
 27 28  1  0
 28 29  1  0
 28 30  1  0
 26 31  1  0
 20  5  1  0
 30 22  1  0
 19  8  1  0
 31 22  1  0
 16 11  1  0
 29 24  1  0
  3 32  1  0
  4 33  1  0
  6 34  1  0
  7 35  1  0
  9 36  1  0
 12 37  1  0
 13 38  1  0
 14 39  1  0
 15 40  1  0
 17 41  1  0
 18 42  1  0
 20 43  1  0
 21 44  1  0
 23 45  1  0
 23 46  1  0
 24 47  1  1
 25 48  1  0
 25 49  1  0
 26 50  1  6
 27 51  1  0
 27 52  1  0
 28 53  1  1
 29 54  1  0
 29 55  1  0
 30 56  1  0
 30 57  1  0
 31 58  1  0
 31 59  1  0
M  END
>  <meeko>  (78) 
{"is_sidechain": false}

$$$$

     RDKit          3D

 59 64  0  0  0  0  0  0  0  0999 V2000
   11.4030   -2.2270  -53.6490 O   0  0  0  0  0  0  0  0  0  0  0  0
   10.3300   -2.7910  -53.7840 C   0  0  0  0  0  0  0  0  0  0  0  0
    9.2040   -2.6060  -52.8360 C   0  0  0  0  0  0  0  0  0  0  0  0
    8.2140   -1.7120  -52.9830 C   0  0  0  0  0  0  0  0  0  0  0  0
    8.0570   -0.6980  -54.0360 C   0  0  0  0  0  0  0  0  0  0  0  0
    6.8010   -0.3380  -54.5370 C   0  0  0  0  0  0  0  0  0  0  0  0
    6.6640    0.5940  -55.5750 C   0  0  0  0  0  0  0  0  0  0  0  0
    7.8340    1.1430  -56.1080 C   0  0  0  0  0  0  0  0  0  0  0  0
    8.0070    2.0630  -57.1140 N   0  0  0  0  0  0  0  0  0  0  0  0
    9.3440    2.3280  -57.3220 C   0  0  0  0  0  0  0  0  0  0  0  0
    9.8190    3.2780  -58.3330 C   0  0  0  0  0  0  0  0  0  0  0  0
   10.6340    4.3530  -57.9400 C   0  0  0  0  0  0  0  0  0  0  0  0
   11.1080    5.2760  -58.8770 C   0  0  0  0  0  0  0  0  0  0  0  0
   10.7750    5.1370  -60.2220 C   0  0  0  0  0  0  0  0  0  0  0  0
    9.9720    4.0750  -60.6340 C   0  0  0  0  0  0  0  0  0  0  0  0
    9.5000    3.1520  -59.6950 C   0  0  0  0  0  0  0  0  0  0  0  0
    8.7000    2.1230  -60.1180 O   0  0  0  0  0  0  0  0  0  0  0  0
   10.0370    1.5350  -56.4250 C   0  0  0  0  0  0  0  0  0  0  0  0
    9.1020    0.7960  -55.6520 C   0  0  0  0  0  0  0  0  0  0  0  0
    9.2150   -0.1420  -54.6060 C   0  0  0  0  0  0  0  0  0  0  0  0
    9.9970   -3.6570  -54.7990 N   0  0  0  0  0  0  0  0  0  0  0  0
   10.9280   -4.1080  -55.8380 C   0  0  2  0  0  0  0  0  0  0  0  0
   10.1870   -5.1180  -56.7560 C   0  0  0  0  0  0  0  0  0  0  0  0
   11.1130   -5.6370  -57.8670 C   0  0  1  0  0  0  0  0  0  0  0  0
   11.5940   -4.4510  -58.7170 C   0  0  0  0  0  0  0  0  0  0  0  0
   12.3540   -3.4480  -57.8340 C   0  0  2  0  0  0  0  0  0  0  0  0
   13.5620   -4.1500  -57.1900 C   0  0  0  0  0  0  0  0  0  0  0  0
   13.0900   -5.3400  -56.3370 C   0  0  2  0  0  0  0  0  0  0  0  0
   12.3260   -6.3310  -57.2290 C   0  0  0  0  0  0  0  0  0  0  0  0
   12.1540   -4.8280  -55.2280 C   0  0  0  0  0  0  0  0  0  0  0  0
   11.4170   -2.9350  -56.7260 C   0  0  0  0  0  0  0  0  0  0  0  0
    9.1786   -3.2505  -51.9450 H   0  0  0  0  0  0  0  0  0  0  0  0
    7.4214   -1.7415  -52.2209 H   0  0  0  0  0  0  0  0  0  0  0  0
    5.8994   -0.7975  -54.1058 H   0  0  0  0  0  0  0  0  0  0  0  0
    5.6732    0.8825  -55.9558 H   0  0  0  0  0  0  0  0  0  0  0  0
    7.2540    2.4770  -57.6440 H   0  0  0  0  0  0  0  0  0  0  0  0
   10.9030    4.4700  -56.8798 H   0  0  0  0  0  0  0  0  0  0  0  0
   11.7442    6.1123  -58.5517 H   0  0  0  0  0  0  0  0  0  0  0  0
   11.1455    5.8649  -60.9588 H   0  0  0  0  0  0  0  0  0  0  0  0
    9.7097    3.9628  -61.6964 H   0  0  0  0  0  0  0  0  0  0  0  0
    8.2190    2.4010  -60.9120 H   0  0  0  0  0  0  0  0  0  0  0  0
   11.1314    1.4850  -56.3266 H   0  0  0  0  0  0  0  0  0  0  0  0
   10.2078   -0.4383  -54.2365 H   0  0  0  0  0  0  0  0  0  0  0  0
    9.1080   -4.1340  -54.7340 H   0  0  0  0  0  0  0  0  0  0  0  0
    9.8415   -5.9683  -56.1497 H   0  0  0  0  0  0  0  0  0  0  0  0
    9.3336   -4.6049  -57.2233 H   0  0  0  0  0  0  0  0  0  0  0  0
   10.5698   -6.3518  -58.5026 H   0  0  0  0  0  0  0  0  0  0  0  0
   12.2621   -4.8180  -59.5101 H   0  0  0  0  0  0  0  0  0  0  0  0
   10.7233   -3.9507  -59.1660 H   0  0  0  0  0  0  0  0  0  0  0  0
   12.7002   -2.6037  -58.4482 H   0  0  0  0  0  0  0  0  0  0  0  0
   14.2353   -4.5134  -57.9803 H   0  0  0  0  0  0  0  0  0  0  0  0
   14.0928   -3.4337  -56.5457 H   0  0  0  0  0  0  0  0  0  0  0  0
   13.9588   -5.8420  -55.8863 H   0  0  0  0  0  0  0  0  0  0  0  0
   12.9946   -6.6975  -58.0219 H   0  0  0  0  0  0  0  0  0  0  0  0
   11.9775   -7.1746  -56.6151 H   0  0  0  0  0  0  0  0  0  0  0  0
   11.8090   -5.6804  -54.6243 H   0  0  0  0  0  0  0  0  0  0  0  0
   12.7070   -4.1147  -54.5992 H   0  0  0  0  0  0  0  0  0  0  0  0
   11.9592   -2.2102  -56.1010 H   0  0  0  0  0  0  0  0  0  0  0  0
   10.5439   -2.4564  -57.1936 H   0  0  0  0  0  0  0  0  0  0  0  0
  1  2  2  0
  2  3  1  0
  3  4  2  0
  4  5  1  0
  5  6  2  0
  6  7  1  0
  7  8  2  0
  8  9  1  0
  9 10  1  0
 10 11  1  0
 11 12  2  0
 12 13  1  0
 13 14  2  0
 14 15  1  0
 15 16  2  0
 16 17  1  0
 10 18  2  0
 18 19  1  0
 19 20  2  0
  2 21  1  0
 22 21  1  1
 22 23  1  0
 23 24  1  0
 24 25  1  0
 25 26  1  0
 26 27  1  0
 27 28  1  0
 28 29  1  0
 28 30  1  0
 26 31  1  0
 20  5  1  0
 30 22  1  0
 19  8  1  0
 31 22  1  0
 16 11  1  0
 29 24  1  0
  3 32  1  0
  4 33  1  0
  6 34  1  0
  7 35  1  0
  9 36  1  0
 12 37  1  0
 13 38  1  0
 14 39  1  0
 15 40  1  0
 17 41  1  0
 18 42  1  0
 20 43  1  0
 21 44  1  0
 23 45  1  0
 23 46  1  0
 24 47  1  6
 25 48  1  0
 25 49  1  0
 26 50  1  6
 27 51  1  0
 27 52  1  0
 28 53  1  1
 29 54  1  0
 29 55  1  0
 30 56  1  0
 30 57  1  0
 31 58  1  0
 31 59  1  0
M  END
>  <meeko>  (79) 
{"is_sidechain": false}

$$$$

     RDKit          3D

 56 61  0  0  0  0  0  0  0  0999 V2000
    9.2560   -0.3320  -53.9360 O   0  0  0  0  0  0  0  0  0  0  0  0
    8.0780   -0.3250  -54.2680 C   0  0  0  0  0  0  0  0  0  0  0  0
    7.1030   -1.1380  -53.7230 N   0  0  0  0  0  0  0  0  0  0  0  0
    7.3350   -2.0880  -52.6290 C   0  0  2  0  0  0  0  0  0  0  0  0
    6.0670   -2.9730  -52.4760 C   0  0  0  0  0  0  0  0  0  0  0  0
    6.2370   -3.9900  -51.3370 C   0  0  1  0  0  0  0  0  0  0  0  0
    7.4410   -4.8940  -51.6460 C   0  0  0  0  0  0  0  0  0  0  0  0
    8.7140   -4.0450  -51.7790 C   0  0  2  0  0  0  0  0  0  0  0  0
    8.9580   -3.2880  -50.4620 C   0  0  0  0  0  0  0  0  0  0  0  0
    7.7580   -2.3780  -50.1440 C   0  0  2  0  0  0  0  0  0  0  0  0
    6.4900   -3.2380  -50.0210 C   0  0  0  0  0  0  0  0  0  0  0  0
    7.5760   -1.3610  -51.2840 C   0  0  0  0  0  0  0  0  0  0  0  0
    8.5320   -3.0290  -52.9210 C   0  0  0  0  0  0  0  0  0  0  0  0
    7.6060    0.6410  -55.3000 C   0  0  0  0  0  0  0  0  0  0  0  0
    6.2460    0.8140  -55.5710 C   0  0  0  0  0  0  0  0  0  0  0  0
    5.8210    1.7340  -56.5340 C   0  0  0  0  0  0  0  0  0  0  0  0
    6.8030    2.4600  -57.2220 C   0  0  0  0  0  0  0  0  0  0  0  0
    6.6610    3.4200  -58.1950 N   0  0  0  0  0  0  0  0  0  0  0  0
    7.8850    3.8770  -58.5950 C   0  0  0  0  0  0  0  0  0  0  0  0
    8.8540    3.1920  -57.8960 C   0  0  0  0  0  0  0  0  0  0  0  0
   10.1890    3.3860  -58.0600 N   0  0  0  0  0  0  0  0  0  0  0  0
   10.9180    3.1040  -59.2920 C   0  0  0  0  0  0  0  0  0  0  0  0
   12.2120    3.9050  -59.1590 C   0  0  0  0  0  0  0  0  0  0  0  0
   12.4340    3.9540  -57.6580 C   0  0  0  0  0  0  0  0  0  0  0  0
   11.0190    4.1310  -57.1200 C   0  0  0  0  0  0  0  0  0  0  0  0
    8.1750    2.2970  -57.0020 C   0  0  0  0  0  0  0  0  0  0  0  0
    8.5730    1.3660  -56.0150 C   0  0  0  0  0  0  0  0  0  0  0  0
    6.1440   -0.8660  -53.8890 H   0  0  0  0  0  0  0  0  0  0  0  0
    5.2032   -2.3283  -52.2562 H   0  0  0  0  0  0  0  0  0  0  0  0
    5.9093   -3.5233  -53.4153 H   0  0  0  0  0  0  0  0  0  0  0  0
    5.3275   -4.6017  -51.2436 H   0  0  0  0  0  0  0  0  0  0  0  0
    7.5707   -5.6198  -50.8297 H   0  0  0  0  0  0  0  0  0  0  0  0
    7.2605   -5.4254  -52.5921 H   0  0  0  0  0  0  0  0  0  0  0  0
    9.5723   -4.6974  -51.9975 H   0  0  0  0  0  0  0  0  0  0  0  0
    9.0914   -4.0127  -49.6453 H   0  0  0  0  0  0  0  0  0  0  0  0
    9.8615   -2.6691  -50.5649 H   0  0  0  0  0  0  0  0  0  0  0  0
    7.9363   -1.8444  -49.1987 H   0  0  0  0  0  0  0  0  0  0  0  0
    6.6199   -3.9644  -49.2052 H   0  0  0  0  0  0  0  0  0  0  0  0
    5.6304   -2.5862  -49.8059 H   0  0  0  0  0  0  0  0  0  0  0  0
    6.7118   -0.7182  -51.0605 H   0  0  0  0  0  0  0  0  0  0  0  0
    8.4898   -0.7544  -51.3674 H   0  0  0  0  0  0  0  0  0  0  0  0
    9.4482   -2.4284  -53.0199 H   0  0  0  0  0  0  0  0  0  0  0  0
    8.3332   -3.5764  -53.8542 H   0  0  0  0  0  0  0  0  0  0  0  0
    5.5018    0.2198  -55.0206 H   0  0  0  0  0  0  0  0  0  0  0  0
    4.7517    1.8832  -56.7448 H   0  0  0  0  0  0  0  0  0  0  0  0
    5.7750    3.7440  -58.5580 H   0  0  0  0  0  0  0  0  0  0  0  0
    8.0657    4.6589  -59.3473 H   0  0  0  0  0  0  0  0  0  0  0  0
   11.1330    2.0288  -59.3798 H   0  0  0  0  0  0  0  0  0  0  0  0
   10.3454    3.3781  -60.1903 H   0  0  0  0  0  0  0  0  0  0  0  0
   13.0454    3.3957  -59.6650 H   0  0  0  0  0  0  0  0  0  0  0  0
   12.1527    4.9020  -59.6200 H   0  0  0  0  0  0  0  0  0  0  0  0
   12.8842    3.0194  -57.2922 H   0  0  0  0  0  0  0  0  0  0  0  0
   13.1252    4.7496  -57.3430 H   0  0  0  0  0  0  0  0  0  0  0  0
   10.9313    3.7146  -56.1056 H   0  0  0  0  0  0  0  0  0  0  0  0
   10.7250    5.1880  -57.0408 H   0  0  0  0  0  0  0  0  0  0  0  0
    9.6417    1.2094  -55.8069 H   0  0  0  0  0  0  0  0  0  0  0  0
  1  2  2  0
  2  3  1  0
  4  3  1  6
  4  5  1  0
  5  6  1  0
  6  7  1  0
  7  8  1  0
  8  9  1  0
  9 10  1  0
 10 11  1  0
 10 12  1  0
  8 13  1  0
  2 14  1  0
 14 15  2  0
 15 16  1  0
 16 17  2  0
 17 18  1  0
 18 19  1  0
 19 20  2  0
 20 21  1  0
 21 22  1  0
 22 23  1  0
 23 24  1  0
 24 25  1  0
 20 26  1  0
 26 27  2  0
 12  4  1  0
 27 14  1  0
 13  4  1  0
 26 17  1  0
 11  6  1  0
 25 21  1  0
  3 28  1  0
  5 29  1  0
  5 30  1  0
  6 31  1  1
  7 32  1  0
  7 33  1  0
  8 34  1  6
  9 35  1  0
  9 36  1  0
 10 37  1  1
 11 38  1  0
 11 39  1  0
 12 40  1  0
 12 41  1  0
 13 42  1  0
 13 43  1  0
 15 44  1  0
 16 45  1  0
 18 46  1  0
 19 47  1  0
 22 48  1  0
 22 49  1  0
 23 50  1  0
 23 51  1  0
 24 52  1  0
 24 53  1  0
 25 54  1  0
 25 55  1  0
 27 56  1  0
M  END
>  <meeko>  (80) 
{"is_sidechain": false}

$$$$

     RDKit          3D

 56 61  0  0  0  0  0  0  0  0999 V2000
    9.2030    5.5340  -59.1210 C   0  0  0  0  0  0  0  0  0  0  0  0
   10.6620    5.1660  -59.1540 C   0  0  0  0  0  0  0  0  0  0  0  0
   11.5400    5.9880  -59.8850 C   0  0  0  0  0  0  0  0  0  0  0  0
   12.9010    5.6960  -59.9630 C   0  0  0  0  0  0  0  0  0  0  0  0
   13.4080    4.5820  -59.3070 C   0  0  0  0  0  0  0  0  0  0  0  0
   12.5530    3.7620  -58.5670 C   0  0  0  0  0  0  0  0  0  0  0  0
   11.1780    4.0430  -58.4690 C   0  0  0  0  0  0  0  0  0  0  0  0
   10.3480    3.1460  -57.6700 C   0  0  0  0  0  0  0  0  0  0  0  0
   10.6010    2.3090  -56.5990 C   0  0  0  0  0  0  0  0  0  0  0  0
    9.3640    1.7170  -56.2340 C   0  0  0  0  0  0  0  0  0  0  0  0
    8.9390    0.7920  -55.2630 C   0  0  0  0  0  0  0  0  0  0  0  0
    7.5750    0.4430  -55.2160 C   0  0  0  0  0  0  0  0  0  0  0  0
    7.0630   -0.5330  -54.2140 C   0  0  0  0  0  0  0  0  0  0  0  0
    5.8570   -0.6510  -54.0490 O   0  0  0  0  0  0  0  0  0  0  0  0
    8.0250   -1.2200  -53.5010 N   0  0  0  0  0  0  0  0  0  0  0  0
    7.7350   -2.1600  -52.4110 C   0  0  2  0  0  0  0  0  0  0  0  0
    7.2680   -1.4220  -51.1320 C   0  0  0  0  0  0  0  0  0  0  0  0
    7.0260   -2.4240  -49.9890 C   0  0  1  0  0  0  0  0  0  0  0  0
    5.9530   -3.4380  -50.4210 C   0  0  0  0  0  0  0  0  0  0  0  0
    6.4220   -4.2050  -51.6700 C   0  0  2  0  0  0  0  0  0  0  0  0
    7.7330   -4.9400  -51.3520 C   0  0  0  0  0  0  0  0  0  0  0  0
    8.8100   -3.9310  -50.9280 C   0  0  2  0  0  0  0  0  0  0  0  0
    8.3340   -3.1700  -49.6810 C   0  0  0  0  0  0  0  0  0  0  0  0
    9.0410   -2.9300  -52.0720 C   0  0  0  0  0  0  0  0  0  0  0  0
    6.6640   -3.2060  -52.8160 C   0  0  0  0  0  0  0  0  0  0  0  0
    6.6640    0.9850  -56.1360 C   0  0  0  0  0  0  0  0  0  0  0  0
    7.0730    1.9080  -57.1070 C   0  0  0  0  0  0  0  0  0  0  0  0
    8.4250    2.2410  -57.1130 C   0  0  0  0  0  0  0  0  0  0  0  0
    9.0170    3.1110  -57.9740 O   0  0  0  0  0  0  0  0  0  0  0  0
    8.8696    5.6181  -58.0761 H   0  0  0  0  0  0  0  0  0  0  0  0
    9.0562    6.4973  -59.6314 H   0  0  0  0  0  0  0  0  0  0  0  0
    8.6169    4.7556  -59.6314 H   0  0  0  0  0  0  0  0  0  0  0  0
   11.1461    6.8749  -60.4030 H   0  0  0  0  0  0  0  0  0  0  0  0
   13.5719    6.3467  -60.5430 H   0  0  0  0  0  0  0  0  0  0  0  0
   14.4805    4.3459  -59.3700 H   0  0  0  0  0  0  0  0  0  0  0  0
   12.9622    2.8806  -58.0515 H   0  0  0  0  0  0  0  0  0  0  0  0
   11.5761    2.1350  -56.1206 H   0  0  0  0  0  0  0  0  0  0  0  0
    9.6565    0.3507  -54.5556 H   0  0  0  0  0  0  0  0  0  0  0  0
    8.9700   -0.8620  -53.5460 H   0  0  0  0  0  0  0  0  0  0  0  0
    8.0425   -0.7035  -50.8255 H   0  0  0  0  0  0  0  0  0  0  0  0
    6.3267   -0.8957  -51.3488 H   0  0  0  0  0  0  0  0  0  0  0  0
    6.6872   -1.8858  -49.0915 H   0  0  0  0  0  0  0  0  0  0  0  0
    5.7752   -4.1505  -49.6020 H   0  0  0  0  0  0  0  0  0  0  0  0
    5.0234   -2.8995  -50.6574 H   0  0  0  0  0  0  0  0  0  0  0  0
    5.6535   -4.9333  -51.9685 H   0  0  0  0  0  0  0  0  0  0  0  0
    7.5609   -5.6548  -50.5338 H   0  0  0  0  0  0  0  0  0  0  0  0
    8.0736   -5.4765  -52.2499 H   0  0  0  0  0  0  0  0  0  0  0  0
    9.7459   -4.4628  -50.7013 H   0  0  0  0  0  0  0  0  0  0  0  0
    8.1622   -3.8838  -48.8619 H   0  0  0  0  0  0  0  0  0  0  0  0
    9.1042   -2.4423  -49.3857 H   0  0  0  0  0  0  0  0  0  0  0  0
    9.8148   -2.2095  -51.7686 H   0  0  0  0  0  0  0  0  0  0  0  0
    9.3612   -3.4866  -52.9651 H   0  0  0  0  0  0  0  0  0  0  0  0
    7.0108   -3.7529  -53.7052 H   0  0  0  0  0  0  0  0  0  0  0  0
    5.7217   -2.6824  -53.0350 H   0  0  0  0  0  0  0  0  0  0  0  0
    5.6083    0.6790  -56.0937 H   0  0  0  0  0  0  0  0  0  0  0  0
    6.3647    2.3459  -57.8257 H   0  0  0  0  0  0  0  0  0  0  0  0
  1  2  1  0
  2  3  2  0
  3  4  1  0
  4  5  2  0
  5  6  1  0
  6  7  2  0
  7  8  1  0
  8  9  2  0
  9 10  1  0
 10 11  2  0
 11 12  1  0
 12 13  1  0
 13 14  2  0
 13 15  1  0
 16 15  1  6
 16 17  1  0
 17 18  1  0
 18 19  1  0
 19 20  1  0
 20 21  1  0
 21 22  1  0
 22 23  1  0
 22 24  1  0
 20 25  1  0
 12 26  2  0
 26 27  1  0
 27 28  2  0
 28 29  1  0
  7  2  1  0
 29  8  1  0
 28 10  1  0
 24 16  1  0
 25 16  1  0
 23 18  1  0
  1 30  1  0
  1 31  1  0
  1 32  1  0
  3 33  1  0
  4 34  1  0
  5 35  1  0
  6 36  1  0
  9 37  1  0
 11 38  1  0
 15 39  1  0
 17 40  1  0
 17 41  1  0
 18 42  1  1
 19 43  1  0
 19 44  1  0
 20 45  1  6
 21 46  1  0
 21 47  1  0
 22 48  1  1
 23 49  1  0
 23 50  1  0
 24 51  1  0
 24 52  1  0
 25 53  1  0
 25 54  1  0
 26 55  1  0
 27 56  1  0
M  END
>  <meeko>  (81) 
{"is_sidechain": false}

$$$$

     RDKit          3D

 53 58  0  0  0  0  0  0  0  0999 V2000
   11.3280    1.7110  -56.8630 O   0  0  0  0  0  0  0  0  0  0  0  0
   10.1630    1.4340  -56.6030 C   0  0  0  0  0  0  0  0  0  0  0  0
    9.0630    2.0120  -57.1950 N   0  0  0  0  0  0  0  0  0  0  0  0
    9.1230    3.0170  -58.2610 C   0  0  2  0  0  0  0  0  0  0  0  0
   10.0820    2.5840  -59.3980 C   0  0  0  0  0  0  0  0  0  0  0  0
   10.0850    3.6280  -60.5300 C   0  0  1  0  0  0  0  0  0  0  0  0
    8.6660    3.7610  -61.1030 C   0  0  0  0  0  0  0  0  0  0  0  0
    7.6950    4.2110  -60.0000 C   0  0  2  0  0  0  0  0  0  0  0  0
    8.1500    5.5680  -59.4430 C   0  0  0  0  0  0  0  0  0  0  0  0
    9.5660    5.4450  -58.8600 C   0  0  2  0  0  0  0  0  0  0  0  0
   10.5330    4.9870  -59.9640 C   0  0  0  0  0  0  0  0  0  0  0  0
    9.5620    4.4040  -57.7260 C   0  0  0  0  0  0  0  0  0  0  0  0
    7.7020    3.1720  -58.8670 C   0  0  0  0  0  0  0  0  0  0  0  0
    9.8210    0.3680  -55.6180 C   0  0  0  0  0  0  0  0  0  0  0  0
    8.6110    0.3940  -54.8040 C   0  0  0  0  0  0  0  0  0  0  0  0
    8.3360   -0.5850  -53.9230 C   0  0  0  0  0  0  0  0  0  0  0  0
    9.2460   -1.6750  -53.7710 C   0  0  0  0  0  0  0  0  0  0  0  0
    9.2910   -2.8200  -53.0020 C   0  0  0  0  0  0  0  0  0  0  0  0
    8.2850   -3.2470  -52.0530 C   0  0  0  0  0  0  0  0  0  0  0  0
    7.2930   -4.1540  -52.4470 C   0  0  0  0  0  0  0  0  0  0  0  0
    6.3120   -4.5630  -51.5400 C   0  0  0  0  0  0  0  0  0  0  0  0
    6.3130   -4.0650  -50.2380 C   0  0  0  0  0  0  0  0  0  0  0  0
    7.2930   -3.1550  -49.8410 C   0  0  0  0  0  0  0  0  0  0  0  0
    8.2750   -2.7460  -50.7450 C   0  0  0  0  0  0  0  0  0  0  0  0
   10.5250   -3.4130  -53.3350 C   0  0  0  0  0  0  0  0  0  0  0  0
   11.2040   -2.7280  -54.2550 N   0  0  0  0  0  0  0  0  0  0  0  0
   10.4240   -1.6510  -54.5300 N   0  0  0  0  0  0  0  0  0  0  0  0
   10.7000   -0.6340  -55.4410 C   0  0  0  0  0  0  0  0  0  0  0  0
    8.1690    1.5670  -57.0360 H   0  0  0  0  0  0  0  0  0  0  0  0
   11.1005    2.4853  -58.9942 H   0  0  0  0  0  0  0  0  0  0  0  0
    9.7393    1.6209  -59.8041 H   0  0  0  0  0  0  0  0  0  0  0  0
   10.7760    3.3103  -61.3247 H   0  0  0  0  0  0  0  0  0  0  0  0
    8.6682    4.5056  -61.9127 H   0  0  0  0  0  0  0  0  0  0  0  0
    8.3414    2.7857  -61.4947 H   0  0  0  0  0  0  0  0  0  0  0  0
    6.6807    4.3036  -60.4155 H   0  0  0  0  0  0  0  0  0  0  0  0
    8.1522    6.3125  -60.2527 H   0  0  0  0  0  0  0  0  0  0  0  0
    7.4575    5.8845  -58.6491 H   0  0  0  0  0  0  0  0  0  0  0  0
    9.8882    6.4203  -58.4663 H   0  0  0  0  0  0  0  0  0  0  0  0
   10.5414    5.7328  -60.7725 H   0  0  0  0  0  0  0  0  0  0  0  0
   11.5422    4.8844  -59.5385 H   0  0  0  0  0  0  0  0  0  0  0  0
   10.5748    4.3249  -57.3042 H   0  0  0  0  0  0  0  0  0  0  0  0
    8.8514    4.7265  -56.9507 H   0  0  0  0  0  0  0  0  0  0  0  0
    7.0080    3.4963  -58.0776 H   0  0  0  0  0  0  0  0  0  0  0  0
    7.3902    2.2015  -59.2804 H   0  0  0  0  0  0  0  0  0  0  0  0
    7.9076    1.2327  -54.9128 H   0  0  0  0  0  0  0  0  0  0  0  0
    7.4149   -0.5460  -53.3229 H   0  0  0  0  0  0  0  0  0  0  0  0
    7.2862   -4.5459  -53.4748 H   0  0  0  0  0  0  0  0  0  0  0  0
    5.5380   -5.2788  -51.8537 H   0  0  0  0  0  0  0  0  0  0  0  0
    5.5416   -4.3894  -49.5241 H   0  0  0  0  0  0  0  0  0  0  0  0
    7.2920   -2.7593  -48.8146 H   0  0  0  0  0  0  0  0  0  0  0  0
    9.0447   -2.0267  -50.4286 H   0  0  0  0  0  0  0  0  0  0  0  0
   10.8908   -4.3462  -52.8819 H   0  0  0  0  0  0  0  0  0  0  0  0
   11.6376   -0.6506  -56.0160 H   0  0  0  0  0  0  0  0  0  0  0  0
  1  2  2  0
  2  3  1  0
  4  3  1  1
  4  5  1  0
  5  6  1  0
  6  7  1  0
  7  8  1  0
  8  9  1  0
  9 10  1  0
 10 11  1  0
 10 12  1  0
  8 13  1  0
  2 14  1  0
 14 15  1  0
 15 16  2  0
 16 17  1  0
 17 18  2  0
 18 19  1  0
 19 20  2  0
 20 21  1  0
 21 22  2  0
 22 23  1  0
 23 24  2  0
 18 25  1  0
 25 26  2  0
 26 27  1  0
 27 28  1  0
 12  4  1  0
 28 14  2  0
 13  4  1  0
 27 17  1  0
 11  6  1  0
 24 19  1  0
  3 29  1  0
  5 30  1  0
  5 31  1  0
  6 32  1  6
  7 33  1  0
  7 34  1  0
  8 35  1  6
  9 36  1  0
  9 37  1  0
 10 38  1  1
 11 39  1  0
 11 40  1  0
 12 41  1  0
 12 42  1  0
 13 43  1  0
 13 44  1  0
 15 45  1  0
 16 46  1  0
 20 47  1  0
 21 48  1  0
 22 49  1  0
 23 50  1  0
 24 51  1  0
 25 52  1  0
 28 53  1  0
M  END
>  <meeko>  (82) 
{"is_sidechain": false}

$$$$

     RDKit          3D

 43 46  0  0  0  0  0  0  0  0999 V2000
    2.5310    1.5210  -63.2230 C   0  0  0  0  0  0  0  0  0  0  0  0
    3.7160    1.7710  -62.3370 C   0  0  0  0  0  0  0  0  0  0  0  0
    4.9110    2.2660  -62.8740 C   0  0  0  0  0  0  0  0  0  0  0  0
    6.0070    2.5270  -62.0460 C   0  0  0  0  0  0  0  0  0  0  0  0
    5.9100    2.3110  -60.6660 C   0  0  0  0  0  0  0  0  0  0  0  0
    7.0510    2.5740  -59.7450 C   0  0  0  0  0  0  0  0  0  0  0  0
    6.9630    2.2550  -58.5670 O   0  0  0  0  0  0  0  0  0  0  0  0
    8.1390    3.2140  -60.3050 N   0  0  0  0  0  0  0  0  0  0  0  0
    9.3250    3.6420  -59.5540 C   0  0  2  0  0  0  0  0  0  0  0  0
    9.9600    2.4760  -58.7560 C   0  0  0  0  0  0  0  0  0  0  0  0
   11.2290    2.9490  -58.0220 C   0  0  1  0  0  0  0  0  0  0  0  0
   12.2520    3.4540  -59.0520 C   0  0  0  0  0  0  0  0  0  0  0  0
   11.6570    4.6260  -59.8480 C   0  0  2  0  0  0  0  0  0  0  0  0
   11.2940    5.7660  -58.8830 C   0  0  0  0  0  0  0  0  0  0  0  0
   10.2660    5.2740  -57.8530 C   0  0  2  0  0  0  0  0  0  0  0  0
   10.8620    4.0950  -57.0650 C   0  0  0  0  0  0  0  0  0  0  0  0
    8.9960    4.8050  -58.5850 C   0  0  0  0  0  0  0  0  0  0  0  0
   10.3850    4.1510  -60.5690 C   0  0  0  0  0  0  0  0  0  0  0  0
    4.7180    1.8140  -60.1270 C   0  0  0  0  0  0  0  0  0  0  0  0
    3.6250    1.5540  -60.9570 C   0  0  0  0  0  0  0  0  0  0  0  0
    1.6423    1.3335  -62.6025 H   0  0  0  0  0  0  0  0  0  0  0  0
    2.3556    2.4019  -63.8580 H   0  0  0  0  0  0  0  0  0  0  0  0
    2.7264    0.6443  -63.8580 H   0  0  0  0  0  0  0  0  0  0  0  0
    4.9879    2.4509  -63.9556 H   0  0  0  0  0  0  0  0  0  0  0  0
    6.9460    2.9022  -62.4790 H   0  0  0  0  0  0  0  0  0  0  0  0
    7.9970    3.6460  -61.2080 H   0  0  0  0  0  0  0  0  0  0  0  0
    9.2331    2.1046  -58.0186 H   0  0  0  0  0  0  0  0  0  0  0  0
   10.2341    1.6742  -59.4574 H   0  0  0  0  0  0  0  0  0  0  0  0
   11.6612    2.1139  -57.4512 H   0  0  0  0  0  0  0  0  0  0  0  0
   13.1595    3.7911  -58.5298 H   0  0  0  0  0  0  0  0  0  0  0  0
   12.5034    2.6366  -59.7439 H   0  0  0  0  0  0  0  0  0  0  0  0
   12.3920    4.9847  -60.5836 H   0  0  0  0  0  0  0  0  0  0  0  0
   12.2010    6.1035  -58.3601 H   0  0  0  0  0  0  0  0  0  0  0  0
   10.8616    6.6000  -59.4552 H   0  0  0  0  0  0  0  0  0  0  0  0
   10.0138    6.0922  -57.1624 H   0  0  0  0  0  0  0  0  0  0  0  0
   11.7664    4.4311  -56.5367 H   0  0  0  0  0  0  0  0  0  0  0  0
   10.1169    3.7336  -56.3409 H   0  0  0  0  0  0  0  0  0  0  0  0
    8.2580    4.4616  -57.8451 H   0  0  0  0  0  0  0  0  0  0  0  0
    8.5891    5.6464  -59.1651 H   0  0  0  0  0  0  0  0  0  0  0  0
    9.9614    4.9899  -61.1408 H   0  0  0  0  0  0  0  0  0  0  0  0
   10.6526    3.3219  -61.2406 H   0  0  0  0  0  0  0  0  0  0  0  0
    4.6415    1.6274  -59.0456 H   0  0  0  0  0  0  0  0  0  0  0  0
    2.6871    1.1765  -60.5237 H   0  0  0  0  0  0  0  0  0  0  0  0
  1  2  1  0
  2  3  1  0
  3  4  2  0
  4  5  1  0
  5  6  1  0
  6  7  2  0
  6  8  1  0
  9  8  1  6
  9 10  1  0
 10 11  1  0
 11 12  1  0
 12 13  1  0
 13 14  1  0
 14 15  1  0
 15 16  1  0
 15 17  1  0
 13 18  1  0
  5 19  2  0
 19 20  1  0
 20  2  2  0
 17  9  1  0
 18  9  1  0
 16 11  1  0
  1 21  1  0
  1 22  1  0
  1 23  1  0
  3 24  1  0
  4 25  1  0
  8 26  1  0
 10 27  1  0
 10 28  1  0
 11 29  1  1
 12 30  1  0
 12 31  1  0
 13 32  1  6
 14 33  1  0
 14 34  1  0
 15 35  1  1
 16 36  1  0
 16 37  1  0
 17 38  1  0
 17 39  1  0
 18 40  1  0
 18 41  1  0
 19 42  1  0
 20 43  1  0
M  END
>  <meeko>  (83) 
{"is_sidechain": false}

$$$$

     RDKit          3D

 56 61  0  0  0  0  0  0  0  0999 V2000
    6.0850    2.4160  -56.2830 O   0  0  0  0  0  0  0  0  0  0  0  0
    7.0730    1.7020  -56.1700 C   0  0  0  0  0  0  0  0  0  0  0  0
    8.2620    1.8900  -56.8450 N   0  0  0  0  0  0  0  0  0  0  0  0
    8.5270    3.0050  -57.7610 C   0  0  2  0  0  0  0  0  0  0  0  0
    8.5870    4.3580  -57.0100 C   0  0  0  0  0  0  0  0  0  0  0  0
    8.9230    5.5020  -57.9810 C   0  0  1  0  0  0  0  0  0  0  0  0
   10.2900    5.2340  -58.6300 C   0  0  0  0  0  0  0  0  0  0  0  0
   10.2540    3.9070  -59.4030 C   0  0  2  0  0  0  0  0  0  0  0  0
    9.1770    3.9830  -60.4960 C   0  0  0  0  0  0  0  0  0  0  0  0
    7.8030    4.2430  -59.8590 C   0  0  2  0  0  0  0  0  0  0  0  0
    7.8460    5.5670  -59.0790 C   0  0  0  0  0  0  0  0  0  0  0  0
    7.4670    3.0960  -58.8890 C   0  0  0  0  0  0  0  0  0  0  0  0
    9.9070    2.7680  -58.4320 C   0  0  0  0  0  0  0  0  0  0  0  0
    7.0440    0.5610  -55.2140 C   0  0  0  0  0  0  0  0  0  0  0  0
    6.1030    0.4950  -54.1790 C   0  0  0  0  0  0  0  0  0  0  0  0
    6.0880   -0.5830  -53.2870 C   0  0  0  0  0  0  0  0  0  0  0  0
    7.0560   -1.5760  -53.4680 C   0  0  0  0  0  0  0  0  0  0  0  0
    7.3010   -2.7350  -52.7860 N   0  0  0  0  0  0  0  0  0  0  0  0
    8.3270   -3.4530  -53.2630 N   0  0  0  0  0  0  0  0  0  0  0  0
    8.8070   -2.7160  -54.2810 C   0  0  0  0  0  0  0  0  0  0  0  0
    9.9720   -3.1700  -55.0430 C   0  0  0  0  0  0  0  0  0  0  0  0
   10.7540   -2.2680  -55.7750 C   0  0  0  0  0  0  0  0  0  0  0  0
   11.8650   -2.7150  -56.5000 C   0  0  0  0  0  0  0  0  0  0  0  0
   12.2160   -4.0730  -56.5060 C   0  0  0  0  0  0  0  0  0  0  0  0
   13.4280   -4.5510  -57.2660 C   0  0  0  0  0  0  0  0  0  0  0  0
   13.1120   -5.2660  -58.3820 F   0  0  0  0  0  0  0  0  0  0  0  0
   14.2260   -5.3610  -56.5170 F   0  0  0  0  0  0  0  0  0  0  0  0
   14.2270   -3.5330  -57.6940 F   0  0  0  0  0  0  0  0  0  0  0  0
   11.4460   -4.9720  -55.7540 C   0  0  0  0  0  0  0  0  0  0  0  0
   10.3360   -4.5240  -55.0300 C   0  0  0  0  0  0  0  0  0  0  0  0
    8.0230   -1.5330  -54.4660 C   0  0  0  0  0  0  0  0  0  0  0  0
    8.0150   -0.4440  -55.3620 C   0  0  0  0  0  0  0  0  0  0  0  0
    9.0710    1.3980  -56.4890 H   0  0  0  0  0  0  0  0  0  0  0  0
    7.6110    4.5555  -56.5426 H   0  0  0  0  0  0  0  0  0  0  0  0
    9.3726    4.3026  -56.2421 H   0  0  0  0  0  0  0  0  0  0  0  0
    8.9541    6.4551  -57.4326 H   0  0  0  0  0  0  0  0  0  0  0  0
   10.5307    6.0531  -59.3236 H   0  0  0  0  0  0  0  0  0  0  0  0
   11.0570    5.1730  -57.8439 H   0  0  0  0  0  0  0  0  0  0  0  0
   11.2354    3.7202  -59.8633 H   0  0  0  0  0  0  0  0  0  0  0  0
    9.4184    4.8020  -61.1896 H   0  0  0  0  0  0  0  0  0  0  0  0
    9.1480    3.0290  -61.0429 H   0  0  0  0  0  0  0  0  0  0  0  0
    7.0368    4.3008  -60.6461 H   0  0  0  0  0  0  0  0  0  0  0  0
    8.0816    6.3890  -59.7710 H   0  0  0  0  0  0  0  0  0  0  0  0
    6.8658    5.7399  -58.6107 H   0  0  0  0  0  0  0  0  0  0  0  0
    6.4786    3.2787  -58.4420 H   0  0  0  0  0  0  0  0  0  0  0  0
    7.4632    2.1489  -59.4485 H   0  0  0  0  0  0  0  0  0  0  0  0
    9.8779    1.8190  -58.9874 H   0  0  0  0  0  0  0  0  0  0  0  0
   10.6758    2.7332  -57.6460 H   0  0  0  0  0  0  0  0  0  0  0  0
    5.3647    1.3025  -54.0656 H   0  0  0  0  0  0  0  0  0  0  0  0
    5.3460   -0.6467  -52.4774 H   0  0  0  0  0  0  0  0  0  0  0  0
    6.7960   -3.0980  -51.9860 H   0  0  0  0  0  0  0  0  0  0  0  0
   10.4931   -1.1994  -55.7804 H   0  0  0  0  0  0  0  0  0  0  0  0
   12.4688   -1.9940  -57.0707 H   0  0  0  0  0  0  0  0  0  0  0  0
   11.7170   -6.0379  -55.7333 H   0  0  0  0  0  0  0  0  0  0  0  0
    9.7425   -5.2415  -54.4444 H   0  0  0  0  0  0  0  0  0  0  0  0
    8.7609   -0.3819  -56.1681 H   0  0  0  0  0  0  0  0  0  0  0  0
  1  2  2  0
  2  3  1  0
  4  3  1  1
  4  5  1  0
  5  6  1  0
  6  7  1  0
  7  8  1  0
  8  9  1  0
  9 10  1  0
 10 11  1  0
 10 12  1  0
  8 13  1  0
  2 14  1  0
 14 15  2  0
 15 16  1  0
 16 17  2  0
 17 18  1  0
 18 19  1  0
 19 20  2  0
 20 21  1  0
 21 22  1  0
 22 23  2  0
 23 24  1  0
 24 25  1  0
 25 26  1  0
 25 27  1  0
 25 28  1  0
 24 29  2  0
 29 30  1  0
 20 31  1  0
 31 32  2  0
 12  4  1  0
 32 14  1  0
 13  4  1  0
 31 17  1  0
 11  6  1  0
 30 21  2  0
  3 33  1  0
  5 34  1  0
  5 35  1  0
  6 36  1  1
  7 37  1  0
  7 38  1  0
  8 39  1  6
  9 40  1  0
  9 41  1  0
 10 42  1  6
 11 43  1  0
 11 44  1  0
 12 45  1  0
 12 46  1  0
 13 47  1  0
 13 48  1  0
 15 49  1  0
 16 50  1  0
 18 51  1  0
 22 52  1  0
 23 53  1  0
 29 54  1  0
 30 55  1  0
 32 56  1  0
M  END
>  <meeko>  (84) 
{"is_sidechain": false}

$$$$

     RDKit          3D

 56 61  0  0  0  0  0  0  0  0999 V2000
    6.0910    2.2150  -56.3490 O   0  0  0  0  0  0  0  0  0  0  0  0
    7.1410    1.6420  -56.0860 C   0  0  0  0  0  0  0  0  0  0  0  0
    8.3700    1.9600  -56.6290 N   0  0  0  0  0  0  0  0  0  0  0  0
    8.5850    3.0030  -57.6390 C   0  0  2  0  0  0  0  0  0  0  0  0
    7.5050    2.9530  -58.7470 C   0  0  0  0  0  0  0  0  0  0  0  0
    7.7850    4.0180  -59.8230 C   0  0  1  0  0  0  0  0  0  0  0  0
    7.7910    5.4110  -59.1690 C   0  0  0  0  0  0  0  0  0  0  0  0
    8.8870    5.4850  -58.0910 C   0  0  2  0  0  0  0  0  0  0  0  0
   10.2540    5.2080  -58.7360 C   0  0  0  0  0  0  0  0  0  0  0  0
   10.2550    3.8150  -59.3830 C   0  0  2  0  0  0  0  0  0  0  0  0
    9.1580    3.7510  -60.4570 C   0  0  0  0  0  0  0  0  0  0  0  0
    9.9670    2.7590  -58.3040 C   0  0  0  0  0  0  0  0  0  0  0  0
    8.6080    4.4210  -57.0130 C   0  0  0  0  0  0  0  0  0  0  0  0
    7.1310    0.4850  -55.1480 C   0  0  0  0  0  0  0  0  0  0  0  0
    6.1120    0.3890  -54.1390 C   0  0  0  0  0  0  0  0  0  0  0  0
    6.0330   -0.6730  -53.2090 C   0  0  0  0  0  0  0  0  0  0  0  0
    7.0360   -1.6440  -53.3650 C   0  0  0  0  0  0  0  0  0  0  0  0
    7.2590   -2.7650  -52.6630 N   0  0  0  0  0  0  0  0  0  0  0  0
    8.3370   -3.3220  -53.2450 N   0  0  0  0  0  0  0  0  0  0  0  0
    8.8600   -2.6200  -54.3050 C   0  0  0  0  0  0  0  0  0  0  0  0
   10.0150   -3.0850  -55.0620 C   0  0  0  0  0  0  0  0  0  0  0  0
   10.3650   -4.4400  -55.0610 C   0  0  0  0  0  0  0  0  0  0  0  0
   11.4780   -4.8880  -55.7800 C   0  0  0  0  0  0  0  0  0  0  0  0
   12.2570   -3.9890  -56.5200 C   0  0  0  0  0  0  0  0  0  0  0  0
   13.4710   -4.4660  -57.2810 C   0  0  0  0  0  0  0  0  0  0  0  0
   14.2770   -3.4460  -57.6910 F   0  0  0  0  0  0  0  0  0  0  0  0
   13.1600   -5.1690  -58.4040 F   0  0  0  0  0  0  0  0  0  0  0  0
   14.2600   -5.2850  -56.5310 F   0  0  0  0  0  0  0  0  0  0  0  0
   11.9100   -2.6300  -56.5130 C   0  0  0  0  0  0  0  0  0  0  0  0
   10.7980   -2.1830  -55.7920 C   0  0  0  0  0  0  0  0  0  0  0  0
    8.0310   -1.5250  -54.4050 C   0  0  0  0  0  0  0  0  0  0  0  0
    8.1410   -0.4880  -55.3300 C   0  0  0  0  0  0  0  0  0  0  0  0
    9.1050    1.2730  -56.5260 H   0  0  0  0  0  0  0  0  0  0  0  0
    7.5113    1.9569  -59.2136 H   0  0  0  0  0  0  0  0  0  0  0  0
    6.5226    3.1544  -58.2949 H   0  0  0  0  0  0  0  0  0  0  0  0
    7.0050    3.9749  -60.5975 H   0  0  0  0  0  0  0  0  0  0  0  0
    7.9852    6.1731  -59.9381 H   0  0  0  0  0  0  0  0  0  0  0  0
    6.8125    5.5927  -58.7004 H   0  0  0  0  0  0  0  0  0  0  0  0
    8.8910    6.4854  -57.6337 H   0  0  0  0  0  0  0  0  0  0  0  0
   10.4546    5.9677  -59.5058 H   0  0  0  0  0  0  0  0  0  0  0  0
   11.0342    5.2478  -57.9616 H   0  0  0  0  0  0  0  0  0  0  0  0
   11.2348    3.6214  -59.8439 H   0  0  0  0  0  0  0  0  0  0  0  0
    9.3575    4.5108  -61.2270 H   0  0  0  0  0  0  0  0  0  0  0  0
    9.1566    2.7495  -60.9121 H   0  0  0  0  0  0  0  0  0  0  0  0
    9.9719    1.7613  -58.7672 H   0  0  0  0  0  0  0  0  0  0  0  0
   10.7450    2.8290  -57.5296 H   0  0  0  0  0  0  0  0  0  0  0  0
    9.3973    4.4657  -56.2481 H   0  0  0  0  0  0  0  0  0  0  0  0
    7.6267    4.6244  -56.5596 H   0  0  0  0  0  0  0  0  0  0  0  0
    5.3534    1.1839  -54.0876 H   0  0  0  0  0  0  0  0  0  0  0  0
    5.2558   -0.7335  -52.4329 H   0  0  0  0  0  0  0  0  0  0  0  0
    8.6690   -4.2080  -52.8790 H   0  0  0  0  0  0  0  0  0  0  0  0
    9.7595   -5.1590  -54.4898 H   0  0  0  0  0  0  0  0  0  0  0  0
   11.7439   -5.9553  -55.7643 H   0  0  0  0  0  0  0  0  0  0  0  0
   12.5179   -1.9093  -57.0796 H   0  0  0  0  0  0  0  0  0  0  0  0
   10.5367   -1.1145  -55.7986 H   0  0  0  0  0  0  0  0  0  0  0  0
    8.9183   -0.4332  -56.1065 H   0  0  0  0  0  0  0  0  0  0  0  0
  1  2  2  0
  2  3  1  0
  4  3  1  1
  4  5  1  0
  5  6  1  0
  6  7  1  0
  7  8  1  0
  8  9  1  0
  9 10  1  0
 10 11  1  0
 10 12  1  0
  8 13  1  0
  2 14  1  0
 14 15  1  0
 15 16  2  0
 16 17  1  0
 17 18  2  0
 18 19  1  0
 19 20  1  0
 20 21  1  0
 21 22  1  0
 22 23  2  0
 23 24  1  0
 24 25  1  0
 25 26  1  0
 25 27  1  0
 25 28  1  0
 24 29  2  0
 29 30  1  0
 20 31  2  0
 31 32  1  0
 12  4  1  0
 32 14  2  0
 13  4  1  0
 31 17  1  0
 11  6  1  0
 30 21  2  0
  3 33  1  0
  5 34  1  0
  5 35  1  0
  6 36  1  6
  7 37  1  0
  7 38  1  0
  8 39  1  1
  9 40  1  0
  9 41  1  0
 10 42  1  6
 11 43  1  0
 11 44  1  0
 12 45  1  0
 12 46  1  0
 13 47  1  0
 13 48  1  0
 15 49  1  0
 16 50  1  0
 19 51  1  0
 22 52  1  0
 23 53  1  0
 29 54  1  0
 30 55  1  0
 32 56  1  0
M  END
>  <meeko>  (85) 
{"is_sidechain": false}

$$$$

     RDKit          3D

 55 60  0  0  0  0  0  0  0  0999 V2000
   13.1080    5.6600  -59.7460 C   0  0  0  0  0  0  0  0  0  0  0  0
   13.4630    4.4980  -59.0700 C   0  0  0  0  0  0  0  0  0  0  0  0
   12.4760    3.7480  -58.4350 C   0  0  0  0  0  0  0  0  0  0  0  0
   11.1590    4.1900  -58.4960 C   0  0  0  0  0  0  0  0  0  0  0  0
   10.0400    3.4890  -57.8660 C   0  0  0  0  0  0  0  0  0  0  0  0
   10.0560    2.4820  -56.9140 C   0  0  0  0  0  0  0  0  0  0  0  0
    8.7200    2.1070  -56.6210 C   0  0  0  0  0  0  0  0  0  0  0  0
    8.1370    1.1640  -55.7540 C   0  0  0  0  0  0  0  0  0  0  0  0
    6.7370    1.0320  -55.7100 C   0  0  0  0  0  0  0  0  0  0  0  0
    6.1160   -0.0230  -54.8380 C   0  0  0  0  0  0  0  0  0  0  0  0
    6.8330   -0.0880  -53.5290 N   0  0  0  0  0  0  0  0  0  0  0  0
    7.6410   -1.3050  -53.1890 C   0  0  2  0  0  0  0  0  0  0  0  0
    7.3830   -1.7500  -51.7370 C   0  0  0  0  0  0  0  0  0  0  0  0
    8.1770   -3.0370  -51.4400 C   0  0  1  0  0  0  0  0  0  0  0  0
    7.7250   -4.1490  -52.4020 C   0  0  0  0  0  0  0  0  0  0  0  0
    7.9760   -3.7200  -53.8580 C   0  0  2  0  0  0  0  0  0  0  0  0
    9.4770   -3.4470  -54.0570 C   0  0  0  0  0  0  0  0  0  0  0  0
    9.9400   -2.3320  -53.1060 C   0  0  2  0  0  0  0  0  0  0  0  0
    9.6770   -2.7650  -51.6520 C   0  0  0  0  0  0  0  0  0  0  0  0
    9.1450   -1.0440  -53.4010 C   0  0  0  0  0  0  0  0  0  0  0  0
    7.1870   -2.4320  -54.1470 C   0  0  0  0  0  0  0  0  0  0  0  0
    5.9370    1.8400  -56.5310 C   0  0  0  0  0  0  0  0  0  0  0  0
    6.5000    2.7870  -57.3940 C   0  0  0  0  0  0  0  0  0  0  0  0
    7.8940    2.8930  -57.4160 C   0  0  0  0  0  0  0  0  0  0  0  0
    8.7130    3.7190  -58.1550 N   0  0  0  0  0  0  0  0  0  0  0  0
   10.7960    5.3170  -59.1520 N   0  0  0  0  0  0  0  0  0  0  0  0
   11.7740    6.0240  -59.7590 C   0  0  0  0  0  0  0  0  0  0  0  0
   13.8665    6.2722  -60.2558 H   0  0  0  0  0  0  0  0  0  0  0  0
   14.5137    4.1740  -59.0370 H   0  0  0  0  0  0  0  0  0  0  0  0
   12.7332    2.8243  -57.8959 H   0  0  0  0  0  0  0  0  0  0  0  0
   10.9575    2.0450  -56.4599 H   0  0  0  0  0  0  0  0  0  0  0  0
    8.7724    0.5337  -55.1144 H   0  0  0  0  0  0  0  0  0  0  0  0
    5.0587    0.2247  -54.6627 H   0  0  0  0  0  0  0  0  0  0  0  0
    6.1912   -0.9985  -55.3407 H   0  0  0  0  0  0  0  0  0  0  0  0
    6.1280    0.0640  -52.7950 H   0  0  0  0  0  0  0  0  0  0  0  0
    7.4350    0.7450  -53.4770 H   0  0  0  0  0  0  0  0  0  0  0  0
    7.7043   -0.9548  -51.0482 H   0  0  0  0  0  0  0  0  0  0  0  0
    6.3090   -1.9446  -51.6007 H   0  0  0  0  0  0  0  0  0  0  0  0
    7.9971   -3.3510  -50.4012 H   0  0  0  0  0  0  0  0  0  0  0  0
    8.2926   -5.0671  -52.1898 H   0  0  0  0  0  0  0  0  0  0  0  0
    6.6499   -4.3337  -52.2604 H   0  0  0  0  0  0  0  0  0  0  0  0
    7.6511   -4.5189  -54.5408 H   0  0  0  0  0  0  0  0  0  0  0  0
   10.0452   -4.3649  -53.8458 H   0  0  0  0  0  0  0  0  0  0  0  0
    9.6514   -3.1305  -55.0959 H   0  0  0  0  0  0  0  0  0  0  0  0
   11.0142   -2.1455  -53.2520 H   0  0  0  0  0  0  0  0  0  0  0  0
   10.2461   -3.6816  -51.4375 H   0  0  0  0  0  0  0  0  0  0  0  0
    9.9941   -1.9582  -50.9749 H   0  0  0  0  0  0  0  0  0  0  0  0
    9.4772   -0.2450  -52.7218 H   0  0  0  0  0  0  0  0  0  0  0  0
    9.3193   -0.7376  -54.4430 H   0  0  0  0  0  0  0  0  0  0  0  0
    7.3669   -2.1205  -55.1865 H   0  0  0  0  0  0  0  0  0  0  0  0
    6.1147   -2.6244  -53.9945 H   0  0  0  0  0  0  0  0  0  0  0  0
    4.8434    1.7270  -56.4959 H   0  0  0  0  0  0  0  0  0  0  0  0
    5.8693    3.4242  -58.0313 H   0  0  0  0  0  0  0  0  0  0  0  0
    8.3770    4.3890  -58.8320 H   0  0  0  0  0  0  0  0  0  0  0  0
   11.4929    6.9427  -60.2948 H   0  0  0  0  0  0  0  0  0  0  0  0
  1  2  2  0
  2  3  1  0
  3  4  2  0
  4  5  1  0
  5  6  2  0
  6  7  1  0
  7  8  2  0
  8  9  1  0
  9 10  1  0
 10 11  1  0
 12 11  1  6
 12 13  1  0
 13 14  1  0
 14 15  1  0
 15 16  1  0
 16 17  1  0
 17 18  1  0
 18 19  1  0
 18 20  1  0
 16 21  1  0
  9 22  2  0
 22 23  1  0
 23 24  2  0
 24 25  1  0
  4 26  1  0
 26 27  2  0
 27  1  1  0
 25  5  1  0
 24  7  1  0
 20 12  1  0
 21 12  1  0
 19 14  1  0
  1 28  1  0
  2 29  1  0
  3 30  1  0
  6 31  1  0
  8 32  1  0
 10 33  1  0
 10 34  1  0
 11 35  1  0
 11 36  1  0
 13 37  1  0
 13 38  1  0
 14 39  1  1
 15 40  1  0
 15 41  1  0
 16 42  1  6
 17 43  1  0
 17 44  1  0
 18 45  1  1
 19 46  1  0
 19 47  1  0
 20 48  1  0
 20 49  1  0
 21 50  1  0
 21 51  1  0
 22 52  1  0
 23 53  1  0
 25 54  1  0
 27 55  1  0
M  CHG  1  11   1
M  END
>  <meeko>  (86) 
{"is_sidechain": false}

$$$$

     RDKit          3D

 63 68  0  0  0  0  0  0  0  0999 V2000
   13.3630    4.7480  -57.5970 C   0  0  0  0  0  0  0  0  0  0  0  0
   13.5480    4.6530  -59.1030 C   0  0  0  0  0  0  0  0  0  0  0  0
   13.3430    5.9860  -59.8310 C   0  0  0  0  0  0  0  0  0  0  0  0
   11.8840    6.4050  -60.0160 C   0  0  0  0  0  0  0  0  0  0  0  0
   10.9430    5.3070  -59.8960 N   0  0  0  0  0  0  0  0  0  0  0  0
   10.2440    4.9480  -58.7790 C   0  0  0  0  0  0  0  0  0  0  0  0
    9.4960    3.8550  -59.1390 C   0  0  0  0  0  0  0  0  0  0  0  0
    8.5240    3.0780  -58.2260 C   0  0  0  0  0  0  0  0  0  0  0  0
    7.1500    3.0320  -58.3180 C   0  0  0  0  0  0  0  0  0  0  0  0
    6.6730    2.1950  -57.2720 C   0  0  0  0  0  0  0  0  0  0  0  0
    5.3930    1.7810  -56.8550 C   0  0  0  0  0  0  0  0  0  0  0  0
    5.2700    0.9270  -55.7510 C   0  0  0  0  0  0  0  0  0  0  0  0
    6.4060    0.4760  -55.0680 C   0  0  0  0  0  0  0  0  0  0  0  0
    6.2990   -0.4350  -53.8920 C   0  0  0  0  0  0  0  0  0  0  0  0
    5.3210   -0.3630  -53.1590 O   0  0  0  0  0  0  0  0  0  0  0  0
    7.3670   -1.2890  -53.6950 N   0  0  0  0  0  0  0  0  0  0  0  0
    7.4990   -2.1980  -52.5520 C   0  0  2  0  0  0  0  0  0  0  0  0
    8.8200   -3.0030  -52.6130 C   0  0  0  0  0  0  0  0  0  0  0  0
    8.9090   -3.9910  -51.4380 C   0  0  1  0  0  0  0  0  0  0  0  0
    8.8400   -3.2100  -50.1140 C   0  0  0  0  0  0  0  0  0  0  0  0
    7.5130   -2.4370  -50.0230 C   0  0  2  0  0  0  0  0  0  0  0  0
    6.3420   -3.4280  -50.1010 C   0  0  0  0  0  0  0  0  0  0  0  0
    6.4000   -4.2040  -51.4260 C   0  0  2  0  0  0  0  0  0  0  0  0
    7.7280   -4.9730  -51.5080 C   0  0  0  0  0  0  0  0  0  0  0  0
    6.3200   -3.2100  -52.5950 C   0  0  0  0  0  0  0  0  0  0  0  0
    7.4230   -1.4470  -51.1990 C   0  0  0  0  0  0  0  0  0  0  0  0
    7.6890    0.8940  -55.4570 C   0  0  0  0  0  0  0  0  0  0  0  0
    7.7870    1.7470  -56.5630 C   0  0  0  0  0  0  0  0  0  0  0  0
    8.8970    2.3010  -57.1610 N   0  0  0  0  0  0  0  0  0  0  0  0
    9.8190    3.6250  -60.4890 C   0  0  0  0  0  0  0  0  0  0  0  0
   10.7080    4.5080  -60.9550 N   0  0  0  0  0  0  0  0  0  0  0  0
   14.2323    4.3016  -57.0919 H   0  0  0  0  0  0  0  0  0  0  0  0
   13.2717    5.8045  -57.3047 H   0  0  0  0  0  0  0  0  0  0  0  0
   12.4512    4.2066  -57.3047 H   0  0  0  0  0  0  0  0  0  0  0  0
   14.5694    4.2990  -59.3064 H   0  0  0  0  0  0  0  0  0  0  0  0
   12.7823    3.9586  -59.4792 H   0  0  0  0  0  0  0  0  0  0  0  0
   13.8529    6.7716  -59.2540 H   0  0  0  0  0  0  0  0  0  0  0  0
   13.7537    5.8497  -60.8423 H   0  0  0  0  0  0  0  0  0  0  0  0
   11.6391    7.1576  -59.2520 H   0  0  0  0  0  0  0  0  0  0  0  0
   11.7896    6.7995  -61.0385 H   0  0  0  0  0  0  0  0  0  0  0  0
   10.2743    5.4349  -57.7931 H   0  0  0  0  0  0  0  0  0  0  0  0
    6.5325    3.5500  -59.0666 H   0  0  0  0  0  0  0  0  0  0  0  0
    4.4968    2.1254  -57.3919 H   0  0  0  0  0  0  0  0  0  0  0  0
    4.2715    0.6078  -55.4177 H   0  0  0  0  0  0  0  0  0  0  0  0
    8.2130   -1.0840  -54.2090 H   0  0  0  0  0  0  0  0  0  0  0  0
    8.8584   -3.5627  -53.5592 H   0  0  0  0  0  0  0  0  0  0  0  0
    9.6649   -2.3015  -52.5501 H   0  0  0  0  0  0  0  0  0  0  0  0
    9.8564   -4.5473  -51.4933 H   0  0  0  0  0  0  0  0  0  0  0  0
    8.9087   -3.9147  -49.2722 H   0  0  0  0  0  0  0  0  0  0  0  0
    9.6755   -2.4956  -50.0742 H   0  0  0  0  0  0  0  0  0  0  0  0
    7.4675   -1.8872  -49.0713 H   0  0  0  0  0  0  0  0  0  0  0  0
    6.4064   -4.1354  -49.2611 H   0  0  0  0  0  0  0  0  0  0  0  0
    5.3939   -2.8727  -50.0481 H   0  0  0  0  0  0  0  0  0  0  0  0
    5.5592   -4.9114  -51.4783 H   0  0  0  0  0  0  0  0  0  0  0  0
    7.7920   -5.6803  -50.6679 H   0  0  0  0  0  0  0  0  0  0  0  0
    7.7699   -5.5210  -52.4608 H   0  0  0  0  0  0  0  0  0  0  0  0
    6.3590   -3.7666  -53.5430 H   0  0  0  0  0  0  0  0  0  0  0  0
    5.3766   -2.6503  -52.5132 H   0  0  0  0  0  0  0  0  0  0  0  0
    6.4689   -0.9027  -51.1409 H   0  0  0  0  0  0  0  0  0  0  0  0
    8.2669   -0.7442  -51.1359 H   0  0  0  0  0  0  0  0  0  0  0  0
    8.5853    0.5630  -54.9120 H   0  0  0  0  0  0  0  0  0  0  0  0
    9.8460    2.1530  -56.8530 H   0  0  0  0  0  0  0  0  0  0  0  0
    9.3892    2.8116  -61.0920 H   0  0  0  0  0  0  0  0  0  0  0  0
  1  2  1  0
  2  3  1  0
  3  4  1  0
  4  5  1  0
  5  6  1  0
  6  7  2  0
  7  8  1  0
  8  9  2  0
  9 10  1  0
 10 11  2  0
 11 12  1  0
 12 13  2  0
 13 14  1  0
 14 15  2  0
 14 16  1  0
 17 16  1  6
 17 18  1  0
 18 19  1  0
 19 20  1  0
 20 21  1  0
 21 22  1  0
 22 23  1  0
 23 24  1  0
 23 25  1  0
 21 26  1  0
 13 27  1  0
 27 28  2  0
 28 29  1  0
  7 30  1  0
 30 31  2  0
 31  5  1  0
 29  8  1  0
 28 10  1  0
 25 17  1  0
 26 17  1  0
 24 19  1  0
  1 32  1  0
  1 33  1  0
  1 34  1  0
  2 35  1  0
  2 36  1  0
  3 37  1  0
  3 38  1  0
  4 39  1  0
  4 40  1  0
  6 41  1  0
  9 42  1  0
 11 43  1  0
 12 44  1  0
 16 45  1  0
 18 46  1  0
 18 47  1  0
 19 48  1  6
 20 49  1  0
 20 50  1  0
 21 51  1  1
 22 52  1  0
 22 53  1  0
 23 54  1  1
 24 55  1  0
 24 56  1  0
 25 57  1  0
 25 58  1  0
 26 59  1  0
 26 60  1  0
 27 61  1  0
 29 62  1  0
 30 63  1  0
M  END
>  <meeko>  (87) 
{"is_sidechain": false}

$$$$

     RDKit          3D

 59 64  0  0  0  0  0  0  0  0999 V2000
    5.8060    0.0420  -53.0400 O   0  0  0  0  0  0  0  0  0  0  0  0
    6.5130   -0.4270  -53.9210 C   0  0  0  0  0  0  0  0  0  0  0  0
    6.4730    0.1530  -55.2840 C   0  0  0  0  0  0  0  0  0  0  0  0
    5.8730    1.3220  -55.5530 C   0  0  0  0  0  0  0  0  0  0  0  0
    5.8260    1.8360  -56.8730 C   0  0  0  0  0  0  0  0  0  0  0  0
    4.8250    2.2600  -57.7220 C   0  0  0  0  0  0  0  0  0  0  0  0
    5.4310    2.6730  -58.9350 C   0  0  0  0  0  0  0  0  0  0  0  0
    6.7980    2.4890  -58.8180 C   0  0  0  0  0  0  0  0  0  0  0  0
    7.8800    2.7660  -59.7640 C   0  0  0  0  0  0  0  0  0  0  0  0
    7.7770    2.3890  -61.1100 C   0  0  0  0  0  0  0  0  0  0  0  0
    8.8170    2.6530  -62.0040 C   0  0  0  0  0  0  0  0  0  0  0  0
    9.9720    3.2990  -61.5610 C   0  0  0  0  0  0  0  0  0  0  0  0
   10.0930    3.6940  -60.2240 C   0  0  0  0  0  0  0  0  0  0  0  0
   11.3060    4.3670  -59.7700 C   0  0  0  0  0  0  0  0  0  0  0  0
   12.4070    3.7820  -59.0640 C   0  0  0  0  0  0  0  0  0  0  0  0
   13.4050    4.6920  -58.7910 C   0  0  0  0  0  0  0  0  0  0  0  0
   13.0330    6.2490  -59.3890 S   0  0  0  0  0  0  0  0  0  0  0  0
   11.5330    5.7090  -60.0140 C   0  0  0  0  0  0  0  0  0  0  0  0
    9.0430    3.4210  -59.3340 C   0  0  0  0  0  0  0  0  0  0  0  0
    7.0140    1.9900  -57.5510 N   0  0  0  0  0  0  0  0  0  0  0  0
    7.3250   -1.5270  -53.7940 N   0  0  0  0  0  0  0  0  0  0  0  0
    7.4410   -2.3380  -52.5770 C   0  0  2  0  0  0  0  0  0  0  0  0
    8.7410   -3.1820  -52.5660 C   0  0  0  0  0  0  0  0  0  0  0  0
    8.8090   -4.0560  -51.3020 C   0  0  1  0  0  0  0  0  0  0  0  0
    8.7670   -3.1520  -50.0570 C   0  0  0  0  0  0  0  0  0  0  0  0
    7.4620   -2.3380  -50.0390 C   0  0  2  0  0  0  0  0  0  0  0  0
    6.2630   -3.3000  -50.0240 C   0  0  0  0  0  0  0  0  0  0  0  0
    6.2970   -4.2000  -51.2690 C   0  0  2  0  0  0  0  0  0  0  0  0
    7.6030   -5.0090  -51.2780 C   0  0  0  0  0  0  0  0  0  0  0  0
    6.2400   -3.3210  -52.5280 C   0  0  0  0  0  0  0  0  0  0  0  0
    7.3940   -1.4600  -51.3020 C   0  0  0  0  0  0  0  0  0  0  0  0
    6.9539   -0.3963  -56.1068 H   0  0  0  0  0  0  0  0  0  0  0  0
    5.4091    1.8920  -54.7345 H   0  0  0  0  0  0  0  0  0  0  0  0
    3.7482    2.2750  -57.4977 H   0  0  0  0  0  0  0  0  0  0  0  0
    4.9062    3.0706  -59.8162 H   0  0  0  0  0  0  0  0  0  0  0  0
    6.8687    1.8805  -61.4655 H   0  0  0  0  0  0  0  0  0  0  0  0
    8.7257    2.3516  -63.0579 H   0  0  0  0  0  0  0  0  0  0  0  0
   10.7918    3.4988  -62.2667 H   0  0  0  0  0  0  0  0  0  0  0  0
   12.4508    2.7224  -58.7719 H   0  0  0  0  0  0  0  0  0  0  0  0
   14.3316    4.4454  -58.2519 H   0  0  0  0  0  0  0  0  0  0  0  0
   10.8267    6.3591  -60.5512 H   0  0  0  0  0  0  0  0  0  0  0  0
    9.1337    3.7260  -58.2810 H   0  0  0  0  0  0  0  0  0  0  0  0
    7.9300    1.7970  -57.1700 H   0  0  0  0  0  0  0  0  0  0  0  0
    7.6710   -1.9390  -54.6510 H   0  0  0  0  0  0  0  0  0  0  0  0
    8.7588   -3.8299  -53.4548 H   0  0  0  0  0  0  0  0  0  0  0  0
    9.6053   -2.5017  -52.5734 H   0  0  0  0  0  0  0  0  0  0  0  0
    9.7415   -4.6395  -51.3050 H   0  0  0  0  0  0  0  0  0  0  0  0
    8.8193   -3.7758  -49.1525 H   0  0  0  0  0  0  0  0  0  0  0  0
    9.6223   -2.4608  -50.0848 H   0  0  0  0  0  0  0  0  0  0  0  0
    7.4355   -1.7007  -49.1428 H   0  0  0  0  0  0  0  0  0  0  0  0
    6.3091   -3.9258  -49.1205 H   0  0  0  0  0  0  0  0  0  0  0  0
    5.3309   -2.7159  -50.0255 H   0  0  0  0  0  0  0  0  0  0  0  0
    5.4373   -4.8861  -51.2527 H   0  0  0  0  0  0  0  0  0  0  0  0
    7.6506   -5.6347  -50.3746 H   0  0  0  0  0  0  0  0  0  0  0  0
    7.6276   -5.6467  -52.1739 H   0  0  0  0  0  0  0  0  0  0  0  0
    6.2671   -3.9663  -53.4184 H   0  0  0  0  0  0  0  0  0  0  0  0
    5.3093   -2.7352  -52.5038 H   0  0  0  0  0  0  0  0  0  0  0  0
    6.4563   -0.8850  -51.2929 H   0  0  0  0  0  0  0  0  0  0  0  0
    8.2572   -0.7782  -51.3079 H   0  0  0  0  0  0  0  0  0  0  0  0
  1  2  2  0
  2  3  1  0
  3  4  2  0
  4  5  1  0
  5  6  2  0
  6  7  1  0
  7  8  2  0
  8  9  1  0
  9 10  2  0
 10 11  1  0
 11 12  2  0
 12 13  1  0
 13 14  1  0
 14 15  1  0
 15 16  2  0
 16 17  1  0
 17 18  1  0
 13 19  2  0
  8 20  1  0
  2 21  1  0
 22 21  1  6
 22 23  1  0
 23 24  1  0
 24 25  1  0
 25 26  1  0
 26 27  1  0
 27 28  1  0
 28 29  1  0
 28 30  1  0
 26 31  1  0
 20  5  1  0
 30 22  1  0
 19  9  1  0
 31 22  1  0
 18 14  2  0
 29 24  1  0
  3 32  1  0
  4 33  1  0
  6 34  1  0
  7 35  1  0
 10 36  1  0
 11 37  1  0
 12 38  1  0
 15 39  1  0
 16 40  1  0
 18 41  1  0
 19 42  1  0
 20 43  1  0
 21 44  1  0
 23 45  1  0
 23 46  1  0
 24 47  1  6
 25 48  1  0
 25 49  1  0
 26 50  1  1
 27 51  1  0
 27 52  1  0
 28 53  1  1
 29 54  1  0
 29 55  1  0
 30 56  1  0
 30 57  1  0
 31 58  1  0
 31 59  1  0
M  END
>  <meeko>  (88) 
{"is_sidechain": false}

$$$$

     RDKit          3D

 59 64  0  0  0  0  0  0  0  0999 V2000
   11.5890   -1.8450  -54.0190 O   0  0  0  0  0  0  0  0  0  0  0  0
   10.8010   -2.7340  -53.7200 C   0  0  0  0  0  0  0  0  0  0  0  0
   10.0120   -2.6170  -52.4670 C   0  0  0  0  0  0  0  0  0  0  0  0
    8.7380   -2.2440  -52.2760 C   0  0  0  0  0  0  0  0  0  0  0  0
    7.8610   -1.7900  -53.2880 C   0  0  0  0  0  0  0  0  0  0  0  0
    6.6940   -2.2620  -53.8520 C   0  0  0  0  0  0  0  0  0  0  0  0
    6.2880   -1.3380  -54.8430 C   0  0  0  0  0  0  0  0  0  0  0  0
    7.2170   -0.3130  -54.8840 C   0  0  0  0  0  0  0  0  0  0  0  0
    7.2850    0.8810  -55.7300 C   0  0  0  0  0  0  0  0  0  0  0  0
    6.1200    1.5090  -56.1880 C   0  0  0  0  0  0  0  0  0  0  0  0
    6.1960    2.6440  -56.9980 C   0  0  0  0  0  0  0  0  0  0  0  0
    7.4390    3.1640  -57.3590 C   0  0  0  0  0  0  0  0  0  0  0  0
    8.6180    2.5540  -56.9130 C   0  0  0  0  0  0  0  0  0  0  0  0
    9.9130    3.1020  -57.2990 C   0  0  0  0  0  0  0  0  0  0  0  0
   11.1940    2.4750  -57.1550 C   0  0  0  0  0  0  0  0  0  0  0  0
   12.2240    3.2570  -57.6310 C   0  0  0  0  0  0  0  0  0  0  0  0
   11.6600    4.7420  -58.2620 S   0  0  0  0  0  0  0  0  0  0  0  0
   10.0360    4.3420  -57.8990 C   0  0  0  0  0  0  0  0  0  0  0  0
    8.5300    1.4100  -56.1040 C   0  0  0  0  0  0  0  0  0  0  0  0
    8.1840   -0.6280  -53.9520 N   0  0  0  0  0  0  0  0  0  0  0  0
   10.6350   -3.9110  -54.3990 N   0  0  0  0  0  0  0  0  0  0  0  0
   11.2970   -4.2620  -55.6570 C   0  0  2  0  0  0  0  0  0  0  0  0
   10.3970   -5.1530  -56.5480 C   0  0  0  0  0  0  0  0  0  0  0  0
   11.1360   -5.5480  -57.8410 C   0  0  1  0  0  0  0  0  0  0  0  0
   11.5260   -4.2740  -58.6090 C   0  0  0  0  0  0  0  0  0  0  0  0
   12.4500   -3.3970  -57.7470 C   0  0  2  0  0  0  0  0  0  0  0  0
   13.7140   -4.1940  -57.3870 C   0  0  0  0  0  0  0  0  0  0  0  0
   13.3300   -5.4630  -56.6100 C   0  0  2  0  0  0  0  0  0  0  0  0
   12.4070   -6.3310  -57.4790 C   0  0  0  0  0  0  0  0  0  0  0  0
   12.5850   -5.0620  -55.3270 C   0  0  0  0  0  0  0  0  0  0  0  0
   11.7110   -3.0010  -56.4560 C   0  0  0  0  0  0  0  0  0  0  0  0
   10.5599   -2.8778  -51.5495 H   0  0  0  0  0  0  0  0  0  0  0  0
    8.3439   -2.2953  -51.2503 H   0  0  0  0  0  0  0  0  0  0  0  0
    6.1722   -3.1913  -53.5796 H   0  0  0  0  0  0  0  0  0  0  0  0
    5.3894   -1.4199  -55.4722 H   0  0  0  0  0  0  0  0  0  0  0  0
    5.1363    1.1046  -55.9072 H   0  0  0  0  0  0  0  0  0  0  0  0
    5.2742    3.1288  -57.3519 H   0  0  0  0  0  0  0  0  0  0  0  0
    7.4934    4.0581  -57.9975 H   0  0  0  0  0  0  0  0  0  0  0  0
   11.3390    1.4783  -56.7128 H   0  0  0  0  0  0  0  0  0  0  0  0
   13.2831    2.9608  -57.6077 H   0  0  0  0  0  0  0  0  0  0  0  0
    9.1824    5.0000  -58.1191 H   0  0  0  0  0  0  0  0  0  0  0  0
    9.4520    0.9202  -55.7576 H   0  0  0  0  0  0  0  0  0  0  0  0
    9.0130   -0.0760  -53.7840 H   0  0  0  0  0  0  0  0  0  0  0  0
    9.9230   -4.5440  -54.0550 H   0  0  0  0  0  0  0  0  0  0  0  0
   10.1271   -6.0637  -55.9932 H   0  0  0  0  0  0  0  0  0  0  0  0
    9.4917   -4.5881  -56.8151 H   0  0  0  0  0  0  0  0  0  0  0  0
   10.4821   -6.1733  -58.4667 H   0  0  0  0  0  0  0  0  0  0  0  0
   12.0501   -4.5537  -59.5348 H   0  0  0  0  0  0  0  0  0  0  0  0
   10.6149   -3.7069  -58.8504 H   0  0  0  0  0  0  0  0  0  0  0  0
   12.7314   -2.4917  -58.3050 H   0  0  0  0  0  0  0  0  0  0  0  0
   14.2415   -4.4772  -58.3098 H   0  0  0  0  0  0  0  0  0  0  0  0
   14.3685   -3.5704  -56.7603 H   0  0  0  0  0  0  0  0  0  0  0  0
   14.2373   -6.0295  -56.3533 H   0  0  0  0  0  0  0  0  0  0  0  0
   12.9354   -6.6141  -58.4013 H   0  0  0  0  0  0  0  0  0  0  0  0
   12.1267   -7.2341  -56.9171 H   0  0  0  0  0  0  0  0  0  0  0  0
   12.3111   -5.9710  -54.7714 H   0  0  0  0  0  0  0  0  0  0  0  0
   13.2473   -4.4248  -54.7225 H   0  0  0  0  0  0  0  0  0  0  0  0
   12.3745   -2.3811  -55.8351 H   0  0  0  0  0  0  0  0  0  0  0  0
   10.8052   -2.4374  -56.7241 H   0  0  0  0  0  0  0  0  0  0  0  0
  1  2  2  0
  2  3  1  0
  3  4  2  0
  4  5  1  0
  5  6  2  0
  6  7  1  0
  7  8  2  0
  8  9  1  0
  9 10  2  0
 10 11  1  0
 11 12  2  0
 12 13  1  0
 13 14  1  0
 14 15  1  0
 15 16  2  0
 16 17  1  0
 17 18  1  0
 13 19  2  0
  8 20  1  0
  2 21  1  0
 22 21  1  1
 22 23  1  0
 23 24  1  0
 24 25  1  0
 25 26  1  0
 26 27  1  0
 27 28  1  0
 28 29  1  0
 28 30  1  0
 26 31  1  0
 20  5  1  0
 30 22  1  0
 19  9  1  0
 31 22  1  0
 18 14  2  0
 29 24  1  0
  3 32  1  0
  4 33  1  0
  6 34  1  0
  7 35  1  0
 10 36  1  0
 11 37  1  0
 12 38  1  0
 15 39  1  0
 16 40  1  0
 18 41  1  0
 19 42  1  0
 20 43  1  0
 21 44  1  0
 23 45  1  0
 23 46  1  0
 24 47  1  6
 25 48  1  0
 25 49  1  0
 26 50  1  6
 27 51  1  0
 27 52  1  0
 28 53  1  1
 29 54  1  0
 29 55  1  0
 30 56  1  0
 30 57  1  0
 31 58  1  0
 31 59  1  0
M  END
>  <meeko>  (89) 
{"is_sidechain": false}

$$$$

     RDKit          3D

 75 81  0  0  0  0  0  0  0  0999 V2000
    9.8810   -3.4420  -50.4070 C   0  0  0  0  0  0  0  0  0  0  0  0
    8.4590   -3.9410  -50.7620 C   0  0  0  0  0  0  0  0  0  0  0  0
    8.1890   -5.1080  -49.7800 C   0  0  0  0  0  0  0  0  0  0  0  0
    7.4010   -2.8030  -50.5890 C   0  0  2  0  0  0  0  0  0  0  0  0
    5.9830   -3.3140  -50.9290 C   0  0  0  0  0  0  0  0  0  0  0  0
    5.9350   -3.8190  -52.3800 C   0  0  2  0  0  0  0  0  0  0  0  0
    6.9670   -4.9390  -52.5870 C   0  0  0  0  0  0  0  0  0  0  0  0
    8.3840   -4.4250  -52.2470 C   0  0  1  0  0  0  0  0  0  0  0  0
    8.6920   -3.2610  -53.2190 C   0  0  0  0  0  0  0  0  0  0  0  0
    7.6890   -2.0960  -53.0200 C   0  0  1  0  0  0  0  0  0  0  0  0
    7.9500   -0.9850  -53.9430 N   0  0  0  0  0  0  0  0  0  0  0  0
    7.0300   -0.0040  -54.2590 C   0  0  0  0  0  0  0  0  0  0  0  0
    5.9090    0.0830  -53.7730 O   0  0  0  0  0  0  0  0  0  0  0  0
    7.4610    0.9710  -55.2980 C   0  0  0  0  0  0  0  0  0  0  0  0
    6.5410    1.5790  -56.1560 C   0  0  0  0  0  0  0  0  0  0  0  0
    6.9610    2.4960  -57.1260 C   0  0  0  0  0  0  0  0  0  0  0  0
    8.3330    2.7880  -57.2190 C   0  0  0  0  0  0  0  0  0  0  0  0
    9.2690    2.1750  -56.3840 C   0  0  0  0  0  0  0  0  0  0  0  0
    8.8300    1.2500  -55.4160 C   0  0  0  0  0  0  0  0  0  0  0  0
   10.5460    2.6730  -56.7430 C   0  0  0  0  0  0  0  0  0  0  0  0
   10.3920    3.5690  -57.7830 C   0  0  0  0  0  0  0  0  0  0  0  0
   11.4260    4.3280  -58.4780 C   0  0  0  0  0  0  0  0  0  0  0  0
   12.6760    3.7510  -58.7200 C   0  0  0  0  0  0  0  0  0  0  0  0
   13.6710    4.4770  -59.3780 C   0  0  0  0  0  0  0  0  0  0  0  0
   13.4160    5.7800  -59.8050 C   0  0  0  0  0  0  0  0  0  0  0  0
   12.1660    6.3560  -59.5800 C   0  0  0  0  0  0  0  0  0  0  0  0
   11.1720    5.6310  -58.9200 C   0  0  0  0  0  0  0  0  0  0  0  0
    9.0360    3.6490  -58.0520 N   0  0  0  0  0  0  0  0  0  0  0  0
    8.4280    4.4990  -59.0750 C   0  0  0  0  0  0  0  0  0  0  0  0
    8.0740    3.7280  -60.3260 C   0  0  0  0  0  0  0  0  0  0  0  0
    9.0790    3.3520  -61.2330 C   0  0  0  0  0  0  0  0  0  0  0  0
    8.7680    2.6430  -62.3960 C   0  0  0  0  0  0  0  0  0  0  0  0
    7.4480    2.2910  -62.6720 C   0  0  0  0  0  0  0  0  0  0  0  0
    6.4400    2.6540  -61.7720 C   0  0  0  0  0  0  0  0  0  0  0  0
    5.0470    2.2820  -62.0500 N   0  0  0  0  0  0  0  0  0  0  0  0
    4.7490    1.9930  -63.2180 O   0  0  0  0  0  0  0  0  0  0  0  0
    4.2490    2.2850  -61.1010 O   0  0  0  0  0  0  0  0  0  0  0  0
    6.7460    3.3670  -60.6030 C   0  0  0  0  0  0  0  0  0  0  0  0
    6.2710   -2.6530  -53.3230 C   0  0  0  0  0  0  0  0  0  0  0  0
    7.7010   -1.6250  -51.5450 C   0  0  0  0  0  0  0  0  0  0  0  0
    9.9934   -3.4026  -49.3135 H   0  0  0  0  0  0  0  0  0  0  0  0
   10.6273   -4.1319  -50.8277 H   0  0  0  0  0  0  0  0  0  0  0  0
   10.0326   -2.4370  -50.8277 H   0  0  0  0  0  0  0  0  0  0  0  0
    8.2733   -4.7437  -48.7455 H   0  0  0  0  0  0  0  0  0  0  0  0
    7.1759   -5.5021  -49.9485 H   0  0  0  0  0  0  0  0  0  0  0  0
    8.9260   -5.9070  -49.9485 H   0  0  0  0  0  0  0  0  0  0  0  0
    7.4530   -2.4749  -49.5404 H   0  0  0  0  0  0  0  0  0  0  0  0
    5.7207   -4.1376  -50.2487 H   0  0  0  0  0  0  0  0  0  0  0  0
    5.2660   -2.4880  -50.8123 H   0  0  0  0  0  0  0  0  0  0  0  0
    4.9294   -4.2104  -52.5936 H   0  0  0  0  0  0  0  0  0  0  0  0
    6.7204   -5.7868  -51.9309 H   0  0  0  0  0  0  0  0  0  0  0  0
    6.9434   -5.2604  -53.6387 H   0  0  0  0  0  0  0  0  0  0  0  0
    9.1244   -5.2307  -52.3592 H   0  0  0  0  0  0  0  0  0  0  0  0
    9.7120   -2.8946  -53.0308 H   0  0  0  0  0  0  0  0  0  0  0  0
    8.6017   -3.6309  -54.2510 H   0  0  0  0  0  0  0  0  0  0  0  0
    8.7230   -1.1030  -54.5850 H   0  0  0  0  0  0  0  0  0  0  0  0
    5.4724    1.3336  -56.0678 H   0  0  0  0  0  0  0  0  0  0  0  0
    6.2356    2.9764  -57.7990 H   0  0  0  0  0  0  0  0  0  0  0  0
    9.5560    0.7504  -54.7577 H   0  0  0  0  0  0  0  0  0  0  0  0
   11.5000    2.3931  -56.2724 H   0  0  0  0  0  0  0  0  0  0  0  0
   12.8767    2.7208  -58.3908 H   0  0  0  0  0  0  0  0  0  0  0  0
   14.6556    4.0213  -59.5595 H   0  0  0  0  0  0  0  0  0  0  0  0
   14.2011    6.3536  -60.3194 H   0  0  0  0  0  0  0  0  0  0  0  0
   11.9632    7.3815  -59.9225 H   0  0  0  0  0  0  0  0  0  0  0  0
   10.1855    6.0859  -58.7468 H   0  0  0  0  0  0  0  0  0  0  0  0
    7.5110    4.9463  -58.6639 H   0  0  0  0  0  0  0  0  0  0  0  0
    9.1623    5.2699  -59.3516 H   0  0  0  0  0  0  0  0  0  0  0  0
   10.1254    3.6196  -61.0245 H   0  0  0  0  0  0  0  0  0  0  0  0
    9.5680    2.3615  -63.0965 H   0  0  0  0  0  0  0  0  0  0  0  0
    7.2012    1.7337  -63.5877 H   0  0  0  0  0  0  0  0  0  0  0  0
    5.9442    3.6435  -59.9026 H   0  0  0  0  0  0  0  0  0  0  0  0
    5.5306   -1.8514  -53.1847 H   0  0  0  0  0  0  0  0  0  0  0  0
    6.2475   -3.0179  -54.3605 H   0  0  0  0  0  0  0  0  0  0  0  0
    8.6919   -1.2109  -51.3069 H   0  0  0  0  0  0  0  0  0  0  0  0
    6.9234   -0.8581  -51.4138 H   0  0  0  0  0  0  0  0  0  0  0  0
  1  2  1  0
  2  3  1  0
  2  4  1  0
  4  5  1  0
  5  6  1  0
  6  7  1  0
  7  8  1  0
  8  9  1  0
  9 10  1  0
 10 11  1  6
 11 12  1  0
 12 13  2  0
 12 14  1  0
 14 15  2  0
 15 16  1  0
 16 17  2  0
 17 18  1  0
 18 19  2  0
 18 20  1  0
 20 21  2  0
 21 22  1  0
 22 23  2  0
 23 24  1  0
 24 25  2  0
 25 26  1  0
 26 27  2  0
 21 28  1  0
 28 29  1  0
 29 30  1  0
 30 31  2  0
 31 32  1  0
 32 33  2  0
 33 34  1  0
 34 35  1  0
 35 36  2  0
 35 37  1  0
 34 38  2  0
 10 39  1  0
 10 40  1  0
  8  2  1  0
 19 14  1  0
 27 22  1  0
 38 30  1  0
 40  4  1  0
 39  6  1  0
 28 17  1  0
  1 41  1  0
  1 42  1  0
  1 43  1  0
  3 44  1  0
  3 45  1  0
  3 46  1  0
  4 47  1  1
  5 48  1  0
  5 49  1  0
  6 50  1  6
  7 51  1  0
  7 52  1  0
  8 53  1  1
  9 54  1  0
  9 55  1  0
 11 56  1  0
 15 57  1  0
 16 58  1  0
 19 59  1  0
 20 60  1  0
 23 61  1  0
 24 62  1  0
 25 63  1  0
 26 64  1  0
 27 65  1  0
 29 66  1  0
 29 67  1  0
 31 68  1  0
 32 69  1  0
 33 70  1  0
 38 71  1  0
 39 72  1  0
 39 73  1  0
 40 74  1  0
 40 75  1  0
M  CHG  2  35   1  37  -1
M  END
>  <meeko>  (90) 
{"is_sidechain": false}

$$$$

     RDKit          3D

 57 61  0  0  0  0  0  0  0  0999 V2000
   13.0530    7.8940  -62.3170 O   0  0  0  0  0  0  0  0  0  0  0  0
   13.0660    7.8900  -61.0920 C   0  0  0  0  0  0  0  0  0  0  0  0
   12.3830    6.8740  -60.2590 C   0  0  0  0  0  0  0  0  0  0  0  0
   12.9570    5.6870  -60.0250 C   0  0  0  0  0  0  0  0  0  0  0  0
   12.3480    4.6420  -59.1920 C   0  0  0  0  0  0  0  0  0  0  0  0
   11.0950    4.1360  -59.5460 C   0  0  0  0  0  0  0  0  0  0  0  0
   10.4790    3.1470  -58.7670 C   0  0  0  0  0  0  0  0  0  0  0  0
   11.0870    2.6340  -57.6080 C   0  0  0  0  0  0  0  0  0  0  0  0
   10.4260    1.5830  -56.8070 C   0  0  0  0  0  0  0  0  0  0  0  0
   11.0290    0.3630  -56.5100 C   0  0  0  0  0  0  0  0  0  0  0  0
   10.3630   -0.6110  -55.7320 C   0  0  0  0  0  0  0  0  0  0  0  0
   11.1060   -1.8750  -55.4550 C   0  0  0  0  0  0  0  0  0  0  0  0
   11.4830   -2.0630  -54.2600 O   0  0  0  0  0  0  0  0  0  0  0  0
   11.3360   -2.6330  -56.4460 O   0  0  0  0  0  0  0  0  0  0  0  0
    9.0800   -0.3180  -55.2570 C   0  0  0  0  0  0  0  0  0  0  0  0
    8.2100   -1.1420  -54.3660 C   0  0  0  0  0  0  0  0  0  0  0  0
    6.9930   -1.1090  -54.5470 O   0  0  0  0  0  0  0  0  0  0  0  0
    8.8060   -1.9360  -53.4210 N   0  0  0  0  0  0  0  0  0  0  0  0
    8.1130   -2.7010  -52.3870 C   0  0  2  0  0  0  0  0  0  0  0  0
    7.6810   -4.1010  -52.8940 C   0  0  0  0  0  0  0  0  0  0  0  0
    6.9950   -4.8980  -51.7690 C   0  0  1  0  0  0  0  0  0  0  0  0
    7.9790   -5.0790  -50.6020 C   0  0  0  0  0  0  0  0  0  0  0  0
    8.4100   -3.7080  -50.0640 C   0  0  2  0  0  0  0  0  0  0  0  0
    7.1730   -2.9380  -49.5770 C   0  0  0  0  0  0  0  0  0  0  0  0
    6.1840   -2.7440  -50.7370 C   0  0  2  0  0  0  0  0  0  0  0  0
    5.7620   -4.1210  -51.2780 C   0  0  0  0  0  0  0  0  0  0  0  0
    6.8680   -1.9460  -51.8610 C   0  0  0  0  0  0  0  0  0  0  0  0
    9.0860   -2.9120  -51.1930 C   0  0  0  0  0  0  0  0  0  0  0  0
    8.5560    0.9290  -55.6040 C   0  0  0  0  0  0  0  0  0  0  0  0
    9.1770    1.8690  -56.3690 N   0  0  0  0  0  0  0  0  0  0  0  0
   12.3330    3.1780  -57.2490 C   0  0  0  0  0  0  0  0  0  0  0  0
   12.9540    4.1660  -58.0250 C   0  0  0  0  0  0  0  0  0  0  0  0
   13.6192    8.6906  -60.5792 H   0  0  0  0  0  0  0  0  0  0  0  0
   11.3954    7.0963  -59.8286 H   0  0  0  0  0  0  0  0  0  0  0  0
   13.9371    5.4838  -60.4811 H   0  0  0  0  0  0  0  0  0  0  0  0
   10.5872    4.5172  -60.4442 H   0  0  0  0  0  0  0  0  0  0  0  0
    9.4942    2.7622  -59.0704 H   0  0  0  0  0  0  0  0  0  0  0  0
   12.0409    0.1540  -56.8874 H   0  0  0  0  0  0  0  0  0  0  0  0
    9.8140   -1.7760  -53.2620 H   0  0  0  0  0  0  0  0  0  0  0  0
    6.9785   -3.9809  -53.7319 H   0  0  0  0  0  0  0  0  0  0  0  0
    8.5756   -4.6503  -53.2226 H   0  0  0  0  0  0  0  0  0  0  0  0
    6.6859   -5.8834  -52.1478 H   0  0  0  0  0  0  0  0  0  0  0  0
    7.4903   -5.6490  -49.7981 H   0  0  0  0  0  0  0  0  0  0  0  0
    8.8662   -5.6233  -50.9578 H   0  0  0  0  0  0  0  0  0  0  0  0
    9.1131   -3.8443  -49.2291 H   0  0  0  0  0  0  0  0  0  0  0  0
    6.6836   -3.5064  -48.7723 H   0  0  0  0  0  0  0  0  0  0  0  0
    7.4860   -1.9528  -49.2009 H   0  0  0  0  0  0  0  0  0  0  0  0
    5.2985   -2.1970  -50.3810 H   0  0  0  0  0  0  0  0  0  0  0  0
    5.2685   -4.6907  -50.4768 H   0  0  0  0  0  0  0  0  0  0  0  0
    5.0679   -3.9792  -52.1195 H   0  0  0  0  0  0  0  0  0  0  0  0
    6.1562   -1.8032  -52.6874 H   0  0  0  0  0  0  0  0  0  0  0  0
    7.1872   -0.9725  -51.4604 H   0  0  0  0  0  0  0  0  0  0  0  0
    9.3969   -1.9308  -50.8049 H   0  0  0  0  0  0  0  0  0  0  0  0
    9.9582   -3.4804  -51.5484 H   0  0  0  0  0  0  0  0  0  0  0  0
    7.5525    1.1737  -55.2258 H   0  0  0  0  0  0  0  0  0  0  0  0
   12.8324    2.8193  -56.3369 H   0  0  0  0  0  0  0  0  0  0  0  0
   13.9279    4.5712  -57.7130 H   0  0  0  0  0  0  0  0  0  0  0  0
  1  2  2  0
  2  3  1  0
  3  4  2  0
  4  5  1  0
  5  6  1  0
  6  7  2  0
  7  8  1  0
  8  9  1  0
  9 10  2  0
 10 11  1  0
 11 12  1  0
 12 13  2  0
 12 14  1  0
 11 15  2  0
 15 16  1  0
 16 17  2  0
 16 18  1  0
 19 18  1  6
 19 20  1  0
 20 21  1  0
 21 22  1  0
 22 23  1  0
 23 24  1  0
 24 25  1  0
 25 26  1  0
 25 27  1  0
 23 28  1  0
 15 29  1  0
 29 30  2  0
  8 31  2  0
 31 32  1  0
 32  5  2  0
 30  9  1  0
 27 19  1  0
 28 19  1  0
 26 21  1  0
  2 33  1  0
  3 34  1  0
  4 35  1  0
  6 36  1  0
  7 37  1  0
 10 38  1  0
 18 39  1  0
 20 40  1  0
 20 41  1  0
 21 42  1  6
 22 43  1  0
 22 44  1  0
 23 45  1  1
 24 46  1  0
 24 47  1  0
 25 48  1  1
 26 49  1  0
 26 50  1  0
 27 51  1  0
 27 52  1  0
 28 53  1  0
 28 54  1  0
 29 55  1  0
 31 56  1  0
 32 57  1  0
M  CHG  1  14  -1
M  END
>  <meeko>  (91) 
{"is_sidechain": false}

$$$$

     RDKit          3D

 53 58  0  0  0  0  0  0  0  0999 V2000
    5.5720   -0.3760  -53.9320 O   0  0  0  0  0  0  0  0  0  0  0  0
    6.7480   -0.2870  -54.2630 C   0  0  0  0  0  0  0  0  0  0  0  0
    7.7790   -1.0190  -53.7120 N   0  0  0  0  0  0  0  0  0  0  0  0
    7.6550   -2.0190  -52.6530 C   0  0  2  0  0  0  0  0  0  0  0  0
    6.5160   -3.0240  -52.9500 C   0  0  0  0  0  0  0  0  0  0  0  0
    6.4370   -4.0930  -51.8460 C   0  0  1  0  0  0  0  0  0  0  0  0
    7.7690   -4.8570  -51.7800 C   0  0  0  0  0  0  0  0  0  0  0  0
    8.9160   -3.8850  -51.4670 C   0  0  2  0  0  0  0  0  0  0  0  0
    8.6500   -3.2020  -50.1150 C   0  0  0  0  0  0  0  0  0  0  0  0
    7.3230   -2.4290  -50.1710 C   0  0  2  0  0  0  0  0  0  0  0  0
    6.1790   -3.4060  -50.4940 C   0  0  0  0  0  0  0  0  0  0  0  0
    7.4020   -1.3600  -51.2740 C   0  0  0  0  0  0  0  0  0  0  0  0
    8.9850   -2.8130  -52.5660 C   0  0  0  0  0  0  0  0  0  0  0  0
    7.1840    0.6660  -55.3400 C   0  0  0  0  0  0  0  0  0  0  0  0
    6.2410    1.1320  -56.2520 C   0  0  0  0  0  0  0  0  0  0  0  0
    6.6390    2.0150  -57.2520 C   0  0  0  0  0  0  0  0  0  0  0  0
    7.9910    2.3610  -57.2510 C   0  0  0  0  0  0  0  0  0  0  0  0
    8.7180    3.1890  -58.0710 N   0  0  0  0  0  0  0  0  0  0  0  0
   10.0430    3.2250  -57.6850 C   0  0  0  0  0  0  0  0  0  0  0  0
   11.0520    4.0340  -58.3700 C   0  0  0  0  0  0  0  0  0  0  0  0
   12.4150    3.7390  -58.2200 C   0  0  0  0  0  0  0  0  0  0  0  0
   13.3860    4.5080  -58.8650 C   0  0  0  0  0  0  0  0  0  0  0  0
   13.0080    5.5790  -59.6710 C   0  0  0  0  0  0  0  0  0  0  0  0
   11.6580    5.8800  -59.8340 C   0  0  0  0  0  0  0  0  0  0  0  0
   10.6850    5.1120  -59.1880 C   0  0  0  0  0  0  0  0  0  0  0  0
   10.1490    2.4000  -56.5750 C   0  0  0  0  0  0  0  0  0  0  0  0
    8.8740    1.8540  -56.3050 C   0  0  0  0  0  0  0  0  0  0  0  0
    8.5070    0.9960  -55.3240 N   0  0  0  0  0  0  0  0  0  0  0  0
    8.6970   -0.8210  -54.1070 H   0  0  0  0  0  0  0  0  0  0  0  0
    5.5596   -2.4828  -52.9986 H   0  0  0  0  0  0  0  0  0  0  0  0
    6.7212   -3.5197  -53.9103 H   0  0  0  0  0  0  0  0  0  0  0  0
    5.6197   -4.7948  -52.0686 H   0  0  0  0  0  0  0  0  0  0  0  0
    7.7125   -5.6205  -50.9901 H   0  0  0  0  0  0  0  0  0  0  0  0
    7.9580   -5.3385  -52.7508 H   0  0  0  0  0  0  0  0  0  0  0  0
    9.8662   -4.4375  -51.4238 H   0  0  0  0  0  0  0  0  0  0  0  0
    8.5940   -3.9658  -49.3254 H   0  0  0  0  0  0  0  0  0  0  0  0
    9.4686   -2.5004  -49.8967 H   0  0  0  0  0  0  0  0  0  0  0  0
    7.1362   -1.9463  -49.2004 H   0  0  0  0  0  0  0  0  0  0  0  0
    6.1180   -4.1689  -49.7039 H   0  0  0  0  0  0  0  0  0  0  0  0
    5.2329   -2.8475  -50.5485 H   0  0  0  0  0  0  0  0  0  0  0  0
    6.4535   -0.8039  -51.3074 H   0  0  0  0  0  0  0  0  0  0  0  0
    8.2347   -0.6776  -51.0483 H   0  0  0  0  0  0  0  0  0  0  0  0
    9.8054   -2.1166  -52.3381 H   0  0  0  0  0  0  0  0  0  0  0  0
    9.1592   -3.3114  -53.5310 H   0  0  0  0  0  0  0  0  0  0  0  0
    5.1927    0.8060  -56.1832 H   0  0  0  0  0  0  0  0  0  0  0  0
    5.9332    2.4143  -57.9952 H   0  0  0  0  0  0  0  0  0  0  0  0
    8.3310    3.7200  -58.8380 H   0  0  0  0  0  0  0  0  0  0  0  0
   12.7223    2.8930  -57.5877 H   0  0  0  0  0  0  0  0  0  0  0  0
   14.4516    4.2673  -58.7362 H   0  0  0  0  0  0  0  0  0  0  0  0
   13.7734    6.1854  -60.1774 H   0  0  0  0  0  0  0  0  0  0  0  0
   11.3569    6.7237  -60.4723 H   0  0  0  0  0  0  0  0  0  0  0  0
    9.6208    5.3558  -59.3227 H   0  0  0  0  0  0  0  0  0  0  0  0
   11.0680    2.2043  -56.0030 H   0  0  0  0  0  0  0  0  0  0  0  0
  1  2  2  0
  2  3  1  0
  4  3  1  6
  4  5  1  0
  5  6  1  0
  6  7  1  0
  7  8  1  0
  8  9  1  0
  9 10  1  0
 10 11  1  0
 10 12  1  0
  8 13  1  0
  2 14  1  0
 14 15  1  0
 15 16  2  0
 16 17  1  0
 17 18  1  0
 18 19  1  0
 19 20  1  0
 20 21  2  0
 21 22  1  0
 22 23  2  0
 23 24  1  0
 24 25  2  0
 19 26  2  0
 26 27  1  0
 27 28  1  0
 12  4  1  0
 28 14  2  0
 13  4  1  0
 27 17  2  0
 11  6  1  0
 25 20  1  0
  3 29  1  0
  5 30  1  0
  5 31  1  0
  6 32  1  6
  7 33  1  0
  7 34  1  0
  8 35  1  1
  9 36  1  0
  9 37  1  0
 10 38  1  1
 11 39  1  0
 11 40  1  0
 12 41  1  0
 12 42  1  0
 13 43  1  0
 13 44  1  0
 15 45  1  0
 16 46  1  0
 18 47  1  0
 21 48  1  0
 22 49  1  0
 23 50  1  0
 24 51  1  0
 25 52  1  0
 26 53  1  0
M  END
>  <meeko>  (92) 
{"is_sidechain": false}

$$$$

     RDKit          3D

 53 58  0  0  0  0  0  0  0  0999 V2000
    5.5510   -0.7240  -54.2010 O   0  0  0  0  0  0  0  0  0  0  0  0
    6.7310   -0.4640  -54.3920 C   0  0  0  0  0  0  0  0  0  0  0  0
    7.7940   -1.0610  -53.7440 N   0  0  0  0  0  0  0  0  0  0  0  0
    7.6610   -2.0300  -52.6520 C   0  0  2  0  0  0  0  0  0  0  0  0
    7.3940   -1.3270  -51.2990 C   0  0  0  0  0  0  0  0  0  0  0  0
    7.3160   -2.3600  -50.1600 C   0  0  1  0  0  0  0  0  0  0  0  0
    6.1830   -3.3580  -50.4570 C   0  0  0  0  0  0  0  0  0  0  0  0
    6.4550   -4.0900  -51.7830 C   0  0  2  0  0  0  0  0  0  0  0  0
    7.7930   -4.8390  -51.6830 C   0  0  0  0  0  0  0  0  0  0  0  0
    8.9290   -3.8460  -51.3960 C   0  0  2  0  0  0  0  0  0  0  0  0
    8.6490   -3.1200  -50.0710 C   0  0  0  0  0  0  0  0  0  0  0  0
    8.9950   -2.8140  -52.5330 C   0  0  0  0  0  0  0  0  0  0  0  0
    6.5330   -3.0580  -52.9230 C   0  0  0  0  0  0  0  0  0  0  0  0
    7.1790    0.5910  -55.3660 C   0  0  0  0  0  0  0  0  0  0  0  0
    6.2650    1.1350  -56.2000 C   0  0  0  0  0  0  0  0  0  0  0  0
    6.6860    2.1570  -57.1550 C   0  0  0  0  0  0  0  0  0  0  0  0
    7.9790    2.5060  -57.2050 C   0  0  0  0  0  0  0  0  0  0  0  0
    8.5990    3.3890  -58.0410 N   0  0  0  0  0  0  0  0  0  0  0  0
    9.8680    3.3030  -57.7230 C   0  0  0  0  0  0  0  0  0  0  0  0
   10.9270    4.0950  -58.3910 C   0  0  0  0  0  0  0  0  0  0  0  0
   10.6460    5.1370  -59.2830 C   0  0  0  0  0  0  0  0  0  0  0  0
   11.6880    5.8510  -59.8840 C   0  0  0  0  0  0  0  0  0  0  0  0
   13.0140    5.5310  -59.5980 C   0  0  0  0  0  0  0  0  0  0  0  0
   13.3040    4.4980  -58.7100 C   0  0  0  0  0  0  0  0  0  0  0  0
   12.2650    3.7830  -58.1090 C   0  0  0  0  0  0  0  0  0  0  0  0
   10.1740    2.3520  -56.6320 C   0  0  0  0  0  0  0  0  0  0  0  0
    8.9610    1.8950  -56.3240 C   0  0  0  0  0  0  0  0  0  0  0  0
    8.5200    0.9900  -55.3890 N   0  0  0  0  0  0  0  0  0  0  0  0
    8.6630   -0.5410  -53.7930 H   0  0  0  0  0  0  0  0  0  0  0  0
    8.2107   -0.6201  -51.0911 H   0  0  0  0  0  0  0  0  0  0  0  0
    6.4350   -0.7917  -51.3597 H   0  0  0  0  0  0  0  0  0  0  0  0
    7.1183   -1.8461  -49.2077 H   0  0  0  0  0  0  0  0  0  0  0  0
    6.1233   -4.0936  -49.6413 H   0  0  0  0  0  0  0  0  0  0  0  0
    5.2329   -2.8095  -50.5376 H   0  0  0  0  0  0  0  0  0  0  0  0
    5.6451   -4.8062  -51.9857 H   0  0  0  0  0  0  0  0  0  0  0  0
    7.7383   -5.5758  -50.8680 H   0  0  0  0  0  0  0  0  0  0  0  0
    7.9927   -5.3515  -52.6356 H   0  0  0  0  0  0  0  0  0  0  0  0
    9.8844   -4.3867  -51.3261 H   0  0  0  0  0  0  0  0  0  0  0  0
    8.5945   -3.8570  -49.2562 H   0  0  0  0  0  0  0  0  0  0  0  0
    9.4604   -2.4042  -49.8728 H   0  0  0  0  0  0  0  0  0  0  0  0
    9.8113   -2.1056  -52.3286 H   0  0  0  0  0  0  0  0  0  0  0  0
    9.1737   -3.3463  -53.4789 H   0  0  0  0  0  0  0  0  0  0  0  0
    6.7389   -3.5796  -53.8693 H   0  0  0  0  0  0  0  0  0  0  0  0
    5.5734   -2.5237  -52.9840 H   0  0  0  0  0  0  0  0  0  0  0  0
    5.2145    0.8113  -56.1600 H   0  0  0  0  0  0  0  0  0  0  0  0
    5.9529    2.6329  -57.8229 H   0  0  0  0  0  0  0  0  0  0  0  0
    9.6016    5.3952  -59.5121 H   0  0  0  0  0  0  0  0  0  0  0  0
   11.4601    6.6678  -60.5847 H   0  0  0  0  0  0  0  0  0  0  0  0
   13.8309    6.0939  -60.0733 H   0  0  0  0  0  0  0  0  0  0  0  0
   14.3500    4.2453  -58.4821 H   0  0  0  0  0  0  0  0  0  0  0  0
   12.4985    2.9679  -57.4082 H   0  0  0  0  0  0  0  0  0  0  0  0
   11.1473    2.0908  -56.1909 H   0  0  0  0  0  0  0  0  0  0  0  0
    9.1940    0.3440  -54.9950 H   0  0  0  0  0  0  0  0  0  0  0  0
  1  2  2  0
  2  3  1  0
  4  3  1  6
  4  5  1  0
  5  6  1  0
  6  7  1  0
  7  8  1  0
  8  9  1  0
  9 10  1  0
 10 11  1  0
 10 12  1  0
  8 13  1  0
  2 14  1  0
 14 15  2  0
 15 16  1  0
 16 17  2  0
 17 18  1  0
 18 19  2  0
 19 20  1  0
 20 21  2  0
 21 22  1  0
 22 23  2  0
 23 24  1  0
 24 25  2  0
 19 26  1  0
 26 27  2  0
 27 28  1  0
 12  4  1  0
 28 14  1  0
 13  4  1  0
 27 17  1  0
 11  6  1  0
 25 20  1  0
  3 29  1  0
  5 30  1  0
  5 31  1  0
  6 32  1  1
  7 33  1  0
  7 34  1  0
  8 35  1  6
  9 36  1  0
  9 37  1  0
 10 38  1  1
 11 39  1  0
 11 40  1  0
 12 41  1  0
 12 42  1  0
 13 43  1  0
 13 44  1  0
 15 45  1  0
 16 46  1  0
 21 47  1  0
 22 48  1  0
 23 49  1  0
 24 50  1  0
 25 51  1  0
 26 52  1  0
 28 53  1  0
M  END
>  <meeko>  (93) 
{"is_sidechain": false}

$$$$

     RDKit          3D

 55 58  0  0  0  0  0  0  0  0999 V2000
   13.4000    4.6050  -59.2530 C   0  0  0  0  0  0  0  0  0  0  0  0
   12.3020    5.6500  -59.4410 C   0  0  0  0  0  0  0  0  0  0  0  0
   12.9070    7.0060  -59.8100 C   0  0  0  0  0  0  0  0  0  0  0  0
   11.2110    5.2080  -60.4310 C   0  0  0  0  0  0  0  0  0  0  0  0
   10.1220    4.4020  -59.7700 N   0  0  0  0  0  0  0  0  0  0  0  0
    8.8480    4.2800  -60.5960 C   0  0  0  0  0  0  0  0  0  0  0  0
    7.7160    3.7820  -59.6850 C   0  0  0  0  0  0  0  0  0  0  0  0
    8.1950    2.9340  -58.5860 N   0  0  0  0  0  0  0  0  0  0  0  0
    7.2410    2.5840  -57.6260 C   0  0  0  0  0  0  0  0  0  0  0  0
    6.0880    3.0030  -57.6670 O   0  0  0  0  0  0  0  0  0  0  0  0
    7.6350    1.6960  -56.5150 C   0  0  0  0  0  0  0  0  0  0  0  0
    8.9400    1.7690  -56.0280 C   0  0  0  0  0  0  0  0  0  0  0  0
    9.3500    0.9490  -54.9730 C   0  0  0  0  0  0  0  0  0  0  0  0
    8.4100    0.0530  -54.4480 C   0  0  0  0  0  0  0  0  0  0  0  0
    8.5360   -0.8670  -53.4310 N   0  0  0  0  0  0  0  0  0  0  0  0
    7.3620   -1.5640  -53.2470 C   0  0  0  0  0  0  0  0  0  0  0  0
    7.2050   -2.6040  -52.2280 C   0  0  0  0  0  0  0  0  0  0  0  0
    6.2070   -3.5820  -52.3390 C   0  0  0  0  0  0  0  0  0  0  0  0
    6.0670   -4.5710  -51.3620 C   0  0  0  0  0  0  0  0  0  0  0  0
    6.9230   -4.5950  -50.2640 C   0  0  0  0  0  0  0  0  0  0  0  0
    7.9160   -3.6260  -50.1380 C   0  0  0  0  0  0  0  0  0  0  0  0
    8.0550   -2.6350  -51.1140 C   0  0  0  0  0  0  0  0  0  0  0  0
    6.4630   -1.0650  -54.1740 C   0  0  0  0  0  0  0  0  0  0  0  0
    7.1090   -0.0540  -54.9340 C   0  0  0  0  0  0  0  0  0  0  0  0
    6.7110    0.7750  -55.9990 C   0  0  0  0  0  0  0  0  0  0  0  0
    9.4000    2.1450  -58.8670 C   0  0  0  0  0  0  0  0  0  0  0  0
   10.5900    3.0280  -59.2920 C   0  0  0  0  0  0  0  0  0  0  0  0
   13.5711    4.4421  -58.1787 H   0  0  0  0  0  0  0  0  0  0  0  0
   13.0906    3.6595  -59.7225 H   0  0  0  0  0  0  0  0  0  0  0  0
   14.3290    4.9607  -59.7225 H   0  0  0  0  0  0  0  0  0  0  0  0
   11.7881    5.7582  -58.4744 H   0  0  0  0  0  0  0  0  0  0  0  0
   13.1539    7.5594  -58.8920 H   0  0  0  0  0  0  0  0  0  0  0  0
   13.8212    6.8508  -60.4017 H   0  0  0  0  0  0  0  0  0  0  0  0
   12.1808    7.5827  -60.4017 H   0  0  0  0  0  0  0  0  0  0  0  0
   10.7612    6.1043  -60.8831 H   0  0  0  0  0  0  0  0  0  0  0  0
   11.6871    4.5677  -61.1882 H   0  0  0  0  0  0  0  0  0  0  0  0
    9.8220    4.8810  -58.9090 H   0  0  0  0  0  0  0  0  0  0  0  0
    8.5821    5.2623  -61.0135 H   0  0  0  0  0  0  0  0  0  0  0  0
    9.0036    3.5707  -61.4222 H   0  0  0  0  0  0  0  0  0  0  0  0
    7.2018    4.6546  -59.2559 H   0  0  0  0  0  0  0  0  0  0  0  0
    7.0416    3.1706  -60.3025 H   0  0  0  0  0  0  0  0  0  0  0  0
    9.6517    2.4771  -56.4775 H   0  0  0  0  0  0  0  0  0  0  0  0
   10.3721    1.0052  -54.5703 H   0  0  0  0  0  0  0  0  0  0  0  0
    9.3760   -1.0060  -52.8870 H   0  0  0  0  0  0  0  0  0  0  0  0
    5.5273   -3.5708  -53.2038 H   0  0  0  0  0  0  0  0  0  0  0  0
    5.2790   -5.3322  -51.4604 H   0  0  0  0  0  0  0  0  0  0  0  0
    6.8154   -5.3771  -49.4980 H   0  0  0  0  0  0  0  0  0  0  0  0
    8.5912   -3.6408  -49.2698 H   0  0  0  0  0  0  0  0  0  0  0  0
    8.8396   -1.8716  -51.0066 H   0  0  0  0  0  0  0  0  0  0  0  0
    5.4218   -1.3964  -54.3008 H   0  0  0  0  0  0  0  0  0  0  0  0
    5.6966    0.7025  -56.4182 H   0  0  0  0  0  0  0  0  0  0  0  0
    9.6783    1.5886  -57.9598 H   0  0  0  0  0  0  0  0  0  0  0  0
    9.1706    1.4646  -59.7003 H   0  0  0  0  0  0  0  0  0  0  0  0
   11.2638    3.1585  -58.4324 H   0  0  0  0  0  0  0  0  0  0  0  0
   11.1104    2.5308  -60.1239 H   0  0  0  0  0  0  0  0  0  0  0  0
  1  2  1  0
  2  3  1  0
  2  4  1  0
  4  5  1  0
  5  6  1  0
  6  7  1  0
  7  8  1  0
  8  9  1  0
  9 10  2  0
  9 11  1  0
 11 12  2  0
 12 13  1  0
 13 14  2  0
 14 15  1  0
 15 16  1  0
 16 17  1  0
 17 18  2  0
 18 19  1  0
 19 20  2  0
 20 21  1  0
 21 22  2  0
 16 23  2  0
 23 24  1  0
 24 25  2  0
  8 26  1  0
 26 27  1  0
 27  5  1  0
 25 11  1  0
 24 14  1  0
 22 17  1  0
  1 28  1  0
  1 29  1  0
  1 30  1  0
  2 31  1  0
  3 32  1  0
  3 33  1  0
  3 34  1  0
  4 35  1  0
  4 36  1  0
  5 37  1  0
  6 38  1  0
  6 39  1  0
  7 40  1  0
  7 41  1  0
 12 42  1  0
 13 43  1  0
 15 44  1  0
 18 45  1  0
 19 46  1  0
 20 47  1  0
 21 48  1  0
 22 49  1  0
 23 50  1  0
 25 51  1  0
 26 52  1  0
 26 53  1  0
 27 54  1  0
 27 55  1  0
M  CHG  1   5   1
M  END
>  <meeko>  (94) 
{"is_sidechain": false}

$$$$

     RDKit          3D

 56 60  0  0  0  0  0  0  0  0999 V2000
    7.8110   -2.2600  -49.9150 C   0  0  0  0  0  0  0  0  0  0  0  0
    7.8170   -2.4620  -51.4110 N   0  0  2  0  0  0  0  0  0  0  0  0
    6.6350   -3.3170  -51.8370 C   0  0  0  0  0  0  0  0  0  0  0  0
    6.3810   -3.2320  -53.3440 C   0  0  0  0  0  0  0  0  0  0  0  0
    7.0200   -2.0220  -53.9800 C   0  0  0  0  0  0  0  0  0  0  0  0
    6.2020   -1.0440  -54.5720 C   0  0  0  0  0  0  0  0  0  0  0  0
    6.7550    0.0830  -55.1870 C   0  0  0  0  0  0  0  0  0  0  0  0
    8.1390    0.2530  -55.2040 C   0  0  0  0  0  0  0  0  0  0  0  0
    8.7900    1.4120  -55.8750 C   0  0  0  0  0  0  0  0  0  0  0  0
    9.7050    1.9860  -55.2980 O   0  0  0  0  0  0  0  0  0  0  0  0
    8.2810    1.7690  -57.1060 N   0  0  0  0  0  0  0  0  0  0  0  0
    8.7410    2.9250  -57.8880 C   0  0  2  0  0  0  0  0  0  0  0  0
    7.7980    3.0900  -59.1110 C   0  0  0  0  0  0  0  0  0  0  0  0
    8.2180    4.2920  -59.9730 C   0  0  1  0  0  0  0  0  0  0  0  0
    8.1670    5.5680  -59.1180 C   0  0  0  0  0  0  0  0  0  0  0  0
    9.1170    5.4340  -57.9170 C   0  0  2  0  0  0  0  0  0  0  0  0
   10.5490    5.2050  -58.4270 C   0  0  0  0  0  0  0  0  0  0  0  0
   10.6100    3.9280  -59.2830 C   0  0  2  0  0  0  0  0  0  0  0  0
    9.6530    4.0730  -60.4760 C   0  0  0  0  0  0  0  0  0  0  0  0
   10.1810    2.7240  -58.4270 C   0  0  0  0  0  0  0  0  0  0  0  0
    8.6850    4.2310  -57.0600 C   0  0  0  0  0  0  0  0  0  0  0  0
    8.9610   -0.7160  -54.6150 C   0  0  0  0  0  0  0  0  0  0  0  0
    8.4160   -1.8550  -53.9990 C   0  0  0  0  0  0  0  0  0  0  0  0
    9.3470   -2.8670  -53.3810 C   0  0  0  0  0  0  0  0  0  0  0  0
    9.1680   -2.9910  -51.8680 C   0  0  0  0  0  0  0  0  0  0  0  0
    7.8401   -3.2382  -49.4128 H   0  0  0  0  0  0  0  0  0  0  0  0
    8.6920   -1.6706  -49.6211 H   0  0  0  0  0  0  0  0  0  0  0  0
    6.8965   -1.7239  -49.6211 H   0  0  0  0  0  0  0  0  0  0  0  0
    7.6930   -1.5290  -51.8260 H   0  0  0  0  0  0  0  0  0  0  0  0
    6.8392   -4.3643  -51.5696 H   0  0  0  0  0  0  0  0  0  0  0  0
    5.7397   -2.9421  -51.3193 H   0  0  0  0  0  0  0  0  0  0  0  0
    6.7893   -4.1356  -53.8202 H   0  0  0  0  0  0  0  0  0  0  0  0
    5.2942   -3.1470  -53.4912 H   0  0  0  0  0  0  0  0  0  0  0  0
    5.1092   -1.1675  -54.5510 H   0  0  0  0  0  0  0  0  0  0  0  0
    6.1009    0.8329  -55.6558 H   0  0  0  0  0  0  0  0  0  0  0  0
    7.3870    1.3800  -57.3690 H   0  0  0  0  0  0  0  0  0  0  0  0
    7.8393    2.1768  -59.7228 H   0  0  0  0  0  0  0  0  0  0  0  0
    6.7754    3.2624  -58.7441 H   0  0  0  0  0  0  0  0  0  0  0  0
    7.5364    4.3941  -60.8303 H   0  0  0  0  0  0  0  0  0  0  0  0
    8.4729    6.4292  -59.7302 H   0  0  0  0  0  0  0  0  0  0  0  0
    7.1405    5.7166  -58.7518 H   0  0  0  0  0  0  0  0  0  0  0  0
    9.0813    6.3519  -57.3118 H   0  0  0  0  0  0  0  0  0  0  0  0
   10.8598    6.0663  -59.0366 H   0  0  0  0  0  0  0  0  0  0  0  0
   11.2233    5.0922  -57.5653 H   0  0  0  0  0  0  0  0  0  0  0  0
   11.6357    3.7736  -59.6493 H   0  0  0  0  0  0  0  0  0  0  0  0
    9.9604    4.9343  -61.0873 H   0  0  0  0  0  0  0  0  0  0  0  0
    9.6880    3.1552  -61.0814 H   0  0  0  0  0  0  0  0  0  0  0  0
   10.2131    1.8128  -59.0424 H   0  0  0  0  0  0  0  0  0  0  0  0
   10.8697    2.6308  -57.5744 H   0  0  0  0  0  0  0  0  0  0  0  0
    9.3605    4.1410  -56.1965 H   0  0  0  0  0  0  0  0  0  0  0  0
    7.6514    4.3910  -56.7192 H   0  0  0  0  0  0  0  0  0  0  0  0
   10.0527   -0.5829  -54.6351 H   0  0  0  0  0  0  0  0  0  0  0  0
    9.1536   -3.8481  -53.8393 H   0  0  0  0  0  0  0  0  0  0  0  0
   10.3763   -2.5258  -53.5656 H   0  0  0  0  0  0  0  0  0  0  0  0
    9.2485   -4.0512  -51.5862 H   0  0  0  0  0  0  0  0  0  0  0  0
    9.9511   -2.3907  -51.3819 H   0  0  0  0  0  0  0  0  0  0  0  0
  1  2  1  0
  2  3  1  0
  3  4  1  0
  4  5  1  0
  5  6  1  0
  6  7  2  0
  7  8  1  0
  8  9  1  0
  9 10  2  0
  9 11  1  0
 12 11  1  1
 12 13  1  0
 13 14  1  0
 14 15  1  0
 15 16  1  0
 16 17  1  0
 17 18  1  0
 18 19  1  0
 18 20  1  0
 16 21  1  0
  8 22  2  0
 22 23  1  0
 23 24  1  0
 24 25  1  0
 25  2  1  0
 23  5  2  0
 20 12  1  0
 21 12  1  0
 19 14  1  0
  1 26  1  0
  1 27  1  0
  1 28  1  0
  2 29  1  6
  3 30  1  0
  3 31  1  0
  4 32  1  0
  4 33  1  0
  6 34  1  0
  7 35  1  0
 11 36  1  0
 13 37  1  0
 13 38  1  0
 14 39  1  6
 15 40  1  0
 15 41  1  0
 16 42  1  1
 17 43  1  0
 17 44  1  0
 18 45  1  6
 19 46  1  0
 19 47  1  0
 20 48  1  0
 20 49  1  0
 21 50  1  0
 21 51  1  0
 22 52  1  0
 24 53  1  0
 24 54  1  0
 25 55  1  0
 25 56  1  0
M  CHG  1   2   1
M  END
>  <meeko>  (95) 
{"is_sidechain": false}

$$$$

     RDKit          3D

 56 60  0  0  0  0  0  0  0  0999 V2000
    9.2910   -3.7290  -50.1040 C   0  0  0  0  0  0  0  0  0  0  0  0
    8.7120   -3.2100  -51.3960 N   0  0  1  0  0  0  0  0  0  0  0  0
    7.3140   -2.6500  -51.2300 C   0  0  0  0  0  0  0  0  0  0  0  0
    6.5230   -2.6410  -52.5330 C   0  0  0  0  0  0  0  0  0  0  0  0
    6.9360   -1.5830  -53.5360 C   0  0  0  0  0  0  0  0  0  0  0  0
    5.9300   -0.6900  -53.9650 C   0  0  0  0  0  0  0  0  0  0  0  0
    6.1940    0.3240  -54.8880 C   0  0  0  0  0  0  0  0  0  0  0  0
    7.4770    0.4640  -55.4130 C   0  0  0  0  0  0  0  0  0  0  0  0
    7.8330    1.5320  -56.3870 C   0  0  0  0  0  0  0  0  0  0  0  0
    6.9450    2.2580  -56.8170 O   0  0  0  0  0  0  0  0  0  0  0  0
    9.1680    1.6440  -56.7120 N   0  0  0  0  0  0  0  0  0  0  0  0
    9.7200    2.6760  -57.6030 C   0  0  2  0  0  0  0  0  0  0  0  0
    9.2390    4.0920  -57.2000 C   0  0  0  0  0  0  0  0  0  0  0  0
    9.8740    5.1580  -58.1110 C   0  0  1  0  0  0  0  0  0  0  0  0
   11.4040    5.0970  -57.9730 C   0  0  0  0  0  0  0  0  0  0  0  0
   11.9140    3.7080  -58.3870 C   0  0  2  0  0  0  0  0  0  0  0  0
   11.5190    3.4340  -59.8460 C   0  0  0  0  0  0  0  0  0  0  0  0
    9.9910    3.4840  -59.9940 C   0  0  2  0  0  0  0  0  0  0  0  0
    9.4850    4.8740  -59.5710 C   0  0  0  0  0  0  0  0  0  0  0  0
    9.3560    2.4170  -59.0860 C   0  0  0  0  0  0  0  0  0  0  0  0
   11.2690    2.6440  -57.4830 C   0  0  0  0  0  0  0  0  0  0  0  0
    8.4910   -0.3970  -54.9720 C   0  0  0  0  0  0  0  0  0  0  0  0
    8.2470   -1.4090  -54.0190 C   0  0  0  0  0  0  0  0  0  0  0  0
    9.4380   -2.2490  -53.6080 C   0  0  0  0  0  0  0  0  0  0  0  0
    9.6950   -2.3010  -52.1060 C   0  0  0  0  0  0  0  0  0  0  0  0
    8.7701   -3.2621  -49.2551 H   0  0  0  0  0  0  0  0  0  0  0  0
    9.1631   -4.8205  -50.0572 H   0  0  0  0  0  0  0  0  0  0  0  0
   10.3621   -3.4830  -50.0572 H   0  0  0  0  0  0  0  0  0  0  0  0
    8.6030   -4.0360  -51.9990 H   0  0  0  0  0  0  0  0  0  0  0  0
    6.7739   -3.2651  -50.4952 H   0  0  0  0  0  0  0  0  0  0  0  0
    7.4126   -1.6069  -50.8950 H   0  0  0  0  0  0  0  0  0  0  0  0
    6.6422   -3.6253  -53.0093 H   0  0  0  0  0  0  0  0  0  0  0  0
    5.4845   -2.4073  -52.2558 H   0  0  0  0  0  0  0  0  0  0  0  0
    4.9121   -0.7958  -53.5617 H   0  0  0  0  0  0  0  0  0  0  0  0
    5.3922    1.0096  -55.1994 H   0  0  0  0  0  0  0  0  0  0  0  0
    9.8350    1.1550  -56.1320 H   0  0  0  0  0  0  0  0  0  0  0  0
    8.1441    4.1423  -57.2931 H   0  0  0  0  0  0  0  0  0  0  0  0
    9.5412    4.2874  -56.1605 H   0  0  0  0  0  0  0  0  0  0  0  0
    9.5152    6.1561  -57.8192 H   0  0  0  0  0  0  0  0  0  0  0  0
   11.8590    5.8603  -58.6214 H   0  0  0  0  0  0  0  0  0  0  0  0
   11.6798    5.2853  -56.9249 H   0  0  0  0  0  0  0  0  0  0  0  0
   13.0088    3.6713  -58.2865 H   0  0  0  0  0  0  0  0  0  0  0  0
   11.9732    4.1965  -60.4958 H   0  0  0  0  0  0  0  0  0  0  0  0
   11.8777    2.4354  -60.1361 H   0  0  0  0  0  0  0  0  0  0  0  0
    9.7153    3.2909  -61.0413 H   0  0  0  0  0  0  0  0  0  0  0  0
    9.9345    5.6381  -60.2222 H   0  0  0  0  0  0  0  0  0  0  0  0
    8.3891    4.9006  -59.6625 H   0  0  0  0  0  0  0  0  0  0  0  0
    8.2625    2.4491  -59.2007 H   0  0  0  0  0  0  0  0  0  0  0  0
    9.7405    1.4286  -59.3780 H   0  0  0  0  0  0  0  0  0  0  0  0
   11.6325    1.6498  -57.7819 H   0  0  0  0  0  0  0  0  0  0  0  0
   11.5441    2.8573  -56.4395 H   0  0  0  0  0  0  0  0  0  0  0  0
    9.5058   -0.2808  -55.3802 H   0  0  0  0  0  0  0  0  0  0  0  0
    9.2707   -3.2768  -53.9625 H   0  0  0  0  0  0  0  0  0  0  0  0
   10.3224   -1.7738  -54.0575 H   0  0  0  0  0  0  0  0  0  0  0  0
   10.7147   -2.6751  -51.9324 H   0  0  0  0  0  0  0  0  0  0  0  0
    9.5718   -1.2847  -51.7035 H   0  0  0  0  0  0  0  0  0  0  0  0
  1  2  1  0
  2  3  1  0
  3  4  1  0
  4  5  1  0
  5  6  1  0
  6  7  2  0
  7  8  1  0
  8  9  1  0
  9 10  2  0
  9 11  1  0
 12 11  1  1
 12 13  1  0
 13 14  1  0
 14 15  1  0
 15 16  1  0
 16 17  1  0
 17 18  1  0
 18 19  1  0
 18 20  1  0
 16 21  1  0
  8 22  2  0
 22 23  1  0
 23 24  1  0
 24 25  1  0
 25  2  1  0
 23  5  2  0
 20 12  1  0
 21 12  1  0
 19 14  1  0
  1 26  1  0
  1 27  1  0
  1 28  1  0
  2 29  1  6
  3 30  1  0
  3 31  1  0
  4 32  1  0
  4 33  1  0
  6 34  1  0
  7 35  1  0
 11 36  1  0
 13 37  1  0
 13 38  1  0
 14 39  1  1
 15 40  1  0
 15 41  1  0
 16 42  1  6
 17 43  1  0
 17 44  1  0
 18 45  1  6
 19 46  1  0
 19 47  1  0
 20 48  1  0
 20 49  1  0
 21 50  1  0
 21 51  1  0
 22 52  1  0
 24 53  1  0
 24 54  1  0
 25 55  1  0
 25 56  1  0
M  CHG  1   2   1
M  END
>  <meeko>  (96) 
{"is_sidechain": false}

$$$$

     RDKit          3D

 51 56  0  0  0  0  0  0  0  0999 V2000
    5.2890   -0.5530  -54.4140 O   0  0  0  0  0  0  0  0  0  0  0  0
    6.4670   -0.4940  -54.7450 C   0  0  0  0  0  0  0  0  0  0  0  0
    7.4000   -1.4610  -54.4290 N   0  0  0  0  0  0  0  0  0  0  0  0
    7.0260   -2.6550  -53.6990 C   0  0  1  0  0  0  0  0  0  0  0  0
    8.1820   -3.6560  -53.5490 C   0  0  0  0  0  0  0  0  0  0  0  0
    8.1940   -4.0750  -52.0770 C   0  0  1  0  0  0  0  0  0  0  0  0
    9.1020   -3.1840  -51.2000 C   0  0  0  0  0  0  0  0  0  0  0  0
    8.0900   -2.3220  -50.4310 C   0  0  2  0  0  0  0  0  0  0  0  0
    7.0020   -3.3420  -50.1020 C   0  0  0  0  0  0  0  0  0  0  0  0
    6.7850   -3.7300  -51.5540 C   0  0  1  0  0  0  0  0  0  0  0  0
    6.5270   -2.3910  -52.2720 C   0  0  1  0  0  0  0  0  0  0  0  0
    7.3700   -1.4020  -51.4300 C   0  0  0  0  0  0  0  0  0  0  0  0
    6.9600    0.6430  -55.5700 C   0  0  0  0  0  0  0  0  0  0  0  0
    6.0760    1.5280  -56.1990 C   0  0  0  0  0  0  0  0  0  0  0  0
    6.5510    2.5940  -56.9720 C   0  0  0  0  0  0  0  0  0  0  0  0
    7.9380    2.7340  -57.0950 C   0  0  0  0  0  0  0  0  0  0  0  0
    8.6790    3.6670  -57.7850 N   0  0  0  0  0  0  0  0  0  0  0  0
   10.0300    3.4330  -57.6430 C   0  0  0  0  0  0  0  0  0  0  0  0
   11.0550    4.2630  -58.2770 C   0  0  0  0  0  0  0  0  0  0  0  0
   10.7190    5.2050  -59.2600 C   0  0  0  0  0  0  0  0  0  0  0  0
   11.7080    5.9910  -59.8600 C   0  0  0  0  0  0  0  0  0  0  0  0
   13.0410    5.8440  -59.4840 C   0  0  0  0  0  0  0  0  0  0  0  0
   13.3870    4.9160  -58.5060 C   0  0  0  0  0  0  0  0  0  0  0  0
   12.3990    4.1320  -57.9040 C   0  0  0  0  0  0  0  0  0  0  0  0
   10.1460    2.3030  -56.8520 C   0  0  0  0  0  0  0  0  0  0  0  0
    8.8420    1.8600  -56.4970 C   0  0  0  0  0  0  0  0  0  0  0  0
    8.3470    0.7920  -55.7260 C   0  0  0  0  0  0  0  0  0  0  0  0
    8.2730   -1.4660  -54.9400 H   0  0  0  0  0  0  0  0  0  0  0  0
    6.2143   -3.0633  -54.3190 H   0  0  0  0  0  0  0  0  0  0  0  0
    8.0146   -4.5315  -54.1936 H   0  0  0  0  0  0  0  0  0  0  0  0
    9.1417   -3.2084  -53.8467 H   0  0  0  0  0  0  0  0  0  0  0  0
    8.5202   -5.1242  -52.0233 H   0  0  0  0  0  0  0  0  0  0  0  0
    9.7087   -3.7916  -50.5124 H   0  0  0  0  0  0  0  0  0  0  0  0
    9.8254   -2.5932  -51.7810 H   0  0  0  0  0  0  0  0  0  0  0  0
    8.5519   -1.7638  -49.6033 H   0  0  0  0  0  0  0  0  0  0  0  0
    7.3617   -4.1745  -49.4795 H   0  0  0  0  0  0  0  0  0  0  0  0
    6.1335   -3.0083  -49.5152 H   0  0  0  0  0  0  0  0  0  0  0  0
    6.0176   -4.5072  -51.6844 H   0  0  0  0  0  0  0  0  0  0  0  0
    5.5041   -1.9943  -52.3507 H   0  0  0  0  0  0  0  0  0  0  0  0
    8.0916   -0.8618  -52.0605 H   0  0  0  0  0  0  0  0  0  0  0  0
    6.7648   -0.6234  -50.9427 H   0  0  0  0  0  0  0  0  0  0  0  0
    4.9916    1.3834  -56.0840 H   0  0  0  0  0  0  0  0  0  0  0  0
    5.8605    3.2948  -57.4639 H   0  0  0  0  0  0  0  0  0  0  0  0
    8.2830    4.4100  -58.3420 H   0  0  0  0  0  0  0  0  0  0  0  0
    9.6682    5.3268  -59.5618 H   0  0  0  0  0  0  0  0  0  0  0  0
   11.4326    6.7265  -60.6302 H   0  0  0  0  0  0  0  0  0  0  0  0
   13.8188    6.4600  -59.9590 H   0  0  0  0  0  0  0  0  0  0  0  0
   14.4391    4.7996  -58.2066 H   0  0  0  0  0  0  0  0  0  0  0  0
   12.6798    3.4040  -57.1287 H   0  0  0  0  0  0  0  0  0  0  0  0
   11.0899    1.8268  -56.5484 H   0  0  0  0  0  0  0  0  0  0  0  0
    9.0394    0.0816  -55.2507 H   0  0  0  0  0  0  0  0  0  0  0  0
  1  2  2  0
  2  3  1  0
  3  4  1  0
  4  5  1  0
  5  6  1  0
  6  7  1  0
  7  8  1  0
  8  9  1  0
  9 10  1  0
 10 11  1  0
 11 12  1  0
  2 13  1  0
 13 14  2  0
 14 15  1  0
 15 16  2  0
 16 17  1  0
 17 18  1  0
 18 19  1  0
 19 20  2  0
 20 21  1  0
 21 22  2  0
 22 23  1  0
 23 24  2  0
 18 25  2  0
 25 26  1  0
 26 27  2  0
 11  4  1  0
 27 13  1  0
 10  6  1  0
 26 16  1  0
 12  8  1  0
 24 19  1  0
  3 28  1  0
  4 29  1  6
  5 30  1  0
  5 31  1  0
  6 32  1  6
  7 33  1  0
  7 34  1  0
  8 35  1  1
  9 36  1  0
  9 37  1  0
 10 38  1  1
 11 39  1  6
 12 40  1  0
 12 41  1  0
 14 42  1  0
 15 43  1  0
 17 44  1  0
 20 45  1  0
 21 46  1  0
 22 47  1  0
 23 48  1  0
 24 49  1  0
 25 50  1  0
 27 51  1  0
M  END
>  <meeko>  (97) 
{"is_sidechain": false}

$$$$

     RDKit          3D

 45 47  0  0  0  0  0  0  0  0999 V2000
    4.7930    2.4540  -58.5920 C   0  0  0  0  0  0  0  0  0  0  0  0
    5.4510    2.2950  -57.2310 C   0  0  0  0  0  0  0  0  0  0  0  0
    6.8850    2.8240  -57.2360 C   0  0  0  0  0  0  0  0  0  0  0  0
    7.8410    1.8470  -56.5510 C   0  0  0  0  0  0  0  0  0  0  0  0
    7.0950    0.9840  -55.6570 N   0  0  0  0  0  0  0  0  0  0  0  0
    7.7360    0.0600  -54.9270 C   0  0  0  0  0  0  0  0  0  0  0  0
    7.0780   -0.6700  -53.9820 N   0  0  0  0  0  0  0  0  0  0  0  0
    8.0100   -1.4530  -53.4760 C   0  0  0  0  0  0  0  0  0  0  0  0
    7.8250   -2.4430  -52.4250 C   0  0  0  0  0  0  0  0  0  0  0  0
    7.2610   -3.6870  -52.7340 C   0  0  0  0  0  0  0  0  0  0  0  0
    7.0950   -4.6530  -51.7410 C   0  0  0  0  0  0  0  0  0  0  0  0
    7.4830   -4.3790  -50.4300 C   0  0  0  0  0  0  0  0  0  0  0  0
    8.0290   -3.1360  -50.1090 C   0  0  0  0  0  0  0  0  0  0  0  0
    8.1970   -2.1700  -51.1020 C   0  0  0  0  0  0  0  0  0  0  0  0
    9.1840   -1.2050  -54.1420 N   0  0  0  0  0  0  0  0  0  0  0  0
   10.4720   -1.8600  -53.9900 C   0  0  0  0  0  0  0  0  0  0  0  0
   10.8160   -2.7190  -55.1820 C   0  0  0  0  0  0  0  0  0  0  0  0
   10.4400   -4.0700  -55.2160 C   0  0  0  0  0  0  0  0  0  0  0  0
   10.7620   -4.8680  -56.3160 C   0  0  0  0  0  0  0  0  0  0  0  0
   11.4620   -4.3240  -57.3910 C   0  0  0  0  0  0  0  0  0  0  0  0
   11.8390   -2.9830  -57.3690 C   0  0  0  0  0  0  0  0  0  0  0  0
   11.5170   -2.1830  -56.2710 C   0  0  0  0  0  0  0  0  0  0  0  0
    9.0320   -0.2100  -55.0410 N   0  0  0  0  0  0  0  0  0  0  0  0
    3.7317    2.7105  -58.4584 H   0  0  0  0  0  0  0  0  0  0  0  0
    5.2965    3.2563  -59.1512 H   0  0  0  0  0  0  0  0  0  0  0  0
    4.8746    1.5103  -59.1512 H   0  0  0  0  0  0  0  0  0  0  0  0
    4.8669    2.8530  -56.4844 H   0  0  0  0  0  0  0  0  0  0  0  0
    5.4797    1.2232  -56.9850 H   0  0  0  0  0  0  0  0  0  0  0  0
    7.2087    2.9714  -58.2769 H   0  0  0  0  0  0  0  0  0  0  0  0
    6.9058    3.7747  -56.6831 H   0  0  0  0  0  0  0  0  0  0  0  0
    8.3474    1.2355  -57.3124 H   0  0  0  0  0  0  0  0  0  0  0  0
    8.5893    2.4110  -55.9748 H   0  0  0  0  0  0  0  0  0  0  0  0
    6.1780    0.7000  -55.9770 H   0  0  0  0  0  0  0  0  0  0  0  0
    6.9470   -3.9039  -53.7657 H   0  0  0  0  0  0  0  0  0  0  0  0
    6.6581   -5.6307  -51.9923 H   0  0  0  0  0  0  0  0  0  0  0  0
    7.3585   -5.1432  -49.6486 H   0  0  0  0  0  0  0  0  0  0  0  0
    8.3271   -2.9173  -49.0730 H   0  0  0  0  0  0  0  0  0  0  0  0
    8.6236   -1.1893  -50.8448 H   0  0  0  0  0  0  0  0  0  0  0  0
   11.2493   -1.0908  -53.8710 H   0  0  0  0  0  0  0  0  0  0  0  0
   10.4179   -2.5128  -53.1063 H   0  0  0  0  0  0  0  0  0  0  0  0
    9.8873   -4.5042  -54.3698 H   0  0  0  0  0  0  0  0  0  0  0  0
   10.4629   -5.9264  -56.3338 H   0  0  0  0  0  0  0  0  0  0  0  0
   11.7168   -4.9531  -58.2566 H   0  0  0  0  0  0  0  0  0  0  0  0
   12.3912   -2.5538  -58.2180 H   0  0  0  0  0  0  0  0  0  0  0  0
   11.8156   -1.1244  -56.2605 H   0  0  0  0  0  0  0  0  0  0  0  0
  1  2  1  0
  2  3  1  0
  3  4  1  0
  4  5  1  0
  5  6  1  0
  6  7  1  0
  7  8  2  0
  8  9  1  0
  9 10  2  0
 10 11  1  0
 11 12  2  0
 12 13  1  0
 13 14  2  0
  8 15  1  0
 15 16  1  0
 16 17  1  0
 17 18  2  0
 18 19  1  0
 19 20  2  0
 20 21  1  0
 21 22  2  0
 15 23  1  0
 23  6  2  0
 14  9  1  0
 22 17  1  0
  1 24  1  0
  1 25  1  0
  1 26  1  0
  2 27  1  0
  2 28  1  0
  3 29  1  0
  3 30  1  0
  4 31  1  0
  4 32  1  0
  5 33  1  0
 10 34  1  0
 11 35  1  0
 12 36  1  0
 13 37  1  0
 14 38  1  0
 16 39  1  0
 16 40  1  0
 18 41  1  0
 19 42  1  0
 20 43  1  0
 21 44  1  0
 22 45  1  0
M  END
>  <meeko>  (98) 
{"is_sidechain": false}

$$$$

     RDKit          3D

 45 47  0  0  0  0  0  0  0  0999 V2000
    2.6640    1.8120  -63.2230 C   0  0  0  0  0  0  0  0  0  0  0  0
    2.8730    1.0040  -61.9530 C   0  0  0  0  0  0  0  0  0  0  0  0
    2.9250    1.8590  -60.6830 C   0  0  0  0  0  0  0  0  0  0  0  0
    4.2860    1.8950  -59.9850 C   0  0  0  0  0  0  0  0  0  0  0  0
    5.3700    1.9830  -60.9630 N   0  0  0  0  0  0  0  0  0  0  0  0
    6.5330    2.3240  -60.5390 C   0  0  0  0  0  0  0  0  0  0  0  0
    6.8090    2.6550  -59.2260 N   0  0  0  0  0  0  0  0  0  0  0  0
    8.0430    3.1180  -59.2680 C   0  0  0  0  0  0  0  0  0  0  0  0
    8.7210    3.6030  -58.0470 C   0  0  0  0  0  0  0  0  0  0  0  0
    8.5640    4.9400  -57.6660 C   0  0  0  0  0  0  0  0  0  0  0  0
    9.1990    5.4140  -56.5180 C   0  0  0  0  0  0  0  0  0  0  0  0
    9.9780    4.5520  -55.7450 C   0  0  0  0  0  0  0  0  0  0  0  0
   10.1170    3.2130  -56.1130 C   0  0  0  0  0  0  0  0  0  0  0  0
    9.4840    2.7350  -57.2610 C   0  0  0  0  0  0  0  0  0  0  0  0
    8.6080    3.0800  -60.5430 N   0  0  0  0  0  0  0  0  0  0  0  0
    9.4670    4.1230  -61.1030 C   0  0  0  0  0  0  0  0  0  0  0  0
   10.7200    4.3490  -60.2850 C   0  0  0  0  0  0  0  0  0  0  0  0
   11.5000    3.2660  -59.8550 C   0  0  0  0  0  0  0  0  0  0  0  0
   12.6460    3.4790  -59.0880 C   0  0  0  0  0  0  0  0  0  0  0  0
   13.0250    4.7750  -58.7420 C   0  0  0  0  0  0  0  0  0  0  0  0
   12.2600    5.8590  -59.1640 C   0  0  0  0  0  0  0  0  0  0  0  0
   11.1130    5.6490  -59.9320 C   0  0  0  0  0  0  0  0  0  0  0  0
    7.6410    2.4850  -61.3470 N   0  0  0  0  0  0  0  0  0  0  0  0
    2.3965    2.8460  -62.9599 H   0  0  0  0  0  0  0  0  0  0  0  0
    3.5916    1.8123  -63.8142 H   0  0  0  0  0  0  0  0  0  0  0  0
    1.8526    1.3625  -63.8142 H   0  0  0  0  0  0  0  0  0  0  0  0
    2.0437    0.2878  -61.8562 H   0  0  0  0  0  0  0  0  0  0  0  0
    3.8488    0.5047  -62.0456 H   0  0  0  0  0  0  0  0  0  0  0  0
    2.6527    2.8898  -60.9538 H   0  0  0  0  0  0  0  0  0  0  0  0
    2.2257    1.3962  -59.9711 H   0  0  0  0  0  0  0  0  0  0  0  0
    4.3275    2.7710  -59.3210 H   0  0  0  0  0  0  0  0  0  0  0  0
    4.4091    0.9684  -59.4052 H   0  0  0  0  0  0  0  0  0  0  0  0
    7.9412    5.6159  -58.2704 H   0  0  0  0  0  0  0  0  0  0  0  0
    9.0857    6.4674  -56.2220 H   0  0  0  0  0  0  0  0  0  0  0  0
   10.4836    4.9288  -54.8436 H   0  0  0  0  0  0  0  0  0  0  0  0
   10.7258    2.5341  -55.4978 H   0  0  0  0  0  0  0  0  0  0  0  0
    9.5853    1.6776  -57.5467 H   0  0  0  0  0  0  0  0  0  0  0  0
    9.7600    3.8284  -62.1215 H   0  0  0  0  0  0  0  0  0  0  0  0
    8.8944    5.0622  -61.1001 H   0  0  0  0  0  0  0  0  0  0  0  0
   11.2062    2.2407  -60.1244 H   0  0  0  0  0  0  0  0  0  0  0  0
   13.2514    2.6227  -58.7558 H   0  0  0  0  0  0  0  0  0  0  0  0
   13.9278    4.9412  -58.1360 H   0  0  0  0  0  0  0  0  0  0  0  0
   12.5595    6.8819  -58.8921 H   0  0  0  0  0  0  0  0  0  0  0  0
   10.5128    6.5094  -60.2629 H   0  0  0  0  0  0  0  0  0  0  0  0
    7.3750    2.9360  -62.2190 H   0  0  0  0  0  0  0  0  0  0  0  0
  1  2  1  0
  2  3  1  0
  3  4  1  0
  4  5  1  0
  5  6  2  0
  6  7  1  0
  7  8  2  0
  8  9  1  0
  9 10  2  0
 10 11  1  0
 11 12  2  0
 12 13  1  0
 13 14  2  0
  8 15  1  0
 15 16  1  0
 16 17  1  0
 17 18  2  0
 18 19  1  0
 19 20  2  0
 20 21  1  0
 21 22  2  0
 15 23  1  0
 23  6  1  0
 14  9  1  0
 22 17  1  0
  1 24  1  0
  1 25  1  0
  1 26  1  0
  2 27  1  0
  2 28  1  0
  3 29  1  0
  3 30  1  0
  4 31  1  0
  4 32  1  0
 10 33  1  0
 11 34  1  0
 12 35  1  0
 13 36  1  0
 14 37  1  0
 16 38  1  0
 16 39  1  0
 18 40  1  0
 19 41  1  0
 20 42  1  0
 21 43  1  0
 22 44  1  0
 23 45  1  0
M  END
>  <meeko>  (99) 
{"is_sidechain": false}

$$$$

     RDKit          3D

 45 47  0  0  0  0  0  0  0  0999 V2000
    3.1110    0.7960  -61.7630 C   0  0  0  0  0  0  0  0  0  0  0  0
    3.8050    1.1810  -63.0590 C   0  0  0  0  0  0  0  0  0  0  0  0
    4.8890    2.2490  -62.8800 C   0  0  0  0  0  0  0  0  0  0  0  0
    5.5520    2.2670  -61.5020 C   0  0  0  0  0  0  0  0  0  0  0  0
    6.9970    2.3680  -61.6660 N   0  0  0  0  0  0  0  0  0  0  0  0
    7.6060    3.1850  -60.8920 C   0  0  0  0  0  0  0  0  0  0  0  0
    8.9760    3.2960  -61.0190 N   0  0  0  0  0  0  0  0  0  0  0  0
    9.3360    4.0810  -60.0260 C   0  0  0  0  0  0  0  0  0  0  0  0
   10.7530    4.4440  -59.8110 C   0  0  0  0  0  0  0  0  0  0  0  0
   11.1520    5.7710  -59.9980 C   0  0  0  0  0  0  0  0  0  0  0  0
   12.4860    6.1290  -59.8010 C   0  0  0  0  0  0  0  0  0  0  0  0
   13.4160    5.1670  -59.4070 C   0  0  0  0  0  0  0  0  0  0  0  0
   13.0150    3.8470  -59.1990 C   0  0  0  0  0  0  0  0  0  0  0  0
   11.6810    3.4840  -59.3950 C   0  0  0  0  0  0  0  0  0  0  0  0
    8.2640    4.5160  -59.2480 N   0  0  0  0  0  0  0  0  0  0  0  0
    8.3040    4.6580  -57.7920 C   0  0  0  0  0  0  0  0  0  0  0  0
    8.1620    3.3320  -57.0710 C   0  0  0  0  0  0  0  0  0  0  0  0
    9.2900    2.6910  -56.5350 C   0  0  0  0  0  0  0  0  0  0  0  0
    9.1600    1.4790  -55.8550 C   0  0  0  0  0  0  0  0  0  0  0  0
    7.9030    0.8960  -55.7030 C   0  0  0  0  0  0  0  0  0  0  0  0
    6.7760    1.5220  -56.2330 C   0  0  0  0  0  0  0  0  0  0  0  0
    6.9040    2.7320  -56.9140 C   0  0  0  0  0  0  0  0  0  0  0  0
    7.1280    3.9730  -59.8540 N   0  0  0  0  0  0  0  0  0  0  0  0
    3.7170    1.1322  -60.9087 H   0  0  0  0  0  0  0  0  0  0  0  0
    2.1212    1.2740  -61.7211 H   0  0  0  0  0  0  0  0  0  0  0  0
    2.9926   -0.2968  -61.7211 H   0  0  0  0  0  0  0  0  0  0  0  0
    4.2711    0.2802  -63.4849 H   0  0  0  0  0  0  0  0  0  0  0  0
    3.0377    1.6078  -63.7216 H   0  0  0  0  0  0  0  0  0  0  0  0
    5.6708    2.0723  -63.6334 H   0  0  0  0  0  0  0  0  0  0  0  0
    4.3870    3.2211  -62.9942 H   0  0  0  0  0  0  0  0  0  0  0  0
    5.1856    3.1314  -60.9288 H   0  0  0  0  0  0  0  0  0  0  0  0
    5.3055    1.3413  -60.9614 H   0  0  0  0  0  0  0  0  0  0  0  0
   10.4160    6.5308  -60.2997 H   0  0  0  0  0  0  0  0  0  0  0  0
   12.8045    7.1703  -59.9565 H   0  0  0  0  0  0  0  0  0  0  0  0
   14.4688    5.4499  -59.2598 H   0  0  0  0  0  0  0  0  0  0  0  0
   13.7495    3.0925  -58.8807 H   0  0  0  0  0  0  0  0  0  0  0  0
   11.3609    2.4458  -59.2227 H   0  0  0  0  0  0  0  0  0  0  0  0
    9.2654    5.1114  -57.5089 H   0  0  0  0  0  0  0  0  0  0  0  0
    7.4536    5.2899  -57.4962 H   0  0  0  0  0  0  0  0  0  0  0  0
   10.2840    3.1474  -56.6518 H   0  0  0  0  0  0  0  0  0  0  0  0
   10.0497    0.9838  -55.4389 H   0  0  0  0  0  0  0  0  0  0  0  0
    7.8005   -0.0579  -55.1649 H   0  0  0  0  0  0  0  0  0  0  0  0
    5.7844    1.0609  -56.1139 H   0  0  0  0  0  0  0  0  0  0  0  0
    6.0110    3.2200  -57.3316 H   0  0  0  0  0  0  0  0  0  0  0  0
    6.4990    3.4410  -59.2610 H   0  0  0  0  0  0  0  0  0  0  0  0
  1  2  1  0
  2  3  1  0
  3  4  1  0
  4  5  1  0
  5  6  2  0
  6  7  1  0
  7  8  2  0
  8  9  1  0
  9 10  2  0
 10 11  1  0
 11 12  2  0
 12 13  1  0
 13 14  2  0
  8 15  1  0
 15 16  1  0
 16 17  1  0
 17 18  2  0
 18 19  1  0
 19 20  2  0
 20 21  1  0
 21 22  2  0
 15 23  1  0
 23  6  1  0
 14  9  1  0
 22 17  1  0
  1 24  1  0
  1 25  1  0
  1 26  1  0
  2 27  1  0
  2 28  1  0
  3 29  1  0
  3 30  1  0
  4 31  1  0
  4 32  1  0
 10 33  1  0
 11 34  1  0
 12 35  1  0
 13 36  1  0
 14 37  1  0
 16 38  1  0
 16 39  1  0
 18 40  1  0
 19 41  1  0
 20 42  1  0
 21 43  1  0
 22 44  1  0
 23 45  1  0
M  END
>  <meeko>  (100) 
{"is_sidechain": false}

$$$$

     RDKit          3D

 62 66  0  0  0  0  0  0  0  0999 V2000
    7.8040   -2.5880  -49.8190 C   0  0  0  0  0  0  0  0  0  0  0  0
    8.5360   -3.0080  -51.0860 C   0  0  0  0  0  0  0  0  0  0  0  0
    7.5650   -3.5600  -52.1330 C   0  0  0  0  0  0  0  0  0  0  0  0
    8.2060   -3.7300  -53.5110 C   0  0  0  0  0  0  0  0  0  0  0  0
    8.6730   -2.4910  -54.0910 N   0  0  0  0  0  0  0  0  0  0  0  0
    7.8190   -1.4580  -54.2460 N   0  0  0  0  0  0  0  0  0  0  0  0
    8.6280   -0.5250  -54.7590 C   0  0  0  0  0  0  0  0  0  0  0  0
    8.1550    0.8450  -55.1320 C   0  0  0  0  0  0  0  0  0  0  0  0
    6.9050    0.7590  -56.0320 C   0  0  0  0  0  0  0  0  0  0  0  0
    6.7350    2.0130  -56.8800 C   0  0  0  0  0  0  0  0  0  0  0  0
    7.9180    2.2220  -57.8260 C   0  0  0  0  0  0  0  0  0  0  0  0
    9.2390    1.6730  -57.2850 C   0  0  0  0  0  0  0  0  0  0  0  0
    9.2810    1.6920  -55.7600 C   0  0  0  0  0  0  0  0  0  0  0  0
    9.9270   -0.9220  -54.9310 N   0  0  0  0  0  0  0  0  0  0  0  0
    9.9440   -2.1630  -54.5070 C   0  0  0  0  0  0  0  0  0  0  0  0
   10.9850   -3.0300  -54.4570 N   0  0  0  0  0  0  0  0  0  0  0  0
   11.4570   -3.7480  -55.6480 C   0  0  2  0  0  0  0  0  0  0  0  0
   12.1550   -2.8050  -56.6590 C   0  0  0  0  0  0  0  0  0  0  0  0
   12.6910   -3.6070  -57.8580 C   0  0  1  0  0  0  0  0  0  0  0  0
   13.7190   -4.6360  -57.3630 C   0  0  0  0  0  0  0  0  0  0  0  0
   13.0580   -5.5970  -56.3640 C   0  0  2  0  0  0  0  0  0  0  0  0
   11.8950   -6.3290  -57.0530 C   0  0  0  0  0  0  0  0  0  0  0  0
   10.8540   -5.3120  -57.5480 C   0  0  2  0  0  0  0  0  0  0  0  0
   11.5220   -4.3430  -58.5390 C   0  0  0  0  0  0  0  0  0  0  0  0
   10.3120   -4.5160  -56.3470 C   0  0  0  0  0  0  0  0  0  0  0  0
   12.5100   -4.7890  -55.1750 C   0  0  0  0  0  0  0  0  0  0  0  0
    8.3764   -2.9164  -48.9389 H   0  0  0  0  0  0  0  0  0  0  0  0
    7.7003   -1.4930  -49.8013 H   0  0  0  0  0  0  0  0  0  0  0  0
    6.8064   -3.0511  -49.8013 H   0  0  0  0  0  0  0  0  0  0  0  0
    9.0563   -2.1343  -51.5054 H   0  0  0  0  0  0  0  0  0  0  0  0
    9.2531   -3.8005  -50.8259 H   0  0  0  0  0  0  0  0  0  0  0  0
    7.2019   -4.5407  -51.7918 H   0  0  0  0  0  0  0  0  0  0  0  0
    6.7462   -2.8331  -52.2382 H   0  0  0  0  0  0  0  0  0  0  0  0
    9.0630   -4.4127  -53.4136 H   0  0  0  0  0  0  0  0  0  0  0  0
    7.4284   -4.1258  -54.1809 H   0  0  0  0  0  0  0  0  0  0  0  0
    7.8620    1.3697  -54.2106 H   0  0  0  0  0  0  0  0  0  0  0  0
    7.0041   -0.1110  -56.6978 H   0  0  0  0  0  0  0  0  0  0  0  0
    6.0216    0.6604  -55.3840 H   0  0  0  0  0  0  0  0  0  0  0  0
    5.8150    1.9184  -57.4755 H   0  0  0  0  0  0  0  0  0  0  0  0
    6.6802    2.8788  -56.2038 H   0  0  0  0  0  0  0  0  0  0  0  0
    7.6955    1.7175  -58.7778 H   0  0  0  0  0  0  0  0  0  0  0  0
    8.0457    3.3077  -57.9479 H   0  0  0  0  0  0  0  0  0  0  0  0
    9.3616    0.6361  -57.6312 H   0  0  0  0  0  0  0  0  0  0  0  0
   10.0522    2.3139  -57.6565 H   0  0  0  0  0  0  0  0  0  0  0  0
   10.2508    1.2929  -55.4280 H   0  0  0  0  0  0  0  0  0  0  0  0
    9.1412    2.7328  -55.4328 H   0  0  0  0  0  0  0  0  0  0  0  0
   11.1850   -3.5060  -53.5850 H   0  0  0  0  0  0  0  0  0  0  0  0
   11.4314   -2.0578  -57.0170 H   0  0  0  0  0  0  0  0  0  0  0  0
   12.9975   -2.3054  -56.1583 H   0  0  0  0  0  0  0  0  0  0  0  0
   13.1686   -2.9244  -58.5763 H   0  0  0  0  0  0  0  0  0  0  0  0
   14.1035   -5.2086  -58.2199 H   0  0  0  0  0  0  0  0  0  0  0  0
   14.5470   -4.1099  -56.8654 H   0  0  0  0  0  0  0  0  0  0  0  0
   13.7986   -6.3294  -56.0103 H   0  0  0  0  0  0  0  0  0  0  0  0
   12.2810   -6.9015  -57.9093 H   0  0  0  0  0  0  0  0  0  0  0  0
   11.4198   -7.0109  -56.3325 H   0  0  0  0  0  0  0  0  0  0  0  0
   10.0278   -5.8401  -58.0465 H   0  0  0  0  0  0  0  0  0  0  0  0
   11.9028   -4.9104  -59.4010 H   0  0  0  0  0  0  0  0  0  0  0  0
   10.7793   -3.6040  -58.8739 H   0  0  0  0  0  0  0  0  0  0  0  0
    9.5564   -3.7983  -56.6992 H   0  0  0  0  0  0  0  0  0  0  0  0
    9.8620   -5.2169  -55.6285 H   0  0  0  0  0  0  0  0  0  0  0  0
   12.0385   -5.4778  -54.4586 H   0  0  0  0  0  0  0  0  0  0  0  0
   13.3451   -4.2526  -54.7007 H   0  0  0  0  0  0  0  0  0  0  0  0
  1  2  1  0
  2  3  1  0
  3  4  1  0
  4  5  1  0
  5  6  1  0
  6  7  2  0
  7  8  1  0
  8  9  1  0
  9 10  1  0
 10 11  1  0
 11 12  1  0
 12 13  1  0
  7 14  1  0
 14 15  2  0
 15 16  1  0
 17 16  1  1
 17 18  1  0
 18 19  1  0
 19 20  1  0
 20 21  1  0
 21 22  1  0
 22 23  1  0
 23 24  1  0
 23 25  1  0
 21 26  1  0
 15  5  1  0
 25 17  1  0
 13  8  1  0
 26 17  1  0
 24 19  1  0
  1 27  1  0
  1 28  1  0
  1 29  1  0
  2 30  1  0
  2 31  1  0
  3 32  1  0
  3 33  1  0
  4 34  1  0
  4 35  1  0
  8 36  1  0
  9 37  1  0
  9 38  1  0
 10 39  1  0
 10 40  1  0
 11 41  1  0
 11 42  1  0
 12 43  1  0
 12 44  1  0
 13 45  1  0
 13 46  1  0
 16 47  1  0
 18 48  1  0
 18 49  1  0
 19 50  1  6
 20 51  1  0
 20 52  1  0
 21 53  1  1
 22 54  1  0
 22 55  1  0
 23 56  1  6
 24 57  1  0
 24 58  1  0
 25 59  1  0
 25 60  1  0
 26 61  1  0
 26 62  1  0
M  END
>  <meeko>  (101) 
{"is_sidechain": false}

$$$$

     RDKit          3D

 62 66  0  0  0  0  0  0  0  0999 V2000
    6.0500   -4.1160  -50.5150 C   0  0  0  0  0  0  0  0  0  0  0  0
    7.5670   -4.1220  -50.3990 C   0  0  0  0  0  0  0  0  0  0  0  0
    8.1640   -2.7800  -50.8250 C   0  0  0  0  0  0  0  0  0  0  0  0
    9.4200   -2.9270  -51.6870 C   0  0  0  0  0  0  0  0  0  0  0  0
    9.2680   -2.2850  -52.9750 N   0  0  0  0  0  0  0  0  0  0  0  0
    8.5540   -1.0800  -53.0690 N   0  0  0  0  0  0  0  0  0  0  0  0
    8.7320   -0.7460  -54.3300 C   0  0  0  0  0  0  0  0  0  0  0  0
    8.1640    0.5010  -54.9500 C   0  0  0  0  0  0  0  0  0  0  0  0
    6.8610    0.1900  -55.6860 C   0  0  0  0  0  0  0  0  0  0  0  0
    6.2200    1.4530  -56.2630 C   0  0  0  0  0  0  0  0  0  0  0  0
    7.2380    2.4990  -56.7230 C   0  0  0  0  0  0  0  0  0  0  0  0
    8.5810    1.8750  -57.0740 C   0  0  0  0  0  0  0  0  0  0  0  0
    9.2030    1.1610  -55.8710 C   0  0  0  0  0  0  0  0  0  0  0  0
    9.5090   -1.6620  -54.9900 N   0  0  0  0  0  0  0  0  0  0  0  0
    9.9040   -2.6790  -54.1580 C   0  0  0  0  0  0  0  0  0  0  0  0
   10.6360   -3.7080  -54.3240 N   0  0  0  0  0  0  0  0  0  0  0  0
   11.2860   -4.0680  -55.5800 C   0  0  2  0  0  0  0  0  0  0  0  0
   12.4860   -4.9750  -55.1970 C   0  0  0  0  0  0  0  0  0  0  0  0
   13.2580   -5.4200  -56.4500 C   0  0  1  0  0  0  0  0  0  0  0  0
   12.3100   -6.1990  -57.3740 C   0  0  0  0  0  0  0  0  0  0  0  0
   11.1210   -5.3120  -57.7740 C   0  0  2  0  0  0  0  0  0  0  0  0
   11.6430   -4.0590  -58.5000 C   0  0  0  0  0  0  0  0  0  0  0  0
   12.6010   -3.2730  -57.5870 C   0  0  2  0  0  0  0  0  0  0  0  0
   13.7790   -4.1770  -57.1890 C   0  0  0  0  0  0  0  0  0  0  0  0
   11.8470   -2.8340  -56.3190 C   0  0  0  0  0  0  0  0  0  0  0  0
   10.3600   -4.8830  -56.5070 C   0  0  0  0  0  0  0  0  0  0  0  0
    5.6053   -4.1142  -49.5089 H   0  0  0  0  0  0  0  0  0  0  0  0
    5.7275   -3.2166  -51.0600 H   0  0  0  0  0  0  0  0  0  0  0  0
    5.7204   -5.0128  -51.0600 H   0  0  0  0  0  0  0  0  0  0  0  0
    7.8453   -4.3220  -49.3537 H   0  0  0  0  0  0  0  0  0  0  0  0
    7.9622   -4.9038  -51.0643 H   0  0  0  0  0  0  0  0  0  0  0  0
    7.4071   -2.2274  -51.4009 H   0  0  0  0  0  0  0  0  0  0  0  0
    8.4562   -2.2459  -49.9088 H   0  0  0  0  0  0  0  0  0  0  0  0
   10.2694   -2.4688  -51.1591 H   0  0  0  0  0  0  0  0  0  0  0  0
    9.5923   -3.9998  -51.8587 H   0  0  0  0  0  0  0  0  0  0  0  0
    7.9243    1.2203  -54.1530 H   0  0  0  0  0  0  0  0  0  0  0  0
    7.0745   -0.5087  -56.5084 H   0  0  0  0  0  0  0  0  0  0  0  0
    6.1577   -0.2518  -54.9648 H   0  0  0  0  0  0  0  0  0  0  0  0
    5.6013    1.1662  -57.1261 H   0  0  0  0  0  0  0  0  0  0  0  0
    5.6266    1.9112  -55.4581 H   0  0  0  0  0  0  0  0  0  0  0  0
    6.8422    3.0123  -57.6118 H   0  0  0  0  0  0  0  0  0  0  0  0
    7.3982    3.2035  -55.8936 H   0  0  0  0  0  0  0  0  0  0  0  0
    8.4349    1.1464  -57.8851 H   0  0  0  0  0  0  0  0  0  0  0  0
    9.2628    2.6797  -57.3865 H   0  0  0  0  0  0  0  0  0  0  0  0
    9.8852    0.3819  -56.2421 H   0  0  0  0  0  0  0  0  0  0  0  0
    9.7275    1.9231  -55.2760 H   0  0  0  0  0  0  0  0  0  0  0  0
    9.7920   -1.5820  -55.9480 H   0  0  0  0  0  0  0  0  0  0  0  0
   13.1640   -4.4154  -54.5358 H   0  0  0  0  0  0  0  0  0  0  0  0
   12.1017   -5.8692  -54.6844 H   0  0  0  0  0  0  0  0  0  0  0  0
   14.1039   -6.0606  -56.1601 H   0  0  0  0  0  0  0  0  0  0  0  0
   12.8548   -6.5078  -58.2784 H   0  0  0  0  0  0  0  0  0  0  0  0
   11.9361   -7.0867  -56.8428 H   0  0  0  0  0  0  0  0  0  0  0  0
   10.4482   -5.8726  -58.4397 H   0  0  0  0  0  0  0  0  0  0  0  0
   12.1786   -4.3642  -59.4111 H   0  0  0  0  0  0  0  0  0  0  0  0
   10.7900   -3.4158  -58.7620 H   0  0  0  0  0  0  0  0  0  0  0  0
   12.9776   -2.3875  -58.1199 H   0  0  0  0  0  0  0  0  0  0  0  0
   14.3200   -4.4907  -58.0939 H   0  0  0  0  0  0  0  0  0  0  0  0
   14.4561   -3.6186  -56.5258 H   0  0  0  0  0  0  0  0  0  0  0  0
   12.5374   -2.2946  -55.6539 H   0  0  0  0  0  0  0  0  0  0  0  0
   11.0129   -2.1768  -56.6061 H   0  0  0  0  0  0  0  0  0  0  0  0
    9.4968   -4.2644  -56.7935 H   0  0  0  0  0  0  0  0  0  0  0  0
   10.0172   -5.7813  -55.9726 H   0  0  0  0  0  0  0  0  0  0  0  0
  1  2  1  0
  2  3  1  0
  3  4  1  0
  4  5  1  0
  5  6  1  0
  6  7  2  0
  7  8  1  0
  8  9  1  0
  9 10  1  0
 10 11  1  0
 11 12  1  0
 12 13  1  0
  7 14  1  0
 14 15  1  0
 15 16  2  0
 17 16  1  1
 17 18  1  0
 18 19  1  0
 19 20  1  0
 20 21  1  0
 21 22  1  0
 22 23  1  0
 23 24  1  0
 23 25  1  0
 21 26  1  0
 15  5  1  0
 25 17  1  0
 13  8  1  0
 26 17  1  0
 24 19  1  0
  1 27  1  0
  1 28  1  0
  1 29  1  0
  2 30  1  0
  2 31  1  0
  3 32  1  0
  3 33  1  0
  4 34  1  0
  4 35  1  0
  8 36  1  0
  9 37  1  0
  9 38  1  0
 10 39  1  0
 10 40  1  0
 11 41  1  0
 11 42  1  0
 12 43  1  0
 12 44  1  0
 13 45  1  0
 13 46  1  0
 14 47  1  0
 18 48  1  0
 18 49  1  0
 19 50  1  1
 20 51  1  0
 20 52  1  0
 21 53  1  6
 22 54  1  0
 22 55  1  0
 23 56  1  6
 24 57  1  0
 24 58  1  0
 25 59  1  0
 25 60  1  0
 26 61  1  0
 26 62  1  0
M  END
>  <meeko>  (102) 
{"is_sidechain": false}

$$$$

     RDKit          3D

 62 66  0  0  0  0  0  0  0  0999 V2000
    5.1660    1.6100  -59.8080 C   0  0  0  0  0  0  0  0  0  0  0  0
    5.0960    2.6580  -58.7090 C   0  0  0  0  0  0  0  0  0  0  0  0
    5.0280    2.0620  -57.3020 C   0  0  0  0  0  0  0  0  0  0  0  0
    6.2320    2.4230  -56.4350 C   0  0  0  0  0  0  0  0  0  0  0  0
    7.2320    1.3460  -56.4630 N   0  0  0  0  0  0  0  0  0  0  0  0
    6.7910    0.2240  -55.6830 N   0  0  0  0  0  0  0  0  0  0  0  0
    7.8480   -0.0880  -54.9630 C   0  0  0  0  0  0  0  0  0  0  0  0
    7.9150   -1.2220  -53.9820 C   0  0  0  0  0  0  0  0  0  0  0  0
    9.2830   -1.9170  -54.0660 C   0  0  0  0  0  0  0  0  0  0  0  0
    9.7610   -2.4860  -52.7270 C   0  0  0  0  0  0  0  0  0  0  0  0
    8.5970   -2.9880  -51.8840 C   0  0  0  0  0  0  0  0  0  0  0  0
    7.6030   -1.8740  -51.5550 C   0  0  0  0  0  0  0  0  0  0  0  0
    7.6120   -0.7270  -52.5670 C   0  0  0  0  0  0  0  0  0  0  0  0
    8.8820    0.7620  -55.2110 N   0  0  0  0  0  0  0  0  0  0  0  0
    8.6000    1.6240  -56.2420 C   0  0  0  0  0  0  0  0  0  0  0  0
    9.5350    2.3000  -56.7770 N   0  0  0  0  0  0  0  0  0  0  0  0
    9.5240    3.0170  -58.0460 C   0  0  2  0  0  0  0  0  0  0  0  0
    8.8460    4.3840  -57.7280 C   0  0  0  0  0  0  0  0  0  0  0  0
    8.7830    5.2760  -58.9780 C   0  0  1  0  0  0  0  0  0  0  0  0
   10.2090    5.5270  -59.4900 C   0  0  0  0  0  0  0  0  0  0  0  0
   10.8890    4.1900  -59.8240 C   0  0  2  0  0  0  0  0  0  0  0  0
   10.0670    3.4630  -60.9050 C   0  0  0  0  0  0  0  0  0  0  0  0
    8.6330    3.2120  -60.4030 C   0  0  2  0  0  0  0  0  0  0  0  0
    7.9700    4.5560  -60.0640 C   0  0  0  0  0  0  0  0  0  0  0  0
    8.6900    2.3330  -59.1390 C   0  0  0  0  0  0  0  0  0  0  0  0
   10.9490    3.3230  -58.5530 C   0  0  0  0  0  0  0  0  0  0  0  0
    5.2329    0.6091  -59.3565 H   0  0  0  0  0  0  0  0  0  0  0  0
    4.2618    1.6714  -60.4313 H   0  0  0  0  0  0  0  0  0  0  0  0
    6.0540    1.7911  -60.4313 H   0  0  0  0  0  0  0  0  0  0  0  0
    5.9919    3.2928  -58.7755 H   0  0  0  0  0  0  0  0  0  0  0  0
    4.1684    3.2286  -58.8642 H   0  0  0  0  0  0  0  0  0  0  0  0
    4.1181    2.4343  -56.8086 H   0  0  0  0  0  0  0  0  0  0  0  0
    5.0214    0.9675  -57.4115 H   0  0  0  0  0  0  0  0  0  0  0  0
    6.6873    3.3489  -56.8163 H   0  0  0  0  0  0  0  0  0  0  0  0
    5.8925    2.5645  -55.3983 H   0  0  0  0  0  0  0  0  0  0  0  0
    7.1467   -1.9659  -54.2394 H   0  0  0  0  0  0  0  0  0  0  0  0
    9.2106   -2.7425  -54.7894 H   0  0  0  0  0  0  0  0  0  0  0  0
   10.0148   -1.1559  -54.3744 H   0  0  0  0  0  0  0  0  0  0  0  0
   10.4490   -3.3224  -52.9197 H   0  0  0  0  0  0  0  0  0  0  0  0
   10.2661   -1.6817  -52.1720 H   0  0  0  0  0  0  0  0  0  0  0  0
    8.0721   -3.7792  -52.4394 H   0  0  0  0  0  0  0  0  0  0  0  0
    9.0047   -3.3691  -50.9361 H   0  0  0  0  0  0  0  0  0  0  0  0
    6.5920   -2.3066  -51.5286 H   0  0  0  0  0  0  0  0  0  0  0  0
    7.9023   -1.4507  -50.5848 H   0  0  0  0  0  0  0  0  0  0  0  0
    6.6253   -0.2408  -52.5633 H   0  0  0  0  0  0  0  0  0  0  0  0
    8.4019   -0.0192  -52.2753 H   0  0  0  0  0  0  0  0  0  0  0  0
    9.8370    0.6090  -54.9370 H   0  0  0  0  0  0  0  0  0  0  0  0
    7.8237    4.2019  -57.3650 H   0  0  0  0  0  0  0  0  0  0  0  0
    9.4431    4.8995  -56.9614 H   0  0  0  0  0  0  0  0  0  0  0  0
    8.3059    6.2361  -58.7318 H   0  0  0  0  0  0  0  0  0  0  0  0
   10.1668    6.1506  -60.3952 H   0  0  0  0  0  0  0  0  0  0  0  0
   10.7881    6.0422  -58.7094 H   0  0  0  0  0  0  0  0  0  0  0  0
   11.9088    4.3696  -60.1951 H   0  0  0  0  0  0  0  0  0  0  0  0
   10.0309    4.0834  -61.8127 H   0  0  0  0  0  0  0  0  0  0  0  0
   10.5432    2.4971  -61.1292 H   0  0  0  0  0  0  0  0  0  0  0  0
    8.0478    2.7026  -61.1827 H   0  0  0  0  0  0  0  0  0  0  0  0
    7.9313    5.1826  -60.9673 H   0  0  0  0  0  0  0  0  0  0  0  0
    6.9496    4.3755  -59.6950 H   0  0  0  0  0  0  0  0  0  0  0  0
    7.6684    2.1691  -58.7656 H   0  0  0  0  0  0  0  0  0  0  0  0
    9.1588    1.3714  -59.3950 H   0  0  0  0  0  0  0  0  0  0  0  0
   11.4634    2.3781  -58.7822 H   0  0  0  0  0  0  0  0  0  0  0  0
   11.4970    3.8704  -57.7719 H   0  0  0  0  0  0  0  0  0  0  0  0
  1  2  1  0
  2  3  1  0
  3  4  1  0
  4  5  1  0
  5  6  1  0
  6  7  2  0
  7  8  1  0
  8  9  1  0
  9 10  1  0
 10 11  1  0
 11 12  1  0
 12 13  1  0
  7 14  1  0
 14 15  1  0
 15 16  2  0
 17 16  1  1
 17 18  1  0
 18 19  1  0
 19 20  1  0
 20 21  1  0
 21 22  1  0
 22 23  1  0
 23 24  1  0
 23 25  1  0
 21 26  1  0
 15  5  1  0
 25 17  1  0
 13  8  1  0
 26 17  1  0
 24 19  1  0
  1 27  1  0
  1 28  1  0
  1 29  1  0
  2 30  1  0
  2 31  1  0
  3 32  1  0
  3 33  1  0
  4 34  1  0
  4 35  1  0
  8 36  1  0
  9 37  1  0
  9 38  1  0
 10 39  1  0
 10 40  1  0
 11 41  1  0
 11 42  1  0
 12 43  1  0
 12 44  1  0
 13 45  1  0
 13 46  1  0
 14 47  1  0
 18 48  1  0
 18 49  1  0
 19 50  1  1
 20 51  1  0
 20 52  1  0
 21 53  1  6
 22 54  1  0
 22 55  1  0
 23 56  1  6
 24 57  1  0
 24 58  1  0
 25 59  1  0
 25 60  1  0
 26 61  1  0
 26 62  1  0
M  END
>  <meeko>  (103) 
{"is_sidechain": false}

$$$$

     RDKit          3D

 62 66  0  0  0  0  0  0  0  0999 V2000
    2.8440    1.0240  -61.7950 C   0  0  0  0  0  0  0  0  0  0  0  0
    3.1000    1.9310  -60.6030 C   0  0  0  0  0  0  0  0  0  0  0  0
    4.5560    1.8580  -60.1470 C   0  0  0  0  0  0  0  0  0  0  0  0
    4.7190    2.3930  -58.7220 C   0  0  0  0  0  0  0  0  0  0  0  0
    5.7830    1.7060  -58.0050 N   0  0  0  0  0  0  0  0  0  0  0  0
    5.5400    1.1520  -56.7630 N   0  0  0  0  0  0  0  0  0  0  0  0
    6.7690    1.1950  -56.1200 C   0  0  0  0  0  0  0  0  0  0  0  0
    7.0310    0.5560  -54.7770 C   0  0  0  0  0  0  0  0  0  0  0  0
    6.2890   -0.7840  -54.6810 C   0  0  0  0  0  0  0  0  0  0  0  0
    6.8830   -1.6680  -53.5940 C   0  0  0  0  0  0  0  0  0  0  0  0
    8.3490   -2.0080  -53.8660 C   0  0  0  0  0  0  0  0  0  0  0  0
    9.0700   -0.9730  -54.7300 C   0  0  0  0  0  0  0  0  0  0  0  0
    8.5390    0.4400  -54.5000 C   0  0  0  0  0  0  0  0  0  0  0  0
    7.7050    1.8320  -56.7840 N   0  0  0  0  0  0  0  0  0  0  0  0
    7.0800    2.2110  -57.9600 C   0  0  0  0  0  0  0  0  0  0  0  0
    7.6270    2.9430  -58.8560 N   0  0  0  0  0  0  0  0  0  0  0  0
    8.9900    3.4680  -58.7580 C   0  0  2  0  0  0  0  0  0  0  0  0
    9.0710    4.7400  -57.8860 C   0  0  0  0  0  0  0  0  0  0  0  0
   10.5020    5.3090  -57.9080 C   0  0  1  0  0  0  0  0  0  0  0  0
   11.4820    4.2380  -57.3950 C   0  0  0  0  0  0  0  0  0  0  0  0
   11.4290    2.9900  -58.2940 C   0  0  2  0  0  0  0  0  0  0  0  0
   11.7960    3.3870  -59.7320 C   0  0  0  0  0  0  0  0  0  0  0  0
   10.8090    4.4440  -60.2510 C   0  0  2  0  0  0  0  0  0  0  0  0
   10.8760    5.6880  -59.3500 C   0  0  0  0  0  0  0  0  0  0  0  0
    9.3850    3.8680  -60.2080 C   0  0  0  0  0  0  0  0  0  0  0  0
   10.0030    2.4100  -58.2740 C   0  0  0  0  0  0  0  0  0  0  0  0
    2.5612    0.0222  -61.4394 H   0  0  0  0  0  0  0  0  0  0  0  0
    2.0283    1.4406  -62.4042 H   0  0  0  0  0  0  0  0  0  0  0  0
    3.7571    0.9526  -62.4042 H   0  0  0  0  0  0  0  0  0  0  0  0
    2.8655    2.9678  -60.8858 H   0  0  0  0  0  0  0  0  0  0  0  0
    2.4608    1.5979  -59.7721 H   0  0  0  0  0  0  0  0  0  0  0  0
    4.8889    0.8100  -60.1767 H   0  0  0  0  0  0  0  0  0  0  0  0
    5.1634    2.4781  -60.8227 H   0  0  0  0  0  0  0  0  0  0  0  0
    4.9568    3.4659  -58.7696 H   0  0  0  0  0  0  0  0  0  0  0  0
    3.7762    2.2205  -58.1822 H   0  0  0  0  0  0  0  0  0  0  0  0
    5.0660    0.2540  -56.7480 H   0  0  0  0  0  0  0  0  0  0  0  0
    6.6326    1.2026  -53.9813 H   0  0  0  0  0  0  0  0  0  0  0  0
    5.2311   -0.5920  -54.4485 H   0  0  0  0  0  0  0  0  0  0  0  0
    6.3871   -1.3052  -55.6447 H   0  0  0  0  0  0  0  0  0  0  0  0
    6.8140   -1.1408  -52.6310 H   0  0  0  0  0  0  0  0  0  0  0  0
    6.3148   -2.6097  -53.5752 H   0  0  0  0  0  0  0  0  0  0  0  0
    8.8732   -2.0811  -52.9017 H   0  0  0  0  0  0  0  0  0  0  0  0
    8.3610   -2.9563  -54.4233 H   0  0  0  0  0  0  0  0  0  0  0  0
   10.1424   -0.9927  -54.4858 H   0  0  0  0  0  0  0  0  0  0  0  0
    8.8951   -1.2323  -55.7846 H   0  0  0  0  0  0  0  0  0  0  0  0
    8.7279    0.7216  -53.4536 H   0  0  0  0  0  0  0  0  0  0  0  0
    9.0594    1.1101  -55.2001 H   0  0  0  0  0  0  0  0  0  0  0  0
    8.3737    5.4948  -58.2785 H   0  0  0  0  0  0  0  0  0  0  0  0
    8.8024    4.4834  -56.8506 H   0  0  0  0  0  0  0  0  0  0  0  0
   10.5557    6.1999  -57.2651 H   0  0  0  0  0  0  0  0  0  0  0  0
   12.5030    4.6473  -57.4023 H   0  0  0  0  0  0  0  0  0  0  0  0
   11.1970    3.9536  -56.3713 H   0  0  0  0  0  0  0  0  0  0  0  0
   12.1398    2.2359  -57.9250 H   0  0  0  0  0  0  0  0  0  0  0  0
   12.8150    3.8009  -59.7473 H   0  0  0  0  0  0  0  0  0  0  0  0
   11.7462    2.4974  -60.3771 H   0  0  0  0  0  0  0  0  0  0  0  0
   11.0701    4.7192  -61.2835 H   0  0  0  0  0  0  0  0  0  0  0  0
   11.8973    6.0962  -59.3668 H   0  0  0  0  0  0  0  0  0  0  0  0
   10.1680    6.4434  -59.7216 H   0  0  0  0  0  0  0  0  0  0  0  0
    8.6788    4.6263  -60.5772 H   0  0  0  0  0  0  0  0  0  0  0  0
    9.3508    2.9693  -60.8414 H   0  0  0  0  0  0  0  0  0  0  0  0
    9.9579    1.5337  -58.9374 H   0  0  0  0  0  0  0  0  0  0  0  0
    9.7500    2.1156  -57.2448 H   0  0  0  0  0  0  0  0  0  0  0  0
  1  2  1  0
  2  3  1  0
  3  4  1  0
  4  5  1  0
  5  6  1  0
  6  7  1  0
  7  8  1  0
  8  9  1  0
  9 10  1  0
 10 11  1  0
 11 12  1  0
 12 13  1  0
  7 14  2  0
 14 15  1  0
 15 16  2  0
 17 16  1  6
 17 18  1  0
 18 19  1  0
 19 20  1  0
 20 21  1  0
 21 22  1  0
 22 23  1  0
 23 24  1  0
 23 25  1  0
 21 26  1  0
 15  5  1  0
 25 17  1  0
 13  8  1  0
 26 17  1  0
 24 19  1  0
  1 27  1  0
  1 28  1  0
  1 29  1  0
  2 30  1  0
  2 31  1  0
  3 32  1  0
  3 33  1  0
  4 34  1  0
  4 35  1  0
  6 36  1  0
  8 37  1  0
  9 38  1  0
  9 39  1  0
 10 40  1  0
 10 41  1  0
 11 42  1  0
 11 43  1  0
 12 44  1  0
 12 45  1  0
 13 46  1  0
 13 47  1  0
 18 48  1  0
 18 49  1  0
 19 50  1  1
 20 51  1  0
 20 52  1  0
 21 53  1  1
 22 54  1  0
 22 55  1  0
 23 56  1  6
 24 57  1  0
 24 58  1  0
 25 59  1  0
 25 60  1  0
 26 61  1  0
 26 62  1  0
M  END
>  <meeko>  (104) 
{"is_sidechain": false}

$$$$

     RDKit          3D

 62 66  0  0  0  0  0  0  0  0999 V2000
    5.7350    1.2560  -59.8290 C   0  0  0  0  0  0  0  0  0  0  0  0
    5.6160    2.5300  -59.0060 C   0  0  0  0  0  0  0  0  0  0  0  0
    4.9590    2.2590  -57.6510 C   0  0  0  0  0  0  0  0  0  0  0  0
    5.9350    2.3200  -56.4720 C   0  0  0  0  0  0  0  0  0  0  0  0
    6.8360    1.1670  -56.3530 N   0  0  0  0  0  0  0  0  0  0  0  0
    6.3060    0.1200  -55.5920 N   0  0  0  0  0  0  0  0  0  0  0  0
    7.3320   -0.2950  -54.7670 C   0  0  0  0  0  0  0  0  0  0  0  0
    7.2170   -1.4590  -53.8110 C   0  0  0  0  0  0  0  0  0  0  0  0
    8.1350   -2.6190  -54.2280 C   0  0  0  0  0  0  0  0  0  0  0  0
    9.4370   -2.6490  -53.4340 C   0  0  0  0  0  0  0  0  0  0  0  0
    9.1940   -2.7650  -51.9290 C   0  0  0  0  0  0  0  0  0  0  0  0
    7.8850   -2.1220  -51.4660 C   0  0  0  0  0  0  0  0  0  0  0  0
    7.4600   -0.9760  -52.3740 C   0  0  0  0  0  0  0  0  0  0  0  0
    8.4340    0.3930  -54.9030 N   0  0  0  0  0  0  0  0  0  0  0  0
    8.1750    1.2780  -55.9480 C   0  0  0  0  0  0  0  0  0  0  0  0
    9.2070    1.9010  -56.3200 N   0  0  0  0  0  0  0  0  0  0  0  0
    9.5640    2.7440  -57.4390 C   0  0  2  0  0  0  0  0  0  0  0  0
   11.1040    2.9150  -57.3930 C   0  0  0  0  0  0  0  0  0  0  0  0
   11.5780    3.9160  -58.4580 C   0  0  1  0  0  0  0  0  0  0  0  0
   11.1680    3.4010  -59.8450 C   0  0  0  0  0  0  0  0  0  0  0  0
    9.6400    3.2520  -59.9160 C   0  0  2  0  0  0  0  0  0  0  0  0
    8.9840    4.6200  -59.6610 C   0  0  0  0  0  0  0  0  0  0  0  0
    9.3810    5.1380  -58.2690 C   0  0  2  0  0  0  0  0  0  0  0  0
   10.9110    5.2790  -58.2020 C   0  0  0  0  0  0  0  0  0  0  0  0
    8.9180    4.1310  -57.2010 C   0  0  0  0  0  0  0  0  0  0  0  0
    9.1710    2.2580  -58.8350 C   0  0  0  0  0  0  0  0  0  0  0  0
    5.8159    0.3904  -59.1551 H   0  0  0  0  0  0  0  0  0  0  0  0
    4.8433    1.1447  -60.4635 H   0  0  0  0  0  0  0  0  0  0  0  0
    6.6318    1.3118  -60.4635 H   0  0  0  0  0  0  0  0  0  0  0  0
    6.6214    2.9442  -58.8400 H   0  0  0  0  0  0  0  0  0  0  0  0
    4.9872    3.2428  -59.5597 H   0  0  0  0  0  0  0  0  0  0  0  0
    4.1719    3.0104  -57.4899 H   0  0  0  0  0  0  0  0  0  0  0  0
    4.5595    1.2347  -57.6858 H   0  0  0  0  0  0  0  0  0  0  0  0
    6.5510    3.2243  -56.5852 H   0  0  0  0  0  0  0  0  0  0  0  0
    5.3178    2.3235  -55.5615 H   0  0  0  0  0  0  0  0  0  0  0  0
    5.8340   -0.6190  -56.1070 H   0  0  0  0  0  0  0  0  0  0  0  0
    6.1953   -1.8648  -53.8500 H   0  0  0  0  0  0  0  0  0  0  0  0
    7.6011   -3.5670  -54.0658 H   0  0  0  0  0  0  0  0  0  0  0  0
    8.3933   -2.4760  -55.2876 H   0  0  0  0  0  0  0  0  0  0  0  0
   10.0332   -3.5125  -53.7640 H   0  0  0  0  0  0  0  0  0  0  0  0
    9.9664   -1.7026  -53.6183 H   0  0  0  0  0  0  0  0  0  0  0  0
    9.1702   -3.8319  -51.6623 H   0  0  0  0  0  0  0  0  0  0  0  0
   10.0117   -2.2255  -51.4288 H   0  0  0  0  0  0  0  0  0  0  0  0
    7.0943   -2.8868  -51.4656 H   0  0  0  0  0  0  0  0  0  0  0  0
    8.0449   -1.7145  -50.4568 H   0  0  0  0  0  0  0  0  0  0  0  0
    6.5311   -0.5353  -51.9829 H   0  0  0  0  0  0  0  0  0  0  0  0
    8.2689   -0.2308  -52.3919 H   0  0  0  0  0  0  0  0  0  0  0  0
   11.3957    3.2828  -56.3982 H   0  0  0  0  0  0  0  0  0  0  0  0
   11.5715    1.9400  -57.5952 H   0  0  0  0  0  0  0  0  0  0  0  0
   12.6715    4.0257  -58.4104 H   0  0  0  0  0  0  0  0  0  0  0  0
   11.5010    4.1151  -60.6125 H   0  0  0  0  0  0  0  0  0  0  0  0
   11.6363    2.4214  -60.0210 H   0  0  0  0  0  0  0  0  0  0  0  0
    9.3529    2.8802  -60.9106 H   0  0  0  0  0  0  0  0  0  0  0  0
    9.3211    5.3347  -60.4262 H   0  0  0  0  0  0  0  0  0  0  0  0
    7.8903    4.5125  -59.7096 H   0  0  0  0  0  0  0  0  0  0  0  0
    8.9080    6.1142  -58.0867 H   0  0  0  0  0  0  0  0  0  0  0  0
   11.2443    5.9967  -58.9661 H   0  0  0  0  0  0  0  0  0  0  0  0
   11.1966    5.6381  -57.2023 H   0  0  0  0  0  0  0  0  0  0  0  0
    9.2103    4.4995  -56.2066 H   0  0  0  0  0  0  0  0  0  0  0  0
    7.8247    4.0271  -57.2637 H   0  0  0  0  0  0  0  0  0  0  0  0
    8.0767    2.1592  -58.8871 H   0  0  0  0  0  0  0  0  0  0  0  0
    9.6537    1.2866  -59.0177 H   0  0  0  0  0  0  0  0  0  0  0  0
  1  2  1  0
  2  3  1  0
  3  4  1  0
  4  5  1  0
  5  6  1  0
  6  7  1  0
  7  8  1  0
  8  9  1  0
  9 10  1  0
 10 11  1  0
 11 12  1  0
 12 13  1  0
  7 14  2  0
 14 15  1  0
 15 16  2  0
 17 16  1  1
 17 18  1  0
 18 19  1  0
 19 20  1  0
 20 21  1  0
 21 22  1  0
 22 23  1  0
 23 24  1  0
 23 25  1  0
 21 26  1  0
 15  5  1  0
 25 17  1  0
 13  8  1  0
 26 17  1  0
 24 19  1  0
  1 27  1  0
  1 28  1  0
  1 29  1  0
  2 30  1  0
  2 31  1  0
  3 32  1  0
  3 33  1  0
  4 34  1  0
  4 35  1  0
  6 36  1  0
  8 37  1  0
  9 38  1  0
  9 39  1  0
 10 40  1  0
 10 41  1  0
 11 42  1  0
 11 43  1  0
 12 44  1  0
 12 45  1  0
 13 46  1  0
 13 47  1  0
 18 48  1  0
 18 49  1  0
 19 50  1  6
 20 51  1  0
 20 52  1  0
 21 53  1  6
 22 54  1  0
 22 55  1  0
 23 56  1  1
 24 57  1  0
 24 58  1  0
 25 59  1  0
 25 60  1  0
 26 61  1  0
 26 62  1  0
M  END
>  <meeko>  (105) 
{"is_sidechain": false}

$$$$

     RDKit          3D

 57 61  0  0  0  0  0  0  0  0999 V2000
   12.3120    3.4580  -58.0930 C   0  0  0  0  0  0  0  0  0  0  0  0
   11.4530    3.0090  -57.1700 C   0  0  0  0  0  0  0  0  0  0  0  0
   10.3690    2.0020  -57.4470 C   0  0  0  0  0  0  0  0  0  0  0  0
    8.9490    2.5890  -57.3390 C   0  0  2  0  0  0  0  0  0  0  0  0
    8.9410    4.0380  -56.8370 C   0  0  0  0  0  0  0  0  0  0  0  0
    8.1160    1.7370  -56.4930 N   0  0  0  0  0  0  0  0  0  0  0  0
    8.6040    1.2730  -55.3260 N   0  0  0  0  0  0  0  0  0  0  0  0
    7.5440    0.6620  -54.8060 C   0  0  0  0  0  0  0  0  0  0  0  0
    7.5560    0.0630  -53.6070 N   0  0  0  0  0  0  0  0  0  0  0  0
    8.1430   -1.2420  -53.3270 C   0  0  2  0  0  0  0  0  0  0  0  0
    9.6860   -1.2190  -53.4370 C   0  0  0  0  0  0  0  0  0  0  0  0
   10.2700   -2.5940  -53.0640 C   0  0  1  0  0  0  0  0  0  0  0  0
    9.8890   -2.9320  -51.6140 C   0  0  0  0  0  0  0  0  0  0  0  0
    8.3600   -2.9780  -51.4720 C   0  0  2  0  0  0  0  0  0  0  0  0
    7.7930   -4.0520  -52.4110 C   0  0  0  0  0  0  0  0  0  0  0  0
    8.1590   -3.7200  -53.8660 C   0  0  2  0  0  0  0  0  0  0  0  0
    9.6900   -3.6640  -54.0040 C   0  0  0  0  0  0  0  0  0  0  0  0
    7.5660   -2.3490  -54.2420 C   0  0  0  0  0  0  0  0  0  0  0  0
    7.7770   -1.6100  -51.8590 C   0  0  0  0  0  0  0  0  0  0  0  0
    6.4370    0.6860  -55.5930 N   0  0  0  0  0  0  0  0  0  0  0  0
    6.8150    1.3350  -56.6790 C   0  0  0  0  0  0  0  0  0  0  0  0
    5.9700    1.6090  -57.8360 C   0  0  0  0  0  0  0  0  0  0  0  0
    4.7890    2.3440  -57.6650 C   0  0  0  0  0  0  0  0  0  0  0  0
    3.9580    2.6180  -58.7530 C   0  0  0  0  0  0  0  0  0  0  0  0
    4.2950    2.1490  -60.0210 C   0  0  0  0  0  0  0  0  0  0  0  0
    5.4540    1.3960  -60.2010 C   0  0  0  0  0  0  0  0  0  0  0  0
    6.2860    1.1210  -59.1120 C   0  0  0  0  0  0  0  0  0  0  0  0
   13.0799    4.1957  -57.8170 H   0  0  0  0  0  0  0  0  0  0  0  0
   12.2501    3.0893  -59.1275 H   0  0  0  0  0  0  0  0  0  0  0  0
   11.5448    3.4000  -56.1459 H   0  0  0  0  0  0  0  0  0  0  0  0
   10.5083    1.6105  -58.4655 H   0  0  0  0  0  0  0  0  0  0  0  0
   10.4543    1.2139  -56.6843 H   0  0  0  0  0  0  0  0  0  0  0  0
    8.5278    2.6124  -58.3549 H   0  0  0  0  0  0  0  0  0  0  0  0
    8.9410    4.0450  -55.7370 H   0  0  0  0  0  0  0  0  0  0  0  0
    9.8363    4.5592  -57.2069 H   0  0  0  0  0  0  0  0  0  0  0  0
    8.0400    4.5492  -57.2069 H   0  0  0  0  0  0  0  0  0  0  0  0
    7.5500    0.7130  -52.8310 H   0  0  0  0  0  0  0  0  0  0  0  0
    9.9723   -0.9714  -54.4698 H   0  0  0  0  0  0  0  0  0  0  0  0
   10.0824   -0.4624  -52.7439 H   0  0  0  0  0  0  0  0  0  0  0  0
   11.3653   -2.5692  -53.1621 H   0  0  0  0  0  0  0  0  0  0  0  0
   10.3099   -3.9122  -51.3454 H   0  0  0  0  0  0  0  0  0  0  0  0
   10.2917   -2.1580  -50.9441 H   0  0  0  0  0  0  0  0  0  0  0  0
    8.0919   -3.2179  -50.4325 H   0  0  0  0  0  0  0  0  0  0  0  0
    8.2161   -5.0313  -52.1428 H   0  0  0  0  0  0  0  0  0  0  0  0
    6.6980   -4.0800  -52.3102 H   0  0  0  0  0  0  0  0  0  0  0  0
    7.7535   -4.4941  -54.5341 H   0  0  0  0  0  0  0  0  0  0  0  0
   10.1143   -4.6449  -53.7435 H   0  0  0  0  0  0  0  0  0  0  0  0
    9.9473   -3.4068  -55.0421 H   0  0  0  0  0  0  0  0  0  0  0  0
    7.8159   -2.1208  -55.2887 H   0  0  0  0  0  0  0  0  0  0  0  0
    6.4742   -2.3851  -54.1131 H   0  0  0  0  0  0  0  0  0  0  0  0
    6.6821   -1.6444  -51.7592 H   0  0  0  0  0  0  0  0  0  0  0  0
    8.2014   -0.8466  -51.1903 H   0  0  0  0  0  0  0  0  0  0  0  0
    4.5142    2.7084  -56.6642 H   0  0  0  0  0  0  0  0  0  0  0  0
    3.0380    3.2036  -58.6092 H   0  0  0  0  0  0  0  0  0  0  0  0
    3.6460    2.3731  -60.8804 H   0  0  0  0  0  0  0  0  0  0  0  0
    5.7141    1.0179  -61.2007 H   0  0  0  0  0  0  0  0  0  0  0  0
    7.1944    0.5179  -59.2569 H   0  0  0  0  0  0  0  0  0  0  0  0
  1  2  2  0
  2  3  1  0
  3  4  1  0
  4  5  1  0
  4  6  1  0
  6  7  1  0
  7  8  2  0
  8  9  1  0
 10  9  1  6
 10 11  1  0
 11 12  1  0
 12 13  1  0
 13 14  1  0
 14 15  1  0
 15 16  1  0
 16 17  1  0
 16 18  1  0
 14 19  1  0
  8 20  1  0
 20 21  2  0
 21 22  1  0
 22 23  2  0
 23 24  1  0
 24 25  2  0
 25 26  1  0
 26 27  2  0
 21  6  1  0
 27 22  1  0
 18 10  1  0
 19 10  1  0
 17 12  1  0
  1 28  1  0
  1 29  1  0
  2 30  1  0
  3 31  1  0
  3 32  1  0
  4 33  1  6
  5 34  1  0
  5 35  1  0
  5 36  1  0
  9 37  1  0
 11 38  1  0
 11 39  1  0
 12 40  1  1
 13 41  1  0
 13 42  1  0
 14 43  1  1
 15 44  1  0
 15 45  1  0
 16 46  1  6
 17 47  1  0
 17 48  1  0
 18 49  1  0
 18 50  1  0
 19 51  1  0
 19 52  1  0
 23 53  1  0
 24 54  1  0
 25 55  1  0
 26 56  1  0
 27 57  1  0
M  END
>  <meeko>  (106) 
{"is_sidechain": false}

$$$$

     RDKit          3D

 57 61  0  0  0  0  0  0  0  0999 V2000
    9.6450    3.3850  -61.3560 C   0  0  0  0  0  0  0  0  0  0  0  0
    8.8910    3.7960  -60.3290 C   0  0  0  0  0  0  0  0  0  0  0  0
    9.4440    4.3880  -59.0600 C   0  0  0  0  0  0  0  0  0  0  0  0
    8.5470    4.1470  -57.8250 C   0  0  2  0  0  0  0  0  0  0  0  0
    8.9250    5.0520  -56.6470 C   0  0  0  0  0  0  0  0  0  0  0  0
    8.6090    2.7180  -57.4400 N   0  0  0  0  0  0  0  0  0  0  0  0
    9.3710    2.4000  -56.3190 N   0  0  0  0  0  0  0  0  0  0  0  0
    8.7040    1.3800  -55.6710 C   0  0  0  0  0  0  0  0  0  0  0  0
    9.2060    0.6960  -54.7130 N   0  0  0  0  0  0  0  0  0  0  0  0
    8.4960   -0.4020  -54.0520 C   0  0  2  0  0  0  0  0  0  0  0  0
    7.6510   -1.2380  -55.0380 C   0  0  0  0  0  0  0  0  0  0  0  0
    7.0160   -2.4360  -54.3090 C   0  0  1  0  0  0  0  0  0  0  0  0
    8.1270   -3.3340  -53.7430 C   0  0  0  0  0  0  0  0  0  0  0  0
    8.9900   -2.5380  -52.7530 C   0  0  2  0  0  0  0  0  0  0  0  0
    8.1070   -2.0350  -51.6000 C   0  0  0  0  0  0  0  0  0  0  0  0
    6.9950   -1.1270  -52.1490 C   0  0  2  0  0  0  0  0  0  0  0  0
    6.1400   -1.9210  -53.1530 C   0  0  0  0  0  0  0  0  0  0  0  0
    7.6310    0.0790  -52.8670 C   0  0  0  0  0  0  0  0  0  0  0  0
    9.6040   -1.3300  -53.4790 C   0  0  0  0  0  0  0  0  0  0  0  0
    7.4710    1.1540  -56.2380 N   0  0  0  0  0  0  0  0  0  0  0  0
    7.4500    1.9410  -57.2930 C   0  0  0  0  0  0  0  0  0  0  0  0
    6.2890    1.9560  -58.2100 C   0  0  0  0  0  0  0  0  0  0  0  0
    6.3310    1.2620  -59.4230 C   0  0  0  0  0  0  0  0  0  0  0  0
    5.2210    1.2790  -60.2700 C   0  0  0  0  0  0  0  0  0  0  0  0
    4.0720    1.9800  -59.9010 C   0  0  0  0  0  0  0  0  0  0  0  0
    4.0230    2.6550  -58.6810 C   0  0  0  0  0  0  0  0  0  0  0  0
    5.1300    2.6390  -57.8310 C   0  0  0  0  0  0  0  0  0  0  0  0
    9.1692    2.9618  -62.2529 H   0  0  0  0  0  0  0  0  0  0  0  0
   10.7404    3.4705  -61.3030 H   0  0  0  0  0  0  0  0  0  0  0  0
    7.7993    3.6949  -60.4179 H   0  0  0  0  0  0  0  0  0  0  0  0
   10.4297    3.9393  -58.8672 H   0  0  0  0  0  0  0  0  0  0  0  0
    9.5028    5.4762  -59.2096 H   0  0  0  0  0  0  0  0  0  0  0  0
    7.5135    4.4067  -58.0976 H   0  0  0  0  0  0  0  0  0  0  0  0
    8.7082    4.5330  -55.7016 H   0  0  0  0  0  0  0  0  0  0  0  0
    9.9978    5.2900  -56.6970 H   0  0  0  0  0  0  0  0  0  0  0  0
    8.3403    5.9824  -56.6970 H   0  0  0  0  0  0  0  0  0  0  0  0
   10.3540    2.1850  -56.4410 H   0  0  0  0  0  0  0  0  0  0  0  0
    6.8557   -0.6067  -55.4611 H   0  0  0  0  0  0  0  0  0  0  0  0
    8.3018   -1.6108  -55.8426 H   0  0  0  0  0  0  0  0  0  0  0  0
    6.3983   -3.0123  -55.0134 H   0  0  0  0  0  0  0  0  0  0  0  0
    7.6738   -4.1915  -53.2240 H   0  0  0  0  0  0  0  0  0  0  0  0
    8.7598   -3.6909  -54.5690 H   0  0  0  0  0  0  0  0  0  0  0  0
    9.7883   -3.1822  -52.3558 H   0  0  0  0  0  0  0  0  0  0  0  0
    7.6543   -2.8954  -51.0854 H   0  0  0  0  0  0  0  0  0  0  0  0
    8.7260   -1.4622  -50.8937 H   0  0  0  0  0  0  0  0  0  0  0  0
    6.3629   -0.7744  -51.3207 H   0  0  0  0  0  0  0  0  0  0  0  0
    5.6773   -2.7765  -52.6391 H   0  0  0  0  0  0  0  0  0  0  0  0
    5.3606   -1.2606  -53.5608 H   0  0  0  0  0  0  0  0  0  0  0  0
    6.8354    0.7395  -53.2423 H   0  0  0  0  0  0  0  0  0  0  0  0
    8.2680    0.6253  -52.1558 H   0  0  0  0  0  0  0  0  0  0  0  0
   10.2201   -0.7587  -52.7690 H   0  0  0  0  0  0  0  0  0  0  0  0
   10.2189   -1.6981  -54.3135 H   0  0  0  0  0  0  0  0  0  0  0  0
    7.2352    0.7046  -59.7091 H   0  0  0  0  0  0  0  0  0  0  0  0
    5.2522    0.7398  -61.2283 H   0  0  0  0  0  0  0  0  0  0  0  0
    3.2023    2.0004  -60.5742 H   0  0  0  0  0  0  0  0  0  0  0  0
    3.1127    3.1993  -58.3892 H   0  0  0  0  0  0  0  0  0  0  0  0
    5.0903    3.1630  -56.8646 H   0  0  0  0  0  0  0  0  0  0  0  0
  1  2  2  0
  2  3  1  0
  3  4  1  0
  4  5  1  0
  4  6  1  0
  6  7  1  0
  7  8  1  0
  8  9  2  0
 10  9  1  6
 10 11  1  0
 11 12  1  0
 12 13  1  0
 13 14  1  0
 14 15  1  0
 15 16  1  0
 16 17  1  0
 16 18  1  0
 14 19  1  0
  8 20  1  0
 20 21  2  0
 21 22  1  0
 22 23  2  0
 23 24  1  0
 24 25  2  0
 25 26  1  0
 26 27  2  0
 21  6  1  0
 27 22  1  0
 18 10  1  0
 19 10  1  0
 17 12  1  0
  1 28  1  0
  1 29  1  0
  2 30  1  0
  3 31  1  0
  3 32  1  0
  4 33  1  6
  5 34  1  0
  5 35  1  0
  5 36  1  0
  7 37  1  0
 11 38  1  0
 11 39  1  0
 12 40  1  6
 13 41  1  0
 13 42  1  0
 14 43  1  1
 15 44  1  0
 15 45  1  0
 16 46  1  1
 17 47  1  0
 17 48  1  0
 18 49  1  0
 18 50  1  0
 19 51  1  0
 19 52  1  0
 23 53  1  0
 24 54  1  0
 25 55  1  0
 26 56  1  0
 27 57  1  0
M  END
>  <meeko>  (107) 
{"is_sidechain": false}

$$$$

     RDKit          3D

 57 61  0  0  0  0  0  0  0  0999 V2000
   11.5480   -3.4660  -57.2360 C   0  0  0  0  0  0  0  0  0  0  0  0
   10.8570   -4.2030  -56.3580 C   0  0  0  0  0  0  0  0  0  0  0  0
   10.9860   -4.0770  -54.8590 C   0  0  0  0  0  0  0  0  0  0  0  0
   10.9320   -2.6190  -54.3220 C   0  0  2  0  0  0  0  0  0  0  0  0
   11.3430   -2.6090  -52.8490 C   0  0  0  0  0  0  0  0  0  0  0  0
    9.5940   -2.0020  -54.5870 N   0  0  0  0  0  0  0  0  0  0  0  0
    9.6930   -0.8310  -55.3660 N   0  0  0  0  0  0  0  0  0  0  0  0
    8.9590    0.1520  -54.7340 C   0  0  0  0  0  0  0  0  0  0  0  0
    8.6930    1.3550  -55.0490 N   0  0  0  0  0  0  0  0  0  0  0  0
    9.1950    2.0340  -56.2390 C   0  0  2  0  0  0  0  0  0  0  0  0
    8.0840    2.2450  -57.2880 C   0  0  0  0  0  0  0  0  0  0  0  0
    8.6230    3.0580  -58.4800 C   0  0  1  0  0  0  0  0  0  0  0  0
    9.0910    4.4360  -57.9830 C   0  0  0  0  0  0  0  0  0  0  0  0
   10.2040    4.2660  -56.9370 C   0  0  2  0  0  0  0  0  0  0  0  0
   11.3900    3.5250  -57.5720 C   0  0  0  0  0  0  0  0  0  0  0  0
   10.9400    2.1420  -58.0660 C   0  0  2  0  0  0  0  0  0  0  0  0
    9.8170    2.3140  -59.1040 C   0  0  0  0  0  0  0  0  0  0  0  0
   10.4080    1.3230  -56.8760 C   0  0  0  0  0  0  0  0  0  0  0  0
    9.6650    3.4350  -55.7610 C   0  0  0  0  0  0  0  0  0  0  0  0
    8.4020   -0.3300  -53.5710 N   0  0  0  0  0  0  0  0  0  0  0  0
    8.7540   -1.5970  -53.5310 C   0  0  0  0  0  0  0  0  0  0  0  0
    8.2070   -2.4730  -52.4760 C   0  0  0  0  0  0  0  0  0  0  0  0
    8.1510   -2.0110  -51.1590 C   0  0  0  0  0  0  0  0  0  0  0  0
    7.6110   -2.8250  -50.1620 C   0  0  0  0  0  0  0  0  0  0  0  0
    7.1160   -4.0900  -50.4860 C   0  0  0  0  0  0  0  0  0  0  0  0
    7.1470   -4.5380  -51.8070 C   0  0  0  0  0  0  0  0  0  0  0  0
    7.6860   -3.7270  -52.8080 C   0  0  0  0  0  0  0  0  0  0  0  0
   11.4001   -3.6149  -58.3158 H   0  0  0  0  0  0  0  0  0  0  0  0
   12.2638   -2.7114  -56.8778 H   0  0  0  0  0  0  0  0  0  0  0  0
   10.1505   -4.9475  -56.7536 H   0  0  0  0  0  0  0  0  0  0  0  0
   10.1646   -4.6433  -54.3957 H   0  0  0  0  0  0  0  0  0  0  0  0
   11.9813   -4.4668  -54.5992 H   0  0  0  0  0  0  0  0  0  0  0  0
   11.6525   -1.9854  -54.8600 H   0  0  0  0  0  0  0  0  0  0  0  0
   10.4429   -2.6309  -52.2170 H   0  0  0  0  0  0  0  0  0  0  0  0
   11.9627   -3.4923  -52.6352 H   0  0  0  0  0  0  0  0  0  0  0  0
   11.9190   -1.6966  -52.6352 H   0  0  0  0  0  0  0  0  0  0  0  0
    9.4360   -0.9370  -56.3400 H   0  0  0  0  0  0  0  0  0  0  0  0
    7.7318    1.2662  -57.6457 H   0  0  0  0  0  0  0  0  0  0  0  0
    7.2535    2.7973  -56.8240 H   0  0  0  0  0  0  0  0  0  0  0  0
    7.8296    3.1832  -59.2315 H   0  0  0  0  0  0  0  0  0  0  0  0
    9.4756    5.0187  -58.8330 H   0  0  0  0  0  0  0  0  0  0  0  0
    8.2412    4.9627  -57.5244 H   0  0  0  0  0  0  0  0  0  0  0  0
   10.5316    5.2537  -56.5806 H   0  0  0  0  0  0  0  0  0  0  0  0
   11.7719    4.1093  -58.4222 H   0  0  0  0  0  0  0  0  0  0  0  0
   12.1829    3.4000  -56.8199 H   0  0  0  0  0  0  0  0  0  0  0  0
   11.7925    1.6188  -58.5238 H   0  0  0  0  0  0  0  0  0  0  0  0
   10.1982    2.8919  -59.9588 H   0  0  0  0  0  0  0  0  0  0  0  0
    9.4842    1.3206  -59.4394 H   0  0  0  0  0  0  0  0  0  0  0  0
   10.1015    0.3271  -57.2285 H   0  0  0  0  0  0  0  0  0  0  0  0
   11.2036    1.2264  -56.1226 H   0  0  0  0  0  0  0  0  0  0  0  0
   10.4619    3.3112  -55.0129 H   0  0  0  0  0  0  0  0  0  0  0  0
    8.8047    3.9630  -55.3238 H   0  0  0  0  0  0  0  0  0  0  0  0
    8.5310   -1.0096  -50.9085 H   0  0  0  0  0  0  0  0  0  0  0  0
    7.5753   -2.4702  -49.1214 H   0  0  0  0  0  0  0  0  0  0  0  0
    6.7006   -4.7349  -49.6977 H   0  0  0  0  0  0  0  0  0  0  0  0
    6.7466   -5.5308  -52.0602 H   0  0  0  0  0  0  0  0  0  0  0  0
    7.7005   -4.0731  -53.8520 H   0  0  0  0  0  0  0  0  0  0  0  0
  1  2  2  0
  2  3  1  0
  3  4  1  0
  4  5  1  0
  4  6  1  0
  6  7  1  0
  7  8  1  0
  8  9  2  0
 10  9  1  1
 10 11  1  0
 11 12  1  0
 12 13  1  0
 13 14  1  0
 14 15  1  0
 15 16  1  0
 16 17  1  0
 16 18  1  0
 14 19  1  0
  8 20  1  0
 20 21  2  0
 21 22  1  0
 22 23  2  0
 23 24  1  0
 24 25  2  0
 25 26  1  0
 26 27  2  0
 21  6  1  0
 27 22  1  0
 18 10  1  0
 19 10  1  0
 17 12  1  0
  1 28  1  0
  1 29  1  0
  2 30  1  0
  3 31  1  0
  3 32  1  0
  4 33  1  6
  5 34  1  0
  5 35  1  0
  5 36  1  0
  7 37  1  0
 11 38  1  0
 11 39  1  0
 12 40  1  6
 13 41  1  0
 13 42  1  0
 14 43  1  1
 15 44  1  0
 15 45  1  0
 16 46  1  6
 17 47  1  0
 17 48  1  0
 18 49  1  0
 18 50  1  0
 19 51  1  0
 19 52  1  0
 23 53  1  0
 24 54  1  0
 25 55  1  0
 26 56  1  0
 27 57  1  0
M  END
>  <meeko>  (108) 
{"is_sidechain": false}

$$$$

     RDKit          3D

 34 36  0  0  0  0  0  0  0  0999 V2000
    7.3970    1.8340  -57.1100 C   0  0  0  0  0  0  0  0  0  0  0  0
    6.3650    1.1270  -56.4950 C   0  0  0  0  0  0  0  0  0  0  0  0
    6.6070    0.4180  -55.3170 C   0  0  0  0  0  0  0  0  0  0  0  0
    7.8870    0.4090  -54.7400 C   0  0  0  0  0  0  0  0  0  0  0  0
    8.1470   -0.3540  -53.4640 C   0  0  0  0  0  0  0  0  0  0  0  0
    8.8820   -1.5850  -53.8510 C   0  0  0  0  0  0  0  0  0  0  0  0
   10.2370   -1.8420  -53.8810 C   0  0  0  0  0  0  0  0  0  0  0  0
   10.3190   -3.1260  -54.3340 N   0  0  0  0  0  0  0  0  0  0  0  0
   11.5070   -3.9400  -54.5070 C   0  0  0  0  0  0  0  0  0  0  0  0
   11.7180   -4.3260  -55.9500 C   0  0  0  0  0  0  0  0  0  0  0  0
   11.8830   -5.6720  -56.3110 C   0  0  0  0  0  0  0  0  0  0  0  0
   12.0790   -6.0280  -57.6460 C   0  0  0  0  0  0  0  0  0  0  0  0
   12.1130   -5.0470  -58.6330 C   0  0  0  0  0  0  0  0  0  0  0  0
   11.9530   -3.7060  -58.2870 C   0  0  0  0  0  0  0  0  0  0  0  0
   11.7570   -3.3450  -56.9530 C   0  0  0  0  0  0  0  0  0  0  0  0
    9.0990   -3.6390  -54.5760 N   0  0  0  0  0  0  0  0  0  0  0  0
    8.2080   -2.6980  -54.2900 N   0  0  0  0  0  0  0  0  0  0  0  0
    8.9170    1.1250  -55.3700 C   0  0  0  0  0  0  0  0  0  0  0  0
    8.6720    1.8330  -56.5480 C   0  0  0  0  0  0  0  0  0  0  0  0
    7.2050    2.3922  -58.0382 H   0  0  0  0  0  0  0  0  0  0  0  0
    5.3584    1.1277  -56.9386 H   0  0  0  0  0  0  0  0  0  0  0  0
    5.7883   -0.1381  -54.8370 H   0  0  0  0  0  0  0  0  0  0  0  0
    8.7556    0.2516  -52.7764 H   0  0  0  0  0  0  0  0  0  0  0  0
    7.2068   -0.5979  -52.9478 H   0  0  0  0  0  0  0  0  0  0  0  0
   11.0606   -1.1676  -53.6038 H   0  0  0  0  0  0  0  0  0  0  0  0
   12.3819   -3.3711  -54.1593 H   0  0  0  0  0  0  0  0  0  0  0  0
   11.3767   -4.8626  -53.9224 H   0  0  0  0  0  0  0  0  0  0  0  0
   11.8577   -6.4522  -55.5360 H   0  0  0  0  0  0  0  0  0  0  0  0
   12.2069   -7.0859  -57.9189 H   0  0  0  0  0  0  0  0  0  0  0  0
   12.2660   -5.3296  -59.6850 H   0  0  0  0  0  0  0  0  0  0  0  0
   11.9813   -2.9308  -59.0669 H   0  0  0  0  0  0  0  0  0  0  0  0
   11.6323   -2.2852  -56.6862 H   0  0  0  0  0  0  0  0  0  0  0  0
    9.9259    1.1282  -54.9317 H   0  0  0  0  0  0  0  0  0  0  0  0
    9.4866    2.3908  -57.0331 H   0  0  0  0  0  0  0  0  0  0  0  0
  1  2  2  0
  2  3  1  0
  3  4  2  0
  4  5  1  0
  5  6  1  0
  6  7  2  0
  7  8  1  0
  8  9  1  0
  9 10  1  0
 10 11  2  0
 11 12  1  0
 12 13  2  0
 13 14  1  0
 14 15  2  0
  8 16  1  0
 16 17  2  0
  4 18  1  0
 18 19  2  0
 19  1  1  0
 17  6  1  0
 15 10  1  0
  1 20  1  0
  2 21  1  0
  3 22  1  0
  5 23  1  0
  5 24  1  0
  7 25  1  0
  9 26  1  0
  9 27  1  0
 11 28  1  0
 12 29  1  0
 13 30  1  0
 14 31  1  0
 15 32  1  0
 18 33  1  0
 19 34  1  0
M  END
>  <meeko>  (109) 
{"is_sidechain": false}

$$$$

     RDKit          3D

 40 43  0  0  0  0  0  0  0  0999 V2000
    7.6830   -4.5040  -52.6810 F   0  0  0  0  0  0  0  0  0  0  0  0
    7.9910   -3.2800  -53.1310 C   0  0  0  0  0  0  0  0  0  0  0  0
    8.9660   -3.1350  -54.1070 C   0  0  0  0  0  0  0  0  0  0  0  0
    9.2880   -1.8610  -54.5740 C   0  0  0  0  0  0  0  0  0  0  0  0
   10.2790   -1.7790  -55.4710 F   0  0  0  0  0  0  0  0  0  0  0  0
    8.6520   -0.7130  -54.0790 C   0  0  0  0  0  0  0  0  0  0  0  0
    8.8740    0.6030  -54.5300 N   0  0  0  0  0  0  0  0  0  0  0  0
    8.6490    1.2070  -55.7060 C   0  0  0  0  0  0  0  0  0  0  0  0
    7.3500    1.2720  -56.1070 N   0  0  0  0  0  0  0  0  0  0  0  0
    7.4020    1.8360  -57.3020 C   0  0  0  0  0  0  0  0  0  0  0  0
    6.2650    1.8920  -58.2220 C   0  0  0  0  0  0  0  0  0  0  0  0
    6.2580    1.1720  -59.4260 C   0  0  0  0  0  0  0  0  0  0  0  0
    5.1490    1.2210  -60.2740 C   0  0  0  0  0  0  0  0  0  0  0  0
    4.0320    1.9770  -59.9210 C   0  0  0  0  0  0  0  0  0  0  0  0
    4.0180    2.6770  -58.7160 C   0  0  0  0  0  0  0  0  0  0  0  0
    5.1260    2.6290  -57.8680 C   0  0  0  0  0  0  0  0  0  0  0  0
    8.7150    2.2380  -57.5380 N   0  0  0  0  0  0  0  0  0  0  0  0
    9.2900    3.0660  -58.5340 C   0  0  0  0  0  0  0  0  0  0  0  0
    9.6030    2.5090  -59.7870 C   0  0  0  0  0  0  0  0  0  0  0  0
   10.1610    3.3020  -60.7940 C   0  0  0  0  0  0  0  0  0  0  0  0
   10.4300    4.6470  -60.5560 C   0  0  0  0  0  0  0  0  0  0  0  0
   10.1590    5.1960  -59.3040 C   0  0  0  0  0  0  0  0  0  0  0  0
    9.6020    4.4050  -58.2980 C   0  0  0  0  0  0  0  0  0  0  0  0
    9.4660    4.9580  -57.0880 F   0  0  0  0  0  0  0  0  0  0  0  0
    9.5140    1.6780  -56.5960 N   0  0  0  0  0  0  0  0  0  0  0  0
    7.6740   -0.9130  -53.0870 C   0  0  0  0  0  0  0  0  0  0  0  0
    7.0350    0.1520  -52.5770 F   0  0  0  0  0  0  0  0  0  0  0  0
    7.3390   -2.1760  -52.6080 C   0  0  0  0  0  0  0  0  0  0  0  0
    9.4818   -4.0191  -54.5099 H   0  0  0  0  0  0  0  0  0  0  0  0
    9.2160    1.2200  -53.8000 H   0  0  0  0  0  0  0  0  0  0  0  0
    7.1319    0.5646  -59.7042 H   0  0  0  0  0  0  0  0  0  0  0  0
    5.1570    0.6624  -61.2216 H   0  0  0  0  0  0  0  0  0  0  0  0
    3.1624    2.0209  -60.5932 H   0  0  0  0  0  0  0  0  0  0  0  0
    3.1340    3.2673  -58.4331 H   0  0  0  0  0  0  0  0  0  0  0  0
    5.1052    3.1746  -56.9131 H   0  0  0  0  0  0  0  0  0  0  0  0
    9.4076    1.4431  -59.9757 H   0  0  0  0  0  0  0  0  0  0  0  0
   10.3880    2.8623  -61.7764 H   0  0  0  0  0  0  0  0  0  0  0  0
   10.8550    5.2743  -61.3534 H   0  0  0  0  0  0  0  0  0  0  0  0
   10.3845    6.2547  -59.1083 H   0  0  0  0  0  0  0  0  0  0  0  0
    6.5713   -2.2949  -51.8292 H   0  0  0  0  0  0  0  0  0  0  0  0
  1  2  1  0
  2  3  2  0
  3  4  1  0
  4  5  1  0
  4  6  2  0
  6  7  1  0
  7  8  1  0
  8  9  1  0
  9 10  2  0
 10 11  1  0
 11 12  2  0
 12 13  1  0
 13 14  2  0
 14 15  1  0
 15 16  2  0
 10 17  1  0
 17 18  1  0
 18 19  2  0
 19 20  1  0
 20 21  2  0
 21 22  1  0
 22 23  2  0
 23 24  1  0
 17 25  1  0
  6 26  1  0
 26 27  1  0
 26 28  2  0
 28  2  1  0
 25  8  2  0
 16 11  1  0
 23 18  1  0
  3 29  1  0
  7 30  1  0
 12 31  1  0
 13 32  1  0
 14 33  1  0
 15 34  1  0
 16 35  1  0
 19 36  1  0
 20 37  1  0
 21 38  1  0
 22 39  1  0
 28 40  1  0
M  END
>  <meeko>  (110) 
{"is_sidechain": false}

$$$$

     RDKit          3D

 40 43  0  0  0  0  0  0  0  0999 V2000
    6.3260   -3.8880  -52.7910 F   0  0  0  0  0  0  0  0  0  0  0  0
    7.0160   -2.8180  -53.2040 C   0  0  0  0  0  0  0  0  0  0  0  0
    8.0710   -2.9860  -54.0920 C   0  0  0  0  0  0  0  0  0  0  0  0
    8.7830   -1.8670  -54.5140 C   0  0  0  0  0  0  0  0  0  0  0  0
    9.8030   -2.0430  -55.3690 F   0  0  0  0  0  0  0  0  0  0  0  0
    8.4550   -0.5800  -54.0690 C   0  0  0  0  0  0  0  0  0  0  0  0
    9.1880    0.5440  -54.4960 N   0  0  0  0  0  0  0  0  0  0  0  0
    8.6780    1.2530  -55.4490 C   0  0  0  0  0  0  0  0  0  0  0  0
    7.4910    0.9340  -56.0870 N   0  0  0  0  0  0  0  0  0  0  0  0
    7.4520    1.7740  -57.1090 C   0  0  0  0  0  0  0  0  0  0  0  0
    6.2820    1.8020  -58.0180 C   0  0  0  0  0  0  0  0  0  0  0  0
    6.3110    1.1350  -59.2480 C   0  0  0  0  0  0  0  0  0  0  0  0
    5.2030    1.1920  -60.0960 C   0  0  0  0  0  0  0  0  0  0  0  0
    4.0730    1.9200  -59.7230 C   0  0  0  0  0  0  0  0  0  0  0  0
    4.0490    2.6000  -58.5050 C   0  0  0  0  0  0  0  0  0  0  0  0
    5.1550    2.5470  -57.6550 C   0  0  0  0  0  0  0  0  0  0  0  0
    8.5550    2.6290  -57.1520 N   0  0  0  0  0  0  0  0  0  0  0  0
    9.1780    3.2050  -58.2860 C   0  0  0  0  0  0  0  0  0  0  0  0
    9.6720    2.3580  -59.2960 C   0  0  0  0  0  0  0  0  0  0  0  0
   10.2960    2.8770  -60.4360 C   0  0  0  0  0  0  0  0  0  0  0  0
   10.4250    4.2540  -60.5950 C   0  0  0  0  0  0  0  0  0  0  0  0
    9.9240    5.1120  -59.6190 C   0  0  0  0  0  0  0  0  0  0  0  0
    9.3040    4.5880  -58.4840 C   0  0  0  0  0  0  0  0  0  0  0  0
    8.7810    5.4550  -57.6060 F   0  0  0  0  0  0  0  0  0  0  0  0
    9.2810    2.3600  -56.0090 N   0  0  0  0  0  0  0  0  0  0  0  0
    7.3930   -0.4510  -53.1650 C   0  0  0  0  0  0  0  0  0  0  0  0
    7.0500    0.7590  -52.6950 F   0  0  0  0  0  0  0  0  0  0  0  0
    6.6700   -1.5590  -52.7320 C   0  0  0  0  0  0  0  0  0  0  0  0
    8.3397   -3.9886  -54.4562 H   0  0  0  0  0  0  0  0  0  0  0  0
    7.2046    0.5671  -59.5461 H   0  0  0  0  0  0  0  0  0  0  0  0
    5.2213    0.6620  -61.0597 H   0  0  0  0  0  0  0  0  0  0  0  0
    3.1994    1.9580  -60.3903 H   0  0  0  0  0  0  0  0  0  0  0  0
    3.1590    3.1776  -58.2147 H   0  0  0  0  0  0  0  0  0  0  0  0
    5.1403    3.0913  -56.6992 H   0  0  0  0  0  0  0  0  0  0  0  0
    9.5656    1.2686  -59.1872 H   0  0  0  0  0  0  0  0  0  0  0  0
   10.6850    2.1961  -61.2074 H   0  0  0  0  0  0  0  0  0  0  0  0
   10.9206    4.6627  -61.4879 H   0  0  0  0  0  0  0  0  0  0  0  0
   10.0169    6.2011  -59.7427 H   0  0  0  0  0  0  0  0  0  0  0  0
   10.2800    2.2150  -56.1050 H   0  0  0  0  0  0  0  0  0  0  0  0
    5.8357   -1.4386  -52.0253 H   0  0  0  0  0  0  0  0  0  0  0  0
  1  2  1  0
  2  3  2  0
  3  4  1  0
  4  5  1  0
  4  6  2  0
  6  7  1  0
  7  8  2  0
  8  9  1  0
  9 10  2  0
 10 11  1  0
 11 12  2  0
 12 13  1  0
 13 14  2  0
 14 15  1  0
 15 16  2  0
 10 17  1  0
 17 18  1  0
 18 19  2  0
 19 20  1  0
 20 21  2  0
 21 22  1  0
 22 23  2  0
 23 24  1  0
 17 25  1  0
  6 26  1  0
 26 27  1  0
 26 28  2  0
 28  2  1  0
 25  8  1  0
 16 11  1  0
 23 18  1  0
  3 29  1  0
 12 30  1  0
 13 31  1  0
 14 32  1  0
 15 33  1  0
 16 34  1  0
 19 35  1  0
 20 36  1  0
 21 37  1  0
 22 38  1  0
 25 39  1  0
 28 40  1  0
M  END
>  <meeko>  (111) 
{"is_sidechain": false}

$$$$

     RDKit          3D

 40 43  0  0  0  0  0  0  0  0999 V2000
    6.4800   -3.6370  -51.8150 F   0  0  0  0  0  0  0  0  0  0  0  0
    7.2540   -2.8480  -52.5690 C   0  0  0  0  0  0  0  0  0  0  0  0
    7.2850   -1.4830  -52.3190 C   0  0  0  0  0  0  0  0  0  0  0  0
    8.0940   -0.6710  -53.1090 C   0  0  0  0  0  0  0  0  0  0  0  0
    8.1340    0.6440  -52.8360 F   0  0  0  0  0  0  0  0  0  0  0  0
    8.8870   -1.1930  -54.1420 C   0  0  0  0  0  0  0  0  0  0  0  0
    9.6740   -0.3900  -54.9870 N   0  0  0  0  0  0  0  0  0  0  0  0
    9.1290    0.5390  -55.6920 C   0  0  0  0  0  0  0  0  0  0  0  0
    9.9630    1.3130  -56.4780 N   0  0  0  0  0  0  0  0  0  0  0  0
    9.1390    2.0780  -57.1690 C   0  0  0  0  0  0  0  0  0  0  0  0
    9.6650    3.1230  -58.0770 C   0  0  0  0  0  0  0  0  0  0  0  0
    9.7770    4.4520  -57.6520 C   0  0  0  0  0  0  0  0  0  0  0  0
   10.2800    5.4200  -58.5230 C   0  0  0  0  0  0  0  0  0  0  0  0
   10.6840    5.0610  -59.8090 C   0  0  0  0  0  0  0  0  0  0  0  0
   10.5940    3.7330  -60.2270 C   0  0  0  0  0  0  0  0  0  0  0  0
   10.0910    2.7620  -59.3590 C   0  0  0  0  0  0  0  0  0  0  0  0
    7.7940    1.8250  -56.8900 N   0  0  0  0  0  0  0  0  0  0  0  0
    6.6930    1.8880  -57.7880 C   0  0  0  0  0  0  0  0  0  0  0  0
    6.7430    1.3650  -59.0910 C   0  0  0  0  0  0  0  0  0  0  0  0
    5.6360    1.4410  -59.9450 C   0  0  0  0  0  0  0  0  0  0  0  0
    4.4520    2.0320  -59.5130 C   0  0  0  0  0  0  0  0  0  0  0  0
    4.3700    2.5400  -58.2210 C   0  0  0  0  0  0  0  0  0  0  0  0
    5.4760    2.4600  -57.3750 C   0  0  0  0  0  0  0  0  0  0  0  0
    5.3520    2.9550  -56.1340 F   0  0  0  0  0  0  0  0  0  0  0  0
    7.8030    0.9050  -55.8540 N   0  0  0  0  0  0  0  0  0  0  0  0
    8.8190   -2.5760  -54.3640 C   0  0  0  0  0  0  0  0  0  0  0  0
    9.5440   -3.1360  -55.3440 F   0  0  0  0  0  0  0  0  0  0  0  0
    8.0160   -3.4060  -53.5860 C   0  0  0  0  0  0  0  0  0  0  0  0
    6.6797   -1.0496  -51.5092 H   0  0  0  0  0  0  0  0  0  0  0  0
    9.4693    4.7330  -56.6340 H   0  0  0  0  0  0  0  0  0  0  0  0
   10.3579    6.4670  -58.1949 H   0  0  0  0  0  0  0  0  0  0  0  0
   11.0745    5.8269  -60.4952 H   0  0  0  0  0  0  0  0  0  0  0  0
   10.9190    3.4512  -61.2394 H   0  0  0  0  0  0  0  0  0  0  0  0
   10.0298    1.7128  -59.6837 H   0  0  0  0  0  0  0  0  0  0  0  0
    7.6680    0.8875  -59.4465 H   0  0  0  0  0  0  0  0  0  0  0  0
    5.7024    1.0311  -60.9636 H   0  0  0  0  0  0  0  0  0  0  0  0
    3.5868    2.0968  -60.1892 H   0  0  0  0  0  0  0  0  0  0  0  0
    3.4368    3.0030  -57.8678 H   0  0  0  0  0  0  0  0  0  0  0  0
    7.1910    0.1040  -55.9670 H   0  0  0  0  0  0  0  0  0  0  0  0
    7.9860   -4.4892  -53.7749 H   0  0  0  0  0  0  0  0  0  0  0  0
  1  2  1  0
  2  3  2  0
  3  4  1  0
  4  5  1  0
  4  6  2  0
  6  7  1  0
  7  8  2  0
  8  9  1  0
  9 10  2  0
 10 11  1  0
 11 12  2  0
 12 13  1  0
 13 14  2  0
 14 15  1  0
 15 16  2  0
 10 17  1  0
 17 18  1  0
 18 19  2  0
 19 20  1  0
 20 21  2  0
 21 22  1  0
 22 23  2  0
 23 24  1  0
 17 25  1  0
  6 26  1  0
 26 27  1  0
 26 28  2  0
 28  2  1  0
 25  8  1  0
 16 11  1  0
 23 18  1  0
  3 29  1  0
 12 30  1  0
 13 31  1  0
 14 32  1  0
 15 33  1  0
 16 34  1  0
 19 35  1  0
 20 36  1  0
 21 37  1  0
 22 38  1  0
 25 39  1  0
 28 40  1  0
M  END
>  <meeko>  (112) 
{"is_sidechain": false}

$$$$

     RDKit          3D

 60 65  0  0  0  0  0  0  0  0999 V2000
    7.4150   -3.9400  -49.6520 F   0  0  0  0  0  0  0  0  0  0  0  0
    8.0290   -2.9150  -50.3070 C   0  0  0  0  0  0  0  0  0  0  0  0
    9.3650   -3.1450  -50.1960 F   0  0  0  0  0  0  0  0  0  0  0  0
    7.7730   -1.8000  -49.5680 F   0  0  0  0  0  0  0  0  0  0  0  0
    7.5770   -2.7990  -51.7420 C   0  0  0  0  0  0  0  0  0  0  0  0
    6.7140   -3.7510  -52.3040 C   0  0  0  0  0  0  0  0  0  0  0  0
    6.2770   -3.6180  -53.6220 C   0  0  0  0  0  0  0  0  0  0  0  0
    6.7000   -2.5340  -54.3920 C   0  0  0  0  0  0  0  0  0  0  0  0
    7.5700   -1.5790  -53.8560 C   0  0  0  0  0  0  0  0  0  0  0  0
    8.0080   -0.4620  -54.6820 C   0  0  0  0  0  0  0  0  0  0  0  0
    7.2320    0.3210  -55.4040 N   0  0  0  0  0  0  0  0  0  0  0  0
    8.0940    1.1820  -56.0140 C   0  0  0  0  0  0  0  0  0  0  0  0
    7.5460    2.0980  -56.8230 N   0  0  0  0  0  0  0  0  0  0  0  0
    8.3040    3.0360  -57.6450 C   0  0  2  0  0  0  0  0  0  0  0  0
    7.3300    3.6080  -58.7160 C   0  0  0  0  0  0  0  0  0  0  0  0
    8.0500    4.6070  -59.6360 C   0  0  1  0  0  0  0  0  0  0  0  0
    8.5970    5.7660  -58.7890 C   0  0  0  0  0  0  0  0  0  0  0  0
    9.5770    5.2270  -57.7360 C   0  0  2  0  0  0  0  0  0  0  0  0
   10.7380    4.5060  -58.4430 C   0  0  0  0  0  0  0  0  0  0  0  0
   10.2010    3.3440  -59.2970 C   0  0  2  0  0  0  0  0  0  0  0  0
    9.2150    3.8950  -60.3400 C   0  0  0  0  0  0  0  0  0  0  0  0
    9.4700    2.3400  -58.3870 C   0  0  0  0  0  0  0  0  0  0  0  0
    8.8440    4.2290  -56.8200 C   0  0  0  0  0  0  0  0  0  0  0  0
    9.3760    0.9730  -55.7310 N   0  0  0  0  0  0  0  0  0  0  0  0
    9.3090   -0.0830  -54.8990 N   0  0  0  0  0  0  0  0  0  0  0  0
   10.5330   -0.7010  -54.4200 C   0  0  0  0  0  0  0  0  0  0  0  0
   10.7640   -2.0500  -55.0630 C   0  0  0  0  0  0  0  0  0  0  0  0
   10.4590   -3.2320  -54.3760 C   0  0  0  0  0  0  0  0  0  0  0  0
   10.6620   -4.4750  -54.9830 C   0  0  0  0  0  0  0  0  0  0  0  0
   11.1740   -4.5530  -56.2820 C   0  0  0  0  0  0  0  0  0  0  0  0
   11.3930   -6.1230  -56.9660 Cl  0  0  0  0  0  0  0  0  0  0  0  0
   11.4860   -3.3800  -56.9750 C   0  0  0  0  0  0  0  0  0  0  0  0
   12.1220   -3.3940  -58.5810 Cl  0  0  0  0  0  0  0  0  0  0  0  0
   11.2840   -2.1360  -56.3660 C   0  0  0  0  0  0  0  0  0  0  0  0
    7.9910   -1.7080  -52.5260 C   0  0  0  0  0  0  0  0  0  0  0  0
    6.3795   -4.6083  -51.7014 H   0  0  0  0  0  0  0  0  0  0  0  0
    5.5986   -4.3681  -54.0545 H   0  0  0  0  0  0  0  0  0  0  0  0
    6.3466   -2.4297  -55.4284 H   0  0  0  0  0  0  0  0  0  0  0  0
    6.6590    1.8010  -57.2160 H   0  0  0  0  0  0  0  0  0  0  0  0
    6.9355    2.7796  -59.3228 H   0  0  0  0  0  0  0  0  0  0  0  0
    6.5110    4.1320  -58.2015 H   0  0  0  0  0  0  0  0  0  0  0  0
    7.3479    4.9971  -60.3876 H   0  0  0  0  0  0  0  0  0  0  0  0
    9.1199    6.4800  -59.4422 H   0  0  0  0  0  0  0  0  0  0  0  0
    7.7611    6.2696  -58.2815 H   0  0  0  0  0  0  0  0  0  0  0  0
    9.9687    6.0617  -57.1361 H   0  0  0  0  0  0  0  0  0  0  0  0
   11.2674    5.2193  -59.0918 H   0  0  0  0  0  0  0  0  0  0  0  0
   11.4267    4.1055  -57.6845 H   0  0  0  0  0  0  0  0  0  0  0  0
   11.0365    2.8415  -59.8063 H   0  0  0  0  0  0  0  0  0  0  0  0
    9.7372    4.6094  -60.9934 H   0  0  0  0  0  0  0  0  0  0  0  0
    8.8199    3.0616  -60.9394 H   0  0  0  0  0  0  0  0  0  0  0  0
    9.0708    1.5187  -59.0003 H   0  0  0  0  0  0  0  0  0  0  0  0
   10.1810    1.9464  -57.6457 H   0  0  0  0  0  0  0  0  0  0  0  0
    9.5435    3.8555  -56.0577 H   0  0  0  0  0  0  0  0  0  0  0  0
    7.9984    4.7416  -56.3381 H   0  0  0  0  0  0  0  0  0  0  0  0
   11.3817   -0.0426  -54.6569 H   0  0  0  0  0  0  0  0  0  0  0  0
   10.4416   -0.8487  -53.3338 H   0  0  0  0  0  0  0  0  0  0  0  0
   10.0575   -3.1820  -53.3531 H   0  0  0  0  0  0  0  0  0  0  0  0
   10.4175   -5.3972  -54.4355 H   0  0  0  0  0  0  0  0  0  0  0  0
   11.5350   -1.2154  -56.9133 H   0  0  0  0  0  0  0  0  0  0  0  0
    8.6537   -0.9461  -52.0898 H   0  0  0  0  0  0  0  0  0  0  0  0
  1  2  1  0
  2  3  1  0
  2  4  1  0
  2  5  1  0
  5  6  2  0
  6  7  1  0
  7  8  2  0
  8  9  1  0
  9 10  1  0
 10 11  2  0
 11 12  1  0
 12 13  1  0
 14 13  1  1
 14 15  1  0
 15 16  1  0
 16 17  1  0
 17 18  1  0
 18 19  1  0
 19 20  1  0
 20 21  1  0
 20 22  1  0
 18 23  1  0
 12 24  2  0
 24 25  1  0
 25 26  1  0
 26 27  1  0
 27 28  1  0
 28 29  2  0
 29 30  1  0
 30 31  1  0
 30 32  2  0
 32 33  1  0
 32 34  1  0
  9 35  2  0
 35  5  1  0
 25 10  1  0
 34 27  2  0
 22 14  1  0
 23 14  1  0
 21 16  1  0
  6 36  1  0
  7 37  1  0
  8 38  1  0
 13 39  1  0
 15 40  1  0
 15 41  1  0
 16 42  1  6
 17 43  1  0
 17 44  1  0
 18 45  1  1
 19 46  1  0
 19 47  1  0
 20 48  1  6
 21 49  1  0
 21 50  1  0
 22 51  1  0
 22 52  1  0
 23 53  1  0
 23 54  1  0
 26 55  1  0
 26 56  1  0
 28 57  1  0
 29 58  1  0
 34 59  1  0
 35 60  1  0
M  END
>  <meeko>  (113) 
{"is_sidechain": false}

$$$$

     RDKit          3D

 60 65  0  0  0  0  0  0  0  0999 V2000
    3.8980    2.4910  -62.1630 F   0  0  0  0  0  0  0  0  0  0  0  0
    4.8010    1.7170  -61.4960 C   0  0  0  0  0  0  0  0  0  0  0  0
    4.4810    0.4300  -61.8000 F   0  0  0  0  0  0  0  0  0  0  0  0
    6.0050    1.9580  -62.0820 F   0  0  0  0  0  0  0  0  0  0  0  0
    4.8120    2.0010  -60.0150 C   0  0  0  0  0  0  0  0  0  0  0  0
    3.6410    2.3910  -59.3460 C   0  0  0  0  0  0  0  0  0  0  0  0
    3.6530    2.6250  -57.9690 C   0  0  0  0  0  0  0  0  0  0  0  0
    4.8370    2.4750  -57.2470 C   0  0  0  0  0  0  0  0  0  0  0  0
    6.0120    2.0990  -57.9030 C   0  0  0  0  0  0  0  0  0  0  0  0
    7.2570    1.9520  -57.1200 C   0  0  0  0  0  0  0  0  0  0  0  0
    8.3930    2.4610  -57.5480 N   0  0  0  0  0  0  0  0  0  0  0  0
    9.2980    2.1510  -56.5580 C   0  0  0  0  0  0  0  0  0  0  0  0
   10.4970    2.5930  -56.4970 N   0  0  0  0  0  0  0  0  0  0  0  0
   11.0880    3.4560  -57.5220 C   0  0  2  0  0  0  0  0  0  0  0  0
   10.3410    4.8000  -57.6710 C   0  0  0  0  0  0  0  0  0  0  0  0
   10.9390    5.6170  -58.8300 C   0  0  1  0  0  0  0  0  0  0  0  0
   12.4350    5.8580  -58.5620 C   0  0  0  0  0  0  0  0  0  0  0  0
   13.1830    4.5170  -58.4600 C   0  0  2  0  0  0  0  0  0  0  0  0
   13.0070    3.7380  -59.7740 C   0  0  0  0  0  0  0  0  0  0  0  0
   11.5150    3.4830  -60.0340 C   0  0  2  0  0  0  0  0  0  0  0  0
   10.7800    4.8290  -60.1410 C   0  0  0  0  0  0  0  0  0  0  0  0
   10.9280    2.6820  -58.8610 C   0  0  0  0  0  0  0  0  0  0  0  0
   12.5960    3.6950  -57.2990 C   0  0  0  0  0  0  0  0  0  0  0  0
    8.7240    1.3510  -55.5910 N   0  0  0  0  0  0  0  0  0  0  0  0
    7.3690    1.2870  -55.8930 N   0  0  0  0  0  0  0  0  0  0  0  0
    6.6760    0.0280  -55.5970 C   0  0  0  0  0  0  0  0  0  0  0  0
    7.2640   -0.7230  -54.4180 C   0  0  0  0  0  0  0  0  0  0  0  0
    6.7290   -0.5590  -53.1320 C   0  0  0  0  0  0  0  0  0  0  0  0
    7.2590   -1.2620  -52.0470 C   0  0  0  0  0  0  0  0  0  0  0  0
    8.3330   -2.1370  -52.2290 C   0  0  0  0  0  0  0  0  0  0  0  0
    8.9340   -2.9710  -50.8420 Cl  0  0  0  0  0  0  0  0  0  0  0  0
    8.8820   -2.3040  -53.5040 C   0  0  0  0  0  0  0  0  0  0  0  0
   10.2130   -3.3610  -53.8080 Cl  0  0  0  0  0  0  0  0  0  0  0  0
    8.3500   -1.5980  -54.5890 C   0  0  0  0  0  0  0  0  0  0  0  0
    5.9980    1.8450  -59.2770 C   0  0  0  0  0  0  0  0  0  0  0  0
    2.7054    2.5134  -59.9114 H   0  0  0  0  0  0  0  0  0  0  0  0
    2.7291    2.9274  -57.4542 H   0  0  0  0  0  0  0  0  0  0  0  0
    4.8457    2.6527  -56.1615 H   0  0  0  0  0  0  0  0  0  0  0  0
    9.2782    4.6038  -57.8757 H   0  0  0  0  0  0  0  0  0  0  0  0
   10.4452    5.3730  -56.7378 H   0  0  0  0  0  0  0  0  0  0  0  0
   10.4166    6.5816  -58.9114 H   0  0  0  0  0  0  0  0  0  0  0  0
   12.8606    6.4489  -59.3864 H   0  0  0  0  0  0  0  0  0  0  0  0
   12.5449    6.4018  -57.6121 H   0  0  0  0  0  0  0  0  0  0  0  0
   14.2522    4.7014  -58.2788 H   0  0  0  0  0  0  0  0  0  0  0  0
   13.4271    4.3241  -60.6047 H   0  0  0  0  0  0  0  0  0  0  0  0
   13.5313    2.7741  -59.6969 H   0  0  0  0  0  0  0  0  0  0  0  0
   11.3941    2.9184  -60.9703 H   0  0  0  0  0  0  0  0  0  0  0  0
   11.2055    5.4121  -60.9711 H   0  0  0  0  0  0  0  0  0  0  0  0
    9.7114    4.6448  -60.3258 H   0  0  0  0  0  0  0  0  0  0  0  0
    9.8588    2.5027  -59.0472 H   0  0  0  0  0  0  0  0  0  0  0  0
   11.4707    1.7285  -58.7815 H   0  0  0  0  0  0  0  0  0  0  0  0
   13.1128    2.7256  -57.2429 H   0  0  0  0  0  0  0  0  0  0  0  0
   12.7356    4.2509  -56.3601 H   0  0  0  0  0  0  0  0  0  0  0  0
    9.0050    1.6370  -54.6570 H   0  0  0  0  0  0  0  0  0  0  0  0
    5.6225    0.2541  -55.3755 H   0  0  0  0  0  0  0  0  0  0  0  0
    6.7870   -0.6181  -56.4803 H   0  0  0  0  0  0  0  0  0  0  0  0
    5.8849    0.1289  -52.9762 H   0  0  0  0  0  0  0  0  0  0  0  0
    6.8283   -1.1258  -51.0440 H   0  0  0  0  0  0  0  0  0  0  0  0
    8.7881   -1.7299  -55.5894 H   0  0  0  0  0  0  0  0  0  0  0  0
    6.9194    1.5215  -59.7834 H   0  0  0  0  0  0  0  0  0  0  0  0
  1  2  1  0
  2  3  1  0
  2  4  1  0
  2  5  1  0
  5  6  2  0
  6  7  1  0
  7  8  2  0
  8  9  1  0
  9 10  1  0
 10 11  2  0
 11 12  1  0
 12 13  2  0
 14 13  1  1
 14 15  1  0
 15 16  1  0
 16 17  1  0
 17 18  1  0
 18 19  1  0
 19 20  1  0
 20 21  1  0
 20 22  1  0
 18 23  1  0
 12 24  1  0
 24 25  1  0
 25 26  1  0
 26 27  1  0
 27 28  1  0
 28 29  2  0
 29 30  1  0
 30 31  1  0
 30 32  2  0
 32 33  1  0
 32 34  1  0
  9 35  2  0
 35  5  1  0
 25 10  1  0
 34 27  2  0
 22 14  1  0
 23 14  1  0
 21 16  1  0
  6 36  1  0
  7 37  1  0
  8 38  1  0
 15 39  1  0
 15 40  1  0
 16 41  1  6
 17 42  1  0
 17 43  1  0
 18 44  1  1
 19 45  1  0
 19 46  1  0
 20 47  1  6
 21 48  1  0
 21 49  1  0
 22 50  1  0
 22 51  1  0
 23 52  1  0
 23 53  1  0
 24 54  1  0
 26 55  1  0
 26 56  1  0
 28 57  1  0
 29 58  1  0
 34 59  1  0
 35 60  1  0
M  END
>  <meeko>  (114) 
{"is_sidechain": false}

$$$$

     RDKit          3D

 60 65  0  0  0  0  0  0  0  0999 V2000
    8.4200   -2.2900  -49.8620 F   0  0  0  0  0  0  0  0  0  0  0  0
    8.6750   -2.9540  -51.0210 C   0  0  0  0  0  0  0  0  0  0  0  0
   10.0300   -2.9650  -51.1600 F   0  0  0  0  0  0  0  0  0  0  0  0
    8.3140   -4.2490  -50.7980 F   0  0  0  0  0  0  0  0  0  0  0  0
    7.9890   -2.3470  -52.2210 C   0  0  0  0  0  0  0  0  0  0  0  0
    6.6470   -2.6440  -52.5090 C   0  0  0  0  0  0  0  0  0  0  0  0
    6.0190   -2.0920  -53.6280 C   0  0  0  0  0  0  0  0  0  0  0  0
    6.7300   -1.2510  -54.4850 C   0  0  0  0  0  0  0  0  0  0  0  0
    8.0740   -0.9710  -54.2250 C   0  0  0  0  0  0  0  0  0  0  0  0
    8.8510   -0.0960  -55.1270 C   0  0  0  0  0  0  0  0  0  0  0  0
    8.4430    1.1220  -55.4090 N   0  0  0  0  0  0  0  0  0  0  0  0
    9.4020    1.6190  -56.2720 C   0  0  0  0  0  0  0  0  0  0  0  0
    9.2030    2.7830  -56.7460 N   0  0  0  0  0  0  0  0  0  0  0  0
   10.1150    3.4860  -57.6400 C   0  0  2  0  0  0  0  0  0  0  0  0
   10.0430    2.7340  -58.9980 C   0  0  0  0  0  0  0  0  0  0  0  0
   10.9820    3.3730  -60.0320 C   0  0  1  0  0  0  0  0  0  0  0  0
   10.5690    4.8380  -60.2470 C   0  0  0  0  0  0  0  0  0  0  0  0
   10.6490    5.6040  -58.9170 C   0  0  2  0  0  0  0  0  0  0  0  0
   12.0910    5.5410  -58.3810 C   0  0  0  0  0  0  0  0  0  0  0  0
   12.5160    4.0780  -58.1650 C   0  0  2  0  0  0  0  0  0  0  0  0
   12.4230    3.3230  -59.5010 C   0  0  0  0  0  0  0  0  0  0  0  0
   11.5730    3.4180  -57.1420 C   0  0  0  0  0  0  0  0  0  0  0  0
    9.7010    4.9520  -57.8940 C   0  0  0  0  0  0  0  0  0  0  0  0
   10.4140    0.6970  -56.4690 N   0  0  0  0  0  0  0  0  0  0  0  0
   10.0510   -0.4460  -55.7540 N   0  0  0  0  0  0  0  0  0  0  0  0
   11.1270   -1.1520  -55.0460 C   0  0  0  0  0  0  0  0  0  0  0  0
   11.3500   -2.5610  -55.5560 C   0  0  0  0  0  0  0  0  0  0  0  0
   11.4220   -3.6440  -54.6680 C   0  0  0  0  0  0  0  0  0  0  0  0
   11.6550   -4.9370  -55.1420 C   0  0  0  0  0  0  0  0  0  0  0  0
   11.8160   -5.1690  -56.5110 C   0  0  0  0  0  0  0  0  0  0  0  0
   12.0960   -6.7940  -57.0250 Cl  0  0  0  0  0  0  0  0  0  0  0  0
   11.7440   -4.0990  -57.4080 C   0  0  0  0  0  0  0  0  0  0  0  0
   11.9310   -4.3020  -59.1140 Cl  0  0  0  0  0  0  0  0  0  0  0  0
   11.5110   -2.8060  -56.9300 C   0  0  0  0  0  0  0  0  0  0  0  0
    8.6980   -1.5050  -53.0920 C   0  0  0  0  0  0  0  0  0  0  0  0
    6.0845   -3.3183  -51.8465 H   0  0  0  0  0  0  0  0  0  0  0  0
    4.9629   -2.3205  -53.8338 H   0  0  0  0  0  0  0  0  0  0  0  0
    6.2341   -0.8100  -55.3623 H   0  0  0  0  0  0  0  0  0  0  0  0
   10.3374    1.6853  -58.8444 H   0  0  0  0  0  0  0  0  0  0  0  0
    9.0121    2.7935  -59.3771 H   0  0  0  0  0  0  0  0  0  0  0  0
   10.9193    2.8263  -60.9845 H   0  0  0  0  0  0  0  0  0  0  0  0
   11.2459    5.3044  -60.9779 H   0  0  0  0  0  0  0  0  0  0  0  0
    9.5358    4.8718  -60.6231 H   0  0  0  0  0  0  0  0  0  0  0  0
   10.3564    6.6522  -59.0773 H   0  0  0  0  0  0  0  0  0  0  0  0
   12.7692    6.0126  -59.1074 H   0  0  0  0  0  0  0  0  0  0  0  0
   12.1395    6.0737  -57.4198 H   0  0  0  0  0  0  0  0  0  0  0  0
   13.5493    4.0441  -57.7893 H   0  0  0  0  0  0  0  0  0  0  0  0
   13.0975    3.7920  -60.2325 H   0  0  0  0  0  0  0  0  0  0  0  0
   12.7147    2.2740  -59.3447 H   0  0  0  0  0  0  0  0  0  0  0  0
   11.8623    2.3653  -57.0076 H   0  0  0  0  0  0  0  0  0  0  0  0
   11.6505    3.9540  -56.1846 H   0  0  0  0  0  0  0  0  0  0  0  0
    9.7473    5.5115  -56.9480 H   0  0  0  0  0  0  0  0  0  0  0  0
    8.6759    4.9710  -58.2925 H   0  0  0  0  0  0  0  0  0  0  0  0
   10.6190    0.5580  -57.4530 H   0  0  0  0  0  0  0  0  0  0  0  0
   12.0601   -0.5829  -55.1705 H   0  0  0  0  0  0  0  0  0  0  0  0
   10.8290   -1.2290  -53.9899 H   0  0  0  0  0  0  0  0  0  0  0  0
   11.2939   -3.4737  -53.5888 H   0  0  0  0  0  0  0  0  0  0  0  0
   11.7121   -5.7772  -54.4343 H   0  0  0  0  0  0  0  0  0  0  0  0
   11.4529   -1.9680  -57.6403 H   0  0  0  0  0  0  0  0  0  0  0  0
    9.7505   -1.2634  -52.8827 H   0  0  0  0  0  0  0  0  0  0  0  0
  1  2  1  0
  2  3  1  0
  2  4  1  0
  2  5  1  0
  5  6  2  0
  6  7  1  0
  7  8  2  0
  8  9  1  0
  9 10  1  0
 10 11  2  0
 11 12  1  0
 12 13  2  0
 14 13  1  1
 14 15  1  0
 15 16  1  0
 16 17  1  0
 17 18  1  0
 18 19  1  0
 19 20  1  0
 20 21  1  0
 20 22  1  0
 18 23  1  0
 12 24  1  0
 24 25  1  0
 25 26  1  0
 26 27  1  0
 27 28  1  0
 28 29  2  0
 29 30  1  0
 30 31  1  0
 30 32  2  0
 32 33  1  0
 32 34  1  0
  9 35  2  0
 35  5  1  0
 25 10  1  0
 34 27  2  0
 22 14  1  0
 23 14  1  0
 21 16  1  0
  6 36  1  0
  7 37  1  0
  8 38  1  0
 15 39  1  0
 15 40  1  0
 16 41  1  6
 17 42  1  0
 17 43  1  0
 18 44  1  6
 19 45  1  0
 19 46  1  0
 20 47  1  1
 21 48  1  0
 21 49  1  0
 22 50  1  0
 22 51  1  0
 23 52  1  0
 23 53  1  0
 24 54  1  0
 26 55  1  0
 26 56  1  0
 28 57  1  0
 29 58  1  0
 34 59  1  0
 35 60  1  0
M  END
>  <meeko>  (115) 
{"is_sidechain": false}

$$$$

     RDKit          3D

 61 66  0  0  0  0  0  0  0  0999 V2000
    8.5710   -3.3170  -50.0400 C   0  0  0  0  0  0  0  0  0  0  0  0
    7.9300   -2.1460  -50.5280 O   0  0  0  0  0  0  0  0  0  0  0  0
    7.5440   -2.1550  -51.8410 C   0  0  0  0  0  0  0  0  0  0  0  0
    6.4850   -2.8880  -52.3790 C   0  0  0  0  0  0  0  0  0  0  0  0
    6.1920   -2.7980  -53.7420 C   0  0  0  0  0  0  0  0  0  0  0  0
    6.9580   -1.9800  -54.5750 C   0  0  0  0  0  0  0  0  0  0  0  0
    8.0370   -1.2590  -54.0530 C   0  0  0  0  0  0  0  0  0  0  0  0
    8.8370   -0.3660  -54.8940 C   0  0  0  0  0  0  0  0  0  0  0  0
    8.4190    0.8350  -55.2600 N   0  0  0  0  0  0  0  0  0  0  0  0
    9.3990    1.3650  -56.0180 C   0  0  0  0  0  0  0  0  0  0  0  0
    9.3340    2.5720  -56.6000 N   0  0  0  0  0  0  0  0  0  0  0  0
    9.1060    2.7940  -58.0300 C   0  0  2  0  0  0  0  0  0  0  0  0
    7.8530    2.0430  -58.5420 C   0  0  0  0  0  0  0  0  0  0  0  0
    7.6120    2.3550  -60.0300 C   0  0  1  0  0  0  0  0  0  0  0  0
    7.3780    3.8640  -60.2030 C   0  0  0  0  0  0  0  0  0  0  0  0
    8.6090    4.6420  -59.7140 C   0  0  2  0  0  0  0  0  0  0  0  0
    9.8380    4.2190  -60.5340 C   0  0  0  0  0  0  0  0  0  0  0  0
   10.0880    2.7130  -60.3640 C   0  0  2  0  0  0  0  0  0  0  0  0
    8.8490    1.9360  -60.8430 C   0  0  0  0  0  0  0  0  0  0  0  0
   10.3390    2.4020  -58.8770 C   0  0  0  0  0  0  0  0  0  0  0  0
    8.8560    4.3160  -58.2320 C   0  0  0  0  0  0  0  0  0  0  0  0
   10.4590    0.5120  -56.1200 C   0  0  0  0  0  0  0  0  0  0  0  0
   10.1340   -0.5980  -55.3570 N   0  0  0  0  0  0  0  0  0  0  0  0
   10.9700   -1.7110  -55.1290 C   0  0  0  0  0  0  0  0  0  0  0  0
   11.5790   -1.7860  -54.0650 O   0  0  0  0  0  0  0  0  0  0  0  0
   11.1480   -2.8270  -56.0880 C   0  0  0  0  0  0  0  0  0  0  0  0
   10.5940   -4.0750  -55.7800 C   0  0  0  0  0  0  0  0  0  0  0  0
   10.7600   -5.1450  -56.6580 C   0  0  0  0  0  0  0  0  0  0  0  0
   11.4890   -4.9740  -57.8350 C   0  0  0  0  0  0  0  0  0  0  0  0
   12.0640   -3.7370  -58.1320 C   0  0  0  0  0  0  0  0  0  0  0  0
   11.9010   -2.6620  -57.2560 C   0  0  0  0  0  0  0  0  0  0  0  0
    8.3080   -1.3390  -52.6810 C   0  0  0  0  0  0  0  0  0  0  0  0
    8.5654   -3.3067  -48.9401 H   0  0  0  0  0  0  0  0  0  0  0  0
    8.0340   -4.2065  -50.4011 H   0  0  0  0  0  0  0  0  0  0  0  0
    9.6097   -3.3440  -50.4011 H   0  0  0  0  0  0  0  0  0  0  0  0
    5.8803   -3.5374  -51.7289 H   0  0  0  0  0  0  0  0  0  0  0  0
    5.3539   -3.3743  -54.1610 H   0  0  0  0  0  0  0  0  0  0  0  0
    6.7123   -1.9024  -55.6444 H   0  0  0  0  0  0  0  0  0  0  0  0
    9.6990    3.3760  -56.1000 H   0  0  0  0  0  0  0  0  0  0  0  0
    8.0034    0.9604  -58.4183 H   0  0  0  0  0  0  0  0  0  0  0  0
    6.9780    2.3714  -57.9620 H   0  0  0  0  0  0  0  0  0  0  0  0
    6.7300    1.8020  -60.3853 H   0  0  0  0  0  0  0  0  0  0  0  0
    7.2040    4.0868  -61.2660 H   0  0  0  0  0  0  0  0  0  0  0  0
    6.5004    4.1651  -59.6121 H   0  0  0  0  0  0  0  0  0  0  0  0
    8.4363    5.7215  -59.8357 H   0  0  0  0  0  0  0  0  0  0  0  0
    9.6614    4.4416  -61.5967 H   0  0  0  0  0  0  0  0  0  0  0  0
   10.7186    4.7743  -60.1786 H   0  0  0  0  0  0  0  0  0  0  0  0
   10.9653    2.4148  -60.9568 H   0  0  0  0  0  0  0  0  0  0  0  0
    8.6742    2.1513  -61.9075 H   0  0  0  0  0  0  0  0  0  0  0  0
    9.0237    0.8592  -60.7014 H   0  0  0  0  0  0  0  0  0  0  0  0
   10.5325    1.3256  -58.7593 H   0  0  0  0  0  0  0  0  0  0  0  0
   11.2081    2.9816  -58.5325 H   0  0  0  0  0  0  0  0  0  0  0  0
    9.7369    4.8747  -57.8828 H   0  0  0  0  0  0  0  0  0  0  0  0
    7.9639    4.6040  -57.6565 H   0  0  0  0  0  0  0  0  0  0  0  0
   11.3845    0.6730  -56.6923 H   0  0  0  0  0  0  0  0  0  0  0  0
   10.0284   -4.2113  -54.8464 H   0  0  0  0  0  0  0  0  0  0  0  0
   10.3163   -6.1237  -56.4228 H   0  0  0  0  0  0  0  0  0  0  0  0
   11.6112   -5.8167  -58.5314 H   0  0  0  0  0  0  0  0  0  0  0  0
   12.6458   -3.6092  -59.0567 H   0  0  0  0  0  0  0  0  0  0  0  0
   12.3625   -1.6896  -57.4830 H   0  0  0  0  0  0  0  0  0  0  0  0
    9.1352   -0.7504  -52.2576 H   0  0  0  0  0  0  0  0  0  0  0  0
  1  2  1  0
  2  3  1  0
  3  4  1  0
  4  5  2  0
  5  6  1  0
  6  7  2  0
  7  8  1  0
  8  9  2  0
  9 10  1  0
 10 11  1  0
 12 11  1  1
 12 13  1  0
 13 14  1  0
 14 15  1  0
 15 16  1  0
 16 17  1  0
 17 18  1  0
 18 19  1  0
 18 20  1  0
 16 21  1  0
 10 22  2  0
 22 23  1  0
 23 24  1  0
 24 25  2  0
 24 26  1  0
 26 27  2  0
 27 28  1  0
 28 29  2  0
 29 30  1  0
 30 31  2  0
  7 32  1  0
 32  3  2  0
 23  8  1  0
 31 26  1  0
 20 12  1  0
 21 12  1  0
 19 14  1  0
  1 33  1  0
  1 34  1  0
  1 35  1  0
  4 36  1  0
  5 37  1  0
  6 38  1  0
 11 39  1  0
 13 40  1  0
 13 41  1  0
 14 42  1  6
 15 43  1  0
 15 44  1  0
 16 45  1  1
 17 46  1  0
 17 47  1  0
 18 48  1  6
 19 49  1  0
 19 50  1  0
 20 51  1  0
 20 52  1  0
 21 53  1  0
 21 54  1  0
 22 55  1  0
 27 56  1  0
 28 57  1  0
 29 58  1  0
 30 59  1  0
 31 60  1  0
 32 61  1  0
M  END
>  <meeko>  (116) 
{"is_sidechain": false}

$$$$

     RDKit          3D

 62 67  0  0  0  0  0  0  0  0999 V2000
    8.8860   -3.3720  -50.0980 C   0  0  0  0  0  0  0  0  0  0  0  0
    8.0080   -2.3060  -50.4480 O   0  0  0  0  0  0  0  0  0  0  0  0
    7.5670   -2.2650  -51.7410 C   0  0  0  0  0  0  0  0  0  0  0  0
    6.4420   -2.9140  -52.2500 C   0  0  0  0  0  0  0  0  0  0  0  0
    6.1050   -2.7900  -53.6030 C   0  0  0  0  0  0  0  0  0  0  0  0
    6.8850   -2.0100  -54.4530 C   0  0  0  0  0  0  0  0  0  0  0  0
    7.9960   -1.3500  -53.9330 C   0  0  0  0  0  0  0  0  0  0  0  0
    8.8920   -0.4730  -54.8620 C   0  0  0  0  0  0  0  0  0  0  0  0
    8.5160    0.7190  -55.3490 N   0  0  0  0  0  0  0  0  0  0  0  0
    9.5450    1.3770  -55.9690 C   0  0  0  0  0  0  0  0  0  0  0  0
    9.2820    2.6390  -56.4450 N   0  0  0  0  0  0  0  0  0  0  0  0
    9.3520    3.0790  -57.8480 C   0  0  2  0  0  0  0  0  0  0  0  0
    8.8850    4.5590  -57.9200 C   0  0  0  0  0  0  0  0  0  0  0  0
    8.9360    5.0770  -59.3660 C   0  0  1  0  0  0  0  0  0  0  0  0
   10.3780    4.9760  -59.8870 C   0  0  0  0  0  0  0  0  0  0  0  0
   10.8520    3.5150  -59.8400 C   0  0  2  0  0  0  0  0  0  0  0  0
    9.9240    2.6520  -60.7120 C   0  0  0  0  0  0  0  0  0  0  0  0
    8.4750    2.7460  -60.1990 C   0  0  2  0  0  0  0  0  0  0  0  0
    8.0160    4.2120  -60.2450 C   0  0  0  0  0  0  0  0  0  0  0  0
    8.4180    2.2390  -58.7470 C   0  0  0  0  0  0  0  0  0  0  0  0
   10.7990    3.0100  -58.3880 C   0  0  0  0  0  0  0  0  0  0  0  0
   10.6010    0.4970  -55.9080 C   0  0  0  0  0  0  0  0  0  0  0  0
   10.1410   -0.6530  -55.3000 N   0  0  0  0  0  0  0  0  0  0  0  0
   10.9720   -1.8520  -55.1460 C   0  0  0  0  0  0  0  0  0  0  0  0
   11.5520   -1.9110  -54.0710 O   0  0  0  0  0  0  0  0  0  0  0  0
   11.1660   -2.9190  -56.1470 C   0  0  0  0  0  0  0  0  0  0  0  0
   10.6100   -4.1830  -55.9190 C   0  0  0  0  0  0  0  0  0  0  0  0
   10.7850   -5.1930  -56.8630 C   0  0  0  0  0  0  0  0  0  0  0  0
   11.5250   -4.9460  -58.0210 C   0  0  0  0  0  0  0  0  0  0  0  0
   12.1040   -3.6950  -58.2320 C   0  0  0  0  0  0  0  0  0  0  0  0
   11.9350   -2.6790  -57.2920 C   0  0  0  0  0  0  0  0  0  0  0  0
    8.3510   -1.4840  -52.5900 C   0  0  0  0  0  0  0  0  0  0  0  0
    8.9500   -3.4497  -49.0026 H   0  0  0  0  0  0  0  0  0  0  0  0
    8.4997   -4.3157  -50.5106 H   0  0  0  0  0  0  0  0  0  0  0  0
    9.8862   -3.1737  -50.5106 H   0  0  0  0  0  0  0  0  0  0  0  0
    5.8162   -3.5267  -51.5844 H   0  0  0  0  0  0  0  0  0  0  0  0
    5.2199   -3.3111  -53.9966 H   0  0  0  0  0  0  0  0  0  0  0  0
    6.6278   -1.9165  -55.5184 H   0  0  0  0  0  0  0  0  0  0  0  0
    7.6000    1.1160  -55.1860 H   0  0  0  0  0  0  0  0  0  0  0  0
    8.9920    3.3940  -55.8260 H   0  0  0  0  0  0  0  0  0  0  0  0
    7.8524    4.6300  -57.5476 H   0  0  0  0  0  0  0  0  0  0  0  0
    9.5576    5.1717  -57.3018 H   0  0  0  0  0  0  0  0  0  0  0  0
    8.6023    6.1247  -59.3991 H   0  0  0  0  0  0  0  0  0  0  0  0
   10.4167    5.3384  -60.9249 H   0  0  0  0  0  0  0  0  0  0  0  0
   11.0350    5.5896  -59.2531 H   0  0  0  0  0  0  0  0  0  0  0  0
   11.8830    3.4481  -60.2176 H   0  0  0  0  0  0  0  0  0  0  0  0
    9.9656    3.0095  -61.7515 H   0  0  0  0  0  0  0  0  0  0  0  0
   10.2557    1.6044  -60.6622 H   0  0  0  0  0  0  0  0  0  0  0  0
    7.8160    2.1325  -60.8310 H   0  0  0  0  0  0  0  0  0  0  0  0
    8.0568    4.5745  -61.2827 H   0  0  0  0  0  0  0  0  0  0  0  0
    6.9852    4.2806  -59.8672 H   0  0  0  0  0  0  0  0  0  0  0  0
    7.3862    2.3206  -58.3745 H   0  0  0  0  0  0  0  0  0  0  0  0
    8.7463    1.1894  -58.7217 H   0  0  0  0  0  0  0  0  0  0  0  0
   11.1499    1.9681  -58.3532 H   0  0  0  0  0  0  0  0  0  0  0  0
   11.4442    3.6462  -57.7643 H   0  0  0  0  0  0  0  0  0  0  0  0
   11.6220    0.6769  -56.2756 H   0  0  0  0  0  0  0  0  0  0  0  0
   10.0381   -4.3781  -54.9998 H   0  0  0  0  0  0  0  0  0  0  0  0
   10.3401   -6.1850  -56.6959 H   0  0  0  0  0  0  0  0  0  0  0  0
   11.6518   -5.7415  -58.7700 H   0  0  0  0  0  0  0  0  0  0  0  0
   12.6948   -3.5095  -59.1411 H   0  0  0  0  0  0  0  0  0  0  0  0
   12.4026   -1.6958  -57.4490 H   0  0  0  0  0  0  0  0  0  0  0  0
    9.2460   -0.9754  -52.2023 H   0  0  0  0  0  0  0  0  0  0  0  0
  1  2  1  0
  2  3  1  0
  3  4  1  0
  4  5  2  0
  5  6  1  0
  6  7  2  0
  7  8  1  0
  8  9  2  0
  9 10  1  0
 10 11  1  0
 12 11  1  1
 12 13  1  0
 13 14  1  0
 14 15  1  0
 15 16  1  0
 16 17  1  0
 17 18  1  0
 18 19  1  0
 18 20  1  0
 16 21  1  0
 10 22  2  0
 22 23  1  0
 23 24  1  0
 24 25  2  0
 24 26  1  0
 26 27  2  0
 27 28  1  0
 28 29  2  0
 29 30  1  0
 30 31  2  0
  7 32  1  0
 32  3  2  0
 23  8  1  0
 31 26  1  0
 20 12  1  0
 21 12  1  0
 19 14  1  0
  1 33  1  0
  1 34  1  0
  1 35  1  0
  4 36  1  0
  5 37  1  0
  6 38  1  0
  9 39  1  0
 11 40  1  0
 13 41  1  0
 13 42  1  0
 14 43  1  1
 15 44  1  0
 15 45  1  0
 16 46  1  6
 17 47  1  0
 17 48  1  0
 18 49  1  6
 19 50  1  0
 19 51  1  0
 20 52  1  0
 20 53  1  0
 21 54  1  0
 21 55  1  0
 22 56  1  0
 27 57  1  0
 28 58  1  0
 29 59  1  0
 30 60  1  0
 31 61  1  0
 32 62  1  0
M  CHG  1   9   1
M  END
>  <meeko>  (117) 
{"is_sidechain": false}

$$$$

     RDKit          3D

 31 32  0  0  0  0  0  0  0  0999 V2000
    9.3710    1.6420  -60.7110 C   0  0  0  0  0  0  0  0  0  0  0  0
    9.6790    2.7950  -60.8560 C   0  0  0  0  0  0  0  0  0  0  0  0
   10.0600    4.2060  -61.0150 C   0  0  0  0  0  0  0  0  0  0  0  0
   10.2010    4.8370  -59.7230 N   0  0  0  0  0  0  0  0  0  0  0  0
   11.3590    4.7550  -59.0250 C   0  0  0  0  0  0  0  0  0  0  0  0
   12.5750    5.0780  -59.4800 N   0  0  0  0  0  0  0  0  0  0  0  0
   13.3370    4.8360  -58.4050 N   0  0  0  0  0  0  0  0  0  0  0  0
   12.7560    4.3790  -57.2960 N   0  0  0  0  0  0  0  0  0  0  0  0
   11.4630    4.3190  -57.6670 C   0  0  0  0  0  0  0  0  0  0  0  0
   10.3820    3.8580  -56.7840 C   0  0  0  0  0  0  0  0  0  0  0  0
   10.1180    4.4770  -55.7540 O   0  0  0  0  0  0  0  0  0  0  0  0
    9.7410    2.7230  -57.2370 N   0  0  0  0  0  0  0  0  0  0  0  0
    8.6680    2.0040  -56.6620 C   0  0  0  0  0  0  0  0  0  0  0  0
    8.8620    1.0910  -55.6140 C   0  0  0  0  0  0  0  0  0  0  0  0
    7.7900    0.3890  -55.0560 C   0  0  0  0  0  0  0  0  0  0  0  0
    6.5050    0.5880  -55.5380 C   0  0  0  0  0  0  0  0  0  0  0  0
    6.2930    1.4900  -56.5790 C   0  0  0  0  0  0  0  0  0  0  0  0
    7.3600    2.2120  -57.1600 C   0  0  0  0  0  0  0  0  0  0  0  0
    7.0450    3.1770  -58.2920 C   0  0  0  0  0  0  0  0  0  0  0  0
    6.3060    2.7460  -59.2360 O   0  0  0  0  0  0  0  0  0  0  0  0
    7.5400    4.3470  -58.2230 O   0  0  0  0  0  0  0  0  0  0  0  0
    9.0892    0.5870  -60.5783 H   0  0  0  0  0  0  0  0  0  0  0  0
   11.0173    4.2647  -61.5537 H   0  0  0  0  0  0  0  0  0  0  0  0
    9.2748    4.7264  -61.5831 H   0  0  0  0  0  0  0  0  0  0  0  0
    9.3390    4.8660  -59.1760 H   0  0  0  0  0  0  0  0  0  0  0  0
   14.3420    4.9940  -58.4270 H   0  0  0  0  0  0  0  0  0  0  0  0
   10.0860    2.3240  -58.1300 H   0  0  0  0  0  0  0  0  0  0  0  0
    9.8771    0.9247  -55.2243 H   0  0  0  0  0  0  0  0  0  0  0  0
    7.9655   -0.3213  -54.2346 H   0  0  0  0  0  0  0  0  0  0  0  0
    5.6586    0.0375  -55.1015 H   0  0  0  0  0  0  0  0  0  0  0  0
    5.2715    1.6435  -56.9572 H   0  0  0  0  0  0  0  0  0  0  0  0
  1  2  3  0
  2  3  1  0
  3  4  1  0
  4  5  1  0
  5  6  2  0
  6  7  1  0
  7  8  1  0
  8  9  2  0
  9 10  1  0
 10 11  2  0
 10 12  1  0
 12 13  1  0
 13 14  2  0
 14 15  1  0
 15 16  2  0
 16 17  1  0
 17 18  2  0
 18 19  1  0
 19 20  2  0
 19 21  1  0
  9  5  1  0
 18 13  1  0
  1 22  1  0
  3 23  1  0
  3 24  1  0
  4 25  1  0
  7 26  1  0
 12 27  1  0
 14 28  1  0
 15 29  1  0
 16 30  1  0
 17 31  1  0
M  CHG  1  21  -1
M  END
>  <meeko>  (118) 
{"is_sidechain": false}

$$$$

     RDKit          3D

 31 32  0  0  0  0  0  0  0  0999 V2000
    7.6410    0.5310  -55.3490 C   0  0  0  0  0  0  0  0  0  0  0  0
    7.0270    1.2150  -56.1230 C   0  0  0  0  0  0  0  0  0  0  0  0
    6.2810    2.0480  -57.0750 C   0  0  0  0  0  0  0  0  0  0  0  0
    7.1520    2.3140  -58.2120 N   0  0  0  0  0  0  0  0  0  0  0  0
    6.5870    2.4470  -59.3550 C   0  0  0  0  0  0  0  0  0  0  0  0
    5.2830    2.2950  -59.7790 N   0  0  0  0  0  0  0  0  0  0  0  0
    5.3630    2.2860  -61.1880 N   0  0  0  0  0  0  0  0  0  0  0  0
    6.6150    2.6710  -61.6330 N   0  0  0  0  0  0  0  0  0  0  0  0
    7.3810    2.7650  -60.5780 C   0  0  0  0  0  0  0  0  0  0  0  0
    8.8130    3.1880  -60.6590 C   0  0  0  0  0  0  0  0  0  0  0  0
    9.4100    3.0110  -61.7130 O   0  0  0  0  0  0  0  0  0  0  0  0
    9.2540    3.7470  -59.4870 N   0  0  0  0  0  0  0  0  0  0  0  0
   10.5240    4.2560  -59.1520 C   0  0  0  0  0  0  0  0  0  0  0  0
   11.1750    5.2120  -59.9420 C   0  0  0  0  0  0  0  0  0  0  0  0
   12.4340    5.6970  -59.5790 C   0  0  0  0  0  0  0  0  0  0  0  0
   13.0540    5.2320  -58.4240 C   0  0  0  0  0  0  0  0  0  0  0  0
   12.4140    4.2780  -57.6310 C   0  0  0  0  0  0  0  0  0  0  0  0
   11.1440    3.7730  -57.9760 C   0  0  0  0  0  0  0  0  0  0  0  0
   10.4930    2.7300  -57.0790 C   0  0  0  0  0  0  0  0  0  0  0  0
   10.4210    1.5380  -57.5130 O   0  0  0  0  0  0  0  0  0  0  0  0
   10.0600    3.1300  -55.9440 O   0  0  0  0  0  0  0  0  0  0  0  0
    8.2031   -0.0951  -54.6405 H   0  0  0  0  0  0  0  0  0  0  0  0
    5.3790    1.5157  -57.4111 H   0  0  0  0  0  0  0  0  0  0  0  0
    5.9708    2.9904  -56.5999 H   0  0  0  0  0  0  0  0  0  0  0  0
    4.8400    1.4620  -59.3990 H   0  0  0  0  0  0  0  0  0  0  0  0
    4.6140    2.8090  -61.6530 H   0  0  0  0  0  0  0  0  0  0  0  0
    8.5840    3.8090  -58.7020 H   0  0  0  0  0  0  0  0  0  0  0  0
   10.6906    5.5844  -60.8567 H   0  0  0  0  0  0  0  0  0  0  0  0
   12.9356    6.4476  -60.2075 H   0  0  0  0  0  0  0  0  0  0  0  0
   14.0445    5.6144  -58.1367 H   0  0  0  0  0  0  0  0  0  0  0  0
   12.9102    3.9134  -56.7195 H   0  0  0  0  0  0  0  0  0  0  0  0
  1  2  3  0
  2  3  1  0
  3  4  1  0
  4  5  2  0
  5  6  1  0
  6  7  1  0
  7  8  1  0
  8  9  2  0
  9 10  1  0
 10 11  2  0
 10 12  1  0
 12 13  1  0
 13 14  2  0
 14 15  1  0
 15 16  2  0
 16 17  1  0
 17 18  2  0
 18 19  1  0
 19 20  2  0
 19 21  1  0
  9  5  1  0
 18 13  1  0
  1 22  1  0
  3 23  1  0
  3 24  1  0
  6 25  1  0
  7 26  1  0
 12 27  1  0
 14 28  1  0
 15 29  1  0
 16 30  1  0
 17 31  1  0
M  CHG  1  21  -1
M  END
>  <meeko>  (119) 
{"is_sidechain": false}

$$$$

     RDKit          3D

 31 32  0  0  0  0  0  0  0  0999 V2000
    7.1280    0.5910  -55.4120 C   0  0  0  0  0  0  0  0  0  0  0  0
    6.9210    1.4320  -56.2440 C   0  0  0  0  0  0  0  0  0  0  0  0
    6.6770    2.4630  -57.2630 C   0  0  0  0  0  0  0  0  0  0  0  0
    5.9140    1.8020  -58.3070 N   0  0  0  0  0  0  0  0  0  0  0  0
    6.1430    2.0830  -59.5410 C   0  0  0  0  0  0  0  0  0  0  0  0
    5.4540    1.5360  -60.5970 N   0  0  0  0  0  0  0  0  0  0  0  0
    5.8140    2.2910  -61.7080 N   0  0  0  0  0  0  0  0  0  0  0  0
    6.7490    3.2540  -61.4150 N   0  0  0  0  0  0  0  0  0  0  0  0
    7.0540    3.1110  -60.1490 C   0  0  0  0  0  0  0  0  0  0  0  0
    8.0980    3.9710  -59.5170 C   0  0  0  0  0  0  0  0  0  0  0  0
    7.7130    4.9170  -58.8400 O   0  0  0  0  0  0  0  0  0  0  0  0
    9.3730    3.5410  -59.7630 N   0  0  0  0  0  0  0  0  0  0  0  0
   10.5970    4.0630  -59.2950 C   0  0  0  0  0  0  0  0  0  0  0  0
   11.3200    5.0270  -60.0100 C   0  0  0  0  0  0  0  0  0  0  0  0
   12.5320    5.5200  -59.5190 C   0  0  0  0  0  0  0  0  0  0  0  0
   13.0340    5.0560  -58.3090 C   0  0  0  0  0  0  0  0  0  0  0  0
   12.3220    4.0990  -57.5880 C   0  0  0  0  0  0  0  0  0  0  0  0
   11.0980    3.5860  -58.0610 C   0  0  0  0  0  0  0  0  0  0  0  0
   10.3570    2.5500  -57.2280 C   0  0  0  0  0  0  0  0  0  0  0  0
   10.0590    2.8860  -56.0320 O   0  0  0  0  0  0  0  0  0  0  0  0
   10.0910    1.4350  -57.7710 O   0  0  0  0  0  0  0  0  0  0  0  0
    7.3176   -0.1793  -54.6500 H   0  0  0  0  0  0  0  0  0  0  0  0
    6.1016    3.2975  -56.8358 H   0  0  0  0  0  0  0  0  0  0  0  0
    7.6160    2.8864  -57.6490 H   0  0  0  0  0  0  0  0  0  0  0  0
    4.4670    1.3830  -60.4180 H   0  0  0  0  0  0  0  0  0  0  0  0
    5.1010    2.5440  -62.3920 H   0  0  0  0  0  0  0  0  0  0  0  0
    9.5000    2.6890  -60.3390 H   0  0  0  0  0  0  0  0  0  0  0  0
   10.9293    5.3999  -60.9683 H   0  0  0  0  0  0  0  0  0  0  0  0
   13.0894    6.2763  -60.0911 H   0  0  0  0  0  0  0  0  0  0  0  0
   13.9886    5.4421  -57.9222 H   0  0  0  0  0  0  0  0  0  0  0  0
   12.7239    3.7369  -56.6302 H   0  0  0  0  0  0  0  0  0  0  0  0
  1  2  3  0
  2  3  1  0
  3  4  1  0
  4  5  2  0
  5  6  1  0
  6  7  1  0
  7  8  1  0
  8  9  2  0
  9 10  1  0
 10 11  2  0
 10 12  1  0
 12 13  1  0
 13 14  2  0
 14 15  1  0
 15 16  2  0
 16 17  1  0
 17 18  2  0
 18 19  1  0
 19 20  2  0
 19 21  1  0
  9  5  1  0
 18 13  1  0
  1 22  1  0
  3 23  1  0
  3 24  1  0
  6 25  1  0
  7 26  1  0
 12 27  1  0
 14 28  1  0
 15 29  1  0
 16 30  1  0
 17 31  1  0
M  CHG  1  21  -1
M  END
>  <meeko>  (120) 
{"is_sidechain": false}

$$$$

     RDKit          3D

 31 32  0  0  0  0  0  0  0  0999 V2000
    9.3750    1.6080  -60.6930 C   0  0  0  0  0  0  0  0  0  0  0  0
    9.6760    2.7590  -60.8600 C   0  0  0  0  0  0  0  0  0  0  0  0
   10.0460    4.1670  -61.0630 C   0  0  0  0  0  0  0  0  0  0  0  0
   10.1210    4.8810  -59.7930 N   0  0  0  0  0  0  0  0  0  0  0  0
   11.2310    4.7580  -59.0020 C   0  0  0  0  0  0  0  0  0  0  0  0
   12.4870    5.1270  -59.3940 N   0  0  0  0  0  0  0  0  0  0  0  0
   13.3960    4.9100  -58.4360 N   0  0  0  0  0  0  0  0  0  0  0  0
   12.7500    4.4240  -57.3830 N   0  0  0  0  0  0  0  0  0  0  0  0
   11.4120    4.3290  -57.6950 C   0  0  0  0  0  0  0  0  0  0  0  0
   10.3730    3.8290  -56.7950 C   0  0  0  0  0  0  0  0  0  0  0  0
   10.1500    4.4110  -55.7340 O   0  0  0  0  0  0  0  0  0  0  0  0
    9.7090    2.7150  -57.2580 N   0  0  0  0  0  0  0  0  0  0  0  0
    8.6640    1.9770  -56.6480 C   0  0  0  0  0  0  0  0  0  0  0  0
    8.8970    1.0980  -55.5790 C   0  0  0  0  0  0  0  0  0  0  0  0
    7.8530    0.3780  -54.9920 C   0  0  0  0  0  0  0  0  0  0  0  0
    6.5560    0.5240  -55.4660 C   0  0  0  0  0  0  0  0  0  0  0  0
    6.3080    1.3900  -56.5270 C   0  0  0  0  0  0  0  0  0  0  0  0
    7.3450    2.1290  -57.1370 C   0  0  0  0  0  0  0  0  0  0  0  0
    6.9950    3.0580  -58.2870 C   0  0  0  0  0  0  0  0  0  0  0  0
    6.2420    2.5870  -59.2000 O   0  0  0  0  0  0  0  0  0  0  0  0
    7.4750    4.2350  -58.2610 O   0  0  0  0  0  0  0  0  0  0  0  0
    9.0994    0.5541  -60.5401 H   0  0  0  0  0  0  0  0  0  0  0  0
   11.0270    4.2124  -61.5586 H   0  0  0  0  0  0  0  0  0  0  0  0
    9.2745    4.6437  -61.6856 H   0  0  0  0  0  0  0  0  0  0  0  0
    9.2490    4.7630  -59.2620 H   0  0  0  0  0  0  0  0  0  0  0  0
   12.7830    5.5400  -60.2680 H   0  0  0  0  0  0  0  0  0  0  0  0
    9.9730    2.3550  -58.1940 H   0  0  0  0  0  0  0  0  0  0  0  0
    9.9206    0.9735  -55.1960 H   0  0  0  0  0  0  0  0  0  0  0  0
    8.0587   -0.3046  -54.1543 H   0  0  0  0  0  0  0  0  0  0  0  0
    5.7311   -0.0403  -55.0066 H   0  0  0  0  0  0  0  0  0  0  0  0
    5.2790    1.5014  -56.8994 H   0  0  0  0  0  0  0  0  0  0  0  0
  1  2  3  0
  2  3  1  0
  3  4  1  0
  4  5  1  0
  5  6  1  0
  6  7  1  0
  7  8  2  0
  8  9  1  0
  9 10  1  0
 10 11  2  0
 10 12  1  0
 12 13  1  0
 13 14  2  0
 14 15  1  0
 15 16  2  0
 16 17  1  0
 17 18  2  0
 18 19  1  0
 19 20  2  0
 19 21  1  0
  9  5  2  0
 18 13  1  0
  1 22  1  0
  3 23  1  0
  3 24  1  0
  4 25  1  0
  6 26  1  0
 12 27  1  0
 14 28  1  0
 15 29  1  0
 16 30  1  0
 17 31  1  0
M  CHG  1  21  -1
M  END
>  <meeko>  (121) 
{"is_sidechain": false}

$$$$

     RDKit          3D

 31 32  0  0  0  0  0  0  0  0999 V2000
    7.0960    0.3950  -55.3330 C   0  0  0  0  0  0  0  0  0  0  0  0
    6.3830    1.0850  -56.0100 C   0  0  0  0  0  0  0  0  0  0  0  0
    5.5170    1.9320  -56.8450 C   0  0  0  0  0  0  0  0  0  0  0  0
    6.3310    2.8380  -57.6220 N   0  0  0  0  0  0  0  0  0  0  0  0
    6.3220    2.7600  -58.9680 C   0  0  0  0  0  0  0  0  0  0  0  0
    5.4540    1.9770  -59.6710 N   0  0  0  0  0  0  0  0  0  0  0  0
    5.7140    2.1340  -60.9610 N   0  0  0  0  0  0  0  0  0  0  0  0
    6.7320    3.0120  -61.0620 N   0  0  0  0  0  0  0  0  0  0  0  0
    7.1670    3.4310  -59.8240 C   0  0  0  0  0  0  0  0  0  0  0  0
    8.2570    4.3360  -59.5430 C   0  0  0  0  0  0  0  0  0  0  0  0
    8.0890    5.5480  -59.4280 O   0  0  0  0  0  0  0  0  0  0  0  0
    9.4580    3.6960  -59.4050 N   0  0  0  0  0  0  0  0  0  0  0  0
   10.7480    4.1510  -59.0920 C   0  0  0  0  0  0  0  0  0  0  0  0
   11.4310    5.0930  -59.8650 C   0  0  0  0  0  0  0  0  0  0  0  0
   12.7160    5.5000  -59.4950 C   0  0  0  0  0  0  0  0  0  0  0  0
   13.3190    4.9700  -58.3570 C   0  0  0  0  0  0  0  0  0  0  0  0
   12.6390    4.0310  -57.5800 C   0  0  0  0  0  0  0  0  0  0  0  0
   11.3450    3.6040  -57.9280 C   0  0  0  0  0  0  0  0  0  0  0  0
   10.6210    2.5820  -57.0510 C   0  0  0  0  0  0  0  0  0  0  0  0
   11.1970    1.4740  -56.8330 O   0  0  0  0  0  0  0  0  0  0  0  0
    9.4680    2.9230  -56.5930 O   0  0  0  0  0  0  0  0  0  0  0  0
    7.7490   -0.2369  -54.7130 H   0  0  0  0  0  0  0  0  0  0  0  0
    4.9269    1.2972  -57.5223 H   0  0  0  0  0  0  0  0  0  0  0  0
    4.8394    2.5106  -56.1999 H   0  0  0  0  0  0  0  0  0  0  0  0
    7.1990    3.1340  -57.1770 H   0  0  0  0  0  0  0  0  0  0  0  0
    7.0790    3.2670  -61.9880 H   0  0  0  0  0  0  0  0  0  0  0  0
    9.4700    2.6780  -59.5160 H   0  0  0  0  0  0  0  0  0  0  0  0
   10.9579    5.5142  -60.7643 H   0  0  0  0  0  0  0  0  0  0  0  0
   13.2529    6.2415  -60.1048 H   0  0  0  0  0  0  0  0  0  0  0  0
   14.3312    5.2915  -58.0706 H   0  0  0  0  0  0  0  0  0  0  0  0
   13.1224    3.6187  -56.6820 H   0  0  0  0  0  0  0  0  0  0  0  0
  1  2  3  0
  2  3  1  0
  3  4  1  0
  4  5  1  0
  5  6  1  0
  6  7  2  0
  7  8  1  0
  8  9  1  0
  9 10  1  0
 10 11  2  0
 10 12  1  0
 12 13  1  0
 13 14  2  0
 14 15  1  0
 15 16  2  0
 16 17  1  0
 17 18  2  0
 18 19  1  0
 19 20  2  0
 19 21  1  0
  9  5  2  0
 18 13  1  0
  1 22  1  0
  3 23  1  0
  3 24  1  0
  4 25  1  0
  8 26  1  0
 12 27  1  0
 14 28  1  0
 15 29  1  0
 16 30  1  0
 17 31  1  0
M  CHG  1  21  -1
M  END
>  <meeko>  (122) 
{"is_sidechain": false}

$$$$

     RDKit          3D

 54 59  0  0  0  0  0  0  0  0999 V2000
   12.0520   -4.7630  -56.1470 C   0  0  0  0  0  0  0  0  0  0  0  0
   11.5780   -4.2760  -54.9300 C   0  0  0  0  0  0  0  0  0  0  0  0
   11.1110   -2.9620  -54.8360 C   0  0  0  0  0  0  0  0  0  0  0  0
   11.1330   -2.1190  -55.9580 C   0  0  0  0  0  0  0  0  0  0  0  0
   10.6360   -0.7480  -55.8880 C   0  0  0  0  0  0  0  0  0  0  0  0
   11.2440    0.2760  -56.4570 N   0  0  0  0  0  0  0  0  0  0  0  0
   10.3710    1.3010  -56.3190 C   0  0  0  0  0  0  0  0  0  0  0  0
   10.6240    2.5220  -56.8120 N   0  0  0  0  0  0  0  0  0  0  0  0
    9.9200    3.1430  -57.9290 C   0  0  2  0  0  0  0  0  0  0  0  0
    8.5170    3.6510  -57.5200 C   0  0  0  0  0  0  0  0  0  0  0  0
    7.8370    4.3610  -58.7040 C   0  0  1  0  0  0  0  0  0  0  0  0
    8.6890    5.5670  -59.1290 C   0  0  0  0  0  0  0  0  0  0  0  0
   10.0880    5.0970  -59.5570 C   0  0  2  0  0  0  0  0  0  0  0  0
    9.9590    4.1230  -60.7380 C   0  0  0  0  0  0  0  0  0  0  0  0
    9.1180    2.9070  -60.3220 C   0  0  2  0  0  0  0  0  0  0  0  0
    7.7210    3.3800  -59.8850 C   0  0  0  0  0  0  0  0  0  0  0  0
    9.8030    2.1920  -59.1440 C   0  0  0  0  0  0  0  0  0  0  0  0
   10.7590    4.3740  -58.3780 C   0  0  0  0  0  0  0  0  0  0  0  0
    9.2480    0.9940  -55.6850 N   0  0  0  0  0  0  0  0  0  0  0  0
    9.4610   -0.2900  -55.2960 N   0  0  0  0  0  0  0  0  0  0  0  0
    8.5480   -0.9170  -54.3970 C   0  0  0  0  0  0  0  0  0  0  0  0
    7.2490   -1.2120  -54.8460 C   0  0  0  0  0  0  0  0  0  0  0  0
    6.3250   -1.8240  -53.9950 C   0  0  0  0  0  0  0  0  0  0  0  0
    6.6820   -2.1330  -52.6860 C   0  0  0  0  0  0  0  0  0  0  0  0
    7.9590   -1.8220  -52.2240 C   0  0  0  0  0  0  0  0  0  0  0  0
    8.8890   -1.2110  -53.0710 C   0  0  0  0  0  0  0  0  0  0  0  0
   11.5880   -2.6290  -57.1820 C   0  0  0  0  0  0  0  0  0  0  0  0
   12.0530   -3.9420  -57.2740 C   0  0  0  0  0  0  0  0  0  0  0  0
   12.4254   -5.7952  -56.2183 H   0  0  0  0  0  0  0  0  0  0  0  0
   11.5715   -4.9263  -54.0429 H   0  0  0  0  0  0  0  0  0  0  0  0
   10.7240   -2.5864  -53.8773 H   0  0  0  0  0  0  0  0  0  0  0  0
   11.0090    3.1650  -56.1300 H   0  0  0  0  0  0  0  0  0  0  0  0
    7.8993    2.7965  -57.2066 H   0  0  0  0  0  0  0  0  0  0  0  0
    8.6241    4.3647  -56.6899 H   0  0  0  0  0  0  0  0  0  0  0  0
    6.8348    4.7023  -58.4055 H   0  0  0  0  0  0  0  0  0  0  0  0
    8.2022    6.0777  -59.9729 H   0  0  0  0  0  0  0  0  0  0  0  0
    8.7847    6.2591  -58.2793 H   0  0  0  0  0  0  0  0  0  0  0  0
   10.6940    5.9644  -59.8576 H   0  0  0  0  0  0  0  0  0  0  0  0
    9.4700    4.6338  -61.5806 H   0  0  0  0  0  0  0  0  0  0  0  0
   10.9611    3.7846  -61.0400 H   0  0  0  0  0  0  0  0  0  0  0  0
    9.0258    2.2146  -61.1717 H   0  0  0  0  0  0  0  0  0  0  0  0
    7.2276    3.8842  -60.7290 H   0  0  0  0  0  0  0  0  0  0  0  0
    7.1290    2.5079  -59.5703 H   0  0  0  0  0  0  0  0  0  0  0  0
    9.2081    1.3117  -58.8591 H   0  0  0  0  0  0  0  0  0  0  0  0
   10.8124    1.8827  -59.4530 H   0  0  0  0  0  0  0  0  0  0  0  0
   11.7590    4.0348  -58.6860 H   0  0  0  0  0  0  0  0  0  0  0  0
   10.8332    5.0747  -57.5333 H   0  0  0  0  0  0  0  0  0  0  0  0
    6.9574   -0.9589  -55.8760 H   0  0  0  0  0  0  0  0  0  0  0  0
    5.3149   -2.0616  -54.3600 H   0  0  0  0  0  0  0  0  0  0  0  0
    5.9577   -2.6216  -52.0177 H   0  0  0  0  0  0  0  0  0  0  0  0
    8.2375   -2.0585  -51.1865 H   0  0  0  0  0  0  0  0  0  0  0  0
    9.8917   -0.9605  -52.6944 H   0  0  0  0  0  0  0  0  0  0  0  0
   11.5785   -1.9895  -58.0770 H   0  0  0  0  0  0  0  0  0  0  0  0
   12.4203   -4.3291  -58.2359 H   0  0  0  0  0  0  0  0  0  0  0  0
  1  2  2  0
  2  3  1  0
  3  4  2  0
  4  5  1  0
  5  6  2  0
  6  7  1  0
  7  8  1  0
  9  8  1  1
  9 10  1  0
 10 11  1  0
 11 12  1  0
 12 13  1  0
 13 14  1  0
 14 15  1  0
 15 16  1  0
 15 17  1  0
 13 18  1  0
  7 19  2  0
 19 20  1  0
 20 21  1  0
 21 22  2  0
 22 23  1  0
 23 24  2  0
 24 25  1  0
 25 26  2  0
  4 27  1  0
 27 28  2  0
 28  1  1  0
 20  5  1  0
 26 21  1  0
 17  9  1  0
 18  9  1  0
 16 11  1  0
  1 29  1  0
  2 30  1  0
  3 31  1  0
  8 32  1  0
 10 33  1  0
 10 34  1  0
 11 35  1  1
 12 36  1  0
 12 37  1  0
 13 38  1  6
 14 39  1  0
 14 40  1  0
 15 41  1  6
 16 42  1  0
 16 43  1  0
 17 44  1  0
 17 45  1  0
 18 46  1  0
 18 47  1  0
 22 48  1  0
 23 49  1  0
 24 50  1  0
 25 51  1  0
 26 52  1  0
 27 53  1  0
 28 54  1  0
M  END
>  <meeko>  (123) 
{"is_sidechain": false}

$$$$

     RDKit          3D

 54 59  0  0  0  0  0  0  0  0999 V2000
    7.1100   -2.4140  -52.4730 C   0  0  0  0  0  0  0  0  0  0  0  0
    6.6710   -1.9540  -53.7140 C   0  0  0  0  0  0  0  0  0  0  0  0
    7.5830   -1.4040  -54.6160 C   0  0  0  0  0  0  0  0  0  0  0  0
    8.9390   -1.3250  -54.2800 C   0  0  0  0  0  0  0  0  0  0  0  0
    9.8880   -0.7290  -55.2490 C   0  0  0  0  0  0  0  0  0  0  0  0
    9.6920    0.4890  -55.7210 N   0  0  0  0  0  0  0  0  0  0  0  0
   10.7830    0.7110  -56.5320 C   0  0  0  0  0  0  0  0  0  0  0  0
   10.9040    1.7030  -57.3310 N   0  0  0  0  0  0  0  0  0  0  0  0
    9.9130    2.7760  -57.4420 C   0  0  2  0  0  0  0  0  0  0  0  0
   10.0990    3.3710  -58.8660 C   0  0  0  0  0  0  0  0  0  0  0  0
    9.1060    4.5180  -59.1180 C   0  0  1  0  0  0  0  0  0  0  0  0
    7.6730    3.9810  -58.9790 C   0  0  0  0  0  0  0  0  0  0  0  0
    7.4650    3.4030  -57.5710 C   0  0  2  0  0  0  0  0  0  0  0  0
    7.7140    4.5060  -56.5260 C   0  0  0  0  0  0  0  0  0  0  0  0
    9.1450    5.0570  -56.6610 C   0  0  2  0  0  0  0  0  0  0  0  0
    9.3400    5.6220  -58.0770 C   0  0  0  0  0  0  0  0  0  0  0  0
   10.1510    3.9150  -56.4260 C   0  0  0  0  0  0  0  0  0  0  0  0
    8.4630    2.2530  -57.3410 C   0  0  0  0  0  0  0  0  0  0  0  0
   11.6990   -0.3170  -56.4430 N   0  0  0  0  0  0  0  0  0  0  0  0
   11.0710   -1.3070  -55.7130 N   0  0  0  0  0  0  0  0  0  0  0  0
   11.3250   -2.6740  -55.9950 C   0  0  0  0  0  0  0  0  0  0  0  0
   11.5510   -3.0690  -57.3260 C   0  0  0  0  0  0  0  0  0  0  0  0
   11.7940   -4.4050  -57.6550 C   0  0  0  0  0  0  0  0  0  0  0  0
   11.8080   -5.3740  -56.6560 C   0  0  0  0  0  0  0  0  0  0  0  0
   11.5740   -5.0070  -55.3340 C   0  0  0  0  0  0  0  0  0  0  0  0
   11.3300   -3.6690  -55.0060 C   0  0  0  0  0  0  0  0  0  0  0  0
    9.3730   -1.7680  -53.0260 C   0  0  0  0  0  0  0  0  0  0  0  0
    8.4590   -2.3180  -52.1270 C   0  0  0  0  0  0  0  0  0  0  0  0
    6.3918   -2.8535  -51.7652 H   0  0  0  0  0  0  0  0  0  0  0  0
    5.6065   -2.0246  -53.9819 H   0  0  0  0  0  0  0  0  0  0  0  0
    7.2357   -1.0325  -55.5914 H   0  0  0  0  0  0  0  0  0  0  0  0
   11.1250    3.7554  -58.9641 H   0  0  0  0  0  0  0  0  0  0  0  0
    9.9126    2.5774  -59.6045 H   0  0  0  0  0  0  0  0  0  0  0  0
    9.2518    4.9260  -60.1291 H   0  0  0  0  0  0  0  0  0  0  0  0
    6.9586    4.8007  -59.1459 H   0  0  0  0  0  0  0  0  0  0  0  0
    7.5099    3.1879  -59.7236 H   0  0  0  0  0  0  0  0  0  0  0  0
    6.4360    3.0265  -57.4746 H   0  0  0  0  0  0  0  0  0  0  0  0
    6.9943    5.3231  -56.6824 H   0  0  0  0  0  0  0  0  0  0  0  0
    7.5881    4.0802  -55.5196 H   0  0  0  0  0  0  0  0  0  0  0  0
    9.3077    5.8535  -55.9199 H   0  0  0  0  0  0  0  0  0  0  0  0
    8.6234    6.4395  -58.2452 H   0  0  0  0  0  0  0  0  0  0  0  0
   10.3677    6.0013  -58.1768 H   0  0  0  0  0  0  0  0  0  0  0  0
   11.1738    4.3014  -56.5465 H   0  0  0  0  0  0  0  0  0  0  0  0
   10.0154    3.5215  -55.4078 H   0  0  0  0  0  0  0  0  0  0  0  0
    8.3000    1.8252  -56.3408 H   0  0  0  0  0  0  0  0  0  0  0  0
    8.3054    1.4822  -58.1097 H   0  0  0  0  0  0  0  0  0  0  0  0
   12.0620   -0.5590  -57.3580 H   0  0  0  0  0  0  0  0  0  0  0  0
   11.5361   -2.3113  -58.1233 H   0  0  0  0  0  0  0  0  0  0  0  0
   11.9740   -4.6905  -58.7019 H   0  0  0  0  0  0  0  0  0  0  0  0
   12.0033   -6.4262  -56.9104 H   0  0  0  0  0  0  0  0  0  0  0  0
   11.5809   -5.7721  -54.5437 H   0  0  0  0  0  0  0  0  0  0  0  0
   11.1395   -3.3934  -53.9583 H   0  0  0  0  0  0  0  0  0  0  0  0
   10.4341   -1.6827  -52.7491 H   0  0  0  0  0  0  0  0  0  0  0  0
    8.8015   -2.6762  -51.1450 H   0  0  0  0  0  0  0  0  0  0  0  0
  1  2  2  0
  2  3  1  0
  3  4  2  0
  4  5  1  0
  5  6  2  0
  6  7  1  0
  7  8  2  0
  9  8  1  1
  9 10  1  0
 10 11  1  0
 11 12  1  0
 12 13  1  0
 13 14  1  0
 14 15  1  0
 15 16  1  0
 15 17  1  0
 13 18  1  0
  7 19  1  0
 19 20  1  0
 20 21  1  0
 21 22  2  0
 22 23  1  0
 23 24  2  0
 24 25  1  0
 25 26  2  0
  4 27  1  0
 27 28  2  0
 28  1  1  0
 20  5  1  0
 26 21  1  0
 17  9  1  0
 18  9  1  0
 16 11  1  0
  1 29  1  0
  2 30  1  0
  3 31  1  0
 10 32  1  0
 10 33  1  0
 11 34  1  6
 12 35  1  0
 12 36  1  0
 13 37  1  6
 14 38  1  0
 14 39  1  0
 15 40  1  1
 16 41  1  0
 16 42  1  0
 17 43  1  0
 17 44  1  0
 18 45  1  0
 18 46  1  0
 19 47  1  0
 22 48  1  0
 23 49  1  0
 24 50  1  0
 25 51  1  0
 26 52  1  0
 27 53  1  0
 28 54  1  0
M  END
>  <meeko>  (124) 
{"is_sidechain": false}

$$$$

     RDKit          3D

 54 59  0  0  0  0  0  0  0  0999 V2000
    7.7280   -3.7530  -51.7300 C   0  0  0  0  0  0  0  0  0  0  0  0
    7.1410   -3.6080  -52.9870 C   0  0  0  0  0  0  0  0  0  0  0  0
    7.6990   -2.7320  -53.9210 C   0  0  0  0  0  0  0  0  0  0  0  0
    8.8540   -2.0100  -53.6000 C   0  0  0  0  0  0  0  0  0  0  0  0
    9.4260   -1.0810  -54.6040 C   0  0  0  0  0  0  0  0  0  0  0  0
    8.8460    0.0770  -54.8570 N   0  0  0  0  0  0  0  0  0  0  0  0
    9.6800    0.6830  -55.7790 C   0  0  0  0  0  0  0  0  0  0  0  0
    9.2730    1.7790  -56.2820 N   0  0  0  0  0  0  0  0  0  0  0  0
    9.9990    2.5700  -57.2710 C   0  0  2  0  0  0  0  0  0  0  0  0
    9.5660    2.2170  -58.7090 C   0  0  0  0  0  0  0  0  0  0  0  0
   10.2700    3.1450  -59.7180 C   0  0  1  0  0  0  0  0  0  0  0  0
    9.8700    4.6010  -59.4330 C   0  0  0  0  0  0  0  0  0  0  0  0
   10.2900    4.9890  -58.0070 C   0  0  2  0  0  0  0  0  0  0  0  0
   11.8130    4.8440  -57.8670 C   0  0  0  0  0  0  0  0  0  0  0  0
   12.2280    3.3900  -58.1400 C   0  0  2  0  0  0  0  0  0  0  0  0
   11.7940    2.9980  -59.5650 C   0  0  0  0  0  0  0  0  0  0  0  0
   11.5320    2.4620  -57.1280 C   0  0  0  0  0  0  0  0  0  0  0  0
    9.6020    4.0480  -57.0060 C   0  0  0  0  0  0  0  0  0  0  0  0
   10.8090   -0.0800  -56.0090 N   0  0  0  0  0  0  0  0  0  0  0  0
   10.6070   -1.2650  -55.3220 N   0  0  0  0  0  0  0  0  0  0  0  0
   11.1350   -2.4780  -55.8350 C   0  0  0  0  0  0  0  0  0  0  0  0
   11.6110   -2.5120  -57.1590 C   0  0  0  0  0  0  0  0  0  0  0  0
   12.1260   -3.6860  -57.7130 C   0  0  0  0  0  0  0  0  0  0  0  0
   12.1670   -4.8520  -56.9550 C   0  0  0  0  0  0  0  0  0  0  0  0
   11.6880   -4.8440  -55.6470 C   0  0  0  0  0  0  0  0  0  0  0  0
   11.1740   -3.6670  -55.0940 C   0  0  0  0  0  0  0  0  0  0  0  0
    9.4280   -2.1420  -52.3310 C   0  0  0  0  0  0  0  0  0  0  0  0
    8.8680   -3.0190  -51.4000 C   0  0  0  0  0  0  0  0  0  0  0  0
    7.2913   -4.4475  -50.9972 H   0  0  0  0  0  0  0  0  0  0  0  0
    6.2390   -4.1833  -53.2427 H   0  0  0  0  0  0  0  0  0  0  0  0
    7.2306   -2.6097  -54.9087 H   0  0  0  0  0  0  0  0  0  0  0  0
    9.8373    1.1730  -58.9245 H   0  0  0  0  0  0  0  0  0  0  0  0
    8.4775    2.3476  -58.7991 H   0  0  0  0  0  0  0  0  0  0  0  0
    9.9723    2.8729  -60.7414 H   0  0  0  0  0  0  0  0  0  0  0  0
   10.3702    5.2645  -60.1538 H   0  0  0  0  0  0  0  0  0  0  0  0
    8.7789    4.7024  -59.5295 H   0  0  0  0  0  0  0  0  0  0  0  0
    9.9968    6.0299  -57.8057 H   0  0  0  0  0  0  0  0  0  0  0  0
   12.3104    5.5070  -58.5902 H   0  0  0  0  0  0  0  0  0  0  0  0
   12.1101    5.1191  -56.8443 H   0  0  0  0  0  0  0  0  0  0  0  0
   13.3194    3.2933  -58.0421 H   0  0  0  0  0  0  0  0  0  0  0  0
   12.2966    3.6541  -60.2909 H   0  0  0  0  0  0  0  0  0  0  0  0
   12.0728    1.9499  -59.7486 H   0  0  0  0  0  0  0  0  0  0  0  0
   11.8419    1.4232  -57.3150 H   0  0  0  0  0  0  0  0  0  0  0  0
   11.8191    2.7626  -56.1096 H   0  0  0  0  0  0  0  0  0  0  0  0
    9.9046    4.3246  -55.9853 H   0  0  0  0  0  0  0  0  0  0  0  0
    8.5127    4.1456  -57.1238 H   0  0  0  0  0  0  0  0  0  0  0  0
   11.0150   -0.1750  -56.9950 H   0  0  0  0  0  0  0  0  0  0  0  0
   11.5768   -1.5971  -57.7687 H   0  0  0  0  0  0  0  0  0  0  0  0
   12.4989   -3.6888  -58.7478 H   0  0  0  0  0  0  0  0  0  0  0  0
   12.5763   -5.7771  -57.3872 H   0  0  0  0  0  0  0  0  0  0  0  0
   11.7142   -5.7660  -55.0476 H   0  0  0  0  0  0  0  0  0  0  0  0
   10.7945   -3.6744  -54.0616 H   0  0  0  0  0  0  0  0  0  0  0  0
   10.3201   -1.5551  -52.0668 H   0  0  0  0  0  0  0  0  0  0  0  0
    9.3256   -3.1314  -50.4060 H   0  0  0  0  0  0  0  0  0  0  0  0
  1  2  2  0
  2  3  1  0
  3  4  2  0
  4  5  1  0
  5  6  2  0
  6  7  1  0
  7  8  2  0
  9  8  1  1
  9 10  1  0
 10 11  1  0
 11 12  1  0
 12 13  1  0
 13 14  1  0
 14 15  1  0
 15 16  1  0
 15 17  1  0
 13 18  1  0
  7 19  1  0
 19 20  1  0
 20 21  1  0
 21 22  2  0
 22 23  1  0
 23 24  2  0
 24 25  1  0
 25 26  2  0
  4 27  1  0
 27 28  2  0
 28  1  1  0
 20  5  1  0
 26 21  1  0
 17  9  1  0
 18  9  1  0
 16 11  1  0
  1 29  1  0
  2 30  1  0
  3 31  1  0
 10 32  1  0
 10 33  1  0
 11 34  1  6
 12 35  1  0
 12 36  1  0
 13 37  1  1
 14 38  1  0
 14 39  1  0
 15 40  1  6
 16 41  1  0
 16 42  1  0
 17 43  1  0
 17 44  1  0
 18 45  1  0
 18 46  1  0
 19 47  1  0
 22 48  1  0
 23 49  1  0
 24 50  1  0
 25 51  1  0
 26 52  1  0
 27 53  1  0
 28 54  1  0
M  END
>  <meeko>  (125) 
{"is_sidechain": false}

$$$$

     RDKit          3D

 51 56  0  0  0  0  0  0  0  0999 V2000
   12.0130   -4.6310  -55.6900 C   0  0  0  0  0  0  0  0  0  0  0  0
   11.5260   -4.0450  -54.5240 C   0  0  0  0  0  0  0  0  0  0  0  0
   11.0170   -2.7430  -54.5530 C   0  0  0  0  0  0  0  0  0  0  0  0
   10.9800   -2.0180  -55.7530 C   0  0  0  0  0  0  0  0  0  0  0  0
   10.4580   -0.6550  -55.8240 C   0  0  0  0  0  0  0  0  0  0  0  0
   11.0100    0.3480  -56.4840 N   0  0  0  0  0  0  0  0  0  0  0  0
   10.1740    1.4010  -56.2570 C   0  0  0  0  0  0  0  0  0  0  0  0
   10.5290    2.5670  -56.8100 N   0  0  0  0  0  0  0  0  0  0  0  0
    9.8600    3.1930  -57.9460 C   0  0  2  0  0  0  0  0  0  0  0  0
   10.7330    4.4030  -58.3900 C   0  0  0  0  0  0  0  0  0  0  0  0
   10.1040    5.1230  -59.5930 C   0  0  1  0  0  0  0  0  0  0  0  0
    9.9780    4.1340  -60.7630 C   0  0  0  0  0  0  0  0  0  0  0  0
    9.0990    2.9420  -60.3490 C   0  0  2  0  0  0  0  0  0  0  0  0
    7.7060    3.4560  -59.9470 C   0  0  0  0  0  0  0  0  0  0  0  0
    7.8220    4.4500  -58.7780 C   0  0  2  0  0  0  0  0  0  0  0  0
    8.7080    5.6300  -59.2030 C   0  0  0  0  0  0  0  0  0  0  0  0
    8.4620    3.7390  -57.5710 C   0  0  0  0  0  0  0  0  0  0  0  0
    9.7430    2.2270  -59.1470 C   0  0  0  0  0  0  0  0  0  0  0  0
    9.1050    1.1130  -55.5210 N   0  0  0  0  0  0  0  0  0  0  0  0
    9.2870   -0.1890  -55.2760 N   0  0  0  0  0  0  0  0  0  0  0  0
    8.2740   -0.9780  -54.5390 C   0  0  0  0  0  0  0  0  0  0  0  0
    7.0650   -0.3500  -53.8850 C   0  0  0  0  0  0  0  0  0  0  0  0
    8.1600   -0.9150  -53.0310 C   0  0  0  0  0  0  0  0  0  0  0  0
   11.4940   -2.6140  -56.9140 C   0  0  0  0  0  0  0  0  0  0  0  0
   12.0010   -3.9150  -56.8850 C   0  0  0  0  0  0  0  0  0  0  0  0
   12.4066   -5.6579  -55.6673 H   0  0  0  0  0  0  0  0  0  0  0  0
   11.5419   -4.6074  -53.5788 H   0  0  0  0  0  0  0  0  0  0  0  0
   10.6423   -2.2833  -53.6265 H   0  0  0  0  0  0  0  0  0  0  0  0
   11.5150    2.7800  -56.7120 H   0  0  0  0  0  0  0  0  0  0  0  0
   10.8199    5.1106  -57.5523 H   0  0  0  0  0  0  0  0  0  0  0  0
   11.7254    4.0304  -58.6839 H   0  0  0  0  0  0  0  0  0  0  0  0
   10.7359    5.9721  -59.8925 H   0  0  0  0  0  0  0  0  0  0  0  0
    9.5197    4.6435  -61.6234 H   0  0  0  0  0  0  0  0  0  0  0  0
   10.9785    3.7680  -61.0369 H   0  0  0  0  0  0  0  0  0  0  0  0
    9.0072    2.2397  -61.1906 H   0  0  0  0  0  0  0  0  0  0  0  0
    7.2426    3.9603  -60.8078 H   0  0  0  0  0  0  0  0  0  0  0  0
    7.0864    2.6033  -59.6323 H   0  0  0  0  0  0  0  0  0  0  0  0
    6.8231    4.8194  -58.5028 H   0  0  0  0  0  0  0  0  0  0  0  0
    8.2505    6.1374  -60.0651 H   0  0  0  0  0  0  0  0  0  0  0  0
    8.8005    6.3338  -58.3627 H   0  0  0  0  0  0  0  0  0  0  0  0
    8.5627    4.4537  -56.7409 H   0  0  0  0  0  0  0  0  0  0  0  0
    7.8195    2.8984  -57.2701 H   0  0  0  0  0  0  0  0  0  0  0  0
    9.1205    1.3664  -58.8609 H   0  0  0  0  0  0  0  0  0  0  0  0
   10.7497    1.8868  -59.4312 H   0  0  0  0  0  0  0  0  0  0  0  0
    8.4271   -1.7715  -55.2853 H   0  0  0  0  0  0  0  0  0  0  0  0
    6.9159    0.7386  -53.9374 H   0  0  0  0  0  0  0  0  0  0  0  0
    5.9780   -0.5037  -53.9546 H   0  0  0  0  0  0  0  0  0  0  0  0
    8.8136   -0.2406  -52.4583 H   0  0  0  0  0  0  0  0  0  0  0  0
    8.2074   -1.6534  -52.2171 H   0  0  0  0  0  0  0  0  0  0  0  0
   11.4978   -2.0501  -57.8585 H   0  0  0  0  0  0  0  0  0  0  0  0
   12.3907   -4.3742  -57.8054 H   0  0  0  0  0  0  0  0  0  0  0  0
  1  2  2  0
  2  3  1  0
  3  4  2  0
  4  5  1  0
  5  6  2  0
  6  7  1  0
  7  8  1  0
  9  8  1  1
  9 10  1  0
 10 11  1  0
 11 12  1  0
 12 13  1  0
 13 14  1  0
 14 15  1  0
 15 16  1  0
 15 17  1  0
 13 18  1  0
  7 19  2  0
 19 20  1  0
 20 21  1  0
 21 22  1  0
 22 23  1  0
  4 24  1  0
 24 25  2  0
 25  1  1  0
 20  5  1  0
 23 21  1  0
 17  9  1  0
 18  9  1  0
 16 11  1  0
  1 26  1  0
  2 27  1  0
  3 28  1  0
  8 29  1  0
 10 30  1  0
 10 31  1  0
 11 32  1  6
 12 33  1  0
 12 34  1  0
 13 35  1  6
 14 36  1  0
 14 37  1  0
 15 38  1  1
 16 39  1  0
 16 40  1  0
 17 41  1  0
 17 42  1  0
 18 43  1  0
 18 44  1  0
 21 45  1  0
 22 46  1  0
 22 47  1  0
 23 48  1  0
 23 49  1  0
 24 50  1  0
 25 51  1  0
M  END
>  <meeko>  (126) 
{"is_sidechain": false}

$$$$

     RDKit          3D

 51 56  0  0  0  0  0  0  0  0999 V2000
    3.8660    1.8580  -60.0910 C   0  0  0  0  0  0  0  0  0  0  0  0
    5.0030    1.1190  -60.4210 C   0  0  0  0  0  0  0  0  0  0  0  0
    6.1000    1.0990  -59.5580 C   0  0  0  0  0  0  0  0  0  0  0  0
    6.0540    1.8100  -58.3570 C   0  0  0  0  0  0  0  0  0  0  0  0
    7.1910    1.8270  -57.4160 C   0  0  0  0  0  0  0  0  0  0  0  0
    8.3420    2.3740  -57.7650 N   0  0  0  0  0  0  0  0  0  0  0  0
    9.1410    2.1990  -56.6520 C   0  0  0  0  0  0  0  0  0  0  0  0
   10.2950    2.7270  -56.4940 N   0  0  0  0  0  0  0  0  0  0  0  0
   10.9500    3.5520  -57.5130 C   0  0  2  0  0  0  0  0  0  0  0  0
   10.2110    4.8830  -57.7670 C   0  0  0  0  0  0  0  0  0  0  0  0
   10.8840    5.6540  -58.9170 C   0  0  1  0  0  0  0  0  0  0  0  0
   12.3580    5.9160  -58.5580 C   0  0  0  0  0  0  0  0  0  0  0  0
   13.1020    4.5850  -58.3510 C   0  0  2  0  0  0  0  0  0  0  0  0
   13.0170    3.7510  -59.6390 C   0  0  0  0  0  0  0  0  0  0  0  0
   11.5470    3.4780  -59.9900 C   0  0  2  0  0  0  0  0  0  0  0  0
   10.8170    4.8130  -60.2010 C   0  0  0  0  0  0  0  0  0  0  0  0
   10.8850    2.7210  -58.8260 C   0  0  0  0  0  0  0  0  0  0  0  0
   12.4400    3.8070  -57.1980 C   0  0  0  0  0  0  0  0  0  0  0  0
    8.5030    1.4430  -55.6910 N   0  0  0  0  0  0  0  0  0  0  0  0
    7.2040    1.3450  -56.1100 N   0  0  0  0  0  0  0  0  0  0  0  0
    6.2910    0.3460  -55.5660 C   0  0  0  0  0  0  0  0  0  0  0  0
    6.7870   -0.9180  -54.9160 C   0  0  0  0  0  0  0  0  0  0  0  0
    6.1080    0.1300  -54.0850 C   0  0  0  0  0  0  0  0  0  0  0  0
    4.9220    2.5700  -58.0380 C   0  0  0  0  0  0  0  0  0  0  0  0
    3.8270    2.5870  -58.9030 C   0  0  0  0  0  0  0  0  0  0  0  0
    2.9997    1.8654  -60.7688 H   0  0  0  0  0  0  0  0  0  0  0  0
    5.0348    0.5514  -61.3627 H   0  0  0  0  0  0  0  0  0  0  0  0
    6.9994    0.5240  -59.8236 H   0  0  0  0  0  0  0  0  0  0  0  0
    9.1649    4.6725  -58.0340 H   0  0  0  0  0  0  0  0  0  0  0  0
   10.2498    5.4949  -56.8537 H   0  0  0  0  0  0  0  0  0  0  0  0
   10.3646    6.6108  -59.0744 H   0  0  0  0  0  0  0  0  0  0  0  0
   12.8365    6.4759  -59.3750 H   0  0  0  0  0  0  0  0  0  0  0  0
   12.4011    6.4987  -57.6260 H   0  0  0  0  0  0  0  0  0  0  0  0
   14.1560    4.7839  -58.1071 H   0  0  0  0  0  0  0  0  0  0  0  0
   13.4920    4.3035  -60.4631 H   0  0  0  0  0  0  0  0  0  0  0  0
   13.5360    2.7934  -59.4849 H   0  0  0  0  0  0  0  0  0  0  0  0
   11.4911    2.8766  -60.9093 H   0  0  0  0  0  0  0  0  0  0  0  0
   11.2957    5.3645  -61.0236 H   0  0  0  0  0  0  0  0  0  0  0  0
    9.7640    4.6147  -60.4496 H   0  0  0  0  0  0  0  0  0  0  0  0
    9.8319    2.5256  -59.0765 H   0  0  0  0  0  0  0  0  0  0  0  0
   11.4254    1.7757  -58.6699 H   0  0  0  0  0  0  0  0  0  0  0  0
   12.9540    2.8432  -57.0678 H   0  0  0  0  0  0  0  0  0  0  0  0
   12.5152    4.4005  -56.2749 H   0  0  0  0  0  0  0  0  0  0  0  0
    8.6810    1.7900  -54.7560 H   0  0  0  0  0  0  0  0  0  0  0  0
    5.6198    0.5858  -56.4038 H   0  0  0  0  0  0  0  0  0  0  0  0
    6.2806   -1.8738  -55.1160 H   0  0  0  0  0  0  0  0  0  0  0  0
    7.7545   -1.4393  -54.8696 H   0  0  0  0  0  0  0  0  0  0  0  0
    5.1040   -0.0574  -53.6766 H   0  0  0  0  0  0  0  0  0  0  0  0
    6.3716    0.6947  -53.1786 H   0  0  0  0  0  0  0  0  0  0  0  0
    4.8959    3.1535  -57.1059 H   0  0  0  0  0  0  0  0  0  0  0  0
    2.9333    3.1754  -58.6477 H   0  0  0  0  0  0  0  0  0  0  0  0
  1  2  2  0
  2  3  1  0
  3  4  2  0
  4  5  1  0
  5  6  2  0
  6  7  1  0
  7  8  2  0
  9  8  1  1
  9 10  1  0
 10 11  1  0
 11 12  1  0
 12 13  1  0
 13 14  1  0
 14 15  1  0
 15 16  1  0
 15 17  1  0
 13 18  1  0
  7 19  1  0
 19 20  1  0
 20 21  1  0
 21 22  1  0
 22 23  1  0
  4 24  1  0
 24 25  2  0
 25  1  1  0
 20  5  1  0
 23 21  1  0
 17  9  1  0
 18  9  1  0
 16 11  1  0
  1 26  1  0
  2 27  1  0
  3 28  1  0
 10 29  1  0
 10 30  1  0
 11 31  1  6
 12 32  1  0
 12 33  1  0
 13 34  1  1
 14 35  1  0
 14 36  1  0
 15 37  1  6
 16 38  1  0
 16 39  1  0
 17 40  1  0
 17 41  1  0
 18 42  1  0
 18 43  1  0
 19 44  1  0
 21 45  1  0
 22 46  1  0
 22 47  1  0
 23 48  1  0
 23 49  1  0
 24 50  1  0
 25 51  1  0
M  END
>  <meeko>  (127) 
{"is_sidechain": false}

$$$$

     RDKit          3D

 51 56  0  0  0  0  0  0  0  0999 V2000
    7.5810   -3.5270  -50.8020 C   0  0  0  0  0  0  0  0  0  0  0  0
    6.6890   -3.0020  -51.7370 C   0  0  0  0  0  0  0  0  0  0  0  0
    7.1610   -2.1910  -52.7710 C   0  0  0  0  0  0  0  0  0  0  0  0
    8.5280   -1.9140  -52.8750 C   0  0  0  0  0  0  0  0  0  0  0  0
    9.0060   -1.0490  -53.9760 C   0  0  0  0  0  0  0  0  0  0  0  0
    8.4220    0.1020  -54.2440 N   0  0  0  0  0  0  0  0  0  0  0  0
    9.1470    0.6100  -55.3040 C   0  0  0  0  0  0  0  0  0  0  0  0
    8.8500    1.7860  -55.6910 N   0  0  0  0  0  0  0  0  0  0  0  0
    9.4950    2.4920  -56.7930 C   0  0  2  0  0  0  0  0  0  0  0  0
    9.3560    4.0050  -56.4670 C   0  0  0  0  0  0  0  0  0  0  0  0
   10.0210    4.8650  -57.5530 C   0  0  1  0  0  0  0  0  0  0  0  0
   11.5120    4.5000  -57.6400 C   0  0  0  0  0  0  0  0  0  0  0  0
   11.6690    3.0080  -57.9780 C   0  0  2  0  0  0  0  0  0  0  0  0
   10.9810    2.7190  -59.3250 C   0  0  0  0  0  0  0  0  0  0  0  0
    9.4880    3.0860  -59.2510 C   0  0  2  0  0  0  0  0  0  0  0  0
    9.3470    4.5760  -58.9040 C   0  0  0  0  0  0  0  0  0  0  0  0
    8.8140    2.2400  -58.1540 C   0  0  0  0  0  0  0  0  0  0  0  0
   11.0010    2.1660  -56.8750 C   0  0  0  0  0  0  0  0  0  0  0  0
   10.1090   -0.2870  -55.7200 N   0  0  0  0  0  0  0  0  0  0  0  0
   10.0890   -1.3350  -54.8190 N   0  0  0  0  0  0  0  0  0  0  0  0
   10.2010   -2.7070  -55.3670 C   0  0  0  0  0  0  0  0  0  0  0  0
   11.2630   -3.6860  -54.9360 C   0  0  0  0  0  0  0  0  0  0  0  0
   11.3060   -3.0930  -56.3140 C   0  0  0  0  0  0  0  0  0  0  0  0
    9.4180   -2.4260  -51.9260 C   0  0  0  0  0  0  0  0  0  0  0  0
    8.9430   -3.2370  -50.8920 C   0  0  0  0  0  0  0  0  0  0  0  0
    7.2098   -4.1714  -49.9915 H   0  0  0  0  0  0  0  0  0  0  0  0
    5.6149   -3.2266  -51.6599 H   0  0  0  0  0  0  0  0  0  0  0  0
    6.4574   -1.7697  -53.5041 H   0  0  0  0  0  0  0  0  0  0  0  0
    8.2885    4.2635  -56.4068 H   0  0  0  0  0  0  0  0  0  0  0  0
    9.8552    4.2043  -55.5073 H   0  0  0  0  0  0  0  0  0  0  0  0
    9.9143    5.9314  -57.3054 H   0  0  0  0  0  0  0  0  0  0  0  0
   11.9897    5.1038  -58.4257 H   0  0  0  0  0  0  0  0  0  0  0  0
   11.9908    4.7031  -56.6707 H   0  0  0  0  0  0  0  0  0  0  0  0
   12.7367    2.7518  -58.0446 H   0  0  0  0  0  0  0  0  0  0  0  0
   11.4627    3.3152  -60.1140 H   0  0  0  0  0  0  0  0  0  0  0  0
   11.0754    1.6470  -59.5526 H   0  0  0  0  0  0  0  0  0  0  0  0
    9.0078    2.8874  -60.2205 H   0  0  0  0  0  0  0  0  0  0  0  0
    9.8274    5.1800  -59.6878 H   0  0  0  0  0  0  0  0  0  0  0  0
    8.2794    4.8329  -58.8383 H   0  0  0  0  0  0  0  0  0  0  0  0
    7.7511    2.5148  -58.0849 H   0  0  0  0  0  0  0  0  0  0  0  0
    8.9106    1.1750  -58.4119 H   0  0  0  0  0  0  0  0  0  0  0  0
   11.1294    1.0981  -57.1053 H   0  0  0  0  0  0  0  0  0  0  0  0
   11.4720    2.4016  -55.9093 H   0  0  0  0  0  0  0  0  0  0  0  0
   11.0120    0.1250  -55.9020 H   0  0  0  0  0  0  0  0  0  0  0  0
    9.1013   -2.7232  -55.3886 H   0  0  0  0  0  0  0  0  0  0  0  0
   12.0119   -3.3902  -54.1865 H   0  0  0  0  0  0  0  0  0  0  0  0
   11.2592   -4.7080  -54.5292 H   0  0  0  0  0  0  0  0  0  0  0  0
   12.0868   -2.3631  -56.5740 H   0  0  0  0  0  0  0  0  0  0  0  0
   11.3471   -3.5015  -57.3345 H   0  0  0  0  0  0  0  0  0  0  0  0
   10.4904   -2.1908  -51.9933 H   0  0  0  0  0  0  0  0  0  0  0  0
    9.6428   -3.6469  -50.1489 H   0  0  0  0  0  0  0  0  0  0  0  0
  1  2  2  0
  2  3  1  0
  3  4  2  0
  4  5  1  0
  5  6  2  0
  6  7  1  0
  7  8  2  0
  9  8  1  1
  9 10  1  0
 10 11  1  0
 11 12  1  0
 12 13  1  0
 13 14  1  0
 14 15  1  0
 15 16  1  0
 15 17  1  0
 13 18  1  0
  7 19  1  0
 19 20  1  0
 20 21  1  0
 21 22  1  0
 22 23  1  0
  4 24  1  0
 24 25  2  0
 25  1  1  0
 20  5  1  0
 23 21  1  0
 17  9  1  0
 18  9  1  0
 16 11  1  0
  1 26  1  0
  2 27  1  0
  3 28  1  0
 10 29  1  0
 10 30  1  0
 11 31  1  1
 12 32  1  0
 12 33  1  0
 13 34  1  6
 14 35  1  0
 14 36  1  0
 15 37  1  6
 16 38  1  0
 16 39  1  0
 17 40  1  0
 17 41  1  0
 18 42  1  0
 18 43  1  0
 19 44  1  0
 21 45  1  0
 22 46  1  0
 22 47  1  0
 23 48  1  0
 23 49  1  0
 24 50  1  0
 25 51  1  0
M  END
>  <meeko>  (128) 
{"is_sidechain": false}

$$$$

     RDKit          3D

 57 61  0  0  0  0  0  0  0  0999 V2000
   11.9340   -3.6830  -58.0090 C   0  0  0  0  0  0  0  0  0  0  0  0
   11.3560   -3.5460  -56.6230 C   0  0  0  0  0  0  0  0  0  0  0  0
   10.8140   -4.8300  -56.0560 C   0  0  0  0  0  0  0  0  0  0  0  0
   11.3460   -2.3500  -56.0020 C   0  0  0  0  0  0  0  0  0  0  0  0
   10.8110   -2.0030  -54.6400 C   0  0  0  0  0  0  0  0  0  0  0  0
    9.6880   -1.0830  -54.7230 N   0  0  0  0  0  0  0  0  0  0  0  0
    9.7010   -0.0800  -55.6220 N   0  0  0  0  0  0  0  0  0  0  0  0
    8.5060    0.4720  -55.4350 C   0  0  0  0  0  0  0  0  0  0  0  0
    7.9510    1.5190  -56.0590 N   0  0  0  0  0  0  0  0  0  0  0  0
    8.6830    2.5070  -56.8420 C   0  0  2  0  0  0  0  0  0  0  0  0
    9.8710    3.1100  -56.0560 C   0  0  0  0  0  0  0  0  0  0  0  0
   10.5740    4.1960  -56.8930 C   0  0  1  0  0  0  0  0  0  0  0  0
   11.0730    3.5770  -58.2090 C   0  0  0  0  0  0  0  0  0  0  0  0
    9.8880    3.0110  -59.0130 C   0  0  2  0  0  0  0  0  0  0  0  0
    8.8940    4.1440  -59.3130 C   0  0  0  0  0  0  0  0  0  0  0  0
    8.3870    4.7580  -58.0000 C   0  0  2  0  0  0  0  0  0  0  0  0
    9.5760    5.3210  -57.2070 C   0  0  0  0  0  0  0  0  0  0  0  0
    7.6970    3.6660  -57.1660 C   0  0  0  0  0  0  0  0  0  0  0  0
    9.1840    1.9230  -58.1840 C   0  0  0  0  0  0  0  0  0  0  0  0
    7.7430   -0.1350  -54.4810 N   0  0  0  0  0  0  0  0  0  0  0  0
    8.5100   -1.1030  -54.0200 C   0  0  0  0  0  0  0  0  0  0  0  0
    8.1550   -2.0640  -52.9850 C   0  0  0  0  0  0  0  0  0  0  0  0
    8.1530   -1.6960  -51.6330 C   0  0  0  0  0  0  0  0  0  0  0  0
    7.8200   -2.6300  -50.6500 C   0  0  0  0  0  0  0  0  0  0  0  0
    7.4810   -3.9330  -51.0120 C   0  0  0  0  0  0  0  0  0  0  0  0
    7.4650   -4.3020  -52.3560 C   0  0  0  0  0  0  0  0  0  0  0  0
    7.7960   -3.3690  -53.3400 C   0  0  0  0  0  0  0  0  0  0  0  0
   13.0021   -3.9362  -57.9375 H   0  0  0  0  0  0  0  0  0  0  0  0
   11.4036   -4.4803  -58.5503 H   0  0  0  0  0  0  0  0  0  0  0  0
   11.8179   -2.7325  -58.5503 H   0  0  0  0  0  0  0  0  0  0  0  0
   10.8339   -4.7828  -54.9572 H   0  0  0  0  0  0  0  0  0  0  0  0
    9.7785   -4.9736  -56.3981 H   0  0  0  0  0  0  0  0  0  0  0  0
   11.4334   -5.6722  -56.3981 H   0  0  0  0  0  0  0  0  0  0  0  0
   11.7883   -1.5161  -56.5668 H   0  0  0  0  0  0  0  0  0  0  0  0
   10.4800   -2.9258  -54.1410 H   0  0  0  0  0  0  0  0  0  0  0  0
   11.6144   -1.5137  -54.0698 H   0  0  0  0  0  0  0  0  0  0  0  0
    6.9990    1.3430  -56.3600 H   0  0  0  0  0  0  0  0  0  0  0  0
    9.4983    3.5567  -55.1224 H   0  0  0  0  0  0  0  0  0  0  0  0
   10.5923    2.3105  -55.8313 H   0  0  0  0  0  0  0  0  0  0  0  0
   11.4256    4.6049  -56.3294 H   0  0  0  0  0  0  0  0  0  0  0  0
   11.5803    4.3501  -58.8049 H   0  0  0  0  0  0  0  0  0  0  0  0
   11.7734    2.7606  -57.9789 H   0  0  0  0  0  0  0  0  0  0  0  0
   10.2527    2.5779  -59.9561 H   0  0  0  0  0  0  0  0  0  0  0  0
    9.3957    4.9208  -59.9087 H   0  0  0  0  0  0  0  0  0  0  0  0
    8.0405    3.7367  -59.8748 H   0  0  0  0  0  0  0  0  0  0  0  0
    7.6745    5.5663  -58.2213 H   0  0  0  0  0  0  0  0  0  0  0  0
   10.0774    6.0976  -57.8033 H   0  0  0  0  0  0  0  0  0  0  0  0
    9.2103    5.7546  -56.2645 H   0  0  0  0  0  0  0  0  0  0  0  0
    7.3368    4.1060  -56.2244 H   0  0  0  0  0  0  0  0  0  0  0  0
    6.8562    3.2593  -57.7471 H   0  0  0  0  0  0  0  0  0  0  0  0
    8.3267    1.5326  -58.7519 H   0  0  0  0  0  0  0  0  0  0  0  0
    9.8997    1.1140  -57.9760 H   0  0  0  0  0  0  0  0  0  0  0  0
    8.4148   -0.6672  -51.3449 H   0  0  0  0  0  0  0  0  0  0  0  0
    7.8251   -2.3377  -49.5896 H   0  0  0  0  0  0  0  0  0  0  0  0
    7.2260   -4.6703  -50.2365 H   0  0  0  0  0  0  0  0  0  0  0  0
    7.1915   -5.3286  -52.6412 H   0  0  0  0  0  0  0  0  0  0  0  0
    7.7745   -3.6612  -54.4003 H   0  0  0  0  0  0  0  0  0  0  0  0
  1  2  1  0
  2  3  1  0
  2  4  2  3
  4  5  1  0
  5  6  1  0
  6  7  1  0
  7  8  2  0
  8  9  1  0
 10  9  1  1
 10 11  1  0
 11 12  1  0
 12 13  1  0
 13 14  1  0
 14 15  1  0
 15 16  1  0
 16 17  1  0
 16 18  1  0
 14 19  1  0
  8 20  1  0
 20 21  2  0
 21 22  1  0
 22 23  2  0
 23 24  1  0
 24 25  2  0
 25 26  1  0
 26 27  2  0
 21  6  1  0
 27 22  1  0
 18 10  1  0
 19 10  1  0
 17 12  1  0
  1 28  1  0
  1 29  1  0
  1 30  1  0
  3 31  1  0
  3 32  1  0
  3 33  1  0
  4 34  1  0
  5 35  1  0
  5 36  1  0
  9 37  1  0
 11 38  1  0
 11 39  1  0
 12 40  1  1
 13 41  1  0
 13 42  1  0
 14 43  1  6
 15 44  1  0
 15 45  1  0
 16 46  1  6
 17 47  1  0
 17 48  1  0
 18 49  1  0
 18 50  1  0
 19 51  1  0
 19 52  1  0
 23 53  1  0
 24 54  1  0
 25 55  1  0
 26 56  1  0
 27 57  1  0
M  END
>  <meeko>  (129) 
{"is_sidechain": false}

$$$$

     RDKit          3D

 57 61  0  0  0  0  0  0  0  0999 V2000
    6.1940   -4.2930  -50.8670 C   0  0  0  0  0  0  0  0  0  0  0  0
    7.0310   -3.0430  -50.9470 C   0  0  0  0  0  0  0  0  0  0  0  0
    7.8780   -2.7880  -49.7320 C   0  0  0  0  0  0  0  0  0  0  0  0
    7.0040   -2.2680  -52.0500 C   0  0  0  0  0  0  0  0  0  0  0  0
    7.7470   -0.9860  -52.3110 C   0  0  0  0  0  0  0  0  0  0  0  0
    8.9380   -1.2210  -53.1310 N   0  0  0  0  0  0  0  0  0  0  0  0
    9.6090   -2.4230  -52.9350 N   0  0  0  0  0  0  0  0  0  0  0  0
   10.1160   -2.7880  -54.1640 C   0  0  0  0  0  0  0  0  0  0  0  0
   10.9680   -3.7270  -54.3350 N   0  0  0  0  0  0  0  0  0  0  0  0
   11.5160   -4.0850  -55.6450 C   0  0  2  0  0  0  0  0  0  0  0  0
   10.4760   -4.7710  -56.5570 C   0  0  0  0  0  0  0  0  0  0  0  0
   11.1360   -5.2190  -57.8750 C   0  0  1  0  0  0  0  0  0  0  0  0
   11.7440   -3.9920  -58.5780 C   0  0  0  0  0  0  0  0  0  0  0  0
   12.8130   -3.3390  -57.6840 C   0  0  2  0  0  0  0  0  0  0  0  0
   13.9150   -4.3650  -57.3780 C   0  0  0  0  0  0  0  0  0  0  0  0
   13.3100   -5.5830  -56.6610 C   0  0  2  0  0  0  0  0  0  0  0  0
   12.2500   -6.2300  -57.5660 C   0  0  0  0  0  0  0  0  0  0  0  0
   12.6420   -5.1190  -55.3570 C   0  0  0  0  0  0  0  0  0  0  0  0
   12.1620   -2.8820  -56.3660 C   0  0  0  0  0  0  0  0  0  0  0  0
    9.6440   -1.9630  -55.1610 N   0  0  0  0  0  0  0  0  0  0  0  0
    8.9610   -1.0360  -54.5180 C   0  0  0  0  0  0  0  0  0  0  0  0
    8.3060    0.0710  -55.2460 C   0  0  0  0  0  0  0  0  0  0  0  0
    6.9150    0.1110  -55.3880 C   0  0  0  0  0  0  0  0  0  0  0  0
    6.3180    1.1680  -56.0760 C   0  0  0  0  0  0  0  0  0  0  0  0
    7.1070    2.1860  -56.6130 C   0  0  0  0  0  0  0  0  0  0  0  0
    8.4930    2.1580  -56.4540 C   0  0  0  0  0  0  0  0  0  0  0  0
    9.0930    1.1040  -55.7650 C   0  0  0  0  0  0  0  0  0  0  0  0
    6.0209   -4.5515  -49.8119 H   0  0  0  0  0  0  0  0  0  0  0  0
    5.2287   -4.1204  -51.3653 H   0  0  0  0  0  0  0  0  0  0  0  0
    6.7212   -5.1198  -51.3653 H   0  0  0  0  0  0  0  0  0  0  0  0
    7.2818   -2.9675  -48.8252 H   0  0  0  0  0  0  0  0  0  0  0  0
    8.7450   -3.4649  -49.7408 H   0  0  0  0  0  0  0  0  0  0  0  0
    8.2271   -1.7449  -49.7408 H   0  0  0  0  0  0  0  0  0  0  0  0
    6.3541   -2.6187  -52.8652 H   0  0  0  0  0  0  0  0  0  0  0  0
    7.0813   -0.2864  -52.8376 H   0  0  0  0  0  0  0  0  0  0  0  0
    8.0662   -0.5659  -51.3458 H   0  0  0  0  0  0  0  0  0  0  0  0
   10.3000   -2.4880  -52.1980 H   0  0  0  0  0  0  0  0  0  0  0  0
   10.0635   -5.6501  -56.0402 H   0  0  0  0  0  0  0  0  0  0  0  0
    9.6712   -4.0563  -56.7839 H   0  0  0  0  0  0  0  0  0  0  0  0
   10.3836   -5.6862  -58.5274 H   0  0  0  0  0  0  0  0  0  0  0  0
   12.2065   -4.3084  -59.5246 H   0  0  0  0  0  0  0  0  0  0  0  0
   10.9463   -3.2604  -58.7742 H   0  0  0  0  0  0  0  0  0  0  0  0
   13.2495   -2.4719  -58.2013 H   0  0  0  0  0  0  0  0  0  0  0  0
   14.3821   -4.6905  -58.3192 H   0  0  0  0  0  0  0  0  0  0  0  0
   14.6721   -3.9011  -56.7287 H   0  0  0  0  0  0  0  0  0  0  0  0
   14.1022   -6.3125  -56.4368 H   0  0  0  0  0  0  0  0  0  0  0  0
   12.7212   -6.5518  -58.5065 H   0  0  0  0  0  0  0  0  0  0  0  0
   11.8161   -7.0991  -57.0499 H   0  0  0  0  0  0  0  0  0  0  0  0
   12.2078   -5.9906  -54.8453 H   0  0  0  0  0  0  0  0  0  0  0  0
   13.4037   -4.6405  -54.7239 H   0  0  0  0  0  0  0  0  0  0  0  0
   12.9305   -2.4386  -55.7158 H   0  0  0  0  0  0  0  0  0  0  0  0
   11.3838   -2.1374  -56.5894 H   0  0  0  0  0  0  0  0  0  0  0  0
    6.2935   -0.6886  -54.9585 H   0  0  0  0  0  0  0  0  0  0  0  0
    5.2249    1.1988  -56.1951 H   0  0  0  0  0  0  0  0  0  0  0  0
    6.6349    3.0131  -57.1634 H   0  0  0  0  0  0  0  0  0  0  0  0
    9.1116    2.9661  -56.8715 H   0  0  0  0  0  0  0  0  0  0  0  0
   10.1845    1.0853  -55.6300 H   0  0  0  0  0  0  0  0  0  0  0  0
  1  2  1  0
  2  3  1  0
  2  4  2  3
  4  5  1  0
  5  6  1  0
  6  7  1  0
  7  8  1  0
  8  9  2  0
 10  9  1  1
 10 11  1  0
 11 12  1  0
 12 13  1  0
 13 14  1  0
 14 15  1  0
 15 16  1  0
 16 17  1  0
 16 18  1  0
 14 19  1  0
  8 20  1  0
 20 21  2  0
 21 22  1  0
 22 23  2  0
 23 24  1  0
 24 25  2  0
 25 26  1  0
 26 27  2  0
 21  6  1  0
 27 22  1  0
 18 10  1  0
 19 10  1  0
 17 12  1  0
  1 28  1  0
  1 29  1  0
  1 30  1  0
  3 31  1  0
  3 32  1  0
  3 33  1  0
  4 34  1  0
  5 35  1  0
  5 36  1  0
  7 37  1  0
 11 38  1  0
 11 39  1  0
 12 40  1  6
 13 41  1  0
 13 42  1  0
 14 43  1  6
 15 44  1  0
 15 45  1  0
 16 46  1  1
 17 47  1  0
 17 48  1  0
 18 49  1  0
 18 50  1  0
 19 51  1  0
 19 52  1  0
 23 53  1  0
 24 54  1  0
 25 55  1  0
 26 56  1  0
 27 57  1  0
M  END
>  <meeko>  (130) 
{"is_sidechain": false}

$$$$

     RDKit          3D

 57 61  0  0  0  0  0  0  0  0999 V2000
   10.7380   -4.4920  -55.9920 C   0  0  0  0  0  0  0  0  0  0  0  0
   11.4160   -3.5160  -56.9140 C   0  0  0  0  0  0  0  0  0  0  0  0
   11.8110   -4.0960  -58.2470 C   0  0  0  0  0  0  0  0  0  0  0  0
   11.6830   -2.2280  -56.6160 C   0  0  0  0  0  0  0  0  0  0  0  0
   11.3450   -1.4730  -55.3560 C   0  0  0  0  0  0  0  0  0  0  0  0
   10.0460   -0.8210  -55.5430 N   0  0  0  0  0  0  0  0  0  0  0  0
   10.0610    0.3100  -56.3590 N   0  0  0  0  0  0  0  0  0  0  0  0
    9.2370    1.2450  -55.7700 C   0  0  0  0  0  0  0  0  0  0  0  0
    8.8100    2.3790  -56.1600 N   0  0  0  0  0  0  0  0  0  0  0  0
    9.1730    3.0100  -57.4270 C   0  0  2  0  0  0  0  0  0  0  0  0
    8.6630    4.4740  -57.3330 C   0  0  0  0  0  0  0  0  0  0  0  0
    8.9680    5.2460  -58.6260 C   0  0  1  0  0  0  0  0  0  0  0  0
   10.4870    5.2560  -58.8590 C   0  0  0  0  0  0  0  0  0  0  0  0
   11.0090    3.8140  -58.9690 C   0  0  2  0  0  0  0  0  0  0  0  0
   10.3060    3.1080  -60.1420 C   0  0  0  0  0  0  0  0  0  0  0  0
    8.7840    3.0970  -59.9230 C   0  0  2  0  0  0  0  0  0  0  0  0
    8.2780    4.5440  -59.8070 C   0  0  0  0  0  0  0  0  0  0  0  0
    8.4610    2.3410  -58.6210 C   0  0  0  0  0  0  0  0  0  0  0  0
   10.6970    3.0580  -57.6640 C   0  0  0  0  0  0  0  0  0  0  0  0
    8.7970    0.7970  -54.5390 N   0  0  0  0  0  0  0  0  0  0  0  0
    9.2800   -0.4240  -54.4390 C   0  0  0  0  0  0  0  0  0  0  0  0
    8.9960   -1.2650  -53.2560 C   0  0  0  0  0  0  0  0  0  0  0  0
    9.9200   -2.2220  -52.8220 C   0  0  0  0  0  0  0  0  0  0  0  0
    9.6320   -3.0110  -51.7070 C   0  0  0  0  0  0  0  0  0  0  0  0
    8.4200   -2.8520  -51.0320 C   0  0  0  0  0  0  0  0  0  0  0  0
    7.4900   -1.9110  -51.4760 C   0  0  0  0  0  0  0  0  0  0  0  0
    7.7740   -1.1220  -52.5910 C   0  0  0  0  0  0  0  0  0  0  0  0
   10.9354   -4.2078  -54.9478 H   0  0  0  0  0  0  0  0  0  0  0  0
    9.6537   -4.4786  -56.1769 H   0  0  0  0  0  0  0  0  0  0  0  0
   11.1290   -5.5034  -56.1769 H   0  0  0  0  0  0  0  0  0  0  0  0
   12.4237   -4.9957  -58.0884 H   0  0  0  0  0  0  0  0  0  0  0  0
   10.9065   -4.3635  -58.8130 H   0  0  0  0  0  0  0  0  0  0  0  0
   12.3912   -3.3524  -58.8130 H   0  0  0  0  0  0  0  0  0  0  0  0
   12.2148   -1.6561  -57.3906 H   0  0  0  0  0  0  0  0  0  0  0  0
   11.2918   -2.1709  -54.5074 H   0  0  0  0  0  0  0  0  0  0  0  0
   12.1194   -0.7204  -55.1466 H   0  0  0  0  0  0  0  0  0  0  0  0
    9.9030    0.1570  -57.3470 H   0  0  0  0  0  0  0  0  0  0  0  0
    7.5757    4.4664  -57.1662 H   0  0  0  0  0  0  0  0  0  0  0  0
    9.1769    4.9718  -56.4975 H   0  0  0  0  0  0  0  0  0  0  0  0
    8.5982    6.2785  -58.5412 H   0  0  0  0  0  0  0  0  0  0  0  0
   10.7095    5.7965  -59.7908 H   0  0  0  0  0  0  0  0  0  0  0  0
   10.9800    5.7560  -58.0123 H   0  0  0  0  0  0  0  0  0  0  0  0
   12.0956    3.8268  -59.1395 H   0  0  0  0  0  0  0  0  0  0  0  0
   10.5344    3.6418  -61.0763 H   0  0  0  0  0  0  0  0  0  0  0  0
   10.6663    2.0705  -60.2031 H   0  0  0  0  0  0  0  0  0  0  0  0
    8.2926    2.5985  -60.7715 H   0  0  0  0  0  0  0  0  0  0  0  0
    8.5056    5.0857  -60.7369 H   0  0  0  0  0  0  0  0  0  0  0  0
    7.1910    4.5354  -59.6385 H   0  0  0  0  0  0  0  0  0  0  0  0
    7.3743    2.3568  -58.4515 H   0  0  0  0  0  0  0  0  0  0  0  0
    8.8113    1.3023  -58.7122 H   0  0  0  0  0  0  0  0  0  0  0  0
   11.0858    2.0316  -57.7369 H   0  0  0  0  0  0  0  0  0  0  0  0
   11.1746    3.5818  -56.8229 H   0  0  0  0  0  0  0  0  0  0  0  0
   10.8715   -2.3523  -53.3584 H   0  0  0  0  0  0  0  0  0  0  0  0
   10.3604   -3.7586  -51.3598 H   0  0  0  0  0  0  0  0  0  0  0  0
    8.1980   -3.4693  -50.1491 H   0  0  0  0  0  0  0  0  0  0  0  0
    6.5331   -1.7914  -50.9469 H   0  0  0  0  0  0  0  0  0  0  0  0
    7.0367   -0.3874  -52.9471 H   0  0  0  0  0  0  0  0  0  0  0  0
  1  2  1  0
  2  3  1  0
  2  4  2  3
  4  5  1  0
  5  6  1  0
  6  7  1  0
  7  8  1  0
  8  9  2  0
 10  9  1  1
 10 11  1  0
 11 12  1  0
 12 13  1  0
 13 14  1  0
 14 15  1  0
 15 16  1  0
 16 17  1  0
 16 18  1  0
 14 19  1  0
  8 20  1  0
 20 21  2  0
 21 22  1  0
 22 23  2  0
 23 24  1  0
 24 25  2  0
 25 26  1  0
 26 27  2  0
 21  6  1  0
 27 22  1  0
 18 10  1  0
 19 10  1  0
 17 12  1  0
  1 28  1  0
  1 29  1  0
  1 30  1  0
  3 31  1  0
  3 32  1  0
  3 33  1  0
  4 34  1  0
  5 35  1  0
  5 36  1  0
  7 37  1  0
 11 38  1  0
 11 39  1  0
 12 40  1  1
 13 41  1  0
 13 42  1  0
 14 43  1  6
 15 44  1  0
 15 45  1  0
 16 46  1  6
 17 47  1  0
 17 48  1  0
 18 49  1  0
 18 50  1  0
 19 51  1  0
 19 52  1  0
 23 53  1  0
 24 54  1  0
 25 55  1  0
 26 56  1  0
 27 57  1  0
M  END
>  <meeko>  (131) 
{"is_sidechain": false}

$$$$

     RDKit          3D

 47 51  0  0  0  0  0  0  0  0999 V2000
   10.9910   -0.6240  -55.7260 C   0  0  0  0  0  0  0  0  0  0  0  0
    9.7720    0.1390  -55.6560 N   0  0  0  0  0  0  0  0  0  0  0  0
    9.4970    1.3060  -56.3300 C   0  0  0  0  0  0  0  0  0  0  0  0
   10.4220    1.9350  -57.0970 N   0  0  0  0  0  0  0  0  0  0  0  0
   10.0530    2.9270  -58.1130 C   0  0  2  0  0  0  0  0  0  0  0  0
    9.5240    4.2380  -57.4840 C   0  0  0  0  0  0  0  0  0  0  0  0
    9.2120    5.2720  -58.5810 C   0  0  1  0  0  0  0  0  0  0  0  0
   10.4970    5.5910  -59.3600 C   0  0  0  0  0  0  0  0  0  0  0  0
   11.0450    4.3120  -60.0100 C   0  0  2  0  0  0  0  0  0  0  0  0
    9.9940    3.7370  -60.9720 C   0  0  0  0  0  0  0  0  0  0  0  0
    8.7040    3.4060  -60.2040 C   0  0  2  0  0  0  0  0  0  0  0  0
    8.1640    4.6870  -59.5440 C   0  0  0  0  0  0  0  0  0  0  0  0
    9.0140    2.3660  -59.1130 C   0  0  0  0  0  0  0  0  0  0  0  0
   11.3410    3.2770  -58.9130 C   0  0  0  0  0  0  0  0  0  0  0  0
    8.2520    1.6410  -56.0790 N   0  0  0  0  0  0  0  0  0  0  0  0
    7.7090    0.7100  -55.2310 N   0  0  0  0  0  0  0  0  0  0  0  0
    8.6410   -0.1750  -54.9330 C   0  0  0  0  0  0  0  0  0  0  0  0
    8.4730   -1.3060  -54.0260 C   0  0  0  0  0  0  0  0  0  0  0  0
    8.1960   -1.0690  -52.6730 C   0  0  0  0  0  0  0  0  0  0  0  0
    8.0320   -2.1330  -51.7830 C   0  0  0  0  0  0  0  0  0  0  0  0
    8.1560   -3.4440  -52.2360 C   0  0  0  0  0  0  0  0  0  0  0  0
    8.4530   -3.6940  -53.5750 C   0  0  0  0  0  0  0  0  0  0  0  0
    8.6160   -2.6290  -54.4660 C   0  0  0  0  0  0  0  0  0  0  0  0
   11.3442   -0.8451  -54.7080 H   0  0  0  0  0  0  0  0  0  0  0  0
   10.8035   -1.5662  -56.2618 H   0  0  0  0  0  0  0  0  0  0  0  0
   11.7566   -0.0436  -56.2618 H   0  0  0  0  0  0  0  0  0  0  0  0
   11.3300    1.5110  -57.2430 H   0  0  0  0  0  0  0  0  0  0  0  0
    8.6063    4.0233  -56.9168 H   0  0  0  0  0  0  0  0  0  0  0  0
   10.2945    4.6490  -56.8151 H   0  0  0  0  0  0  0  0  0  0  0  0
    8.8215    6.1926  -58.1226 H   0  0  0  0  0  0  0  0  0  0  0  0
   10.2749    6.3315  -60.1425 H   0  0  0  0  0  0  0  0  0  0  0  0
   11.2493    5.9964  -58.6674 H   0  0  0  0  0  0  0  0  0  0  0  0
   11.9659    4.5452  -60.5646 H   0  0  0  0  0  0  0  0  0  0  0  0
    9.7723    4.4777  -61.7544 H   0  0  0  0  0  0  0  0  0  0  0  0
   10.3879    2.8176  -61.4297 H   0  0  0  0  0  0  0  0  0  0  0  0
    7.9534    3.0012  -60.8988 H   0  0  0  0  0  0  0  0  0  0  0  0
    7.9336    5.4279  -60.3237 H   0  0  0  0  0  0  0  0  0  0  0  0
    7.2536    4.4420  -58.9774 H   0  0  0  0  0  0  0  0  0  0  0  0
    8.0877    2.1197  -58.5733 H   0  0  0  0  0  0  0  0  0  0  0  0
    9.4264    1.4632  -59.5873 H   0  0  0  0  0  0  0  0  0  0  0  0
   11.7346    2.3617  -59.3791 H   0  0  0  0  0  0  0  0  0  0  0  0
   12.0791    3.7045  -58.2184 H   0  0  0  0  0  0  0  0  0  0  0  0
    8.1068   -0.0351  -52.3082 H   0  0  0  0  0  0  0  0  0  0  0  0
    7.8050   -1.9355  -50.7249 H   0  0  0  0  0  0  0  0  0  0  0  0
    8.0196   -4.2825  -51.5372 H   0  0  0  0  0  0  0  0  0  0  0  0
    8.5591   -4.7295  -53.9306 H   0  0  0  0  0  0  0  0  0  0  0  0
    8.8582   -2.8309  -55.5198 H   0  0  0  0  0  0  0  0  0  0  0  0
  1  2  1  0
  2  3  1  0
  3  4  1  0
  5  4  1  1
  5  6  1  0
  6  7  1  0
  7  8  1  0
  8  9  1  0
  9 10  1  0
 10 11  1  0
 11 12  1  0
 11 13  1  0
  9 14  1  0
  3 15  2  0
 15 16  1  0
 16 17  2  0
 17 18  1  0
 18 19  2  0
 19 20  1  0
 20 21  2  0
 21 22  1  0
 22 23  2  0
 17  2  1  0
 23 18  1  0
 13  5  1  0
 14  5  1  0
 12  7  1  0
  1 24  1  0
  1 25  1  0
  1 26  1  0
  4 27  1  0
  6 28  1  0
  6 29  1  0
  7 30  1  1
  8 31  1  0
  8 32  1  0
  9 33  1  6
 10 34  1  0
 10 35  1  0
 11 36  1  6
 12 37  1  0
 12 38  1  0
 13 39  1  0
 13 40  1  0
 14 41  1  0
 14 42  1  0
 19 43  1  0
 20 44  1  0
 21 45  1  0
 22 46  1  0
 23 47  1  0
M  END
>  <meeko>  (132) 
{"is_sidechain": false}

$$$$

     RDKit          3D

 47 51  0  0  0  0  0  0  0  0999 V2000
    5.9700    0.2770  -55.0880 C   0  0  0  0  0  0  0  0  0  0  0  0
    7.3980    0.3140  -55.2700 N   0  0  0  0  0  0  0  0  0  0  0  0
    8.3480   -0.4260  -54.5840 C   0  0  0  0  0  0  0  0  0  0  0  0
    8.1060   -1.5270  -53.6330 C   0  0  0  0  0  0  0  0  0  0  0  0
    7.9350   -1.2230  -52.2780 C   0  0  0  0  0  0  0  0  0  0  0  0
    7.7100   -2.2480  -51.3580 C   0  0  0  0  0  0  0  0  0  0  0  0
    7.6690   -3.5740  -51.7870 C   0  0  0  0  0  0  0  0  0  0  0  0
    7.8610   -3.8800  -53.1340 C   0  0  0  0  0  0  0  0  0  0  0  0
    8.0850   -2.8580  -54.0600 C   0  0  0  0  0  0  0  0  0  0  0  0
    9.5730   -0.0200  -54.8800 N   0  0  0  0  0  0  0  0  0  0  0  0
    9.3510    0.9880  -55.8030 N   0  0  0  0  0  0  0  0  0  0  0  0
    8.0190    1.2430  -56.0940 C   0  0  0  0  0  0  0  0  0  0  0  0
    7.4340    2.0690  -56.8680 N   0  0  0  0  0  0  0  0  0  0  0  0
    8.1290    3.0340  -57.7170 C   0  0  2  0  0  0  0  0  0  0  0  0
    7.0760    3.5360  -58.7430 C   0  0  0  0  0  0  0  0  0  0  0  0
    7.6930    4.5670  -59.7030 C   0  0  1  0  0  0  0  0  0  0  0  0
    8.2160    5.7610  -58.8890 C   0  0  0  0  0  0  0  0  0  0  0  0
    9.2700    5.2850  -57.8760 C   0  0  2  0  0  0  0  0  0  0  0  0
   10.4340    4.6170  -58.6310 C   0  0  0  0  0  0  0  0  0  0  0  0
    9.9220    3.4230  -59.4560 C   0  0  2  0  0  0  0  0  0  0  0  0
    8.8640    3.9150  -60.4560 C   0  0  0  0  0  0  0  0  0  0  0  0
    9.2850    2.3890  -58.5110 C   0  0  0  0  0  0  0  0  0  0  0  0
    8.6280    4.2590  -56.9230 C   0  0  0  0  0  0  0  0  0  0  0  0
    5.7374    0.2710  -54.0129 H   0  0  0  0  0  0  0  0  0  0  0  0
    5.5176    1.1637  -55.5560 H   0  0  0  0  0  0  0  0  0  0  0  0
    5.5641   -0.6320  -55.5560 H   0  0  0  0  0  0  0  0  0  0  0  0
    7.9778   -0.1776  -51.9384 H   0  0  0  0  0  0  0  0  0  0  0  0
    7.5649   -2.0097  -50.2940 H   0  0  0  0  0  0  0  0  0  0  0  0
    7.4849   -4.3802  -51.0617 H   0  0  0  0  0  0  0  0  0  0  0  0
    7.8360   -4.9278  -53.4680 H   0  0  0  0  0  0  0  0  0  0  0  0
    8.2443   -3.0998  -55.1212 H   0  0  0  0  0  0  0  0  0  0  0  0
   10.1220    1.4830  -56.2290 H   0  0  0  0  0  0  0  0  0  0  0  0
    6.7035    2.6800  -59.3248 H   0  0  0  0  0  0  0  0  0  0  0  0
    6.2519    4.0157  -58.1946 H   0  0  0  0  0  0  0  0  0  0  0  0
    6.9345    4.9107  -60.4217 H   0  0  0  0  0  0  0  0  0  0  0  0
    8.6709    6.4952  -59.5703 H   0  0  0  0  0  0  0  0  0  0  0  0
    7.3778    6.2240  -58.3476 H   0  0  0  0  0  0  0  0  0  0  0  0
    9.6462    6.1432  -57.2998 H   0  0  0  0  0  0  0  0  0  0  0  0
   10.8978    5.3517  -59.3057 H   0  0  0  0  0  0  0  0  0  0  0  0
   11.1731    4.2559  -57.9007 H   0  0  0  0  0  0  0  0  0  0  0  0
   10.7597    2.9615  -59.9995 H   0  0  0  0  0  0  0  0  0  0  0  0
    9.3181    4.6534  -61.1332 H   0  0  0  0  0  0  0  0  0  0  0  0
    8.4889    3.0588  -61.0358 H   0  0  0  0  0  0  0  0  0  0  0  0
    8.8946    1.5479  -59.1027 H   0  0  0  0  0  0  0  0  0  0  0  0
   10.0484    2.0292  -57.8054 H   0  0  0  0  0  0  0  0  0  0  0  0
    9.3744    3.9333  -56.1835 H   0  0  0  0  0  0  0  0  0  0  0  0
    7.7739    4.7283  -56.4128 H   0  0  0  0  0  0  0  0  0  0  0  0
  1  2  1  0
  2  3  1  0
  3  4  1  0
  4  5  2  0
  5  6  1  0
  6  7  2  0
  7  8  1  0
  8  9  2  0
  3 10  2  0
 10 11  1  0
 11 12  1  0
 12 13  2  0
 14 13  1  1
 14 15  1  0
 15 16  1  0
 16 17  1  0
 17 18  1  0
 18 19  1  0
 19 20  1  0
 20 21  1  0
 20 22  1  0
 18 23  1  0
 12  2  1  0
 22 14  1  0
  9  4  1  0
 23 14  1  0
 21 16  1  0
  1 24  1  0
  1 25  1  0
  1 26  1  0
  5 27  1  0
  6 28  1  0
  7 29  1  0
  8 30  1  0
  9 31  1  0
 11 32  1  0
 15 33  1  0
 15 34  1  0
 16 35  1  6
 17 36  1  0
 17 37  1  0
 18 38  1  1
 19 39  1  0
 19 40  1  0
 20 41  1  6
 21 42  1  0
 21 43  1  0
 22 44  1  0
 22 45  1  0
 23 46  1  0
 23 47  1  0
M  END
>  <meeko>  (133) 
{"is_sidechain": false}

$$$$

     RDKit          3D

 47 51  0  0  0  0  0  0  0  0999 V2000
    7.4850    1.5190  -60.1130 C   0  0  0  0  0  0  0  0  0  0  0  0
    6.5800    2.5060  -59.5460 N   0  0  0  0  0  0  0  0  0  0  0  0
    5.1960    2.2850  -59.6250 C   0  0  0  0  0  0  0  0  0  0  0  0
    4.4570    1.8320  -60.8210 C   0  0  0  0  0  0  0  0  0  0  0  0
    5.0270    2.0020  -62.0870 C   0  0  0  0  0  0  0  0  0  0  0  0
    4.3400    1.5700  -63.2230 C   0  0  0  0  0  0  0  0  0  0  0  0
    3.0920    0.9600  -63.0940 C   0  0  0  0  0  0  0  0  0  0  0  0
    2.5310    0.7720  -61.8310 C   0  0  0  0  0  0  0  0  0  0  0  0
    3.2130    1.2030  -60.6910 C   0  0  0  0  0  0  0  0  0  0  0  0
    4.5790    2.5650  -58.4920 N   0  0  0  0  0  0  0  0  0  0  0  0
    5.6140    2.9660  -57.6780 N   0  0  0  0  0  0  0  0  0  0  0  0
    6.8560    3.0610  -58.2920 C   0  0  0  0  0  0  0  0  0  0  0  0
    7.8350    3.6100  -57.6960 N   0  0  0  0  0  0  0  0  0  0  0  0
    9.1500    3.9650  -58.2030 C   0  0  2  0  0  0  0  0  0  0  0  0
    9.7480    5.2080  -57.5130 C   0  0  0  0  0  0  0  0  0  0  0  0
   11.1750    5.4690  -58.0290 C   0  0  1  0  0  0  0  0  0  0  0  0
   12.0650    4.2670  -57.6780 C   0  0  0  0  0  0  0  0  0  0  0  0
   11.5080    2.9960  -58.3370 C   0  0  2  0  0  0  0  0  0  0  0  0
   11.4930    3.1820  -59.8610 C   0  0  0  0  0  0  0  0  0  0  0  0
   10.5970    4.3740  -60.2330 C   0  0  2  0  0  0  0  0  0  0  0  0
   11.1380    5.6470  -59.5570 C   0  0  0  0  0  0  0  0  0  0  0  0
    9.1660    4.1030  -59.7350 C   0  0  0  0  0  0  0  0  0  0  0  0
   10.0710    2.7600  -57.8440 C   0  0  0  0  0  0  0  0  0  0  0  0
    7.9865    0.9721  -59.3010 H   0  0  0  0  0  0  0  0  0  0  0  0
    6.9146    0.8122  -60.7335 H   0  0  0  0  0  0  0  0  0  0  0  0
    8.2385    2.0261  -60.7335 H   0  0  0  0  0  0  0  0  0  0  0  0
    6.0149    2.4753  -62.1874 H   0  0  0  0  0  0  0  0  0  0  0  0
    4.7829    1.7106  -64.2200 H   0  0  0  0  0  0  0  0  0  0  0  0
    2.5491    0.6265  -63.9906 H   0  0  0  0  0  0  0  0  0  0  0  0
    1.5502    0.2837  -61.7327 H   0  0  0  0  0  0  0  0  0  0  0  0
    2.7742    1.0488  -59.6942 H   0  0  0  0  0  0  0  0  0  0  0  0
    5.4520    3.4670  -56.8120 H   0  0  0  0  0  0  0  0  0  0  0  0
    9.1175    6.0827  -57.7306 H   0  0  0  0  0  0  0  0  0  0  0  0
    9.7858    5.0322  -56.4278 H   0  0  0  0  0  0  0  0  0  0  0  0
   11.5793    6.3790  -57.5617 H   0  0  0  0  0  0  0  0  0  0  0  0
   13.0863    4.4500  -58.0433 H   0  0  0  0  0  0  0  0  0  0  0  0
   12.0798    4.1330  -56.5863 H   0  0  0  0  0  0  0  0  0  0  0  0
   12.1388    2.1342  -58.0736 H   0  0  0  0  0  0  0  0  0  0  0  0
   12.5170    3.3706  -60.2156 H   0  0  0  0  0  0  0  0  0  0  0  0
   11.0982    2.2705  -60.3335 H   0  0  0  0  0  0  0  0  0  0  0  0
   10.5919    4.5096  -61.3246 H   0  0  0  0  0  0  0  0  0  0  0  0
   12.1557    5.8472  -59.9233 H   0  0  0  0  0  0  0  0  0  0  0  0
   10.4752    6.4901  -59.8019 H   0  0  0  0  0  0  0  0  0  0  0  0
    8.5147    4.9387  -60.0307 H   0  0  0  0  0  0  0  0  0  0  0  0
    8.8035    3.1656  -60.1821 H   0  0  0  0  0  0  0  0  0  0  0  0
    9.6735    1.8503  -58.3177 H   0  0  0  0  0  0  0  0  0  0  0  0
   10.0907    2.6489  -56.7498 H   0  0  0  0  0  0  0  0  0  0  0  0
  1  2  1  0
  2  3  1  0
  3  4  1  0
  4  5  2  0
  5  6  1  0
  6  7  2  0
  7  8  1  0
  8  9  2  0
  3 10  2  0
 10 11  1  0
 11 12  1  0
 12 13  2  0
 14 13  1  1
 14 15  1  0
 15 16  1  0
 16 17  1  0
 17 18  1  0
 18 19  1  0
 19 20  1  0
 20 21  1  0
 20 22  1  0
 18 23  1  0
 12  2  1  0
 22 14  1  0
  9  4  1  0
 23 14  1  0
 21 16  1  0
  1 24  1  0
  1 25  1  0
  1 26  1  0
  5 27  1  0
  6 28  1  0
  7 29  1  0
  8 30  1  0
  9 31  1  0
 11 32  1  0
 15 33  1  0
 15 34  1  0
 16 35  1  1
 17 36  1  0
 17 37  1  0
 18 38  1  6
 19 39  1  0
 19 40  1  0
 20 41  1  6
 21 42  1  0
 21 43  1  0
 22 44  1  0
 22 45  1  0
 23 46  1  0
 23 47  1  0
M  END
>  <meeko>  (134) 
{"is_sidechain": false}

$$$$

     RDKit          3D

 46 50  0  0  0  0  0  0  0  0999 V2000
    6.8490   -3.2530  -49.7330 C   0  0  0  0  0  0  0  0  0  0  0  0
    8.0960   -2.7560  -50.1080 C   0  0  0  0  0  0  0  0  0  0  0  0
    8.5430   -2.9090  -51.4210 C   0  0  0  0  0  0  0  0  0  0  0  0
    7.7430   -3.5520  -52.3760 C   0  0  0  0  0  0  0  0  0  0  0  0
    8.2140   -3.7210  -53.8010 C   0  0  0  0  0  0  0  0  0  0  0  0
    8.7710   -2.5030  -54.3530 N   0  0  0  0  0  0  0  0  0  0  0  0
    7.9880   -1.4250  -54.5420 N   0  0  0  0  0  0  0  0  0  0  0  0
    8.8130   -0.4680  -54.9350 N   0  0  0  0  0  0  0  0  0  0  0  0
   10.1060   -0.9250  -54.9930 N   0  0  0  0  0  0  0  0  0  0  0  0
   10.0810   -2.1950  -54.6460 C   0  0  0  0  0  0  0  0  0  0  0  0
   11.0890   -3.1060  -54.5610 N   0  0  0  0  0  0  0  0  0  0  0  0
   11.5590   -3.8470  -55.7380 C   0  0  2  0  0  0  0  0  0  0  0  0
   12.6100   -4.8820  -55.2400 C   0  0  0  0  0  0  0  0  0  0  0  0
   13.1570   -5.7170  -56.4080 C   0  0  1  0  0  0  0  0  0  0  0  0
   11.9940   -6.4600  -57.0820 C   0  0  0  0  0  0  0  0  0  0  0  0
   10.9560   -5.4530  -57.6020 C   0  0  2  0  0  0  0  0  0  0  0  0
   11.6280   -4.5080  -58.6130 C   0  0  0  0  0  0  0  0  0  0  0  0
   12.7970   -3.7600  -57.9480 C   0  0  2  0  0  0  0  0  0  0  0  0
   13.8220   -4.7790  -57.4270 C   0  0  0  0  0  0  0  0  0  0  0  0
   12.2600   -2.9290  -56.7670 C   0  0  0  0  0  0  0  0  0  0  0  0
   10.4130   -4.6280  -56.4210 C   0  0  0  0  0  0  0  0  0  0  0  0
    6.4950   -4.0630  -51.9810 C   0  0  0  0  0  0  0  0  0  0  0  0
    6.0510   -3.9090  -50.6680 C   0  0  0  0  0  0  0  0  0  0  0  0
    6.4949   -3.1274  -48.6991 H   0  0  0  0  0  0  0  0  0  0  0  0
    8.7282   -2.2428  -49.3684 H   0  0  0  0  0  0  0  0  0  0  0  0
    9.5315   -2.5218  -51.7092 H   0  0  0  0  0  0  0  0  0  0  0  0
    8.9860   -4.5042  -53.8261 H   0  0  0  0  0  0  0  0  0  0  0  0
    7.3395   -3.9928  -54.4103 H   0  0  0  0  0  0  0  0  0  0  0  0
   11.1170   -3.6720  -53.7160 H   0  0  0  0  0  0  0  0  0  0  0  0
   13.4423   -4.3467  -54.7597 H   0  0  0  0  0  0  0  0  0  0  0  0
   12.1225   -5.5592  -54.5232 H   0  0  0  0  0  0  0  0  0  0  0  0
   13.8948   -6.4438  -56.0373 H   0  0  0  0  0  0  0  0  0  0  0  0
   12.3801   -7.0526  -57.9245 H   0  0  0  0  0  0  0  0  0  0  0  0
   11.5156   -7.1235  -56.3465 H   0  0  0  0  0  0  0  0  0  0  0  0
   10.1299   -5.9913  -58.0896 H   0  0  0  0  0  0  0  0  0  0  0  0
   12.0086   -5.0954  -59.4615 H   0  0  0  0  0  0  0  0  0  0  0  0
   10.8874   -3.7747  -58.9650 H   0  0  0  0  0  0  0  0  0  0  0  0
   13.2773   -3.0957  -58.6815 H   0  0  0  0  0  0  0  0  0  0  0  0
   14.2081   -5.3712  -58.2698 H   0  0  0  0  0  0  0  0  0  0  0  0
   14.6491   -4.2427  -56.9389 H   0  0  0  0  0  0  0  0  0  0  0  0
   13.0976   -2.4098  -56.2784 H   0  0  0  0  0  0  0  0  0  0  0  0
   11.5322   -2.1969  -57.1469 H   0  0  0  0  0  0  0  0  0  0  0  0
    9.6600   -3.9168  -56.7914 H   0  0  0  0  0  0  0  0  0  0  0  0
    9.9592   -5.3105  -55.6874 H   0  0  0  0  0  0  0  0  0  0  0  0
    5.8637   -4.5883  -52.7128 H   0  0  0  0  0  0  0  0  0  0  0  0
    5.0694   -4.3060  -50.3701 H   0  0  0  0  0  0  0  0  0  0  0  0
  1  2  2  0
  2  3  1  0
  3  4  2  0
  4  5  1  0
  5  6  1  0
  6  7  1  0
  7  8  2  0
  8  9  1  0
  9 10  2  0
 10 11  1  0
 12 11  1  1
 12 13  1  0
 13 14  1  0
 14 15  1  0
 15 16  1  0
 16 17  1  0
 17 18  1  0
 18 19  1  0
 18 20  1  0
 16 21  1  0
  4 22  1  0
 22 23  2  0
 23  1  1  0
 10  6  1  0
 20 12  1  0
 21 12  1  0
 19 14  1  0
  1 24  1  0
  2 25  1  0
  3 26  1  0
  5 27  1  0
  5 28  1  0
 11 29  1  0
 13 30  1  0
 13 31  1  0
 14 32  1  1
 15 33  1  0
 15 34  1  0
 16 35  1  6
 17 36  1  0
 17 37  1  0
 18 38  1  6
 19 39  1  0
 19 40  1  0
 20 41  1  0
 20 42  1  0
 21 43  1  0
 21 44  1  0
 22 45  1  0
 23 46  1  0
M  END
>  <meeko>  (135) 
{"is_sidechain": false}

$$$$

     RDKit          3D

 46 50  0  0  0  0  0  0  0  0999 V2000
   10.4740   -3.8020  -55.3320 C   0  0  0  0  0  0  0  0  0  0  0  0
    9.3060   -3.7340  -54.5730 C   0  0  0  0  0  0  0  0  0  0  0  0
    8.7870   -2.4940  -54.2000 C   0  0  0  0  0  0  0  0  0  0  0  0
    9.4360   -1.3080  -54.5760 C   0  0  0  0  0  0  0  0  0  0  0  0
    8.8630    0.0370  -54.1810 C   0  0  0  0  0  0  0  0  0  0  0  0
    7.9200    0.5250  -55.1570 N   0  0  0  0  0  0  0  0  0  0  0  0
    6.5740    0.3870  -54.9220 N   0  0  0  0  0  0  0  0  0  0  0  0
    5.9720    1.1200  -55.7670 N   0  0  0  0  0  0  0  0  0  0  0  0
    6.9290    1.7250  -56.5220 N   0  0  0  0  0  0  0  0  0  0  0  0
    8.2020    1.4330  -56.1410 C   0  0  0  0  0  0  0  0  0  0  0  0
    9.3520    1.8330  -56.5110 N   0  0  0  0  0  0  0  0  0  0  0  0
    9.5800    2.8260  -57.5580 C   0  0  2  0  0  0  0  0  0  0  0  0
    9.1420    4.2390  -57.1210 C   0  0  0  0  0  0  0  0  0  0  0  0
    9.4890    5.2640  -58.2170 C   0  0  1  0  0  0  0  0  0  0  0  0
   11.0110    5.2740  -58.4370 C   0  0  0  0  0  0  0  0  0  0  0  0
   11.4860    3.8800  -58.8750 C   0  0  2  0  0  0  0  0  0  0  0  0
   10.7860    3.4940  -60.1880 C   0  0  0  0  0  0  0  0  0  0  0  0
    9.2630    3.4690  -59.9810 C   0  0  2  0  0  0  0  0  0  0  0  0
    8.7890    4.8630  -59.5270 C   0  0  0  0  0  0  0  0  0  0  0  0
    8.9130    2.4360  -58.8940 C   0  0  0  0  0  0  0  0  0  0  0  0
   11.1170    2.8580  -57.7880 C   0  0  0  0  0  0  0  0  0  0  0  0
   10.6030   -1.3890  -55.3490 C   0  0  0  0  0  0  0  0  0  0  0  0
   11.1200   -2.6310  -55.7210 C   0  0  0  0  0  0  0  0  0  0  0  0
   10.8848   -4.7799  -55.6233 H   0  0  0  0  0  0  0  0  0  0  0  0
    8.7937   -4.6585  -54.2683 H   0  0  0  0  0  0  0  0  0  0  0  0
    7.8620   -2.4456  -53.6067 H   0  0  0  0  0  0  0  0  0  0  0  0
    8.3523   -0.0643  -53.2120 H   0  0  0  0  0  0  0  0  0  0  0  0
    9.6925    0.7567  -54.1174 H   0  0  0  0  0  0  0  0  0  0  0  0
    6.6880    2.4560  -57.1700 H   0  0  0  0  0  0  0  0  0  0  0  0
    8.0558    4.2457  -56.9475 H   0  0  0  0  0  0  0  0  0  0  0  0
    9.6709    4.5093  -56.1951 H   0  0  0  0  0  0  0  0  0  0  0  0
    9.1523    6.2649  -57.9090 H   0  0  0  0  0  0  0  0  0  0  0  0
   11.2617    6.0067  -59.2182 H   0  0  0  0  0  0  0  0  0  0  0  0
   11.5108    5.5475  -57.4960 H   0  0  0  0  0  0  0  0  0  0  0  0
   12.5757    3.8895  -59.0249 H   0  0  0  0  0  0  0  0  0  0  0  0
   11.0364    4.2310  -60.9652 H   0  0  0  0  0  0  0  0  0  0  0  0
   11.1257    2.4952  -60.4995 H   0  0  0  0  0  0  0  0  0  0  0  0
    8.7666    3.1966  -60.9240 H   0  0  0  0  0  0  0  0  0  0  0  0
    9.0294    5.6001  -60.3073 H   0  0  0  0  0  0  0  0  0  0  0  0
    7.7024    4.8342  -59.3580 H   0  0  0  0  0  0  0  0  0  0  0  0
    7.8216    2.4041  -58.7602 H   0  0  0  0  0  0  0  0  0  0  0  0
    9.2808    1.4471  -59.2051 H   0  0  0  0  0  0  0  0  0  0  0  0
   11.4553    1.8596  -58.1022 H   0  0  0  0  0  0  0  0  0  0  0  0
   11.6077    3.1509  -56.8481 H   0  0  0  0  0  0  0  0  0  0  0  0
   11.1145   -0.4676  -55.6644 H   0  0  0  0  0  0  0  0  0  0  0  0
   12.0394   -2.6851  -56.3225 H   0  0  0  0  0  0  0  0  0  0  0  0
  1  2  2  0
  2  3  1  0
  3  4  2  0
  4  5  1  0
  5  6  1  0
  6  7  1  0
  7  8  2  0
  8  9  1  0
  9 10  1  0
 10 11  2  0
 12 11  1  1
 12 13  1  0
 13 14  1  0
 14 15  1  0
 15 16  1  0
 16 17  1  0
 17 18  1  0
 18 19  1  0
 18 20  1  0
 16 21  1  0
  4 22  1  0
 22 23  2  0
 23  1  1  0
 10  6  1  0
 20 12  1  0
 21 12  1  0
 19 14  1  0
  1 24  1  0
  2 25  1  0
  3 26  1  0
  5 27  1  0
  5 28  1  0
  9 29  1  0
 13 30  1  0
 13 31  1  0
 14 32  1  1
 15 33  1  0
 15 34  1  0
 16 35  1  6
 17 36  1  0
 17 37  1  0
 18 38  1  6
 19 39  1  0
 19 40  1  0
 20 41  1  0
 20 42  1  0
 21 43  1  0
 21 44  1  0
 22 45  1  0
 23 46  1  0
M  END
>  <meeko>  (136) 
{"is_sidechain": false}

$$$$

     RDKit          3D

 46 50  0  0  0  0  0  0  0  0999 V2000
    4.3230    1.8560  -60.5680 C   0  0  0  0  0  0  0  0  0  0  0  0
    5.6170    1.3880  -60.3420 C   0  0  0  0  0  0  0  0  0  0  0  0
    6.1810    1.4810  -59.0680 C   0  0  0  0  0  0  0  0  0  0  0  0
    5.4590    2.0490  -58.0080 C   0  0  0  0  0  0  0  0  0  0  0  0
    6.0710    2.1450  -56.6230 C   0  0  0  0  0  0  0  0  0  0  0  0
    7.1400    1.1710  -56.3900 N   0  0  0  0  0  0  0  0  0  0  0  0
    6.6590    0.0490  -55.7060 N   0  0  0  0  0  0  0  0  0  0  0  0
    7.4770   -0.2350  -54.7830 N   0  0  0  0  0  0  0  0  0  0  0  0
    8.4270    0.7270  -54.7960 N   0  0  0  0  0  0  0  0  0  0  0  0
    8.3780    1.5310  -55.8980 C   0  0  0  0  0  0  0  0  0  0  0  0
    9.3890    2.2200  -56.2260 N   0  0  0  0  0  0  0  0  0  0  0  0
    9.7520    2.9120  -57.4500 C   0  0  2  0  0  0  0  0  0  0  0  0
   11.2010    3.4350  -57.2800 C   0  0  0  0  0  0  0  0  0  0  0  0
   11.6030    4.3190  -58.4730 C   0  0  1  0  0  0  0  0  0  0  0  0
   11.5040    3.4960  -59.7680 C   0  0  0  0  0  0  0  0  0  0  0  0
   10.0630    2.9940  -59.9590 C   0  0  2  0  0  0  0  0  0  0  0  0
    9.1130    4.1980  -60.0450 C   0  0  0  0  0  0  0  0  0  0  0  0
    9.2010    5.0250  -58.7520 C   0  0  2  0  0  0  0  0  0  0  0  0
   10.6450    5.5170  -58.5610 C   0  0  0  0  0  0  0  0  0  0  0  0
    8.8080    4.1370  -57.5610 C   0  0  0  0  0  0  0  0  0  0  0  0
    9.6690    2.1160  -58.7530 C   0  0  0  0  0  0  0  0  0  0  0  0
    4.1560    2.5100  -58.2480 C   0  0  0  0  0  0  0  0  0  0  0  0
    3.5930    2.4140  -59.5210 C   0  0  0  0  0  0  0  0  0  0  0  0
    3.8792    1.7846  -61.5720 H   0  0  0  0  0  0  0  0  0  0  0  0
    6.1936    0.9454  -61.1676 H   0  0  0  0  0  0  0  0  0  0  0  0
    7.2002    1.1056  -58.8942 H   0  0  0  0  0  0  0  0  0  0  0  0
    6.4861    3.1555  -56.4946 H   0  0  0  0  0  0  0  0  0  0  0  0
    5.2714    1.9286  -55.8992 H   0  0  0  0  0  0  0  0  0  0  0  0
    9.3310    0.5560  -54.3800 H   0  0  0  0  0  0  0  0  0  0  0  0
   11.2654    4.0261  -56.3546 H   0  0  0  0  0  0  0  0  0  0  0  0
   11.8844    2.5744  -57.2312 H   0  0  0  0  0  0  0  0  0  0  0  0
   12.6341    4.6777  -58.3383 H   0  0  0  0  0  0  0  0  0  0  0  0
   11.7872    4.1266  -60.6237 H   0  0  0  0  0  0  0  0  0  0  0  0
   12.1829    2.6330  -59.7020 H   0  0  0  0  0  0  0  0  0  0  0  0
    9.9941    2.4043  -60.8850 H   0  0  0  0  0  0  0  0  0  0  0  0
    9.3979    4.8274  -60.9010 H   0  0  0  0  0  0  0  0  0  0  0  0
    8.0819    3.8381  -60.1761 H   0  0  0  0  0  0  0  0  0  0  0  0
    8.5218    5.8880  -58.8151 H   0  0  0  0  0  0  0  0  0  0  0  0
   10.9301    6.1490  -59.4150 H   0  0  0  0  0  0  0  0  0  0  0  0
   10.7075    6.0976  -57.6288 H   0  0  0  0  0  0  0  0  0  0  0  0
    8.8729    4.7270  -56.6349 H   0  0  0  0  0  0  0  0  0  0  0  0
    7.7803    3.7763  -57.7151 H   0  0  0  0  0  0  0  0  0  0  0  0
    8.6386    1.7562  -58.8905 H   0  0  0  0  0  0  0  0  0  0  0  0
   10.3666    1.2677  -58.6923 H   0  0  0  0  0  0  0  0  0  0  0  0
    3.5733    2.9508  -57.4257 H   0  0  0  0  0  0  0  0  0  0  0  0
    2.5708    2.7796  -59.6982 H   0  0  0  0  0  0  0  0  0  0  0  0
  1  2  2  0
  2  3  1  0
  3  4  2  0
  4  5  1  0
  5  6  1  0
  6  7  1  0
  7  8  2  0
  8  9  1  0
  9 10  1  0
 10 11  2  0
 12 11  1  1
 12 13  1  0
 13 14  1  0
 14 15  1  0
 15 16  1  0
 16 17  1  0
 17 18  1  0
 18 19  1  0
 18 20  1  0
 16 21  1  0
  4 22  1  0
 22 23  2  0
 23  1  1  0
 10  6  1  0
 20 12  1  0
 21 12  1  0
 19 14  1  0
  1 24  1  0
  2 25  1  0
  3 26  1  0
  5 27  1  0
  5 28  1  0
  9 29  1  0
 13 30  1  0
 13 31  1  0
 14 32  1  1
 15 33  1  0
 15 34  1  0
 16 35  1  6
 17 36  1  0
 17 37  1  0
 18 38  1  6
 19 39  1  0
 19 40  1  0
 20 41  1  0
 20 42  1  0
 21 43  1  0
 21 44  1  0
 22 45  1  0
 23 46  1  0
M  END
>  <meeko>  (137) 
{"is_sidechain": false}

$$$$

     RDKit          3D

 46 50  0  0  0  0  0  0  0  0999 V2000
   10.5210   -3.5880  -54.9690 C   0  0  0  0  0  0  0  0  0  0  0  0
    9.3340   -3.4980  -54.2440 C   0  0  0  0  0  0  0  0  0  0  0  0
    8.7060   -2.2620  -54.0770 C   0  0  0  0  0  0  0  0  0  0  0  0
    9.2660   -1.1030  -54.6350 C   0  0  0  0  0  0  0  0  0  0  0  0
    8.5820    0.2390  -54.4730 C   0  0  0  0  0  0  0  0  0  0  0  0
    7.6350    0.4670  -55.5550 N   0  0  0  0  0  0  0  0  0  0  0  0
    6.3050    0.6800  -55.1900 N   0  0  0  0  0  0  0  0  0  0  0  0
    5.7390    1.6070  -56.0300 N   0  0  0  0  0  0  0  0  0  0  0  0
    6.6490    2.1440  -56.7230 N   0  0  0  0  0  0  0  0  0  0  0  0
    7.8370    1.5140  -56.4200 C   0  0  0  0  0  0  0  0  0  0  0  0
    8.9850    1.8790  -56.8690 N   0  0  0  0  0  0  0  0  0  0  0  0
    9.1850    3.0070  -57.7820 C   0  0  2  0  0  0  0  0  0  0  0  0
    9.0240    4.3720  -57.0800 C   0  0  0  0  0  0  0  0  0  0  0  0
    9.3480    5.5150  -58.0590 C   0  0  1  0  0  0  0  0  0  0  0  0
   10.8050    5.3820  -58.5290 C   0  0  0  0  0  0  0  0  0  0  0  0
   11.0060    4.0340  -59.2380 C   0  0  2  0  0  0  0  0  0  0  0  0
   10.0710    3.9550  -60.4550 C   0  0  0  0  0  0  0  0  0  0  0  0
    8.6080    4.0760  -60.0000 C   0  0  2  0  0  0  0  0  0  0  0  0
    8.4110    5.4220  -59.2770 C   0  0  0  0  0  0  0  0  0  0  0  0
    8.2800    2.9260  -59.0300 C   0  0  0  0  0  0  0  0  0  0  0  0
   10.6590    2.8970  -58.2640 C   0  0  0  0  0  0  0  0  0  0  0  0
   10.4570   -1.2060  -55.3670 C   0  0  0  0  0  0  0  0  0  0  0  0
   11.0820   -2.4430  -55.5310 C   0  0  0  0  0  0  0  0  0  0  0  0
   11.0147   -4.5625  -55.0975 H   0  0  0  0  0  0  0  0  0  0  0  0
    8.8909   -4.4027  -53.8023 H   0  0  0  0  0  0  0  0  0  0  0  0
    7.7683   -2.1968  -53.5056 H   0  0  0  0  0  0  0  0  0  0  0  0
    8.0450    0.2572  -53.5131 H   0  0  0  0  0  0  0  0  0  0  0  0
    9.3453    1.0307  -54.4980 H   0  0  0  0  0  0  0  0  0  0  0  0
    5.7490   -0.1720  -55.1140 H   0  0  0  0  0  0  0  0  0  0  0  0
    7.9877    4.4789  -56.7268 H   0  0  0  0  0  0  0  0  0  0  0  0
    9.7182    4.4215  -56.2282 H   0  0  0  0  0  0  0  0  0  0  0  0
    9.2075    6.4836  -57.5569 H   0  0  0  0  0  0  0  0  0  0  0  0
   11.0389    6.1994  -59.2269 H   0  0  0  0  0  0  0  0  0  0  0  0
   11.4727    5.4348  -57.6564 H   0  0  0  0  0  0  0  0  0  0  0  0
   12.0516    3.9406  -59.5666 H   0  0  0  0  0  0  0  0  0  0  0  0
   10.3060    4.7753  -61.1492 H   0  0  0  0  0  0  0  0  0  0  0  0
   10.2144    2.9880  -60.9594 H   0  0  0  0  0  0  0  0  0  0  0  0
    7.9428    4.0236  -60.8745 H   0  0  0  0  0  0  0  0  0  0  0  0
    8.6366    6.2440  -59.9722 H   0  0  0  0  0  0  0  0  0  0  0  0
    7.3685    5.4951  -58.9336 H   0  0  0  0  0  0  0  0  0  0  0  0
    7.2270    3.0006  -58.7207 H   0  0  0  0  0  0  0  0  0  0  0  0
    8.4548    1.9664  -59.5386 H   0  0  0  0  0  0  0  0  0  0  0  0
   10.8001    1.9319  -58.7727 H   0  0  0  0  0  0  0  0  0  0  0  0
   11.3206    2.9713  -57.3884 H   0  0  0  0  0  0  0  0  0  0  0  0
   10.9021   -0.3055  -55.8153 H   0  0  0  0  0  0  0  0  0  0  0  0
   12.0181   -2.5141  -56.1043 H   0  0  0  0  0  0  0  0  0  0  0  0
  1  2  2  0
  2  3  1  0
  3  4  2  0
  4  5  1  0
  5  6  1  0
  6  7  1  0
  7  8  1  0
  8  9  2  0
  9 10  1  0
 10 11  2  0
 12 11  1  1
 12 13  1  0
 13 14  1  0
 14 15  1  0
 15 16  1  0
 16 17  1  0
 17 18  1  0
 18 19  1  0
 18 20  1  0
 16 21  1  0
  4 22  1  0
 22 23  2  0
 23  1  1  0
 10  6  1  0
 20 12  1  0
 21 12  1  0
 19 14  1  0
  1 24  1  0
  2 25  1  0
  3 26  1  0
  5 27  1  0
  5 28  1  0
  7 29  1  0
 13 30  1  0
 13 31  1  0
 14 32  1  1
 15 33  1  0
 15 34  1  0
 16 35  1  6
 17 36  1  0
 17 37  1  0
 18 38  1  6
 19 39  1  0
 19 40  1  0
 20 41  1  0
 20 42  1  0
 21 43  1  0
 21 44  1  0
 22 45  1  0
 23 46  1  0
M  END
>  <meeko>  (138) 
{"is_sidechain": false}

$$$$

     RDKit          3D

 46 50  0  0  0  0  0  0  0  0999 V2000
    7.8570    0.0950  -54.3210 C   0  0  0  0  0  0  0  0  0  0  0  0
    6.4950    0.0040  -54.5960 C   0  0  0  0  0  0  0  0  0  0  0  0
    5.9560    0.6790  -55.6930 C   0  0  0  0  0  0  0  0  0  0  0  0
    6.7770    1.4530  -56.5270 C   0  0  0  0  0  0  0  0  0  0  0  0
    6.1930    2.1840  -57.7200 C   0  0  0  0  0  0  0  0  0  0  0  0
    6.7210    1.7680  -59.0370 N   0  0  0  0  0  0  0  0  0  0  0  0
    5.7860    0.9400  -59.7020 N   0  0  0  0  0  0  0  0  0  0  0  0
    5.3960    1.5150  -60.8840 N   0  0  0  0  0  0  0  0  0  0  0  0
    5.9760    2.6270  -61.0100 N   0  0  0  0  0  0  0  0  0  0  0  0
    6.9300    2.7240  -60.0110 C   0  0  0  0  0  0  0  0  0  0  0  0
    7.8510    3.5750  -60.2340 N   0  0  0  0  0  0  0  0  0  0  0  0
    9.1540    3.7240  -59.6050 C   0  0  2  0  0  0  0  0  0  0  0  0
    8.9290    4.6780  -58.4010 C   0  0  0  0  0  0  0  0  0  0  0  0
   10.2570    5.0130  -57.7060 C   0  0  1  0  0  0  0  0  0  0  0  0
   10.8940    3.7100  -57.2000 C   0  0  0  0  0  0  0  0  0  0  0  0
   11.1500    2.7630  -58.3810 C   0  0  2  0  0  0  0  0  0  0  0  0
   12.0920    3.4470  -59.3870 C   0  0  0  0  0  0  0  0  0  0  0  0
   11.4540    4.7470  -59.9060 C   0  0  2  0  0  0  0  0  0  0  0  0
   11.1970    5.6870  -58.7160 C   0  0  0  0  0  0  0  0  0  0  0  0
   10.1160    4.4210  -60.5950 C   0  0  0  0  0  0  0  0  0  0  0  0
    9.8170    2.4430  -59.0880 C   0  0  0  0  0  0  0  0  0  0  0  0
    8.1490    1.5310  -56.2420 C   0  0  0  0  0  0  0  0  0  0  0  0
    8.6840    0.8560  -55.1440 C   0  0  0  0  0  0  0  0  0  0  0  0
    8.2798   -0.4339  -53.4541 H   0  0  0  0  0  0  0  0  0  0  0  0
    5.8429   -0.6004  -53.9483 H   0  0  0  0  0  0  0  0  0  0  0  0
    4.8793    0.6034  -55.9051 H   0  0  0  0  0  0  0  0  0  0  0  0
    5.1057    2.0171  -57.7218 H   0  0  0  0  0  0  0  0  0  0  0  0
    6.4770    3.2397  -57.5984 H   0  0  0  0  0  0  0  0  0  0  0  0
    6.1040   -0.0190  -59.8390 H   0  0  0  0  0  0  0  0  0  0  0  0
    8.4673    5.6090  -58.7616 H   0  0  0  0  0  0  0  0  0  0  0  0
    8.2716    4.1764  -57.6756 H   0  0  0  0  0  0  0  0  0  0  0  0
   10.0812    5.6932  -56.8596 H   0  0  0  0  0  0  0  0  0  0  0  0
   11.8478    3.9391  -56.7023 H   0  0  0  0  0  0  0  0  0  0  0  0
   10.2110    3.2249  -56.4871 H   0  0  0  0  0  0  0  0  0  0  0  0
   11.6056    1.8339  -58.0078 H   0  0  0  0  0  0  0  0  0  0  0  0
   13.0455    3.6819  -58.8914 H   0  0  0  0  0  0  0  0  0  0  0  0
   12.2690    2.7685  -60.2345 H   0  0  0  0  0  0  0  0  0  0  0  0
   12.1290    5.2312  -60.6270 H   0  0  0  0  0  0  0  0  0  0  0  0
   12.1526    5.9210  -58.2239 H   0  0  0  0  0  0  0  0  0  0  0  0
   10.7287    6.6125  -59.0823 H   0  0  0  0  0  0  0  0  0  0  0  0
    9.6553    5.3541  -60.9514 H   0  0  0  0  0  0  0  0  0  0  0  0
   10.3067    3.7453  -61.4418 H   0  0  0  0  0  0  0  0  0  0  0  0
   10.0111    1.7698  -59.9361 H   0  0  0  0  0  0  0  0  0  0  0  0
    9.1409    1.9631  -58.3651 H   0  0  0  0  0  0  0  0  0  0  0  0
    8.8077    2.1288  -56.8891 H   0  0  0  0  0  0  0  0  0  0  0  0
    9.7604    0.9250  -54.9281 H   0  0  0  0  0  0  0  0  0  0  0  0
  1  2  2  0
  2  3  1  0
  3  4  2  0
  4  5  1  0
  5  6  1  0
  6  7  1  0
  7  8  1  0
  8  9  2  0
  9 10  1  0
 10 11  2  0
 12 11  1  6
 12 13  1  0
 13 14  1  0
 14 15  1  0
 15 16  1  0
 16 17  1  0
 17 18  1  0
 18 19  1  0
 18 20  1  0
 16 21  1  0
  4 22  1  0
 22 23  2  0
 23  1  1  0
 10  6  1  0
 20 12  1  0
 21 12  1  0
 19 14  1  0
  1 24  1  0
  2 25  1  0
  3 26  1  0
  5 27  1  0
  5 28  1  0
  7 29  1  0
 13 30  1  0
 13 31  1  0
 14 32  1  1
 15 33  1  0
 15 34  1  0
 16 35  1  1
 17 36  1  0
 17 37  1  0
 18 38  1  6
 19 39  1  0
 19 40  1  0
 20 41  1  0
 20 42  1  0
 21 43  1  0
 21 44  1  0
 22 45  1  0
 23 46  1  0
M  END
>  <meeko>  (139) 
{"is_sidechain": false}

$$$$

     RDKit          3D

 57 62  0  0  0  0  0  0  0  0999 V2000
   12.8730    4.2630  -58.3470 C   0  0  0  0  0  0  0  0  0  0  0  0
   11.6890    3.5060  -58.9700 C   0  0  2  0  0  0  0  0  0  0  0  0
   11.0480    4.3200  -60.1250 C   0  0  2  0  0  0  0  0  0  0  0  0
   10.3270    5.5650  -59.5790 C   0  0  0  0  0  0  0  0  0  0  0  0
    9.2350    5.1440  -58.5850 C   0  0  1  0  0  0  0  0  0  0  0  0
    8.2160    4.2470  -59.3080 C   0  0  0  0  0  0  0  0  0  0  0  0
    8.9180    2.9990  -59.8680 C   0  0  1  0  0  0  0  0  0  0  0  0
   10.0200    3.4320  -60.8480 C   0  0  0  0  0  0  0  0  0  0  0  0
    9.5480    2.2090  -58.7090 C   0  0  0  0  0  0  0  0  0  0  0  0
   10.5760    3.0860  -57.9430 C   0  0  1  0  0  0  0  0  0  0  0  0
   11.2090    2.3150  -56.8740 N   0  0  0  0  0  0  0  0  0  0  0  0
   10.7180    1.1910  -56.3350 C   0  0  0  0  0  0  0  0  0  0  0  0
   11.4930    0.0850  -56.4580 N   0  0  0  0  0  0  0  0  0  0  0  0
   10.7800   -0.8730  -55.8920 C   0  0  0  0  0  0  0  0  0  0  0  0
   11.1450   -2.2870  -55.9440 C   0  0  0  0  0  0  0  0  0  0  0  0
   11.4880   -2.8690  -57.1710 C   0  0  0  0  0  0  0  0  0  0  0  0
   11.8270   -4.2220  -57.2430 C   0  0  0  0  0  0  0  0  0  0  0  0
   11.8120   -5.0070  -56.0920 C   0  0  0  0  0  0  0  0  0  0  0  0
   11.4470   -4.4440  -54.8690 C   0  0  0  0  0  0  0  0  0  0  0  0
   11.1070   -3.0900  -54.7960 C   0  0  0  0  0  0  0  0  0  0  0  0
    9.6430   -0.3020  -55.3240 N   0  0  0  0  0  0  0  0  0  0  0  0
    8.6560   -0.8320  -54.4420 C   0  0  0  0  0  0  0  0  0  0  0  0
    8.9500   -1.1980  -53.1220 C   0  0  0  0  0  0  0  0  0  0  0  0
    7.9460   -1.7100  -52.2940 C   0  0  0  0  0  0  0  0  0  0  0  0
    6.6430   -1.8490  -52.7680 C   0  0  0  0  0  0  0  0  0  0  0  0
    6.3350   -1.4680  -54.0700 C   0  0  0  0  0  0  0  0  0  0  0  0
    7.3330   -0.9550  -54.9030 C   0  0  0  0  0  0  0  0  0  0  0  0
    9.5620    0.9930  -55.7210 N   0  0  0  0  0  0  0  0  0  0  0  0
    9.8620    4.3570  -57.4200 C   0  0  0  0  0  0  0  0  0  0  0  0
   12.8013    4.2172  -57.2503 H   0  0  0  0  0  0  0  0  0  0  0  0
   13.8163    3.8001  -58.6724 H   0  0  0  0  0  0  0  0  0  0  0  0
   12.8487    5.3135  -58.6724 H   0  0  0  0  0  0  0  0  0  0  0  0
   12.1251    2.5747  -59.3605 H   0  0  0  0  0  0  0  0  0  0  0  0
   11.8418    4.6411  -60.8155 H   0  0  0  0  0  0  0  0  0  0  0  0
   11.0546    6.2130  -59.0684 H   0  0  0  0  0  0  0  0  0  0  0  0
    9.8645    6.1107  -60.4147 H   0  0  0  0  0  0  0  0  0  0  0  0
    8.7361    6.0415  -58.1904 H   0  0  0  0  0  0  0  0  0  0  0  0
    7.4347    3.9377  -58.5981 H   0  0  0  0  0  0  0  0  0  0  0  0
    7.7643    4.8101  -60.1380 H   0  0  0  0  0  0  0  0  0  0  0  0
    8.1866    2.3664  -60.3923 H   0  0  0  0  0  0  0  0  0  0  0  0
   10.5253    2.5394  -61.2455 H   0  0  0  0  0  0  0  0  0  0  0  0
    9.5666    4.0022  -61.6722 H   0  0  0  0  0  0  0  0  0  0  0  0
    8.7556    1.8919  -58.0151 H   0  0  0  0  0  0  0  0  0  0  0  0
   10.0682    1.3313  -59.1202 H   0  0  0  0  0  0  0  0  0  0  0  0
   12.2220    2.3440  -56.8710 H   0  0  0  0  0  0  0  0  0  0  0  0
   11.4904   -2.2561  -58.0844 H   0  0  0  0  0  0  0  0  0  0  0  0
   12.1060   -4.6681  -58.2090 H   0  0  0  0  0  0  0  0  0  0  0  0
   12.0879   -6.0704  -56.1477 H   0  0  0  0  0  0  0  0  0  0  0  0
   11.4267   -5.0657  -53.9617 H   0  0  0  0  0  0  0  0  0  0  0  0
   10.8080   -2.6524  -53.8321 H   0  0  0  0  0  0  0  0  0  0  0  0
    9.9735   -1.0823  -52.7358 H   0  0  0  0  0  0  0  0  0  0  0  0
    8.1864   -2.0049  -51.2619 H   0  0  0  0  0  0  0  0  0  0  0  0
    5.8595   -2.2592  -52.1139 H   0  0  0  0  0  0  0  0  0  0  0  0
    5.3056   -1.5705  -54.4440 H   0  0  0  0  0  0  0  0  0  0  0  0
    7.0816   -0.6448  -55.9280 H   0  0  0  0  0  0  0  0  0  0  0  0
    9.0705    4.0629  -56.7150 H   0  0  0  0  0  0  0  0  0  0  0  0
   10.6012    4.9974  -56.9165 H   0  0  0  0  0  0  0  0  0  0  0  0
  1  2  1  0
  2  3  1  0
  3  4  1  0
  4  5  1  0
  5  6  1  0
  6  7  1  0
  7  8  1  0
  7  9  1  0
  9 10  1  0
 10 11  1  1
 11 12  1  0
 12 13  1  0
 13 14  2  0
 14 15  1  0
 15 16  2  0
 16 17  1  0
 17 18  2  0
 18 19  1  0
 19 20  2  0
 14 21  1  0
 21 22  1  0
 22 23  2  0
 23 24  1  0
 24 25  2  0
 25 26  1  0
 26 27  2  0
 21 28  1  0
 10 29  1  0
 10  2  1  0
 28 12  2  0
  8  3  1  0
 20 15  1  0
 27 22  1  0
 29  5  1  0
  1 30  1  0
  1 31  1  0
  1 32  1  0
  2 33  1  6
  3 34  1  6
  4 35  1  0
  4 36  1  0
  5 37  1  1
  6 38  1  0
  6 39  1  0
  7 40  1  6
  8 41  1  0
  8 42  1  0
  9 43  1  0
  9 44  1  0
 11 45  1  0
 16 46  1  0
 17 47  1  0
 18 48  1  0
 19 49  1  0
 20 50  1  0
 23 51  1  0
 24 52  1  0
 25 53  1  0
 26 54  1  0
 27 55  1  0
 29 56  1  0
 29 57  1  0
M  END
>  <meeko>  (140) 
{"is_sidechain": false}

$$$$

     RDKit          3D

 57 62  0  0  0  0  0  0  0  0999 V2000
   10.7670   -2.0230  -54.6340 C   0  0  0  0  0  0  0  0  0  0  0  0
    9.7860   -1.5310  -53.5630 C   0  0  2  0  0  0  0  0  0  0  0  0
    9.1530   -2.7300  -52.8040 C   0  0  2  0  0  0  0  0  0  0  0  0
    8.1650   -3.4950  -53.7070 C   0  0  0  0  0  0  0  0  0  0  0  0
    7.0340   -2.5610  -54.1720 C   0  0  1  0  0  0  0  0  0  0  0  0
    6.2850   -2.0270  -52.9420 C   0  0  0  0  0  0  0  0  0  0  0  0
    7.2570   -1.2600  -52.0370 C   0  0  1  0  0  0  0  0  0  0  0  0
    8.3830   -2.1980  -51.5810 C   0  0  0  0  0  0  0  0  0  0  0  0
    7.8630   -0.0960  -52.8330 C   0  0  0  0  0  0  0  0  0  0  0  0
    8.6470   -0.6030  -54.0850 C   0  0  1  0  0  0  0  0  0  0  0  0
    9.1790    0.6230  -54.6850 N   0  0  0  0  0  0  0  0  0  0  0  0
    8.6320    1.3190  -55.6050 C   0  0  0  0  0  0  0  0  0  0  0  0
    7.4600    0.9950  -56.2480 N   0  0  0  0  0  0  0  0  0  0  0  0
    7.4000    1.8480  -57.2550 C   0  0  0  0  0  0  0  0  0  0  0  0
    6.2380    1.8540  -58.1750 C   0  0  0  0  0  0  0  0  0  0  0  0
    5.1140    2.6190  -57.8440 C   0  0  0  0  0  0  0  0  0  0  0  0
    4.0110    2.6440  -58.7000 C   0  0  0  0  0  0  0  0  0  0  0  0
    4.0340    1.9150  -59.8890 C   0  0  0  0  0  0  0  0  0  0  0  0
    5.1610    1.1660  -60.2290 C   0  0  0  0  0  0  0  0  0  0  0  0
    6.2670    1.1390  -59.3760 C   0  0  0  0  0  0  0  0  0  0  0  0
    8.4850    2.7280  -57.2870 N   0  0  0  0  0  0  0  0  0  0  0  0
    9.1320    3.2730  -58.4260 C   0  0  0  0  0  0  0  0  0  0  0  0
    9.5890    2.4850  -59.4920 C   0  0  0  0  0  0  0  0  0  0  0  0
   10.2340    3.0640  -60.5900 C   0  0  0  0  0  0  0  0  0  0  0  0
   10.4380    4.4410  -60.6350 C   0  0  0  0  0  0  0  0  0  0  0  0
   10.0040    5.2400  -59.5820 C   0  0  0  0  0  0  0  0  0  0  0  0
    9.3620    4.6590  -58.4860 C   0  0  0  0  0  0  0  0  0  0  0  0
    9.2070    2.4530  -56.1410 N   0  0  0  0  0  0  0  0  0  0  0  0
    7.6380   -1.3820  -54.9590 C   0  0  0  0  0  0  0  0  0  0  0  0
   11.6490   -2.4654  -54.1479 H   0  0  0  0  0  0  0  0  0  0  0  0
   10.2752   -2.7811  -55.2612 H   0  0  0  0  0  0  0  0  0  0  0  0
   11.0805   -1.1754  -55.2612 H   0  0  0  0  0  0  0  0  0  0  0  0
   10.4017   -0.9164  -52.8898 H   0  0  0  0  0  0  0  0  0  0  0  0
    9.9591   -3.4123  -52.4962 H   0  0  0  0  0  0  0  0  0  0  0  0
    8.7014   -3.8812  -54.5863 H   0  0  0  0  0  0  0  0  0  0  0  0
    7.7293   -4.3279  -53.1357 H   0  0  0  0  0  0  0  0  0  0  0  0
    6.3361   -3.1132  -54.8185 H   0  0  0  0  0  0  0  0  0  0  0  0
    5.4800   -1.3523  -53.2687 H   0  0  0  0  0  0  0  0  0  0  0  0
    5.8556   -2.8711  -52.3824 H   0  0  0  0  0  0  0  0  0  0  0  0
    6.7203   -0.8771  -51.1564 H   0  0  0  0  0  0  0  0  0  0  0  0
    9.0743   -1.6463  -50.9270 H   0  0  0  0  0  0  0  0  0  0  0  0
    7.9468   -3.0457  -51.0322 H   0  0  0  0  0  0  0  0  0  0  0  0
    7.0527    0.5699  -53.1646 H   0  0  0  0  0  0  0  0  0  0  0  0
    8.5675    0.4386  -52.1788 H   0  0  0  0  0  0  0  0  0  0  0  0
    5.0993    3.2002  -56.9102 H   0  0  0  0  0  0  0  0  0  0  0  0
    3.1239    3.2387  -58.4366 H   0  0  0  0  0  0  0  0  0  0  0  0
    3.1622    1.9306  -60.5597 H   0  0  0  0  0  0  0  0  0  0  0  0
    5.1787    0.5961  -61.1697 H   0  0  0  0  0  0  0  0  0  0  0  0
    7.1591    0.5562  -59.6488 H   0  0  0  0  0  0  0  0  0  0  0  0
    9.4381    1.3957  -59.4645 H   0  0  0  0  0  0  0  0  0  0  0  0
   10.5808    2.4304  -61.4196 H   0  0  0  0  0  0  0  0  0  0  0  0
   10.9411    4.8958  -61.5011 H   0  0  0  0  0  0  0  0  0  0  0  0
   10.1662    6.3275  -59.6125 H   0  0  0  0  0  0  0  0  0  0  0  0
    9.0301    5.2976  -57.6541 H   0  0  0  0  0  0  0  0  0  0  0  0
   10.2100    2.3440  -56.2280 H   0  0  0  0  0  0  0  0  0  0  0  0
    6.8300   -0.7034  -55.2699 H   0  0  0  0  0  0  0  0  0  0  0  0
    8.1642   -1.7771  -55.8405 H   0  0  0  0  0  0  0  0  0  0  0  0
  1  2  1  0
  2  3  1  0
  3  4  1  0
  4  5  1  0
  5  6  1  0
  6  7  1  0
  7  8  1  0
  7  9  1  0
  9 10  1  0
 10 11  1  6
 11 12  2  0
 12 13  1  0
 13 14  2  0
 14 15  1  0
 15 16  2  0
 16 17  1  0
 17 18  2  0
 18 19  1  0
 19 20  2  0
 14 21  1  0
 21 22  1  0
 22 23  2  0
 23 24  1  0
 24 25  2  0
 25 26  1  0
 26 27  2  0
 21 28  1  0
 10 29  1  0
 10  2  1  0
 28 12  1  0
  8  3  1  0
 20 15  1  0
 27 22  1  0
 29  5  1  0
  1 30  1  0
  1 31  1  0
  1 32  1  0
  2 33  1  1
  3 34  1  1
  4 35  1  0
  4 36  1  0
  5 37  1  6
  6 38  1  0
  6 39  1  0
  7 40  1  1
  8 41  1  0
  8 42  1  0
  9 43  1  0
  9 44  1  0
 16 45  1  0
 17 46  1  0
 18 47  1  0
 19 48  1  0
 20 49  1  0
 23 50  1  0
 24 51  1  0
 25 52  1  0
 26 53  1  0
 27 54  1  0
 28 55  1  0
 29 56  1  0
 29 57  1  0
M  END
>  <meeko>  (141) 
{"is_sidechain": false}

$$$$

     RDKit          3D

 57 62  0  0  0  0  0  0  0  0999 V2000
    6.5290    2.6480  -57.6960 C   0  0  0  0  0  0  0  0  0  0  0  0
    7.7660    3.4380  -57.2390 C   0  0  2  0  0  0  0  0  0  0  0  0
    8.2720    4.3890  -58.3540 C   0  0  2  0  0  0  0  0  0  0  0  0
    8.8800    3.5870  -59.5190 C   0  0  0  0  0  0  0  0  0  0  0  0
   10.0450    2.7240  -59.0110 C   0  0  1  0  0  0  0  0  0  0  0  0
   11.1240    3.6420  -58.4100 C   0  0  0  0  0  0  0  0  0  0  0  0
   10.5330    4.4600  -57.2480 C   0  0  1  0  0  0  0  0  0  0  0  0
    9.3600    5.3040  -57.7650 C   0  0  0  0  0  0  0  0  0  0  0  0
   10.0290    3.4960  -56.1580 C   0  0  0  0  0  0  0  0  0  0  0  0
    8.9520    2.5420  -56.7350 C   0  0  1  0  0  0  0  0  0  0  0  0
    8.4050    1.6520  -55.7140 N   0  0  0  0  0  0  0  0  0  0  0  0
    8.9560    0.5930  -55.2760 C   0  0  0  0  0  0  0  0  0  0  0  0
    8.2610   -0.1090  -54.3080 N   0  0  0  0  0  0  0  0  0  0  0  0
    8.9670   -1.2100  -54.1320 C   0  0  0  0  0  0  0  0  0  0  0  0
    8.5700   -2.2080  -53.1110 C   0  0  0  0  0  0  0  0  0  0  0  0
    7.4040   -2.9560  -53.3070 C   0  0  0  0  0  0  0  0  0  0  0  0
    7.0090   -3.8970  -52.3550 C   0  0  0  0  0  0  0  0  0  0  0  0
    7.7710   -4.0830  -51.2010 C   0  0  0  0  0  0  0  0  0  0  0  0
    8.9220   -3.3250  -50.9930 C   0  0  0  0  0  0  0  0  0  0  0  0
    9.3210   -2.3820  -51.9430 C   0  0  0  0  0  0  0  0  0  0  0  0
   10.1000   -1.2630  -54.9450 N   0  0  0  0  0  0  0  0  0  0  0  0
   10.6990   -2.4090  -55.5290 C   0  0  0  0  0  0  0  0  0  0  0  0
   10.4510   -3.7140  -55.0780 C   0  0  0  0  0  0  0  0  0  0  0  0
   11.0530   -4.8140  -55.6950 C   0  0  0  0  0  0  0  0  0  0  0  0
   11.9060   -4.6300  -56.7790 C   0  0  0  0  0  0  0  0  0  0  0  0
   12.1570   -3.3450  -57.2510 C   0  0  0  0  0  0  0  0  0  0  0  0
   11.5540   -2.2460  -56.6330 C   0  0  0  0  0  0  0  0  0  0  0  0
   10.1300   -0.0510  -55.6140 N   0  0  0  0  0  0  0  0  0  0  0  0
    9.5410    1.7550  -57.9260 C   0  0  0  0  0  0  0  0  0  0  0  0
    5.9741    2.2936  -56.8148 H   0  0  0  0  0  0  0  0  0  0  0  0
    5.8804    3.2995  -58.3001 H   0  0  0  0  0  0  0  0  0  0  0  0
    6.8473    1.7856  -58.3001 H   0  0  0  0  0  0  0  0  0  0  0  0
    7.4212    4.0241  -56.3744 H   0  0  0  0  0  0  0  0  0  0  0  0
    7.4239    4.9792  -58.7315 H   0  0  0  0  0  0  0  0  0  0  0  0
    8.1079    2.9363  -59.9554 H   0  0  0  0  0  0  0  0  0  0  0  0
    9.2540    4.2856  -60.2820 H   0  0  0  0  0  0  0  0  0  0  0  0
   10.4654    2.1458  -59.8470 H   0  0  0  0  0  0  0  0  0  0  0  0
   11.9572    3.0285  -58.0366 H   0  0  0  0  0  0  0  0  0  0  0  0
   11.4862    4.3302  -59.1879 H   0  0  0  0  0  0  0  0  0  0  0  0
   11.3047    5.1226  -56.8292 H   0  0  0  0  0  0  0  0  0  0  0  0
    8.9356    5.8858  -56.9335 H   0  0  0  0  0  0  0  0  0  0  0  0
    9.7230    5.9842  -58.5495 H   0  0  0  0  0  0  0  0  0  0  0  0
   10.8744    2.9020  -55.7806 H   0  0  0  0  0  0  0  0  0  0  0  0
    9.5843    4.0830  -55.3409 H   0  0  0  0  0  0  0  0  0  0  0  0
    6.7981   -2.8023  -54.2121 H   0  0  0  0  0  0  0  0  0  0  0  0
    6.0974   -4.4917  -52.5143 H   0  0  0  0  0  0  0  0  0  0  0  0
    7.4627   -4.8293  -50.4540 H   0  0  0  0  0  0  0  0  0  0  0  0
    9.5171   -3.4696  -50.0793 H   0  0  0  0  0  0  0  0  0  0  0  0
   10.2240   -1.7772  -51.7734 H   0  0  0  0  0  0  0  0  0  0  0  0
    9.7731   -3.8737  -54.2266 H   0  0  0  0  0  0  0  0  0  0  0  0
   10.8518   -5.8292  -55.3223 H   0  0  0  0  0  0  0  0  0  0  0  0
   12.3804   -5.4974  -57.2613 H   0  0  0  0  0  0  0  0  0  0  0  0
   12.8288   -3.1946  -58.1089 H   0  0  0  0  0  0  0  0  0  0  0  0
   11.7521   -1.2346  -57.0176 H   0  0  0  0  0  0  0  0  0  0  0  0
   10.2640   -0.1080  -56.6150 H   0  0  0  0  0  0  0  0  0  0  0  0
   10.3801    1.1373  -57.5732 H   0  0  0  0  0  0  0  0  0  0  0  0
    8.7558    1.1152  -58.3550 H   0  0  0  0  0  0  0  0  0  0  0  0
  1  2  1  0
  2  3  1  0
  3  4  1  0
  4  5  1  0
  5  6  1  0
  6  7  1  0
  7  8  1  0
  7  9  1  0
  9 10  1  0
 10 11  1  1
 11 12  2  0
 12 13  1  0
 13 14  2  0
 14 15  1  0
 15 16  2  0
 16 17  1  0
 17 18  2  0
 18 19  1  0
 19 20  2  0
 14 21  1  0
 21 22  1  0
 22 23  2  0
 23 24  1  0
 24 25  2  0
 25 26  1  0
 26 27  2  0
 21 28  1  0
 10 29  1  0
 10  2  1  0
 28 12  1  0
  8  3  1  0
 20 15  1  0
 27 22  1  0
 29  5  1  0
  1 30  1  0
  1 31  1  0
  1 32  1  0
  2 33  1  1
  3 34  1  6
  4 35  1  0
  4 36  1  0
  5 37  1  6
  6 38  1  0
  6 39  1  0
  7 40  1  1
  8 41  1  0
  8 42  1  0
  9 43  1  0
  9 44  1  0
 16 45  1  0
 17 46  1  0
 18 47  1  0
 19 48  1  0
 20 49  1  0
 23 50  1  0
 24 51  1  0
 25 52  1  0
 26 53  1  0
 27 54  1  0
 28 55  1  0
 29 56  1  0
 29 57  1  0
M  END
>  <meeko>  (142) 
{"is_sidechain": false}

$$$$

     RDKit          3D

 63 68  0  0  0  0  0  0  0  0999 V2000
   10.4890   -2.9930  -53.2000 O   0  0  0  0  0  0  0  0  0  0  0  0
   10.1370   -2.9070  -54.6040 S   0  0  0  0  0  0  0  0  0  0  0  0
    9.2460   -3.8670  -55.2280 O   0  0  0  0  0  0  0  0  0  0  0  0
   11.5930   -2.6460  -55.6090 C   0  0  0  0  0  0  0  0  0  0  0  0
   11.8210   -3.8630  -56.4680 C   0  0  0  0  0  0  0  0  0  0  0  0
   12.1830   -5.0870  -55.8860 C   0  0  0  0  0  0  0  0  0  0  0  0
   12.4020   -6.2110  -56.6830 C   0  0  0  0  0  0  0  0  0  0  0  0
   12.2640   -6.1240  -58.0670 C   0  0  0  0  0  0  0  0  0  0  0  0
   11.9090   -4.9120  -58.6560 C   0  0  0  0  0  0  0  0  0  0  0  0
   11.6890   -3.7860  -57.8620 C   0  0  0  0  0  0  0  0  0  0  0  0
    9.2900   -1.3820  -54.7530 C   0  0  0  0  0  0  0  0  0  0  0  0
    9.8190   -0.2420  -55.1600 N   0  0  0  0  0  0  0  0  0  0  0  0
    8.7660    0.6160  -55.1740 C   0  0  0  0  0  0  0  0  0  0  0  0
    8.8980    1.8950  -55.5460 N   0  0  0  0  0  0  0  0  0  0  0  0
    8.7370    2.3980  -56.9060 C   0  0  2  0  0  0  0  0  0  0  0  0
    7.3630    2.0160  -57.5070 C   0  0  0  0  0  0  0  0  0  0  0  0
    7.2040    2.6220  -58.9140 C   0  0  1  0  0  0  0  0  0  0  0  0
    7.2850    4.1530  -58.8210 C   0  0  0  0  0  0  0  0  0  0  0  0
    8.6430    4.5700  -58.2380 C   0  0  2  0  0  0  0  0  0  0  0  0
    9.7690    4.0540  -59.1490 C   0  0  0  0  0  0  0  0  0  0  0  0
    9.7050    2.5220  -59.2450 C   0  0  2  0  0  0  0  0  0  0  0  0
    8.3380    2.1060  -59.8180 C   0  0  0  0  0  0  0  0  0  0  0  0
    9.8730    1.9160  -57.8400 C   0  0  0  0  0  0  0  0  0  0  0  0
    8.8040    3.9510  -56.8400 C   0  0  0  0  0  0  0  0  0  0  0  0
    7.6060    0.0800  -54.8030 N   0  0  0  0  0  0  0  0  0  0  0  0
    7.9650   -1.1890  -54.5030 N   0  0  0  0  0  0  0  0  0  0  0  0
    6.9640   -2.1470  -54.0640 C   0  0  0  0  0  0  0  0  0  0  0  0
    7.2320   -2.6420  -52.6630 C   0  0  0  0  0  0  0  0  0  0  0  0
    7.5850   -1.7480  -51.6430 C   0  0  0  0  0  0  0  0  0  0  0  0
    7.8310   -2.2120  -50.3490 C   0  0  0  0  0  0  0  0  0  0  0  0
    7.7290   -3.5710  -50.0600 C   0  0  0  0  0  0  0  0  0  0  0  0
    7.3780   -4.4700  -51.0650 C   0  0  0  0  0  0  0  0  0  0  0  0
    7.1320   -4.0090  -52.3590 C   0  0  0  0  0  0  0  0  0  0  0  0
   11.4454   -1.7645  -56.2502 H   0  0  0  0  0  0  0  0  0  0  0  0
   12.4665   -2.4793  -54.9615 H   0  0  0  0  0  0  0  0  0  0  0  0
   12.2949   -5.1611  -54.7942 H   0  0  0  0  0  0  0  0  0  0  0  0
   12.6840   -7.1673  -56.2182 H   0  0  0  0  0  0  0  0  0  0  0  0
   12.4352   -7.0114  -58.6941 H   0  0  0  0  0  0  0  0  0  0  0  0
   11.8021   -4.8429  -59.7486 H   0  0  0  0  0  0  0  0  0  0  0  0
   11.4102   -2.8316  -58.3326 H   0  0  0  0  0  0  0  0  0  0  0  0
    9.5480    2.4170  -54.9690 H   0  0  0  0  0  0  0  0  0  0  0  0
    7.2888    0.9205  -57.5739 H   0  0  0  0  0  0  0  0  0  0  0  0
    6.5678    2.4103  -56.8572 H   0  0  0  0  0  0  0  0  0  0  0  0
    6.2309    2.3298  -59.3356 H   0  0  0  0  0  0  0  0  0  0  0  0
    7.1710    4.5860  -59.8257 H   0  0  0  0  0  0  0  0  0  0  0  0
    6.4814    4.5190  -58.1650 H   0  0  0  0  0  0  0  0  0  0  0  0
    8.6944    5.6667  -58.1698 H   0  0  0  0  0  0  0  0  0  0  0  0
    9.6527    4.4873  -60.1533 H   0  0  0  0  0  0  0  0  0  0  0  0
   10.7405    4.3496  -58.7260 H   0  0  0  0  0  0  0  0  0  0  0  0
   10.5086    2.1587  -59.9024 H   0  0  0  0  0  0  0  0  0  0  0  0
    8.2216    2.5314  -60.8257 H   0  0  0  0  0  0  0  0  0  0  0  0
    8.2877    1.0082  -59.8660 H   0  0  0  0  0  0  0  0  0  0  0  0
    9.8420    0.8188  -57.9123 H   0  0  0  0  0  0  0  0  0  0  0  0
   10.8386    2.2399  -57.4245 H   0  0  0  0  0  0  0  0  0  0  0  0
    9.7767    4.2516  -56.4235 H   0  0  0  0  0  0  0  0  0  0  0  0
    7.9834    4.3101  -56.2015 H   0  0  0  0  0  0  0  0  0  0  0  0
    5.9759   -1.6642  -54.0873 H   0  0  0  0  0  0  0  0  0  0  0  0
    7.0000   -3.0117  -54.7429 H   0  0  0  0  0  0  0  0  0  0  0  0
    7.6689   -0.6735  -51.8632 H   0  0  0  0  0  0  0  0  0  0  0  0
    8.1063   -1.5020  -49.5552 H   0  0  0  0  0  0  0  0  0  0  0  0
    7.9252   -3.9337  -49.0402 H   0  0  0  0  0  0  0  0  0  0  0  0
    7.2948   -5.5432  -50.8384 H   0  0  0  0  0  0  0  0  0  0  0  0
    6.8570   -4.7238  -53.1486 H   0  0  0  0  0  0  0  0  0  0  0  0
  1  2  2  0
  2  3  2  0
  2  4  1  0
  4  5  1  0
  5  6  2  0
  6  7  1  0
  7  8  2  0
  8  9  1  0
  9 10  2  0
  2 11  1  0
 11 12  2  0
 12 13  1  0
 13 14  1  0
 15 14  1  1
 15 16  1  0
 16 17  1  0
 17 18  1  0
 18 19  1  0
 19 20  1  0
 20 21  1  0
 21 22  1  0
 21 23  1  0
 19 24  1  0
 13 25  2  0
 25 26  1  0
 26 27  1  0
 27 28  1  0
 28 29  2  0
 29 30  1  0
 30 31  2  0
 31 32  1  0
 32 33  2  0
 10  5  1  0
 26 11  1  0
 33 28  1  0
 23 15  1  0
 24 15  1  0
 22 17  1  0
  4 34  1  0
  4 35  1  0
  6 36  1  0
  7 37  1  0
  8 38  1  0
  9 39  1  0
 10 40  1  0
 14 41  1  0
 16 42  1  0
 16 43  1  0
 17 44  1  6
 18 45  1  0
 18 46  1  0
 19 47  1  1
 20 48  1  0
 20 49  1  0
 21 50  1  6
 22 51  1  0
 22 52  1  0
 23 53  1  0
 23 54  1  0
 24 55  1  0
 24 56  1  0
 27 57  1  0
 27 58  1  0
 29 59  1  0
 30 60  1  0
 31 61  1  0
 32 62  1  0
 33 63  1  0
M  END
>  <meeko>  (143) 
{"is_sidechain": false}

$$$$

     RDKit          3D

 63 68  0  0  0  0  0  0  0  0999 V2000
   10.8660   -1.9040  -53.0930 O   0  0  0  0  0  0  0  0  0  0  0  0
   10.7340   -1.8680  -54.5390 S   0  0  0  0  0  0  0  0  0  0  0  0
   11.8360   -1.4080  -55.3670 O   0  0  0  0  0  0  0  0  0  0  0  0
   10.1410   -3.4420  -55.1460 C   0  0  0  0  0  0  0  0  0  0  0  0
   11.1740   -4.0520  -56.0550 C   0  0  0  0  0  0  0  0  0  0  0  0
   11.1950   -3.7370  -57.4220 C   0  0  0  0  0  0  0  0  0  0  0  0
   12.1510   -4.3050  -58.2640 C   0  0  0  0  0  0  0  0  0  0  0  0
   13.0960   -5.1920  -57.7520 C   0  0  0  0  0  0  0  0  0  0  0  0
   13.0830   -5.5150  -56.3970 C   0  0  0  0  0  0  0  0  0  0  0  0
   12.1290   -4.9480  -55.5510 C   0  0  0  0  0  0  0  0  0  0  0  0
    9.3750   -0.8180  -54.9370 C   0  0  0  0  0  0  0  0  0  0  0  0
    9.4790    0.2010  -55.7650 N   0  0  0  0  0  0  0  0  0  0  0  0
    8.2260    0.7740  -55.7110 C   0  0  0  0  0  0  0  0  0  0  0  0
    7.9170    1.8900  -56.2490 N   0  0  0  0  0  0  0  0  0  0  0  0
    8.8520    2.6980  -57.0380 C   0  0  2  0  0  0  0  0  0  0  0  0
    9.9690    3.3210  -56.1730 C   0  0  0  0  0  0  0  0  0  0  0  0
   10.8570    4.2410  -57.0330 C   0  0  1  0  0  0  0  0  0  0  0  0
   11.4630    3.4230  -58.1880 C   0  0  0  0  0  0  0  0  0  0  0  0
   10.3470    2.8400  -59.0730 C   0  0  2  0  0  0  0  0  0  0  0  0
    9.4940    3.9880  -59.6360 C   0  0  0  0  0  0  0  0  0  0  0  0
    8.8770    4.7960  -58.4830 C   0  0  2  0  0  0  0  0  0  0  0  0
   10.0010    5.3770  -57.6110 C   0  0  0  0  0  0  0  0  0  0  0  0
    8.0070    3.8620  -57.6250 C   0  0  0  0  0  0  0  0  0  0  0  0
    9.4570    1.9140  -58.2240 C   0  0  0  0  0  0  0  0  0  0  0  0
    7.3530    0.0200  -54.9480 N   0  0  0  0  0  0  0  0  0  0  0  0
    8.1180   -0.9870  -54.3580 N   0  0  0  0  0  0  0  0  0  0  0  0
    7.4620   -2.2750  -54.1130 C   0  0  0  0  0  0  0  0  0  0  0  0
    7.5260   -2.7330  -52.6680 C   0  0  0  0  0  0  0  0  0  0  0  0
    7.7560   -1.8310  -51.6170 C   0  0  0  0  0  0  0  0  0  0  0  0
    7.8190   -2.2760  -50.2950 C   0  0  0  0  0  0  0  0  0  0  0  0
    7.6710   -3.6300  -50.0060 C   0  0  0  0  0  0  0  0  0  0  0  0
    7.4660   -4.5410  -51.0380 C   0  0  0  0  0  0  0  0  0  0  0  0
    7.3990   -4.0970  -52.3600 C   0  0  0  0  0  0  0  0  0  0  0  0
    9.9563   -4.1162  -54.2967 H   0  0  0  0  0  0  0  0  0  0  0  0
    9.2056   -3.2902  -55.7046 H   0  0  0  0  0  0  0  0  0  0  0  0
   10.4523   -3.0372  -57.8327 H   0  0  0  0  0  0  0  0  0  0  0  0
   12.1590   -4.0522  -59.3345 H   0  0  0  0  0  0  0  0  0  0  0  0
   13.8512   -5.6365  -58.4169 H   0  0  0  0  0  0  0  0  0  0  0  0
   13.8261   -6.2183  -55.9931 H   0  0  0  0  0  0  0  0  0  0  0  0
   12.1256   -5.2053  -54.4815 H   0  0  0  0  0  0  0  0  0  0  0  0
    9.5151    3.9089  -55.3616 H   0  0  0  0  0  0  0  0  0  0  0  0
   10.5884    2.5155  -55.7518 H   0  0  0  0  0  0  0  0  0  0  0  0
   11.6624    4.6637  -56.4144 H   0  0  0  0  0  0  0  0  0  0  0  0
   12.1053    4.0760  -58.7971 H   0  0  0  0  0  0  0  0  0  0  0  0
   12.0555    2.5965  -57.7686 H   0  0  0  0  0  0  0  0  0  0  0  0
   10.7915    2.2688  -59.9013 H   0  0  0  0  0  0  0  0  0  0  0  0
   10.1281    4.6484  -60.2457 H   0  0  0  0  0  0  0  0  0  0  0  0
    8.6880    3.5694  -60.2566 H   0  0  0  0  0  0  0  0  0  0  0  0
    8.2629    5.6132  -58.8893 H   0  0  0  0  0  0  0  0  0  0  0  0
   10.6345    6.0350  -58.2239 H   0  0  0  0  0  0  0  0  0  0  0  0
    9.5569    5.9512  -56.7845 H   0  0  0  0  0  0  0  0  0  0  0  0
    7.5664    4.4391  -56.7986 H   0  0  0  0  0  0  0  0  0  0  0  0
    7.2173    3.4358  -58.2612 H   0  0  0  0  0  0  0  0  0  0  0  0
    8.6442    1.5169  -58.8498 H   0  0  0  0  0  0  0  0  0  0  0  0
   10.0681    1.0867  -57.8338 H   0  0  0  0  0  0  0  0  0  0  0  0
    6.7630    0.6000  -54.3570 H   0  0  0  0  0  0  0  0  0  0  0  0
    6.4042   -2.1852  -54.4012 H   0  0  0  0  0  0  0  0  0  0  0  0
    8.0004   -3.0259  -54.7099 H   0  0  0  0  0  0  0  0  0  0  0  0
    7.8881   -0.7615  -51.8375 H   0  0  0  0  0  0  0  0  0  0  0  0
    7.9858   -1.5557  -49.4805 H   0  0  0  0  0  0  0  0  0  0  0  0
    7.7160   -3.9790  -48.9638 H   0  0  0  0  0  0  0  0  0  0  0  0
    7.3566   -5.6119  -50.8119 H   0  0  0  0  0  0  0  0  0  0  0  0
    7.2448   -4.8248  -53.1703 H   0  0  0  0  0  0  0  0  0  0  0  0
  1  2  2  0
  2  3  2  0
  2  4  1  0
  4  5  1  0
  5  6  2  0
  6  7  1  0
  7  8  2  0
  8  9  1  0
  9 10  2  0
  2 11  1  0
 11 12  2  0
 12 13  1  0
 13 14  2  0
 15 14  1  1
 15 16  1  0
 16 17  1  0
 17 18  1  0
 18 19  1  0
 19 20  1  0
 20 21  1  0
 21 22  1  0
 21 23  1  0
 19 24  1  0
 13 25  1  0
 25 26  1  0
 26 27  1  0
 27 28  1  0
 28 29  2  0
 29 30  1  0
 30 31  2  0
 31 32  1  0
 32 33  2  0
 10  5  1  0
 26 11  1  0
 33 28  1  0
 23 15  1  0
 24 15  1  0
 22 17  1  0
  4 34  1  0
  4 35  1  0
  6 36  1  0
  7 37  1  0
  8 38  1  0
  9 39  1  0
 10 40  1  0
 16 41  1  0
 16 42  1  0
 17 43  1  1
 18 44  1  0
 18 45  1  0
 19 46  1  6
 20 47  1  0
 20 48  1  0
 21 49  1  6
 22 50  1  0
 22 51  1  0
 23 52  1  0
 23 53  1  0
 24 54  1  0
 24 55  1  0
 25 56  1  0
 27 57  1  0
 27 58  1  0
 29 59  1  0
 30 60  1  0
 31 61  1  0
 32 62  1  0
 33 63  1  0
M  END
>  <meeko>  (144) 
{"is_sidechain": false}

$$$$

     RDKit          3D

 63 68  0  0  0  0  0  0  0  0999 V2000
    6.6780   -2.5580  -54.2050 O   0  0  0  0  0  0  0  0  0  0  0  0
    6.4330   -1.2030  -53.7350 S   0  0  0  0  0  0  0  0  0  0  0  0
    5.0700   -0.6960  -53.7140 O   0  0  0  0  0  0  0  0  0  0  0  0
    7.1130   -1.0470  -52.0950 C   0  0  0  0  0  0  0  0  0  0  0  0
    7.3270   -2.3860  -51.4400 C   0  0  0  0  0  0  0  0  0  0  0  0
    8.5870   -2.7770  -50.9670 C   0  0  0  0  0  0  0  0  0  0  0  0
    8.7680   -4.0310  -50.3820 C   0  0  0  0  0  0  0  0  0  0  0  0
    7.6890   -4.9020  -50.2440 C   0  0  0  0  0  0  0  0  0  0  0  0
    6.4260   -4.5160  -50.6830 C   0  0  0  0  0  0  0  0  0  0  0  0
    6.2440   -3.2640  -51.2730 C   0  0  0  0  0  0  0  0  0  0  0  0
    7.3890   -0.1220  -54.7480 C   0  0  0  0  0  0  0  0  0  0  0  0
    6.9780    0.3620  -55.8970 N   0  0  0  0  0  0  0  0  0  0  0  0
    7.9980    1.2140  -56.2720 C   0  0  0  0  0  0  0  0  0  0  0  0
    7.7960    1.9270  -57.3050 N   0  0  0  0  0  0  0  0  0  0  0  0
    8.7310    2.9020  -57.8530 C   0  0  2  0  0  0  0  0  0  0  0  0
    8.1540    3.3150  -59.2350 C   0  0  0  0  0  0  0  0  0  0  0  0
    9.0460    4.3680  -59.9100 C   0  0  1  0  0  0  0  0  0  0  0  0
    9.1320    5.6090  -59.0060 C   0  0  0  0  0  0  0  0  0  0  0  0
    9.7160    5.2210  -57.6380 C   0  0  2  0  0  0  0  0  0  0  0  0
   11.1200    4.6230  -57.8370 C   0  0  0  0  0  0  0  0  0  0  0  0
   11.0480    3.3830  -58.7460 C   0  0  2  0  0  0  0  0  0  0  0  0
   10.4540    3.7840  -60.1060 C   0  0  0  0  0  0  0  0  0  0  0  0
   10.1430    2.3250  -58.0870 C   0  0  0  0  0  0  0  0  0  0  0  0
    8.8050    4.1710  -56.9770 C   0  0  0  0  0  0  0  0  0  0  0  0
    9.0560    1.1500  -55.3800 N   0  0  0  0  0  0  0  0  0  0  0  0
    8.6390    0.3340  -54.3230 N   0  0  0  0  0  0  0  0  0  0  0  0
    9.6650   -0.5160  -53.7160 C   0  0  0  0  0  0  0  0  0  0  0  0
   10.1730   -1.5340  -54.7110 C   0  0  0  0  0  0  0  0  0  0  0  0
   11.0690   -1.1600  -55.7220 C   0  0  0  0  0  0  0  0  0  0  0  0
   11.5450   -2.1030  -56.6350 C   0  0  0  0  0  0  0  0  0  0  0  0
   11.1390   -3.4330  -56.5410 C   0  0  0  0  0  0  0  0  0  0  0  0
   10.2640   -3.8230  -55.5310 C   0  0  0  0  0  0  0  0  0  0  0  0
    9.7870   -2.8800  -54.6180 C   0  0  0  0  0  0  0  0  0  0  0  0
    8.0794   -0.5256  -52.1600 H   0  0  0  0  0  0  0  0  0  0  0  0
    6.3945   -0.4819  -51.4831 H   0  0  0  0  0  0  0  0  0  0  0  0
    9.4408   -2.0894  -51.0577 H   0  0  0  0  0  0  0  0  0  0  0  0
    9.7651   -4.3327  -50.0289 H   0  0  0  0  0  0  0  0  0  0  0  0
    7.8353   -5.8927  -49.7890 H   0  0  0  0  0  0  0  0  0  0  0  0
    5.5708   -5.1977  -50.5650 H   0  0  0  0  0  0  0  0  0  0  0  0
    5.2416   -2.9621  -51.6107 H   0  0  0  0  0  0  0  0  0  0  0  0
    8.0947    2.4263  -59.8805 H   0  0  0  0  0  0  0  0  0  0  0  0
    7.1540    3.7474  -59.0829 H   0  0  0  0  0  0  0  0  0  0  0  0
    8.6216    4.6481  -60.8854 H   0  0  0  0  0  0  0  0  0  0  0  0
    9.7806    6.3607  -59.4794 H   0  0  0  0  0  0  0  0  0  0  0  0
    8.1233    6.0242  -58.8643 H   0  0  0  0  0  0  0  0  0  0  0  0
    9.7807    6.1118  -56.9959 H   0  0  0  0  0  0  0  0  0  0  0  0
   11.7729    5.3764  -58.3019 H   0  0  0  0  0  0  0  0  0  0  0  0
   11.5248    4.3264  -56.8582 H   0  0  0  0  0  0  0  0  0  0  0  0
   12.0570    2.9699  -58.8915 H   0  0  0  0  0  0  0  0  0  0  0  0
   11.0998    4.5393  -60.5776 H   0  0  0  0  0  0  0  0  0  0  0  0
   10.3907    2.8945  -60.7500 H   0  0  0  0  0  0  0  0  0  0  0  0
   10.0720    1.4467  -58.7455 H   0  0  0  0  0  0  0  0  0  0  0  0
   10.5769    2.0347  -57.1188 H   0  0  0  0  0  0  0  0  0  0  0  0
    9.2114    3.9075  -55.9894 H   0  0  0  0  0  0  0  0  0  0  0  0
    7.7942    4.5909  -56.8674 H   0  0  0  0  0  0  0  0  0  0  0  0
    9.4300    2.0600  -55.1360 H   0  0  0  0  0  0  0  0  0  0  0  0
   10.5038    0.1127  -53.3825 H   0  0  0  0  0  0  0  0  0  0  0  0
    9.2229   -1.0478  -52.8606 H   0  0  0  0  0  0  0  0  0  0  0  0
   11.4002   -0.1137  -55.7968 H   0  0  0  0  0  0  0  0  0  0  0  0
   12.2412   -1.7959  -57.4294 H   0  0  0  0  0  0  0  0  0  0  0  0
   11.5098   -4.1740  -57.2645 H   0  0  0  0  0  0  0  0  0  0  0  0
    9.9483   -4.8738  -55.4520 H   0  0  0  0  0  0  0  0  0  0  0  0
    9.1016   -3.1956  -53.8176 H   0  0  0  0  0  0  0  0  0  0  0  0
  1  2  2  0
  2  3  2  0
  2  4  1  0
  4  5  1  0
  5  6  2  0
  6  7  1  0
  7  8  2  0
  8  9  1  0
  9 10  2  0
  2 11  1  0
 11 12  2  0
 12 13  1  0
 13 14  2  0
 15 14  1  1
 15 16  1  0
 16 17  1  0
 17 18  1  0
 18 19  1  0
 19 20  1  0
 20 21  1  0
 21 22  1  0
 21 23  1  0
 19 24  1  0
 13 25  1  0
 25 26  1  0
 26 27  1  0
 27 28  1  0
 28 29  2  0
 29 30  1  0
 30 31  2  0
 31 32  1  0
 32 33  2  0
 10  5  1  0
 26 11  1  0
 33 28  1  0
 23 15  1  0
 24 15  1  0
 22 17  1  0
  4 34  1  0
  4 35  1  0
  6 36  1  0
  7 37  1  0
  8 38  1  0
  9 39  1  0
 10 40  1  0
 16 41  1  0
 16 42  1  0
 17 43  1  6
 18 44  1  0
 18 45  1  0
 19 46  1  1
 20 47  1  0
 20 48  1  0
 21 49  1  6
 22 50  1  0
 22 51  1  0
 23 52  1  0
 23 53  1  0
 24 54  1  0
 24 55  1  0
 25 56  1  0
 27 57  1  0
 27 58  1  0
 29 59  1  0
 30 60  1  0
 31 61  1  0
 32 62  1  0
 33 63  1  0
M  END
>  <meeko>  (145) 
{"is_sidechain": false}

$$$$

     RDKit          3D

 44 48  0  0  0  0  0  0  0  0999 V2000
    8.6400   -2.7500  -51.4760 C   0  0  0  0  0  0  0  0  0  0  0  0
    9.6960   -2.6860  -52.3810 C   0  0  0  0  0  0  0  0  0  0  0  0
    9.6620   -1.7650  -53.4310 C   0  0  0  0  0  0  0  0  0  0  0  0
    8.5740   -0.8930  -53.5930 C   0  0  0  0  0  0  0  0  0  0  0  0
    8.5830    0.0550  -54.7090 C   0  0  0  0  0  0  0  0  0  0  0  0
    9.6350    0.4690  -55.3930 N   0  0  0  0  0  0  0  0  0  0  0  0
    9.1220    1.3290  -56.3180 C   0  0  0  0  0  0  0  0  0  0  0  0
   10.0030    1.8940  -57.1540 N   0  0  0  0  0  0  0  0  0  0  0  0
    9.6720    2.8770  -58.1800 C   0  0  2  0  0  0  0  0  0  0  0  0
    8.6020    2.3520  -59.1670 C   0  0  0  0  0  0  0  0  0  0  0  0
    8.3330    3.3920  -60.2700 C   0  0  1  0  0  0  0  0  0  0  0  0
    7.8560    4.7040  -59.6230 C   0  0  0  0  0  0  0  0  0  0  0  0
    8.9360    5.2510  -58.6720 C   0  0  2  0  0  0  0  0  0  0  0  0
   10.2290    5.4990  -59.4630 C   0  0  0  0  0  0  0  0  0  0  0  0
   10.7140    4.1870  -60.1010 C   0  0  2  0  0  0  0  0  0  0  0  0
    9.6310    3.6530  -61.0510 C   0  0  0  0  0  0  0  0  0  0  0  0
   10.9680    3.1520  -58.9940 C   0  0  0  0  0  0  0  0  0  0  0  0
    9.2060    4.2170  -57.5630 C   0  0  0  0  0  0  0  0  0  0  0  0
    7.8050    1.4920  -56.2470 N   0  0  0  0  0  0  0  0  0  0  0  0
    7.4840    0.6740  -55.2370 N   0  0  0  0  0  0  0  0  0  0  0  0
    7.5180   -0.9690  -52.6720 C   0  0  0  0  0  0  0  0  0  0  0  0
    7.5530   -1.8910  -51.6210 C   0  0  0  0  0  0  0  0  0  0  0  0
    8.6639   -3.4759  -50.6499 H   0  0  0  0  0  0  0  0  0  0  0  0
   10.5575   -3.3608  -52.2693 H   0  0  0  0  0  0  0  0  0  0  0  0
   10.5006   -1.7225  -54.1416 H   0  0  0  0  0  0  0  0  0  0  0  0
   10.9350    1.9690  -56.7650 H   0  0  0  0  0  0  0  0  0  0  0  0
    8.9602    1.4195  -59.6276 H   0  0  0  0  0  0  0  0  0  0  0  0
    7.6683    2.1669  -58.6157 H   0  0  0  0  0  0  0  0  0  0  0  0
    7.5602    3.0138  -60.9553 H   0  0  0  0  0  0  0  0  0  0  0  0
    7.6557    5.4456  -60.4103 H   0  0  0  0  0  0  0  0  0  0  0  0
    6.9381    4.5083  -59.0492 H   0  0  0  0  0  0  0  0  0  0  0  0
    8.5920    6.1941  -58.2222 H   0  0  0  0  0  0  0  0  0  0  0  0
   10.0363    6.2392  -60.2535 H   0  0  0  0  0  0  0  0  0  0  0  0
   11.0039    5.8767  -58.7797 H   0  0  0  0  0  0  0  0  0  0  0  0
   11.6423    4.3691  -60.6624 H   0  0  0  0  0  0  0  0  0  0  0  0
    9.4392    4.3954  -61.8397 H   0  0  0  0  0  0  0  0  0  0  0  0
    9.9774    2.7118  -61.5029 H   0  0  0  0  0  0  0  0  0  0  0  0
   11.3113    2.2126  -59.4518 H   0  0  0  0  0  0  0  0  0  0  0  0
   11.7329    3.5500  -58.3110 H   0  0  0  0  0  0  0  0  0  0  0  0
    9.9898    4.5999  -56.8929 H   0  0  0  0  0  0  0  0  0  0  0  0
    8.2773    4.0471  -56.9984 H   0  0  0  0  0  0  0  0  0  0  0  0
    6.5140    0.5870  -54.9650 H   0  0  0  0  0  0  0  0  0  0  0  0
    6.6539   -0.2966  -52.7778 H   0  0  0  0  0  0  0  0  0  0  0  0
    6.7186   -1.9381  -50.9058 H   0  0  0  0  0  0  0  0  0  0  0  0
  1  2  2  0
  2  3  1  0
  3  4  2  0
  4  5  1  0
  5  6  2  0
  6  7  1  0
  7  8  1  0
  9  8  1  1
  9 10  1  0
 10 11  1  0
 11 12  1  0
 12 13  1  0
 13 14  1  0
 14 15  1  0
 15 16  1  0
 15 17  1  0
 13 18  1  0
  7 19  2  0
 19 20  1  0
  4 21  1  0
 21 22  2  0
 22  1  1  0
 20  5  1  0
 17  9  1  0
 18  9  1  0
 16 11  1  0
  1 23  1  0
  2 24  1  0
  3 25  1  0
  8 26  1  0
 10 27  1  0
 10 28  1  0
 11 29  1  6
 12 30  1  0
 12 31  1  0
 13 32  1  1
 14 33  1  0
 14 34  1  0
 15 35  1  6
 16 36  1  0
 16 37  1  0
 17 38  1  0
 17 39  1  0
 18 40  1  0
 18 41  1  0
 20 42  1  0
 21 43  1  0
 22 44  1  0
M  END
>  <meeko>  (146) 
{"is_sidechain": false}

$$$$

     RDKit          3D

 44 48  0  0  0  0  0  0  0  0999 V2000
    3.1880    1.3900  -63.2150 C   0  0  0  0  0  0  0  0  0  0  0  0
    4.4900    1.8820  -63.2010 C   0  0  0  0  0  0  0  0  0  0  0  0
    5.1350    2.1150  -61.9840 C   0  0  0  0  0  0  0  0  0  0  0  0
    4.4910    1.8620  -60.7620 C   0  0  0  0  0  0  0  0  0  0  0  0
    5.2070    2.1230  -59.5110 C   0  0  0  0  0  0  0  0  0  0  0  0
    4.6790    2.5100  -58.3640 N   0  0  0  0  0  0  0  0  0  0  0  0
    5.6920    2.6510  -57.4430 N   0  0  0  0  0  0  0  0  0  0  0  0
    6.8240    2.3360  -58.0270 C   0  0  0  0  0  0  0  0  0  0  0  0
    8.0930    2.3050  -57.5650 N   0  0  0  0  0  0  0  0  0  0  0  0
    9.1570    3.1210  -58.1650 C   0  0  2  0  0  0  0  0  0  0  0  0
    8.6060    4.4200  -58.8030 C   0  0  0  0  0  0  0  0  0  0  0  0
    9.7430    5.2100  -59.4760 C   0  0  1  0  0  0  0  0  0  0  0  0
   10.8130    5.5510  -58.4250 C   0  0  0  0  0  0  0  0  0  0  0  0
   11.3920    4.2610  -57.8180 C   0  0  2  0  0  0  0  0  0  0  0  0
   12.0110    3.4090  -58.9370 C   0  0  0  0  0  0  0  0  0  0  0  0
   10.9420    3.0580  -59.9830 C   0  0  2  0  0  0  0  0  0  0  0  0
   10.3730    4.3530  -60.5840 C   0  0  0  0  0  0  0  0  0  0  0  0
    9.8060    2.2790  -59.3010 C   0  0  0  0  0  0  0  0  0  0  0  0
   10.2610    3.4670  -57.1400 C   0  0  0  0  0  0  0  0  0  0  0  0
    6.5600    2.0040  -59.3250 N   0  0  0  0  0  0  0  0  0  0  0  0
    3.1790    1.3660  -60.7940 C   0  0  0  0  0  0  0  0  0  0  0  0
    2.5320    1.1320  -62.0130 C   0  0  0  0  0  0  0  0  0  0  0  0
    2.6784    1.2054  -64.1722 H   0  0  0  0  0  0  0  0  0  0  0  0
    5.0108    2.0873  -64.1479 H   0  0  0  0  0  0  0  0  0  0  0  0
    6.1643    2.5030  -61.9829 H   0  0  0  0  0  0  0  0  0  0  0  0
    8.2590    2.0630  -56.5940 H   0  0  0  0  0  0  0  0  0  0  0  0
    7.8487    4.1606  -59.5574 H   0  0  0  0  0  0  0  0  0  0  0  0
    8.1562    5.0421  -58.0152 H   0  0  0  0  0  0  0  0  0  0  0  0
    9.3422    6.1371  -59.9116 H   0  0  0  0  0  0  0  0  0  0  0  0
   11.6222    6.1228  -58.9027 H   0  0  0  0  0  0  0  0  0  0  0  0
   10.3523    6.1488  -57.6248 H   0  0  0  0  0  0  0  0  0  0  0  0
   12.1631    4.5135  -57.0753 H   0  0  0  0  0  0  0  0  0  0  0  0
   12.8212    3.9750  -59.4200 H   0  0  0  0  0  0  0  0  0  0  0  0
   12.4112    2.4803  -58.5042 H   0  0  0  0  0  0  0  0  0  0  0  0
   11.3907    2.4456  -60.7790 H   0  0  0  0  0  0  0  0  0  0  0  0
   11.1840    4.9186  -61.0661 H   0  0  0  0  0  0  0  0  0  0  0  0
    9.6034    4.0997  -61.3280 H   0  0  0  0  0  0  0  0  0  0  0  0
    9.0386    2.0327  -60.0496 H   0  0  0  0  0  0  0  0  0  0  0  0
   10.2244    1.3612  -58.8620 H   0  0  0  0  0  0  0  0  0  0  0  0
   10.6718    2.5363  -56.7215 H   0  0  0  0  0  0  0  0  0  0  0  0
    9.8244    4.0810  -56.3385 H   0  0  0  0  0  0  0  0  0  0  0  0
    7.2440    1.7430  -60.0130 H   0  0  0  0  0  0  0  0  0  0  0  0
    2.6529    1.1587  -59.8505 H   0  0  0  0  0  0  0  0  0  0  0  0
    1.5030    0.7434  -62.0221 H   0  0  0  0  0  0  0  0  0  0  0  0
  1  2  2  0
  2  3  1  0
  3  4  2  0
  4  5  1  0
  5  6  2  0
  6  7  1  0
  7  8  2  0
  8  9  1  0
 10  9  1  1
 10 11  1  0
 11 12  1  0
 12 13  1  0
 13 14  1  0
 14 15  1  0
 15 16  1  0
 16 17  1  0
 16 18  1  0
 14 19  1  0
  8 20  1  0
  4 21  1  0
 21 22  2  0
 22  1  1  0
 20  5  1  0
 18 10  1  0
 19 10  1  0
 17 12  1  0
  1 23  1  0
  2 24  1  0
  3 25  1  0
  9 26  1  0
 11 27  1  0
 11 28  1  0
 12 29  1  6
 13 30  1  0
 13 31  1  0
 14 32  1  1
 15 33  1  0
 15 34  1  0
 16 35  1  6
 17 36  1  0
 17 37  1  0
 18 38  1  0
 18 39  1  0
 19 40  1  0
 19 41  1  0
 20 42  1  0
 21 43  1  0
 22 44  1  0
M  END
>  <meeko>  (147) 
{"is_sidechain": false}

$$$$

     RDKit          3D

 44 48  0  0  0  0  0  0  0  0999 V2000
    8.6550   -2.7040  -51.5470 C   0  0  0  0  0  0  0  0  0  0  0  0
    9.6750   -2.6540  -52.4970 C   0  0  0  0  0  0  0  0  0  0  0  0
    9.6190   -1.7190  -53.5310 C   0  0  0  0  0  0  0  0  0  0  0  0
    8.5400   -0.8320  -53.6180 C   0  0  0  0  0  0  0  0  0  0  0  0
    8.4920    0.1500  -54.7240 C   0  0  0  0  0  0  0  0  0  0  0  0
    9.5490    0.4820  -55.4310 N   0  0  0  0  0  0  0  0  0  0  0  0
    9.0660    1.3720  -56.3740 C   0  0  0  0  0  0  0  0  0  0  0  0
    9.9240    1.9390  -57.1240 N   0  0  0  0  0  0  0  0  0  0  0  0
    9.6160    2.9040  -58.1730 C   0  0  2  0  0  0  0  0  0  0  0  0
    9.1220    4.2430  -57.5870 C   0  0  0  0  0  0  0  0  0  0  0  0
    8.9110    5.2700  -58.7140 C   0  0  1  0  0  0  0  0  0  0  0  0
   10.2470    5.5180  -59.4310 C   0  0  0  0  0  0  0  0  0  0  0  0
   10.7700    4.2040  -60.0330 C   0  0  2  0  0  0  0  0  0  0  0  0
    9.7440    3.6630  -61.0410 C   0  0  0  0  0  0  0  0  0  0  0  0
    8.4040    3.4020  -60.3360 C   0  0  2  0  0  0  0  0  0  0  0  0
    7.8890    4.7170  -59.7220 C   0  0  0  0  0  0  0  0  0  0  0  0
    8.6110    2.3670  -59.2140 C   0  0  0  0  0  0  0  0  0  0  0  0
   10.9580    3.1760  -58.9060 C   0  0  0  0  0  0  0  0  0  0  0  0
    7.6900    1.4870  -56.2740 N   0  0  0  0  0  0  0  0  0  0  0  0
    7.3280    0.7890  -55.1340 N   0  0  0  0  0  0  0  0  0  0  0  0
    7.5220   -0.8780  -52.6580 C   0  0  0  0  0  0  0  0  0  0  0  0
    7.5820   -1.8160  -51.6240 C   0  0  0  0  0  0  0  0  0  0  0  0
    8.6968   -3.4453  -50.7353 H   0  0  0  0  0  0  0  0  0  0  0  0
   10.5231   -3.3514  -52.4310 H   0  0  0  0  0  0  0  0  0  0  0  0
   10.4244   -1.6789  -54.2792 H   0  0  0  0  0  0  0  0  0  0  0  0
    8.1699    4.0802  -57.0606 H   0  0  0  0  0  0  0  0  0  0  0  0
    9.8770    4.6288  -56.8862 H   0  0  0  0  0  0  0  0  0  0  0  0
    8.5378    6.2134  -58.2890 H   0  0  0  0  0  0  0  0  0  0  0  0
   10.0982    6.2537  -60.2351 H   0  0  0  0  0  0  0  0  0  0  0  0
   10.9807    5.9016  -58.7068 H   0  0  0  0  0  0  0  0  0  0  0  0
   11.7290    4.3838  -60.5409 H   0  0  0  0  0  0  0  0  0  0  0  0
    9.5963    4.4015  -61.8427 H   0  0  0  0  0  0  0  0  0  0  0  0
   10.1181    2.7204  -61.4672 H   0  0  0  0  0  0  0  0  0  0  0  0
    7.6727    3.0191  -61.0631 H   0  0  0  0  0  0  0  0  0  0  0  0
    7.7328    5.4549  -60.5227 H   0  0  0  0  0  0  0  0  0  0  0  0
    6.9405    4.5217  -59.2002 H   0  0  0  0  0  0  0  0  0  0  0  0
    7.6481    2.1682  -58.7207 H   0  0  0  0  0  0  0  0  0  0  0  0
    9.0077    1.4386  -59.6506 H   0  0  0  0  0  0  0  0  0  0  0  0
   11.3305    2.2346  -59.3360 H   0  0  0  0  0  0  0  0  0  0  0  0
   11.6792    3.5792  -58.1798 H   0  0  0  0  0  0  0  0  0  0  0  0
    7.3630    2.4420  -56.3470 H   0  0  0  0  0  0  0  0  0  0  0  0
    6.5250    0.1690  -55.2310 H   0  0  0  0  0  0  0  0  0  0  0  0
    6.6764   -0.1770  -52.7176 H   0  0  0  0  0  0  0  0  0  0  0  0
    6.7821   -1.8542  -50.8698 H   0  0  0  0  0  0  0  0  0  0  0  0
  1  2  2  0
  2  3  1  0
  3  4  2  0
  4  5  1  0
  5  6  2  0
  6  7  1  0
  7  8  2  0
  9  8  1  1
  9 10  1  0
 10 11  1  0
 11 12  1  0
 12 13  1  0
 13 14  1  0
 14 15  1  0
 15 16  1  0
 15 17  1  0
 13 18  1  0
  7 19  1  0
 19 20  1  0
  4 21  1  0
 21 22  2  0
 22  1  1  0
 20  5  1  0
 17  9  1  0
 18  9  1  0
 16 11  1  0
  1 23  1  0
  2 24  1  0
  3 25  1  0
 10 26  1  0
 10 27  1  0
 11 28  1  1
 12 29  1  0
 12 30  1  0
 13 31  1  6
 14 32  1  0
 14 33  1  0
 15 34  1  6
 16 35  1  0
 16 36  1  0
 17 37  1  0
 17 38  1  0
 18 39  1  0
 18 40  1  0
 19 41  1  0
 20 42  1  0
 21 43  1  0
 22 44  1  0
M  END
>  <meeko>  (148) 
{"is_sidechain": false}

$$$$

     RDKit          3D

 44 48  0  0  0  0  0  0  0  0999 V2000
    3.3410    1.1990  -63.2230 C   0  0  0  0  0  0  0  0  0  0  0  0
    4.5930    1.8110  -63.1770 C   0  0  0  0  0  0  0  0  0  0  0  0
    5.1540    2.1600  -61.9470 C   0  0  0  0  0  0  0  0  0  0  0  0
    4.4640    1.8920  -60.7600 C   0  0  0  0  0  0  0  0  0  0  0  0
    5.0750    2.2610  -59.4650 C   0  0  0  0  0  0  0  0  0  0  0  0
    6.3470    2.5750  -59.3390 N   0  0  0  0  0  0  0  0  0  0  0  0
    6.5010    2.8080  -57.9890 C   0  0  0  0  0  0  0  0  0  0  0  0
    7.5480    3.3020  -57.4460 N   0  0  0  0  0  0  0  0  0  0  0  0
    8.7580    3.6460  -58.1980 C   0  0  2  0  0  0  0  0  0  0  0  0
    9.3380    2.4440  -58.9730 C   0  0  0  0  0  0  0  0  0  0  0  0
   10.6610    2.8390  -59.6560 C   0  0  1  0  0  0  0  0  0  0  0  0
   10.4070    4.0210  -60.6080 C   0  0  0  0  0  0  0  0  0  0  0  0
    9.8720    5.2330  -59.8230 C   0  0  2  0  0  0  0  0  0  0  0  0
   10.8960    5.6360  -58.7510 C   0  0  0  0  0  0  0  0  0  0  0  0
   11.1380    4.4610  -57.7920 C   0  0  2  0  0  0  0  0  0  0  0  0
   11.6790    3.2600  -58.5840 C   0  0  0  0  0  0  0  0  0  0  0  0
    9.8070    4.0670  -57.1310 C   0  0  0  0  0  0  0  0  0  0  0  0
    8.5450    4.8500  -59.1420 C   0  0  0  0  0  0  0  0  0  0  0  0
    5.3430    2.5000  -57.3000 N   0  0  0  0  0  0  0  0  0  0  0  0
    4.3760    2.2880  -58.2610 N   0  0  0  0  0  0  0  0  0  0  0  0
    3.2040    1.2840  -60.8090 C   0  0  0  0  0  0  0  0  0  0  0  0
    2.6460    0.9380  -62.0410 C   0  0  0  0  0  0  0  0  0  0  0  0
    2.9005    0.9215  -64.1920 H   0  0  0  0  0  0  0  0  0  0  0  0
    5.1385    2.0188  -64.1093 H   0  0  0  0  0  0  0  0  0  0  0  0
    6.1400    2.6464  -61.9113 H   0  0  0  0  0  0  0  0  0  0  0  0
    9.5236    1.6159  -58.2731 H   0  0  0  0  0  0  0  0  0  0  0  0
    8.6166    2.1314  -59.7423 H   0  0  0  0  0  0  0  0  0  0  0  0
   11.0548    1.9836  -60.2245 H   0  0  0  0  0  0  0  0  0  0  0  0
   11.3494    4.2968  -61.1037 H   0  0  0  0  0  0  0  0  0  0  0  0
    9.6603    3.7224  -61.3585 H   0  0  0  0  0  0  0  0  0  0  0  0
    9.7061    6.0760  -60.5099 H   0  0  0  0  0  0  0  0  0  0  0  0
   11.8436    5.9114  -59.2369 H   0  0  0  0  0  0  0  0  0  0  0  0
   10.5069    6.4935  -58.1824 H   0  0  0  0  0  0  0  0  0  0  0  0
   11.8660    4.7567  -57.0222 H   0  0  0  0  0  0  0  0  0  0  0  0
   12.6255    3.5398  -59.0697 H   0  0  0  0  0  0  0  0  0  0  0  0
   11.8488    2.4190  -57.8956 H   0  0  0  0  0  0  0  0  0  0  0  0
    9.9813    3.2243  -56.4458 H   0  0  0  0  0  0  0  0  0  0  0  0
    9.4179    4.9367  -56.5812 H   0  0  0  0  0  0  0  0  0  0  0  0
    8.1746    5.7069  -58.5601 H   0  0  0  0  0  0  0  0  0  0  0  0
    7.8114    4.5753  -59.9143 H   0  0  0  0  0  0  0  0  0  0  0  0
    5.1620    3.1690  -56.5570 H   0  0  0  0  0  0  0  0  0  0  0  0
    3.7690    1.4830  -58.1080 H   0  0  0  0  0  0  0  0  0  0  0  0
    2.6545    1.0792  -59.8783 H   0  0  0  0  0  0  0  0  0  0  0  0
    1.6567    0.4587  -62.0803 H   0  0  0  0  0  0  0  0  0  0  0  0
  1  2  2  0
  2  3  1  0
  3  4  2  0
  4  5  1  0
  5  6  2  0
  6  7  1  0
  7  8  2  0
  9  8  1  1
  9 10  1  0
 10 11  1  0
 11 12  1  0
 12 13  1  0
 13 14  1  0
 14 15  1  0
 15 16  1  0
 15 17  1  0
 13 18  1  0
  7 19  1  0
 19 20  1  0
  4 21  1  0
 21 22  2  0
 22  1  1  0
 20  5  1  0
 17  9  1  0
 18  9  1  0
 16 11  1  0
  1 23  1  0
  2 24  1  0
  3 25  1  0
 10 26  1  0
 10 27  1  0
 11 28  1  6
 12 29  1  0
 12 30  1  0
 13 31  1  6
 14 32  1  0
 14 33  1  0
 15 34  1  1
 16 35  1  0
 16 36  1  0
 17 37  1  0
 17 38  1  0
 18 39  1  0
 18 40  1  0
 19 41  1  0
 20 42  1  0
 21 43  1  0
 22 44  1  0
M  END
>  <meeko>  (149) 
{"is_sidechain": false}

$$$$

     RDKit          3D

 44 48  0  0  0  0  0  0  0  0999 V2000
   12.1240   -4.6050  -55.7990 C   0  0  0  0  0  0  0  0  0  0  0  0
   12.1760   -3.8150  -56.9470 C   0  0  0  0  0  0  0  0  0  0  0  0
   11.6080   -2.5380  -56.9420 C   0  0  0  0  0  0  0  0  0  0  0  0
   10.9810   -2.0370  -55.7920 C   0  0  0  0  0  0  0  0  0  0  0  0
   10.3840   -0.7050  -55.7790 C   0  0  0  0  0  0  0  0  0  0  0  0
    9.2560   -0.3910  -55.1190 N   0  0  0  0  0  0  0  0  0  0  0  0
    9.1210    0.9100  -55.4180 N   0  0  0  0  0  0  0  0  0  0  0  0
   10.1430    1.3640  -56.2030 C   0  0  0  0  0  0  0  0  0  0  0  0
   10.2900    2.6230  -56.6690 N   0  0  0  0  0  0  0  0  0  0  0  0
    9.6220    3.2240  -57.8230 C   0  0  2  0  0  0  0  0  0  0  0  0
    9.6020    2.2600  -59.0310 C   0  0  0  0  0  0  0  0  0  0  0  0
    8.9620    2.9430  -60.2530 C   0  0  1  0  0  0  0  0  0  0  0  0
    7.5300    3.3810  -59.8980 C   0  0  0  0  0  0  0  0  0  0  0  0
    7.5540    4.3770  -58.7240 C   0  0  2  0  0  0  0  0  0  0  0  0
    8.3930    5.6020  -59.1170 C   0  0  0  0  0  0  0  0  0  0  0  0
    9.8260    5.1680  -59.4620 C   0  0  2  0  0  0  0  0  0  0  0  0
    9.7900    4.1800  -60.6360 C   0  0  0  0  0  0  0  0  0  0  0  0
   10.4490    4.4760  -58.2390 C   0  0  0  0  0  0  0  0  0  0  0  0
    8.1870    3.6970  -57.4960 C   0  0  0  0  0  0  0  0  0  0  0  0
   10.9440    0.3590  -56.4550 N   0  0  0  0  0  0  0  0  0  0  0  0
   10.9370   -2.8450  -54.6450 C   0  0  0  0  0  0  0  0  0  0  0  0
   11.5050   -4.1210  -54.6490 C   0  0  0  0  0  0  0  0  0  0  0  0
   12.5716   -5.6098  -55.8017 H   0  0  0  0  0  0  0  0  0  0  0  0
   12.6638   -4.1967  -57.8560 H   0  0  0  0  0  0  0  0  0  0  0  0
   11.6533   -1.9190  -57.8502 H   0  0  0  0  0  0  0  0  0  0  0  0
    8.3270    1.4160  -55.0540 H   0  0  0  0  0  0  0  0  0  0  0  0
   10.4940    3.2830  -55.9210 H   0  0  0  0  0  0  0  0  0  0  0  0
   10.6332    1.9675  -59.2782 H   0  0  0  0  0  0  0  0  0  0  0  0
    9.0093    1.3714  -58.7682 H   0  0  0  0  0  0  0  0  0  0  0  0
    8.9358    2.2393  -61.0980 H   0  0  0  0  0  0  0  0  0  0  0  0
    7.0697    3.8624  -60.7735 H   0  0  0  0  0  0  0  0  0  0  0  0
    6.9461    2.4958  -59.6057 H   0  0  0  0  0  0  0  0  0  0  0  0
    6.5284    4.6938  -58.4835 H   0  0  0  0  0  0  0  0  0  0  0  0
    7.9390    6.0889  -59.9926 H   0  0  0  0  0  0  0  0  0  0  0  0
    8.4222    6.3060  -58.2723 H   0  0  0  0  0  0  0  0  0  0  0  0
   10.4238    6.0488  -59.7391 H   0  0  0  0  0  0  0  0  0  0  0  0
    9.3337    4.6682  -61.5098 H   0  0  0  0  0  0  0  0  0  0  0  0
   10.8165    3.8680  -60.8786 H   0  0  0  0  0  0  0  0  0  0  0  0
   11.4743    4.1636  -58.4863 H   0  0  0  0  0  0  0  0  0  0  0  0
   10.4538    5.1868  -57.3995 H   0  0  0  0  0  0  0  0  0  0  0  0
    8.2226    4.4141  -56.6626 H   0  0  0  0  0  0  0  0  0  0  0  0
    7.5780    2.8243  -57.2174 H   0  0  0  0  0  0  0  0  0  0  0  0
   10.4499   -2.4692  -53.7331 H   0  0  0  0  0  0  0  0  0  0  0  0
   11.4634   -4.7440  -53.7434 H   0  0  0  0  0  0  0  0  0  0  0  0
  1  2  2  0
  2  3  1  0
  3  4  2  0
  4  5  1  0
  5  6  2  0
  6  7  1  0
  7  8  1  0
  8  9  1  0
 10  9  1  1
 10 11  1  0
 11 12  1  0
 12 13  1  0
 13 14  1  0
 14 15  1  0
 15 16  1  0
 16 17  1  0
 16 18  1  0
 14 19  1  0
  8 20  2  0
  4 21  1  0
 21 22  2  0
 22  1  1  0
 20  5  1  0
 18 10  1  0
 19 10  1  0
 17 12  1  0
  1 23  1  0
  2 24  1  0
  3 25  1  0
  7 26  1  0
  9 27  1  0
 11 28  1  0
 11 29  1  0
 12 30  1  6
 13 31  1  0
 13 32  1  0
 14 33  1  1
 15 34  1  0
 15 35  1  0
 16 36  1  6
 17 37  1  0
 17 38  1  0
 18 39  1  0
 18 40  1  0
 19 41  1  0
 19 42  1  0
 21 43  1  0
 22 44  1  0
M  END
>  <meeko>  (150) 
{"is_sidechain": false}

$$$$

     RDKit          3D

 44 48  0  0  0  0  0  0  0  0999 V2000
    8.8660   -2.8350  -51.3880 C   0  0  0  0  0  0  0  0  0  0  0  0
    9.8750   -2.7410  -52.3450 C   0  0  0  0  0  0  0  0  0  0  0  0
    9.7600   -1.8250  -53.3920 C   0  0  0  0  0  0  0  0  0  0  0  0
    8.6340   -0.9990  -53.4840 C   0  0  0  0  0  0  0  0  0  0  0  0
    8.5360   -0.0390  -54.6000 C   0  0  0  0  0  0  0  0  0  0  0  0
    7.4000    0.4890  -55.0250 N   0  0  0  0  0  0  0  0  0  0  0  0
    7.8120    1.3150  -56.0710 N   0  0  0  0  0  0  0  0  0  0  0  0
    9.1750    1.3180  -56.3110 C   0  0  0  0  0  0  0  0  0  0  0  0
    9.9750    1.8830  -57.1150 N   0  0  0  0  0  0  0  0  0  0  0  0
    9.6840    2.8320  -58.1840 C   0  0  2  0  0  0  0  0  0  0  0  0
   10.9870    3.0200  -58.9970 C   0  0  0  0  0  0  0  0  0  0  0  0
   10.8090    4.1150  -60.0620 C   0  0  1  0  0  0  0  0  0  0  0  0
    9.6700    3.7160  -61.0130 C   0  0  0  0  0  0  0  0  0  0  0  0
    8.3620    3.5480  -60.2210 C   0  0  2  0  0  0  0  0  0  0  0  0
    8.0120    4.8760  -59.5300 C   0  0  0  0  0  0  0  0  0  0  0  0
    9.1440    5.2810  -58.5720 C   0  0  2  0  0  0  0  0  0  0  0  0
   10.4500    5.4410  -59.3680 C   0  0  0  0  0  0  0  0  0  0  0  0
    9.3290    4.1810  -57.5140 C   0  0  0  0  0  0  0  0  0  0  0  0
    8.5510    2.4530  -59.1540 C   0  0  0  0  0  0  0  0  0  0  0  0
    9.5850    0.4370  -55.3430 N   0  0  0  0  0  0  0  0  0  0  0  0
    7.6220   -1.0960  -52.5220 C   0  0  0  0  0  0  0  0  0  0  0  0
    7.7420   -2.0150  -51.4760 C   0  0  0  0  0  0  0  0  0  0  0  0
    8.9566   -3.5567  -50.5628 H   0  0  0  0  0  0  0  0  0  0  0  0
   10.7616   -3.3884  -52.2752 H   0  0  0  0  0  0  0  0  0  0  0  0
   10.5567   -1.7522  -54.1469 H   0  0  0  0  0  0  0  0  0  0  0  0
    7.1370    1.8560  -56.5910 H   0  0  0  0  0  0  0  0  0  0  0  0
   11.8001    3.3085  -58.3146 H   0  0  0  0  0  0  0  0  0  0  0  0
   11.2299    2.0726  -59.5005 H   0  0  0  0  0  0  0  0  0  0  0  0
   11.7422    4.2347  -60.6320 H   0  0  0  0  0  0  0  0  0  0  0  0
    9.5380    4.4999  -61.7733 H   0  0  0  0  0  0  0  0  0  0  0  0
    9.9227    2.7634  -61.5015 H   0  0  0  0  0  0  0  0  0  0  0  0
    7.5493    3.2621  -60.9049 H   0  0  0  0  0  0  0  0  0  0  0  0
    7.8801    5.6595  -60.2908 H   0  0  0  0  0  0  0  0  0  0  0  0
    7.0803    4.7525  -58.9584 H   0  0  0  0  0  0  0  0  0  0  0  0
    8.8906    6.2317  -58.0802 H   0  0  0  0  0  0  0  0  0  0  0  0
   10.3199    6.2261  -60.1274 H   0  0  0  0  0  0  0  0  0  0  0  0
   11.2611    5.7192  -58.6790 H   0  0  0  0  0  0  0  0  0  0  0  0
   10.1415    4.4698  -56.8310 H   0  0  0  0  0  0  0  0  0  0  0  0
    8.3871    4.0628  -56.9582 H   0  0  0  0  0  0  0  0  0  0  0  0
    7.6152    2.3342  -58.5881 H   0  0  0  0  0  0  0  0  0  0  0  0
    8.8143    1.5103  -59.6560 H   0  0  0  0  0  0  0  0  0  0  0  0
   10.5550    0.2080  -55.2400 H   0  0  0  0  0  0  0  0  0  0  0  0
    6.7340   -0.4502  -52.5891 H   0  0  0  0  0  0  0  0  0  0  0  0
    6.9470   -2.0916  -50.7197 H   0  0  0  0  0  0  0  0  0  0  0  0
  1  2  2  0
  2  3  1  0
  3  4  2  0
  4  5  1  0
  5  6  2  0
  6  7  1  0
  7  8  1  0
  8  9  2  0
 10  9  1  1
 10 11  1  0
 11 12  1  0
 12 13  1  0
 13 14  1  0
 14 15  1  0
 15 16  1  0
 16 17  1  0
 16 18  1  0
 14 19  1  0
  8 20  1  0
  4 21  1  0
 21 22  2  0
 22  1  1  0
 20  5  1  0
 18 10  1  0
 19 10  1  0
 17 12  1  0
  1 23  1  0
  2 24  1  0
  3 25  1  0
  7 26  1  0
 11 27  1  0
 11 28  1  0
 12 29  1  6
 13 30  1  0
 13 31  1  0
 14 32  1  6
 15 33  1  0
 15 34  1  0
 16 35  1  1
 17 36  1  0
 17 37  1  0
 18 38  1  0
 18 39  1  0
 19 40  1  0
 19 41  1  0
 20 42  1  0
 21 43  1  0
 22 44  1  0
M  END
>  <meeko>  (151) 
{"is_sidechain": false}

$$$$

     RDKit          3D

 44 48  0  0  0  0  0  0  0  0999 V2000
    3.2100    1.2010  -63.2220 C   0  0  0  0  0  0  0  0  0  0  0  0
    4.4750    1.7850  -63.1990 C   0  0  0  0  0  0  0  0  0  0  0  0
    5.0620    2.1310  -61.9800 C   0  0  0  0  0  0  0  0  0  0  0  0
    4.3850    1.8920  -60.7790 C   0  0  0  0  0  0  0  0  0  0  0  0
    5.0290    2.2670  -59.5050 C   0  0  0  0  0  0  0  0  0  0  0  0
    4.4120    2.2500  -58.3340 N   0  0  0  0  0  0  0  0  0  0  0  0
    5.4040    2.6740  -57.4600 N   0  0  0  0  0  0  0  0  0  0  0  0
    6.6260    2.9580  -58.0460 C   0  0  0  0  0  0  0  0  0  0  0  0
    7.6640    3.3580  -57.4300 N   0  0  0  0  0  0  0  0  0  0  0  0
    8.9410    3.6500  -58.0790 C   0  0  2  0  0  0  0  0  0  0  0  0
   10.0310    4.0560  -57.0640 C   0  0  0  0  0  0  0  0  0  0  0  0
   11.3270    4.4390  -57.8040 C   0  0  1  0  0  0  0  0  0  0  0  0
   11.7990    3.2450  -58.6520 C   0  0  0  0  0  0  0  0  0  0  0  0
   10.7260    2.8700  -59.6900 C   0  0  2  0  0  0  0  0  0  0  0  0
   10.4530    4.0810  -60.5970 C   0  0  0  0  0  0  0  0  0  0  0  0
    9.9670    5.2690  -59.7530 C   0  0  2  0  0  0  0  0  0  0  0  0
   11.0480    5.6380  -58.7250 C   0  0  0  0  0  0  0  0  0  0  0  0
    8.6820    4.8670  -59.0090 C   0  0  0  0  0  0  0  0  0  0  0  0
    9.4280    2.4800  -58.9600 C   0  0  0  0  0  0  0  0  0  0  0  0
    6.3320    2.6810  -59.3560 N   0  0  0  0  0  0  0  0  0  0  0  0
    3.1150    1.3050  -60.8060 C   0  0  0  0  0  0  0  0  0  0  0  0
    2.5310    0.9610  -62.0280 C   0  0  0  0  0  0  0  0  0  0  0  0
    2.7471    0.9293  -64.1821 H   0  0  0  0  0  0  0  0  0  0  0  0
    5.0111    1.9734  -64.1409 H   0  0  0  0  0  0  0  0  0  0  0  0
    6.0601    2.5931  -61.9639 H   0  0  0  0  0  0  0  0  0  0  0  0
    5.2580    2.7730  -56.4630 H   0  0  0  0  0  0  0  0  0  0  0  0
    9.6790    4.9172  -56.4771 H   0  0  0  0  0  0  0  0  0  0  0  0
   10.2354    3.2063  -56.3960 H   0  0  0  0  0  0  0  0  0  0  0  0
   12.1063    4.7054  -57.0748 H   0  0  0  0  0  0  0  0  0  0  0  0
   12.7293    3.5151  -59.1731 H   0  0  0  0  0  0  0  0  0  0  0  0
   11.9741    2.3834  -57.9909 H   0  0  0  0  0  0  0  0  0  0  0  0
   11.0782    2.0235  -60.2978 H   0  0  0  0  0  0  0  0  0  0  0  0
   11.3792    4.3605  -61.1205 H   0  0  0  0  0  0  0  0  0  0  0  0
    9.6764    3.8163  -61.3297 H   0  0  0  0  0  0  0  0  0  0  0  0
    9.7670    6.1305  -60.4070 H   0  0  0  0  0  0  0  0  0  0  0  0
   11.9727    5.9157  -59.2521 H   0  0  0  0  0  0  0  0  0  0  0  0
   10.6961    6.4856  -58.1186 H   0  0  0  0  0  0  0  0  0  0  0  0
    8.3354    5.7169  -58.4027 H   0  0  0  0  0  0  0  0  0  0  0  0
    7.9181    4.5884  -59.7498 H   0  0  0  0  0  0  0  0  0  0  0  0
    8.6530    2.2363  -59.7016 H   0  0  0  0  0  0  0  0  0  0  0  0
    9.6237    1.6063  -58.3210 H   0  0  0  0  0  0  0  0  0  0  0  0
    6.9960    2.7760  -60.0980 H   0  0  0  0  0  0  0  0  0  0  0  0
    2.5767    1.1145  -59.8658 H   0  0  0  0  0  0  0  0  0  0  0  0
    1.5327    0.4995  -62.0481 H   0  0  0  0  0  0  0  0  0  0  0  0
  1  2  2  0
  2  3  1  0
  3  4  2  0
  4  5  1  0
  5  6  2  0
  6  7  1  0
  7  8  1  0
  8  9  2  0
 10  9  1  1
 10 11  1  0
 11 12  1  0
 12 13  1  0
 13 14  1  0
 14 15  1  0
 15 16  1  0
 16 17  1  0
 16 18  1  0
 14 19  1  0
  8 20  1  0
  4 21  1  0
 21 22  2  0
 22  1  1  0
 20  5  1  0
 18 10  1  0
 19 10  1  0
 17 12  1  0
  1 23  1  0
  2 24  1  0
  3 25  1  0
  7 26  1  0
 11 27  1  0
 11 28  1  0
 12 29  1  1
 13 30  1  0
 13 31  1  0
 14 32  1  6
 15 33  1  0
 15 34  1  0
 16 35  1  6
 17 36  1  0
 17 37  1  0
 18 38  1  0
 18 39  1  0
 19 40  1  0
 19 41  1  0
 20 42  1  0
 21 43  1  0
 22 44  1  0
M  END
>  <meeko>  (152) 
{"is_sidechain": false}

$$$$

     RDKit          3D

 38 41  0  0  0  0  0  0  0  0999 V2000
    5.7140    2.6220  -62.9410 C   0  0  0  0  0  0  0  0  0  0  0  0
    5.9730    2.3230  -61.5560 N   0  0  0  0  0  0  0  0  0  0  0  0
    7.2260    2.3460  -61.0740 N   0  0  0  0  0  0  0  0  0  0  0  0
    7.0340    2.0140  -59.7980 C   0  0  0  0  0  0  0  0  0  0  0  0
    8.0310    1.8980  -58.9130 N   0  0  0  0  0  0  0  0  0  0  0  0
    8.8110    3.0000  -58.3600 C   0  0  2  0  0  0  0  0  0  0  0  0
   10.1650    3.0430  -59.1260 C   0  0  0  0  0  0  0  0  0  0  0  0
   11.0560    4.1830  -58.6080 C   0  0  1  0  0  0  0  0  0  0  0  0
   10.3240    5.5210  -58.7990 C   0  0  0  0  0  0  0  0  0  0  0  0
    8.9930    5.5060  -58.0290 C   0  0  2  0  0  0  0  0  0  0  0  0
    9.2750    5.2740  -56.5350 C   0  0  0  0  0  0  0  0  0  0  0  0
   10.0110    3.9380  -56.3330 C   0  0  2  0  0  0  0  0  0  0  0  0
   11.3340    3.9640  -57.1130 C   0  0  0  0  0  0  0  0  0  0  0  0
    9.1310    2.7900  -56.8610 C   0  0  0  0  0  0  0  0  0  0  0  0
    8.1100    4.3640  -58.5620 C   0  0  0  0  0  0  0  0  0  0  0  0
    5.7320    1.8020  -59.4570 N   0  0  0  0  0  0  0  0  0  0  0  0
    5.0780    1.9990  -60.5820 C   0  0  0  0  0  0  0  0  0  0  0  0
    3.6720    1.8950  -60.7600 C   0  0  0  0  0  0  0  0  0  0  0  0
    2.5310    1.8290  -60.9670 N   0  0  0  0  0  0  0  0  0  0  0  0
    4.9952    3.4519  -63.0087 H   0  0  0  0  0  0  0  0  0  0  0  0
    6.6534    2.9093  -63.4360 H   0  0  0  0  0  0  0  0  0  0  0  0
    5.2957    1.7332  -63.4360 H   0  0  0  0  0  0  0  0  0  0  0  0
    8.5010    1.0000  -58.9350 H   0  0  0  0  0  0  0  0  0  0  0  0
   10.6881    2.0856  -58.9855 H   0  0  0  0  0  0  0  0  0  0  0  0
    9.9585    3.2170  -60.1923 H   0  0  0  0  0  0  0  0  0  0  0  0
   12.0054    4.1980  -59.1633 H   0  0  0  0  0  0  0  0  0  0  0  0
   10.9548    6.3388  -58.4204 H   0  0  0  0  0  0  0  0  0  0  0  0
   10.1206    5.6721  -59.8694 H   0  0  0  0  0  0  0  0  0  0  0  0
    8.4759    6.4674  -58.1643 H   0  0  0  0  0  0  0  0  0  0  0  0
    9.8997    6.0943  -56.1517 H   0  0  0  0  0  0  0  0  0  0  0  0
    8.3197    5.2427  -55.9906 H   0  0  0  0  0  0  0  0  0  0  0  0
   10.2164    3.7858  -55.2631 H   0  0  0  0  0  0  0  0  0  0  0  0
   11.9639    4.7830  -56.7354 H   0  0  0  0  0  0  0  0  0  0  0  0
   11.8525    3.0033  -56.9782 H   0  0  0  0  0  0  0  0  0  0  0  0
    9.6650    1.8366  -56.7347 H   0  0  0  0  0  0  0  0  0  0  0  0
    8.1884    2.7738  -56.2942 H   0  0  0  0  0  0  0  0  0  0  0  0
    7.1527    4.3631  -58.0202 H   0  0  0  0  0  0  0  0  0  0  0  0
    7.9362    4.5197  -59.6370 H   0  0  0  0  0  0  0  0  0  0  0  0
  1  2  1  0
  2  3  1  0
  3  4  2  0
  4  5  1  0
  6  5  1  6
  6  7  1  0
  7  8  1  0
  8  9  1  0
  9 10  1  0
 10 11  1  0
 11 12  1  0
 12 13  1  0
 12 14  1  0
 10 15  1  0
  4 16  1  0
 16 17  2  0
 17 18  1  0
 18 19  3  0
 17  2  1  0
 14  6  1  0
 15  6  1  0
 13  8  1  0
  1 20  1  0
  1 21  1  0
  1 22  1  0
  5 23  1  0
  7 24  1  0
  7 25  1  0
  8 26  1  6
  9 27  1  0
  9 28  1  0
 10 29  1  1
 11 30  1  0
 11 31  1  0
 12 32  1  1
 13 33  1  0
 13 34  1  0
 14 35  1  0
 14 36  1  0
 15 37  1  0
 15 38  1  0
M  END
>  <meeko>  (153) 
{"is_sidechain": false}

$$$$

     RDKit          3D

 38 41  0  0  0  0  0  0  0  0999 V2000
    4.2700    1.2870  -61.5910 C   0  0  0  0  0  0  0  0  0  0  0  0
    5.2200    2.2880  -61.1430 N   0  0  0  0  0  0  0  0  0  0  0  0
    6.4820    2.2960  -61.7190 N   0  0  0  0  0  0  0  0  0  0  0  0
    7.3500    2.7310  -60.7270 C   0  0  0  0  0  0  0  0  0  0  0  0
    8.5510    3.1050  -60.9490 N   0  0  0  0  0  0  0  0  0  0  0  0
    9.4600    3.5880  -59.9060 C   0  0  2  0  0  0  0  0  0  0  0  0
    9.8270    2.4900  -58.8850 C   0  0  0  0  0  0  0  0  0  0  0  0
   10.8620    3.0260  -57.8790 C   0  0  1  0  0  0  0  0  0  0  0  0
   12.1390    3.4320  -58.6310 C   0  0  0  0  0  0  0  0  0  0  0  0
   11.8150    4.5290  -59.6570 C   0  0  2  0  0  0  0  0  0  0  0  0
   11.2430    5.7550  -58.9280 C   0  0  0  0  0  0  0  0  0  0  0  0
    9.9590    5.3660  -58.1780 C   0  0  2  0  0  0  0  0  0  0  0  0
   10.2820    4.2580  -57.1600 C   0  0  0  0  0  0  0  0  0  0  0  0
    8.9190    4.8430  -59.1860 C   0  0  0  0  0  0  0  0  0  0  0  0
   10.7650    3.9980  -60.6450 C   0  0  0  0  0  0  0  0  0  0  0  0
    6.7280    2.7710  -59.4920 N   0  0  0  0  0  0  0  0  0  0  0  0
    5.4870    2.4950  -59.7980 C   0  0  0  0  0  0  0  0  0  0  0  0
    4.5300    2.4080  -58.7260 C   0  0  0  0  0  0  0  0  0  0  0  0
    3.7170    2.3140  -57.9000 N   0  0  0  0  0  0  0  0  0  0  0  0
    3.8095    0.8018  -60.7178 H   0  0  0  0  0  0  0  0  0  0  0  0
    3.4887    1.7684  -62.1974 H   0  0  0  0  0  0  0  0  0  0  0  0
    4.7916    0.5319  -62.1974 H   0  0  0  0  0  0  0  0  0  0  0  0
    6.6270    2.7880  -62.5970 H   0  0  0  0  0  0  0  0  0  0  0  0
    8.9211    2.1792  -58.3439 H   0  0  0  0  0  0  0  0  0  0  0  0
   10.2573    1.6307  -59.4202 H   0  0  0  0  0  0  0  0  0  0  0  0
   11.0996    2.2449  -57.1418 H   0  0  0  0  0  0  0  0  0  0  0  0
   12.8802    3.8120  -57.9125 H   0  0  0  0  0  0  0  0  0  0  0  0
   12.5453    2.5544  -59.1551 H   0  0  0  0  0  0  0  0  0  0  0  0
   12.7301    4.8126  -60.1976 H   0  0  0  0  0  0  0  0  0  0  0  0
   11.9856    6.1311  -58.2089 H   0  0  0  0  0  0  0  0  0  0  0  0
   11.0090    6.5377  -59.6646 H   0  0  0  0  0  0  0  0  0  0  0  0
    9.5559    6.2450  -57.6537 H   0  0  0  0  0  0  0  0  0  0  0  0
   11.0179    4.6348  -56.4344 H   0  0  0  0  0  0  0  0  0  0  0  0
    9.3567    3.9674  -56.6410 H   0  0  0  0  0  0  0  0  0  0  0  0
    7.9928    4.5847  -58.6518 H   0  0  0  0  0  0  0  0  0  0  0  0
    8.7159    5.6257  -59.9317 H   0  0  0  0  0  0  0  0  0  0  0  0
   10.5312    4.7841  -61.3781 H   0  0  0  0  0  0  0  0  0  0  0  0
   11.1756    3.1104  -61.1486 H   0  0  0  0  0  0  0  0  0  0  0  0
  1  2  1  0
  2  3  1  0
  3  4  1  0
  4  5  2  0
  6  5  1  6
  6  7  1  0
  7  8  1  0
  8  9  1  0
  9 10  1  0
 10 11  1  0
 11 12  1  0
 12 13  1  0
 12 14  1  0
 10 15  1  0
  4 16  1  0
 16 17  2  0
 17 18  1  0
 18 19  3  0
 17  2  1  0
 14  6  1  0
 15  6  1  0
 13  8  1  0
  1 20  1  0
  1 21  1  0
  1 22  1  0
  3 23  1  0
  7 24  1  0
  7 25  1  0
  8 26  1  1
  9 27  1  0
  9 28  1  0
 10 29  1  6
 11 30  1  0
 11 31  1  0
 12 32  1  1
 13 33  1  0
 13 34  1  0
 14 35  1  0
 14 36  1  0
 15 37  1  0
 15 38  1  0
M  END
>  <meeko>  (154) 
{"is_sidechain": false}

$$$$

     RDKit          3D

 38 41  0  0  0  0  0  0  0  0999 V2000
    3.5070    2.2890  -59.5100 C   0  0  0  0  0  0  0  0  0  0  0  0
    4.6800    1.9340  -60.2790 N   0  0  0  0  0  0  0  0  0  0  0  0
    5.9360    2.3630  -59.8840 N   0  0  0  0  0  0  0  0  0  0  0  0
    6.6240    2.6760  -61.0510 C   0  0  0  0  0  0  0  0  0  0  0  0
    7.7600    3.2090  -61.2580 N   0  0  0  0  0  0  0  0  0  0  0  0
    8.7100    3.5980  -60.2200 C   0  0  2  0  0  0  0  0  0  0  0  0
   10.0040    4.0220  -60.9680 C   0  0  0  0  0  0  0  0  0  0  0  0
   11.0860    4.4780  -59.9750 C   0  0  1  0  0  0  0  0  0  0  0  0
   10.5540    5.6730  -59.1660 C   0  0  0  0  0  0  0  0  0  0  0  0
    9.2800    5.2660  -58.4090 C   0  0  2  0  0  0  0  0  0  0  0  0
    9.6060    4.0980  -57.4610 C   0  0  0  0  0  0  0  0  0  0  0  0
   10.1450    2.8970  -58.2590 C   0  0  2  0  0  0  0  0  0  0  0  0
   11.4120    3.3210  -59.0200 C   0  0  0  0  0  0  0  0  0  0  0  0
    9.0740    2.4400  -59.2680 C   0  0  0  0  0  0  0  0  0  0  0  0
    8.2080    4.8180  -59.4200 C   0  0  0  0  0  0  0  0  0  0  0  0
    5.8610    2.3890  -62.1750 N   0  0  0  0  0  0  0  0  0  0  0  0
    4.7280    1.9930  -61.6590 C   0  0  0  0  0  0  0  0  0  0  0  0
    3.6430    1.6870  -62.5550 C   0  0  0  0  0  0  0  0  0  0  0  0
    2.7220    1.4440  -63.2210 N   0  0  0  0  0  0  0  0  0  0  0  0
    3.7373    2.2193  -58.4366 H   0  0  0  0  0  0  0  0  0  0  0  0
    3.2061    3.3184  -59.7543 H   0  0  0  0  0  0  0  0  0  0  0  0
    2.6858    1.5992  -59.7543 H   0  0  0  0  0  0  0  0  0  0  0  0
    6.0210    3.0530  -59.1470 H   0  0  0  0  0  0  0  0  0  0  0  0
   10.3830    3.1662  -61.5460 H   0  0  0  0  0  0  0  0  0  0  0  0
    9.7645    4.8613  -61.6375 H   0  0  0  0  0  0  0  0  0  0  0  0
   11.9943    4.7744  -60.5200 H   0  0  0  0  0  0  0  0  0  0  0  0
   11.3196    5.9952  -58.4449 H   0  0  0  0  0  0  0  0  0  0  0  0
   10.3190    6.4996  -59.8527 H   0  0  0  0  0  0  0  0  0  0  0  0
    8.9044    6.1212  -57.8281 H   0  0  0  0  0  0  0  0  0  0  0  0
   10.3660    4.4215  -56.7345 H   0  0  0  0  0  0  0  0  0  0  0  0
    8.6876    3.7959  -56.9362 H   0  0  0  0  0  0  0  0  0  0  0  0
   10.3855    2.0717  -57.5727 H   0  0  0  0  0  0  0  0  0  0  0  0
   12.1776    3.6468  -58.3005 H   0  0  0  0  0  0  0  0  0  0  0  0
   11.7877    2.4664  -59.6018 H   0  0  0  0  0  0  0  0  0  0  0  0
    9.4648    1.5960  -59.8553 H   0  0  0  0  0  0  0  0  0  0  0  0
    8.1727    2.1301  -58.7189 H   0  0  0  0  0  0  0  0  0  0  0  0
    7.2895    4.5456  -58.8795 H   0  0  0  0  0  0  0  0  0  0  0  0
    8.0019    5.6446  -60.1159 H   0  0  0  0  0  0  0  0  0  0  0  0
  1  2  1  0
  2  3  1  0
  3  4  1  0
  4  5  2  0
  6  5  1  6
  6  7  1  0
  7  8  1  0
  8  9  1  0
  9 10  1  0
 10 11  1  0
 11 12  1  0
 12 13  1  0
 12 14  1  0
 10 15  1  0
  4 16  1  0
 16 17  2  0
 17 18  1  0
 18 19  3  0
 17  2  1  0
 14  6  1  0
 15  6  1  0
 13  8  1  0
  1 20  1  0
  1 21  1  0
  1 22  1  0
  3 23  1  0
  7 24  1  0
  7 25  1  0
  8 26  1  6
  9 27  1  0
  9 28  1  0
 10 29  1  1
 11 30  1  0
 11 31  1  0
 12 32  1  1
 13 33  1  0
 13 34  1  0
 14 35  1  0
 14 36  1  0
 15 37  1  0
 15 38  1  0
M  END
>  <meeko>  (155) 
{"is_sidechain": false}

$$$$

     RDKit          3D

 54 59  0  0  0  0  0  0  0  0999 V2000
   10.2000    4.5460  -60.2090 C   0  0  0  0  0  0  0  0  0  0  0  0
    9.3720    5.1200  -59.2440 C   0  0  0  0  0  0  0  0  0  0  0  0
    8.7330    4.3130  -58.3030 C   0  0  0  0  0  0  0  0  0  0  0  0
    8.9270    2.9260  -58.3130 C   0  0  0  0  0  0  0  0  0  0  0  0
    8.2460    2.0840  -57.3370 C   0  0  0  0  0  0  0  0  0  0  0  0
    8.7680    1.6130  -56.1440 C   0  0  0  0  0  0  0  0  0  0  0  0
    7.7110    0.9830  -55.4750 C   0  0  0  0  0  0  0  0  0  0  0  0
    7.7200    0.3970  -54.2640 N   0  0  0  0  0  0  0  0  0  0  0  0
    8.1610   -0.9380  -53.8820 C   0  0  2  0  0  0  0  0  0  0  0  0
    7.8980   -1.0950  -52.3550 C   0  0  0  0  0  0  0  0  0  0  0  0
    8.3410   -2.4800  -51.8560 C   0  0  1  0  0  0  0  0  0  0  0  0
    7.5560   -3.5620  -52.6140 C   0  0  0  0  0  0  0  0  0  0  0  0
    7.8170   -3.4370  -54.1230 C   0  0  2  0  0  0  0  0  0  0  0  0
    9.3230   -3.5990  -54.3940 C   0  0  0  0  0  0  0  0  0  0  0  0
   10.1210   -2.5250  -53.6330 C   0  0  2  0  0  0  0  0  0  0  0  0
    9.8430   -2.6570  -52.1290 C   0  0  0  0  0  0  0  0  0  0  0  0
    9.6760   -1.1300  -54.1110 C   0  0  0  0  0  0  0  0  0  0  0  0
    7.3620   -2.0470  -54.6050 C   0  0  0  0  0  0  0  0  0  0  0  0
    6.5920    1.0400  -56.1860 N   0  0  0  0  0  0  0  0  0  0  0  0
    6.9230    1.6450  -57.3600 N   0  0  0  0  0  0  0  0  0  0  0  0
    5.9310    1.7180  -58.3880 C   0  0  0  0  0  0  0  0  0  0  0  0
    4.7570    2.4450  -58.1420 C   0  0  0  0  0  0  0  0  0  0  0  0
    3.7970    2.5150  -59.1360 C   0  0  0  0  0  0  0  0  0  0  0  0
    3.9180    1.9170  -60.3370 N   0  0  0  0  0  0  0  0  0  0  0  0
    5.0450    1.2050  -60.5470 C   0  0  0  0  0  0  0  0  0  0  0  0
    6.0660    1.0740  -59.6170 C   0  0  0  0  0  0  0  0  0  0  0  0
    9.7460    2.3550  -59.2950 C   0  0  0  0  0  0  0  0  0  0  0  0
   10.3840    3.1650  -60.2370 C   0  0  0  0  0  0  0  0  0  0  0  0
   10.7076    5.1836  -60.9478 H   0  0  0  0  0  0  0  0  0  0  0  0
    9.2231    6.2097  -59.2253 H   0  0  0  0  0  0  0  0  0  0  0  0
    8.0735    4.7680  -57.5494 H   0  0  0  0  0  0  0  0  0  0  0  0
    9.8053    1.7135  -55.7921 H   0  0  0  0  0  0  0  0  0  0  0  0
    7.1830    0.8960  -53.5600 H   0  0  0  0  0  0  0  0  0  0  0  0
    8.4604   -0.3209  -51.8123 H   0  0  0  0  0  0  0  0  0  0  0  0
    6.8184   -0.9875  -52.1738 H   0  0  0  0  0  0  0  0  0  0  0  0
    8.1476   -2.5685  -50.7767 H   0  0  0  0  0  0  0  0  0  0  0  0
    7.8785   -4.5555  -52.2692 H   0  0  0  0  0  0  0  0  0  0  0  0
    6.4810   -3.4320  -52.4204 H   0  0  0  0  0  0  0  0  0  0  0  0
    7.2576   -4.2171  -54.6601 H   0  0  0  0  0  0  0  0  0  0  0  0
    9.6466   -4.5960  -54.0604 H   0  0  0  0  0  0  0  0  0  0  0  0
    9.5070   -3.4845  -55.4725 H   0  0  0  0  0  0  0  0  0  0  0  0
   11.1963   -2.6577  -53.8234 H   0  0  0  0  0  0  0  0  0  0  0  0
   10.1611   -3.6524  -51.7855 H   0  0  0  0  0  0  0  0  0  0  0  0
   10.4029   -1.8799  -51.5881 H   0  0  0  0  0  0  0  0  0  0  0  0
   10.2273   -0.3618  -53.5490 H   0  0  0  0  0  0  0  0  0  0  0  0
    9.8878   -1.0380  -55.1865 H   0  0  0  0  0  0  0  0  0  0  0  0
    7.5297   -1.9664  -55.6892 H   0  0  0  0  0  0  0  0  0  0  0  0
    6.2929   -1.9227  -54.3778 H   0  0  0  0  0  0  0  0  0  0  0  0
    4.6024    2.9500  -57.1771 H   0  0  0  0  0  0  0  0  0  0  0  0
    2.8826    3.0921  -58.9339 H   0  0  0  0  0  0  0  0  0  0  0  0
    5.1613    0.6970  -61.5157 H   0  0  0  0  0  0  0  0  0  0  0  0
    6.9610    0.4761  -59.8440 H   0  0  0  0  0  0  0  0  0  0  0  0
    9.8873    1.2645  -59.3245 H   0  0  0  0  0  0  0  0  0  0  0  0
   11.0323    2.7124  -61.0017 H   0  0  0  0  0  0  0  0  0  0  0  0
  1  2  2  0
  2  3  1  0
  3  4  2  0
  4  5  1  0
  5  6  2  0
  6  7  1  0
  7  8  1  0
  9  8  1  6
  9 10  1  0
 10 11  1  0
 11 12  1  0
 12 13  1  0
 13 14  1  0
 14 15  1  0
 15 16  1  0
 15 17  1  0
 13 18  1  0
  7 19  2  0
 19 20  1  0
 20 21  1  0
 21 22  2  0
 22 23  1  0
 23 24  2  0
 24 25  1  0
 25 26  2  0
  4 27  1  0
 27 28  2  0
 28  1  1  0
 20  5  1  0
 26 21  1  0
 17  9  1  0
 18  9  1  0
 16 11  1  0
  1 29  1  0
  2 30  1  0
  3 31  1  0
  6 32  1  0
  8 33  1  0
 10 34  1  0
 10 35  1  0
 11 36  1  1
 12 37  1  0
 12 38  1  0
 13 39  1  6
 14 40  1  0
 14 41  1  0
 15 42  1  1
 16 43  1  0
 16 44  1  0
 17 45  1  0
 17 46  1  0
 18 47  1  0
 18 48  1  0
 22 49  1  0
 23 50  1  0
 25 51  1  0
 26 52  1  0
 27 53  1  0
 28 54  1  0
M  END
>  <meeko>  (156) 
{"is_sidechain": false}

$$$$

     RDKit          3D

 54 59  0  0  0  0  0  0  0  0999 V2000
    4.0510    2.2040  -59.8150 C   0  0  0  0  0  0  0  0  0  0  0  0
    3.9670    2.6430  -58.4960 C   0  0  0  0  0  0  0  0  0  0  0  0
    5.0400    2.4430  -57.6230 C   0  0  0  0  0  0  0  0  0  0  0  0
    6.2080    1.8080  -58.0670 C   0  0  0  0  0  0  0  0  0  0  0  0
    7.3280    1.5900  -57.1500 C   0  0  0  0  0  0  0  0  0  0  0  0
    7.2260    0.7590  -56.0930 C   0  0  0  0  0  0  0  0  0  0  0  0
    8.5350    0.9320  -55.4040 C   0  0  0  0  0  0  0  0  0  0  0  0
    9.0480    0.2760  -54.4340 N   0  0  0  0  0  0  0  0  0  0  0  0
    8.4400   -0.8300  -53.7010 C   0  0  2  0  0  0  0  0  0  0  0  0
    7.5360   -0.3440  -52.5500 C   0  0  0  0  0  0  0  0  0  0  0  0
    7.0020   -1.5470  -51.7500 C   0  0  1  0  0  0  0  0  0  0  0  0
    6.2250   -2.4810  -52.6940 C   0  0  0  0  0  0  0  0  0  0  0  0
    7.1490   -3.0010  -53.8100 C   0  0  2  0  0  0  0  0  0  0  0  0
    8.3320   -3.7540  -53.1820 C   0  0  0  0  0  0  0  0  0  0  0  0
    9.1150   -2.8150  -52.2530 C   0  0  2  0  0  0  0  0  0  0  0  0
    8.1850   -2.3120  -51.1380 C   0  0  0  0  0  0  0  0  0  0  0  0
    9.6230   -1.6130  -53.0650 C   0  0  0  0  0  0  0  0  0  0  0  0
    7.6830   -1.8070  -54.6240 C   0  0  0  0  0  0  0  0  0  0  0  0
    9.2410    1.9530  -56.0220 N   0  0  0  0  0  0  0  0  0  0  0  0
    8.5470    2.2770  -57.1670 N   0  0  0  0  0  0  0  0  0  0  0  0
    9.0640    3.1860  -58.1270 C   0  0  0  0  0  0  0  0  0  0  0  0
    9.8400    2.7100  -59.1930 C   0  0  0  0  0  0  0  0  0  0  0  0
   10.3320    3.6050  -60.1300 C   0  0  0  0  0  0  0  0  0  0  0  0
   10.1000    4.9310  -60.0920 N   0  0  0  0  0  0  0  0  0  0  0  0
    9.3420    5.3770  -59.0710 C   0  0  0  0  0  0  0  0  0  0  0  0
    8.8080    4.5590  -58.0870 C   0  0  0  0  0  0  0  0  0  0  0  0
    6.2760    1.3620  -59.3950 C   0  0  0  0  0  0  0  0  0  0  0  0
    5.2030    1.5620  -60.2650 C   0  0  0  0  0  0  0  0  0  0  0  0
    3.2072    2.3642  -60.5022 H   0  0  0  0  0  0  0  0  0  0  0  0
    3.0560    3.1472  -58.1412 H   0  0  0  0  0  0  0  0  0  0  0  0
    4.9674    2.7863  -56.5805 H   0  0  0  0  0  0  0  0  0  0  0  0
    6.3828    0.1120  -55.8092 H   0  0  0  0  0  0  0  0  0  0  0  0
    8.1175    0.3079  -51.8815 H   0  0  0  0  0  0  0  0  0  0  0  0
    6.6862    0.2131  -52.9713 H   0  0  0  0  0  0  0  0  0  0  0  0
    6.3352   -1.1939  -50.9496 H   0  0  0  0  0  0  0  0  0  0  0  0
    5.8339   -3.3338  -52.1198 H   0  0  0  0  0  0  0  0  0  0  0  0
    5.3948   -1.9206  -53.1487 H   0  0  0  0  0  0  0  0  0  0  0  0
    6.5869   -3.6790  -54.4690 H   0  0  0  0  0  0  0  0  0  0  0  0
    7.9538   -4.6089  -52.6022 H   0  0  0  0  0  0  0  0  0  0  0  0
    8.9984   -4.1121  -53.9805 H   0  0  0  0  0  0  0  0  0  0  0  0
    9.9655   -3.3547  -51.8111 H   0  0  0  0  0  0  0  0  0  0  0  0
    7.8065   -3.1704  -50.5637 H   0  0  0  0  0  0  0  0  0  0  0  0
    8.7469   -1.6391  -50.4736 H   0  0  0  0  0  0  0  0  0  0  0  0
   10.1831   -0.9400  -52.3992 H   0  0  0  0  0  0  0  0  0  0  0  0
   10.2716   -1.9844  -53.8721 H   0  0  0  0  0  0  0  0  0  0  0  0
    8.3670   -2.1749  -55.4030 H   0  0  0  0  0  0  0  0  0  0  0  0
    6.8356   -1.2802  -55.0871 H   0  0  0  0  0  0  0  0  0  0  0  0
   10.2310    1.7420  -56.1110 H   0  0  0  0  0  0  0  0  0  0  0  0
   10.0566    1.6355  -59.2850 H   0  0  0  0  0  0  0  0  0  0  0  0
   10.9472    3.2096  -60.9517 H   0  0  0  0  0  0  0  0  0  0  0  0
    9.1342    6.4557  -59.0148 H   0  0  0  0  0  0  0  0  0  0  0  0
    8.1897    4.9862  -57.2838 H   0  0  0  0  0  0  0  0  0  0  0  0
    7.1816    0.8508  -59.7535 H   0  0  0  0  0  0  0  0  0  0  0  0
    5.2668    1.2127  -61.3061 H   0  0  0  0  0  0  0  0  0  0  0  0
  1  2  2  0
  2  3  1  0
  3  4  2  0
  4  5  1  0
  5  6  2  0
  6  7  1  0
  7  8  2  0
  9  8  1  6
  9 10  1  0
 10 11  1  0
 11 12  1  0
 12 13  1  0
 13 14  1  0
 14 15  1  0
 15 16  1  0
 15 17  1  0
 13 18  1  0
  7 19  1  0
 19 20  1  0
 20 21  1  0
 21 22  2  0
 22 23  1  0
 23 24  2  0
 24 25  1  0
 25 26  2  0
  4 27  1  0
 27 28  2  0
 28  1  1  0
 20  5  1  0
 26 21  1  0
 17  9  1  0
 18  9  1  0
 16 11  1  0
  1 29  1  0
  2 30  1  0
  3 31  1  0
  6 32  1  0
 10 33  1  0
 10 34  1  0
 11 35  1  1
 12 36  1  0
 12 37  1  0
 13 38  1  6
 14 39  1  0
 14 40  1  0
 15 41  1  1
 16 42  1  0
 16 43  1  0
 17 44  1  0
 17 45  1  0
 18 46  1  0
 18 47  1  0
 19 48  1  0
 22 49  1  0
 23 50  1  0
 25 51  1  0
 26 52  1  0
 27 53  1  0
 28 54  1  0
M  END
>  <meeko>  (157) 
{"is_sidechain": false}

$$$$

     RDKit          3D

 54 59  0  0  0  0  0  0  0  0999 V2000
    7.8020   -3.8100  -51.4960 C   0  0  0  0  0  0  0  0  0  0  0  0
    8.9070   -2.9950  -51.2550 C   0  0  0  0  0  0  0  0  0  0  0  0
    9.3400   -2.0970  -52.2330 C   0  0  0  0  0  0  0  0  0  0  0  0
    8.6760   -2.0130  -53.4660 C   0  0  0  0  0  0  0  0  0  0  0  0
    9.1290   -1.0680  -54.4870 C   0  0  0  0  0  0  0  0  0  0  0  0
    8.6180    0.1750  -54.5820 C   0  0  0  0  0  0  0  0  0  0  0  0
    9.4400    0.8000  -55.6550 C   0  0  0  0  0  0  0  0  0  0  0  0
    9.1280    1.9700  -56.0680 N   0  0  0  0  0  0  0  0  0  0  0  0
    9.8440    2.7080  -57.1080 C   0  0  2  0  0  0  0  0  0  0  0  0
    9.5950    4.2120  -56.8050 C   0  0  0  0  0  0  0  0  0  0  0  0
   10.2850    5.1030  -57.8500 C   0  0  1  0  0  0  0  0  0  0  0  0
   11.7960    4.8270  -57.8280 C   0  0  0  0  0  0  0  0  0  0  0  0
   12.0630    3.3460  -58.1390 C   0  0  2  0  0  0  0  0  0  0  0  0
   11.4920    3.0090  -59.5280 C   0  0  0  0  0  0  0  0  0  0  0  0
    9.9770    3.2860  -59.5640 C   0  0  2  0  0  0  0  0  0  0  0  0
    9.7280    4.7680  -59.2430 C   0  0  0  0  0  0  0  0  0  0  0  0
    9.2750    2.4120  -58.5100 C   0  0  0  0  0  0  0  0  0  0  0  0
   11.3680    2.4690  -57.0800 C   0  0  0  0  0  0  0  0  0  0  0  0
   10.4350   -0.0810  -56.0470 N   0  0  0  0  0  0  0  0  0  0  0  0
   10.1900   -1.2670  -55.3800 N   0  0  0  0  0  0  0  0  0  0  0  0
   10.9370   -2.4430  -55.6530 C   0  0  0  0  0  0  0  0  0  0  0  0
   11.5620   -2.5990  -56.8980 C   0  0  0  0  0  0  0  0  0  0  0  0
   12.2790   -3.7560  -57.1610 C   0  0  0  0  0  0  0  0  0  0  0  0
   12.4080   -4.7700  -56.2840 N   0  0  0  0  0  0  0  0  0  0  0  0
   11.7920   -4.6170  -55.0940 C   0  0  0  0  0  0  0  0  0  0  0  0
   11.0570   -3.4960  -54.7420 C   0  0  0  0  0  0  0  0  0  0  0  0
    7.5610   -2.8320  -53.6930 C   0  0  0  0  0  0  0  0  0  0  0  0
    7.1280   -3.7280  -52.7140 C   0  0  0  0  0  0  0  0  0  0  0  0
    7.4618   -4.5176  -50.7256 H   0  0  0  0  0  0  0  0  0  0  0  0
    9.4382   -3.0593  -50.2939 H   0  0  0  0  0  0  0  0  0  0  0  0
   10.2080   -1.4509  -52.0351 H   0  0  0  0  0  0  0  0  0  0  0  0
    7.7932    0.6204  -54.0063 H   0  0  0  0  0  0  0  0  0  0  0  0
    8.5128    4.4086  -56.8221 H   0  0  0  0  0  0  0  0  0  0  0  0
   10.0119    4.4448  -55.8140 H   0  0  0  0  0  0  0  0  0  0  0  0
   10.0982    6.1624  -57.6203 H   0  0  0  0  0  0  0  0  0  0  0  0
   12.2920    5.4534  -58.5840 H   0  0  0  0  0  0  0  0  0  0  0  0
   12.1924    5.0640  -56.8297 H   0  0  0  0  0  0  0  0  0  0  0  0
   13.1462    3.1550  -58.1252 H   0  0  0  0  0  0  0  0  0  0  0  0
   11.9925    3.6289  -60.2864 H   0  0  0  0  0  0  0  0  0  0  0  0
   11.6663    1.9434  -59.7380 H   0  0  0  0  0  0  0  0  0  0  0  0
    9.5796    3.0503  -60.5623 H   0  0  0  0  0  0  0  0  0  0  0  0
   10.2294    5.3935  -59.9963 H   0  0  0  0  0  0  0  0  0  0  0  0
    8.6458    4.9644  -59.2568 H   0  0  0  0  0  0  0  0  0  0  0  0
    8.1967    2.6292  -58.5177 H   0  0  0  0  0  0  0  0  0  0  0  0
    9.4465    1.3524  -58.7505 H   0  0  0  0  0  0  0  0  0  0  0  0
   11.5738    1.4097  -57.2934 H   0  0  0  0  0  0  0  0  0  0  0  0
   11.7548    2.7333  -56.0847 H   0  0  0  0  0  0  0  0  0  0  0  0
   10.5390   -0.1620  -57.0520 H   0  0  0  0  0  0  0  0  0  0  0  0
   11.4842   -1.8097  -57.6602 H   0  0  0  0  0  0  0  0  0  0  0  0
   12.7700   -3.8512  -58.1407 H   0  0  0  0  0  0  0  0  0  0  0  0
   11.8781   -5.4307  -54.3588 H   0  0  0  0  0  0  0  0  0  0  0  0
   10.5732   -3.4357  -53.7560 H   0  0  0  0  0  0  0  0  0  0  0  0
    7.0230   -2.7680  -54.6503 H   0  0  0  0  0  0  0  0  0  0  0  0
    6.2548   -4.3696  -52.9034 H   0  0  0  0  0  0  0  0  0  0  0  0
  1  2  2  0
  2  3  1  0
  3  4  2  0
  4  5  1  0
  5  6  2  0
  6  7  1  0
  7  8  2  0
  9  8  1  1
  9 10  1  0
 10 11  1  0
 11 12  1  0
 12 13  1  0
 13 14  1  0
 14 15  1  0
 15 16  1  0
 15 17  1  0
 13 18  1  0
  7 19  1  0
 19 20  1  0
 20 21  1  0
 21 22  2  0
 22 23  1  0
 23 24  2  0
 24 25  1  0
 25 26  2  0
  4 27  1  0
 27 28  2  0
 28  1  1  0
 20  5  1  0
 26 21  1  0
 17  9  1  0
 18  9  1  0
 16 11  1  0
  1 29  1  0
  2 30  1  0
  3 31  1  0
  6 32  1  0
 10 33  1  0
 10 34  1  0
 11 35  1  1
 12 36  1  0
 12 37  1  0
 13 38  1  6
 14 39  1  0
 14 40  1  0
 15 41  1  6
 16 42  1  0
 16 43  1  0
 17 44  1  0
 17 45  1  0
 18 46  1  0
 18 47  1  0
 19 48  1  0
 22 49  1  0
 23 50  1  0
 25 51  1  0
 26 52  1  0
 27 53  1  0
 28 54  1  0
M  END
>  <meeko>  (158) 
{"is_sidechain": false}

$$$$
