
     RDKit          3D

 41 43  0  0  0  0  0  0  0  0999 V2000
    1.4456    0.0211    2.2047 O   0  0  0  0  0  0  0  0  0  0  0  0
    1.7030    0.0054    0.9973 C   0  0  0  0  0  0  0  0  0  0  0  0
    0.6125    0.0241    0.0403 C   0  0  0  0  0  0  0  0  0  0  0  0
    0.6710    0.1374   -1.2715 N   0  0  0  0  0  0  0  0  0  0  0  0
   -0.6130    0.1254   -1.7654 N   0  0  0  0  0  0  0  0  0  0  0  0
   -1.4412    0.0216   -0.7477 C   0  0  0  0  0  0  0  0  0  0  0  0
   -2.9345   -0.0216   -0.8028 C   0  0  0  0  0  0  0  0  0  0  0  0
   -3.4802   -1.3488   -0.2553 C   0  0  0  0  0  0  0  0  0  0  0  0
   -5.0063   -1.3891   -0.3029 C   0  0  0  0  0  0  0  0  0  0  0  0
   -5.6239   -0.1941    0.4173 C   0  0  0  0  0  0  0  0  0  0  0  0
   -5.0858    1.1279   -0.1223 C   0  0  0  0  0  0  0  0  0  0  0  0
   -3.5599    1.1769   -0.0741 C   0  0  0  0  0  0  0  0  0  0  0  0
   -0.7077   -0.0394    0.4050 N   0  0  0  0  0  0  0  0  0  0  0  0
    3.0311   -0.0232    0.5527 N   0  0  0  0  0  0  0  0  0  0  0  0
    4.1046    0.1200    1.5336 C   0  0  0  0  0  0  0  0  0  0  0  0
    5.2499    0.9580    0.9770 C   0  0  0  0  0  0  0  0  0  0  0  0
    5.8296    0.3736   -0.3116 C   0  0  0  0  0  0  0  0  0  0  0  0
    4.8913   -0.6198   -0.9917 C   0  0  0  0  0  0  0  0  0  0  0  0
    3.4257   -0.2205   -0.8452 C   0  0  0  0  0  0  0  0  0  0  0  0
   -3.2221    0.0452   -1.8618 H   0  0  0  0  0  0  0  0  0  0  0  0
   -3.0765   -2.1897   -0.8328 H   0  0  0  0  0  0  0  0  0  0  0  0
   -3.1522   -1.4978    0.7820 H   0  0  0  0  0  0  0  0  0  0  0  0
   -5.3644   -2.3192    0.1528 H   0  0  0  0  0  0  0  0  0  0  0  0
   -5.3385   -1.3972   -1.3483 H   0  0  0  0  0  0  0  0  0  0  0  0
   -6.7139   -0.2206    0.3073 H   0  0  0  0  0  0  0  0  0  0  0  0
   -5.4090   -0.2643    1.4907 H   0  0  0  0  0  0  0  0  0  0  0  0
   -5.4225    1.2641   -1.1574 H   0  0  0  0  0  0  0  0  0  0  0  0
   -5.4994    1.9591    0.4598 H   0  0  0  0  0  0  0  0  0  0  0  0
   -3.2373    1.1968    0.9753 H   0  0  0  0  0  0  0  0  0  0  0  0
   -3.2124    2.1153   -0.5240 H   0  0  0  0  0  0  0  0  0  0  0  0
   -1.0439   -0.1114    1.3547 H   0  0  0  0  0  0  0  0  0  0  0  0
    3.7284    0.5843    2.4513 H   0  0  0  0  0  0  0  0  0  0  0  0
    4.4502   -0.8871    1.7952 H   0  0  0  0  0  0  0  0  0  0  0  0
    4.8792    1.9700    0.7682 H   0  0  0  0  0  0  0  0  0  0  0  0
    6.0424    1.0643    1.7262 H   0  0  0  0  0  0  0  0  0  0  0  0
    6.7820   -0.1266   -0.0988 H   0  0  0  0  0  0  0  0  0  0  0  0
    6.0638    1.1952   -0.9995 H   0  0  0  0  0  0  0  0  0  0  0  0
    5.1546   -0.7172   -2.0509 H   0  0  0  0  0  0  0  0  0  0  0  0
    5.0372   -1.6102   -0.5411 H   0  0  0  0  0  0  0  0  0  0  0  0
    2.8052   -1.0066   -1.2865 H   0  0  0  0  0  0  0  0  0  0  0  0
    3.2375    0.7187   -1.3777 H   0  0  0  0  0  0  0  0  0  0  0  0
  1  2  2  0
  2  3  1  0
  3  4  2  0
  4  5  1  0
  5  6  2  0
  6  7  1  0
  7  8  1  0
  8  9  1  0
  9 10  1  0
 10 11  1  0
 11 12  1  0
  6 13  1  0
  2 14  1  0
 14 15  1  0
 15 16  1  0
 16 17  1  0
 17 18  1  0
 18 19  1  0
 13  3  1  0
 19 14  1  0
 12  7  1  0
  7 20  1  0
  8 21  1  0
  8 22  1  0
  9 23  1  0
  9 24  1  0
 10 25  1  0
 10 26  1  0
 11 27  1  0
 11 28  1  0
 12 29  1  0
 12 30  1  0
 13 31  1  0
 15 32  1  0
 15 33  1  0
 16 34  1  0
 16 35  1  0
 17 36  1  0
 17 37  1  0
 18 38  1  0
 18 39  1  0
 19 40  1  0
 19 41  1  0
M  END
>  <_SMILES>  (1) 
O=C(c1nnc(C2CCCCC2)[nH]1)N1CCCCC1

$$$$

     RDKit          3D

 41 43  0  0  0  0  0  0  0  0999 V2000
   -2.4282   -1.2327   -2.7177 O   0  0  0  0  0  0  0  0  0  0  0  0
   -2.0560   -0.7655   -1.6379 C   0  0  0  0  0  0  0  0  0  0  0  0
   -0.6386   -0.7223   -1.3312 C   0  0  0  0  0  0  0  0  0  0  0  0
   -0.0207   -0.1702   -0.3028 N   0  0  0  0  0  0  0  0  0  0  0  0
    1.3063   -0.4197   -0.5492 C   0  0  0  0  0  0  0  0  0  0  0  0
    2.3836    0.0320    0.3884 C   0  0  0  0  0  0  0  0  0  0  0  0
    3.0112   -1.1629    1.1329 C   0  0  0  0  0  0  0  0  0  0  0  0
    4.3884   -0.8171    1.6848 C   0  0  0  0  0  0  0  0  0  0  0  0
    5.3717   -0.4553    0.5707 C   0  0  0  0  0  0  0  0  0  0  0  0
    4.7028    0.1530   -0.6633 C   0  0  0  0  0  0  0  0  0  0  0  0
    3.4358    0.9230   -0.3044 C   0  0  0  0  0  0  0  0  0  0  0  0
    1.5465   -1.0951   -1.6799 N   0  0  0  0  0  0  0  0  0  0  0  0
    0.3035   -1.2639   -2.1587 N   0  0  0  0  0  0  0  0  0  0  0  0
   -2.9875   -0.2712   -0.7156 N   0  0  0  0  0  0  0  0  0  0  0  0
   -4.3912   -0.1815   -1.1118 C   0  0  0  0  0  0  0  0  0  0  0  0
   -5.0374    1.0846   -0.5610 C   0  0  0  0  0  0  0  0  0  0  0  0
   -4.9424    1.1750    0.9625 C   0  0  0  0  0  0  0  0  0  0  0  0
   -3.8771    0.2531    1.5502 C   0  0  0  0  0  0  0  0  0  0  0  0
   -2.6506    0.1426    0.6490 C   0  0  0  0  0  0  0  0  0  0  0  0
    1.8941    0.6667    1.1413 H   0  0  0  0  0  0  0  0  0  0  0  0
    2.3481   -1.4717    1.9507 H   0  0  0  0  0  0  0  0  0  0  0  0
    3.1046   -2.0348    0.4720 H   0  0  0  0  0  0  0  0  0  0  0  0
    4.7859   -1.6554    2.2680 H   0  0  0  0  0  0  0  0  0  0  0  0
    4.2962    0.0284    2.3781 H   0  0  0  0  0  0  0  0  0  0  0  0
    6.1154    0.2434    0.9726 H   0  0  0  0  0  0  0  0  0  0  0  0
    5.9288   -1.3485    0.2627 H   0  0  0  0  0  0  0  0  0  0  0  0
    5.4129    0.8120   -1.1758 H   0  0  0  0  0  0  0  0  0  0  0  0
    4.4549   -0.6458   -1.3729 H   0  0  0  0  0  0  0  0  0  0  0  0
    3.0242    1.4053   -1.1993 H   0  0  0  0  0  0  0  0  0  0  0  0
    3.7138    1.7365    0.3793 H   0  0  0  0  0  0  0  0  0  0  0  0
    0.1520   -1.7448   -3.0388 H   0  0  0  0  0  0  0  0  0  0  0  0
   -4.4855   -0.1916   -2.2026 H   0  0  0  0  0  0  0  0  0  0  0  0
   -4.8999   -1.0754   -0.7319 H   0  0  0  0  0  0  0  0  0  0  0  0
   -6.0865    1.1422   -0.8720 H   0  0  0  0  0  0  0  0  0  0  0  0
   -4.5339    1.9574   -0.9967 H   0  0  0  0  0  0  0  0  0  0  0  0
   -4.7313    2.2140    1.2435 H   0  0  0  0  0  0  0  0  0  0  0  0
   -5.9119    0.9286    1.4118 H   0  0  0  0  0  0  0  0  0  0  0  0
   -4.3100   -0.7464    1.6868 H   0  0  0  0  0  0  0  0  0  0  0  0
   -3.5862    0.6057    2.5461 H   0  0  0  0  0  0  0  0  0  0  0  0
   -2.1433    1.1120    0.5852 H   0  0  0  0  0  0  0  0  0  0  0  0
   -1.9625   -0.5874    1.0865 H   0  0  0  0  0  0  0  0  0  0  0  0
  1  2  2  0
  2  3  1  0
  3  4  2  0
  4  5  1  0
  5  6  1  0
  6  7  1  0
  7  8  1  0
  8  9  1  0
  9 10  1  0
 10 11  1  0
  5 12  2  0
 12 13  1  0
  2 14  1  0
 14 15  1  0
 15 16  1  0
 16 17  1  0
 17 18  1  0
 18 19  1  0
 13  3  1  0
 19 14  1  0
 11  6  1  0
  6 20  1  0
  7 21  1  0
  7 22  1  0
  8 23  1  0
  8 24  1  0
  9 25  1  0
  9 26  1  0
 10 27  1  0
 10 28  1  0
 11 29  1  0
 11 30  1  0
 13 31  1  0
 15 32  1  0
 15 33  1  0
 16 34  1  0
 16 35  1  0
 17 36  1  0
 17 37  1  0
 18 38  1  0
 18 39  1  0
 19 40  1  0
 19 41  1  0
M  END
>  <_SMILES>  (2) 
O=C(c1nc(C2CCCCC2)n[nH]1)N1CCCCC1

$$$$

     RDKit          3D

 41 43  0  0  0  0  0  0  0  0999 V2000
   -1.6006   -0.6779   -2.3603 O   0  0  0  0  0  0  0  0  0  0  0  0
   -1.7655   -0.3218   -1.1894 C   0  0  0  0  0  0  0  0  0  0  0  0
   -0.6174    0.1483   -0.3730 C   0  0  0  0  0  0  0  0  0  0  0  0
   -0.6870    1.1190    0.5638 N   0  0  0  0  0  0  0  0  0  0  0  0
    0.5924    1.2397    0.9447 N   0  0  0  0  0  0  0  0  0  0  0  0
    1.4046    0.3762    0.2723 C   0  0  0  0  0  0  0  0  0  0  0  0
    2.8802    0.2992    0.4924 C   0  0  0  0  0  0  0  0  0  0  0  0
    3.6414    0.9340   -0.6866 C   0  0  0  0  0  0  0  0  0  0  0  0
    5.0501    0.3661   -0.8828 C   0  0  0  0  0  0  0  0  0  0  0  0
    5.6571   -0.1173    0.4266 C   0  0  0  0  0  0  0  0  0  0  0  0
    4.8222   -1.2289    1.0645 C   0  0  0  0  0  0  0  0  0  0  0  0
    3.3312   -1.1464    0.7268 C   0  0  0  0  0  0  0  0  0  0  0  0
    0.6732   -0.3179   -0.5698 N   0  0  0  0  0  0  0  0  0  0  0  0
   -3.0542   -0.3297   -0.6268 N   0  0  0  0  0  0  0  0  0  0  0  0
   -4.1727   -0.6137   -1.5186 C   0  0  0  0  0  0  0  0  0  0  0  0
   -5.5343   -0.4642   -0.8382 C   0  0  0  0  0  0  0  0  0  0  0  0
   -5.5545    0.7457    0.0916 C   0  0  0  0  0  0  0  0  0  0  0  0
   -4.4215    0.7064    1.1256 C   0  0  0  0  0  0  0  0  0  0  0  0
   -3.3522   -0.3339    0.8004 C   0  0  0  0  0  0  0  0  0  0  0  0
    0.8374    1.9234    1.6517 H   0  0  0  0  0  0  0  0  0  0  0  0
    3.1234    0.8709    1.3996 H   0  0  0  0  0  0  0  0  0  0  0  0
    3.0911    0.8194   -1.6297 H   0  0  0  0  0  0  0  0  0  0  0  0
    3.7073    2.0164   -0.5137 H   0  0  0  0  0  0  0  0  0  0  0  0
    5.0074   -0.4723   -1.5896 H   0  0  0  0  0  0  0  0  0  0  0  0
    5.6919    1.1272   -1.3409 H   0  0  0  0  0  0  0  0  0  0  0  0
    6.6802   -0.4740    0.2630 H   0  0  0  0  0  0  0  0  0  0  0  0
    5.7296    0.7280    1.1225 H   0  0  0  0  0  0  0  0  0  0  0  0
    4.9591   -1.1902    2.1521 H   0  0  0  0  0  0  0  0  0  0  0  0
    5.2003   -2.2075    0.7445 H   0  0  0  0  0  0  0  0  0  0  0  0
    2.7512   -1.6131    1.5329 H   0  0  0  0  0  0  0  0  0  0  0  0
    3.1348   -1.7454   -0.1730 H   0  0  0  0  0  0  0  0  0  0  0  0
   -4.0588   -1.6318   -1.9090 H   0  0  0  0  0  0  0  0  0  0  0  0
   -4.1027    0.0728   -2.3712 H   0  0  0  0  0  0  0  0  0  0  0  0
   -6.3220   -0.3808   -1.5952 H   0  0  0  0  0  0  0  0  0  0  0  0
   -5.7549   -1.3673   -0.2552 H   0  0  0  0  0  0  0  0  0  0  0  0
   -6.5217    0.8140    0.6022 H   0  0  0  0  0  0  0  0  0  0  0  0
   -5.4569    1.6585   -0.5097 H   0  0  0  0  0  0  0  0  0  0  0  0
   -4.8310    0.5000    2.1214 H   0  0  0  0  0  0  0  0  0  0  0  0
   -3.9637    1.7019    1.1798 H   0  0  0  0  0  0  0  0  0  0  0  0
   -2.4734   -0.1940    1.4291 H   0  0  0  0  0  0  0  0  0  0  0  0
   -3.7209   -1.3391    1.0429 H   0  0  0  0  0  0  0  0  0  0  0  0
  1  2  2  0
  2  3  1  0
  3  4  2  0
  4  5  1  0
  5  6  1  0
  6  7  1  0
  7  8  1  0
  8  9  1  0
  9 10  1  0
 10 11  1  0
 11 12  1  0
  6 13  2  0
  2 14  1  0
 14 15  1  0
 15 16  1  0
 16 17  1  0
 17 18  1  0
 18 19  1  0
 13  3  1  0
 19 14  1  0
 12  7  1  0
  5 20  1  0
  7 21  1  0
  8 22  1  0
  8 23  1  0
  9 24  1  0
  9 25  1  0
 10 26  1  0
 10 27  1  0
 11 28  1  0
 11 29  1  0
 12 30  1  0
 12 31  1  0
 15 32  1  0
 15 33  1  0
 16 34  1  0
 16 35  1  0
 17 36  1  0
 17 37  1  0
 18 38  1  0
 18 39  1  0
 19 40  1  0
 19 41  1  0
M  END
>  <_SMILES>  (3) 
O=C(c1n[nH]c(C2CCCCC2)n1)N1CCCCC1

$$$$

     RDKit          3D

 38 40  0  0  0  0  0  0  0  0999 V2000
   -2.6166    1.1355    2.1042 O   0  0  0  0  0  0  0  0  0  0  0  0
   -2.4514    0.4867    1.0674 C   0  0  0  0  0  0  0  0  0  0  0  0
   -1.1119    0.2012    0.5953 C   0  0  0  0  0  0  0  0  0  0  0  0
   -0.7501   -0.4187   -0.5104 N   0  0  0  0  0  0  0  0  0  0  0  0
    0.6244   -0.4558   -0.5547 N   0  0  0  0  0  0  0  0  0  0  0  0
    1.0836    0.1471    0.5216 C   0  0  0  0  0  0  0  0  0  0  0  0
    2.5107    0.3652    0.9155 C   0  0  0  0  0  0  0  0  0  0  0  0
    3.1519    1.4340    0.0101 C   0  0  0  0  0  0  0  0  0  0  0  0
    4.6675    1.2890   -0.0420 C   0  0  0  0  0  0  0  0  0  0  0  0
    5.0876   -0.0610   -0.6252 C   0  0  0  0  0  0  0  0  0  0  0  0
    4.0751   -1.1794   -0.3712 C   0  0  0  0  0  0  0  0  0  0  0  0
    3.2977   -0.9606    0.9231 C   0  0  0  0  0  0  0  0  0  0  0  0
    0.0220    0.5772    1.2675 N   0  0  0  0  0  0  0  0  0  0  0  0
   -3.5424    0.0304    0.3449 N   0  0  0  0  0  0  0  0  0  0  0  0
   -3.5306   -0.8002   -0.8523 C   0  0  0  0  0  0  0  0  0  0  0  0
   -4.9899   -1.1867   -1.0615 C   0  0  0  0  0  0  0  0  0  0  0  0
   -5.7481   -0.0111   -0.4608 C   0  0  0  0  0  0  0  0  0  0  0  0
   -4.8983    0.3552    0.7462 C   0  0  0  0  0  0  0  0  0  0  0  0
    2.5217    0.7437    1.9474 H   0  0  0  0  0  0  0  0  0  0  0  0
    2.7569    1.3733   -1.0131 H   0  0  0  0  0  0  0  0  0  0  0  0
    2.8851    2.4321    0.3794 H   0  0  0  0  0  0  0  0  0  0  0  0
    5.1071    2.0986   -0.6355 H   0  0  0  0  0  0  0  0  0  0  0  0
    5.0739    1.3903    0.9723 H   0  0  0  0  0  0  0  0  0  0  0  0
    6.0611   -0.3380   -0.2027 H   0  0  0  0  0  0  0  0  0  0  0  0
    5.2413    0.0334   -1.7071 H   0  0  0  0  0  0  0  0  0  0  0  0
    3.3730   -1.2324   -1.2124 H   0  0  0  0  0  0  0  0  0  0  0  0
    4.5954   -2.1435   -0.3413 H   0  0  0  0  0  0  0  0  0  0  0  0
    2.6378   -1.8160    1.1128 H   0  0  0  0  0  0  0  0  0  0  0  0
    4.0163   -0.9393    1.7534 H   0  0  0  0  0  0  0  0  0  0  0  0
    0.0377    1.0789    2.1440 H   0  0  0  0  0  0  0  0  0  0  0  0
   -3.1572   -0.1951   -1.6852 H   0  0  0  0  0  0  0  0  0  0  0  0
   -2.8970   -1.6808   -0.7163 H   0  0  0  0  0  0  0  0  0  0  0  0
   -5.2196   -2.1001   -0.4994 H   0  0  0  0  0  0  0  0  0  0  0  0
   -5.2325   -1.3623   -2.1131 H   0  0  0  0  0  0  0  0  0  0  0  0
   -5.7665    0.8211   -1.1748 H   0  0  0  0  0  0  0  0  0  0  0  0
   -6.7790   -0.2573   -0.1924 H   0  0  0  0  0  0  0  0  0  0  0  0
   -4.9879    1.4098    1.0235 H   0  0  0  0  0  0  0  0  0  0  0  0
   -5.1489   -0.2643    1.6146 H   0  0  0  0  0  0  0  0  0  0  0  0
  1  2  2  0
  2  3  1  0
  3  4  2  0
  4  5  1  0
  5  6  2  0
  6  7  1  0
  7  8  1  0
  8  9  1  0
  9 10  1  0
 10 11  1  0
 11 12  1  0
  6 13  1  0
  2 14  1  0
 14 15  1  0
 15 16  1  0
 16 17  1  0
 17 18  1  0
 13  3  1  0
 18 14  1  0
 12  7  1  0
  7 19  1  0
  8 20  1  0
  8 21  1  0
  9 22  1  0
  9 23  1  0
 10 24  1  0
 10 25  1  0
 11 26  1  0
 11 27  1  0
 12 28  1  0
 12 29  1  0
 13 30  1  0
 15 31  1  0
 15 32  1  0
 16 33  1  0
 16 34  1  0
 17 35  1  0
 17 36  1  0
 18 37  1  0
 18 38  1  0
M  END
>  <_SMILES>  (4) 
O=C(c1nnc(C2CCCCC2)[nH]1)N1CCCC1

$$$$

     RDKit          3D

 38 40  0  0  0  0  0  0  0  0999 V2000
    2.6918    1.1621    3.1332 O   0  0  0  0  0  0  0  0  0  0  0  0
    2.1534    0.6077    2.1718 C   0  0  0  0  0  0  0  0  0  0  0  0
    0.8559    1.0510    1.7056 C   0  0  0  0  0  0  0  0  0  0  0  0
    0.1056    0.5530    0.7397 N   0  0  0  0  0  0  0  0  0  0  0  0
   -1.0069    1.3570    0.7487 C   0  0  0  0  0  0  0  0  0  0  0  0
   -2.1454    1.1656   -0.2005 C   0  0  0  0  0  0  0  0  0  0  0  0
   -1.7495    1.5575   -1.6380 C   0  0  0  0  0  0  0  0  0  0  0  0
   -2.5671    0.8423   -2.7172 C   0  0  0  0  0  0  0  0  0  0  0  0
   -3.9700    0.5013   -2.2358 C   0  0  0  0  0  0  0  0  0  0  0  0
   -3.9442   -0.4273   -1.0209 C   0  0  0  0  0  0  0  0  0  0  0  0
   -2.6940   -0.2657   -0.1522 C   0  0  0  0  0  0  0  0  0  0  0  0
   -0.9886    2.3277    1.6698 N   0  0  0  0  0  0  0  0  0  0  0  0
    0.1963    2.1083    2.2636 N   0  0  0  0  0  0  0  0  0  0  0  0
    2.7792   -0.4490    1.5294 N   0  0  0  0  0  0  0  0  0  0  0  0
    4.0457   -0.9738    2.0041 C   0  0  0  0  0  0  0  0  0  0  0  0
    4.1990   -2.3027    1.2804 C   0  0  0  0  0  0  0  0  0  0  0  0
    3.4992   -2.0453   -0.0471 C   0  0  0  0  0  0  0  0  0  0  0  0
    2.3183   -1.1670    0.3488 C   0  0  0  0  0  0  0  0  0  0  0  0
   -2.9597    1.8349    0.1139 H   0  0  0  0  0  0  0  0  0  0  0  0
   -1.8745    2.6430   -1.7474 H   0  0  0  0  0  0  0  0  0  0  0  0
   -0.6860    1.3631   -1.8282 H   0  0  0  0  0  0  0  0  0  0  0  0
   -2.6154    1.4681   -3.6155 H   0  0  0  0  0  0  0  0  0  0  0  0
   -2.0527   -0.0823   -3.0084 H   0  0  0  0  0  0  0  0  0  0  0  0
   -4.5465    0.0349   -3.0427 H   0  0  0  0  0  0  0  0  0  0  0  0
   -4.4951    1.4286   -1.9738 H   0  0  0  0  0  0  0  0  0  0  0  0
   -4.8415   -0.2414   -0.4181 H   0  0  0  0  0  0  0  0  0  0  0  0
   -4.0094   -1.4714   -1.3502 H   0  0  0  0  0  0  0  0  0  0  0  0
   -1.9238   -0.9679   -0.4996 H   0  0  0  0  0  0  0  0  0  0  0  0
   -2.9288   -0.5608    0.8782 H   0  0  0  0  0  0  0  0  0  0  0  0
    0.5037    2.6960    3.0310 H   0  0  0  0  0  0  0  0  0  0  0  0
    4.8316   -0.2674    1.7143 H   0  0  0  0  0  0  0  0  0  0  0  0
    4.0473   -1.0813    3.0930 H   0  0  0  0  0  0  0  0  0  0  0  0
    5.2440   -2.6019    1.1636 H   0  0  0  0  0  0  0  0  0  0  0  0
    3.6726   -3.0931    1.8289 H   0  0  0  0  0  0  0  0  0  0  0  0
    4.1694   -1.4922   -0.7164 H   0  0  0  0  0  0  0  0  0  0  0  0
    3.1900   -2.9630   -0.5549 H   0  0  0  0  0  0  0  0  0  0  0  0
    2.0451   -0.4760   -0.4532 H   0  0  0  0  0  0  0  0  0  0  0  0
    1.4511   -1.7726    0.6326 H   0  0  0  0  0  0  0  0  0  0  0  0
  1  2  2  0
  2  3  1  0
  3  4  2  0
  4  5  1  0
  5  6  1  0
  6  7  1  0
  7  8  1  0
  8  9  1  0
  9 10  1  0
 10 11  1  0
  5 12  2  0
 12 13  1  0
  2 14  1  0
 14 15  1  0
 15 16  1  0
 16 17  1  0
 17 18  1  0
 13  3  1  0
 18 14  1  0
 11  6  1  0
  6 19  1  0
  7 20  1  0
  7 21  1  0
  8 22  1  0
  8 23  1  0
  9 24  1  0
  9 25  1  0
 10 26  1  0
 10 27  1  0
 11 28  1  0
 11 29  1  0
 13 30  1  0
 15 31  1  0
 15 32  1  0
 16 33  1  0
 16 34  1  0
 17 35  1  0
 17 36  1  0
 18 37  1  0
 18 38  1  0
M  END
>  <_SMILES>  (5) 
O=C(c1nc(C2CCCCC2)n[nH]1)N1CCCC1

$$$$

     RDKit          3D

 38 40  0  0  0  0  0  0  0  0999 V2000
   -2.3647   -1.3985    2.0877 O   0  0  0  0  0  0  0  0  0  0  0  0
   -2.3675   -0.7190    1.0563 C   0  0  0  0  0  0  0  0  0  0  0  0
   -1.0923   -0.2486    0.4463 C   0  0  0  0  0  0  0  0  0  0  0  0
   -0.9813    0.6539   -0.5522 N   0  0  0  0  0  0  0  0  0  0  0  0
    0.3459    0.7500   -0.7093 N   0  0  0  0  0  0  0  0  0  0  0  0
    1.0198   -0.0594    0.1560 C   0  0  0  0  0  0  0  0  0  0  0  0
    2.5091   -0.1695    0.2200 C   0  0  0  0  0  0  0  0  0  0  0  0
    3.1783    1.1885    0.4563 C   0  0  0  0  0  0  0  0  0  0  0  0
    4.6876    1.0469    0.6728 C   0  0  0  0  0  0  0  0  0  0  0  0
    5.3038   -0.1430   -0.0650 C   0  0  0  0  0  0  0  0  0  0  0  0
    4.5314   -0.4881   -1.3305 C   0  0  0  0  0  0  0  0  0  0  0  0
    3.0783   -0.8672   -1.0297 C   0  0  0  0  0  0  0  0  0  0  0  0
    0.1426   -0.6976    0.8959 N   0  0  0  0  0  0  0  0  0  0  0  0
   -3.5821   -0.3848    0.4582 N   0  0  0  0  0  0  0  0  0  0  0  0
   -3.8027    0.2931   -0.8099 C   0  0  0  0  0  0  0  0  0  0  0  0
   -5.2879    0.0966   -1.0929 C   0  0  0  0  0  0  0  0  0  0  0  0
   -5.8938   -0.0021    0.3001 C   0  0  0  0  0  0  0  0  0  0  0  0
   -4.8370   -0.7795    1.0693 C   0  0  0  0  0  0  0  0  0  0  0  0
    0.7188    1.3768   -1.4130 H   0  0  0  0  0  0  0  0  0  0  0  0
    2.7434   -0.8024    1.0884 H   0  0  0  0  0  0  0  0  0  0  0  0
    2.7353    1.7005    1.3197 H   0  0  0  0  0  0  0  0  0  0  0  0
    3.0039    1.8443   -0.4075 H   0  0  0  0  0  0  0  0  0  0  0  0
    5.1761    1.9753    0.3529 H   0  0  0  0  0  0  0  0  0  0  0  0
    4.9006    0.9441    1.7438 H   0  0  0  0  0  0  0  0  0  0  0  0
    5.3138   -1.0167    0.5989 H   0  0  0  0  0  0  0  0  0  0  0  0
    6.3502    0.0761   -0.3059 H   0  0  0  0  0  0  0  0  0  0  0  0
    5.0223   -1.3110   -1.8624 H   0  0  0  0  0  0  0  0  0  0  0  0
    4.5479    0.3752   -2.0077 H   0  0  0  0  0  0  0  0  0  0  0  0
    2.4776   -0.6546   -1.9232 H   0  0  0  0  0  0  0  0  0  0  0  0
    3.0100   -1.9531   -0.8811 H   0  0  0  0  0  0  0  0  0  0  0  0
   -3.1839   -0.1350   -1.6030 H   0  0  0  0  0  0  0  0  0  0  0  0
   -3.5683    1.3544   -0.6773 H   0  0  0  0  0  0  0  0  0  0  0  0
   -5.4450   -0.8457   -1.6318 H   0  0  0  0  0  0  0  0  0  0  0  0
   -5.7137    0.9074   -1.6904 H   0  0  0  0  0  0  0  0  0  0  0  0
   -6.0079    1.0019    0.7264 H   0  0  0  0  0  0  0  0  0  0  0  0
   -6.8703   -0.4936    0.3097 H   0  0  0  0  0  0  0  0  0  0  0  0
   -4.8427   -0.5559    2.1404 H   0  0  0  0  0  0  0  0  0  0  0  0
   -4.9553   -1.8599    0.9298 H   0  0  0  0  0  0  0  0  0  0  0  0
  1  2  2  0
  2  3  1  0
  3  4  2  0
  4  5  1  0
  5  6  1  0
  6  7  1  0
  7  8  1  0
  8  9  1  0
  9 10  1  0
 10 11  1  0
 11 12  1  0
  6 13  2  0
  2 14  1  0
 14 15  1  0
 15 16  1  0
 16 17  1  0
 17 18  1  0
 13  3  1  0
 18 14  1  0
 12  7  1  0
  5 19  1  0
  7 20  1  0
  8 21  1  0
  8 22  1  0
  9 23  1  0
  9 24  1  0
 10 25  1  0
 10 26  1  0
 11 27  1  0
 11 28  1  0
 12 29  1  0
 12 30  1  0
 15 31  1  0
 15 32  1  0
 16 33  1  0
 16 34  1  0
 17 35  1  0
 17 36  1  0
 18 37  1  0
 18 38  1  0
M  END
>  <_SMILES>  (6) 
O=C(c1n[nH]c(C2CCCCC2)n1)N1CCCC1

$$$$

     RDKit          3D

 44 46  0  0  0  0  0  0  0  0999 V2000
    1.5443   -1.5814    1.6706 O   0  0  0  0  0  0  0  0  0  0  0  0
    1.3525   -0.9671    0.6248 C   0  0  0  0  0  0  0  0  0  0  0  0
    2.3607   -0.6188   -0.2474 N   0  0  0  0  0  0  0  0  0  0  0  0
    3.7699   -0.8049    0.0598 C   0  0  0  0  0  0  0  0  0  0  0  0
    4.5971   -0.8884   -1.2338 C   0  0  0  0  0  0  0  0  0  0  0  0
    5.1463    0.4731   -1.6455 C   0  0  0  0  0  0  0  0  0  0  0  0
    6.0703    1.0603   -0.5764 C   0  0  0  0  0  0  0  0  0  0  0  0
    5.7409    0.5895    0.8413 C   0  0  0  0  0  0  0  0  0  0  0  0
    4.2538    0.3067    1.0088 C   0  0  0  0  0  0  0  0  0  0  0  0
    0.0432   -0.5346    0.2048 C   0  0  0  0  0  0  0  0  0  0  0  0
   -0.2238    0.1593   -0.8844 N   0  0  0  0  0  0  0  0  0  0  0  0
   -1.5823    0.3770   -0.9206 N   0  0  0  0  0  0  0  0  0  0  0  0
   -2.1170   -0.1860    0.1440 C   0  0  0  0  0  0  0  0  0  0  0  0
   -3.5577   -0.2159    0.5394 C   0  0  0  0  0  0  0  0  0  0  0  0
   -4.0856    1.2071    0.7747 C   0  0  0  0  0  0  0  0  0  0  0  0
   -5.5706    1.2038    1.1309 C   0  0  0  0  0  0  0  0  0  0  0  0
   -6.4000    0.4727    0.0796 C   0  0  0  0  0  0  0  0  0  0  0  0
   -5.8811   -0.9415   -0.1623 C   0  0  0  0  0  0  0  0  0  0  0  0
   -4.3968   -0.9432   -0.5216 C   0  0  0  0  0  0  0  0  0  0  0  0
   -1.1220   -0.7705    0.8789 N   0  0  0  0  0  0  0  0  0  0  0  0
    2.0903   -0.0083   -1.0143 H   0  0  0  0  0  0  0  0  0  0  0  0
    3.8599   -1.7693    0.5761 H   0  0  0  0  0  0  0  0  0  0  0  0
    4.0042   -1.3172   -2.0505 H   0  0  0  0  0  0  0  0  0  0  0  0
    5.4437   -1.5688   -1.0734 H   0  0  0  0  0  0  0  0  0  0  0  0
    5.6891    0.3921   -2.5942 H   0  0  0  0  0  0  0  0  0  0  0  0
    4.3106    1.1617   -1.8230 H   0  0  0  0  0  0  0  0  0  0  0  0
    6.0148    2.1545   -0.6272 H   0  0  0  0  0  0  0  0  0  0  0  0
    7.1114    0.7975   -0.8000 H   0  0  0  0  0  0  0  0  0  0  0  0
    6.3085   -0.3227    1.0644 H   0  0  0  0  0  0  0  0  0  0  0  0
    6.0685    1.3447    1.5647 H   0  0  0  0  0  0  0  0  0  0  0  0
    3.6956    1.2353    0.8284 H   0  0  0  0  0  0  0  0  0  0  0  0
    4.0410    0.0213    2.0461 H   0  0  0  0  0  0  0  0  0  0  0  0
   -3.6512   -0.7713    1.4832 H   0  0  0  0  0  0  0  0  0  0  0  0
   -3.9334    1.8215   -0.1228 H   0  0  0  0  0  0  0  0  0  0  0  0
   -3.5199    1.6903    1.5812 H   0  0  0  0  0  0  0  0  0  0  0  0
   -5.7105    0.7220    2.1065 H   0  0  0  0  0  0  0  0  0  0  0  0
   -5.9277    2.2351    1.2302 H   0  0  0  0  0  0  0  0  0  0  0  0
   -7.4473    0.4315    0.3993 H   0  0  0  0  0  0  0  0  0  0  0  0
   -6.3748    1.0362   -0.8612 H   0  0  0  0  0  0  0  0  0  0  0  0
   -6.4556   -1.4119   -0.9683 H   0  0  0  0  0  0  0  0  0  0  0  0
   -6.0390   -1.5476    0.7382 H   0  0  0  0  0  0  0  0  0  0  0  0
   -4.2647   -0.4666   -1.5022 H   0  0  0  0  0  0  0  0  0  0  0  0
   -4.0509   -1.9788   -0.6307 H   0  0  0  0  0  0  0  0  0  0  0  0
   -1.2049   -1.2785    1.7480 H   0  0  0  0  0  0  0  0  0  0  0  0
  1  2  2  0
  2  3  1  0
  3  4  1  0
  4  5  1  0
  5  6  1  0
  6  7  1  0
  7  8  1  0
  8  9  1  0
  2 10  1  0
 10 11  2  0
 11 12  1  0
 12 13  2  0
 13 14  1  0
 14 15  1  0
 15 16  1  0
 16 17  1  0
 17 18  1  0
 18 19  1  0
 13 20  1  0
  9  4  1  0
 20 10  1  0
 19 14  1  0
  3 21  1  0
  4 22  1  0
  5 23  1  0
  5 24  1  0
  6 25  1  0
  6 26  1  0
  7 27  1  0
  7 28  1  0
  8 29  1  0
  8 30  1  0
  9 31  1  0
  9 32  1  0
 14 33  1  0
 15 34  1  0
 15 35  1  0
 16 36  1  0
 16 37  1  0
 17 38  1  0
 17 39  1  0
 18 40  1  0
 18 41  1  0
 19 42  1  0
 19 43  1  0
 20 44  1  0
M  END
>  <_SMILES>  (7) 
O=C(NC1CCCCC1)c1nnc(C2CCCCC2)[nH]1

$$$$

     RDKit          3D

 44 46  0  0  0  0  0  0  0  0999 V2000
    1.6168    0.2004    2.3748 O   0  0  0  0  0  0  0  0  0  0  0  0
    1.4103    0.2288    1.1647 C   0  0  0  0  0  0  0  0  0  0  0  0
    2.4371    0.4654    0.2556 N   0  0  0  0  0  0  0  0  0  0  0  0
    3.7954    0.7536    0.7196 C   0  0  0  0  0  0  0  0  0  0  0  0
    4.6161    1.3957   -0.4037 C   0  0  0  0  0  0  0  0  0  0  0  0
    4.8508    0.4527   -1.5881 C   0  0  0  0  0  0  0  0  0  0  0  0
    4.9210   -1.0219   -1.1918 C   0  0  0  0  0  0  0  0  0  0  0  0
    5.4123   -1.1996    0.2366 C   0  0  0  0  0  0  0  0  0  0  0  0
    4.4955   -0.5124    1.2545 C   0  0  0  0  0  0  0  0  0  0  0  0
    0.1099    0.0378    0.5589 C   0  0  0  0  0  0  0  0  0  0  0  0
   -1.0510    0.3324    1.1134 N   0  0  0  0  0  0  0  0  0  0  0  0
   -1.9691   -0.0324    0.1629 C   0  0  0  0  0  0  0  0  0  0  0  0
   -3.4394    0.1387    0.3778 C   0  0  0  0  0  0  0  0  0  0  0  0
   -4.1799   -1.2082    0.3632 C   0  0  0  0  0  0  0  0  0  0  0  0
   -5.6805   -1.0289    0.5826 C   0  0  0  0  0  0  0  0  0  0  0  0
   -6.2843   -0.0548   -0.4244 C   0  0  0  0  0  0  0  0  0  0  0  0
   -5.5568    1.2861   -0.4148 C   0  0  0  0  0  0  0  0  0  0  0  0
   -4.0557    1.1145   -0.6375 C   0  0  0  0  0  0  0  0  0  0  0  0
   -1.4379   -0.5437   -0.9558 N   0  0  0  0  0  0  0  0  0  0  0  0
   -0.1290   -0.5157   -0.6653 N   0  0  0  0  0  0  0  0  0  0  0  0
    2.1709    0.8513   -0.6402 H   0  0  0  0  0  0  0  0  0  0  0  0
    3.6981    1.4732    1.5422 H   0  0  0  0  0  0  0  0  0  0  0  0
    5.5887    1.7017    0.0034 H   0  0  0  0  0  0  0  0  0  0  0  0
    4.1312    2.3118   -0.7625 H   0  0  0  0  0  0  0  0  0  0  0  0
    5.7819    0.7463   -2.0880 H   0  0  0  0  0  0  0  0  0  0  0  0
    4.0550    0.5807   -2.3320 H   0  0  0  0  0  0  0  0  0  0  0  0
    3.9272   -1.4761   -1.2909 H   0  0  0  0  0  0  0  0  0  0  0  0
    5.5759   -1.5581   -1.8880 H   0  0  0  0  0  0  0  0  0  0  0  0
    5.4944   -2.2652    0.4793 H   0  0  0  0  0  0  0  0  0  0  0  0
    6.4245   -0.7840    0.3223 H   0  0  0  0  0  0  0  0  0  0  0  0
    5.1081   -0.2414    2.1239 H   0  0  0  0  0  0  0  0  0  0  0  0
    3.7602   -1.2393    1.6196 H   0  0  0  0  0  0  0  0  0  0  0  0
   -3.5727    0.5765    1.3776 H   0  0  0  0  0  0  0  0  0  0  0  0
   -3.7758   -1.8681    1.1411 H   0  0  0  0  0  0  0  0  0  0  0  0
   -4.0172   -1.7205   -0.5943 H   0  0  0  0  0  0  0  0  0  0  0  0
   -5.8588   -0.6597    1.6001 H   0  0  0  0  0  0  0  0  0  0  0  0
   -6.1828   -1.9996    0.5029 H   0  0  0  0  0  0  0  0  0  0  0  0
   -6.2326   -0.4907   -1.4297 H   0  0  0  0  0  0  0  0  0  0  0  0
   -7.3452    0.0998   -0.1973 H   0  0  0  0  0  0  0  0  0  0  0  0
   -5.9724    1.9363   -1.1928 H   0  0  0  0  0  0  0  0  0  0  0  0
   -5.7279    1.7878    0.5456 H   0  0  0  0  0  0  0  0  0  0  0  0
   -3.8848    0.7555   -1.6610 H   0  0  0  0  0  0  0  0  0  0  0  0
   -3.5641    2.0927   -0.5653 H   0  0  0  0  0  0  0  0  0  0  0  0
    0.5366   -0.8996   -1.3252 H   0  0  0  0  0  0  0  0  0  0  0  0
  1  2  2  0
  2  3  1  0
  3  4  1  0
  4  5  1  0
  5  6  1  0
  6  7  1  0
  7  8  1  0
  8  9  1  0
  2 10  1  0
 10 11  2  0
 11 12  1  0
 12 13  1  0
 13 14  1  0
 14 15  1  0
 15 16  1  0
 16 17  1  0
 17 18  1  0
 12 19  2  0
 19 20  1  0
  9  4  1  0
 20 10  1  0
 18 13  1  0
  3 21  1  0
  4 22  1  0
  5 23  1  0
  5 24  1  0
  6 25  1  0
  6 26  1  0
  7 27  1  0
  7 28  1  0
  8 29  1  0
  8 30  1  0
  9 31  1  0
  9 32  1  0
 13 33  1  0
 14 34  1  0
 14 35  1  0
 15 36  1  0
 15 37  1  0
 16 38  1  0
 16 39  1  0
 17 40  1  0
 17 41  1  0
 18 42  1  0
 18 43  1  0
 20 44  1  0
M  END
>  <_SMILES>  (8) 
O=C(NC1CCCCC1)c1nc(C2CCCCC2)n[nH]1

$$$$

     RDKit          3D

 44 46  0  0  0  0  0  0  0  0999 V2000
    1.7319    1.5779   -2.2252 O   0  0  0  0  0  0  0  0  0  0  0  0
    1.2254    1.0498   -1.2384 C   0  0  0  0  0  0  0  0  0  0  0  0
    1.9691    0.5671   -0.1734 N   0  0  0  0  0  0  0  0  0  0  0  0
    3.4169    0.4867   -0.2043 C   0  0  0  0  0  0  0  0  0  0  0  0
    3.9864    0.5077    1.2231 C   0  0  0  0  0  0  0  0  0  0  0  0
    5.3580   -0.1609    1.3470 C   0  0  0  0  0  0  0  0  0  0  0  0
    6.1443   -0.0979    0.0455 C   0  0  0  0  0  0  0  0  0  0  0  0
    5.4102   -0.8036   -1.0957 C   0  0  0  0  0  0  0  0  0  0  0  0
    3.8857   -0.7547   -0.9676 C   0  0  0  0  0  0  0  0  0  0  0  0
   -0.2275    0.8414   -1.0551 C   0  0  0  0  0  0  0  0  0  0  0  0
   -1.1723    1.2376   -1.9246 N   0  0  0  0  0  0  0  0  0  0  0  0
   -2.2976    0.8267   -1.3277 N   0  0  0  0  0  0  0  0  0  0  0  0
   -2.0466    0.1983   -0.1414 C   0  0  0  0  0  0  0  0  0  0  0  0
   -3.0896   -0.3796    0.7698 C   0  0  0  0  0  0  0  0  0  0  0  0
   -4.0259    0.6856    1.3587 C   0  0  0  0  0  0  0  0  0  0  0  0
   -5.1822    1.0792    0.4411 C   0  0  0  0  0  0  0  0  0  0  0  0
   -5.9386   -0.1394   -0.0740 C   0  0  0  0  0  0  0  0  0  0  0  0
   -5.0112   -1.1315   -0.7655 C   0  0  0  0  0  0  0  0  0  0  0  0
   -3.8529   -1.5524    0.1372 C   0  0  0  0  0  0  0  0  0  0  0  0
   -0.7443    0.1895    0.0583 N   0  0  0  0  0  0  0  0  0  0  0  0
    1.4406    0.0372    0.5147 H   0  0  0  0  0  0  0  0  0  0  0  0
    3.7825    1.3734   -0.7391 H   0  0  0  0  0  0  0  0  0  0  0  0
    3.3011    0.0204    1.9287 H   0  0  0  0  0  0  0  0  0  0  0  0
    4.0556    1.5522    1.5536 H   0  0  0  0  0  0  0  0  0  0  0  0
    5.2232   -1.2119    1.6330 H   0  0  0  0  0  0  0  0  0  0  0  0
    5.9251    0.3115    2.1571 H   0  0  0  0  0  0  0  0  0  0  0  0
    6.3108    0.9529   -0.2235 H   0  0  0  0  0  0  0  0  0  0  0  0
    7.1355   -0.5462    0.1775 H   0  0  0  0  0  0  0  0  0  0  0  0
    5.7173   -0.3476   -2.0448 H   0  0  0  0  0  0  0  0  0  0  0  0
    5.7242   -1.8533   -1.1463 H   0  0  0  0  0  0  0  0  0  0  0  0
    3.5365   -1.6551   -0.4443 H   0  0  0  0  0  0  0  0  0  0  0  0
    3.4373   -0.7970   -1.9675 H   0  0  0  0  0  0  0  0  0  0  0  0
   -3.1836    1.0075   -1.7840 H   0  0  0  0  0  0  0  0  0  0  0  0
   -2.5243   -0.7978    1.6161 H   0  0  0  0  0  0  0  0  0  0  0  0
   -3.4637    1.5832    1.6447 H   0  0  0  0  0  0  0  0  0  0  0  0
   -4.4574    0.2842    2.2856 H   0  0  0  0  0  0  0  0  0  0  0  0
   -5.8733    1.7299    0.9898 H   0  0  0  0  0  0  0  0  0  0  0  0
   -4.8114    1.6688   -0.4038 H   0  0  0  0  0  0  0  0  0  0  0  0
   -6.4435   -0.6358    0.7639 H   0  0  0  0  0  0  0  0  0  0  0  0
   -6.7211    0.1807   -0.7714 H   0  0  0  0  0  0  0  0  0  0  0  0
   -5.5832   -2.0202   -1.0571 H   0  0  0  0  0  0  0  0  0  0  0  0
   -4.6286   -0.6948   -1.6939 H   0  0  0  0  0  0  0  0  0  0  0  0
   -4.2680   -2.1653    0.9488 H   0  0  0  0  0  0  0  0  0  0  0  0
   -3.1708   -2.2044   -0.4224 H   0  0  0  0  0  0  0  0  0  0  0  0
  1  2  2  0
  2  3  1  0
  3  4  1  0
  4  5  1  0
  5  6  1  0
  6  7  1  0
  7  8  1  0
  8  9  1  0
  2 10  1  0
 10 11  2  0
 11 12  1  0
 12 13  1  0
 13 14  1  0
 14 15  1  0
 15 16  1  0
 16 17  1  0
 17 18  1  0
 18 19  1  0
 13 20  2  0
  9  4  1  0
 20 10  1  0
 19 14  1  0
  3 21  1  0
  4 22  1  0
  5 23  1  0
  5 24  1  0
  6 25  1  0
  6 26  1  0
  7 27  1  0
  7 28  1  0
  8 29  1  0
  8 30  1  0
  9 31  1  0
  9 32  1  0
 12 33  1  0
 14 34  1  0
 15 35  1  0
 15 36  1  0
 16 37  1  0
 16 38  1  0
 17 39  1  0
 17 40  1  0
 18 41  1  0
 18 42  1  0
 19 43  1  0
 19 44  1  0
M  END
>  <_SMILES>  (9) 
O=C(NC1CCCCC1)c1n[nH]c(C2CCCCC2)n1

$$$$

     RDKit          3D

 43 47  0  0  0  0  0  0  0  0999 V2000
    0.0835   -1.0816    2.1432 O   0  0  0  0  0  0  0  0  0  0  0  0
   -0.0606   -0.2588    1.2338 C   0  0  0  0  0  0  0  0  0  0  0  0
    1.1145    0.2689    0.5694 C   0  0  0  0  0  0  0  0  0  0  0  0
    1.2075    1.3088   -0.2360 N   0  0  0  0  0  0  0  0  0  0  0  0
    2.5261    1.4582   -0.6028 N   0  0  0  0  0  0  0  0  0  0  0  0
    3.2180    0.5225    0.0057 C   0  0  0  0  0  0  0  0  0  0  0  0
    4.7519    0.3418   -0.0981 C   0  0  0  0  0  0  0  0  0  0  0  0
    5.2261   -1.0991   -0.4147 C   0  0  0  0  0  0  0  0  0  0  0  0
    6.3180   -0.4639   -1.3001 C   0  0  0  0  0  0  0  0  0  0  0  0
    5.3771    0.7486   -1.4563 C   0  0  0  0  0  0  0  0  0  0  0  0
    2.3761   -0.2330    0.7660 N   0  0  0  0  0  0  0  0  0  0  0  0
   -1.3432    0.1752    0.8621 N   0  0  0  0  0  0  0  0  0  0  0  0
   -2.4937   -0.3617    1.6136 C   0  0  1  0  0  0  0  0  0  0  0  0
   -3.5902    0.7119    1.7110 C   0  0  0  0  0  0  0  0  0  0  0  0
   -4.0235    1.1378    0.2993 C   0  0  2  0  0  0  0  0  0  0  0  0
   -4.5535   -0.0888   -0.4651 C   0  0  0  0  0  0  0  0  0  0  0  0
   -3.4650   -1.1739   -0.5564 C   0  0  1  0  0  0  0  0  0  0  0  0
   -2.2351   -0.5971   -1.2845 C   0  0  0  0  0  0  0  0  0  0  0  0
   -1.6975    0.6206   -0.5052 C   0  0  1  0  0  0  0  0  0  0  0  0
   -2.7899    1.6999   -0.4258 C   0  0  0  0  0  0  0  0  0  0  0  0
   -3.0426   -1.5909    0.8661 C   0  0  0  0  0  0  0  0  0  0  0  0
    5.2735    0.7849    0.7603 H   0  0  0  0  0  0  0  0  0  0  0  0
    4.5107   -1.7110   -0.9776 H   0  0  0  0  0  0  0  0  0  0  0  0
    5.5915   -1.6768    0.4387 H   0  0  0  0  0  0  0  0  0  0  0  0
    6.5587   -1.0022   -2.2200 H   0  0  0  0  0  0  0  0  0  0  0  0
    7.2462   -0.2371   -0.7631 H   0  0  0  0  0  0  0  0  0  0  0  0
    5.8695    1.7245   -1.4787 H   0  0  0  0  0  0  0  0  0  0  0  0
    4.7066    0.6693   -2.3206 H   0  0  0  0  0  0  0  0  0  0  0  0
    2.6070   -1.0082    1.3707 H   0  0  0  0  0  0  0  0  0  0  0  0
   -2.1878   -0.6496    2.6252 H   0  0  0  0  0  0  0  0  0  0  0  0
   -4.4507    0.3241    2.2694 H   0  0  0  0  0  0  0  0  0  0  0  0
   -3.2125    1.5824    2.2618 H   0  0  0  0  0  0  0  0  0  0  0  0
   -4.8030    1.9048    0.3618 H   0  0  0  0  0  0  0  0  0  0  0  0
   -4.8701    0.2077   -1.4726 H   0  0  0  0  0  0  0  0  0  0  0  0
   -5.4389   -0.4906    0.0426 H   0  0  0  0  0  0  0  0  0  0  0  0
   -3.8486   -2.0430   -1.1018 H   0  0  0  0  0  0  0  0  0  0  0  0
   -1.4570   -1.3665   -1.3642 H   0  0  0  0  0  0  0  0  0  0  0  0
   -2.5057   -0.3026   -2.3057 H   0  0  0  0  0  0  0  0  0  0  0  0
   -0.8441    1.0208   -1.0471 H   0  0  0  0  0  0  0  0  0  0  0  0
   -2.4090    2.5766    0.1128 H   0  0  0  0  0  0  0  0  0  0  0  0
   -3.0652    2.0336   -1.4335 H   0  0  0  0  0  0  0  0  0  0  0  0
   -2.2767   -2.3742    0.8099 H   0  0  0  0  0  0  0  0  0  0  0  0
   -3.8985   -2.0125    1.4067 H   0  0  0  0  0  0  0  0  0  0  0  0
  1  2  2  0
  2  3  1  0
  3  4  2  0
  4  5  1  0
  5  6  2  0
  6  7  1  0
  7  8  1  0
  8  9  1  0
  9 10  1  0
  6 11  1  0
  2 12  1  0
 12 13  1  0
 13 14  1  0
 14 15  1  0
 15 16  1  0
 16 17  1  0
 17 18  1  0
 18 19  1  0
 19 20  1  0
 17 21  1  0
 11  3  1  0
 19 12  1  0
 10  7  1  0
 21 13  1  0
 20 15  1  0
  7 22  1  0
  8 23  1  0
  8 24  1  0
  9 25  1  0
  9 26  1  0
 10 27  1  0
 10 28  1  0
 11 29  1  0
 13 30  1  1
 14 31  1  0
 14 32  1  0
 15 33  1  1
 16 34  1  0
 16 35  1  0
 17 36  1  6
 18 37  1  0
 18 38  1  0
 19 39  1  6
 20 40  1  0
 20 41  1  0
 21 42  1  0
 21 43  1  0
M  END
>  <_SMILES>  (10) 
O=C(c1nnc(C2CCC2)[nH]1)N1[C@H]2C[C@@H]3C[C@@H](C[C@H]1C3)C2

$$$$

     RDKit          3D

 43 47  0  0  0  0  0  0  0  0999 V2000
    0.2258   -0.5097   -2.2016 O   0  0  0  0  0  0  0  0  0  0  0  0
    0.0651    0.0759   -1.1316 C   0  0  0  0  0  0  0  0  0  0  0  0
    1.1718    0.6153   -0.3738 C   0  0  0  0  0  0  0  0  0  0  0  0
    2.2802   -0.0230   -0.0523 N   0  0  0  0  0  0  0  0  0  0  0  0
    3.0061    0.9175    0.6329 C   0  0  0  0  0  0  0  0  0  0  0  0
    4.4269    0.6400    1.2313 C   0  0  0  0  0  0  0  0  0  0  0  0
    5.5863    0.8580    0.2300 C   0  0  0  0  0  0  0  0  0  0  0  0
    5.5510   -0.6534   -0.0681 C   0  0  0  0  0  0  0  0  0  0  0  0
    4.8510   -0.8465    1.2910 C   0  0  0  0  0  0  0  0  0  0  0  0
    2.4038    2.1084    0.7516 N   0  0  0  0  0  0  0  0  0  0  0  0
    1.2625    1.8983    0.0780 N   0  0  0  0  0  0  0  0  0  0  0  0
   -1.2267    0.3163   -0.6184 N   0  0  0  0  0  0  0  0  0  0  0  0
   -1.4940    0.2927    0.8392 C   0  0  1  0  0  0  0  0  0  0  0  0
   -2.7137    1.1767    1.1452 C   0  0  0  0  0  0  0  0  0  0  0  0
   -3.9339    0.6636    0.3621 C   0  0  2  0  0  0  0  0  0  0  0  0
   -4.2268   -0.7923    0.7673 C   0  0  0  0  0  0  0  0  0  0  0  0
   -3.0076   -1.6853    0.4728 C   0  0  1  0  0  0  0  0  0  0  0  0
   -2.6826   -1.6202   -1.0325 C   0  0  0  0  0  0  0  0  0  0  0  0
   -2.3685   -0.1634   -1.4229 C   0  0  1  0  0  0  0  0  0  0  0  0
   -3.5957    0.7184   -1.1372 C   0  0  0  0  0  0  0  0  0  0  0  0
   -1.7918   -1.1598    1.2612 C   0  0  0  0  0  0  0  0  0  0  0  0
    4.5594    1.1677    2.1830 H   0  0  0  0  0  0  0  0  0  0  0  0
    5.3861    1.5100   -0.6250 H   0  0  0  0  0  0  0  0  0  0  0  0
    6.5163    1.1875    0.7086 H   0  0  0  0  0  0  0  0  0  0  0  0
    6.5249   -1.1385   -0.1722 H   0  0  0  0  0  0  0  0  0  0  0  0
    4.9285   -0.9200   -0.9296 H   0  0  0  0  0  0  0  0  0  0  0  0
    5.5462   -1.0643    2.1110 H   0  0  0  0  0  0  0  0  0  0  0  0
    4.0534   -1.5942    1.3107 H   0  0  0  0  0  0  0  0  0  0  0  0
    0.5968    2.6537   -0.0349 H   0  0  0  0  0  0  0  0  0  0  0  0
   -0.6341    0.6547    1.4070 H   0  0  0  0  0  0  0  0  0  0  0  0
   -2.9257    1.1695    2.2212 H   0  0  0  0  0  0  0  0  0  0  0  0
   -2.5015    2.2157    0.8637 H   0  0  0  0  0  0  0  0  0  0  0  0
   -4.8054    1.2929    0.5726 H   0  0  0  0  0  0  0  0  0  0  0  0
   -4.4748   -0.8397    1.8348 H   0  0  0  0  0  0  0  0  0  0  0  0
   -5.1018   -1.1630    0.2194 H   0  0  0  0  0  0  0  0  0  0  0  0
   -3.2231   -2.7192    0.7638 H   0  0  0  0  0  0  0  0  0  0  0  0
   -1.8255   -2.2679   -1.2533 H   0  0  0  0  0  0  0  0  0  0  0  0
   -3.5301   -1.9948   -1.6190 H   0  0  0  0  0  0  0  0  0  0  0  0
   -2.1253   -0.1067   -2.4897 H   0  0  0  0  0  0  0  0  0  0  0  0
   -3.3882    1.7544   -1.4328 H   0  0  0  0  0  0  0  0  0  0  0  0
   -4.4528    0.3779   -1.7306 H   0  0  0  0  0  0  0  0  0  0  0  0
   -1.9921   -1.2065    2.3384 H   0  0  0  0  0  0  0  0  0  0  0  0
   -0.9203   -1.7967    1.0658 H   0  0  0  0  0  0  0  0  0  0  0  0
  1  2  2  0
  2  3  1  0
  3  4  2  0
  4  5  1  0
  5  6  1  0
  6  7  1  0
  7  8  1  0
  8  9  1  0
  5 10  2  0
 10 11  1  0
  2 12  1  0
 12 13  1  0
 13 14  1  0
 14 15  1  0
 15 16  1  0
 16 17  1  0
 17 18  1  0
 18 19  1  0
 19 20  1  0
 17 21  1  0
 11  3  1  0
 19 12  1  0
  9  6  1  0
 21 13  1  0
 20 15  1  0
  6 22  1  0
  7 23  1  0
  7 24  1  0
  8 25  1  0
  8 26  1  0
  9 27  1  0
  9 28  1  0
 11 29  1  0
 13 30  1  1
 14 31  1  0
 14 32  1  0
 15 33  1  6
 16 34  1  0
 16 35  1  0
 17 36  1  1
 18 37  1  0
 18 38  1  0
 19 39  1  6
 20 40  1  0
 20 41  1  0
 21 42  1  0
 21 43  1  0
M  END
>  <_SMILES>  (11) 
O=C(c1nc(C2CCC2)n[nH]1)N1[C@H]2C[C@@H]3C[C@@H](C[C@H]1C3)C2

$$$$

     RDKit          3D

 43 47  0  0  0  0  0  0  0  0999 V2000
    0.0875    0.3440   -2.4443 O   0  0  0  0  0  0  0  0  0  0  0  0
   -0.0230   -0.2093   -1.3469 C   0  0  0  0  0  0  0  0  0  0  0  0
    1.1785   -0.6881   -0.6157 C   0  0  0  0  0  0  0  0  0  0  0  0
    1.2044   -1.7722    0.1913 N   0  0  0  0  0  0  0  0  0  0  0  0
    2.4975   -1.8364    0.5392 N   0  0  0  0  0  0  0  0  0  0  0  0
    3.2171   -0.8286   -0.0226 C   0  0  0  0  0  0  0  0  0  0  0  0
    4.7470   -0.6050    0.1732 C   0  0  0  0  0  0  0  0  0  0  0  0
    5.1239    0.0333    1.5331 C   0  0  0  0  0  0  0  0  0  0  0  0
    5.1120    1.4070    0.8345 C   0  0  0  0  0  0  0  0  0  0  0  0
    5.3308    0.6626   -0.4969 C   0  0  0  0  0  0  0  0  0  0  0  0
    2.4225   -0.0930   -0.7615 N   0  0  0  0  0  0  0  0  0  0  0  0
   -1.2953   -0.4310   -0.7772 N   0  0  0  0  0  0  0  0  0  0  0  0
   -2.4737   -0.0321   -1.5658 C   0  0  1  0  0  0  0  0  0  0  0  0
   -3.6474   -0.9693   -1.2342 C   0  0  0  0  0  0  0  0  0  0  0  0
   -3.9544   -0.9000    0.2710 C   0  0  2  0  0  0  0  0  0  0  0  0
   -4.3137    0.5475    0.6523 C   0  0  0  0  0  0  0  0  0  0  0  0
   -3.1496    1.4955    0.3107 C   0  0  1  0  0  0  0  0  0  0  0  0
   -1.8913    1.0498    1.0810 C   0  0  0  0  0  0  0  0  0  0  0  0
   -1.5259   -0.3952    0.6821 C   0  0  1  0  0  0  0  0  0  0  0  0
   -2.6917   -1.3328    1.0358 C   0  0  0  0  0  0  0  0  0  0  0  0
   -2.8539    1.4146   -1.1998 C   0  0  0  0  0  0  0  0  0  0  0  0
    2.8135   -2.5812    1.1495 H   0  0  0  0  0  0  0  0  0  0  0  0
    5.3067   -1.5184   -0.0579 H   0  0  0  0  0  0  0  0  0  0  0  0
    6.1158   -0.2660    1.8926 H   0  0  0  0  0  0  0  0  0  0  0  0
    4.4088   -0.0831    2.3524 H   0  0  0  0  0  0  0  0  0  0  0  0
    5.9074    2.0961    1.1291 H   0  0  0  0  0  0  0  0  0  0  0  0
    4.1495    1.9273    0.8979 H   0  0  0  0  0  0  0  0  0  0  0  0
    4.7943    1.0680   -1.3590 H   0  0  0  0  0  0  0  0  0  0  0  0
    6.3884    0.5590   -0.7689 H   0  0  0  0  0  0  0  0  0  0  0  0
   -2.2530   -0.0997   -2.6368 H   0  0  0  0  0  0  0  0  0  0  0  0
   -4.5338   -0.6858   -1.8144 H   0  0  0  0  0  0  0  0  0  0  0  0
   -3.3932   -1.9994   -1.5136 H   0  0  0  0  0  0  0  0  0  0  0  0
   -4.7872   -1.5686    0.5148 H   0  0  0  0  0  0  0  0  0  0  0  0
   -4.5401    0.6057    1.7241 H   0  0  0  0  0  0  0  0  0  0  0  0
   -5.2187    0.8604    0.1173 H   0  0  0  0  0  0  0  0  0  0  0  0
   -3.4116    2.5231    0.5854 H   0  0  0  0  0  0  0  0  0  0  0  0
   -2.0697    1.1096    2.1614 H   0  0  0  0  0  0  0  0  0  0  0  0
   -1.0581    1.7259    0.8521 H   0  0  0  0  0  0  0  0  0  0  0  0
   -0.6413   -0.6883    1.2464 H   0  0  0  0  0  0  0  0  0  0  0  0
   -2.4330   -2.3657    0.7717 H   0  0  0  0  0  0  0  0  0  0  0  0
   -2.8797   -1.3120    2.1160 H   0  0  0  0  0  0  0  0  0  0  0  0
   -3.7316    1.7329   -1.7749 H   0  0  0  0  0  0  0  0  0  0  0  0
   -2.0349    2.0988   -1.4532 H   0  0  0  0  0  0  0  0  0  0  0  0
  1  2  2  0
  2  3  1  0
  3  4  2  0
  4  5  1  0
  5  6  1  0
  6  7  1  0
  7  8  1  0
  8  9  1  0
  9 10  1  0
  6 11  2  0
  2 12  1  0
 12 13  1  0
 13 14  1  0
 14 15  1  0
 15 16  1  0
 16 17  1  0
 17 18  1  0
 18 19  1  0
 19 20  1  0
 17 21  1  0
 11  3  1  0
 19 12  1  0
 10  7  1  0
 21 13  1  0
 20 15  1  0
  5 22  1  0
  7 23  1  0
  8 24  1  0
  8 25  1  0
  9 26  1  0
  9 27  1  0
 10 28  1  0
 10 29  1  0
 13 30  1  6
 14 31  1  0
 14 32  1  0
 15 33  1  6
 16 34  1  0
 16 35  1  0
 17 36  1  1
 18 37  1  0
 18 38  1  0
 19 39  1  1
 20 40  1  0
 20 41  1  0
 21 42  1  0
 21 43  1  0
M  END
>  <_SMILES>  (12) 
O=C(c1n[nH]c(C2CCC2)n1)N1[C@H]2C[C@@H]3C[C@@H](C[C@H]1C3)C2

$$$$

     RDKit          3D

 44 46  0  0  0  0  0  0  0  0999 V2000
   -6.2912    1.2143   -0.0106 C   0  0  0  0  0  0  0  0  0  0  0  0
   -4.8015    1.4156   -0.2896 C   0  0  0  0  0  0  0  0  0  0  0  0
   -4.4441    1.0294   -1.7363 C   0  0  0  0  0  0  0  0  0  0  0  0
   -3.6293   -0.2583   -1.8205 C   0  0  0  0  0  0  0  0  0  0  0  0
   -2.4073   -0.1640   -1.0260 N   0  0  0  0  0  0  0  0  0  0  0  0
   -1.2267   -0.7230   -1.5319 C   0  0  0  0  0  0  0  0  0  0  0  0
   -1.2417   -1.3863   -2.5730 O   0  0  0  0  0  0  0  0  0  0  0  0
    0.0322   -0.5222   -0.8385 C   0  0  0  0  0  0  0  0  0  0  0  0
    0.2831    0.2393    0.2073 N   0  0  0  0  0  0  0  0  0  0  0  0
    1.6199    0.1311    0.5106 N   0  0  0  0  0  0  0  0  0  0  0  0
    2.1746   -0.6827   -0.3624 C   0  0  0  0  0  0  0  0  0  0  0  0
    3.6068   -1.1126   -0.4577 C   0  0  0  0  0  0  0  0  0  0  0  0
    4.0509   -1.8951    0.7876 C   0  0  0  0  0  0  0  0  0  0  0  0
    4.3410   -1.0088    1.9987 C   0  0  0  0  0  0  0  0  0  0  0  0
    5.3131    0.1147    1.6574 C   0  0  0  0  0  0  0  0  0  0  0  0
    4.8249    0.9439    0.4750 C   0  0  0  0  0  0  0  0  0  0  0  0
    4.5392    0.0733   -0.7485 C   0  0  0  0  0  0  0  0  0  0  0  0
    1.2074   -1.1100   -1.2301 N   0  0  0  0  0  0  0  0  0  0  0  0
   -2.5125    0.4872    0.2822 C   0  0  0  0  0  0  0  0  0  0  0  0
   -3.9595    0.6496    0.7403 C   0  0  0  0  0  0  0  0  0  0  0  0
   -6.5820    0.1665   -0.1419 H   0  0  0  0  0  0  0  0  0  0  0  0
   -6.5381    1.5104    1.0145 H   0  0  0  0  0  0  0  0  0  0  0  0
   -6.8988    1.8222   -0.6893 H   0  0  0  0  0  0  0  0  0  0  0  0
   -4.5934    2.4878   -0.1734 H   0  0  0  0  0  0  0  0  0  0  0  0
   -3.8467    1.8425   -2.1706 H   0  0  0  0  0  0  0  0  0  0  0  0
   -5.3419    0.9433   -2.3592 H   0  0  0  0  0  0  0  0  0  0  0  0
   -3.3925   -0.4673   -2.8690 H   0  0  0  0  0  0  0  0  0  0  0  0
   -4.2068   -1.1099   -1.4418 H   0  0  0  0  0  0  0  0  0  0  0  0
    3.6814   -1.7989   -1.3133 H   0  0  0  0  0  0  0  0  0  0  0  0
    4.9688   -2.4450    0.5405 H   0  0  0  0  0  0  0  0  0  0  0  0
    3.3010   -2.6487    1.0587 H   0  0  0  0  0  0  0  0  0  0  0  0
    3.4081   -0.5831    2.3853 H   0  0  0  0  0  0  0  0  0  0  0  0
    4.7607   -1.6217    2.8048 H   0  0  0  0  0  0  0  0  0  0  0  0
    5.4490    0.7625    2.5308 H   0  0  0  0  0  0  0  0  0  0  0  0
    6.2958   -0.3125    1.4220 H   0  0  0  0  0  0  0  0  0  0  0  0
    3.9235    1.4976    0.7613 H   0  0  0  0  0  0  0  0  0  0  0  0
    5.5822    1.6937    0.2182 H   0  0  0  0  0  0  0  0  0  0  0  0
    4.1314    0.6978   -1.5530 H   0  0  0  0  0  0  0  0  0  0  0  0
    5.4957   -0.3216   -1.1162 H   0  0  0  0  0  0  0  0  0  0  0  0
    1.3087   -1.7326   -2.0189 H   0  0  0  0  0  0  0  0  0  0  0  0
   -2.0306    1.4684    0.2045 H   0  0  0  0  0  0  0  0  0  0  0  0
   -1.9763   -0.1116    1.0250 H   0  0  0  0  0  0  0  0  0  0  0  0
   -3.9875    1.1704    1.7048 H   0  0  0  0  0  0  0  0  0  0  0  0
   -4.3909   -0.3457    0.9111 H   0  0  0  0  0  0  0  0  0  0  0  0
  1  2  1  0
  2  3  1  0
  3  4  1  0
  4  5  1  0
  5  6  1  0
  6  7  2  0
  6  8  1  0
  8  9  2  0
  9 10  1  0
 10 11  2  0
 11 12  1  0
 12 13  1  0
 13 14  1  0
 14 15  1  0
 15 16  1  0
 16 17  1  0
 11 18  1  0
  5 19  1  0
 19 20  1  0
 20  2  1  0
 18  8  1  0
 17 12  1  0
  1 21  1  0
  1 22  1  0
  1 23  1  0
  2 24  1  0
  3 25  1  0
  3 26  1  0
  4 27  1  0
  4 28  1  0
 12 29  1  0
 13 30  1  0
 13 31  1  0
 14 32  1  0
 14 33  1  0
 15 34  1  0
 15 35  1  0
 16 36  1  0
 16 37  1  0
 17 38  1  0
 17 39  1  0
 18 40  1  0
 19 41  1  0
 19 42  1  0
 20 43  1  0
 20 44  1  0
M  END
>  <_SMILES>  (13) 
CC1CCN(C(=O)c2nnc(C3CCCCC3)[nH]2)CC1

$$$$

     RDKit          3D

 44 46  0  0  0  0  0  0  0  0999 V2000
   -5.7777   -1.9449    0.1122 C   0  0  0  0  0  0  0  0  0  0  0  0
   -4.4076   -1.5917   -0.4671 C   0  0  0  0  0  0  0  0  0  0  0  0
   -4.5133   -0.4669   -1.5130 C   0  0  0  0  0  0  0  0  0  0  0  0
   -3.9219    0.8526   -1.0249 C   0  0  0  0  0  0  0  0  0  0  0  0
   -2.5279    0.6892   -0.6204 N   0  0  0  0  0  0  0  0  0  0  0  0
   -1.6071    1.6951   -0.9416 C   0  0  0  0  0  0  0  0  0  0  0  0
   -1.9841    2.7516   -1.4557 O   0  0  0  0  0  0  0  0  0  0  0  0
   -0.1943    1.4961   -0.6780 C   0  0  0  0  0  0  0  0  0  0  0  0
    0.4328    0.4195   -0.2400 N   0  0  0  0  0  0  0  0  0  0  0  0
    1.7500    0.8034   -0.2030 C   0  0  0  0  0  0  0  0  0  0  0  0
    2.8325   -0.1264    0.2525 C   0  0  0  0  0  0  0  0  0  0  0  0
    3.9375   -0.3130   -0.8082 C   0  0  0  0  0  0  0  0  0  0  0  0
    5.1716    0.5348   -0.5160 C   0  0  0  0  0  0  0  0  0  0  0  0
    5.7902    0.1962    0.8415 C   0  0  0  0  0  0  0  0  0  0  0  0
    4.7727   -0.2908    1.8740 C   0  0  0  0  0  0  0  0  0  0  0  0
    3.3896    0.2975    1.6258 C   0  0  0  0  0  0  0  0  0  0  0  0
    1.9757    2.0622   -0.5987 N   0  0  0  0  0  0  0  0  0  0  0  0
    0.7339    2.4729   -0.9021 N   0  0  0  0  0  0  0  0  0  0  0  0
   -2.1909   -0.5189    0.1354 C   0  0  0  0  0  0  0  0  0  0  0  0
   -3.4266   -1.2446    0.6614 C   0  0  0  0  0  0  0  0  0  0  0  0
   -6.4608   -2.2726   -0.6786 H   0  0  0  0  0  0  0  0  0  0  0  0
   -5.6939   -2.7591    0.8398 H   0  0  0  0  0  0  0  0  0  0  0  0
   -6.2302   -1.0837    0.6155 H   0  0  0  0  0  0  0  0  0  0  0  0
   -4.0345   -2.4872   -0.9822 H   0  0  0  0  0  0  0  0  0  0  0  0
   -5.5512   -0.3143   -1.8308 H   0  0  0  0  0  0  0  0  0  0  0  0
   -3.9613   -0.7796   -2.4096 H   0  0  0  0  0  0  0  0  0  0  0  0
   -4.0085    1.6022   -1.8184 H   0  0  0  0  0  0  0  0  0  0  0  0
   -4.4769    1.2312   -0.1585 H   0  0  0  0  0  0  0  0  0  0  0  0
    2.3620   -1.1123    0.3799 H   0  0  0  0  0  0  0  0  0  0  0  0
    3.5642   -0.0966   -1.8165 H   0  0  0  0  0  0  0  0  0  0  0  0
    4.2432   -1.3680   -0.8166 H   0  0  0  0  0  0  0  0  0  0  0  0
    4.8971    1.5966   -0.5355 H   0  0  0  0  0  0  0  0  0  0  0  0
    5.9208    0.3951   -1.3037 H   0  0  0  0  0  0  0  0  0  0  0  0
    6.3086    1.0849    1.2216 H   0  0  0  0  0  0  0  0  0  0  0  0
    6.5602   -0.5749    0.7170 H   0  0  0  0  0  0  0  0  0  0  0  0
    5.1199   -0.0346    2.8814 H   0  0  0  0  0  0  0  0  0  0  0  0
    4.7101   -1.3857    1.8355 H   0  0  0  0  0  0  0  0  0  0  0  0
    3.4516    1.3908    1.7061 H   0  0  0  0  0  0  0  0  0  0  0  0
    2.6992   -0.0261    2.4148 H   0  0  0  0  0  0  0  0  0  0  0  0
    0.5736    3.4106   -1.2536 H   0  0  0  0  0  0  0  0  0  0  0  0
   -1.5588   -0.2452    0.9859 H   0  0  0  0  0  0  0  0  0  0  0  0
   -1.6224   -1.1792   -0.5294 H   0  0  0  0  0  0  0  0  0  0  0  0
   -3.9223   -0.6071    1.4055 H   0  0  0  0  0  0  0  0  0  0  0  0
   -3.1250   -2.1587    1.1865 H   0  0  0  0  0  0  0  0  0  0  0  0
  1  2  1  0
  2  3  1  0
  3  4  1  0
  4  5  1  0
  5  6  1  0
  6  7  2  0
  6  8  1  0
  8  9  2  0
  9 10  1  0
 10 11  1  0
 11 12  1  0
 12 13  1  0
 13 14  1  0
 14 15  1  0
 15 16  1  0
 10 17  2  0
 17 18  1  0
  5 19  1  0
 19 20  1  0
 20  2  1  0
 18  8  1  0
 16 11  1  0
  1 21  1  0
  1 22  1  0
  1 23  1  0
  2 24  1  0
  3 25  1  0
  3 26  1  0
  4 27  1  0
  4 28  1  0
 11 29  1  0
 12 30  1  0
 12 31  1  0
 13 32  1  0
 13 33  1  0
 14 34  1  0
 14 35  1  0
 15 36  1  0
 15 37  1  0
 16 38  1  0
 16 39  1  0
 18 40  1  0
 19 41  1  0
 19 42  1  0
 20 43  1  0
 20 44  1  0
M  END
>  <_SMILES>  (14) 
CC1CCN(C(=O)c2nc(C3CCCCC3)n[nH]2)CC1

$$$$

     RDKit          3D

 44 46  0  0  0  0  0  0  0  0999 V2000
    5.0139   -0.8262   -1.3205 C   0  0  0  0  0  0  0  0  0  0  0  0
    4.8765   -0.3373    0.1222 C   0  0  0  0  0  0  0  0  0  0  0  0
    3.5928   -0.8449    0.7825 C   0  0  0  0  0  0  0  0  0  0  0  0
    2.3296   -0.1775    0.2388 C   0  0  0  0  0  0  0  0  0  0  0  0
    2.4239    1.2816    0.1939 N   0  0  0  0  0  0  0  0  0  0  0  0
    1.2907    2.1324    0.1835 C   0  0  0  0  0  0  0  0  0  0  0  0
    1.4356    3.3566    0.1062 O   0  0  0  0  0  0  0  0  0  0  0  0
   -0.0730    1.5375    0.2520 C   0  0  0  0  0  0  0  0  0  0  0  0
   -1.1363    2.2124    0.7321 N   0  0  0  0  0  0  0  0  0  0  0  0
   -2.1385    1.3464    0.5503 N   0  0  0  0  0  0  0  0  0  0  0  0
   -1.7105    0.1859   -0.0230 C   0  0  0  0  0  0  0  0  0  0  0  0
   -2.5813   -0.9876   -0.3622 C   0  0  0  0  0  0  0  0  0  0  0  0
   -3.6291   -0.6644   -1.4374 C   0  0  0  0  0  0  0  0  0  0  0  0
   -4.8952   -0.0008   -0.8985 C   0  0  0  0  0  0  0  0  0  0  0  0
   -5.4852   -0.7722    0.2759 C   0  0  0  0  0  0  0  0  0  0  0  0
   -4.4647   -0.9781    1.3888 C   0  0  0  0  0  0  0  0  0  0  0  0
   -3.1940   -1.6548    0.8777 C   0  0  0  0  0  0  0  0  0  0  0  0
   -0.4138    0.2806   -0.2287 N   0  0  0  0  0  0  0  0  0  0  0  0
    3.6610    1.8507   -0.3350 C   0  0  0  0  0  0  0  0  0  0  0  0
    4.9168    1.1897    0.2241 C   0  0  0  0  0  0  0  0  0  0  0  0
    4.1953   -0.4829   -1.9596 H   0  0  0  0  0  0  0  0  0  0  0  0
    5.9524   -0.4700   -1.7585 H   0  0  0  0  0  0  0  0  0  0  0  0
    5.0259   -1.9209   -1.3542 H   0  0  0  0  0  0  0  0  0  0  0  0
    5.7309   -0.7391    0.6821 H   0  0  0  0  0  0  0  0  0  0  0  0
    3.6555   -0.6403    1.8598 H   0  0  0  0  0  0  0  0  0  0  0  0
    3.5097   -1.9331    0.6773 H   0  0  0  0  0  0  0  0  0  0  0  0
    1.5055   -0.4744    0.8931 H   0  0  0  0  0  0  0  0  0  0  0  0
    2.1101   -0.5292   -0.7754 H   0  0  0  0  0  0  0  0  0  0  0  0
   -3.0721    1.6172    0.8346 H   0  0  0  0  0  0  0  0  0  0  0  0
   -1.8983   -1.7268   -0.8068 H   0  0  0  0  0  0  0  0  0  0  0  0
   -3.9250   -1.6067   -1.9180 H   0  0  0  0  0  0  0  0  0  0  0  0
   -3.1959   -0.0389   -2.2277 H   0  0  0  0  0  0  0  0  0  0  0  0
   -4.6829    1.0296   -0.5948 H   0  0  0  0  0  0  0  0  0  0  0  0
   -5.6392    0.0629   -1.7013 H   0  0  0  0  0  0  0  0  0  0  0  0
   -6.3556   -0.2350    0.6693 H   0  0  0  0  0  0  0  0  0  0  0  0
   -5.8453   -1.7479   -0.0733 H   0  0  0  0  0  0  0  0  0  0  0  0
   -4.2216   -0.0154    1.8504 H   0  0  0  0  0  0  0  0  0  0  0  0
   -4.9092   -1.5943    2.1792 H   0  0  0  0  0  0  0  0  0  0  0  0
   -2.4595   -1.7157    1.6903 H   0  0  0  0  0  0  0  0  0  0  0  0
   -3.4497   -2.6904    0.6155 H   0  0  0  0  0  0  0  0  0  0  0  0
    3.6224    1.7457   -1.4258 H   0  0  0  0  0  0  0  0  0  0  0  0
    3.7095    2.9248   -0.1258 H   0  0  0  0  0  0  0  0  0  0  0  0
    5.8022    1.5848   -0.2872 H   0  0  0  0  0  0  0  0  0  0  0  0
    5.0157    1.4664    1.2821 H   0  0  0  0  0  0  0  0  0  0  0  0
  1  2  1  0
  2  3  1  0
  3  4  1  0
  4  5  1  0
  5  6  1  0
  6  7  2  0
  6  8  1  0
  8  9  2  0
  9 10  1  0
 10 11  1  0
 11 12  1  0
 12 13  1  0
 13 14  1  0
 14 15  1  0
 15 16  1  0
 16 17  1  0
 11 18  2  0
  5 19  1  0
 19 20  1  0
 20  2  1  0
 18  8  1  0
 17 12  1  0
  1 21  1  0
  1 22  1  0
  1 23  1  0
  2 24  1  0
  3 25  1  0
  3 26  1  0
  4 27  1  0
  4 28  1  0
 10 29  1  0
 12 30  1  0
 13 31  1  0
 13 32  1  0
 14 33  1  0
 14 34  1  0
 15 35  1  0
 15 36  1  0
 16 37  1  0
 16 38  1  0
 17 39  1  0
 17 40  1  0
 19 41  1  0
 19 42  1  0
 20 43  1  0
 20 44  1  0
M  END
>  <_SMILES>  (15) 
CC1CCN(C(=O)c2n[nH]c(C3CCCCC3)n2)CC1

$$$$

     RDKit          3D

 44 46  0  0  0  0  0  0  0  0999 V2000
   -1.7334   -1.0877   -2.0846 O   0  0  0  0  0  0  0  0  0  0  0  0
   -1.6334   -0.3806   -1.0770 C   0  0  0  0  0  0  0  0  0  0  0  0
   -0.3098   -0.0642   -0.5707 C   0  0  0  0  0  0  0  0  0  0  0  0
    0.0269    0.7687    0.3939 N   0  0  0  0  0  0  0  0  0  0  0  0
    1.3970    0.7610    0.5154 N   0  0  0  0  0  0  0  0  0  0  0  0
    1.8815   -0.0647   -0.3877 C   0  0  0  0  0  0  0  0  0  0  0  0
    3.3156   -0.3988   -0.6536 C   0  0  0  0  0  0  0  0  0  0  0  0
    4.0207    0.7943   -1.3265 C   0  0  0  0  0  0  0  0  0  0  0  0
    5.5264    0.7578   -1.0973 C   0  0  0  0  0  0  0  0  0  0  0  0
    5.8755    0.8488    0.3889 C   0  0  0  0  0  0  0  0  0  0  0  0
    4.8013    0.2624    1.3070 C   0  0  0  0  0  0  0  0  0  0  0  0
    4.0285   -0.8660    0.6312 C   0  0  0  0  0  0  0  0  0  0  0  0
    0.8402   -0.5976   -1.0945 N   0  0  0  0  0  0  0  0  0  0  0  0
   -2.7834    0.1133   -0.4322 N   0  0  0  0  0  0  0  0  0  0  0  0
   -2.7380    0.7883    0.8663 C   0  0  0  0  0  0  0  0  0  0  0  0
   -4.0586    0.9351    1.6235 C   0  0  0  0  0  0  0  0  0  0  0  0
   -4.7344   -0.4003    1.9308 C   0  0  0  0  0  0  0  0  0  0  0  0
   -5.5988   -0.9227    0.7863 C   0  0  0  0  0  0  0  0  0  0  0  0
   -4.8365   -1.2704   -0.4895 C   0  0  0  0  0  0  0  0  0  0  0  0
   -4.0738   -0.0911   -1.0852 C   0  0  0  0  0  0  0  0  0  0  0  0
    3.3405   -1.2462   -1.3533 H   0  0  0  0  0  0  0  0  0  0  0  0
    3.6298    1.7485   -0.9480 H   0  0  0  0  0  0  0  0  0  0  0  0
    3.8068    0.7844   -2.4025 H   0  0  0  0  0  0  0  0  0  0  0  0
    6.0138    1.5757   -1.6401 H   0  0  0  0  0  0  0  0  0  0  0  0
    5.9309   -0.1748   -1.5106 H   0  0  0  0  0  0  0  0  0  0  0  0
    6.8294    0.3344    0.5573 H   0  0  0  0  0  0  0  0  0  0  0  0
    6.0413    1.8964    0.6682 H   0  0  0  0  0  0  0  0  0  0  0  0
    5.2677   -0.0991    2.2306 H   0  0  0  0  0  0  0  0  0  0  0  0
    4.1030    1.0552    1.6024 H   0  0  0  0  0  0  0  0  0  0  0  0
    3.3213   -1.3130    1.3406 H   0  0  0  0  0  0  0  0  0  0  0  0
    4.7417   -1.6595    0.3701 H   0  0  0  0  0  0  0  0  0  0  0  0
    0.8775   -1.2530   -1.8621 H   0  0  0  0  0  0  0  0  0  0  0  0
   -2.0417    0.2414    1.5115 H   0  0  0  0  0  0  0  0  0  0  0  0
   -2.3245    1.7885    0.6919 H   0  0  0  0  0  0  0  0  0  0  0  0
   -4.7454    1.6031    1.0914 H   0  0  0  0  0  0  0  0  0  0  0  0
   -3.8331    1.4307    2.5766 H   0  0  0  0  0  0  0  0  0  0  0  0
   -3.9913   -1.1525    2.2208 H   0  0  0  0  0  0  0  0  0  0  0  0
   -5.3894   -0.2584    2.7997 H   0  0  0  0  0  0  0  0  0  0  0  0
   -6.3766   -0.1846    0.5533 H   0  0  0  0  0  0  0  0  0  0  0  0
   -6.1240   -1.8225    1.1301 H   0  0  0  0  0  0  0  0  0  0  0  0
   -5.5705   -1.6169   -1.2277 H   0  0  0  0  0  0  0  0  0  0  0  0
   -4.1576   -2.1109   -0.3004 H   0  0  0  0  0  0  0  0  0  0  0  0
   -4.6509    0.8392   -1.0462 H   0  0  0  0  0  0  0  0  0  0  0  0
   -3.9117   -0.2919   -2.1504 H   0  0  0  0  0  0  0  0  0  0  0  0
  1  2  2  0
  2  3  1  0
  3  4  2  0
  4  5  1  0
  5  6  2  0
  6  7  1  0
  7  8  1  0
  8  9  1  0
  9 10  1  0
 10 11  1  0
 11 12  1  0
  6 13  1  0
  2 14  1  0
 14 15  1  0
 15 16  1  0
 16 17  1  0
 17 18  1  0
 18 19  1  0
 19 20  1  0
 13  3  1  0
 20 14  1  0
 12  7  1  0
  7 21  1  0
  8 22  1  0
  8 23  1  0
  9 24  1  0
  9 25  1  0
 10 26  1  0
 10 27  1  0
 11 28  1  0
 11 29  1  0
 12 30  1  0
 12 31  1  0
 13 32  1  0
 15 33  1  0
 15 34  1  0
 16 35  1  0
 16 36  1  0
 17 37  1  0
 17 38  1  0
 18 39  1  0
 18 40  1  0
 19 41  1  0
 19 42  1  0
 20 43  1  0
 20 44  1  0
M  END
>  <_SMILES>  (16) 
O=C(c1nnc(C2CCCCC2)[nH]1)N1CCCCCC1

$$$$

     RDKit          3D

 44 46  0  0  0  0  0  0  0  0999 V2000
    1.4893    0.4133   -2.9738 O   0  0  0  0  0  0  0  0  0  0  0  0
    1.4614    0.2817   -1.7505 C   0  0  0  0  0  0  0  0  0  0  0  0
    0.2327    0.3813   -0.9885 C   0  0  0  0  0  0  0  0  0  0  0  0
   -0.9443   -0.0975   -1.3445 N   0  0  0  0  0  0  0  0  0  0  0  0
   -1.7694    0.2744   -0.3139 C   0  0  0  0  0  0  0  0  0  0  0  0
   -3.2239   -0.0727   -0.3023 C   0  0  0  0  0  0  0  0  0  0  0  0
   -4.1087    1.1654   -0.5480 C   0  0  0  0  0  0  0  0  0  0  0  0
   -5.5231    1.0310    0.0233 C   0  0  0  0  0  0  0  0  0  0  0  0
   -5.9941   -0.4161    0.0430 C   0  0  0  0  0  0  0  0  0  0  0  0
   -5.0902   -1.2973    0.9066 C   0  0  0  0  0  0  0  0  0  0  0  0
   -3.6415   -0.8067    0.9778 C   0  0  0  0  0  0  0  0  0  0  0  0
   -1.1657    0.9657    0.6627 N   0  0  0  0  0  0  0  0  0  0  0  0
    0.0889    1.0464    0.1939 N   0  0  0  0  0  0  0  0  0  0  0  0
    2.6551    0.1040   -1.0089 N   0  0  0  0  0  0  0  0  0  0  0  0
    2.6796   -0.8452    0.1137 C   0  0  0  0  0  0  0  0  0  0  0  0
    3.3850   -0.2642    1.3319 C   0  0  0  0  0  0  0  0  0  0  0  0
    4.8979   -0.4722    1.3487 C   0  0  0  0  0  0  0  0  0  0  0  0
    5.6227   -0.3694    0.0090 C   0  0  0  0  0  0  0  0  0  0  0  0
    5.0976    0.7216   -0.9178 C   0  0  0  0  0  0  0  0  0  0  0  0
    3.8993    0.2766   -1.7577 C   0  0  0  0  0  0  0  0  0  0  0  0
   -3.3918   -0.7671   -1.1387 H   0  0  0  0  0  0  0  0  0  0  0  0
   -4.1695    1.3379   -1.6308 H   0  0  0  0  0  0  0  0  0  0  0  0
   -3.6554    2.0736   -0.1306 H   0  0  0  0  0  0  0  0  0  0  0  0
   -6.2149    1.6476   -0.5617 H   0  0  0  0  0  0  0  0  0  0  0  0
   -5.5401    1.4281    1.0462 H   0  0  0  0  0  0  0  0  0  0  0  0
   -7.0248   -0.4759    0.4102 H   0  0  0  0  0  0  0  0  0  0  0  0
   -6.0065   -0.8037   -0.9836 H   0  0  0  0  0  0  0  0  0  0  0  0
   -5.1165   -2.3202    0.5116 H   0  0  0  0  0  0  0  0  0  0  0  0
   -5.4913   -1.3541    1.9258 H   0  0  0  0  0  0  0  0  0  0  0  0
   -3.5346   -0.1354    1.8407 H   0  0  0  0  0  0  0  0  0  0  0  0
   -2.9801   -1.6599    1.1742 H   0  0  0  0  0  0  0  0  0  0  0  0
    0.7894    1.5601    0.7149 H   0  0  0  0  0  0  0  0  0  0  0  0
    1.6605   -1.1208    0.3994 H   0  0  0  0  0  0  0  0  0  0  0  0
    3.1455   -1.7772   -0.2283 H   0  0  0  0  0  0  0  0  0  0  0  0
    3.1612    0.8066    1.4184 H   0  0  0  0  0  0  0  0  0  0  0  0
    2.9782   -0.7332    2.2367 H   0  0  0  0  0  0  0  0  0  0  0  0
    5.1181   -1.4588    1.7763 H   0  0  0  0  0  0  0  0  0  0  0  0
    5.3313    0.2552    2.0471 H   0  0  0  0  0  0  0  0  0  0  0  0
    6.6827   -0.1773    0.2182 H   0  0  0  0  0  0  0  0  0  0  0  0
    5.5922   -1.3393   -0.5030 H   0  0  0  0  0  0  0  0  0  0  0  0
    5.9041    0.9829   -1.6146 H   0  0  0  0  0  0  0  0  0  0  0  0
    4.8620    1.6317   -0.3539 H   0  0  0  0  0  0  0  0  0  0  0  0
    3.7402    1.0412   -2.5279 H   0  0  0  0  0  0  0  0  0  0  0  0
    4.1113   -0.6624   -2.2838 H   0  0  0  0  0  0  0  0  0  0  0  0
  1  2  2  0
  2  3  1  0
  3  4  2  0
  4  5  1  0
  5  6  1  0
  6  7  1  0
  7  8  1  0
  8  9  1  0
  9 10  1  0
 10 11  1  0
  5 12  2  0
 12 13  1  0
  2 14  1  0
 14 15  1  0
 15 16  1  0
 16 17  1  0
 17 18  1  0
 18 19  1  0
 19 20  1  0
 13  3  1  0
 20 14  1  0
 11  6  1  0
  6 21  1  0
  7 22  1  0
  7 23  1  0
  8 24  1  0
  8 25  1  0
  9 26  1  0
  9 27  1  0
 10 28  1  0
 10 29  1  0
 11 30  1  0
 11 31  1  0
 13 32  1  0
 15 33  1  0
 15 34  1  0
 16 35  1  0
 16 36  1  0
 17 37  1  0
 17 38  1  0
 18 39  1  0
 18 40  1  0
 19 41  1  0
 19 42  1  0
 20 43  1  0
 20 44  1  0
M  END
>  <_SMILES>  (17) 
O=C(c1nc(C2CCCCC2)n[nH]1)N1CCCCCC1

$$$$

     RDKit          3D

 44 46  0  0  0  0  0  0  0  0999 V2000
   -1.6432   -2.4767   -1.4143 O   0  0  0  0  0  0  0  0  0  0  0  0
   -1.5923   -1.2984   -1.0475 C   0  0  0  0  0  0  0  0  0  0  0  0
   -0.3034   -0.7392   -0.5489 C   0  0  0  0  0  0  0  0  0  0  0  0
   -0.1732    0.2692    0.3390 N   0  0  0  0  0  0  0  0  0  0  0  0
    1.1543    0.3392    0.5053 N   0  0  0  0  0  0  0  0  0  0  0  0
    1.8102   -0.5880   -0.2484 C   0  0  0  0  0  0  0  0  0  0  0  0
    3.2975   -0.7589   -0.2744 C   0  0  0  0  0  0  0  0  0  0  0  0
    3.9818    0.4556   -0.9279 C   0  0  0  0  0  0  0  0  0  0  0  0
    5.4581    0.5233   -0.5577 C   0  0  0  0  0  0  0  0  0  0  0  0
    5.6605    0.6877    0.9493 C   0  0  0  0  0  0  0  0  0  0  0  0
    4.5214    0.1076    1.7893 C   0  0  0  0  0  0  0  0  0  0  0  0
    3.8693   -1.0969    1.1170 C   0  0  0  0  0  0  0  0  0  0  0  0
    0.9195   -1.2842   -0.9170 N   0  0  0  0  0  0  0  0  0  0  0  0
   -2.7500   -0.4887   -1.1053 N   0  0  0  0  0  0  0  0  0  0  0  0
   -2.7911    0.9434   -0.8123 C   0  0  0  0  0  0  0  0  0  0  0  0
   -3.2162    1.2013    0.6293 C   0  0  0  0  0  0  0  0  0  0  0  0
   -4.7282    1.2165    0.8619 C   0  0  0  0  0  0  0  0  0  0  0  0
   -5.5910    0.2761    0.0198 C   0  0  0  0  0  0  0  0  0  0  0  0
   -5.0022   -1.1090   -0.2407 C   0  0  0  0  0  0  0  0  0  0  0  0
   -4.0241   -1.1257   -1.4179 C   0  0  0  0  0  0  0  0  0  0  0  0
    1.5385    1.0294    1.1400 H   0  0  0  0  0  0  0  0  0  0  0  0
    3.4965   -1.6325   -0.9119 H   0  0  0  0  0  0  0  0  0  0  0  0
    3.8730    0.3937   -2.0179 H   0  0  0  0  0  0  0  0  0  0  0  0
    3.4991    1.3947   -0.6269 H   0  0  0  0  0  0  0  0  0  0  0  0
    5.9453    1.3503   -1.0866 H   0  0  0  0  0  0  0  0  0  0  0  0
    5.9551   -0.3959   -0.8930 H   0  0  0  0  0  0  0  0  0  0  0  0
    5.7699    1.7511    1.1949 H   0  0  0  0  0  0  0  0  0  0  0  0
    6.6083    0.2122    1.2299 H   0  0  0  0  0  0  0  0  0  0  0  0
    4.9033   -0.1734    2.7775 H   0  0  0  0  0  0  0  0  0  0  0  0
    3.7657    0.8836    1.9603 H   0  0  0  0  0  0  0  0  0  0  0  0
    3.1023   -1.5230    1.7750 H   0  0  0  0  0  0  0  0  0  0  0  0
    4.6358   -1.8751    1.0007 H   0  0  0  0  0  0  0  0  0  0  0  0
   -1.8135    1.3889   -1.0101 H   0  0  0  0  0  0  0  0  0  0  0  0
   -3.4738    1.4281   -1.5206 H   0  0  0  0  0  0  0  0  0  0  0  0
   -2.7675    0.4542    1.2956 H   0  0  0  0  0  0  0  0  0  0  0  0
   -2.8208    2.1733    0.9493 H   0  0  0  0  0  0  0  0  0  0  0  0
   -4.9063    1.0047    1.9242 H   0  0  0  0  0  0  0  0  0  0  0  0
   -5.0979    2.2379    0.7030 H   0  0  0  0  0  0  0  0  0  0  0  0
   -5.8315    0.7601   -0.9351 H   0  0  0  0  0  0  0  0  0  0  0  0
   -6.5508    0.1563    0.5386 H   0  0  0  0  0  0  0  0  0  0  0  0
   -5.8322   -1.7804   -0.4945 H   0  0  0  0  0  0  0  0  0  0  0  0
   -4.5341   -1.5095    0.6660 H   0  0  0  0  0  0  0  0  0  0  0  0
   -4.4505   -0.6153   -2.2897 H   0  0  0  0  0  0  0  0  0  0  0  0
   -3.8720   -2.1675   -1.7176 H   0  0  0  0  0  0  0  0  0  0  0  0
  1  2  2  0
  2  3  1  0
  3  4  2  0
  4  5  1  0
  5  6  1  0
  6  7  1  0
  7  8  1  0
  8  9  1  0
  9 10  1  0
 10 11  1  0
 11 12  1  0
  6 13  2  0
  2 14  1  0
 14 15  1  0
 15 16  1  0
 16 17  1  0
 17 18  1  0
 18 19  1  0
 19 20  1  0
 13  3  1  0
 20 14  1  0
 12  7  1  0
  5 21  1  0
  7 22  1  0
  8 23  1  0
  8 24  1  0
  9 25  1  0
  9 26  1  0
 10 27  1  0
 10 28  1  0
 11 29  1  0
 11 30  1  0
 12 31  1  0
 12 32  1  0
 15 33  1  0
 15 34  1  0
 16 35  1  0
 16 36  1  0
 17 37  1  0
 17 38  1  0
 18 39  1  0
 18 40  1  0
 19 41  1  0
 19 42  1  0
 20 43  1  0
 20 44  1  0
M  END
>  <_SMILES>  (18) 
O=C(c1n[nH]c(C2CCCCC2)n1)N1CCCCCC1

$$$$

     RDKit          3D

 47 49  0  0  0  0  0  0  0  0999 V2000
   -5.2553    1.2819   -0.7991 C   0  0  0  0  0  0  0  0  0  0  0  0
   -4.9991   -0.1819   -0.3984 C   0  0  0  0  0  0  0  0  0  0  0  0
   -6.2570   -0.9998   -0.7424 C   0  0  0  0  0  0  0  0  0  0  0  0
   -3.7933   -0.7601   -1.1592 C   0  0  0  0  0  0  0  0  0  0  0  0
   -2.4550   -0.1441   -0.7482 C   0  0  0  0  0  0  0  0  0  0  0  0
   -2.2507   -0.1031    0.7020 N   0  0  0  0  0  0  0  0  0  0  0  0
   -0.9782    0.0379    1.2957 C   0  0  0  0  0  0  0  0  0  0  0  0
   -0.8722    0.1315    2.5230 O   0  0  0  0  0  0  0  0  0  0  0  0
    0.2275    0.0789    0.4883 C   0  0  0  0  0  0  0  0  0  0  0  0
    0.3455    0.2286   -0.8158 N   0  0  0  0  0  0  0  0  0  0  0  0
    1.6837    0.2434   -1.1330 N   0  0  0  0  0  0  0  0  0  0  0  0
    2.3683    0.1285   -0.0149 C   0  0  0  0  0  0  0  0  0  0  0  0
    3.8519    0.1014    0.1549 C   0  0  0  0  0  0  0  0  0  0  0  0
    4.5140    1.2859   -0.5567 C   0  0  0  0  0  0  0  0  0  0  0  0
    6.0222    1.3339   -0.2973 C   0  0  0  0  0  0  0  0  0  0  0  0
    6.6481   -0.0426   -0.0668 C   0  0  0  0  0  0  0  0  0  0  0  0
    5.8895   -1.1396   -0.8001 C   0  0  0  0  0  0  0  0  0  0  0  0
    4.4330   -1.2375   -0.3371 C   0  0  0  0  0  0  0  0  0  0  0  0
    1.4887    0.0303    1.0264 N   0  0  0  0  0  0  0  0  0  0  0  0
   -3.3851    0.3294    1.5165 C   0  0  0  0  0  0  0  0  0  0  0  0
   -4.7104   -0.3067    1.1086 C   0  0  0  0  0  0  0  0  0  0  0  0
   -6.1109    1.6931   -0.2513 H   0  0  0  0  0  0  0  0  0  0  0  0
   -4.3972    1.9298   -0.5985 H   0  0  0  0  0  0  0  0  0  0  0  0
   -5.4784    1.3605   -1.8693 H   0  0  0  0  0  0  0  0  0  0  0  0
   -6.4788   -0.9517   -1.8145 H   0  0  0  0  0  0  0  0  0  0  0  0
   -6.1316   -2.0556   -0.4769 H   0  0  0  0  0  0  0  0  0  0  0  0
   -7.1328   -0.6238   -0.2016 H   0  0  0  0  0  0  0  0  0  0  0  0
   -3.9276   -0.6431   -2.2418 H   0  0  0  0  0  0  0  0  0  0  0  0
   -3.7390   -1.8415   -0.9709 H   0  0  0  0  0  0  0  0  0  0  0  0
   -2.3583    0.8785   -1.1292 H   0  0  0  0  0  0  0  0  0  0  0  0
   -1.6771   -0.7564   -1.2103 H   0  0  0  0  0  0  0  0  0  0  0  0
    4.0771    0.1942    1.2271 H   0  0  0  0  0  0  0  0  0  0  0  0
    4.0624    2.2353   -0.2427 H   0  0  0  0  0  0  0  0  0  0  0  0
    4.3396    1.2114   -1.6389 H   0  0  0  0  0  0  0  0  0  0  0  0
    6.2285    1.9639    0.5764 H   0  0  0  0  0  0  0  0  0  0  0  0
    6.5087    1.8251   -1.1488 H   0  0  0  0  0  0  0  0  0  0  0  0
    6.6515   -0.2651    1.0078 H   0  0  0  0  0  0  0  0  0  0  0  0
    7.6968   -0.0272   -0.3845 H   0  0  0  0  0  0  0  0  0  0  0  0
    6.3859   -2.1060   -0.6564 H   0  0  0  0  0  0  0  0  0  0  0  0
    5.9139   -0.9337   -1.8778 H   0  0  0  0  0  0  0  0  0  0  0  0
    3.8389   -1.6561   -1.1600 H   0  0  0  0  0  0  0  0  0  0  0  0
    4.3602   -1.9676    0.4799 H   0  0  0  0  0  0  0  0  0  0  0  0
    1.6952   -0.0534    2.0116 H   0  0  0  0  0  0  0  0  0  0  0  0
   -3.4393    1.4218    1.4412 H   0  0  0  0  0  0  0  0  0  0  0  0
   -3.2020    0.1002    2.5723 H   0  0  0  0  0  0  0  0  0  0  0  0
   -4.6787   -1.3699    1.3835 H   0  0  0  0  0  0  0  0  0  0  0  0
   -5.5229    0.1413    1.6940 H   0  0  0  0  0  0  0  0  0  0  0  0
  1  2  1  0
  2  3  1  0
  2  4  1  0
  4  5  1  0
  5  6  1  0
  6  7  1  0
  7  8  2  0
  7  9  1  0
  9 10  2  0
 10 11  1  0
 11 12  2  0
 12 13  1  0
 13 14  1  0
 14 15  1  0
 15 16  1  0
 16 17  1  0
 17 18  1  0
 12 19  1  0
  6 20  1  0
 20 21  1  0
 21  2  1  0
 19  9  1  0
 18 13  1  0
  1 22  1  0
  1 23  1  0
  1 24  1  0
  3 25  1  0
  3 26  1  0
  3 27  1  0
  4 28  1  0
  4 29  1  0
  5 30  1  0
  5 31  1  0
 13 32  1  0
 14 33  1  0
 14 34  1  0
 15 35  1  0
 15 36  1  0
 16 37  1  0
 16 38  1  0
 17 39  1  0
 17 40  1  0
 18 41  1  0
 18 42  1  0
 19 43  1  0
 20 44  1  0
 20 45  1  0
 21 46  1  0
 21 47  1  0
M  END
>  <_SMILES>  (19) 
CC1(C)CCN(C(=O)c2nnc(C3CCCCC3)[nH]2)CC1

$$$$

     RDKit          3D

 47 49  0  0  0  0  0  0  0  0999 V2000
   -5.7304   -0.8836    0.4657 C   0  0  0  0  0  0  0  0  0  0  0  0
   -4.3139   -0.5365    0.9613 C   0  0  0  0  0  0  0  0  0  0  0  0
   -4.0962   -1.2362    2.3157 C   0  0  0  0  0  0  0  0  0  0  0  0
   -3.2863   -1.0546   -0.0739 C   0  0  0  0  0  0  0  0  0  0  0  0
   -1.9709   -0.2770   -0.0439 C   0  0  0  0  0  0  0  0  0  0  0  0
   -2.1688    1.1608   -0.2405 N   0  0  0  0  0  0  0  0  0  0  0  0
   -1.1533    2.0508   -0.6126 C   0  0  0  0  0  0  0  0  0  0  0  0
   -1.4184    3.2210   -0.9009 O   0  0  0  0  0  0  0  0  0  0  0  0
    0.2257    1.6021   -0.6516 C   0  0  0  0  0  0  0  0  0  0  0  0
    0.7417    0.4478   -0.2699 N   0  0  0  0  0  0  0  0  0  0  0  0
    2.0840    0.5952   -0.5154 C   0  0  0  0  0  0  0  0  0  0  0  0
    3.0660   -0.4979   -0.2251 C   0  0  0  0  0  0  0  0  0  0  0  0
    3.8820   -0.9058   -1.4696 C   0  0  0  0  0  0  0  0  0  0  0  0
    5.2738   -0.2815   -1.4813 C   0  0  0  0  0  0  0  0  0  0  0  0
    6.0930   -0.6864   -0.2545 C   0  0  0  0  0  0  0  0  0  0  0  0
    5.2429   -0.9576    0.9875 C   0  0  0  0  0  0  0  0  0  0  0  0
    3.9566   -0.1414    0.9814 C   0  0  0  0  0  0  0  0  0  0  0  0
    2.4313    1.7847   -1.0222 N   0  0  0  0  0  0  0  0  0  0  0  0
    1.2415    2.4033   -1.0897 N   0  0  0  0  0  0  0  0  0  0  0  0
   -3.5194    1.6790   -0.0353 C   0  0  0  0  0  0  0  0  0  0  0  0
   -4.1860    0.9957    1.1561 C   0  0  0  0  0  0  0  0  0  0  0  0
   -6.4912   -0.5835    1.1951 H   0  0  0  0  0  0  0  0  0  0  0  0
   -5.8371   -1.9614    0.2981 H   0  0  0  0  0  0  0  0  0  0  0  0
   -5.9562   -0.3741   -0.4777 H   0  0  0  0  0  0  0  0  0  0  0  0
   -3.0883   -1.0514    2.7032 H   0  0  0  0  0  0  0  0  0  0  0  0
   -4.8121   -0.8777    3.0641 H   0  0  0  0  0  0  0  0  0  0  0  0
   -4.2233   -2.3211    2.2272 H   0  0  0  0  0  0  0  0  0  0  0  0
   -3.0875   -2.1226    0.0780 H   0  0  0  0  0  0  0  0  0  0  0  0
   -3.7052   -0.9661   -1.0859 H   0  0  0  0  0  0  0  0  0  0  0  0
   -1.4641   -0.4165    0.9173 H   0  0  0  0  0  0  0  0  0  0  0  0
   -1.3255   -0.6622   -0.8394 H   0  0  0  0  0  0  0  0  0  0  0  0
    2.4737   -1.3814    0.0546 H   0  0  0  0  0  0  0  0  0  0  0  0
    3.9985   -1.9980   -1.4721 H   0  0  0  0  0  0  0  0  0  0  0  0
    3.3507   -0.6547   -2.3957 H   0  0  0  0  0  0  0  0  0  0  0  0
    5.1826    0.8111   -1.5127 H   0  0  0  0  0  0  0  0  0  0  0  0
    5.8107   -0.5728   -2.3913 H   0  0  0  0  0  0  0  0  0  0  0  0
    6.6808   -1.5845   -0.4802 H   0  0  0  0  0  0  0  0  0  0  0  0
    6.8197    0.1069   -0.0411 H   0  0  0  0  0  0  0  0  0  0  0  0
    4.9915   -2.0249    1.0310 H   0  0  0  0  0  0  0  0  0  0  0  0
    5.8278   -0.7391    1.8881 H   0  0  0  0  0  0  0  0  0  0  0  0
    4.2159    0.9256    0.9790 H   0  0  0  0  0  0  0  0  0  0  0  0
    3.3993   -0.3161    1.9101 H   0  0  0  0  0  0  0  0  0  0  0  0
    1.1754    3.3556   -1.4323 H   0  0  0  0  0  0  0  0  0  0  0  0
   -3.4933    2.7602    0.1360 H   0  0  0  0  0  0  0  0  0  0  0  0
   -4.0875    1.5077   -0.9569 H   0  0  0  0  0  0  0  0  0  0  0  0
   -3.5818    1.2109    2.0480 H   0  0  0  0  0  0  0  0  0  0  0  0
   -5.1683    1.4481    1.3379 H   0  0  0  0  0  0  0  0  0  0  0  0
  1  2  1  0
  2  3  1  0
  2  4  1  0
  4  5  1  0
  5  6  1  0
  6  7  1  0
  7  8  2  0
  7  9  1  0
  9 10  2  0
 10 11  1  0
 11 12  1  0
 12 13  1  0
 13 14  1  0
 14 15  1  0
 15 16  1  0
 16 17  1  0
 11 18  2  0
 18 19  1  0
  6 20  1  0
 20 21  1  0
 21  2  1  0
 19  9  1  0
 17 12  1  0
  1 22  1  0
  1 23  1  0
  1 24  1  0
  3 25  1  0
  3 26  1  0
  3 27  1  0
  4 28  1  0
  4 29  1  0
  5 30  1  0
  5 31  1  0
 12 32  1  0
 13 33  1  0
 13 34  1  0
 14 35  1  0
 14 36  1  0
 15 37  1  0
 15 38  1  0
 16 39  1  0
 16 40  1  0
 17 41  1  0
 17 42  1  0
 19 43  1  0
 20 44  1  0
 20 45  1  0
 21 46  1  0
 21 47  1  0
M  END
>  <_SMILES>  (20) 
CC1(C)CCN(C(=O)c2nc(C3CCCCC3)n[nH]2)CC1

$$$$

     RDKit          3D

 47 49  0  0  0  0  0  0  0  0999 V2000
    5.2950    1.0086   -0.1609 C   0  0  0  0  0  0  0  0  0  0  0  0
    4.8280   -0.4340    0.1090 C   0  0  0  0  0  0  0  0  0  0  0  0
    6.0220   -1.2226    0.6768 C   0  0  0  0  0  0  0  0  0  0  0  0
    3.6726   -0.4563    1.1331 C   0  0  0  0  0  0  0  0  0  0  0  0
    2.3669    0.1068    0.5741 C   0  0  0  0  0  0  0  0  0  0  0  0
    1.9929   -0.5318   -0.6873 N   0  0  0  0  0  0  0  0  0  0  0  0
    0.6556   -0.5026   -1.1514 C   0  0  0  0  0  0  0  0  0  0  0  0
    0.4119   -0.4188   -2.3586 O   0  0  0  0  0  0  0  0  0  0  0  0
   -0.4488   -0.6107   -0.1626 C   0  0  0  0  0  0  0  0  0  0  0  0
   -0.3736   -1.2922    1.0009 N   0  0  0  0  0  0  0  0  0  0  0  0
   -1.6169   -1.1673    1.4853 N   0  0  0  0  0  0  0  0  0  0  0  0
   -2.4115   -0.4323    0.6568 C   0  0  0  0  0  0  0  0  0  0  0  0
   -3.8497   -0.1369    0.9471 C   0  0  0  0  0  0  0  0  0  0  0  0
   -4.7576   -0.9666    0.0194 C   0  0  0  0  0  0  0  0  0  0  0  0
   -6.1250   -0.3179   -0.1545 C   0  0  0  0  0  0  0  0  0  0  0  0
   -6.0179    1.0645   -0.8000 C   0  0  0  0  0  0  0  0  0  0  0  0
   -4.7038    1.7843   -0.4907 C   0  0  0  0  0  0  0  0  0  0  0  0
   -4.1363    1.3759    0.8652 C   0  0  0  0  0  0  0  0  0  0  0  0
   -1.7058   -0.0736   -0.3918 N   0  0  0  0  0  0  0  0  0  0  0  0
    3.0288   -0.5389   -1.7139 C   0  0  0  0  0  0  0  0  0  0  0  0
    4.3483   -1.1076   -1.1943 C   0  0  0  0  0  0  0  0  0  0  0  0
    4.5014    1.6371   -0.5746 H   0  0  0  0  0  0  0  0  0  0  0  0
    5.6426    1.4863    0.7622 H   0  0  0  0  0  0  0  0  0  0  0  0
    6.1271    1.0231   -0.8742 H   0  0  0  0  0  0  0  0  0  0  0  0
    5.7482   -2.2621    0.8896 H   0  0  0  0  0  0  0  0  0  0  0  0
    6.8581   -1.2382   -0.0314 H   0  0  0  0  0  0  0  0  0  0  0  0
    6.3819   -0.7766    1.6109 H   0  0  0  0  0  0  0  0  0  0  0  0
    3.9515    0.0998    2.0366 H   0  0  0  0  0  0  0  0  0  0  0  0
    3.4897   -1.4929    1.4477 H   0  0  0  0  0  0  0  0  0  0  0  0
    2.4579    1.1816    0.3767 H   0  0  0  0  0  0  0  0  0  0  0  0
    1.5899    0.0125    1.3321 H   0  0  0  0  0  0  0  0  0  0  0  0
   -1.8516   -1.6054    2.3687 H   0  0  0  0  0  0  0  0  0  0  0  0
   -4.0547   -0.4405    1.9835 H   0  0  0  0  0  0  0  0  0  0  0  0
   -4.8737   -1.9768    0.4315 H   0  0  0  0  0  0  0  0  0  0  0  0
   -4.2997   -1.0935   -0.9709 H   0  0  0  0  0  0  0  0  0  0  0  0
   -6.7752   -0.9577   -0.7618 H   0  0  0  0  0  0  0  0  0  0  0  0
   -6.6072   -0.2258    0.8269 H   0  0  0  0  0  0  0  0  0  0  0  0
   -6.8643    1.6754   -0.4633 H   0  0  0  0  0  0  0  0  0  0  0  0
   -6.1209    0.9754   -1.8883 H   0  0  0  0  0  0  0  0  0  0  0  0
   -4.8645    2.8680   -0.5224 H   0  0  0  0  0  0  0  0  0  0  0  0
   -3.9712    1.5569   -1.2750 H   0  0  0  0  0  0  0  0  0  0  0  0
   -4.8731    1.6377    1.6366 H   0  0  0  0  0  0  0  0  0  0  0  0
   -3.2386    1.9654    1.0883 H   0  0  0  0  0  0  0  0  0  0  0  0
    3.1524    0.4876   -2.0778 H   0  0  0  0  0  0  0  0  0  0  0  0
    2.6985   -1.1433   -2.5669 H   0  0  0  0  0  0  0  0  0  0  0  0
    5.1139   -1.0237   -1.9754 H   0  0  0  0  0  0  0  0  0  0  0  0
    4.2067   -2.1816   -1.0109 H   0  0  0  0  0  0  0  0  0  0  0  0
  1  2  1  0
  2  3  1  0
  2  4  1  0
  4  5  1  0
  5  6  1  0
  6  7  1  0
  7  8  2  0
  7  9  1  0
  9 10  2  0
 10 11  1  0
 11 12  1  0
 12 13  1  0
 13 14  1  0
 14 15  1  0
 15 16  1  0
 16 17  1  0
 17 18  1  0
 12 19  2  0
  6 20  1  0
 20 21  1  0
 21  2  1  0
 19  9  1  0
 18 13  1  0
  1 22  1  0
  1 23  1  0
  1 24  1  0
  3 25  1  0
  3 26  1  0
  3 27  1  0
  4 28  1  0
  4 29  1  0
  5 30  1  0
  5 31  1  0
 11 32  1  0
 13 33  1  0
 14 34  1  0
 14 35  1  0
 15 36  1  0
 15 37  1  0
 16 38  1  0
 16 39  1  0
 17 40  1  0
 17 41  1  0
 18 42  1  0
 18 43  1  0
 20 44  1  0
 20 45  1  0
 21 46  1  0
 21 47  1  0
M  END
>  <_SMILES>  (21) 
CC1(C)CCN(C(=O)c2n[nH]c(C3CCCCC3)n2)CC1

$$$$

     RDKit          3D

 45 48  0  0  0  0  0  0  0  0999 V2000
    5.1858    1.4914    0.9466 C   0  0  0  0  0  0  0  0  0  0  0  0
    4.5509    0.2690    0.2569 C   0  0  0  0  0  0  0  0  0  0  0  0
    4.8395   -0.9787    1.1099 C   0  0  0  0  0  0  0  0  0  0  0  0
    5.1919    0.1025   -1.1319 C   0  0  0  0  0  0  0  0  0  0  0  0
    3.0627    0.4666    0.1177 C   0  0  0  0  0  0  0  0  0  0  0  0
    2.3460    1.5072    0.4904 N   0  0  0  0  0  0  0  0  0  0  0  0
    1.0336    1.2699    0.1548 N   0  0  0  0  0  0  0  0  0  0  0  0
    0.9541    0.0725   -0.3877 C   0  0  0  0  0  0  0  0  0  0  0  0
   -0.2106   -0.6040   -0.9226 C   0  0  0  0  0  0  0  0  0  0  0  0
   -0.0518   -1.6160   -1.6123 O   0  0  0  0  0  0  0  0  0  0  0  0
   -1.4996   -0.1042   -0.6772 N   0  0  0  0  0  0  0  0  0  0  0  0
   -1.8725    0.6487    0.5424 C   0  0  1  0  0  0  0  0  0  0  0  0
   -2.9691    1.6704    0.1990 C   0  0  0  0  0  0  0  0  0  0  0  0
   -4.1912    0.9438   -0.3858 C   0  0  2  0  0  0  0  0  0  0  0  0
   -4.7243   -0.0719    0.6409 C   0  0  0  0  0  0  0  0  0  0  0  0
   -3.6317   -1.0965    0.9971 C   0  0  1  0  0  0  0  0  0  0  0  0
   -3.1903   -1.8341   -0.2823 C   0  0  0  0  0  0  0  0  0  0  0  0
   -2.6384   -0.8118   -1.2929 C   0  0  1  0  0  0  0  0  0  0  0  0
   -3.7389    0.2002   -1.6525 C   0  0  0  0  0  0  0  0  0  0  0  0
   -2.4135   -0.3548    1.5814 C   0  0  0  0  0  0  0  0  0  0  0  0
    2.2193   -0.4518   -0.4489 N   0  0  0  0  0  0  0  0  0  0  0  0
    5.0156    2.4088    0.3705 H   0  0  0  0  0  0  0  0  0  0  0  0
    6.2690    1.3662    1.0577 H   0  0  0  0  0  0  0  0  0  0  0  0
    4.7658    1.6488    1.9472 H   0  0  0  0  0  0  0  0  0  0  0  0
    4.3796   -0.8969    2.1020 H   0  0  0  0  0  0  0  0  0  0  0  0
    4.4470   -1.8888    0.6415 H   0  0  0  0  0  0  0  0  0  0  0  0
    5.9170   -1.1208    1.2514 H   0  0  0  0  0  0  0  0  0  0  0  0
    4.8066   -0.7823   -1.6520 H   0  0  0  0  0  0  0  0  0  0  0  0
    6.2795   -0.0094   -1.0550 H   0  0  0  0  0  0  0  0  0  0  0  0
    4.9893    0.9710   -1.7699 H   0  0  0  0  0  0  0  0  0  0  0  0
   -1.0278    1.1721    0.9833 H   0  0  0  0  0  0  0  0  0  0  0  0
   -2.5861    2.3981   -0.5273 H   0  0  0  0  0  0  0  0  0  0  0  0
   -3.2581    2.2304    1.0966 H   0  0  0  0  0  0  0  0  0  0  0  0
   -4.9736    1.6685   -0.6357 H   0  0  0  0  0  0  0  0  0  0  0  0
   -5.0544    0.4516    1.5465 H   0  0  0  0  0  0  0  0  0  0  0  0
   -5.6016   -0.5888    0.2331 H   0  0  0  0  0  0  0  0  0  0  0  0
   -4.0176   -1.8152    1.7282 H   0  0  0  0  0  0  0  0  0  0  0  0
   -4.0376   -2.3777   -0.7171 H   0  0  0  0  0  0  0  0  0  0  0  0
   -2.4212   -2.5762   -0.0349 H   0  0  0  0  0  0  0  0  0  0  0  0
   -2.3191   -1.3279   -2.2048 H   0  0  0  0  0  0  0  0  0  0  0  0
   -4.5907   -0.3149   -2.1127 H   0  0  0  0  0  0  0  0  0  0  0  0
   -3.3589    0.9190   -2.3892 H   0  0  0  0  0  0  0  0  0  0  0  0
   -1.6326   -1.0777    1.8487 H   0  0  0  0  0  0  0  0  0  0  0  0
   -2.6977    0.1702    2.5014 H   0  0  0  0  0  0  0  0  0  0  0  0
    2.4559   -1.3463   -0.8537 H   0  0  0  0  0  0  0  0  0  0  0  0
  1  2  1  0
  2  3  1  0
  2  4  1  0
  2  5  1  0
  5  6  2  0
  6  7  1  0
  7  8  2  0
  8  9  1  0
  9 10  2  0
  9 11  1  0
 11 12  1  0
 12 13  1  0
 13 14  1  0
 14 15  1  0
 15 16  1  0
 16 17  1  0
 17 18  1  0
 18 19  1  0
 16 20  1  0
  8 21  1  0
 21  5  1  0
 18 11  1  0
 20 12  1  0
 19 14  1  0
  1 22  1  0
  1 23  1  0
  1 24  1  0
  3 25  1  0
  3 26  1  0
  3 27  1  0
  4 28  1  0
  4 29  1  0
  4 30  1  0
 12 31  1  1
 13 32  1  0
 13 33  1  0
 14 34  1  6
 15 35  1  0
 15 36  1  0
 16 37  1  1
 17 38  1  0
 17 39  1  0
 18 40  1  6
 19 41  1  0
 19 42  1  0
 20 43  1  0
 20 44  1  0
 21 45  1  0
M  END
>  <_SMILES>  (22) 
CC(C)(C)c1nnc(C(=O)N2[C@H]3C[C@@H]4C[C@@H](C[C@H]2C4)C3)[nH]1

$$$$

     RDKit          3D

 45 48  0  0  0  0  0  0  0  0999 V2000
    4.8123    1.2793    0.7827 C   0  0  0  0  0  0  0  0  0  0  0  0
    4.4468    0.3884   -0.4174 C   0  0  0  0  0  0  0  0  0  0  0  0
    4.6355    1.2059   -1.7095 C   0  0  0  0  0  0  0  0  0  0  0  0
    5.3909   -0.8257   -0.4641 C   0  0  0  0  0  0  0  0  0  0  0  0
    3.0160   -0.0739   -0.3014 C   0  0  0  0  0  0  0  0  0  0  0  0
    2.0269    0.1324   -1.1432 N   0  0  0  0  0  0  0  0  0  0  0  0
    0.9374   -0.5016   -0.5678 C   0  0  0  0  0  0  0  0  0  0  0  0
   -0.3875   -0.5725   -1.2362 C   0  0  0  0  0  0  0  0  0  0  0  0
   -0.4731   -0.5541   -2.4671 O   0  0  0  0  0  0  0  0  0  0  0  0
   -1.5440   -0.6968   -0.4363 N   0  0  0  0  0  0  0  0  0  0  0  0
   -1.6637   -0.0502    0.8872 C   0  0  1  0  0  0  0  0  0  0  0  0
   -2.2736    1.3531    0.6890 C   0  0  0  0  0  0  0  0  0  0  0  0
   -3.6505    1.2262    0.0084 C   0  0  2  0  0  0  0  0  0  0  0  0
   -4.5762    0.3732    0.8951 C   0  0  0  0  0  0  0  0  0  0  0  0
   -3.9703   -1.0254    1.1109 C   0  0  1  0  0  0  0  0  0  0  0  0
   -3.7728   -1.7110   -0.2513 C   0  0  0  0  0  0  0  0  0  0  0  0
   -2.8350   -0.8619   -1.1260 C   0  0  1  0  0  0  0  0  0  0  0  0
   -3.4621    0.5263   -1.3519 C   0  0  0  0  0  0  0  0  0  0  0  0
   -2.5921   -0.8889    1.7806 C   0  0  0  0  0  0  0  0  0  0  0  0
    1.2373   -1.0948    0.6071 N   0  0  0  0  0  0  0  0  0  0  0  0
    2.5404   -0.8154    0.7423 N   0  0  0  0  0  0  0  0  0  0  0  0
    5.8388    1.6543    0.6990 H   0  0  0  0  0  0  0  0  0  0  0  0
    4.1441    2.1459    0.8523 H   0  0  0  0  0  0  0  0  0  0  0  0
    4.7386    0.7325    1.7300 H   0  0  0  0  0  0  0  0  0  0  0  0
    5.6702    1.5526   -1.8123 H   0  0  0  0  0  0  0  0  0  0  0  0
    3.9868    2.0900   -1.7215 H   0  0  0  0  0  0  0  0  0  0  0  0
    4.3957    0.6102   -2.5984 H   0  0  0  0  0  0  0  0  0  0  0  0
    5.1440   -1.4891   -1.3015 H   0  0  0  0  0  0  0  0  0  0  0  0
    6.4341   -0.5114   -0.5827 H   0  0  0  0  0  0  0  0  0  0  0  0
    5.3296   -1.4214    0.4542 H   0  0  0  0  0  0  0  0  0  0  0  0
   -0.6980    0.0671    1.3776 H   0  0  0  0  0  0  0  0  0  0  0  0
   -1.6095    1.9684    0.0694 H   0  0  0  0  0  0  0  0  0  0  0  0
   -2.3764    1.8601    1.6560 H   0  0  0  0  0  0  0  0  0  0  0  0
   -4.0870    2.2199   -0.1402 H   0  0  0  0  0  0  0  0  0  0  0  0
   -5.5635    0.2836    0.4257 H   0  0  0  0  0  0  0  0  0  0  0  0
   -4.7261    0.8681    1.8624 H   0  0  0  0  0  0  0  0  0  0  0  0
   -4.6344   -1.6274    1.7407 H   0  0  0  0  0  0  0  0  0  0  0  0
   -3.3438   -2.7101   -0.1046 H   0  0  0  0  0  0  0  0  0  0  0  0
   -4.7397   -1.8441   -0.7515 H   0  0  0  0  0  0  0  0  0  0  0  0
   -2.6886   -1.3655   -2.0878 H   0  0  0  0  0  0  0  0  0  0  0  0
   -2.8154    1.1359   -1.9947 H   0  0  0  0  0  0  0  0  0  0  0  0
   -4.4270    0.4276   -1.8636 H   0  0  0  0  0  0  0  0  0  0  0  0
   -2.6966   -0.4178    2.7654 H   0  0  0  0  0  0  0  0  0  0  0  0
   -2.1569   -1.8831    1.9414 H   0  0  0  0  0  0  0  0  0  0  0  0
    3.0385   -1.1589    1.5554 H   0  0  0  0  0  0  0  0  0  0  0  0
  1  2  1  0
  2  3  1  0
  2  4  1  0
  2  5  1  0
  5  6  2  0
  6  7  1  0
  7  8  1  0
  8  9  2  0
  8 10  1  0
 10 11  1  0
 11 12  1  0
 12 13  1  0
 13 14  1  0
 14 15  1  0
 15 16  1  0
 16 17  1  0
 17 18  1  0
 15 19  1  0
  7 20  2  0
 20 21  1  0
 21  5  1  0
 17 10  1  0
 19 11  1  0
 18 13  1  0
  1 22  1  0
  1 23  1  0
  1 24  1  0
  3 25  1  0
  3 26  1  0
  3 27  1  0
  4 28  1  0
  4 29  1  0
  4 30  1  0
 11 31  1  1
 12 32  1  0
 12 33  1  0
 13 34  1  6
 14 35  1  0
 14 36  1  0
 15 37  1  1
 16 38  1  0
 16 39  1  0
 17 40  1  6
 18 41  1  0
 18 42  1  0
 19 43  1  0
 19 44  1  0
 21 45  1  0
M  END
>  <_SMILES>  (23) 
CC(C)(C)c1nc(C(=O)N2[C@H]3C[C@@H]4C[C@@H](C[C@H]2C4)C3)n[nH]1

$$$$

     RDKit          3D

 45 48  0  0  0  0  0  0  0  0999 V2000
    3.5263    0.9506   -0.6035 C   0  0  0  0  0  0  0  0  0  0  0  0
    3.8900   -0.3372    0.1643 C   0  0  0  0  0  0  0  0  0  0  0  0
    4.6725    0.0632    1.4297 C   0  0  0  0  0  0  0  0  0  0  0  0
    4.7968   -1.1946   -0.7393 C   0  0  0  0  0  0  0  0  0  0  0  0
    2.6499   -1.1110    0.5423 C   0  0  0  0  0  0  0  0  0  0  0  0
    2.6914   -2.2704    1.2128 N   0  0  0  0  0  0  0  0  0  0  0  0
    1.3864   -2.5653    1.3228 N   0  0  0  0  0  0  0  0  0  0  0  0
    0.5978   -1.6266    0.7205 C   0  0  0  0  0  0  0  0  0  0  0  0
   -0.8494   -1.7144    0.7347 C   0  0  0  0  0  0  0  0  0  0  0  0
   -1.3858   -2.5727    1.4421 O   0  0  0  0  0  0  0  0  0  0  0  0
   -1.6384   -0.8455   -0.0383 N   0  0  0  0  0  0  0  0  0  0  0  0
   -1.1292    0.2707   -0.8641 C   0  0  1  0  0  0  0  0  0  0  0  0
   -2.0097    0.4342   -2.1177 C   0  0  0  0  0  0  0  0  0  0  0  0
   -3.4662    0.6881   -1.7060 C   0  0  2  0  0  0  0  0  0  0  0  0
   -3.5391    1.9594   -0.8416 C   0  0  0  0  0  0  0  0  0  0  0  0
   -2.6576    1.8054    0.4114 C   0  0  1  0  0  0  0  0  0  0  0  0
   -3.1511    0.5904    1.2250 C   0  0  0  0  0  0  0  0  0  0  0  0
   -3.0508   -0.6808    0.3580 C   0  0  1  0  0  0  0  0  0  0  0  0
   -3.9367   -0.5230   -0.8870 C   0  0  0  0  0  0  0  0  0  0  0  0
   -1.1962    1.5574   -0.0223 C   0  0  0  0  0  0  0  0  0  0  0  0
    1.3814   -0.6841    0.2334 N   0  0  0  0  0  0  0  0  0  0  0  0
    4.4238    1.5156   -0.8803 H   0  0  0  0  0  0  0  0  0  0  0  0
    2.8926    1.6106    0.0010 H   0  0  0  0  0  0  0  0  0  0  0  0
    2.9795    0.7241   -1.5267 H   0  0  0  0  0  0  0  0  0  0  0  0
    5.5651    0.6469    1.1770 H   0  0  0  0  0  0  0  0  0  0  0  0
    5.0029   -0.8166    1.9943 H   0  0  0  0  0  0  0  0  0  0  0  0
    4.0543    0.6700    2.1020 H   0  0  0  0  0  0  0  0  0  0  0  0
    5.1307   -2.1049   -0.2274 H   0  0  0  0  0  0  0  0  0  0  0  0
    4.2692   -1.5057   -1.6487 H   0  0  0  0  0  0  0  0  0  0  0  0
    5.6921   -0.6408   -1.0441 H   0  0  0  0  0  0  0  0  0  0  0  0
    1.0877   -3.4008    1.8141 H   0  0  0  0  0  0  0  0  0  0  0  0
   -0.1147    0.0834   -1.2112 H   0  0  0  0  0  0  0  0  0  0  0  0
   -1.9506   -0.4718   -2.7338 H   0  0  0  0  0  0  0  0  0  0  0  0
   -1.6408    1.2655   -2.7309 H   0  0  0  0  0  0  0  0  0  0  0  0
   -4.0933    0.8049   -2.5965 H   0  0  0  0  0  0  0  0  0  0  0  0
   -3.2088    2.8272   -1.4255 H   0  0  0  0  0  0  0  0  0  0  0  0
   -4.5781    2.1501   -0.5459 H   0  0  0  0  0  0  0  0  0  0  0  0
   -2.7158    2.7125    1.0228 H   0  0  0  0  0  0  0  0  0  0  0  0
   -2.5409    0.4798    2.1300 H   0  0  0  0  0  0  0  0  0  0  0  0
   -4.1869    0.7475    1.5490 H   0  0  0  0  0  0  0  0  0  0  0  0
   -3.3988   -1.5427    0.9365 H   0  0  0  0  0  0  0  0  0  0  0  0
   -3.8834   -1.4310   -1.5005 H   0  0  0  0  0  0  0  0  0  0  0  0
   -4.9848   -0.3936   -0.5911 H   0  0  0  0  0  0  0  0  0  0  0  0
   -0.5590    1.4656    0.8656 H   0  0  0  0  0  0  0  0  0  0  0  0
   -0.8243    2.4104   -0.6023 H   0  0  0  0  0  0  0  0  0  0  0  0
  1  2  1  0
  2  3  1  0
  2  4  1  0
  2  5  1  0
  5  6  2  0
  6  7  1  0
  7  8  1  0
  8  9  1  0
  9 10  2  0
  9 11  1  0
 11 12  1  0
 12 13  1  0
 13 14  1  0
 14 15  1  0
 15 16  1  0
 16 17  1  0
 17 18  1  0
 18 19  1  0
 16 20  1  0
  8 21  2  0
 21  5  1  0
 18 11  1  0
 20 12  1  0
 19 14  1  0
  1 22  1  0
  1 23  1  0
  1 24  1  0
  3 25  1  0
  3 26  1  0
  3 27  1  0
  4 28  1  0
  4 29  1  0
  4 30  1  0
  7 31  1  0
 12 32  1  6
 13 33  1  0
 13 34  1  0
 14 35  1  6
 15 36  1  0
 15 37  1  0
 16 38  1  1
 17 39  1  0
 17 40  1  0
 18 41  1  1
 19 42  1  0
 19 43  1  0
 20 44  1  0
 20 45  1  0
M  END
>  <_SMILES>  (24) 
CC(C)(C)c1n[nH]c(C(=O)N2[C@H]3C[C@@H]4C[C@@H](C[C@H]2C4)C3)n1

$$$$

     RDKit          3D

 40 44  0  0  0  0  0  0  0  0999 V2000
    0.4410    1.8161   -1.6643 O   0  0  0  0  0  0  0  0  0  0  0  0
    0.3320    0.8472   -0.9055 C   0  0  0  0  0  0  0  0  0  0  0  0
    1.5153    0.3711   -0.2152 C   0  0  0  0  0  0  0  0  0  0  0  0
    1.6069   -0.4754    0.7919 N   0  0  0  0  0  0  0  0  0  0  0  0
    2.9341   -0.5968    1.1411 N   0  0  0  0  0  0  0  0  0  0  0  0
    3.6244    0.1929    0.3526 C   0  0  0  0  0  0  0  0  0  0  0  0
    5.1580    0.3815    0.4124 C   0  0  0  0  0  0  0  0  0  0  0  0
    6.0392   -0.8379    0.3441 C   0  0  0  0  0  0  0  0  0  0  0  0
    5.9848    0.1111   -0.8176 C   0  0  0  0  0  0  0  0  0  0  0  0
    2.7773    0.8286   -0.5015 N   0  0  0  0  0  0  0  0  0  0  0  0
   -0.9169    0.2281   -0.7324 N   0  0  0  0  0  0  0  0  0  0  0  0
   -2.1168    1.0059   -1.0996 C   0  0  1  0  0  0  0  0  0  0  0  0
   -3.1760    0.0844   -1.7235 C   0  0  0  0  0  0  0  0  0  0  0  0
   -3.5432   -1.0278   -0.7300 C   0  0  2  0  0  0  0  0  0  0  0  0
   -4.0845   -0.4051    0.5692 C   0  0  0  0  0  0  0  0  0  0  0  0
   -3.0296    0.5246    1.1965 C   0  0  1  0  0  0  0  0  0  0  0  0
   -1.7536   -0.2888    1.5045 C   0  0  0  0  0  0  0  0  0  0  0  0
   -1.2051   -0.8866    0.1966 C   0  0  1  0  0  0  0  0  0  0  0  0
   -2.2643   -1.8186   -0.4225 C   0  0  0  0  0  0  0  0  0  0  0  0
   -2.6804    1.6393    0.1882 C   0  0  0  0  0  0  0  0  0  0  0  0
    5.4819    1.1792    1.0727 H   0  0  0  0  0  0  0  0  0  0  0  0
    5.5657   -1.8082    0.2383 H   0  0  0  0  0  0  0  0  0  0  0  0
    6.9324   -0.8488    0.9577 H   0  0  0  0  0  0  0  0  0  0  0  0
    5.4955   -0.2364   -1.7203 H   0  0  0  0  0  0  0  0  0  0  0  0
    6.8494    0.7402   -0.9961 H   0  0  0  0  0  0  0  0  0  0  0  0
    3.0063    1.5090   -1.2110 H   0  0  0  0  0  0  0  0  0  0  0  0
   -1.8681    1.7975   -1.8137 H   0  0  0  0  0  0  0  0  0  0  0  0
   -2.7876   -0.3568   -2.6499 H   0  0  0  0  0  0  0  0  0  0  0  0
   -4.0694    0.6619   -1.9900 H   0  0  0  0  0  0  0  0  0  0  0  0
   -4.2972   -1.6895   -1.1701 H   0  0  0  0  0  0  0  0  0  0  0  0
   -4.3529   -1.1971    1.2790 H   0  0  0  0  0  0  0  0  0  0  0  0
   -5.0012    0.1591    0.3584 H   0  0  0  0  0  0  0  0  0  0  0  0
   -3.4220    0.9656    2.1193 H   0  0  0  0  0  0  0  0  0  0  0  0
   -1.0039    0.3637    1.9686 H   0  0  0  0  0  0  0  0  0  0  0  0
   -1.9787   -1.0869    2.2219 H   0  0  0  0  0  0  0  0  0  0  0  0
   -0.3201   -1.4913    0.3853 H   0  0  0  0  0  0  0  0  0  0  0  0
   -1.8726   -2.2646   -1.3453 H   0  0  0  0  0  0  0  0  0  0  0  0
   -2.4873   -2.6437    0.2649 H   0  0  0  0  0  0  0  0  0  0  0  0
   -3.5721    2.2349   -0.0411 H   0  0  0  0  0  0  0  0  0  0  0  0
   -1.9408    2.3185    0.6301 H   0  0  0  0  0  0  0  0  0  0  0  0
  1  2  2  0
  2  3  1  0
  3  4  2  0
  4  5  1  0
  5  6  2  0
  6  7  1  0
  7  8  1  0
  8  9  1  0
  6 10  1  0
  2 11  1  0
 11 12  1  0
 12 13  1  0
 13 14  1  0
 14 15  1  0
 15 16  1  0
 16 17  1  0
 17 18  1  0
 18 19  1  0
 16 20  1  0
 10  3  1  0
 18 11  1  0
  9  7  1  0
 20 12  1  0
 19 14  1  0
  7 21  1  0
  8 22  1  0
  8 23  1  0
  9 24  1  0
  9 25  1  0
 10 26  1  0
 12 27  1  6
 13 28  1  0
 13 29  1  0
 14 30  1  6
 15 31  1  0
 15 32  1  0
 16 33  1  1
 17 34  1  0
 17 35  1  0
 18 36  1  1
 19 37  1  0
 19 38  1  0
 20 39  1  0
 20 40  1  0
M  END
>  <_SMILES>  (25) 
O=C(c1nnc(C2CC2)[nH]1)N1[C@H]2C[C@@H]3C[C@@H](C[C@H]1C3)C2

$$$$

     RDKit          3D

 40 44  0  0  0  0  0  0  0  0999 V2000
   -0.2384   -1.9980    2.4463 O   0  0  0  0  0  0  0  0  0  0  0  0
   -0.0234   -1.0190    1.7251 C   0  0  0  0  0  0  0  0  0  0  0  0
    1.2842   -0.3943    1.7715 C   0  0  0  0  0  0  0  0  0  0  0  0
    1.8178    0.5109    0.9735 N   0  0  0  0  0  0  0  0  0  0  0  0
    3.0791    0.6813    1.4767 C   0  0  0  0  0  0  0  0  0  0  0  0
    4.0985    1.6726    0.8559 C   0  0  0  0  0  0  0  0  0  0  0  0
    4.1974    1.7880   -0.6441 C   0  0  0  0  0  0  0  0  0  0  0  0
    5.3010    1.1266    0.1290 C   0  0  0  0  0  0  0  0  0  0  0  0
    3.3690   -0.0709    2.5413 N   0  0  0  0  0  0  0  0  0  0  0  0
    2.2234   -0.7523    2.6987 N   0  0  0  0  0  0  0  0  0  0  0  0
   -1.0355   -0.5307    0.8813 N   0  0  0  0  0  0  0  0  0  0  0  0
   -0.8842    0.5723   -0.0923 C   0  0  1  0  0  0  0  0  0  0  0  0
   -0.5485   -0.0429   -1.4626 C   0  0  0  0  0  0  0  0  0  0  0  0
   -1.6832   -1.0037   -1.8803 C   0  0  2  0  0  0  0  0  0  0  0  0
   -3.0040   -0.2179   -1.9745 C   0  0  0  0  0  0  0  0  0  0  0  0
   -3.3433    0.4220   -0.6164 C   0  0  1  0  0  0  0  0  0  0  0  0
   -3.4660   -0.6713    0.4552 C   0  0  0  0  0  0  0  0  0  0  0  0
   -2.1446   -1.4486    0.5543 C   0  0  1  0  0  0  0  0  0  0  0  0
   -1.8293   -2.1022   -0.8063 C   0  0  0  0  0  0  0  0  0  0  0  0
   -2.2041    1.3602   -0.1958 C   0  0  0  0  0  0  0  0  0  0  0  0
    4.2359    2.5779    1.4355 H   0  0  0  0  0  0  0  0  0  0  0  0
    3.5538    1.1608   -1.2507 H   0  0  0  0  0  0  0  0  0  0  0  0
    4.3829    2.7701   -1.0617 H   0  0  0  0  0  0  0  0  0  0  0  0
    6.2386    1.6574    0.2413 H   0  0  0  0  0  0  0  0  0  0  0  0
    5.4065    0.0505    0.0501 H   0  0  0  0  0  0  0  0  0  0  0  0
    2.1324   -1.4430    3.4359 H   0  0  0  0  0  0  0  0  0  0  0  0
   -0.1162    1.2788    0.2167 H   0  0  0  0  0  0  0  0  0  0  0  0
    0.3995   -0.5922   -1.4117 H   0  0  0  0  0  0  0  0  0  0  0  0
   -0.4266    0.7466   -2.2137 H   0  0  0  0  0  0  0  0  0  0  0  0
   -1.4489   -1.4578   -2.8492 H   0  0  0  0  0  0  0  0  0  0  0  0
   -2.9210    0.5602   -2.7432 H   0  0  0  0  0  0  0  0  0  0  0  0
   -3.8156   -0.8876   -2.2842 H   0  0  0  0  0  0  0  0  0  0  0  0
   -4.2823    0.9811   -0.6907 H   0  0  0  0  0  0  0  0  0  0  0  0
   -4.2877   -1.3533    0.2055 H   0  0  0  0  0  0  0  0  0  0  0  0
   -3.7055   -0.2173    1.4248 H   0  0  0  0  0  0  0  0  0  0  0  0
   -2.2462   -2.2281    1.3162 H   0  0  0  0  0  0  0  0  0  0  0  0
   -2.6273   -2.8006   -1.0855 H   0  0  0  0  0  0  0  0  0  0  0  0
   -0.8994   -2.6807   -0.7412 H   0  0  0  0  0  0  0  0  0  0  0  0
   -2.4395    1.8192    0.7727 H   0  0  0  0  0  0  0  0  0  0  0  0
   -2.0996    2.1756   -0.9218 H   0  0  0  0  0  0  0  0  0  0  0  0
  1  2  2  0
  2  3  1  0
  3  4  2  0
  4  5  1  0
  5  6  1  0
  6  7  1  0
  7  8  1  0
  5  9  2  0
  9 10  1  0
  2 11  1  0
 11 12  1  0
 12 13  1  0
 13 14  1  0
 14 15  1  0
 15 16  1  0
 16 17  1  0
 17 18  1  0
 18 19  1  0
 16 20  1  0
 10  3  1  0
 18 11  1  0
  8  6  1  0
 20 12  1  0
 19 14  1  0
  6 21  1  0
  7 22  1  0
  7 23  1  0
  8 24  1  0
  8 25  1  0
 10 26  1  0
 12 27  1  1
 13 28  1  0
 13 29  1  0
 14 30  1  6
 15 31  1  0
 15 32  1  0
 16 33  1  6
 17 34  1  0
 17 35  1  0
 18 36  1  1
 19 37  1  0
 19 38  1  0
 20 39  1  0
 20 40  1  0
M  END
>  <_SMILES>  (26) 
O=C(c1nc(C2CC2)n[nH]1)N1[C@H]2C[C@@H]3C[C@@H](C[C@H]1C3)C2

$$$$

     RDKit          3D

 40 44  0  0  0  0  0  0  0  0999 V2000
    0.1720    1.3312   -2.3145 O   0  0  0  0  0  0  0  0  0  0  0  0
    0.1737    0.4203   -1.4822 C   0  0  0  0  0  0  0  0  0  0  0  0
    1.4326   -0.2909   -1.1404 C   0  0  0  0  0  0  0  0  0  0  0  0
    1.5044   -1.5943   -0.7864 N   0  0  0  0  0  0  0  0  0  0  0  0
    2.8274   -1.7786   -0.6621 N   0  0  0  0  0  0  0  0  0  0  0  0
    3.5168   -0.6364   -0.9189 C   0  0  0  0  0  0  0  0  0  0  0  0
    5.0554   -0.4800   -0.8775 C   0  0  0  0  0  0  0  0  0  0  0  0
    5.6411    0.7356   -0.2085 C   0  0  0  0  0  0  0  0  0  0  0  0
    5.7731   -0.6115    0.4402 C   0  0  0  0  0  0  0  0  0  0  0  0
    2.6759    0.3173   -1.2318 N   0  0  0  0  0  0  0  0  0  0  0  0
   -1.0258    0.0093   -0.8621 N   0  0  0  0  0  0  0  0  0  0  0  0
   -1.0683   -0.4824    0.5310 C   0  0  1  0  0  0  0  0  0  0  0  0
   -1.3096    0.7222    1.4643 C   0  0  0  0  0  0  0  0  0  0  0  0
   -2.6317    1.4154    1.0815 C   0  0  2  0  0  0  0  0  0  0  0  0
   -3.7883    0.4081    1.2167 C   0  0  0  0  0  0  0  0  0  0  0  0
   -3.5509   -0.8052    0.2994 C   0  0  1  0  0  0  0  0  0  0  0  0
   -3.4401   -0.3281   -1.1583 C   0  0  0  0  0  0  0  0  0  0  0  0
   -2.2734    0.6655   -1.2894 C   0  0  1  0  0  0  0  0  0  0  0  0
   -2.5333    1.8835   -0.3838 C   0  0  0  0  0  0  0  0  0  0  0  0
   -2.2245   -1.4844    0.6812 C   0  0  0  0  0  0  0  0  0  0  0  0
    3.1856   -2.6905   -0.4053 H   0  0  0  0  0  0  0  0  0  0  0  0
    5.5634   -0.8339   -1.7687 H   0  0  0  0  0  0  0  0  0  0  0  0
    4.9599    1.4560    0.2320 H   0  0  0  0  0  0  0  0  0  0  0  0
    6.5222    1.1809   -0.6556 H   0  0  0  0  0  0  0  0  0  0  0  0
    6.7528   -1.0755    0.4417 H   0  0  0  0  0  0  0  0  0  0  0  0
    5.1980   -0.7856    1.3425 H   0  0  0  0  0  0  0  0  0  0  0  0
   -0.1348   -0.9589    0.8284 H   0  0  0  0  0  0  0  0  0  0  0  0
   -1.3471    0.3892    2.5086 H   0  0  0  0  0  0  0  0  0  0  0  0
   -0.4800    1.4353    1.3812 H   0  0  0  0  0  0  0  0  0  0  0  0
   -2.8066    2.2752    1.7373 H   0  0  0  0  0  0  0  0  0  0  0  0
   -4.7372    0.8927    0.9561 H   0  0  0  0  0  0  0  0  0  0  0  0
   -3.8745    0.0766    2.2587 H   0  0  0  0  0  0  0  0  0  0  0  0
   -4.3780   -1.5167    0.3990 H   0  0  0  0  0  0  0  0  0  0  0  0
   -4.3777    0.1452   -1.4737 H   0  0  0  0  0  0  0  0  0  0  0  0
   -3.2737   -1.1886   -1.8183 H   0  0  0  0  0  0  0  0  0  0  0  0
   -2.1931    0.9879   -2.3334 H   0  0  0  0  0  0  0  0  0  0  0  0
   -3.4600    2.3876   -0.6831 H   0  0  0  0  0  0  0  0  0  0  0  0
   -1.7204    2.6130   -0.4848 H   0  0  0  0  0  0  0  0  0  0  0  0
   -2.0518   -2.3531    0.0337 H   0  0  0  0  0  0  0  0  0  0  0  0
   -2.2735   -1.8537    1.7127 H   0  0  0  0  0  0  0  0  0  0  0  0
  1  2  2  0
  2  3  1  0
  3  4  2  0
  4  5  1  0
  5  6  1  0
  6  7  1  0
  7  8  1  0
  8  9  1  0
  6 10  2  0
  2 11  1  0
 11 12  1  0
 12 13  1  0
 13 14  1  0
 14 15  1  0
 15 16  1  0
 16 17  1  0
 17 18  1  0
 18 19  1  0
 16 20  1  0
 10  3  1  0
 18 11  1  0
  9  7  1  0
 20 12  1  0
 19 14  1  0
  5 21  1  0
  7 22  1  0
  8 23  1  0
  8 24  1  0
  9 25  1  0
  9 26  1  0
 12 27  1  1
 13 28  1  0
 13 29  1  0
 14 30  1  1
 15 31  1  0
 15 32  1  0
 16 33  1  6
 17 34  1  0
 17 35  1  0
 18 36  1  6
 19 37  1  0
 19 38  1  0
 20 39  1  0
 20 40  1  0
M  END
>  <_SMILES>  (27) 
O=C(c1n[nH]c(C2CC2)n1)N1[C@H]2C[C@@H]3C[C@@H](C[C@H]1C3)C2

$$$$

     RDKit          3D

 46 50  0  0  0  0  0  0  0  0999 V2000
   -0.7203   -2.0527   -1.5459 O   0  0  0  0  0  0  0  0  0  0  0  0
   -0.6983   -1.2008   -0.6513 C   0  0  0  0  0  0  0  0  0  0  0  0
    0.5876   -0.7112   -0.1923 C   0  0  0  0  0  0  0  0  0  0  0  0
    0.8580    0.3292    0.5690 N   0  0  0  0  0  0  0  0  0  0  0  0
    2.2228    0.4270    0.7066 N   0  0  0  0  0  0  0  0  0  0  0  0
    2.7725   -0.5440    0.0089 C   0  0  0  0  0  0  0  0  0  0  0  0
    4.2235   -0.8441   -0.1647 C   0  0  0  0  0  0  0  0  0  0  0  0
    4.9605   -0.9045    1.1818 C   0  0  0  0  0  0  0  0  0  0  0  0
    5.6930    0.4252    1.2889 C   0  0  0  0  0  0  0  0  0  0  0  0
    6.1305    0.6868   -0.1408 C   0  0  0  0  0  0  0  0  0  0  0  0
    4.9308    0.2556   -0.9771 C   0  0  0  0  0  0  0  0  0  0  0  0
    1.7782   -1.2745   -0.5781 N   0  0  0  0  0  0  0  0  0  0  0  0
   -1.9017   -0.7328   -0.0978 N   0  0  0  0  0  0  0  0  0  0  0  0
   -2.0244    0.3354    0.9184 C   0  0  1  0  0  0  0  0  0  0  0  0
   -2.2909    1.6627    0.1863 C   0  0  0  0  0  0  0  0  0  0  0  0
   -3.5851    1.5337   -0.6463 C   0  0  2  0  0  0  0  0  0  0  0  0
   -4.7625    1.2142    0.2930 C   0  0  0  0  0  0  0  0  0  0  0  0
   -4.5018   -0.1009    1.0488 C   0  0  1  0  0  0  0  0  0  0  0  0
   -4.3145   -1.2472    0.0440 C   0  0  0  0  0  0  0  0  0  0  0  0
   -3.1336   -0.9311   -0.8866 C   0  0  1  0  0  0  0  0  0  0  0  0
   -3.4184    0.3761   -1.6530 C   0  0  0  0  0  0  0  0  0  0  0  0
   -3.2044    0.0250    1.8590 C   0  0  0  0  0  0  0  0  0  0  0  0
    4.3322   -1.8106   -0.6730 H   0  0  0  0  0  0  0  0  0  0  0  0
    5.6979   -1.7170    1.1537 H   0  0  0  0  0  0  0  0  0  0  0  0
    4.3071   -1.0836    2.0420 H   0  0  0  0  0  0  0  0  0  0  0  0
    6.5388    0.3782    1.9807 H   0  0  0  0  0  0  0  0  0  0  0  0
    5.0109    1.2122    1.6308 H   0  0  0  0  0  0  0  0  0  0  0  0
    7.0012    0.0679   -0.3885 H   0  0  0  0  0  0  0  0  0  0  0  0
    6.3995    1.7333   -0.3106 H   0  0  0  0  0  0  0  0  0  0  0  0
    5.2523   -0.1150   -1.9566 H   0  0  0  0  0  0  0  0  0  0  0  0
    4.2770    1.1176   -1.1589 H   0  0  0  0  0  0  0  0  0  0  0  0
    1.8686   -2.0724   -1.1908 H   0  0  0  0  0  0  0  0  0  0  0  0
   -1.1325    0.4043    1.5384 H   0  0  0  0  0  0  0  0  0  0  0  0
   -1.4507    1.9084   -0.4745 H   0  0  0  0  0  0  0  0  0  0  0  0
   -2.3868    2.4822    0.9086 H   0  0  0  0  0  0  0  0  0  0  0  0
   -3.7781    2.4695   -1.1822 H   0  0  0  0  0  0  0  0  0  0  0  0
   -5.6907    1.1337   -0.2860 H   0  0  0  0  0  0  0  0  0  0  0  0
   -4.9023    2.0342    1.0080 H   0  0  0  0  0  0  0  0  0  0  0  0
   -5.3417   -0.3213    1.7166 H   0  0  0  0  0  0  0  0  0  0  0  0
   -4.1261   -2.1856    0.5802 H   0  0  0  0  0  0  0  0  0  0  0  0
   -5.2305   -1.3879   -0.5424 H   0  0  0  0  0  0  0  0  0  0  0  0
   -3.0141   -1.7515   -1.6016 H   0  0  0  0  0  0  0  0  0  0  0  0
   -2.5919    0.5996   -2.3390 H   0  0  0  0  0  0  0  0  0  0  0  0
   -4.3250    0.2696   -2.2606 H   0  0  0  0  0  0  0  0  0  0  0  0
   -3.3048    0.8173    2.6108 H   0  0  0  0  0  0  0  0  0  0  0  0
   -3.0122   -0.9102    2.3998 H   0  0  0  0  0  0  0  0  0  0  0  0
  1  2  2  0
  2  3  1  0
  3  4  2  0
  4  5  1  0
  5  6  2  0
  6  7  1  0
  7  8  1  0
  8  9  1  0
  9 10  1  0
 10 11  1  0
  6 12  1  0
  2 13  1  0
 13 14  1  0
 14 15  1  0
 15 16  1  0
 16 17  1  0
 17 18  1  0
 18 19  1  0
 19 20  1  0
 20 21  1  0
 18 22  1  0
 12  3  1  0
 20 13  1  0
 11  7  1  0
 22 14  1  0
 21 16  1  0
  7 23  1  0
  8 24  1  0
  8 25  1  0
  9 26  1  0
  9 27  1  0
 10 28  1  0
 10 29  1  0
 11 30  1  0
 11 31  1  0
 12 32  1  0
 14 33  1  1
 15 34  1  0
 15 35  1  0
 16 36  1  6
 17 37  1  0
 17 38  1  0
 18 39  1  1
 19 40  1  0
 19 41  1  0
 20 42  1  6
 21 43  1  0
 21 44  1  0
 22 45  1  0
 22 46  1  0
M  END
>  <_SMILES>  (28) 
O=C(c1nnc(C2CCCC2)[nH]1)N1[C@H]2C[C@@H]3C[C@@H](C[C@H]1C3)C2

$$$$

     RDKit          3D

 46 50  0  0  0  0  0  0  0  0999 V2000
   -1.1749    3.1867    1.1261 O   0  0  0  0  0  0  0  0  0  0  0  0
   -0.7823    2.1691    0.5474 C   0  0  0  0  0  0  0  0  0  0  0  0
    0.5486    2.1608   -0.0274 C   0  0  0  0  0  0  0  0  0  0  0  0
    1.2637    1.1478   -0.4775 N   0  0  0  0  0  0  0  0  0  0  0  0
    2.4493    1.7249   -0.8558 C   0  0  0  0  0  0  0  0  0  0  0  0
    3.5760    0.9375   -1.4377 C   0  0  0  0  0  0  0  0  0  0  0  0
    3.1333    0.0716   -2.6280 C   0  0  0  0  0  0  0  0  0  0  0  0
    2.9977   -1.3338   -2.0606 C   0  0  0  0  0  0  0  0  0  0  0  0
    4.1565   -1.4165   -1.0840 C   0  0  0  0  0  0  0  0  0  0  0  0
    4.1797   -0.0456   -0.4163 C   0  0  0  0  0  0  0  0  0  0  0  0
    2.5177    3.0448   -0.6495 N   0  0  0  0  0  0  0  0  0  0  0  0
    1.3107    3.2922   -0.1137 N   0  0  0  0  0  0  0  0  0  0  0  0
   -1.6194    1.0442    0.4534 N   0  0  0  0  0  0  0  0  0  0  0  0
   -1.2497   -0.2522   -0.1551 C   0  0  1  0  0  0  0  0  0  0  0  0
   -0.7509   -1.1818    0.9654 C   0  0  0  0  0  0  0  0  0  0  0  0
   -1.8694   -1.3565    2.0159 C   0  0  2  0  0  0  0  0  0  0  0  0
   -3.1067   -1.9764    1.3409 C   0  0  0  0  0  0  0  0  0  0  0  0
   -3.6055   -1.0688    0.2024 C   0  0  1  0  0  0  0  0  0  0  0  0
   -3.9605    0.3168    0.7621 C   0  0  0  0  0  0  0  0  0  0  0  0
   -2.7231    0.9382    1.4274 C   0  0  1  0  0  0  0  0  0  0  0  0
   -2.2480    0.0296    2.5793 C   0  0  0  0  0  0  0  0  0  0  0  0
   -2.4842   -0.8813   -0.8286 C   0  0  0  0  0  0  0  0  0  0  0  0
    4.3517    1.6350   -1.7794 H   0  0  0  0  0  0  0  0  0  0  0  0
    3.9217    0.0750   -3.3916 H   0  0  0  0  0  0  0  0  0  0  0  0
    2.2091    0.4119   -3.1065 H   0  0  0  0  0  0  0  0  0  0  0  0
    2.0432   -1.4461   -1.5335 H   0  0  0  0  0  0  0  0  0  0  0  0
    3.0534   -2.1017   -2.8374 H   0  0  0  0  0  0  0  0  0  0  0  0
    4.0355   -2.2277   -0.3603 H   0  0  0  0  0  0  0  0  0  0  0  0
    5.0950   -1.5835   -1.6261 H   0  0  0  0  0  0  0  0  0  0  0  0
    3.6007   -0.0761    0.5149 H   0  0  0  0  0  0  0  0  0  0  0  0
    5.2034    0.2372   -0.1474 H   0  0  0  0  0  0  0  0  0  0  0  0
    1.0600    4.2307    0.1780 H   0  0  0  0  0  0  0  0  0  0  0  0
   -0.4936   -0.1309   -0.9291 H   0  0  0  0  0  0  0  0  0  0  0  0
   -0.4654   -2.1563    0.5515 H   0  0  0  0  0  0  0  0  0  0  0  0
    0.1407   -0.7586    1.4438 H   0  0  0  0  0  0  0  0  0  0  0  0
   -1.5212   -2.0063    2.8262 H   0  0  0  0  0  0  0  0  0  0  0  0
   -3.9038   -2.1185    2.0808 H   0  0  0  0  0  0  0  0  0  0  0  0
   -2.8576   -2.9687    0.9452 H   0  0  0  0  0  0  0  0  0  0  0  0
   -4.4838   -1.5164   -0.2752 H   0  0  0  0  0  0  0  0  0  0  0  0
   -4.3142    0.9664   -0.0482 H   0  0  0  0  0  0  0  0  0  0  0  0
   -4.7776    0.2317    1.4886 H   0  0  0  0  0  0  0  0  0  0  0  0
   -2.9887    1.9219    1.8275 H   0  0  0  0  0  0  0  0  0  0  0  0
   -1.3783    0.4753    3.0779 H   0  0  0  0  0  0  0  0  0  0  0  0
   -3.0381   -0.0713    3.3331 H   0  0  0  0  0  0  0  0  0  0  0  0
   -2.2178   -1.8467   -1.2759 H   0  0  0  0  0  0  0  0  0  0  0  0
   -2.8332   -0.2340   -1.6431 H   0  0  0  0  0  0  0  0  0  0  0  0
  1  2  2  0
  2  3  1  0
  3  4  2  0
  4  5  1  0
  5  6  1  0
  6  7  1  0
  7  8  1  0
  8  9  1  0
  9 10  1  0
  5 11  2  0
 11 12  1  0
  2 13  1  0
 13 14  1  0
 14 15  1  0
 15 16  1  0
 16 17  1  0
 17 18  1  0
 18 19  1  0
 19 20  1  0
 20 21  1  0
 18 22  1  0
 12  3  1  0
 20 13  1  0
 10  6  1  0
 22 14  1  0
 21 16  1  0
  6 23  1  0
  7 24  1  0
  7 25  1  0
  8 26  1  0
  8 27  1  0
  9 28  1  0
  9 29  1  0
 10 30  1  0
 10 31  1  0
 12 32  1  0
 14 33  1  6
 15 34  1  0
 15 35  1  0
 16 36  1  1
 17 37  1  0
 17 38  1  0
 18 39  1  6
 19 40  1  0
 19 41  1  0
 20 42  1  1
 21 43  1  0
 21 44  1  0
 22 45  1  0
 22 46  1  0
M  END
>  <_SMILES>  (29) 
O=C(c1nc(C2CCCC2)n[nH]1)N1[C@H]2C[C@@H]3C[C@@H](C[C@H]1C3)C2

$$$$

     RDKit          3D

 46 50  0  0  0  0  0  0  0  0999 V2000
   -0.9908   -2.3658   -2.2706 O   0  0  0  0  0  0  0  0  0  0  0  0
   -0.7239   -1.4056   -1.5413 C   0  0  0  0  0  0  0  0  0  0  0  0
    0.6881   -1.0816   -1.2071 C   0  0  0  0  0  0  0  0  0  0  0  0
    1.7141   -1.3641   -2.0349 N   0  0  0  0  0  0  0  0  0  0  0  0
    2.7776   -0.9771   -1.3232 N   0  0  0  0  0  0  0  0  0  0  0  0
    2.4197   -0.4805   -0.1039 C   0  0  0  0  0  0  0  0  0  0  0  0
    3.3712    0.0414    0.9256 C   0  0  0  0  0  0  0  0  0  0  0  0
    3.7945    1.4828    0.6490 C   0  0  0  0  0  0  0  0  0  0  0  0
    4.9851    1.3588   -0.2923 C   0  0  0  0  0  0  0  0  0  0  0  0
    5.6773    0.0558    0.0972 C   0  0  0  0  0  0  0  0  0  0  0  0
    4.7010   -0.7111    0.9927 C   0  0  0  0  0  0  0  0  0  0  0  0
    1.1095   -0.5399   -0.0007 N   0  0  0  0  0  0  0  0  0  0  0  0
   -1.7591   -0.6087   -1.0150 N   0  0  0  0  0  0  0  0  0  0  0  0
   -1.5850    0.5628   -0.1342 C   0  0  1  0  0  0  0  0  0  0  0  0
   -2.5863    1.6611   -0.5407 C   0  0  0  0  0  0  0  0  0  0  0  0
   -4.0213    1.1192   -0.4561 C   0  0  2  0  0  0  0  0  0  0  0  0
   -4.3076    0.6542    0.9827 C   0  0  0  0  0  0  0  0  0  0  0  0
   -3.3075   -0.4395    1.3996 C   0  0  1  0  0  0  0  0  0  0  0  0
   -3.4332   -1.6329    0.4297 C   0  0  0  0  0  0  0  0  0  0  0  0
   -3.1243   -1.1623   -1.0051 C   0  0  1  0  0  0  0  0  0  0  0  0
   -4.1307   -0.0762   -1.4160 C   0  0  0  0  0  0  0  0  0  0  0  0
   -1.8726    0.1235    1.3128 C   0  0  0  0  0  0  0  0  0  0  0  0
    3.7018   -1.0838   -1.7249 H   0  0  0  0  0  0  0  0  0  0  0  0
    2.8635   -0.0188    1.8963 H   0  0  0  0  0  0  0  0  0  0  0  0
    4.1229    1.9549    1.5835 H   0  0  0  0  0  0  0  0  0  0  0  0
    2.9982    2.1016    0.2226 H   0  0  0  0  0  0  0  0  0  0  0  0
    5.6574    2.2190   -0.2162 H   0  0  0  0  0  0  0  0  0  0  0  0
    4.6430    1.3039   -1.3323 H   0  0  0  0  0  0  0  0  0  0  0  0
    6.6098    0.2543    0.6372 H   0  0  0  0  0  0  0  0  0  0  0  0
    5.9378   -0.5235   -0.7951 H   0  0  0  0  0  0  0  0  0  0  0  0
    4.6266   -1.7661    0.7082 H   0  0  0  0  0  0  0  0  0  0  0  0
    5.0799   -0.6837    2.0225 H   0  0  0  0  0  0  0  0  0  0  0  0
   -0.5844    0.9860   -0.2246 H   0  0  0  0  0  0  0  0  0  0  0  0
   -2.4735    2.5345    0.1131 H   0  0  0  0  0  0  0  0  0  0  0  0
   -2.3762    1.9951   -1.5646 H   0  0  0  0  0  0  0  0  0  0  0  0
   -4.7342    1.8987   -0.7461 H   0  0  0  0  0  0  0  0  0  0  0  0
   -5.3324    0.2695    1.0533 H   0  0  0  0  0  0  0  0  0  0  0  0
   -4.2379    1.5054    1.6709 H   0  0  0  0  0  0  0  0  0  0  0  0
   -3.5177   -0.7671    2.4236 H   0  0  0  0  0  0  0  0  0  0  0  0
   -2.7332   -2.4243    0.7254 H   0  0  0  0  0  0  0  0  0  0  0  0
   -4.4433   -2.0568    0.4805 H   0  0  0  0  0  0  0  0  0  0  0  0
   -3.2110   -2.0110   -1.6910 H   0  0  0  0  0  0  0  0  0  0  0  0
   -5.1502   -0.4800   -1.4010 H   0  0  0  0  0  0  0  0  0  0  0  0
   -3.9272    0.2519   -2.4430 H   0  0  0  0  0  0  0  0  0  0  0  0
   -1.7575    0.9725    1.9972 H   0  0  0  0  0  0  0  0  0  0  0  0
   -1.1581   -0.6465    1.6274 H   0  0  0  0  0  0  0  0  0  0  0  0
  1  2  2  0
  2  3  1  0
  3  4  2  0
  4  5  1  0
  5  6  1  0
  6  7  1  0
  7  8  1  0
  8  9  1  0
  9 10  1  0
 10 11  1  0
  6 12  2  0
  2 13  1  0
 13 14  1  0
 14 15  1  0
 15 16  1  0
 16 17  1  0
 17 18  1  0
 18 19  1  0
 19 20  1  0
 20 21  1  0
 18 22  1  0
 12  3  1  0
 20 13  1  0
 11  7  1  0
 22 14  1  0
 21 16  1  0
  5 23  1  0
  7 24  1  0
  8 25  1  0
  8 26  1  0
  9 27  1  0
  9 28  1  0
 10 29  1  0
 10 30  1  0
 11 31  1  0
 11 32  1  0
 14 33  1  1
 15 34  1  0
 15 35  1  0
 16 36  1  6
 17 37  1  0
 17 38  1  0
 18 39  1  1
 19 40  1  0
 19 41  1  0
 20 42  1  6
 21 43  1  0
 21 44  1  0
 22 45  1  0
 22 46  1  0
M  END
>  <_SMILES>  (30) 
O=C(c1n[nH]c(C2CCCC2)n1)N1[C@H]2C[C@@H]3C[C@@H](C[C@H]1C3)C2

$$$$

     RDKit          3D

 36 39  0  0  0  0  0  0  0  0999 V2000
    5.8155    0.6090    0.1080 C   0  0  0  0  0  0  0  0  0  0  0  0
    4.4000    0.2171   -0.0420 C   0  0  0  0  0  0  0  0  0  0  0  0
    3.8246   -0.3467   -1.0811 N   0  0  0  0  0  0  0  0  0  0  0  0
    2.4987   -0.5501   -0.7729 N   0  0  0  0  0  0  0  0  0  0  0  0
    2.2752   -0.0759    0.4363 C   0  0  0  0  0  0  0  0  0  0  0  0
    1.0435   -0.0877    1.2003 C   0  0  0  0  0  0  0  0  0  0  0  0
    1.0831    0.1785    2.4055 O   0  0  0  0  0  0  0  0  0  0  0  0
   -0.1740   -0.4174    0.5833 N   0  0  0  0  0  0  0  0  0  0  0  0
   -1.3821   -0.4612    1.4291 C   0  0  1  0  0  0  0  0  0  0  0  0
   -2.0857    0.9065    1.3578 C   0  0  0  0  0  0  0  0  0  0  0  0
   -2.4545    1.2124   -0.1072 C   0  0  2  0  0  0  0  0  0  0  0  0
   -3.3949    0.1130   -0.6341 C   0  0  0  0  0  0  0  0  0  0  0  0
   -2.7103   -1.2631   -0.5480 C   0  0  1  0  0  0  0  0  0  0  0  0
   -1.4165   -1.2450   -1.3783 C   0  0  0  0  0  0  0  0  0  0  0  0
   -0.4716   -0.1560   -0.8438 C   0  0  1  0  0  0  0  0  0  0  0  0
   -1.1626    1.2191   -0.9477 C   0  0  0  0  0  0  0  0  0  0  0  0
   -2.3318   -1.5549    0.9128 C   0  0  0  0  0  0  0  0  0  0  0  0
    3.4632    0.3949    0.9356 N   0  0  0  0  0  0  0  0  0  0  0  0
    6.2788    0.0711    0.9408 H   0  0  0  0  0  0  0  0  0  0  0  0
    6.3784    0.3777   -0.8016 H   0  0  0  0  0  0  0  0  0  0  0  0
    5.9008    1.6835    0.2969 H   0  0  0  0  0  0  0  0  0  0  0  0
   -1.1133   -0.6857    2.4670 H   0  0  0  0  0  0  0  0  0  0  0  0
   -1.4265    1.6930    1.7453 H   0  0  0  0  0  0  0  0  0  0  0  0
   -2.9873    0.9022    1.9819 H   0  0  0  0  0  0  0  0  0  0  0  0
   -2.9476    2.1885   -0.1721 H   0  0  0  0  0  0  0  0  0  0  0  0
   -4.3233    0.1048   -0.0500 H   0  0  0  0  0  0  0  0  0  0  0  0
   -3.6732    0.3266   -1.6734 H   0  0  0  0  0  0  0  0  0  0  0  0
   -3.3850   -2.0404   -0.9228 H   0  0  0  0  0  0  0  0  0  0  0  0
   -0.9253   -2.2244   -1.3232 H   0  0  0  0  0  0  0  0  0  0  0  0
   -1.6492   -1.0584   -2.4336 H   0  0  0  0  0  0  0  0  0  0  0  0
    0.4246   -0.1332   -1.4587 H   0  0  0  0  0  0  0  0  0  0  0  0
   -1.3957    1.4465   -1.9950 H   0  0  0  0  0  0  0  0  0  0  0  0
   -0.4897    2.0069   -0.5868 H   0  0  0  0  0  0  0  0  0  0  0  0
   -3.2335   -1.5976    1.5354 H   0  0  0  0  0  0  0  0  0  0  0  0
   -1.8444   -2.5354    0.9812 H   0  0  0  0  0  0  0  0  0  0  0  0
    3.5914    0.7818    1.8598 H   0  0  0  0  0  0  0  0  0  0  0  0
  1  2  1  0
  2  3  2  0
  3  4  1  0
  4  5  2  0
  5  6  1  0
  6  7  2  0
  6  8  1  0
  8  9  1  0
  9 10  1  0
 10 11  1  0
 11 12  1  0
 12 13  1  0
 13 14  1  0
 14 15  1  0
 15 16  1  0
 13 17  1  0
  5 18  1  0
 18  2  1  0
 15  8  1  0
 17  9  1  0
 16 11  1  0
  1 19  1  0
  1 20  1  0
  1 21  1  0
  9 22  1  1
 10 23  1  0
 10 24  1  0
 11 25  1  1
 12 26  1  0
 12 27  1  0
 13 28  1  6
 14 29  1  0
 14 30  1  0
 15 31  1  6
 16 32  1  0
 16 33  1  0
 17 34  1  0
 17 35  1  0
 18 36  1  0
M  END
>  <_SMILES>  (31) 
Cc1nnc(C(=O)N2[C@H]3C[C@@H]4C[C@@H](C[C@H]2C4)C3)[nH]1

$$$$

     RDKit          3D

 36 39  0  0  0  0  0  0  0  0999 V2000
    5.6733   -0.8482    0.3610 C   0  0  0  0  0  0  0  0  0  0  0  0
    4.2011   -0.9507    0.3088 C   0  0  0  0  0  0  0  0  0  0  0  0
    3.4071   -0.6888   -0.7032 N   0  0  0  0  0  0  0  0  0  0  0  0
    2.1345   -0.9531   -0.2192 C   0  0  0  0  0  0  0  0  0  0  0  0
    0.9216   -0.8545   -1.0721 C   0  0  0  0  0  0  0  0  0  0  0  0
    0.9920   -1.0406   -2.2899 O   0  0  0  0  0  0  0  0  0  0  0  0
   -0.3188   -0.5794   -0.4568 N   0  0  0  0  0  0  0  0  0  0  0  0
   -0.4392    0.3067    0.7198 C   0  0  1  0  0  0  0  0  0  0  0  0
   -0.6680    1.7486    0.2208 C   0  0  0  0  0  0  0  0  0  0  0  0
   -1.9430    1.7998   -0.6434 C   0  0  2  0  0  0  0  0  0  0  0  0
   -3.1454    1.3410    0.2018 C   0  0  0  0  0  0  0  0  0  0  0  0
   -2.9216   -0.0924    0.7166 C   0  0  1  0  0  0  0  0  0  0  0  0
   -2.7308   -1.0396   -0.4797 C   0  0  0  0  0  0  0  0  0  0  0  0
   -1.5190   -0.5849   -1.3106 C   0  0  1  0  0  0  0  0  0  0  0  0
   -1.7647    0.8412   -1.8372 C   0  0  0  0  0  0  0  0  0  0  0  0
   -1.6416   -0.1366    1.5689 C   0  0  0  0  0  0  0  0  0  0  0  0
    2.1383   -1.3728    1.0649 N   0  0  0  0  0  0  0  0  0  0  0  0
    3.4450   -1.3653    1.3631 N   0  0  0  0  0  0  0  0  0  0  0  0
    6.0687   -0.4877   -0.5936 H   0  0  0  0  0  0  0  0  0  0  0  0
    6.1213   -1.8250    0.5678 H   0  0  0  0  0  0  0  0  0  0  0  0
    5.9844   -0.1495    1.1437 H   0  0  0  0  0  0  0  0  0  0  0  0
    0.4604    0.3004    1.3342 H   0  0  0  0  0  0  0  0  0  0  0  0
   -0.7624    2.4325    1.0729 H   0  0  0  0  0  0  0  0  0  0  0  0
    0.1935    2.0840   -0.3700 H   0  0  0  0  0  0  0  0  0  0  0  0
   -2.1085    2.8203   -1.0055 H   0  0  0  0  0  0  0  0  0  0  0  0
   -3.2884    2.0234    1.0486 H   0  0  0  0  0  0  0  0  0  0  0  0
   -4.0616    1.3824   -0.3999 H   0  0  0  0  0  0  0  0  0  0  0  0
   -3.7811   -0.4132    1.3152 H   0  0  0  0  0  0  0  0  0  0  0  0
   -3.6340   -1.0499   -1.1017 H   0  0  0  0  0  0  0  0  0  0  0  0
   -2.5736   -2.0641   -0.1199 H   0  0  0  0  0  0  0  0  0  0  0  0
   -1.3823   -1.2739   -2.1513 H   0  0  0  0  0  0  0  0  0  0  0  0
   -0.9184    1.1707   -2.4524 H   0  0  0  0  0  0  0  0  0  0  0  0
   -2.6563    0.8614   -2.4752 H   0  0  0  0  0  0  0  0  0  0  0  0
   -1.7485    0.5164    2.4435 H   0  0  0  0  0  0  0  0  0  0  0  0
   -1.4790   -1.1551    1.9428 H   0  0  0  0  0  0  0  0  0  0  0  0
    3.7452   -1.6544    2.2871 H   0  0  0  0  0  0  0  0  0  0  0  0
  1  2  1  0
  2  3  2  0
  3  4  1  0
  4  5  1  0
  5  6  2  0
  5  7  1  0
  7  8  1  0
  8  9  1  0
  9 10  1  0
 10 11  1  0
 11 12  1  0
 12 13  1  0
 13 14  1  0
 14 15  1  0
 12 16  1  0
  4 17  2  0
 17 18  1  0
 18  2  1  0
 14  7  1  0
 16  8  1  0
 15 10  1  0
  1 19  1  0
  1 20  1  0
  1 21  1  0
  8 22  1  1
  9 23  1  0
  9 24  1  0
 10 25  1  6
 11 26  1  0
 11 27  1  0
 12 28  1  1
 13 29  1  0
 13 30  1  0
 14 31  1  6
 15 32  1  0
 15 33  1  0
 16 34  1  0
 16 35  1  0
 18 36  1  0
M  END
>  <_SMILES>  (32) 
Cc1nc(C(=O)N2[C@H]3C[C@@H]4C[C@@H](C[C@H]2C4)C3)n[nH]1

$$$$

     RDKit          3D

 36 39  0  0  0  0  0  0  0  0999 V2000
    5.0537   -0.8309   -0.6393 C   0  0  0  0  0  0  0  0  0  0  0  0
    4.0711    0.1892   -0.2240 C   0  0  0  0  0  0  0  0  0  0  0  0
    4.4020    1.4693   -0.0228 N   0  0  0  0  0  0  0  0  0  0  0  0
    3.2209    1.9921    0.3461 N   0  0  0  0  0  0  0  0  0  0  0  0
    2.2229    1.0583    0.3297 C   0  0  0  0  0  0  0  0  0  0  0  0
    0.8620    1.3779    0.7126 C   0  0  0  0  0  0  0  0  0  0  0  0
    0.6220    2.4791    1.2160 O   0  0  0  0  0  0  0  0  0  0  0  0
   -0.1655    0.4366    0.5354 N   0  0  0  0  0  0  0  0  0  0  0  0
   -0.1677   -0.5900   -0.5312 C   0  0  1  0  0  0  0  0  0  0  0  0
   -0.8937   -1.8495   -0.0298 C   0  0  0  0  0  0  0  0  0  0  0  0
   -2.3309   -1.4915    0.3818 C   0  0  2  0  0  0  0  0  0  0  0  0
   -3.0793   -0.9016   -0.8271 C   0  0  0  0  0  0  0  0  0  0  0  0
   -2.3569    0.3571   -1.3416 C   0  0  1  0  0  0  0  0  0  0  0  0
   -2.2907    1.4025   -0.2109 C   0  0  0  0  0  0  0  0  0  0  0  0
   -1.5209    0.8100    0.9839 C   0  0  1  0  0  0  0  0  0  0  0  0
   -2.2550   -0.4390    1.4991 C   0  0  0  0  0  0  0  0  0  0  0  0
   -0.9184   -0.0164   -1.7504 C   0  0  0  0  0  0  0  0  0  0  0  0
    2.7488   -0.1035   -0.0122 N   0  0  0  0  0  0  0  0  0  0  0  0
    5.5163   -0.5545   -1.5917 H   0  0  0  0  0  0  0  0  0  0  0  0
    5.8415   -0.9345    0.1132 H   0  0  0  0  0  0  0  0  0  0  0  0
    4.5736   -1.8063   -0.7654 H   0  0  0  0  0  0  0  0  0  0  0  0
    3.1484    2.9714    0.5997 H   0  0  0  0  0  0  0  0  0  0  0  0
    0.8352   -0.8650   -0.8472 H   0  0  0  0  0  0  0  0  0  0  0  0
   -0.3557   -2.2733    0.8272 H   0  0  0  0  0  0  0  0  0  0  0  0
   -0.9068   -2.6155   -0.8146 H   0  0  0  0  0  0  0  0  0  0  0  0
   -2.8506   -2.3854    0.7435 H   0  0  0  0  0  0  0  0  0  0  0  0
   -3.1424   -1.6489   -1.6276 H   0  0  0  0  0  0  0  0  0  0  0  0
   -4.1085   -0.6508   -0.5425 H   0  0  0  0  0  0  0  0  0  0  0  0
   -2.8943    0.7709   -2.2018 H   0  0  0  0  0  0  0  0  0  0  0  0
   -3.3027    1.6925    0.0961 H   0  0  0  0  0  0  0  0  0  0  0  0
   -1.7896    2.3084   -0.5736 H   0  0  0  0  0  0  0  0  0  0  0  0
   -1.4662    1.5478    1.7917 H   0  0  0  0  0  0  0  0  0  0  0  0
   -3.2639   -0.1726    1.8364 H   0  0  0  0  0  0  0  0  0  0  0  0
   -1.7234   -0.8540    2.3646 H   0  0  0  0  0  0  0  0  0  0  0  0
   -0.3982    0.8722   -2.1291 H   0  0  0  0  0  0  0  0  0  0  0  0
   -0.9368   -0.7523   -2.5633 H   0  0  0  0  0  0  0  0  0  0  0  0
  1  2  1  0
  2  3  2  0
  3  4  1  0
  4  5  1  0
  5  6  1  0
  6  7  2  0
  6  8  1  0
  8  9  1  0
  9 10  1  0
 10 11  1  0
 11 12  1  0
 12 13  1  0
 13 14  1  0
 14 15  1  0
 15 16  1  0
 13 17  1  0
  5 18  2  0
 18  2  1  0
 15  8  1  0
 17  9  1  0
 16 11  1  0
  1 19  1  0
  1 20  1  0
  1 21  1  0
  4 22  1  0
  9 23  1  6
 10 24  1  0
 10 25  1  0
 11 26  1  1
 12 27  1  0
 12 28  1  0
 13 29  1  6
 14 30  1  0
 14 31  1  0
 15 32  1  1
 16 33  1  0
 16 34  1  0
 17 35  1  0
 17 36  1  0
M  END
>  <_SMILES>  (33) 
Cc1n[nH]c(C(=O)N2[C@H]3C[C@@H]4C[C@@H](C[C@H]2C4)C3)n1

$$$$

     RDKit          3D

 42 45  0  0  0  0  0  0  0  0999 V2000
    5.3385   -0.1085    1.5742 C   0  0  0  0  0  0  0  0  0  0  0  0
    4.8815   -0.5903    0.1979 C   0  0  0  0  0  0  0  0  0  0  0  0
    5.7519    0.0145   -0.9028 C   0  0  0  0  0  0  0  0  0  0  0  0
    3.4440   -0.2538   -0.0252 C   0  0  0  0  0  0  0  0  0  0  0  0
    2.8880    0.9387   -0.0575 N   0  0  0  0  0  0  0  0  0  0  0  0
    1.5453    0.7754   -0.3096 N   0  0  0  0  0  0  0  0  0  0  0  0
    1.2918   -0.5149   -0.3930 C   0  0  0  0  0  0  0  0  0  0  0  0
    0.0314   -1.1736   -0.6731 C   0  0  0  0  0  0  0  0  0  0  0  0
    0.0332   -2.3756   -0.9560 O   0  0  0  0  0  0  0  0  0  0  0  0
   -1.1718   -0.4504   -0.6435 N   0  0  0  0  0  0  0  0  0  0  0  0
   -1.4034    0.7277    0.2235 C   0  0  1  0  0  0  0  0  0  0  0  0
   -2.3652    1.7002   -0.4793 C   0  0  0  0  0  0  0  0  0  0  0  0
   -3.6904    0.9858   -0.7904 C   0  0  2  0  0  0  0  0  0  0  0  0
   -4.3210    0.4803    0.5197 C   0  0  0  0  0  0  0  0  0  0  0  0
   -3.3632   -0.4898    1.2353 C   0  0  1  0  0  0  0  0  0  0  0  0
   -3.0635   -1.6842    0.3084 C   0  0  0  0  0  0  0  0  0  0  0  0
   -2.4130   -1.1695   -0.9888 C   0  0  1  0  0  0  0  0  0  0  0  0
   -3.3804   -0.2112   -1.7033 C   0  0  0  0  0  0  0  0  0  0  0  0
   -2.0398    0.2389    1.5407 C   0  0  0  0  0  0  0  0  0  0  0  0
    2.4747   -1.1925   -0.2420 N   0  0  0  0  0  0  0  0  0  0  0  0
    5.2585    0.9807    1.6673 H   0  0  0  0  0  0  0  0  0  0  0  0
    4.7283   -0.5545    2.3677 H   0  0  0  0  0  0  0  0  0  0  0  0
    6.3820   -0.3870    1.7563 H   0  0  0  0  0  0  0  0  0  0  0  0
    5.0044   -1.6806    0.1644 H   0  0  0  0  0  0  0  0  0  0  0  0
    5.6888    1.1087   -0.9115 H   0  0  0  0  0  0  0  0  0  0  0  0
    6.8025   -0.2617   -0.7629 H   0  0  0  0  0  0  0  0  0  0  0  0
    5.4392   -0.3432   -1.8903 H   0  0  0  0  0  0  0  0  0  0  0  0
   -0.4834    1.2541    0.4655 H   0  0  0  0  0  0  0  0  0  0  0  0
   -1.9120    2.0655   -1.4093 H   0  0  0  0  0  0  0  0  0  0  0  0
   -2.5493    2.5747    0.1564 H   0  0  0  0  0  0  0  0  0  0  0  0
   -4.3774    1.6739   -1.2949 H   0  0  0  0  0  0  0  0  0  0  0  0
   -5.2714   -0.0239    0.3058 H   0  0  0  0  0  0  0  0  0  0  0  0
   -4.5504    1.3295    1.1751 H   0  0  0  0  0  0  0  0  0  0  0  0
   -3.8179   -0.8447    2.1666 H   0  0  0  0  0  0  0  0  0  0  0  0
   -3.9886   -2.2268    0.0793 H   0  0  0  0  0  0  0  0  0  0  0  0
   -2.3922   -2.3875    0.8164 H   0  0  0  0  0  0  0  0  0  0  0  0
   -2.1935   -2.0125   -1.6528 H   0  0  0  0  0  0  0  0  0  0  0  0
   -2.9317    0.1425   -2.6399 H   0  0  0  0  0  0  0  0  0  0  0  0
   -4.3069   -0.7358   -1.9662 H   0  0  0  0  0  0  0  0  0  0  0  0
   -1.3537   -0.4412    2.0607 H   0  0  0  0  0  0  0  0  0  0  0  0
   -2.2231    1.0884    2.2097 H   0  0  0  0  0  0  0  0  0  0  0  0
    2.5795   -2.1955   -0.2985 H   0  0  0  0  0  0  0  0  0  0  0  0
  1  2  1  0
  2  3  1  0
  2  4  1  0
  4  5  2  0
  5  6  1  0
  6  7  2  0
  7  8  1  0
  8  9  2  0
  8 10  1  0
 10 11  1  0
 11 12  1  0
 12 13  1  0
 13 14  1  0
 14 15  1  0
 15 16  1  0
 16 17  1  0
 17 18  1  0
 15 19  1  0
  7 20  1  0
 20  4  1  0
 17 10  1  0
 19 11  1  0
 18 13  1  0
  1 21  1  0
  1 22  1  0
  1 23  1  0
  2 24  1  0
  3 25  1  0
  3 26  1  0
  3 27  1  0
 11 28  1  1
 12 29  1  0
 12 30  1  0
 13 31  1  6
 14 32  1  0
 14 33  1  0
 15 34  1  1
 16 35  1  0
 16 36  1  0
 17 37  1  6
 18 38  1  0
 18 39  1  0
 19 40  1  0
 19 41  1  0
 20 42  1  0
M  END
>  <_SMILES>  (34) 
CC(C)c1nnc(C(=O)N2[C@H]3C[C@@H]4C[C@@H](C[C@H]2C4)C3)[nH]1

$$$$

     RDKit          3D

 42 45  0  0  0  0  0  0  0  0999 V2000
   -4.0652   -1.5546    0.6027 C   0  0  0  0  0  0  0  0  0  0  0  0
   -4.3441   -0.1124    0.1806 C   0  0  0  0  0  0  0  0  0  0  0  0
   -4.6599    0.7548    1.3985 C   0  0  0  0  0  0  0  0  0  0  0  0
   -3.1820    0.4460   -0.5728 C   0  0  0  0  0  0  0  0  0  0  0  0
   -1.9430    0.5947   -0.1587 N   0  0  0  0  0  0  0  0  0  0  0  0
   -1.2829    1.1524   -1.2456 C   0  0  0  0  0  0  0  0  0  0  0  0
    0.1466    1.5577   -1.2362 C   0  0  0  0  0  0  0  0  0  0  0  0
    0.5554    2.4741   -1.9548 O   0  0  0  0  0  0  0  0  0  0  0  0
    1.0207    0.8930   -0.3505 N   0  0  0  0  0  0  0  0  0  0  0  0
    2.4137    1.3664   -0.2809 C   0  0  1  0  0  0  0  0  0  0  0  0
    2.9535    1.1470    1.1425 C   0  0  0  0  0  0  0  0  0  0  0  0
    2.8697   -0.3457    1.5026 C   0  0  2  0  0  0  0  0  0  0  0  0
    3.6997   -1.1608    0.4943 C   0  0  0  0  0  0  0  0  0  0  0  0
    3.1752   -0.9364   -0.9358 C   0  0  1  0  0  0  0  0  0  0  0  0
    1.6974   -1.3681   -1.0062 C   0  0  0  0  0  0  0  0  0  0  0  0
    0.8677   -0.5364   -0.0062 C   0  0  1  0  0  0  0  0  0  0  0  0
    1.3948   -0.7750    1.4179 C   0  0  0  0  0  0  0  0  0  0  0  0
    3.2647    0.5630   -1.2816 C   0  0  0  0  0  0  0  0  0  0  0  0
   -2.0932    1.3467   -2.3056 N   0  0  0  0  0  0  0  0  0  0  0  0
   -3.2717    0.9027   -1.8543 N   0  0  0  0  0  0  0  0  0  0  0  0
   -3.8554   -2.1841   -0.2695 H   0  0  0  0  0  0  0  0  0  0  0  0
   -4.9288   -1.9805    1.1244 H   0  0  0  0  0  0  0  0  0  0  0  0
   -3.2002   -1.6187    1.2730 H   0  0  0  0  0  0  0  0  0  0  0  0
   -5.2277   -0.1160   -0.4706 H   0  0  0  0  0  0  0  0  0  0  0  0
   -4.8786    1.7860    1.0989 H   0  0  0  0  0  0  0  0  0  0  0  0
   -3.8190    0.7852    2.1009 H   0  0  0  0  0  0  0  0  0  0  0  0
   -5.5334    0.3684    1.9344 H   0  0  0  0  0  0  0  0  0  0  0  0
    2.4639    2.4338   -0.5223 H   0  0  0  0  0  0  0  0  0  0  0  0
    3.9912    1.4951    1.2117 H   0  0  0  0  0  0  0  0  0  0  0  0
    2.3663    1.7346    1.8593 H   0  0  0  0  0  0  0  0  0  0  0  0
    3.2492   -0.5083    2.5172 H   0  0  0  0  0  0  0  0  0  0  0  0
    4.7546   -0.8663    0.5551 H   0  0  0  0  0  0  0  0  0  0  0  0
    3.6508   -2.2272    0.7466 H   0  0  0  0  0  0  0  0  0  0  0  0
    3.7693   -1.5199   -1.6475 H   0  0  0  0  0  0  0  0  0  0  0  0
    1.6054   -2.4365   -0.7765 H   0  0  0  0  0  0  0  0  0  0  0  0
    1.3169   -1.2216   -2.0247 H   0  0  0  0  0  0  0  0  0  0  0  0
   -0.1678   -0.8679   -0.0692 H   0  0  0  0  0  0  0  0  0  0  0  0
    0.7984   -0.2005    2.1375 H   0  0  0  0  0  0  0  0  0  0  0  0
    1.2945   -1.8337    1.6861 H   0  0  0  0  0  0  0  0  0  0  0  0
    4.3083    0.8978   -1.2463 H   0  0  0  0  0  0  0  0  0  0  0  0
    2.9056    0.7285   -2.3047 H   0  0  0  0  0  0  0  0  0  0  0  0
   -4.0808    0.9426   -2.4637 H   0  0  0  0  0  0  0  0  0  0  0  0
  1  2  1  0
  2  3  1  0
  2  4  1  0
  4  5  2  0
  5  6  1  0
  6  7  1  0
  7  8  2  0
  7  9  1  0
  9 10  1  0
 10 11  1  0
 11 12  1  0
 12 13  1  0
 13 14  1  0
 14 15  1  0
 15 16  1  0
 16 17  1  0
 14 18  1  0
  6 19  2  0
 19 20  1  0
 20  4  1  0
 16  9  1  0
 18 10  1  0
 17 12  1  0
  1 21  1  0
  1 22  1  0
  1 23  1  0
  2 24  1  0
  3 25  1  0
  3 26  1  0
  3 27  1  0
 10 28  1  6
 11 29  1  0
 11 30  1  0
 12 31  1  1
 13 32  1  0
 13 33  1  0
 14 34  1  6
 15 35  1  0
 15 36  1  0
 16 37  1  1
 17 38  1  0
 17 39  1  0
 18 40  1  0
 18 41  1  0
 20 42  1  0
M  END
>  <_SMILES>  (35) 
CC(C)c1nc(C(=O)N2[C@H]3C[C@@H]4C[C@@H](C[C@H]2C4)C3)n[nH]1

$$$$

     RDKit          3D

 42 45  0  0  0  0  0  0  0  0999 V2000
    5.3392    0.9055   -0.0215 C   0  0  0  0  0  0  0  0  0  0  0  0
    4.1801    0.2937    0.7663 C   0  0  0  0  0  0  0  0  0  0  0  0
    4.6994   -0.6950    1.8109 C   0  0  0  0  0  0  0  0  0  0  0  0
    3.1677   -0.3356   -0.1356 C   0  0  0  0  0  0  0  0  0  0  0  0
    3.4416   -1.3620   -0.9503 N   0  0  0  0  0  0  0  0  0  0  0  0
    2.2531   -1.5532   -1.5452 N   0  0  0  0  0  0  0  0  0  0  0  0
    1.3022   -0.6932   -1.0729 C   0  0  0  0  0  0  0  0  0  0  0  0
   -0.0560   -0.6918   -1.5788 C   0  0  0  0  0  0  0  0  0  0  0  0
   -0.3289   -1.3737   -2.5708 O   0  0  0  0  0  0  0  0  0  0  0  0
   -1.0426    0.0949   -0.9615 N   0  0  0  0  0  0  0  0  0  0  0  0
   -2.3955    0.0827   -1.5507 C   0  0  1  0  0  0  0  0  0  0  0  0
   -3.2404   -0.9809   -0.8254 C   0  0  0  0  0  0  0  0  0  0  0  0
   -3.3008   -0.6438    0.6775 C   0  0  2  0  0  0  0  0  0  0  0  0
   -3.9398    0.7450    0.8607 C   0  0  0  0  0  0  0  0  0  0  0  0
   -3.1158    1.8148    0.1216 C   0  0  1  0  0  0  0  0  0  0  0  0
   -1.6805    1.8271    0.6720 C   0  0  0  0  0  0  0  0  0  0  0  0
   -1.0374    0.4438    0.4771 C   0  0  1  0  0  0  0  0  0  0  0  0
   -1.8633   -0.6169    1.2332 C   0  0  0  0  0  0  0  0  0  0  0  0
   -3.0466    1.4643   -1.3731 C   0  0  0  0  0  0  0  0  0  0  0  0
    1.8693    0.1053   -0.1881 N   0  0  0  0  0  0  0  0  0  0  0  0
    6.0335    1.4236    0.6487 H   0  0  0  0  0  0  0  0  0  0  0  0
    4.9728    1.6334   -0.7542 H   0  0  0  0  0  0  0  0  0  0  0  0
    5.9045    0.1414   -0.5669 H   0  0  0  0  0  0  0  0  0  0  0  0
    3.6832    1.1106    1.3063 H   0  0  0  0  0  0  0  0  0  0  0  0
    5.3856   -0.2002    2.5066 H   0  0  0  0  0  0  0  0  0  0  0  0
    5.2357   -1.5296    1.3452 H   0  0  0  0  0  0  0  0  0  0  0  0
    3.8736   -1.1160    2.3954 H   0  0  0  0  0  0  0  0  0  0  0  0
    2.1435   -2.2668   -2.2575 H   0  0  0  0  0  0  0  0  0  0  0  0
   -2.3445   -0.1507   -2.6196 H   0  0  0  0  0  0  0  0  0  0  0  0
   -4.2523   -1.0136   -1.2468 H   0  0  0  0  0  0  0  0  0  0  0  0
   -2.7990   -1.9755   -0.9640 H   0  0  0  0  0  0  0  0  0  0  0  0
   -3.8917   -1.3996    1.2063 H   0  0  0  0  0  0  0  0  0  0  0  0
   -3.9984    0.9909    1.9280 H   0  0  0  0  0  0  0  0  0  0  0  0
   -4.9678    0.7359    0.4781 H   0  0  0  0  0  0  0  0  0  0  0  0
   -3.5765    2.7997    0.2548 H   0  0  0  0  0  0  0  0  0  0  0  0
   -1.6876    2.0938    1.7357 H   0  0  0  0  0  0  0  0  0  0  0  0
   -1.0886    2.5899    0.1509 H   0  0  0  0  0  0  0  0  0  0  0  0
   -0.0358    0.4597    0.8988 H   0  0  0  0  0  0  0  0  0  0  0  0
   -1.4026   -1.6058    1.1173 H   0  0  0  0  0  0  0  0  0  0  0  0
   -1.8783   -0.3899    2.3060 H   0  0  0  0  0  0  0  0  0  0  0  0
   -4.0531    1.4670   -1.8088 H   0  0  0  0  0  0  0  0  0  0  0  0
   -2.4613    2.2241   -1.9059 H   0  0  0  0  0  0  0  0  0  0  0  0
  1  2  1  0
  2  3  1  0
  2  4  1  0
  4  5  2  0
  5  6  1  0
  6  7  1  0
  7  8  1  0
  8  9  2  0
  8 10  1  0
 10 11  1  0
 11 12  1  0
 12 13  1  0
 13 14  1  0
 14 15  1  0
 15 16  1  0
 16 17  1  0
 17 18  1  0
 15 19  1  0
  7 20  2  0
 20  4  1  0
 17 10  1  0
 19 11  1  0
 18 13  1  0
  1 21  1  0
  1 22  1  0
  1 23  1  0
  2 24  1  0
  3 25  1  0
  3 26  1  0
  3 27  1  0
  6 28  1  0
 11 29  1  6
 12 30  1  0
 12 31  1  0
 13 32  1  1
 14 33  1  0
 14 34  1  0
 15 35  1  6
 16 36  1  0
 16 37  1  0
 17 38  1  1
 18 39  1  0
 18 40  1  0
 19 41  1  0
 19 42  1  0
M  END
>  <_SMILES>  (36) 
CC(C)c1n[nH]c(C(=O)N2[C@H]3C[C@@H]4C[C@@H](C[C@H]2C4)C3)n1

$$$$

     RDKit          3D

 48 52  0  0  0  0  0  0  0  0999 V2000
   -0.5308   -1.3116    1.7350 O   0  0  0  0  0  0  0  0  0  0  0  0
   -0.7676   -0.3339    1.0182 C   0  0  0  0  0  0  0  0  0  0  0  0
    0.3127    0.4683    0.4627 C   0  0  0  0  0  0  0  0  0  0  0  0
    0.2657    1.7006   -0.0079 N   0  0  0  0  0  0  0  0  0  0  0  0
    1.5507    2.0339   -0.3821 N   0  0  0  0  0  0  0  0  0  0  0  0
    2.3016    0.9932   -0.0920 C   0  0  0  0  0  0  0  0  0  0  0  0
    3.7678    0.8094   -0.2747 C   0  0  0  0  0  0  0  0  0  0  0  0
    4.4632    0.4490    1.0415 C   0  0  0  0  0  0  0  0  0  0  0  0
    5.9851    0.3934    0.8829 C   0  0  0  0  0  0  0  0  0  0  0  0
    6.4408   -0.0200   -0.5176 C   0  0  0  0  0  0  0  0  0  0  0  0
    5.4229   -0.9211   -1.2023 C   0  0  0  0  0  0  0  0  0  0  0  0
    4.0673   -0.2290   -1.3713 C   0  0  0  0  0  0  0  0  0  0  0  0
    1.5901   -0.0420    0.4499 O   0  0  0  0  0  0  0  0  0  0  0  0
   -2.1071    0.0314    0.7564 N   0  0  0  0  0  0  0  0  0  0  0  0
   -2.5397    0.6771   -0.5038 C   0  0  1  0  0  0  0  0  0  0  0  0
   -2.9576   -0.4286   -1.4947 C   0  0  0  0  0  0  0  0  0  0  0  0
   -4.0990   -1.2648   -0.8836 C   0  0  2  0  0  0  0  0  0  0  0  0
   -5.2980   -0.3449   -0.5891 C   0  0  0  0  0  0  0  0  0  0  0  0
   -4.8884    0.7711    0.3889 C   0  0  1  0  0  0  0  0  0  0  0  0
   -4.3781    0.1426    1.6957 C   0  0  0  0  0  0  0  0  0  0  0  0
   -3.1723   -0.7640    1.3974 C   0  0  1  0  0  0  0  0  0  0  0  0
   -3.5999   -1.8875    0.4351 C   0  0  0  0  0  0  0  0  0  0  0  0
   -3.7418    1.5932   -0.2225 C   0  0  0  0  0  0  0  0  0  0  0  0
    4.1740    1.7752   -0.6076 H   0  0  0  0  0  0  0  0  0  0  0  0
    4.2072    1.1668    1.8309 H   0  0  0  0  0  0  0  0  0  0  0  0
    4.1058   -0.5282    1.3939 H   0  0  0  0  0  0  0  0  0  0  0  0
    6.3895   -0.3048    1.6259 H   0  0  0  0  0  0  0  0  0  0  0  0
    6.4187    1.3730    1.1180 H   0  0  0  0  0  0  0  0  0  0  0  0
    6.5943    0.8779   -1.1295 H   0  0  0  0  0  0  0  0  0  0  0  0
    7.4124   -0.5229   -0.4542 H   0  0  0  0  0  0  0  0  0  0  0  0
    5.2923   -1.8331   -0.6060 H   0  0  0  0  0  0  0  0  0  0  0  0
    5.7964   -1.2401   -2.1820 H   0  0  0  0  0  0  0  0  0  0  0  0
    4.0375    0.2774   -2.3453 H   0  0  0  0  0  0  0  0  0  0  0  0
    3.2906   -1.0032   -1.4186 H   0  0  0  0  0  0  0  0  0  0  0  0
   -1.7439    1.2614   -0.9616 H   0  0  0  0  0  0  0  0  0  0  0  0
   -3.2826    0.0169   -2.4427 H   0  0  0  0  0  0  0  0  0  0  0  0
   -2.1016   -1.0775   -1.7180 H   0  0  0  0  0  0  0  0  0  0  0  0
   -4.3973   -2.0557   -1.5805 H   0  0  0  0  0  0  0  0  0  0  0  0
   -6.1216   -0.9306   -0.1628 H   0  0  0  0  0  0  0  0  0  0  0  0
   -5.6689    0.0952   -1.5229 H   0  0  0  0  0  0  0  0  0  0  0  0
   -5.7461    1.4206    0.5953 H   0  0  0  0  0  0  0  0  0  0  0  0
   -5.1775   -0.4363    2.1739 H   0  0  0  0  0  0  0  0  0  0  0  0
   -4.0861    0.9331    2.3983 H   0  0  0  0  0  0  0  0  0  0  0  0
   -2.8115   -1.1965    2.3369 H   0  0  0  0  0  0  0  0  0  0  0  0
   -2.7543   -2.5559    0.2316 H   0  0  0  0  0  0  0  0  0  0  0  0
   -4.3913   -2.4953    0.8899 H   0  0  0  0  0  0  0  0  0  0  0  0
   -3.4475    2.3927    0.4689 H   0  0  0  0  0  0  0  0  0  0  0  0
   -4.0759    2.0739   -1.1499 H   0  0  0  0  0  0  0  0  0  0  0  0
  1  2  2  0
  2  3  1  0
  3  4  2  0
  4  5  1  0
  5  6  2  0
  6  7  1  0
  7  8  1  0
  8  9  1  0
  9 10  1  0
 10 11  1  0
 11 12  1  0
  6 13  1  0
  2 14  1  0
 14 15  1  0
 15 16  1  0
 16 17  1  0
 17 18  1  0
 18 19  1  0
 19 20  1  0
 20 21  1  0
 21 22  1  0
 19 23  1  0
 13  3  1  0
 21 14  1  0
 12  7  1  0
 23 15  1  0
 22 17  1  0
  7 24  1  0
  8 25  1  0
  8 26  1  0
  9 27  1  0
  9 28  1  0
 10 29  1  0
 10 30  1  0
 11 31  1  0
 11 32  1  0
 12 33  1  0
 12 34  1  0
 15 35  1  6
 16 36  1  0
 16 37  1  0
 17 38  1  6
 18 39  1  0
 18 40  1  0
 19 41  1  1
 20 42  1  0
 20 43  1  0
 21 44  1  1
 22 45  1  0
 22 46  1  0
 23 47  1  0
 23 48  1  0
M  END
>  <_SMILES>  (37) 
O=C(c1nnc(C2CCCCC2)o1)N1[C@H]2C[C@@H]3C[C@@H](C[C@H]1C3)C2

$$$$

     RDKit          3D

 45 48  0  0  0  0  0  0  0  0999 V2000
    5.8070   -0.8987    1.7189 C   0  0  0  0  0  0  0  0  0  0  0  0
    4.8684    0.1690    1.1784 C   0  0  0  0  0  0  0  0  0  0  0  0
    5.1176    0.4298   -0.3097 C   0  0  0  0  0  0  0  0  0  0  0  0
    4.2450    1.5530   -0.8744 C   0  0  0  0  0  0  0  0  0  0  0  0
    2.8097    1.1766   -0.9502 C   0  0  0  0  0  0  0  0  0  0  0  0
    2.2423    0.3407   -1.7923 N   0  0  0  0  0  0  0  0  0  0  0  0
    0.8956    0.3046   -1.5115 N   0  0  0  0  0  0  0  0  0  0  0  0
    0.6641    1.0938   -0.4818 C   0  0  0  0  0  0  0  0  0  0  0  0
   -0.5997    1.3987    0.1589 C   0  0  0  0  0  0  0  0  0  0  0  0
   -0.6590    2.3479    0.9466 O   0  0  0  0  0  0  0  0  0  0  0  0
   -1.7445    0.6378   -0.1274 N   0  0  0  0  0  0  0  0  0  0  0  0
   -3.0100    1.0324    0.5204 C   0  0  1  0  0  0  0  0  0  0  0  0
   -4.1852    0.7428   -0.4280 C   0  0  0  0  0  0  0  0  0  0  0  0
   -4.2075   -0.7528   -0.7815 C   0  0  2  0  0  0  0  0  0  0  0  0
   -4.3542   -1.5812    0.5076 C   0  0  0  0  0  0  0  0  0  0  0  0
   -3.1873   -1.2875    1.4682 C   0  0  1  0  0  0  0  0  0  0  0  0
   -1.8578   -1.6379    0.7715 C   0  0  0  0  0  0  0  0  0  0  0  0
   -1.7076   -0.7925   -0.5099 C   0  0  1  0  0  0  0  0  0  0  0  0
   -2.8740   -1.0983   -1.4640 C   0  0  0  0  0  0  0  0  0  0  0  0
   -3.1795    0.2145    1.8140 C   0  0  0  0  0  0  0  0  0  0  0  0
    1.8491    1.6830   -0.1214 N   0  0  0  0  0  0  0  0  0  0  0  0
    6.8527   -0.5940    1.6098 H   0  0  0  0  0  0  0  0  0  0  0  0
    5.6129   -1.0708    2.7822 H   0  0  0  0  0  0  0  0  0  0  0  0
    5.6678   -1.8471    1.1902 H   0  0  0  0  0  0  0  0  0  0  0  0
    5.0120    1.0947    1.7476 H   0  0  0  0  0  0  0  0  0  0  0  0
    3.8348   -0.1561    1.3407 H   0  0  0  0  0  0  0  0  0  0  0  0
    4.9569   -0.4951   -0.8781 H   0  0  0  0  0  0  0  0  0  0  0  0
    6.1695    0.7091   -0.4493 H   0  0  0  0  0  0  0  0  0  0  0  0
    4.5898    1.7908   -1.8881 H   0  0  0  0  0  0  0  0  0  0  0  0
    4.3742    2.4646   -0.2786 H   0  0  0  0  0  0  0  0  0  0  0  0
   -3.0001    2.1019    0.7571 H   0  0  0  0  0  0  0  0  0  0  0  0
   -4.0822    1.3391   -1.3431 H   0  0  0  0  0  0  0  0  0  0  0  0
   -5.1319    1.0338    0.0430 H   0  0  0  0  0  0  0  0  0  0  0  0
   -5.0413   -0.9653   -1.4594 H   0  0  0  0  0  0  0  0  0  0  0  0
   -5.3076   -1.3453    0.9960 H   0  0  0  0  0  0  0  0  0  0  0  0
   -4.3763   -2.6503    0.2634 H   0  0  0  0  0  0  0  0  0  0  0  0
   -3.2977   -1.8806    2.3825 H   0  0  0  0  0  0  0  0  0  0  0  0
   -1.0199   -1.4421    1.4521 H   0  0  0  0  0  0  0  0  0  0  0  0
   -1.8320   -2.7061    0.5245 H   0  0  0  0  0  0  0  0  0  0  0  0
   -0.7742   -1.0705   -0.9928 H   0  0  0  0  0  0  0  0  0  0  0  0
   -2.8608   -2.1571   -1.7497 H   0  0  0  0  0  0  0  0  0  0  0  0
   -2.7649   -0.5129   -2.3855 H   0  0  0  0  0  0  0  0  0  0  0  0
   -4.1131    0.4915    2.3182 H   0  0  0  0  0  0  0  0  0  0  0  0
   -2.3590    0.4298    2.5094 H   0  0  0  0  0  0  0  0  0  0  0  0
    1.9581    2.3622    0.6182 H   0  0  0  0  0  0  0  0  0  0  0  0
  1  2  1  0
  2  3  1  0
  3  4  1  0
  4  5  1  0
  5  6  2  0
  6  7  1  0
  7  8  2  0
  8  9  1  0
  9 10  2  0
  9 11  1  0
 11 12  1  0
 12 13  1  0
 13 14  1  0
 14 15  1  0
 15 16  1  0
 16 17  1  0
 17 18  1  0
 18 19  1  0
 16 20  1  0
  8 21  1  0
 21  5  1  0
 18 11  1  0
 20 12  1  0
 19 14  1  0
  1 22  1  0
  1 23  1  0
  1 24  1  0
  2 25  1  0
  2 26  1  0
  3 27  1  0
  3 28  1  0
  4 29  1  0
  4 30  1  0
 12 31  1  1
 13 32  1  0
 13 33  1  0
 14 34  1  6
 15 35  1  0
 15 36  1  0
 16 37  1  1
 17 38  1  0
 17 39  1  0
 18 40  1  6
 19 41  1  0
 19 42  1  0
 20 43  1  0
 20 44  1  0
 21 45  1  0
M  END
>  <_SMILES>  (38) 
CCCCc1nnc(C(=O)N2[C@H]3C[C@@H]4C[C@@H](C[C@H]2C4)C3)[nH]1

$$$$

     RDKit          3D

 45 48  0  0  0  0  0  0  0  0999 V2000
    5.3852   -1.7398   -1.3956 C   0  0  0  0  0  0  0  0  0  0  0  0
    5.4244   -0.6359   -0.3503 C   0  0  0  0  0  0  0  0  0  0  0  0
    4.0658    0.0258   -0.1103 C   0  0  0  0  0  0  0  0  0  0  0  0
    3.5431    0.7938   -1.3259 C   0  0  0  0  0  0  0  0  0  0  0  0
    2.2712    1.4946   -1.0087 C   0  0  0  0  0  0  0  0  0  0  0  0
    1.0543    0.9990   -1.0189 N   0  0  0  0  0  0  0  0  0  0  0  0
    0.2481    2.0666   -0.6452 C   0  0  0  0  0  0  0  0  0  0  0  0
   -1.2346    2.0067   -0.5682 C   0  0  0  0  0  0  0  0  0  0  0  0
   -1.9250    3.0121   -0.7576 O   0  0  0  0  0  0  0  0  0  0  0  0
   -1.8375    0.7572   -0.3121 N   0  0  0  0  0  0  0  0  0  0  0  0
   -1.2140   -0.2624    0.5577 C   0  0  1  0  0  0  0  0  0  0  0  0
   -1.7107   -0.0385    2.0011 C   0  0  0  0  0  0  0  0  0  0  0  0
   -3.2478   -0.1421    2.0401 C   0  0  2  0  0  0  0  0  0  0  0  0
   -3.6728   -1.5387    1.5506 C   0  0  0  0  0  0  0  0  0  0  0  0
   -3.1703   -1.7783    0.1154 C   0  0  1  0  0  0  0  0  0  0  0  0
   -3.7499   -0.6991   -0.8142 C   0  0  0  0  0  0  0  0  0  0  0  0
   -3.3089    0.6922   -0.3289 C   0  0  1  0  0  0  0  0  0  0  0  0
   -3.8353    0.9278    1.0989 C   0  0  0  0  0  0  0  0  0  0  0  0
   -1.6367   -1.6622    0.0834 C   0  0  0  0  0  0  0  0  0  0  0  0
    0.9492    3.1948   -0.4120 N   0  0  0  0  0  0  0  0  0  0  0  0
    2.2073    2.8086   -0.6526 N   0  0  0  0  0  0  0  0  0  0  0  0
    6.3587   -2.2374   -1.4526 H   0  0  0  0  0  0  0  0  0  0  0  0
    5.1579   -1.3435   -2.3895 H   0  0  0  0  0  0  0  0  0  0  0  0
    4.6336   -2.4942   -1.1426 H   0  0  0  0  0  0  0  0  0  0  0  0
    6.1611    0.1204   -0.6453 H   0  0  0  0  0  0  0  0  0  0  0  0
    5.7733   -1.0654    0.5965 H   0  0  0  0  0  0  0  0  0  0  0  0
    3.3350   -0.7344    0.1947 H   0  0  0  0  0  0  0  0  0  0  0  0
    4.1657    0.7144    0.7390 H   0  0  0  0  0  0  0  0  0  0  0  0
    4.2949    1.5165   -1.6651 H   0  0  0  0  0  0  0  0  0  0  0  0
    3.3600    0.1072   -2.1599 H   0  0  0  0  0  0  0  0  0  0  0  0
   -0.1270   -0.1940    0.5602 H   0  0  0  0  0  0  0  0  0  0  0  0
   -1.2654   -0.7819    2.6732 H   0  0  0  0  0  0  0  0  0  0  0  0
   -1.3970    0.9503    2.3582 H   0  0  0  0  0  0  0  0  0  0  0  0
   -3.6076    0.0212    3.0618 H   0  0  0  0  0  0  0  0  0  0  0  0
   -4.7656   -1.6286    1.5831 H   0  0  0  0  0  0  0  0  0  0  0  0
   -3.2690   -2.3077    2.2205 H   0  0  0  0  0  0  0  0  0  0  0  0
   -3.4776   -2.7724   -0.2273 H   0  0  0  0  0  0  0  0  0  0  0  0
   -4.8445   -0.7641   -0.8329 H   0  0  0  0  0  0  0  0  0  0  0  0
   -3.3980   -0.8656   -1.8400 H   0  0  0  0  0  0  0  0  0  0  0  0
   -3.7144    1.4525   -1.0054 H   0  0  0  0  0  0  0  0  0  0  0  0
   -4.9309    0.8824    1.1113 H   0  0  0  0  0  0  0  0  0  0  0  0
   -3.5483    1.9266    1.4498 H   0  0  0  0  0  0  0  0  0  0  0  0
   -1.2718   -1.8363   -0.9365 H   0  0  0  0  0  0  0  0  0  0  0  0
   -1.1871   -2.4305    0.7239 H   0  0  0  0  0  0  0  0  0  0  0  0
    2.9584    3.4826   -0.5568 H   0  0  0  0  0  0  0  0  0  0  0  0
  1  2  1  0
  2  3  1  0
  3  4  1  0
  4  5  1  0
  5  6  2  0
  6  7  1  0
  7  8  1  0
  8  9  2  0
  8 10  1  0
 10 11  1  0
 11 12  1  0
 12 13  1  0
 13 14  1  0
 14 15  1  0
 15 16  1  0
 16 17  1  0
 17 18  1  0
 15 19  1  0
  7 20  2  0
 20 21  1  0
 21  5  1  0
 17 10  1  0
 19 11  1  0
 18 13  1  0
  1 22  1  0
  1 23  1  0
  1 24  1  0
  2 25  1  0
  2 26  1  0
  3 27  1  0
  3 28  1  0
  4 29  1  0
  4 30  1  0
 11 31  1  1
 12 32  1  0
 12 33  1  0
 13 34  1  1
 14 35  1  0
 14 36  1  0
 15 37  1  6
 16 38  1  0
 16 39  1  0
 17 40  1  6
 18 41  1  0
 18 42  1  0
 19 43  1  0
 19 44  1  0
 21 45  1  0
M  END
>  <_SMILES>  (39) 
CCCCc1nc(C(=O)N2[C@H]3C[C@@H]4C[C@@H](C[C@H]2C4)C3)n[nH]1

$$$$

     RDKit          3D

 45 48  0  0  0  0  0  0  0  0999 V2000
   -6.2043    1.1318    1.6205 C   0  0  0  0  0  0  0  0  0  0  0  0
   -5.8700    0.2005    0.4662 C   0  0  0  0  0  0  0  0  0  0  0  0
   -4.3706   -0.0868    0.3946 C   0  0  0  0  0  0  0  0  0  0  0  0
   -4.0376   -1.0235   -0.7678 C   0  0  0  0  0  0  0  0  0  0  0  0
   -2.5818   -1.3049   -0.8551 C   0  0  0  0  0  0  0  0  0  0  0  0
   -2.0088   -2.3658   -0.2721 N   0  0  0  0  0  0  0  0  0  0  0  0
   -0.7268   -2.2073   -0.6380 N   0  0  0  0  0  0  0  0  0  0  0  0
   -0.5461   -1.0654   -1.3619 C   0  0  0  0  0  0  0  0  0  0  0  0
    0.7185   -0.6103   -1.8944 C   0  0  0  0  0  0  0  0  0  0  0  0
    0.8677   -0.3310   -3.0832 O   0  0  0  0  0  0  0  0  0  0  0  0
    1.8029   -0.5682   -0.9932 N   0  0  0  0  0  0  0  0  0  0  0  0
    3.1154   -0.1698   -1.5400 C   0  0  1  0  0  0  0  0  0  0  0  0
    3.2417    1.3643   -1.4770 C   0  0  0  0  0  0  0  0  0  0  0  0
    3.0941    1.8279   -0.0144 C   0  0  2  0  0  0  0  0  0  0  0  0
    4.2002    1.1784    0.8373 C   0  0  0  0  0  0  0  0  0  0  0  0
    4.0985   -0.3560    0.7663 C   0  0  1  0  0  0  0  0  0  0  0  0
    2.7191   -0.8013    1.2803 C   0  0  0  0  0  0  0  0  0  0  0  0
    1.6163   -0.1633    0.4203 C   0  0  1  0  0  0  0  0  0  0  0  0
    1.7177    1.3724    0.5091 C   0  0  0  0  0  0  0  0  0  0  0  0
    4.2313   -0.8096   -0.6971 C   0  0  0  0  0  0  0  0  0  0  0  0
   -1.7182   -0.4842   -1.5329 N   0  0  0  0  0  0  0  0  0  0  0  0
   -7.2814    1.3237    1.6530 H   0  0  0  0  0  0  0  0  0  0  0  0
   -5.6912    2.0925    1.5108 H   0  0  0  0  0  0  0  0  0  0  0  0
   -5.9087    0.6914    2.5781 H   0  0  0  0  0  0  0  0  0  0  0  0
   -6.2072    0.6558   -0.4723 H   0  0  0  0  0  0  0  0  0  0  0  0
   -6.4235   -0.7377    0.5893 H   0  0  0  0  0  0  0  0  0  0  0  0
   -4.0357   -0.5342    1.3392 H   0  0  0  0  0  0  0  0  0  0  0  0
   -3.8200    0.8559    0.2806 H   0  0  0  0  0  0  0  0  0  0  0  0
   -4.5888   -1.9654   -0.6565 H   0  0  0  0  0  0  0  0  0  0  0  0
   -4.3699   -0.5747   -1.7119 H   0  0  0  0  0  0  0  0  0  0  0  0
   -0.0351   -2.8954   -0.3649 H   0  0  0  0  0  0  0  0  0  0  0  0
    3.2083   -0.5098   -2.5774 H   0  0  0  0  0  0  0  0  0  0  0  0
    2.4674    1.8367   -2.0937 H   0  0  0  0  0  0  0  0  0  0  0  0
    4.2119    1.6810   -1.8781 H   0  0  0  0  0  0  0  0  0  0  0  0
    3.1724    2.9191    0.0411 H   0  0  0  0  0  0  0  0  0  0  0  0
    4.1122    1.5103    1.8791 H   0  0  0  0  0  0  0  0  0  0  0  0
    5.1851    1.5038    0.4805 H   0  0  0  0  0  0  0  0  0  0  0  0
    4.8889   -0.8115    1.3728 H   0  0  0  0  0  0  0  0  0  0  0  0
    2.6412   -1.8948    1.2357 H   0  0  0  0  0  0  0  0  0  0  0  0
    2.5958   -0.5103    2.3304 H   0  0  0  0  0  0  0  0  0  0  0  0
    0.6395   -0.4741    0.7974 H   0  0  0  0  0  0  0  0  0  0  0  0
    1.5814    1.7004    1.5467 H   0  0  0  0  0  0  0  0  0  0  0  0
    0.9224    1.8390   -0.0852 H   0  0  0  0  0  0  0  0  0  0  0  0
    5.2141   -0.5265   -1.0929 H   0  0  0  0  0  0  0  0  0  0  0  0
    4.1620   -1.9031   -0.7540 H   0  0  0  0  0  0  0  0  0  0  0  0
  1  2  1  0
  2  3  1  0
  3  4  1  0
  4  5  1  0
  5  6  2  0
  6  7  1  0
  7  8  1  0
  8  9  1  0
  9 10  2  0
  9 11  1  0
 11 12  1  0
 12 13  1  0
 13 14  1  0
 14 15  1  0
 15 16  1  0
 16 17  1  0
 17 18  1  0
 18 19  1  0
 16 20  1  0
  8 21  2  0
 21  5  1  0
 18 11  1  0
 20 12  1  0
 19 14  1  0
  1 22  1  0
  1 23  1  0
  1 24  1  0
  2 25  1  0
  2 26  1  0
  3 27  1  0
  3 28  1  0
  4 29  1  0
  4 30  1  0
  7 31  1  0
 12 32  1  6
 13 33  1  0
 13 34  1  0
 14 35  1  6
 15 36  1  0
 15 37  1  0
 16 38  1  1
 17 39  1  0
 17 40  1  0
 18 41  1  1
 19 42  1  0
 19 43  1  0
 20 44  1  0
 20 45  1  0
M  END
>  <_SMILES>  (40) 
CCCCc1n[nH]c(C(=O)N2[C@H]3C[C@@H]4C[C@@H](C[C@H]2C4)C3)n1

$$$$

     RDKit          3D

 48 51  0  0  0  0  0  0  0  0999 V2000
    6.7767   -1.4463    0.7791 C   0  0  0  0  0  0  0  0  0  0  0  0
    6.7847   -0.2428   -0.1503 C   0  0  0  0  0  0  0  0  0  0  0  0
    5.9358    0.9263    0.3549 C   0  0  0  0  0  0  0  0  0  0  0  0
    4.4488    0.6252    0.5662 C   0  0  0  0  0  0  0  0  0  0  0  0
    3.7313    0.1808   -0.7094 C   0  0  0  0  0  0  0  0  0  0  0  0
    2.2745    0.0070   -0.4732 C   0  0  0  0  0  0  0  0  0  0  0  0
    1.6535   -1.0704   -0.0456 N   0  0  0  0  0  0  0  0  0  0  0  0
    0.3090   -0.7862    0.0190 N   0  0  0  0  0  0  0  0  0  0  0  0
    0.1275    0.4663   -0.3475 C   0  0  0  0  0  0  0  0  0  0  0  0
   -1.1092    1.2139   -0.4734 C   0  0  0  0  0  0  0  0  0  0  0  0
   -1.0831    2.3044   -1.0536 O   0  0  0  0  0  0  0  0  0  0  0  0
   -2.3175    0.7274    0.0528 N   0  0  0  0  0  0  0  0  0  0  0  0
   -2.5072   -0.5896    0.6995 C   0  0  1  0  0  0  0  0  0  0  0  0
   -3.5498   -0.4695    1.8274 C   0  0  0  0  0  0  0  0  0  0  0  0
   -4.8781    0.0500    1.2606 C   0  0  2  0  0  0  0  0  0  0  0  0
   -5.3847   -0.9174    0.1760 C   0  0  0  0  0  0  0  0  0  0  0  0
   -4.3458   -1.0462   -0.9531 C   0  0  1  0  0  0  0  0  0  0  0  0
   -4.0991    0.3470   -1.5688 C   0  0  0  0  0  0  0  0  0  0  0  0
   -3.5691    1.3010   -0.4797 C   0  0  1  0  0  0  0  0  0  0  0  0
   -4.6125    1.4298    0.6406 C   0  0  0  0  0  0  0  0  0  0  0  0
   -3.0193   -1.5754   -0.3658 C   0  0  0  0  0  0  0  0  0  0  0  0
    1.3506    0.9906   -0.6837 N   0  0  0  0  0  0  0  0  0  0  0  0
    7.0778   -1.1625    1.7924 H   0  0  0  0  0  0  0  0  0  0  0  0
    7.4782   -2.2048    0.4173 H   0  0  0  0  0  0  0  0  0  0  0  0
    5.7863   -1.9084    0.8280 H   0  0  0  0  0  0  0  0  0  0  0  0
    6.4567   -0.5494   -1.1494 H   0  0  0  0  0  0  0  0  0  0  0  0
    7.8189    0.1057   -0.2594 H   0  0  0  0  0  0  0  0  0  0  0  0
    6.3541    1.2830    1.3044 H   0  0  0  0  0  0  0  0  0  0  0  0
    6.0324    1.7575   -0.3548 H   0  0  0  0  0  0  0  0  0  0  0  0
    3.9716    1.5357    0.9527 H   0  0  0  0  0  0  0  0  0  0  0  0
    4.3257   -0.1320    1.3502 H   0  0  0  0  0  0  0  0  0  0  0  0
    4.1399   -0.7722   -1.0635 H   0  0  0  0  0  0  0  0  0  0  0  0
    3.8944    0.9153   -1.5073 H   0  0  0  0  0  0  0  0  0  0  0  0
   -1.5864   -0.9503    1.1540 H   0  0  0  0  0  0  0  0  0  0  0  0
   -3.6999   -1.4447    2.3064 H   0  0  0  0  0  0  0  0  0  0  0  0
   -3.1826    0.2166    2.6010 H   0  0  0  0  0  0  0  0  0  0  0  0
   -5.6203    0.1356    2.0617 H   0  0  0  0  0  0  0  0  0  0  0  0
   -5.5806   -1.9025    0.6167 H   0  0  0  0  0  0  0  0  0  0  0  0
   -6.3363   -0.5549   -0.2318 H   0  0  0  0  0  0  0  0  0  0  0  0
   -4.7135   -1.7343   -1.7221 H   0  0  0  0  0  0  0  0  0  0  0  0
   -3.3720    0.2659   -2.3864 H   0  0  0  0  0  0  0  0  0  0  0  0
   -5.0282    0.7407   -1.9984 H   0  0  0  0  0  0  0  0  0  0  0  0
   -3.3931    2.2888   -0.9177 H   0  0  0  0  0  0  0  0  0  0  0  0
   -4.2491    2.1209    1.4114 H   0  0  0  0  0  0  0  0  0  0  0  0
   -5.5442    1.8499    0.2428 H   0  0  0  0  0  0  0  0  0  0  0  0
   -3.1713   -2.5672    0.0765 H   0  0  0  0  0  0  0  0  0  0  0  0
   -2.2798   -1.6869   -1.1680 H   0  0  0  0  0  0  0  0  0  0  0  0
    1.5043    1.9285   -1.0258 H   0  0  0  0  0  0  0  0  0  0  0  0
  1  2  1  0
  2  3  1  0
  3  4  1  0
  4  5  1  0
  5  6  1  0
  6  7  2  0
  7  8  1  0
  8  9  2  0
  9 10  1  0
 10 11  2  0
 10 12  1  0
 12 13  1  0
 13 14  1  0
 14 15  1  0
 15 16  1  0
 16 17  1  0
 17 18  1  0
 18 19  1  0
 19 20  1  0
 17 21  1  0
  9 22  1  0
 22  6  1  0
 19 12  1  0
 21 13  1  0
 20 15  1  0
  1 23  1  0
  1 24  1  0
  1 25  1  0
  2 26  1  0
  2 27  1  0
  3 28  1  0
  3 29  1  0
  4 30  1  0
  4 31  1  0
  5 32  1  0
  5 33  1  0
 13 34  1  1
 14 35  1  0
 14 36  1  0
 15 37  1  1
 16 38  1  0
 16 39  1  0
 17 40  1  6
 18 41  1  0
 18 42  1  0
 19 43  1  6
 20 44  1  0
 20 45  1  0
 21 46  1  0
 21 47  1  0
 22 48  1  0
M  END
>  <_SMILES>  (41) 
CCCCCc1nnc(C(=O)N2[C@H]3C[C@@H]4C[C@@H](C[C@H]2C4)C3)[nH]1

$$$$

     RDKit          3D

 48 51  0  0  0  0  0  0  0  0999 V2000
    6.2070    1.7180   -0.3971 C   0  0  0  0  0  0  0  0  0  0  0  0
    6.4888    0.2464   -0.6562 C   0  0  0  0  0  0  0  0  0  0  0  0
    5.5223   -0.3953   -1.6546 C   0  0  0  0  0  0  0  0  0  0  0  0
    4.0418   -0.3593   -1.2631 C   0  0  0  0  0  0  0  0  0  0  0  0
    3.7423   -1.0858    0.0491 C   0  0  0  0  0  0  0  0  0  0  0  0
    2.2821   -1.1114    0.3266 C   0  0  0  0  0  0  0  0  0  0  0  0
    1.5639   -0.1995    0.9402 N   0  0  0  0  0  0  0  0  0  0  0  0
    0.2758   -0.7129    0.9307 C   0  0  0  0  0  0  0  0  0  0  0  0
   -0.8613   -0.0228    1.5928 C   0  0  0  0  0  0  0  0  0  0  0  0
   -0.6722    0.7050    2.5712 O   0  0  0  0  0  0  0  0  0  0  0  0
   -2.1663   -0.2443    1.1021 N   0  0  0  0  0  0  0  0  0  0  0  0
   -3.2840    0.3747    1.8351 C   0  0  1  0  0  0  0  0  0  0  0  0
   -3.5751    1.7591    1.2267 C   0  0  0  0  0  0  0  0  0  0  0  0
   -3.9198    1.5954   -0.2667 C   0  0  2  0  0  0  0  0  0  0  0  0
   -5.1593    0.6927   -0.4064 C   0  0  0  0  0  0  0  0  0  0  0  0
   -4.8884   -0.6882    0.2177 C   0  0  1  0  0  0  0  0  0  0  0  0
   -3.6882   -1.3426   -0.4877 C   0  0  0  0  0  0  0  0  0  0  0  0
   -2.4473   -0.4481   -0.3344 C   0  0  1  0  0  0  0  0  0  0  0  0
   -2.7251    0.9277   -0.9751 C   0  0  0  0  0  0  0  0  0  0  0  0
   -4.5318   -0.5148    1.7036 C   0  0  0  0  0  0  0  0  0  0  0  0
    0.1958   -1.9192    0.3278 N   0  0  0  0  0  0  0  0  0  0  0  0
    1.4672   -2.1423   -0.0328 N   0  0  0  0  0  0  0  0  0  0  0  0
    6.9882    2.1432    0.2412 H   0  0  0  0  0  0  0  0  0  0  0  0
    6.1883    2.2854   -1.3329 H   0  0  0  0  0  0  0  0  0  0  0  0
    5.2498    1.8590    0.1135 H   0  0  0  0  0  0  0  0  0  0  0  0
    7.5065    0.1517   -1.0541 H   0  0  0  0  0  0  0  0  0  0  0  0
    6.4775   -0.3012    0.2924 H   0  0  0  0  0  0  0  0  0  0  0  0
    5.8239   -1.4390   -1.8078 H   0  0  0  0  0  0  0  0  0  0  0  0
    5.6348    0.1025   -2.6259 H   0  0  0  0  0  0  0  0  0  0  0  0
    3.4664   -0.8241   -2.0748 H   0  0  0  0  0  0  0  0  0  0  0  0
    3.6925    0.6790   -1.2065 H   0  0  0  0  0  0  0  0  0  0  0  0
    4.1329   -2.1098    0.0092 H   0  0  0  0  0  0  0  0  0  0  0  0
    4.2433   -0.5845    0.8847 H   0  0  0  0  0  0  0  0  0  0  0  0
   -3.0293    0.4799    2.8954 H   0  0  0  0  0  0  0  0  0  0  0  0
   -2.7015    2.4135    1.3347 H   0  0  0  0  0  0  0  0  0  0  0  0
   -4.4066    2.2388    1.7567 H   0  0  0  0  0  0  0  0  0  0  0  0
   -4.1192    2.5755   -0.7135 H   0  0  0  0  0  0  0  0  0  0  0  0
   -6.0198    1.1622    0.0859 H   0  0  0  0  0  0  0  0  0  0  0  0
   -5.4203    0.5786   -1.4656 H   0  0  0  0  0  0  0  0  0  0  0  0
   -5.7744   -1.3244    0.1167 H   0  0  0  0  0  0  0  0  0  0  0  0
   -3.4928   -2.3296   -0.0502 H   0  0  0  0  0  0  0  0  0  0  0  0
   -3.9139   -1.4978   -1.5496 H   0  0  0  0  0  0  0  0  0  0  0  0
   -1.6068   -0.9016   -0.8584 H   0  0  0  0  0  0  0  0  0  0  0  0
   -2.9385    0.8100   -2.0444 H   0  0  0  0  0  0  0  0  0  0  0  0
   -1.8387    1.5687   -0.8901 H   0  0  0  0  0  0  0  0  0  0  0  0
   -5.3742   -0.0678    2.2450 H   0  0  0  0  0  0  0  0  0  0  0  0
   -4.3403   -1.4960    2.1556 H   0  0  0  0  0  0  0  0  0  0  0  0
    1.7041   -3.0044   -0.5103 H   0  0  0  0  0  0  0  0  0  0  0  0
  1  2  1  0
  2  3  1  0
  3  4  1  0
  4  5  1  0
  5  6  1  0
  6  7  2  0
  7  8  1  0
  8  9  1  0
  9 10  2  0
  9 11  1  0
 11 12  1  0
 12 13  1  0
 13 14  1  0
 14 15  1  0
 15 16  1  0
 16 17  1  0
 17 18  1  0
 18 19  1  0
 16 20  1  0
  8 21  2  0
 21 22  1  0
 22  6  1  0
 18 11  1  0
 20 12  1  0
 19 14  1  0
  1 23  1  0
  1 24  1  0
  1 25  1  0
  2 26  1  0
  2 27  1  0
  3 28  1  0
  3 29  1  0
  4 30  1  0
  4 31  1  0
  5 32  1  0
  5 33  1  0
 12 34  1  1
 13 35  1  0
 13 36  1  0
 14 37  1  6
 15 38  1  0
 15 39  1  0
 16 40  1  1
 17 41  1  0
 17 42  1  0
 18 43  1  6
 19 44  1  0
 19 45  1  0
 20 46  1  0
 20 47  1  0
 22 48  1  0
M  END
>  <_SMILES>  (42) 
CCCCCc1nc(C(=O)N2[C@H]3C[C@@H]4C[C@@H](C[C@H]2C4)C3)n[nH]1

$$$$

     RDKit          3D

 48 51  0  0  0  0  0  0  0  0999 V2000
    6.3440   -1.1369   -0.3531 C   0  0  0  0  0  0  0  0  0  0  0  0
    5.2145   -0.2367   -0.8287 C   0  0  0  0  0  0  0  0  0  0  0  0
    3.8482   -0.9260   -0.8437 C   0  0  0  0  0  0  0  0  0  0  0  0
    3.3553   -1.4564    0.5088 C   0  0  0  0  0  0  0  0  0  0  0  0
    3.2372   -0.4073    1.6179 C   0  0  0  0  0  0  0  0  0  0  0  0
    2.2460    0.6577    1.3177 C   0  0  0  0  0  0  0  0  0  0  0  0
    2.5880    1.9371    1.1296 N   0  0  0  0  0  0  0  0  0  0  0  0
    1.3897    2.4999    0.9026 N   0  0  0  0  0  0  0  0  0  0  0  0
    0.3819    1.5773    0.9219 C   0  0  0  0  0  0  0  0  0  0  0  0
   -1.0052    1.9437    0.7178 C   0  0  0  0  0  0  0  0  0  0  0  0
   -1.3152    3.1381    0.6929 O   0  0  0  0  0  0  0  0  0  0  0  0
   -1.9863    0.9489    0.5722 N   0  0  0  0  0  0  0  0  0  0  0  0
   -3.3858    1.3866    0.4071 C   0  0  1  0  0  0  0  0  0  0  0  0
   -3.7014    1.4750   -1.0975 C   0  0  0  0  0  0  0  0  0  0  0  0
   -3.4796    0.0941   -1.7454 C   0  0  2  0  0  0  0  0  0  0  0  0
   -4.4089   -0.9352   -1.0763 C   0  0  0  0  0  0  0  0  0  0  0  0
   -4.1179   -1.0174    0.4330 C   0  0  1  0  0  0  0  0  0  0  0  0
   -2.6513   -1.4234    0.6509 C   0  0  0  0  0  0  0  0  0  0  0  0
   -1.7227   -0.3884   -0.0058 C   0  0  1  0  0  0  0  0  0  0  0  0
   -2.0137   -0.3252   -1.5191 C   0  0  0  0  0  0  0  0  0  0  0  0
   -4.3258    0.3659    1.0697 C   0  0  0  0  0  0  0  0  0  0  0  0
    0.9036    0.3999    1.2113 N   0  0  0  0  0  0  0  0  0  0  0  0
    6.3867   -2.0585   -0.9421 H   0  0  0  0  0  0  0  0  0  0  0  0
    7.3044   -0.6223   -0.4594 H   0  0  0  0  0  0  0  0  0  0  0  0
    6.2269   -1.4041    0.7012 H   0  0  0  0  0  0  0  0  0  0  0  0
    5.1816    0.6667   -0.2105 H   0  0  0  0  0  0  0  0  0  0  0  0
    5.4419    0.0967   -1.8486 H   0  0  0  0  0  0  0  0  0  0  0  0
    3.8856   -1.7672   -1.5475 H   0  0  0  0  0  0  0  0  0  0  0  0
    3.1089   -0.2257   -1.2512 H   0  0  0  0  0  0  0  0  0  0  0  0
    2.3764   -1.9284    0.3521 H   0  0  0  0  0  0  0  0  0  0  0  0
    4.0231   -2.2558    0.8510 H   0  0  0  0  0  0  0  0  0  0  0  0
    2.9238   -0.9119    2.5404 H   0  0  0  0  0  0  0  0  0  0  0  0
    4.2180    0.0318    1.8328 H   0  0  0  0  0  0  0  0  0  0  0  0
    1.3122    3.4988    0.7450 H   0  0  0  0  0  0  0  0  0  0  0  0
   -3.5375    2.3651    0.8755 H   0  0  0  0  0  0  0  0  0  0  0  0
   -3.0528    2.2176   -1.5783 H   0  0  0  0  0  0  0  0  0  0  0  0
   -4.7369    1.8023   -1.2492 H   0  0  0  0  0  0  0  0  0  0  0  0
   -3.6918    0.1468   -2.8188 H   0  0  0  0  0  0  0  0  0  0  0  0
   -5.4564   -0.6533   -1.2393 H   0  0  0  0  0  0  0  0  0  0  0  0
   -4.2678   -1.9204   -1.5375 H   0  0  0  0  0  0  0  0  0  0  0  0
   -4.7831   -1.7501    0.9028 H   0  0  0  0  0  0  0  0  0  0  0  0
   -2.4690   -2.4178    0.2259 H   0  0  0  0  0  0  0  0  0  0  0  0
   -2.4382   -1.4865    1.7253 H   0  0  0  0  0  0  0  0  0  0  0  0
   -0.6918   -0.7056    0.1294 H   0  0  0  0  0  0  0  0  0  0  0  0
   -1.8255   -1.3019   -1.9811 H   0  0  0  0  0  0  0  0  0  0  0  0
   -1.3430    0.3965   -2.0017 H   0  0  0  0  0  0  0  0  0  0  0  0
   -5.3695    0.6821    0.9539 H   0  0  0  0  0  0  0  0  0  0  0  0
   -4.1209    0.3137    2.1463 H   0  0  0  0  0  0  0  0  0  0  0  0
  1  2  1  0
  2  3  1  0
  3  4  1  0
  4  5  1  0
  5  6  1  0
  6  7  2  0
  7  8  1  0
  8  9  1  0
  9 10  1  0
 10 11  2  0
 10 12  1  0
 12 13  1  0
 13 14  1  0
 14 15  1  0
 15 16  1  0
 16 17  1  0
 17 18  1  0
 18 19  1  0
 19 20  1  0
 17 21  1  0
  9 22  2  0
 22  6  1  0
 19 12  1  0
 21 13  1  0
 20 15  1  0
  1 23  1  0
  1 24  1  0
  1 25  1  0
  2 26  1  0
  2 27  1  0
  3 28  1  0
  3 29  1  0
  4 30  1  0
  4 31  1  0
  5 32  1  0
  5 33  1  0
  8 34  1  0
 13 35  1  1
 14 36  1  0
 14 37  1  0
 15 38  1  6
 16 39  1  0
 16 40  1  0
 17 41  1  1
 18 42  1  0
 18 43  1  0
 19 44  1  6
 20 45  1  0
 20 46  1  0
 21 47  1  0
 21 48  1  0
M  END
>  <_SMILES>  (43) 
CCCCCc1n[nH]c(C(=O)N2[C@H]3C[C@@H]4C[C@@H](C[C@H]2C4)C3)n1

$$$$

     RDKit          3D

 42 45  0  0  0  0  0  0  0  0999 V2000
    5.7443   -0.7382    0.8457 C   0  0  0  0  0  0  0  0  0  0  0  0
    5.7580    0.6706    0.2678 C   0  0  0  0  0  0  0  0  0  0  0  0
    4.7800    0.8537   -0.8934 C   0  0  0  0  0  0  0  0  0  0  0  0
    3.3607    0.8044   -0.4567 C   0  0  0  0  0  0  0  0  0  0  0  0
    2.6935    1.7211    0.2100 N   0  0  0  0  0  0  0  0  0  0  0  0
    1.4174    1.2498    0.4177 N   0  0  0  0  0  0  0  0  0  0  0  0
    1.3112    0.0690   -0.1576 C   0  0  0  0  0  0  0  0  0  0  0  0
    0.1722   -0.8272   -0.1822 C   0  0  0  0  0  0  0  0  0  0  0  0
    0.3346   -1.9926   -0.5566 O   0  0  0  0  0  0  0  0  0  0  0  0
   -1.0929   -0.3822    0.2337 N   0  0  0  0  0  0  0  0  0  0  0  0
   -2.1983   -1.3595    0.2331 C   0  0  1  0  0  0  0  0  0  0  0  0
   -3.1587   -1.0499    1.3934 C   0  0  0  0  0  0  0  0  0  0  0  0
   -3.7058    0.3786    1.2444 C   0  0  2  0  0  0  0  0  0  0  0  0
   -4.4452    0.5056   -0.0998 C   0  0  0  0  0  0  0  0  0  0  0  0
   -3.4931    0.1851   -1.2667 C   0  0  1  0  0  0  0  0  0  0  0  0
   -2.3026    1.1634   -1.2318 C   0  0  0  0  0  0  0  0  0  0  0  0
   -1.5548    1.0194    0.1096 C   0  0  1  0  0  0  0  0  0  0  0  0
   -2.5127    1.3478    1.2668 C   0  0  0  0  0  0  0  0  0  0  0  0
   -2.9546   -1.2499   -1.1037 C   0  0  0  0  0  0  0  0  0  0  0  0
    2.5286   -0.2507   -0.7027 N   0  0  0  0  0  0  0  0  0  0  0  0
    5.9537   -1.4825    0.0708 H   0  0  0  0  0  0  0  0  0  0  0  0
    4.7781   -0.9758    1.3010 H   0  0  0  0  0  0  0  0  0  0  0  0
    6.5106   -0.8331    1.6218 H   0  0  0  0  0  0  0  0  0  0  0  0
    5.5440    1.3914    1.0661 H   0  0  0  0  0  0  0  0  0  0  0  0
    6.7711    0.8857   -0.0928 H   0  0  0  0  0  0  0  0  0  0  0  0
    4.9616    1.8315   -1.3560 H   0  0  0  0  0  0  0  0  0  0  0  0
    4.9711    0.1013   -1.6680 H   0  0  0  0  0  0  0  0  0  0  0  0
   -1.8090   -2.3759    0.3560 H   0  0  0  0  0  0  0  0  0  0  0  0
   -3.9843   -1.7716    1.4037 H   0  0  0  0  0  0  0  0  0  0  0  0
   -2.6314   -1.1475    2.3506 H   0  0  0  0  0  0  0  0  0  0  0  0
   -4.3890    0.6063    2.0698 H   0  0  0  0  0  0  0  0  0  0  0  0
   -5.3028   -0.1779   -0.1198 H   0  0  0  0  0  0  0  0  0  0  0  0
   -4.8437    1.5214   -0.2117 H   0  0  0  0  0  0  0  0  0  0  0  0
   -4.0255    0.2782   -2.2196 H   0  0  0  0  0  0  0  0  0  0  0  0
   -1.6231    0.9500   -2.0664 H   0  0  0  0  0  0  0  0  0  0  0  0
   -2.6575    2.1934   -1.3579 H   0  0  0  0  0  0  0  0  0  0  0  0
   -0.7331    1.7312    0.1185 H   0  0  0  0  0  0  0  0  0  0  0  0
   -1.9831    1.2640    2.2240 H   0  0  0  0  0  0  0  0  0  0  0  0
   -2.8666    2.3824    1.1822 H   0  0  0  0  0  0  0  0  0  0  0  0
   -2.2858   -1.4911   -1.9390 H   0  0  0  0  0  0  0  0  0  0  0  0
   -3.7813   -1.9697   -1.1317 H   0  0  0  0  0  0  0  0  0  0  0  0
    2.7439   -1.1184   -1.1728 H   0  0  0  0  0  0  0  0  0  0  0  0
  1  2  1  0
  2  3  1  0
  3  4  1  0
  4  5  2  0
  5  6  1  0
  6  7  2  0
  7  8  1  0
  8  9  2  0
  8 10  1  0
 10 11  1  0
 11 12  1  0
 12 13  1  0
 13 14  1  0
 14 15  1  0
 15 16  1  0
 16 17  1  0
 17 18  1  0
 15 19  1  0
  7 20  1  0
 20  4  1  0
 17 10  1  0
 19 11  1  0
 18 13  1  0
  1 21  1  0
  1 22  1  0
  1 23  1  0
  2 24  1  0
  2 25  1  0
  3 26  1  0
  3 27  1  0
 11 28  1  1
 12 29  1  0
 12 30  1  0
 13 31  1  1
 14 32  1  0
 14 33  1  0
 15 34  1  6
 16 35  1  0
 16 36  1  0
 17 37  1  6
 18 38  1  0
 18 39  1  0
 19 40  1  0
 19 41  1  0
 20 42  1  0
M  END
>  <_SMILES>  (44) 
CCCc1nnc(C(=O)N2[C@H]3C[C@@H]4C[C@@H](C[C@H]2C4)C3)[nH]1

$$$$

     RDKit          3D

 42 45  0  0  0  0  0  0  0  0999 V2000
    5.0634    1.0619    1.2095 C   0  0  0  0  0  0  0  0  0  0  0  0
    5.2865    0.4707   -0.1761 C   0  0  0  0  0  0  0  0  0  0  0  0
    4.8141   -0.9790   -0.2940 C   0  0  0  0  0  0  0  0  0  0  0  0
    3.3347   -1.1028   -0.2262 C   0  0  0  0  0  0  0  0  0  0  0  0
    2.4550   -0.7527   -1.1361 N   0  0  0  0  0  0  0  0  0  0  0  0
    1.2304   -1.0802   -0.5745 C   0  0  0  0  0  0  0  0  0  0  0  0
   -0.0521   -0.9081   -1.3045 C   0  0  0  0  0  0  0  0  0  0  0  0
   -0.0894   -0.9762   -2.5360 O   0  0  0  0  0  0  0  0  0  0  0  0
   -1.2326   -0.6996   -0.5590 N   0  0  0  0  0  0  0  0  0  0  0  0
   -2.5029   -0.6261   -1.3009 C   0  0  1  0  0  0  0  0  0  0  0  0
   -3.6398   -1.1637   -0.4154 C   0  0  0  0  0  0  0  0  0  0  0  0
   -3.7204   -0.3382    0.8796 C   0  0  2  0  0  0  0  0  0  0  0  0
   -3.9809    1.1378    0.5283 C   0  0  0  0  0  0  0  0  0  0  0  0
   -2.8546    1.6808   -0.3700 C   0  0  1  0  0  0  0  0  0  0  0  0
   -1.5092    1.5500    0.3703 C   0  0  0  0  0  0  0  0  0  0  0  0
   -1.2453    0.0670    0.7045 C   0  0  1  0  0  0  0  0  0  0  0  0
   -2.3712   -0.4610    1.6082 C   0  0  0  0  0  0  0  0  0  0  0  0
   -2.7863    0.8437   -1.6625 C   0  0  0  0  0  0  0  0  0  0  0  0
    1.3462   -1.6284    0.6547 N   0  0  0  0  0  0  0  0  0  0  0  0
    2.6735   -1.6359    0.8392 N   0  0  0  0  0  0  0  0  0  0  0  0
    5.4818    2.0723    1.2584 H   0  0  0  0  0  0  0  0  0  0  0  0
    5.5526    0.4555    1.9783 H   0  0  0  0  0  0  0  0  0  0  0  0
    3.9980    1.1306    1.4495 H   0  0  0  0  0  0  0  0  0  0  0  0
    4.7851    1.0987   -0.9224 H   0  0  0  0  0  0  0  0  0  0  0  0
    6.3598    0.5068   -0.3983 H   0  0  0  0  0  0  0  0  0  0  0  0
    5.2890   -1.5928    0.4808 H   0  0  0  0  0  0  0  0  0  0  0  0
    5.1469   -1.3807   -1.2588 H   0  0  0  0  0  0  0  0  0  0  0  0
   -2.4438   -1.2294   -2.2134 H   0  0  0  0  0  0  0  0  0  0  0  0
   -4.5939   -1.1164   -0.9541 H   0  0  0  0  0  0  0  0  0  0  0  0
   -3.4571   -2.2178   -0.1722 H   0  0  0  0  0  0  0  0  0  0  0  0
   -4.5260   -0.7187    1.5169 H   0  0  0  0  0  0  0  0  0  0  0  0
   -4.0458    1.7339    1.4468 H   0  0  0  0  0  0  0  0  0  0  0  0
   -4.9460    1.2346    0.0160 H   0  0  0  0  0  0  0  0  0  0  0  0
   -3.0457    2.7312   -0.6151 H   0  0  0  0  0  0  0  0  0  0  0  0
   -1.5253    2.1472    1.2900 H   0  0  0  0  0  0  0  0  0  0  0  0
   -0.7009    1.9442   -0.2580 H   0  0  0  0  0  0  0  0  0  0  0  0
   -0.2955    0.0037    1.2345 H   0  0  0  0  0  0  0  0  0  0  0  0
   -2.1818   -1.5106    1.8654 H   0  0  0  0  0  0  0  0  0  0  0  0
   -2.3979    0.1032    2.5482 H   0  0  0  0  0  0  0  0  0  0  0  0
   -3.7301    0.9230   -2.2151 H   0  0  0  0  0  0  0  0  0  0  0  0
   -1.9954    1.2344   -2.3144 H   0  0  0  0  0  0  0  0  0  0  0  0
    3.0531   -2.0130    1.7001 H   0  0  0  0  0  0  0  0  0  0  0  0
  1  2  1  0
  2  3  1  0
  3  4  1  0
  4  5  2  0
  5  6  1  0
  6  7  1  0
  7  8  2  0
  7  9  1  0
  9 10  1  0
 10 11  1  0
 11 12  1  0
 12 13  1  0
 13 14  1  0
 14 15  1  0
 15 16  1  0
 16 17  1  0
 14 18  1  0
  6 19  2  0
 19 20  1  0
 20  4  1  0
 16  9  1  0
 18 10  1  0
 17 12  1  0
  1 21  1  0
  1 22  1  0
  1 23  1  0
  2 24  1  0
  2 25  1  0
  3 26  1  0
  3 27  1  0
 10 28  1  6
 11 29  1  0
 11 30  1  0
 12 31  1  1
 13 32  1  0
 13 33  1  0
 14 34  1  6
 15 35  1  0
 15 36  1  0
 16 37  1  1
 17 38  1  0
 17 39  1  0
 18 40  1  0
 18 41  1  0
 20 42  1  0
M  END
>  <_SMILES>  (45) 
CCCc1nc(C(=O)N2[C@H]3C[C@@H]4C[C@@H](C[C@H]2C4)C3)n[nH]1

$$$$

     RDKit          3D

 42 45  0  0  0  0  0  0  0  0999 V2000
    5.4645   -1.3794    1.6323 C   0  0  0  0  0  0  0  0  0  0  0  0
    4.4850   -0.5510    0.8165 C   0  0  0  0  0  0  0  0  0  0  0  0
    3.7769    0.4920    1.6807 C   0  0  0  0  0  0  0  0  0  0  0  0
    2.8106    1.3011    0.8950 C   0  0  0  0  0  0  0  0  0  0  0  0
    3.1141    2.4967    0.3786 N   0  0  0  0  0  0  0  0  0  0  0  0
    1.9636    2.8179   -0.2356 N   0  0  0  0  0  0  0  0  0  0  0  0
    1.0092    1.8524   -0.0713 C   0  0  0  0  0  0  0  0  0  0  0  0
   -0.3057    1.9665   -0.6726 C   0  0  0  0  0  0  0  0  0  0  0  0
   -0.5160    2.8876   -1.4679 O   0  0  0  0  0  0  0  0  0  0  0  0
   -1.3306    1.0550   -0.3656 N   0  0  0  0  0  0  0  0  0  0  0  0
   -1.1873   -0.1412    0.4920 C   0  0  1  0  0  0  0  0  0  0  0  0
   -2.4994   -0.3920    1.2594 C   0  0  0  0  0  0  0  0  0  0  0  0
   -3.6589   -0.5733    0.2704 C   0  0  2  0  0  0  0  0  0  0  0  0
   -3.3570   -1.7620   -0.6594 C   0  0  0  0  0  0  0  0  0  0  0  0
   -2.0441   -1.5207   -1.4269 C   0  0  1  0  0  0  0  0  0  0  0  0
   -2.1800   -0.2276   -2.2581 C   0  0  0  0  0  0  0  0  0  0  0  0
   -2.4575    0.9600   -1.3146 C   0  0  1  0  0  0  0  0  0  0  0  0
   -3.7713    0.7159   -0.5566 C   0  0  0  0  0  0  0  0  0  0  0  0
   -0.8891   -1.3473   -0.4165 C   0  0  0  0  0  0  0  0  0  0  0  0
    1.5357    0.8692    0.6346 N   0  0  0  0  0  0  0  0  0  0  0  0
    6.2369   -0.7456    2.0795 H   0  0  0  0  0  0  0  0  0  0  0  0
    5.9591   -2.1185    0.9943 H   0  0  0  0  0  0  0  0  0  0  0  0
    4.9503   -1.9149    2.4368 H   0  0  0  0  0  0  0  0  0  0  0  0
    5.0239   -0.0577   -0.0017 H   0  0  0  0  0  0  0  0  0  0  0  0
    3.7479   -1.2181    0.3527 H   0  0  0  0  0  0  0  0  0  0  0  0
    4.5174    1.1522    2.1488 H   0  0  0  0  0  0  0  0  0  0  0  0
    3.2401   -0.0065    2.4971 H   0  0  0  0  0  0  0  0  0  0  0  0
    1.8805    3.6876   -0.7508 H   0  0  0  0  0  0  0  0  0  0  0  0
   -0.4041   -0.0111    1.2363 H   0  0  0  0  0  0  0  0  0  0  0  0
   -2.4009   -1.2825    1.8922 H   0  0  0  0  0  0  0  0  0  0  0  0
   -2.7081    0.4550    1.9250 H   0  0  0  0  0  0  0  0  0  0  0  0
   -4.5925   -0.7520    0.8149 H   0  0  0  0  0  0  0  0  0  0  0  0
   -4.1832   -1.9006   -1.3675 H   0  0  0  0  0  0  0  0  0  0  0  0
   -3.2814   -2.6853   -0.0722 H   0  0  0  0  0  0  0  0  0  0  0  0
   -1.8366   -2.3692   -2.0879 H   0  0  0  0  0  0  0  0  0  0  0  0
   -1.2560   -0.0534   -2.8233 H   0  0  0  0  0  0  0  0  0  0  0  0
   -2.9924   -0.3303   -2.9875 H   0  0  0  0  0  0  0  0  0  0  0  0
   -2.5520    1.8774   -1.9044 H   0  0  0  0  0  0  0  0  0  0  0  0
   -4.6065    0.6388   -1.2632 H   0  0  0  0  0  0  0  0  0  0  0  0
   -3.9840    1.5652    0.1044 H   0  0  0  0  0  0  0  0  0  0  0  0
   -0.7740   -2.2567    0.1851 H   0  0  0  0  0  0  0  0  0  0  0  0
    0.0531   -1.1934   -0.9566 H   0  0  0  0  0  0  0  0  0  0  0  0
  1  2  1  0
  2  3  1  0
  3  4  1  0
  4  5  2  0
  5  6  1  0
  6  7  1  0
  7  8  1  0
  8  9  2  0
  8 10  1  0
 10 11  1  0
 11 12  1  0
 12 13  1  0
 13 14  1  0
 14 15  1  0
 15 16  1  0
 16 17  1  0
 17 18  1  0
 15 19  1  0
  7 20  2  0
 20  4  1  0
 17 10  1  0
 19 11  1  0
 18 13  1  0
  1 21  1  0
  1 22  1  0
  1 23  1  0
  2 24  1  0
  2 25  1  0
  3 26  1  0
  3 27  1  0
  6 28  1  0
 11 29  1  1
 12 30  1  0
 12 31  1  0
 13 32  1  1
 14 33  1  0
 14 34  1  0
 15 35  1  6
 16 36  1  0
 16 37  1  0
 17 38  1  6
 18 39  1  0
 18 40  1  0
 19 41  1  0
 19 42  1  0
M  END
>  <_SMILES>  (46) 
CCCc1n[nH]c(C(=O)N2[C@H]3C[C@@H]4C[C@@H](C[C@H]2C4)C3)n1

$$$$

     RDKit          3D

 45 48  0  0  0  0  0  0  0  0999 V2000
   -6.5619   -0.4477    0.8099 C   0  0  0  0  0  0  0  0  0  0  0  0
   -5.2024   -0.1658    0.1659 C   0  0  0  0  0  0  0  0  0  0  0  0
   -5.3788    0.8029   -1.0069 C   0  0  0  0  0  0  0  0  0  0  0  0
   -4.2258    0.3801    1.2225 C   0  0  0  0  0  0  0  0  0  0  0  0
   -2.8277    0.4677    0.7229 C   0  0  0  0  0  0  0  0  0  0  0  0
   -2.1916    1.5383    0.3000 N   0  0  0  0  0  0  0  0  0  0  0  0
   -0.9274    1.1555   -0.0861 N   0  0  0  0  0  0  0  0  0  0  0  0
   -0.7955   -0.1356    0.1427 C   0  0  0  0  0  0  0  0  0  0  0  0
    0.3425   -0.9916   -0.1279 C   0  0  0  0  0  0  0  0  0  0  0  0
    0.1969   -2.2167   -0.0757 O   0  0  0  0  0  0  0  0  0  0  0  0
    1.5871   -0.4358   -0.4651 N   0  0  0  0  0  0  0  0  0  0  0  0
    2.6903   -1.3637   -0.7792 C   0  0  1  0  0  0  0  0  0  0  0  0
    3.5953   -0.7409   -1.8551 C   0  0  0  0  0  0  0  0  0  0  0  0
    4.1502    0.6006   -1.3503 C   0  0  2  0  0  0  0  0  0  0  0  0
    4.9522    0.3684   -0.0570 C   0  0  0  0  0  0  0  0  0  0  0  0
    4.0558   -0.2667    1.0218 C   0  0  1  0  0  0  0  0  0  0  0  0
    2.8658    0.6704    1.3071 C   0  0  0  0  0  0  0  0  0  0  0  0
    2.0557    0.8855    0.0123 C   0  0  1  0  0  0  0  0  0  0  0  0
    2.9583    1.5257   -1.0554 C   0  0  0  0  0  0  0  0  0  0  0  0
    3.5088   -1.6105    0.5014 C   0  0  0  0  0  0  0  0  0  0  0  0
   -1.9863   -0.6051    0.6358 N   0  0  0  0  0  0  0  0  0  0  0  0
   -6.4640   -1.1752    1.6227 H   0  0  0  0  0  0  0  0  0  0  0  0
   -7.0034    0.4657    1.2231 H   0  0  0  0  0  0  0  0  0  0  0  0
   -7.2621   -0.8611    0.0763 H   0  0  0  0  0  0  0  0  0  0  0  0
   -4.8162   -1.1138   -0.2309 H   0  0  0  0  0  0  0  0  0  0  0  0
   -4.4361    0.9578   -1.5411 H   0  0  0  0  0  0  0  0  0  0  0  0
   -6.1024    0.4090   -1.7288 H   0  0  0  0  0  0  0  0  0  0  0  0
   -5.7406    1.7787   -0.6652 H   0  0  0  0  0  0  0  0  0  0  0  0
   -4.2391   -0.2675    2.1087 H   0  0  0  0  0  0  0  0  0  0  0  0
   -4.5514    1.3724    1.5590 H   0  0  0  0  0  0  0  0  0  0  0  0
    2.2947   -2.3137   -1.1547 H   0  0  0  0  0  0  0  0  0  0  0  0
    3.0236   -0.5824   -2.7780 H   0  0  0  0  0  0  0  0  0  0  0  0
    4.4190   -1.4231   -2.0978 H   0  0  0  0  0  0  0  0  0  0  0  0
    4.7940    1.0510   -2.1136 H   0  0  0  0  0  0  0  0  0  0  0  0
    5.8091   -0.2849   -0.2618 H   0  0  0  0  0  0  0  0  0  0  0  0
    5.3565    1.3208    0.3072 H   0  0  0  0  0  0  0  0  0  0  0  0
    4.6324   -0.4284    1.9390 H   0  0  0  0  0  0  0  0  0  0  0  0
    3.2272    1.6321    1.6908 H   0  0  0  0  0  0  0  0  0  0  0  0
    2.2262    0.2314    2.0829 H   0  0  0  0  0  0  0  0  0  0  0  0
    1.2351    1.5634    0.2336 H   0  0  0  0  0  0  0  0  0  0  0  0
    2.3843    1.6974   -1.9744 H   0  0  0  0  0  0  0  0  0  0  0  0
    3.3169    2.5030   -0.7103 H   0  0  0  0  0  0  0  0  0  0  0  0
    4.3353   -2.3014    0.2960 H   0  0  0  0  0  0  0  0  0  0  0  0
    2.8798   -2.0764    1.2699 H   0  0  0  0  0  0  0  0  0  0  0  0
   -2.1803   -1.5697    0.8639 H   0  0  0  0  0  0  0  0  0  0  0  0
  1  2  1  0
  2  3  1  0
  2  4  1  0
  4  5  1  0
  5  6  2  0
  6  7  1  0
  7  8  2  0
  8  9  1  0
  9 10  2  0
  9 11  1  0
 11 12  1  0
 12 13  1  0
 13 14  1  0
 14 15  1  0
 15 16  1  0
 16 17  1  0
 17 18  1  0
 18 19  1  0
 16 20  1  0
  8 21  1  0
 21  5  1  0
 18 11  1  0
 20 12  1  0
 19 14  1  0
  1 22  1  0
  1 23  1  0
  1 24  1  0
  2 25  1  0
  3 26  1  0
  3 27  1  0
  3 28  1  0
  4 29  1  0
  4 30  1  0
 12 31  1  6
 13 32  1  0
 13 33  1  0
 14 34  1  6
 15 35  1  0
 15 36  1  0
 16 37  1  1
 17 38  1  0
 17 39  1  0
 18 40  1  1
 19 41  1  0
 19 42  1  0
 20 43  1  0
 20 44  1  0
 21 45  1  0
M  END
>  <_SMILES>  (47) 
CC(C)Cc1nnc(C(=O)N2[C@H]3C[C@@H]4C[C@@H](C[C@H]2C4)C3)[nH]1

$$$$

     RDKit          3D

 45 48  0  0  0  0  0  0  0  0999 V2000
    6.1877    1.0440   -0.8483 C   0  0  0  0  0  0  0  0  0  0  0  0
    4.7379    0.5943   -0.6528 C   0  0  0  0  0  0  0  0  0  0  0  0
    4.5781   -0.8523   -1.1291 C   0  0  0  0  0  0  0  0  0  0  0  0
    4.3313    0.7635    0.8217 C   0  0  0  0  0  0  0  0  0  0  0  0
    2.8712    0.5740    1.0345 C   0  0  0  0  0  0  0  0  0  0  0  0
    1.8936    1.3652    0.6572 N   0  0  0  0  0  0  0  0  0  0  0  0
    0.7449    0.7283    1.1012 C   0  0  0  0  0  0  0  0  0  0  0  0
   -0.6078    1.3208    0.9387 C   0  0  0  0  0  0  0  0  0  0  0  0
   -0.7584    2.5450    0.9018 O   0  0  0  0  0  0  0  0  0  0  0  0
   -1.7208    0.4558    0.8619 N   0  0  0  0  0  0  0  0  0  0  0  0
   -1.6499   -0.8685    0.2098 C   0  0  1  0  0  0  0  0  0  0  0  0
   -2.6587   -1.8180    0.8761 C   0  0  0  0  0  0  0  0  0  0  0  0
   -4.0753   -1.2283    0.7658 C   0  0  2  0  0  0  0  0  0  0  0  0
   -4.4376   -1.0387   -0.7183 C   0  0  0  0  0  0  0  0  0  0  0  0
   -3.4285   -0.0959   -1.3991 C   0  0  1  0  0  0  0  0  0  0  0  0
   -3.4435    1.2687   -0.6825 C   0  0  0  0  0  0  0  0  0  0  0  0
   -3.0578    1.0703    0.7951 C   0  0  1  0  0  0  0  0  0  0  0  0
   -4.0788    0.1388    1.4700 C   0  0  0  0  0  0  0  0  0  0  0  0
   -2.0143   -0.6968   -1.2796 C   0  0  0  0  0  0  0  0  0  0  0  0
    1.0029   -0.4297    1.7472 N   0  0  0  0  0  0  0  0  0  0  0  0
    2.3406   -0.4925    1.6957 N   0  0  0  0  0  0  0  0  0  0  0  0
    6.8762    0.4392   -0.2482 H   0  0  0  0  0  0  0  0  0  0  0  0
    6.3129    2.0919   -0.5557 H   0  0  0  0  0  0  0  0  0  0  0  0
    6.4850    0.9543   -1.8986 H   0  0  0  0  0  0  0  0  0  0  0  0
    4.1009    1.2316   -1.2801 H   0  0  0  0  0  0  0  0  0  0  0  0
    5.1729   -1.5396   -0.5178 H   0  0  0  0  0  0  0  0  0  0  0  0
    4.9061   -0.9559   -2.1690 H   0  0  0  0  0  0  0  0  0  0  0  0
    3.5328   -1.1738   -1.0832 H   0  0  0  0  0  0  0  0  0  0  0  0
    4.9024    0.0713    1.4533 H   0  0  0  0  0  0  0  0  0  0  0  0
    4.5883    1.7759    1.1586 H   0  0  0  0  0  0  0  0  0  0  0  0
   -0.6523   -1.3026    0.2659 H   0  0  0  0  0  0  0  0  0  0  0  0
   -2.3963   -1.9598    1.9319 H   0  0  0  0  0  0  0  0  0  0  0  0
   -2.6229   -2.8043    0.3980 H   0  0  0  0  0  0  0  0  0  0  0  0
   -4.7979   -1.8982    1.2445 H   0  0  0  0  0  0  0  0  0  0  0  0
   -4.4432   -2.0100   -1.2279 H   0  0  0  0  0  0  0  0  0  0  0  0
   -5.4503   -0.6265   -0.8053 H   0  0  0  0  0  0  0  0  0  0  0  0
   -3.6916    0.0337   -2.4546 H   0  0  0  0  0  0  0  0  0  0  0  0
   -4.4382    1.7242   -0.7568 H   0  0  0  0  0  0  0  0  0  0  0  0
   -2.7374    1.9507   -1.1717 H   0  0  0  0  0  0  0  0  0  0  0  0
   -3.0569    2.0358    1.3127 H   0  0  0  0  0  0  0  0  0  0  0  0
   -3.8242    0.0107    2.5295 H   0  0  0  0  0  0  0  0  0  0  0  0
   -5.0809    0.5826    1.4293 H   0  0  0  0  0  0  0  0  0  0  0  0
   -1.9714   -1.6650   -1.7929 H   0  0  0  0  0  0  0  0  0  0  0  0
   -1.2888   -0.0369   -1.7713 H   0  0  0  0  0  0  0  0  0  0  0  0
    2.8177   -1.2772    2.1247 H   0  0  0  0  0  0  0  0  0  0  0  0
  1  2  1  0
  2  3  1  0
  2  4  1  0
  4  5  1  0
  5  6  2  0
  6  7  1  0
  7  8  1  0
  8  9  2  0
  8 10  1  0
 10 11  1  0
 11 12  1  0
 12 13  1  0
 13 14  1  0
 14 15  1  0
 15 16  1  0
 16 17  1  0
 17 18  1  0
 15 19  1  0
  7 20  2  0
 20 21  1  0
 21  5  1  0
 17 10  1  0
 19 11  1  0
 18 13  1  0
  1 22  1  0
  1 23  1  0
  1 24  1  0
  2 25  1  0
  3 26  1  0
  3 27  1  0
  3 28  1  0
  4 29  1  0
  4 30  1  0
 11 31  1  6
 12 32  1  0
 12 33  1  0
 13 34  1  1
 14 35  1  0
 14 36  1  0
 15 37  1  6
 16 38  1  0
 16 39  1  0
 17 40  1  1
 18 41  1  0
 18 42  1  0
 19 43  1  0
 19 44  1  0
 21 45  1  0
M  END
>  <_SMILES>  (48) 
CC(C)Cc1nc(C(=O)N2[C@H]3C[C@@H]4C[C@@H](C[C@H]2C4)C3)n[nH]1

$$$$

     RDKit          3D

 45 48  0  0  0  0  0  0  0  0999 V2000
    5.6731   -1.6162    0.0667 C   0  0  0  0  0  0  0  0  0  0  0  0
    4.3632   -1.2438   -0.6315 C   0  0  0  0  0  0  0  0  0  0  0  0
    3.3306   -2.3542   -0.4171 C   0  0  0  0  0  0  0  0  0  0  0  0
    3.8620    0.1169   -0.1151 C   0  0  0  0  0  0  0  0  0  0  0  0
    2.7167    0.6569   -0.8949 C   0  0  0  0  0  0  0  0  0  0  0  0
    2.8712    1.3485   -2.0291 N   0  0  0  0  0  0  0  0  0  0  0  0
    1.5947    1.6176   -2.3494 N   0  0  0  0  0  0  0  0  0  0  0  0
    0.7180    1.0815   -1.4477 C   0  0  0  0  0  0  0  0  0  0  0  0
   -0.7158    1.2582   -1.5726 C   0  0  0  0  0  0  0  0  0  0  0  0
   -1.1456    2.0577   -2.4098 O   0  0  0  0  0  0  0  0  0  0  0  0
   -1.6099    0.5350   -0.7658 N   0  0  0  0  0  0  0  0  0  0  0  0
   -1.2293   -0.3980    0.3166 C   0  0  1  0  0  0  0  0  0  0  0  0
   -1.2587    0.3757    1.6467 C   0  0  0  0  0  0  0  0  0  0  0  0
   -2.6763    0.9449    1.8729 C   0  0  2  0  0  0  0  0  0  0  0  0
   -3.6863   -0.2160    1.9262 C   0  0  0  0  0  0  0  0  0  0  0  0
   -3.6542   -1.0133    0.6101 C   0  0  1  0  0  0  0  0  0  0  0  0
   -3.9930   -0.0853   -0.5659 C   0  0  0  0  0  0  0  0  0  0  0  0
   -2.9791    1.0675   -0.6234 C   0  0  1  0  0  0  0  0  0  0  0  0
   -3.0379    1.8701    0.6918 C   0  0  0  0  0  0  0  0  0  0  0  0
   -2.2388   -1.5601    0.3795 C   0  0  0  0  0  0  0  0  0  0  0  0
    1.4156    0.4853   -0.4990 N   0  0  0  0  0  0  0  0  0  0  0  0
    6.4400   -0.8554   -0.1132 H   0  0  0  0  0  0  0  0  0  0  0  0
    5.5343   -1.7091    1.1493 H   0  0  0  0  0  0  0  0  0  0  0  0
    6.0571   -2.5705   -0.3091 H   0  0  0  0  0  0  0  0  0  0  0  0
    4.5646   -1.1698   -1.7082 H   0  0  0  0  0  0  0  0  0  0  0  0
    3.7238   -3.3191   -0.7551 H   0  0  0  0  0  0  0  0  0  0  0  0
    3.0645   -2.4503    0.6410 H   0  0  0  0  0  0  0  0  0  0  0  0
    2.4135   -2.1602   -0.9822 H   0  0  0  0  0  0  0  0  0  0  0  0
    4.6807    0.8474   -0.1515 H   0  0  0  0  0  0  0  0  0  0  0  0
    3.5723    0.0336    0.9401 H   0  0  0  0  0  0  0  0  0  0  0  0
    1.3755    2.1628   -3.1761 H   0  0  0  0  0  0  0  0  0  0  0  0
   -0.2489   -0.8376    0.1420 H   0  0  0  0  0  0  0  0  0  0  0  0
   -0.9801   -0.2848    2.4765 H   0  0  0  0  0  0  0  0  0  0  0  0
   -0.5313    1.1963    1.6262 H   0  0  0  0  0  0  0  0  0  0  0  0
   -2.7058    1.5090    2.8115 H   0  0  0  0  0  0  0  0  0  0  0  0
   -3.4502   -0.8773    2.7689 H   0  0  0  0  0  0  0  0  0  0  0  0
   -4.6961    0.1753    2.1004 H   0  0  0  0  0  0  0  0  0  0  0  0
   -4.3729   -1.8388    0.6553 H   0  0  0  0  0  0  0  0  0  0  0  0
   -3.9687   -0.6508   -1.5057 H   0  0  0  0  0  0  0  0  0  0  0  0
   -5.0095    0.3107   -0.4529 H   0  0  0  0  0  0  0  0  0  0  0  0
   -3.2335    1.7250   -1.4609 H   0  0  0  0  0  0  0  0  0  0  0  0
   -4.0402    2.2914    0.8344 H   0  0  0  0  0  0  0  0  0  0  0  0
   -2.3344    2.7110    0.6530 H   0  0  0  0  0  0  0  0  0  0  0  0
   -2.2088   -2.1292   -0.5582 H   0  0  0  0  0  0  0  0  0  0  0  0
   -1.9659   -2.2523    1.1854 H   0  0  0  0  0  0  0  0  0  0  0  0
  1  2  1  0
  2  3  1  0
  2  4  1  0
  4  5  1  0
  5  6  2  0
  6  7  1  0
  7  8  1  0
  8  9  1  0
  9 10  2  0
  9 11  1  0
 11 12  1  0
 12 13  1  0
 13 14  1  0
 14 15  1  0
 15 16  1  0
 16 17  1  0
 17 18  1  0
 18 19  1  0
 16 20  1  0
  8 21  2  0
 21  5  1  0
 18 11  1  0
 20 12  1  0
 19 14  1  0
  1 22  1  0
  1 23  1  0
  1 24  1  0
  2 25  1  0
  3 26  1  0
  3 27  1  0
  3 28  1  0
  4 29  1  0
  4 30  1  0
  7 31  1  0
 12 32  1  6
 13 33  1  0
 13 34  1  0
 14 35  1  1
 15 36  1  0
 15 37  1  0
 16 38  1  1
 17 39  1  0
 17 40  1  0
 18 41  1  6
 19 42  1  0
 19 43  1  0
 20 44  1  0
 20 45  1  0
M  END
>  <_SMILES>  (49) 
CC(C)Cc1n[nH]c(C(=O)N2[C@H]3C[C@@H]4C[C@@H](C[C@H]2C4)C3)n1

$$$$

     RDKit          3D

 39 42  0  0  0  0  0  0  0  0999 V2000
    5.7660    0.7125    0.7796 C   0  0  0  0  0  0  0  0  0  0  0  0
    5.3226   -0.5889    0.1317 C   0  0  0  0  0  0  0  0  0  0  0  0
    3.8446   -0.7223    0.1365 C   0  0  0  0  0  0  0  0  0  0  0  0
    3.0901   -1.2626    1.0684 N   0  0  0  0  0  0  0  0  0  0  0  0
    1.7808   -1.1855    0.6516 N   0  0  0  0  0  0  0  0  0  0  0  0
    1.7504   -0.5685   -0.5125 C   0  0  0  0  0  0  0  0  0  0  0  0
    0.6063   -0.2785   -1.3540 C   0  0  0  0  0  0  0  0  0  0  0  0
    0.7957    0.0846   -2.5189 O   0  0  0  0  0  0  0  0  0  0  0  0
   -0.6986   -0.4281   -0.8576 N   0  0  0  0  0  0  0  0  0  0  0  0
   -1.8184   -0.1661   -1.7819 C   0  0  1  0  0  0  0  0  0  0  0  0
   -2.9908   -1.1033   -1.4479 C   0  0  0  0  0  0  0  0  0  0  0  0
   -3.4329   -0.8797    0.0070 C   0  0  2  0  0  0  0  0  0  0  0  0
   -3.8617    0.5872    0.1917 C   0  0  0  0  0  0  0  0  0  0  0  0
   -2.6965    1.5328   -0.1528 C   0  0  1  0  0  0  0  0  0  0  0  0
   -1.5009    1.2192    0.7679 C   0  0  0  0  0  0  0  0  0  0  0  0
   -1.0640   -0.2463    0.5660 C   0  0  1  0  0  0  0  0  0  0  0  0
   -2.2325   -1.1816    0.9188 C   0  0  0  0  0  0  0  0  0  0  0  0
   -2.2661    1.2976   -1.6140 C   0  0  0  0  0  0  0  0  0  0  0  0
    3.0417   -0.2848   -0.8785 N   0  0  0  0  0  0  0  0  0  0  0  0
    5.4247    0.7741    1.8187 H   0  0  0  0  0  0  0  0  0  0  0  0
    6.8582    0.7858    0.7756 H   0  0  0  0  0  0  0  0  0  0  0  0
    5.3652    1.5794    0.2431 H   0  0  0  0  0  0  0  0  0  0  0  0
    5.7030   -0.6366   -0.8952 H   0  0  0  0  0  0  0  0  0  0  0  0
    5.7630   -1.4333    0.6742 H   0  0  0  0  0  0  0  0  0  0  0  0
   -1.5074   -0.3417   -2.8174 H   0  0  0  0  0  0  0  0  0  0  0  0
   -2.6850   -2.1478   -1.5866 H   0  0  0  0  0  0  0  0  0  0  0  0
   -3.8291   -0.9183   -2.1302 H   0  0  0  0  0  0  0  0  0  0  0  0
   -4.2665   -1.5467    0.2522 H   0  0  0  0  0  0  0  0  0  0  0  0
   -4.7232    0.8075   -0.4505 H   0  0  0  0  0  0  0  0  0  0  0  0
   -4.1841    0.7539    1.2269 H   0  0  0  0  0  0  0  0  0  0  0  0
   -3.0084    2.5743   -0.0184 H   0  0  0  0  0  0  0  0  0  0  0  0
   -1.7771    1.3901    1.8155 H   0  0  0  0  0  0  0  0  0  0  0  0
   -0.6683    1.8954    0.5375 H   0  0  0  0  0  0  0  0  0  0  0  0
   -0.2341   -0.4491    1.2383 H   0  0  0  0  0  0  0  0  0  0  0  0
   -1.9239   -2.2270    0.7938 H   0  0  0  0  0  0  0  0  0  0  0  0
   -2.5164   -1.0514    1.9701 H   0  0  0  0  0  0  0  0  0  0  0  0
   -1.4449    1.9776   -1.8718 H   0  0  0  0  0  0  0  0  0  0  0  0
   -3.0973    1.5202   -2.2938 H   0  0  0  0  0  0  0  0  0  0  0  0
    3.3158    0.1558   -1.7451 H   0  0  0  0  0  0  0  0  0  0  0  0
  1  2  1  0
  2  3  1  0
  3  4  2  0
  4  5  1  0
  5  6  2  0
  6  7  1  0
  7  8  2  0
  7  9  1  0
  9 10  1  0
 10 11  1  0
 11 12  1  0
 12 13  1  0
 13 14  1  0
 14 15  1  0
 15 16  1  0
 16 17  1  0
 14 18  1  0
  6 19  1  0
 19  3  1  0
 16  9  1  0
 18 10  1  0
 17 12  1  0
  1 20  1  0
  1 21  1  0
  1 22  1  0
  2 23  1  0
  2 24  1  0
 10 25  1  6
 11 26  1  0
 11 27  1  0
 12 28  1  1
 13 29  1  0
 13 30  1  0
 14 31  1  6
 15 32  1  0
 15 33  1  0
 16 34  1  1
 17 35  1  0
 17 36  1  0
 18 37  1  0
 18 38  1  0
 19 39  1  0
M  END
>  <_SMILES>  (50) 
CCc1nnc(C(=O)N2[C@H]3C[C@@H]4C[C@@H](C[C@H]2C4)C3)[nH]1

$$$$

     RDKit          3D

 39 42  0  0  0  0  0  0  0  0999 V2000
    6.0640    0.5035   -0.8641 C   0  0  0  0  0  0  0  0  0  0  0  0
    5.0634   -0.6101   -1.1261 C   0  0  0  0  0  0  0  0  0  0  0  0
    3.7231   -0.2759   -0.5826 C   0  0  0  0  0  0  0  0  0  0  0  0
    2.7541    0.3808   -1.1773 N   0  0  0  0  0  0  0  0  0  0  0  0
    1.7368    0.4204   -0.2357 C   0  0  0  0  0  0  0  0  0  0  0  0
    0.4606    1.1438   -0.4721 C   0  0  0  0  0  0  0  0  0  0  0  0
    0.4215    2.1215   -1.2240 O   0  0  0  0  0  0  0  0  0  0  0  0
   -0.6987    0.7127    0.2084 N   0  0  0  0  0  0  0  0  0  0  0  0
   -0.9577   -0.7114    0.5065 C   0  0  1  0  0  0  0  0  0  0  0  0
   -1.7968   -0.8175    1.7902 C   0  0  0  0  0  0  0  0  0  0  0  0
   -3.1160   -0.0467    1.6114 C   0  0  2  0  0  0  0  0  0  0  0  0
   -3.8987   -0.6381    0.4251 C   0  0  0  0  0  0  0  0  0  0  0  0
   -3.0645   -0.5455   -0.8657 C   0  0  1  0  0  0  0  0  0  0  0  0
   -2.7289    0.9318   -1.1498 C   0  0  0  0  0  0  0  0  0  0  0  0
   -1.9269    1.5066    0.0325 C   0  0  1  0  0  0  0  0  0  0  0  0
   -2.7732    1.4227    1.3140 C   0  0  0  0  0  0  0  0  0  0  0  0
   -1.7458   -1.3192   -0.6726 C   0  0  0  0  0  0  0  0  0  0  0  0
    2.0668   -0.1969    0.9198 N   0  0  0  0  0  0  0  0  0  0  0  0
    3.3153   -0.6166    0.6720 N   0  0  0  0  0  0  0  0  0  0  0  0
    6.1895    0.6793    0.2098 H   0  0  0  0  0  0  0  0  0  0  0  0
    5.7387    1.4440   -1.3221 H   0  0  0  0  0  0  0  0  0  0  0  0
    7.0412    0.2419   -1.2821 H   0  0  0  0  0  0  0  0  0  0  0  0
    4.9823   -0.7791   -2.2060 H   0  0  0  0  0  0  0  0  0  0  0  0
    5.4288   -1.5442   -0.6840 H   0  0  0  0  0  0  0  0  0  0  0  0
   -0.0370   -1.2813    0.6271 H   0  0  0  0  0  0  0  0  0  0  0  0
   -2.0034   -1.8695    2.0213 H   0  0  0  0  0  0  0  0  0  0  0  0
   -1.2362   -0.4035    2.6375 H   0  0  0  0  0  0  0  0  0  0  0  0
   -3.7156   -0.1139    2.5257 H   0  0  0  0  0  0  0  0  0  0  0  0
   -4.8453   -0.0989    0.2968 H   0  0  0  0  0  0  0  0  0  0  0  0
   -4.1529   -1.6852    0.6308 H   0  0  0  0  0  0  0  0  0  0  0  0
   -3.6268   -0.9688   -1.7051 H   0  0  0  0  0  0  0  0  0  0  0  0
   -2.1469    1.0069   -2.0766 H   0  0  0  0  0  0  0  0  0  0  0  0
   -3.6503    1.5074   -1.2984 H   0  0  0  0  0  0  0  0  0  0  0  0
   -1.6753    2.5548   -0.1626 H   0  0  0  0  0  0  0  0  0  0  0  0
   -2.2176    1.8516    2.1572 H   0  0  0  0  0  0  0  0  0  0  0  0
   -3.6924    2.0098    1.1998 H   0  0  0  0  0  0  0  0  0  0  0  0
   -1.9548   -2.3786   -0.4808 H   0  0  0  0  0  0  0  0  0  0  0  0
   -1.1483   -1.2679   -1.5913 H   0  0  0  0  0  0  0  0  0  0  0  0
    3.8239   -1.1154    1.3931 H   0  0  0  0  0  0  0  0  0  0  0  0
  1  2  1  0
  2  3  1  0
  3  4  2  0
  4  5  1  0
  5  6  1  0
  6  7  2  0
  6  8  1  0
  8  9  1  0
  9 10  1  0
 10 11  1  0
 11 12  1  0
 12 13  1  0
 13 14  1  0
 14 15  1  0
 15 16  1  0
 13 17  1  0
  5 18  2  0
 18 19  1  0
 19  3  1  0
 15  8  1  0
 17  9  1  0
 16 11  1  0
  1 20  1  0
  1 21  1  0
  1 22  1  0
  2 23  1  0
  2 24  1  0
  9 25  1  1
 10 26  1  0
 10 27  1  0
 11 28  1  1
 12 29  1  0
 12 30  1  0
 13 31  1  6
 14 32  1  0
 14 33  1  0
 15 34  1  6
 16 35  1  0
 16 36  1  0
 17 37  1  0
 17 38  1  0
 19 39  1  0
M  END
>  <_SMILES>  (51) 
CCc1nc(C(=O)N2[C@H]3C[C@@H]4C[C@@H](C[C@H]2C4)C3)n[nH]1

$$$$

     RDKit          3D

 39 42  0  0  0  0  0  0  0  0999 V2000
    6.0523   -0.1890   -0.4802 C   0  0  0  0  0  0  0  0  0  0  0  0
    4.8637   -0.7615   -1.2354 C   0  0  0  0  0  0  0  0  0  0  0  0
    3.6066   -0.6743   -0.4512 C   0  0  0  0  0  0  0  0  0  0  0  0
    3.1642   -1.6690    0.3288 N   0  0  0  0  0  0  0  0  0  0  0  0
    2.0480   -1.1262    0.8407 N   0  0  0  0  0  0  0  0  0  0  0  0
    1.8148    0.1196    0.3363 C   0  0  0  0  0  0  0  0  0  0  0  0
    0.6948    0.9638    0.6886 C   0  0  0  0  0  0  0  0  0  0  0  0
    0.8405    2.1300    1.0528 O   0  0  0  0  0  0  0  0  0  0  0  0
   -0.5808    0.3617    0.6644 N   0  0  0  0  0  0  0  0  0  0  0  0
   -0.9478   -0.6237   -0.3801 C   0  0  1  0  0  0  0  0  0  0  0  0
   -2.0448   -1.5532    0.1633 C   0  0  0  0  0  0  0  0  0  0  0  0
   -3.2698   -0.7205    0.5773 C   0  0  2  0  0  0  0  0  0  0  0  0
   -3.7975    0.0552   -0.6432 C   0  0  0  0  0  0  0  0  0  0  0  0
   -2.7031    0.9835   -1.2011 C   0  0  1  0  0  0  0  0  0  0  0  0
   -2.2697    1.9746   -0.1031 C   0  0  0  0  0  0  0  0  0  0  0  0
   -1.7221    1.1894    1.1039 C   0  0  1  0  0  0  0  0  0  0  0  0
   -2.8256    0.2750    1.6621 C   0  0  0  0  0  0  0  0  0  0  0  0
   -1.4808    0.1381   -1.6099 C   0  0  0  0  0  0  0  0  0  0  0  0
    2.8070    0.4389   -0.4729 N   0  0  0  0  0  0  0  0  0  0  0  0
    6.9600   -0.2627   -1.0873 H   0  0  0  0  0  0  0  0  0  0  0  0
    6.2238   -0.7305    0.4564 H   0  0  0  0  0  0  0  0  0  0  0  0
    5.8925    0.8661   -0.2328 H   0  0  0  0  0  0  0  0  0  0  0  0
    4.7385   -0.2179   -2.1791 H   0  0  0  0  0  0  0  0  0  0  0  0
    5.0682   -1.8061   -1.4979 H   0  0  0  0  0  0  0  0  0  0  0  0
    1.4972   -1.6455    1.5140 H   0  0  0  0  0  0  0  0  0  0  0  0
   -0.0854   -1.2212   -0.6836 H   0  0  0  0  0  0  0  0  0  0  0  0
   -2.3288   -2.2891   -0.5986 H   0  0  0  0  0  0  0  0  0  0  0  0
   -1.6658   -2.1119    1.0281 H   0  0  0  0  0  0  0  0  0  0  0  0
   -4.0535   -1.3774    0.9701 H   0  0  0  0  0  0  0  0  0  0  0  0
   -4.6773    0.6451   -0.3583 H   0  0  0  0  0  0  0  0  0  0  0  0
   -4.1222   -0.6477   -1.4201 H   0  0  0  0  0  0  0  0  0  0  0  0
   -3.0852    1.5318   -2.0691 H   0  0  0  0  0  0  0  0  0  0  0  0
   -3.1203    2.5950    0.2035 H   0  0  0  0  0  0  0  0  0  0  0  0
   -1.5023    2.6510   -0.4986 H   0  0  0  0  0  0  0  0  0  0  0  0
   -1.4007    1.8847    1.8873 H   0  0  0  0  0  0  0  0  0  0  0  0
   -3.6802    0.8746    1.9977 H   0  0  0  0  0  0  0  0  0  0  0  0
   -2.4506   -0.2722    2.5361 H   0  0  0  0  0  0  0  0  0  0  0  0
   -0.6993    0.7904   -2.0187 H   0  0  0  0  0  0  0  0  0  0  0  0
   -1.7589   -0.5690   -2.4007 H   0  0  0  0  0  0  0  0  0  0  0  0
  1  2  1  0
  2  3  1  0
  3  4  2  0
  4  5  1  0
  5  6  1  0
  6  7  1  0
  7  8  2  0
  7  9  1  0
  9 10  1  0
 10 11  1  0
 11 12  1  0
 12 13  1  0
 13 14  1  0
 14 15  1  0
 15 16  1  0
 16 17  1  0
 14 18  1  0
  6 19  2  0
 19  3  1  0
 16  9  1  0
 18 10  1  0
 17 12  1  0
  1 20  1  0
  1 21  1  0
  1 22  1  0
  2 23  1  0
  2 24  1  0
  5 25  1  0
 10 26  1  6
 11 27  1  0
 11 28  1  0
 12 29  1  1
 13 30  1  0
 13 31  1  0
 14 32  1  6
 15 33  1  0
 15 34  1  0
 16 35  1  1
 17 36  1  0
 17 37  1  0
 18 38  1  0
 18 39  1  0
M  END
>  <_SMILES>  (52) 
CCc1n[nH]c(C(=O)N2[C@H]3C[C@@H]4C[C@@H](C[C@H]2C4)C3)n1

$$$$

     RDKit          3D

 24 26  0  0  0  0  0  0  0  0999 V2000
    0.1259    0.0933    1.5753 C   0  0  0  0  0  0  0  0  0  0  0  0
   -1.0593    0.6401    0.7548 C   0  0  1  0  0  0  0  0  0  0  0  0
   -0.5438    1.6711   -0.2593 C   0  0  0  0  0  0  0  0  0  0  0  0
    0.4765    0.9938   -1.1804 C   0  0  1  0  0  0  0  0  0  0  0  0
    1.6698    0.4832   -0.3659 C   0  0  0  0  0  0  0  0  0  0  0  0
    1.1714   -0.5571    0.6473 C   0  0  2  0  0  0  0  0  0  0  0  0
    0.5115   -1.6950   -0.1443 C   0  0  0  0  0  0  0  0  0  0  0  0
   -0.6480   -1.1208   -0.9653 C   0  0  1  0  0  0  0  0  0  0  0  0
   -1.7021   -0.5071   -0.0377 C   0  0  0  0  0  0  0  0  0  0  0  0
   -0.1488   -0.1102   -1.8609 O   0  0  0  0  0  0  0  0  0  0  0  0
   -0.2344   -0.6436    2.3035 H   0  0  0  0  0  0  0  0  0  0  0  0
    0.5901    0.9071    2.1458 H   0  0  0  0  0  0  0  0  0  0  0  0
   -1.7974    1.1003    1.4204 H   0  0  0  0  0  0  0  0  0  0  0  0
   -0.0900    2.5251    0.2568 H   0  0  0  0  0  0  0  0  0  0  0  0
   -1.3849    2.0499   -0.8525 H   0  0  0  0  0  0  0  0  0  0  0  0
    0.8195    1.7013   -1.9422 H   0  0  0  0  0  0  0  0  0  0  0  0
    2.1691    1.3127    0.1480 H   0  0  0  0  0  0  0  0  0  0  0  0
    2.4032    0.0169   -1.0350 H   0  0  0  0  0  0  0  0  0  0  0  0
    2.0099   -0.9429    1.2370 H   0  0  0  0  0  0  0  0  0  0  0  0
    0.1532   -2.4783    0.5337 H   0  0  0  0  0  0  0  0  0  0  0  0
    1.2517   -2.1486   -0.8147 H   0  0  0  0  0  0  0  0  0  0  0  0
   -1.1007   -1.9096   -1.5748 H   0  0  0  0  0  0  0  0  0  0  0  0
   -2.1059   -1.2659    0.6425 H   0  0  0  0  0  0  0  0  0  0  0  0
   -2.5365   -0.1156   -0.6322 H   0  0  0  0  0  0  0  0  0  0  0  0
  1  2  1  0
  2  3  1  0
  3  4  1  0
  4  5  1  0
  5  6  1  0
  6  7  1  0
  7  8  1  0
  8  9  1  0
  8 10  1  0
  6  1  1  0
  9  2  1  0
 10  4  1  0
  1 11  1  0
  1 12  1  0
  2 13  1  1
  3 14  1  0
  3 15  1  0
  4 16  1  6
  5 17  1  0
  5 18  1  0
  6 19  1  1
  7 20  1  0
  7 21  1  0
  8 22  1  6
  9 23  1  0
  9 24  1  0
M  END
>  <_SMILES>  (53) 
C1[C@H]2C[C@H]3C[C@@H]1C[C@@H](C2)O3

$$$$

     RDKit          3D

 29 31  0  0  0  0  0  0  0  0999 V2000
    2.6495   -0.0412   -0.1113 N   0  0  0  0  0  0  0  0  0  0  0  0
    1.1662   -0.0181   -0.0490 C   0  0  2  0  0  0  0  0  0  0  0  0
    0.5990   -0.1153   -1.4755 C   0  0  0  0  0  0  0  0  0  0  0  0
   -0.9397   -0.0918   -1.4159 C   0  0  1  0  0  0  0  0  0  0  0  0
   -1.4315   -1.2818   -0.5721 C   0  0  0  0  0  0  0  0  0  0  0  0
   -0.8615   -1.1928    0.8552 C   0  0  2  0  0  0  0  0  0  0  0  0
   -1.3225    0.1262    1.5015 C   0  0  0  0  0  0  0  0  0  0  0  0
   -0.8301    1.3254    0.6712 C   0  0  2  0  0  0  0  0  0  0  0  0
   -1.4003    1.2202   -0.7549 C   0  0  0  0  0  0  0  0  0  0  0  0
    0.7083    1.2970    0.6044 C   0  0  0  0  0  0  0  0  0  0  0  0
    0.6770   -1.2126    0.7878 C   0  0  0  0  0  0  0  0  0  0  0  0
    3.0187    0.7443   -0.6641 H   0  0  0  0  0  0  0  0  0  0  0  0
    2.9981   -0.9076   -0.5433 H   0  0  0  0  0  0  0  0  0  0  0  0
    3.0700    0.0221    0.8257 H   0  0  0  0  0  0  0  0  0  0  0  0
    0.9366   -1.0388   -1.9635 H   0  0  0  0  0  0  0  0  0  0  0  0
    0.9585    0.7187   -2.0920 H   0  0  0  0  0  0  0  0  0  0  0  0
   -1.3509   -0.1607   -2.4291 H   0  0  0  0  0  0  0  0  0  0  0  0
   -1.1230   -2.2248   -1.0399 H   0  0  0  0  0  0  0  0  0  0  0  0
   -2.5278   -1.2874   -0.5370 H   0  0  0  0  0  0  0  0  0  0  0  0
   -1.2171   -2.0413    1.4501 H   0  0  0  0  0  0  0  0  0  0  0  0
   -0.9356    0.1962    2.5256 H   0  0  0  0  0  0  0  0  0  0  0  0
   -2.4170    0.1451    1.5726 H   0  0  0  0  0  0  0  0  0  0  0  0
   -1.1635    2.2600    1.1357 H   0  0  0  0  0  0  0  0  0  0  0  0
   -2.4961    1.2580   -0.7230 H   0  0  0  0  0  0  0  0  0  0  0  0
   -1.0693    2.0772   -1.3543 H   0  0  0  0  0  0  0  0  0  0  0  0
    1.1247    1.3916    1.6156 H   0  0  0  0  0  0  0  0  0  0  0  0
    1.0701    2.1600    0.0306 H   0  0  0  0  0  0  0  0  0  0  0  0
    1.0162   -2.1585    0.3462 H   0  0  0  0  0  0  0  0  0  0  0  0
    1.0928   -1.1695    1.8028 H   0  0  0  0  0  0  0  0  0  0  0  0
  2  1  1  6
  2  3  1  0
  3  4  1  0
  4  5  1  0
  5  6  1  0
  6  7  1  0
  7  8  1  0
  8  9  1  0
  8 10  1  0
  6 11  1  0
 10  2  1  0
 11  2  1  0
  9  4  1  0
  1 12  1  0
  1 13  1  0
  1 14  1  0
  3 15  1  0
  3 16  1  0
  4 17  1  6
  5 18  1  0
  5 19  1  0
  6 20  1  1
  7 21  1  0
  7 22  1  0
  8 23  1  1
  9 24  1  0
  9 25  1  0
 10 26  1  0
 10 27  1  0
 11 28  1  0
 11 29  1  0
M  CHG  1   1   1
M  END
>  <_SMILES>  (54) 
[NH3+][C@]12C[C@H]3C[C@H](C[C@H](C3)C1)C2

$$$$

     RDKit          3D

 32 34  0  0  0  0  0  0  0  0999 V2000
    3.1652    0.7560   -0.4844 C   0  0  0  0  0  0  0  0  0  0  0  0
    2.1801    0.5828    0.6201 N   0  0  0  0  0  0  0  0  0  0  0  0
    0.7623    0.2078    0.2776 C   0  0  2  0  0  0  0  0  0  0  0  0
   -0.0151    0.1011    1.6109 C   0  0  0  0  0  0  0  0  0  0  0  0
   -1.4799   -0.2811    1.3386 C   0  0  1  0  0  0  0  0  0  0  0  0
   -2.1244    0.7962    0.4502 C   0  0  0  0  0  0  0  0  0  0  0  0
   -1.3624    0.9077   -0.8810 C   0  0  2  0  0  0  0  0  0  0  0  0
   -1.4012   -0.4528   -1.6007 C   0  0  0  0  0  0  0  0  0  0  0  0
   -0.7537   -1.5386   -0.7218 C   0  0  2  0  0  0  0  0  0  0  0  0
   -1.5197   -1.6340    0.6084 C   0  0  0  0  0  0  0  0  0  0  0  0
    0.7123   -1.1552   -0.4407 C   0  0  0  0  0  0  0  0  0  0  0  0
    0.1038    1.2905   -0.5999 C   0  0  0  0  0  0  0  0  0  0  0  0
    4.1188    1.0234   -0.0225 H   0  0  0  0  0  0  0  0  0  0  0  0
    2.8304    1.5641   -1.1366 H   0  0  0  0  0  0  0  0  0  0  0  0
    3.2662   -0.1877   -1.0226 H   0  0  0  0  0  0  0  0  0  0  0  0
    2.1628    1.4573    1.1635 H   0  0  0  0  0  0  0  0  0  0  0  0
    2.5565   -0.1249    1.2665 H   0  0  0  0  0  0  0  0  0  0  0  0
    0.4453   -0.6512    2.2648 H   0  0  0  0  0  0  0  0  0  0  0  0
    0.0208    1.0548    2.1537 H   0  0  0  0  0  0  0  0  0  0  0  0
   -2.0259   -0.3553    2.2857 H   0  0  0  0  0  0  0  0  0  0  0  0
   -3.1751    0.5451    0.2602 H   0  0  0  0  0  0  0  0  0  0  0  0
   -2.1166    1.7631    0.9682 H   0  0  0  0  0  0  0  0  0  0  0  0
   -1.8291    1.6730   -1.5112 H   0  0  0  0  0  0  0  0  0  0  0  0
   -2.4393   -0.7259   -1.8271 H   0  0  0  0  0  0  0  0  0  0  0  0
   -0.8739   -0.3841   -2.5601 H   0  0  0  0  0  0  0  0  0  0  0  0
   -0.7898   -2.5037   -1.2394 H   0  0  0  0  0  0  0  0  0  0  0  0
   -2.5598   -1.9277    0.4211 H   0  0  0  0  0  0  0  0  0  0  0  0
   -1.0773   -2.4140    1.2401 H   0  0  0  0  0  0  0  0  0  0  0  0
    1.1897   -1.9316    0.1704 H   0  0  0  0  0  0  0  0  0  0  0  0
    1.2549   -1.1184   -1.3928 H   0  0  0  0  0  0  0  0  0  0  0  0
    0.6294    1.3953   -1.5564 H   0  0  0  0  0  0  0  0  0  0  0  0
    0.1448    2.2681   -0.1029 H   0  0  0  0  0  0  0  0  0  0  0  0
  1  2  1  0
  3  2  1  1
  3  4  1  0
  4  5  1  0
  5  6  1  0
  6  7  1  0
  7  8  1  0
  8  9  1  0
  9 10  1  0
  9 11  1  0
  7 12  1  0
 11  3  1  0
 12  3  1  0
 10  5  1  0
  1 13  1  0
  1 14  1  0
  1 15  1  0
  2 16  1  0
  2 17  1  0
  4 18  1  0
  4 19  1  0
  5 20  1  1
  6 21  1  0
  6 22  1  0
  7 23  1  6
  8 24  1  0
  8 25  1  0
  9 26  1  6
 10 27  1  0
 10 28  1  0
 11 29  1  0
 11 30  1  0
 12 31  1  0
 12 32  1  0
M  CHG  1   2   1
M  END
>  <_SMILES>  (55) 
C[NH2+][C@]12C[C@H]3C[C@H](C[C@H](C3)C1)C2

$$$$

     RDKit          3D

 32 34  0  0  0  0  0  0  0  0999 V2000
    4.3261    0.1652    0.2554 N   0  0  0  0  0  0  0  0  0  0  0  0
    3.0444    0.5905    0.4095 C   0  0  0  0  0  0  0  0  0  0  0  0
    2.7940    1.7134    0.8139 O   0  0  0  0  0  0  0  0  0  0  0  0
    2.1511   -0.3809    0.0641 N   0  0  0  0  0  0  0  0  0  0  0  0
    0.6968   -0.1876    0.0498 C   0  0  2  0  0  0  0  0  0  0  0  0
    0.2737    0.8861   -0.9827 C   0  0  0  0  0  0  0  0  0  0  0  0
   -1.2584    1.0259   -1.0202 C   0  0  1  0  0  0  0  0  0  0  0  0
   -1.8821   -0.3210   -1.4193 C   0  0  0  0  0  0  0  0  0  0  0  0
   -1.4971   -1.4020   -0.3969 C   0  0  2  0  0  0  0  0  0  0  0  0
   -2.0075   -0.9931    0.9932 C   0  0  0  0  0  0  0  0  0  0  0  0
   -1.3833    0.3487    1.4062 C   0  0  2  0  0  0  0  0  0  0  0  0
   -1.7655    1.4252    0.3761 C   0  0  0  0  0  0  0  0  0  0  0  0
    0.1488    0.2074    1.4454 C   0  0  0  0  0  0  0  0  0  0  0  0
    0.0337   -1.5325   -0.3532 C   0  0  0  0  0  0  0  0  0  0  0  0
    4.9930    0.8333    0.6232 H   0  0  0  0  0  0  0  0  0  0  0  0
    4.5014   -0.7854    0.5476 H   0  0  0  0  0  0  0  0  0  0  0  0
    2.5199   -1.0025   -0.6416 H   0  0  0  0  0  0  0  0  0  0  0  0
    0.7179    1.8585   -0.7381 H   0  0  0  0  0  0  0  0  0  0  0  0
    0.6484    0.6193   -1.9796 H   0  0  0  0  0  0  0  0  0  0  0  0
   -1.5406    1.7937   -1.7493 H   0  0  0  0  0  0  0  0  0  0  0  0
   -2.9737   -0.2274   -1.4724 H   0  0  0  0  0  0  0  0  0  0  0  0
   -1.5385   -0.6114   -2.4198 H   0  0  0  0  0  0  0  0  0  0  0  0
   -1.9421   -2.3604   -0.6869 H   0  0  0  0  0  0  0  0  0  0  0  0
   -3.1012   -0.9104    0.9818 H   0  0  0  0  0  0  0  0  0  0  0  0
   -1.7543   -1.7666    1.7286 H   0  0  0  0  0  0  0  0  0  0  0  0
   -1.7523    0.6377    2.3967 H   0  0  0  0  0  0  0  0  0  0  0  0
   -1.3374    2.3921    0.6679 H   0  0  0  0  0  0  0  0  0  0  0  0
   -2.8548    1.5527    0.3556 H   0  0  0  0  0  0  0  0  0  0  0  0
    0.5815    1.1551    1.7855 H   0  0  0  0  0  0  0  0  0  0  0  0
    0.4360   -0.5461    2.1905 H   0  0  0  0  0  0  0  0  0  0  0  0
    0.4029   -1.8563   -1.3357 H   0  0  0  0  0  0  0  0  0  0  0  0
    0.3194   -2.3214    0.3555 H   0  0  0  0  0  0  0  0  0  0  0  0
  1  2  1  0
  2  3  2  0
  2  4  1  0
  5  4  1  1
  5  6  1  0
  6  7  1  0
  7  8  1  0
  8  9  1  0
  9 10  1  0
 10 11  1  0
 11 12  1  0
 11 13  1  0
  9 14  1  0
 13  5  1  0
 14  5  1  0
 12  7  1  0
  1 15  1  0
  1 16  1  0
  4 17  1  0
  6 18  1  0
  6 19  1  0
  7 20  1  6
  8 21  1  0
  8 22  1  0
  9 23  1  6
 10 24  1  0
 10 25  1  0
 11 26  1  1
 12 27  1  0
 12 28  1  0
 13 29  1  0
 13 30  1  0
 14 31  1  0
 14 32  1  0
M  END
>  <_SMILES>  (56) 
NC(=O)N[C@]12C[C@H]3C[C@H](C[C@H](C3)C1)C2

$$$$

     RDKit          3D

 27 29  0  0  0  0  0  0  0  0999 V2000
    2.7644    0.5134   -0.2939 O   0  0  0  0  0  0  0  0  0  0  0  0
    1.3747    0.2627   -0.1423 C   0  0  2  0  0  0  0  0  0  0  0  0
    0.7116    0.1201   -1.5240 C   0  0  0  0  0  0  0  0  0  0  0  0
   -0.7952   -0.1374   -1.3593 C   0  0  1  0  0  0  0  0  0  0  0  0
   -1.0006   -1.4289   -0.5473 C   0  0  0  0  0  0  0  0  0  0  0  0
   -0.3466   -1.2937    0.8397 C   0  0  2  0  0  0  0  0  0  0  0  0
   -0.9829   -0.1065    1.5845 C   0  0  0  0  0  0  0  0  0  0  0  0
   -0.7761    1.1927    0.7855 C   0  0  2  0  0  0  0  0  0  0  0  0
   -1.4286    1.0424   -0.6005 C   0  0  0  0  0  0  0  0  0  0  0  0
    0.7308    1.4410    0.6087 C   0  0  0  0  0  0  0  0  0  0  0  0
    1.1579   -1.0304    0.6640 C   0  0  0  0  0  0  0  0  0  0  0  0
    3.1541   -0.2399   -0.7695 H   0  0  0  0  0  0  0  0  0  0  0  0
    1.1799   -0.6984   -2.0859 H   0  0  0  0  0  0  0  0  0  0  0  0
    0.8837    1.0254   -2.1204 H   0  0  0  0  0  0  0  0  0  0  0  0
   -1.2642   -0.2398   -2.3441 H   0  0  0  0  0  0  0  0  0  0  0  0
   -2.0725   -1.6345   -0.4368 H   0  0  0  0  0  0  0  0  0  0  0  0
   -0.5663   -2.2813   -1.0841 H   0  0  0  0  0  0  0  0  0  0  0  0
   -0.4979   -2.2152    1.4126 H   0  0  0  0  0  0  0  0  0  0  0  0
   -0.5360   -0.0076    2.5814 H   0  0  0  0  0  0  0  0  0  0  0  0
   -2.0545   -0.2884    1.7322 H   0  0  0  0  0  0  0  0  0  0  0  0
   -1.2309    2.0336    1.3204 H   0  0  0  0  0  0  0  0  0  0  0  0
   -1.3024    1.9680   -1.1756 H   0  0  0  0  0  0  0  0  0  0  0  0
   -2.5078    0.8803   -0.4904 H   0  0  0  0  0  0  0  0  0  0  0  0
    1.2140    1.5758    1.5851 H   0  0  0  0  0  0  0  0  0  0  0  0
    0.9032    2.3769    0.0615 H   0  0  0  0  0  0  0  0  0  0  0  0
    1.6373   -1.8776    0.1567 H   0  0  0  0  0  0  0  0  0  0  0  0
    1.6511   -0.9528    1.6416 H   0  0  0  0  0  0  0  0  0  0  0  0
  2  1  1  6
  2  3  1  0
  3  4  1  0
  4  5  1  0
  5  6  1  0
  6  7  1  0
  7  8  1  0
  8  9  1  0
  8 10  1  0
  6 11  1  0
 10  2  1  0
 11  2  1  0
  9  4  1  0
  1 12  1  0
  3 13  1  0
  3 14  1  0
  4 15  1  6
  5 16  1  0
  5 17  1  0
  6 18  1  1
  7 19  1  0
  7 20  1  0
  8 21  1  1
  9 22  1  0
  9 23  1  0
 10 24  1  0
 10 25  1  0
 11 26  1  0
 11 27  1  0
M  END
>  <_SMILES>  (57) 
O[C@]12C[C@H]3C[C@H](C[C@H](C3)C1)C2

$$$$

     RDKit          3D

 33 35  0  0  0  0  0  0  0  0999 V2000
    4.1634   -0.7469    1.0242 C   0  0  0  0  0  0  0  0  0  0  0  0
    2.7515   -0.2374    1.1475 C   0  0  0  0  0  0  0  0  0  0  0  0
    2.3690    0.3580    2.1479 O   0  0  0  0  0  0  0  0  0  0  0  0
    1.9629   -0.5294    0.0569 N   0  0  0  0  0  0  0  0  0  0  0  0
    0.5402   -0.1910   -0.0625 C   0  0  2  0  0  0  0  0  0  0  0  0
    0.0362   -0.6745   -1.4497 C   0  0  0  0  0  0  0  0  0  0  0  0
   -1.4549   -0.3530   -1.6386 C   0  0  1  0  0  0  0  0  0  0  0  0
   -2.2650   -1.0535   -0.5366 C   0  0  0  0  0  0  0  0  0  0  0  0
   -1.8003   -0.5679    0.8455 C   0  0  2  0  0  0  0  0  0  0  0  0
   -1.9990    0.9544    0.9415 C   0  0  0  0  0  0  0  0  0  0  0  0
   -1.1911    1.6645   -0.1581 C   0  0  2  0  0  0  0  0  0  0  0  0
   -1.6599    1.1661   -1.5339 C   0  0  0  0  0  0  0  0  0  0  0  0
    0.3024    1.3381    0.0201 C   0  0  0  0  0  0  0  0  0  0  0  0
   -0.3075   -0.8966    1.0249 C   0  0  0  0  0  0  0  0  0  0  0  0
    4.8477   -0.0197    1.4703 H   0  0  0  0  0  0  0  0  0  0  0  0
    4.2475   -1.7016    1.5497 H   0  0  0  0  0  0  0  0  0  0  0  0
    4.4499   -0.8836   -0.0223 H   0  0  0  0  0  0  0  0  0  0  0  0
    2.3602   -1.1219   -0.6605 H   0  0  0  0  0  0  0  0  0  0  0  0
    0.1959   -1.7563   -1.5531 H   0  0  0  0  0  0  0  0  0  0  0  0
    0.6214   -0.2013   -2.2495 H   0  0  0  0  0  0  0  0  0  0  0  0
   -1.7876   -0.7041   -2.6218 H   0  0  0  0  0  0  0  0  0  0  0  0
   -3.3340   -0.8449   -0.6672 H   0  0  0  0  0  0  0  0  0  0  0  0
   -2.1412   -2.1407   -0.6133 H   0  0  0  0  0  0  0  0  0  0  0  0
   -2.3839   -1.0668    1.6272 H   0  0  0  0  0  0  0  0  0  0  0  0
   -3.0635    1.1992    0.8401 H   0  0  0  0  0  0  0  0  0  0  0  0
   -1.6830    1.3121    1.9291 H   0  0  0  0  0  0  0  0  0  0  0  0
   -1.3427    2.7474   -0.0869 H   0  0  0  0  0  0  0  0  0  0  0  0
   -2.7185    1.4126   -1.6814 H   0  0  0  0  0  0  0  0  0  0  0  0
   -1.1006    1.6759   -2.3280 H   0  0  0  0  0  0  0  0  0  0  0  0
    0.8921    1.8536   -0.7491 H   0  0  0  0  0  0  0  0  0  0  0  0
    0.6397    1.7373    0.9836 H   0  0  0  0  0  0  0  0  0  0  0  0
   -0.1557   -1.9829    0.9758 H   0  0  0  0  0  0  0  0  0  0  0  0
    0.0082   -0.5882    2.0286 H   0  0  0  0  0  0  0  0  0  0  0  0
  1  2  1  0
  2  3  2  0
  2  4  1  0
  5  4  1  1
  5  6  1  0
  6  7  1  0
  7  8  1  0
  8  9  1  0
  9 10  1  0
 10 11  1  0
 11 12  1  0
 11 13  1  0
  9 14  1  0
 13  5  1  0
 14  5  1  0
 12  7  1  0
  1 15  1  0
  1 16  1  0
  1 17  1  0
  4 18  1  0
  6 19  1  0
  6 20  1  0
  7 21  1  6
  8 22  1  0
  8 23  1  0
  9 24  1  1
 10 25  1  0
 10 26  1  0
 11 27  1  6
 12 28  1  0
 12 29  1  0
 13 30  1  0
 13 31  1  0
 14 32  1  0
 14 33  1  0
M  END
>  <_SMILES>  (58) 
CC(=O)N[C@]12C[C@H]3C[C@H](C[C@H](C3)C1)C2

$$$$

     RDKit          3D

 37 39  0  0  0  0  0  0  0  0999 V2000
    5.7383   -0.5213    0.1569 C   0  0  0  0  0  0  0  0  0  0  0  0
    4.4996   -0.0520   -0.5811 C   0  0  0  0  0  0  0  0  0  0  0  0
    3.3559   -0.3608    0.2241 O   0  0  0  0  0  0  0  0  0  0  0  0
    2.1739    0.0108   -0.3272 C   0  0  0  0  0  0  0  0  0  0  0  0
    2.0468    0.5612   -1.4089 O   0  0  0  0  0  0  0  0  0  0  0  0
    1.1725   -0.3338    0.5266 N   0  0  0  0  0  0  0  0  0  0  0  0
   -0.2545   -0.1095    0.3102 C   0  0  2  0  0  0  0  0  0  0  0  0
   -0.7639   -0.8524   -0.9500 C   0  0  0  0  0  0  0  0  0  0  0  0
   -2.2774   -0.6391   -1.1295 C   0  0  1  0  0  0  0  0  0  0  0  0
   -3.0171   -1.1855    0.1019 C   0  0  0  0  0  0  0  0  0  0  0  0
   -2.5458   -0.4500    1.3662 C   0  0  2  0  0  0  0  0  0  0  0  0
   -2.8348    1.0521    1.2189 C   0  0  0  0  0  0  0  0  0  0  0  0
   -2.0941    1.6113   -0.0061 C   0  0  2  0  0  0  0  0  0  0  0  0
   -2.5637    0.8659   -1.2669 C   0  0  0  0  0  0  0  0  0  0  0  0
   -0.5805    1.3986    0.1737 C   0  0  0  0  0  0  0  0  0  0  0  0
   -1.0324   -0.6581    1.5359 C   0  0  0  0  0  0  0  0  0  0  0  0
    5.6883   -1.5984    0.3478 H   0  0  0  0  0  0  0  0  0  0  0  0
    5.8162   -0.0284    1.1316 H   0  0  0  0  0  0  0  0  0  0  0  0
    6.6416   -0.3064   -0.4209 H   0  0  0  0  0  0  0  0  0  0  0  0
    4.4253   -0.5695   -1.5442 H   0  0  0  0  0  0  0  0  0  0  0  0
    4.5556    1.0300   -0.7457 H   0  0  0  0  0  0  0  0  0  0  0  0
    1.4866   -0.7832    1.3755 H   0  0  0  0  0  0  0  0  0  0  0  0
   -0.5449   -1.9253   -0.8701 H   0  0  0  0  0  0  0  0  0  0  0  0
   -0.2439   -0.4994   -1.8486 H   0  0  0  0  0  0  0  0  0  0  0  0
   -2.6196   -1.1639   -2.0285 H   0  0  0  0  0  0  0  0  0  0  0  0
   -4.0993   -1.0587   -0.0241 H   0  0  0  0  0  0  0  0  0  0  0  0
   -2.8324   -2.2620    0.2032 H   0  0  0  0  0  0  0  0  0  0  0  0
   -3.0741   -0.8440    2.2416 H   0  0  0  0  0  0  0  0  0  0  0  0
   -2.5189    1.5855    2.1238 H   0  0  0  0  0  0  0  0  0  0  0  0
   -3.9139    1.2175    1.1122 H   0  0  0  0  0  0  0  0  0  0  0  0
   -2.3064    2.6814   -0.1089 H   0  0  0  0  0  0  0  0  0  0  0  0
   -3.6376    1.0296   -1.4196 H   0  0  0  0  0  0  0  0  0  0  0  0
   -2.0520    1.2656   -2.1511 H   0  0  0  0  0  0  0  0  0  0  0  0
   -0.2298    1.9424    1.0607 H   0  0  0  0  0  0  0  0  0  0  0  0
   -0.0536    1.8364   -0.6825 H   0  0  0  0  0  0  0  0  0  0  0  0
   -0.8189   -1.7269    1.6710 H   0  0  0  0  0  0  0  0  0  0  0  0
   -0.6912   -0.1598    2.4533 H   0  0  0  0  0  0  0  0  0  0  0  0
  1  2  1  0
  2  3  1  0
  3  4  1  0
  4  5  2  0
  4  6  1  0
  7  6  1  1
  7  8  1  0
  8  9  1  0
  9 10  1  0
 10 11  1  0
 11 12  1  0
 12 13  1  0
 13 14  1  0
 13 15  1  0
 11 16  1  0
 15  7  1  0
 16  7  1  0
 14  9  1  0
  1 17  1  0
  1 18  1  0
  1 19  1  0
  2 20  1  0
  2 21  1  0
  6 22  1  0
  8 23  1  0
  8 24  1  0
  9 25  1  6
 10 26  1  0
 10 27  1  0
 11 28  1  1
 12 29  1  0
 12 30  1  0
 13 31  1  6
 14 32  1  0
 14 33  1  0
 15 34  1  0
 15 35  1  0
 16 36  1  0
 16 37  1  0
M  END
>  <_SMILES>  (59) 
CCOC(=O)N[C@]12C[C@H]3C[C@H](C[C@H](C3)C1)C2

$$$$

     RDKit          3D

 36 38  0  0  0  0  0  0  0  0999 V2000
    4.9382   -0.0199    0.9357 C   0  0  0  0  0  0  0  0  0  0  0  0
    3.8472    0.4203   -0.0240 C   0  0  0  0  0  0  0  0  0  0  0  0
    2.4630    0.0095    0.4433 C   0  0  0  0  0  0  0  0  0  0  0  0
    2.2591   -0.6082    1.4807 O   0  0  0  0  0  0  0  0  0  0  0  0
    1.4742    0.4116   -0.4318 N   0  0  0  0  0  0  0  0  0  0  0  0
    0.0402    0.1609   -0.2516 C   0  0  2  0  0  0  0  0  0  0  0  0
   -0.2765   -1.3551   -0.2146 C   0  0  0  0  0  0  0  0  0  0  0  0
   -1.7914   -1.5886   -0.0762 C   0  0  1  0  0  0  0  0  0  0  0  0
   -2.2901   -0.9236    1.2182 C   0  0  0  0  0  0  0  0  0  0  0  0
   -2.0148    0.5892    1.1766 C   0  0  2  0  0  0  0  0  0  0  0  0
   -2.7362    1.2028   -0.0335 C   0  0  0  0  0  0  0  0  0  0  0  0
   -2.2351    0.5480   -1.3302 C   0  0  2  0  0  0  0  0  0  0  0  0
   -2.5142   -0.9621   -1.2790 C   0  0  0  0  0  0  0  0  0  0  0  0
   -0.7206    0.7766   -1.4575 C   0  0  0  0  0  0  0  0  0  0  0  0
   -0.5000    0.8249    1.0395 C   0  0  0  0  0  0  0  0  0  0  0  0
    4.7897    0.4190    1.9278 H   0  0  0  0  0  0  0  0  0  0  0  0
    4.9464   -1.1091    1.0488 H   0  0  0  0  0  0  0  0  0  0  0  0
    5.9197    0.2931    0.5666 H   0  0  0  0  0  0  0  0  0  0  0  0
    3.8699    1.5110   -0.1268 H   0  0  0  0  0  0  0  0  0  0  0  0
    4.0272   -0.0235   -1.0096 H   0  0  0  0  0  0  0  0  0  0  0  0
    1.7608    0.9174   -1.2600 H   0  0  0  0  0  0  0  0  0  0  0  0
    0.0946   -1.8405   -1.1268 H   0  0  0  0  0  0  0  0  0  0  0  0
    0.2366   -1.8430    0.6224 H   0  0  0  0  0  0  0  0  0  0  0  0
   -1.9969   -2.6644   -0.0418 H   0  0  0  0  0  0  0  0  0  0  0  0
   -1.7910   -1.3717    2.0861 H   0  0  0  0  0  0  0  0  0  0  0  0
   -3.3651   -1.1044    1.3409 H   0  0  0  0  0  0  0  0  0  0  0  0
   -2.3784    1.0564    2.0987 H   0  0  0  0  0  0  0  0  0  0  0  0
   -3.8195    1.0604    0.0640 H   0  0  0  0  0  0  0  0  0  0  0  0
   -2.5591    2.2848   -0.0667 H   0  0  0  0  0  0  0  0  0  0  0  0
   -2.7499    0.9901   -2.1905 H   0  0  0  0  0  0  0  0  0  0  0  0
   -3.5937   -1.1415   -1.2027 H   0  0  0  0  0  0  0  0  0  0  0  0
   -2.1774   -1.4378   -2.2082 H   0  0  0  0  0  0  0  0  0  0  0  0
   -0.5136    1.8531   -1.5241 H   0  0  0  0  0  0  0  0  0  0  0  0
   -0.3582    0.3369   -2.3964 H   0  0  0  0  0  0  0  0  0  0  0  0
   -0.2892    1.9023    1.0263 H   0  0  0  0  0  0  0  0  0  0  0  0
    0.0041    0.4250    1.9271 H   0  0  0  0  0  0  0  0  0  0  0  0
  1  2  1  0
  2  3  1  0
  3  4  2  0
  3  5  1  0
  6  5  1  6
  6  7  1  0
  7  8  1  0
  8  9  1  0
  9 10  1  0
 10 11  1  0
 11 12  1  0
 12 13  1  0
 12 14  1  0
 10 15  1  0
 14  6  1  0
 15  6  1  0
 13  8  1  0
  1 16  1  0
  1 17  1  0
  1 18  1  0
  2 19  1  0
  2 20  1  0
  5 21  1  0
  7 22  1  0
  7 23  1  0
  8 24  1  1
  9 25  1  0
  9 26  1  0
 10 27  1  1
 11 28  1  0
 11 29  1  0
 12 30  1  6
 13 31  1  0
 13 32  1  0
 14 33  1  0
 14 34  1  0
 15 35  1  0
 15 36  1  0
M  END
>  <_SMILES>  (60) 
CCC(=O)N[C@]12C[C@H]3C[C@H](C[C@H](C3)C1)C2

$$$$

     RDKit          3D

 39 41  0  0  0  0  0  0  0  0999 V2000
    5.8075   -0.4244   -0.0043 C   0  0  0  0  0  0  0  0  0  0  0  0
    4.4095   -0.9216   -0.3337 C   0  0  0  0  0  0  0  0  0  0  0  0
    3.3412    0.0678    0.1236 C   0  0  0  0  0  0  0  0  0  0  0  0
    1.9359   -0.4106   -0.1963 C   0  0  0  0  0  0  0  0  0  0  0  0
    1.6979   -1.4722   -0.7582 O   0  0  0  0  0  0  0  0  0  0  0  0
    0.9710    0.4853    0.2179 N   0  0  0  0  0  0  0  0  0  0  0  0
   -0.4743    0.3013    0.0483 C   0  0  2  0  0  0  0  0  0  0  0  0
   -0.8680    0.2016   -1.4467 C   0  0  0  0  0  0  0  0  0  0  0  0
   -2.3931    0.0605   -1.5968 C   0  0  1  0  0  0  0  0  0  0  0  0
   -2.8604   -1.2023   -0.8530 C   0  0  0  0  0  0  0  0  0  0  0  0
   -2.5083   -1.0981    0.6408 C   0  0  2  0  0  0  0  0  0  0  0  0
   -3.1946    0.1403    1.2382 C   0  0  0  0  0  0  0  0  0  0  0  0
   -2.7243    1.4057    0.5043 C   0  0  2  0  0  0  0  0  0  0  0  0
   -3.0802    1.2919   -0.9862 C   0  0  0  0  0  0  0  0  0  0  0  0
   -1.1998    1.5356    0.6500 C   0  0  0  0  0  0  0  0  0  0  0  0
   -0.9832   -0.9581    0.7931 C   0  0  0  0  0  0  0  0  0  0  0  0
    6.5563   -1.1483   -0.3406 H   0  0  0  0  0  0  0  0  0  0  0  0
    5.9302   -0.2850    1.0745 H   0  0  0  0  0  0  0  0  0  0  0  0
    6.0112    0.5302   -0.4999 H   0  0  0  0  0  0  0  0  0  0  0  0
    4.3292   -1.0854   -1.4150 H   0  0  0  0  0  0  0  0  0  0  0  0
    4.2488   -1.8941    0.1468 H   0  0  0  0  0  0  0  0  0  0  0  0
    3.4132    0.2189    1.2072 H   0  0  0  0  0  0  0  0  0  0  0  0
    3.4943    1.0352   -0.3693 H   0  0  0  0  0  0  0  0  0  0  0  0
    1.2850    1.3329    0.6729 H   0  0  0  0  0  0  0  0  0  0  0  0
   -0.5198    1.0908   -1.9886 H   0  0  0  0  0  0  0  0  0  0  0  0
   -0.3824   -0.6576   -1.9241 H   0  0  0  0  0  0  0  0  0  0  0  0
   -2.6532   -0.0185   -2.6584 H   0  0  0  0  0  0  0  0  0  0  0  0
   -3.9435   -1.3276   -0.9736 H   0  0  0  0  0  0  0  0  0  0  0  0
   -2.3869   -2.0907   -1.2886 H   0  0  0  0  0  0  0  0  0  0  0  0
   -2.8499   -1.9979    1.1646 H   0  0  0  0  0  0  0  0  0  0  0  0
   -4.2839    0.0418    1.1553 H   0  0  0  0  0  0  0  0  0  0  0  0
   -2.9625    0.2184    2.3074 H   0  0  0  0  0  0  0  0  0  0  0  0
   -3.2137    2.2863    0.9351 H   0  0  0  0  0  0  0  0  0  0  0  0
   -2.7657    2.1987   -1.5173 H   0  0  0  0  0  0  0  0  0  0  0  0
   -4.1676    1.2131   -1.1070 H   0  0  0  0  0  0  0  0  0  0  0  0
   -0.8580    2.4534    0.1530 H   0  0  0  0  0  0  0  0  0  0  0  0
   -0.9381    1.6468    1.7109 H   0  0  0  0  0  0  0  0  0  0  0  0
   -0.7177   -0.9003    1.8569 H   0  0  0  0  0  0  0  0  0  0  0  0
   -0.5023   -1.8641    0.4063 H   0  0  0  0  0  0  0  0  0  0  0  0
  1  2  1  0
  2  3  1  0
  3  4  1  0
  4  5  2  0
  4  6  1  0
  7  6  1  6
  7  8  1  0
  8  9  1  0
  9 10  1  0
 10 11  1  0
 11 12  1  0
 12 13  1  0
 13 14  1  0
 13 15  1  0
 11 16  1  0
 15  7  1  0
 16  7  1  0
 14  9  1  0
  1 17  1  0
  1 18  1  0
  1 19  1  0
  2 20  1  0
  2 21  1  0
  3 22  1  0
  3 23  1  0
  6 24  1  0
  8 25  1  0
  8 26  1  0
  9 27  1  6
 10 28  1  0
 10 29  1  0
 11 30  1  1
 12 31  1  0
 12 32  1  0
 13 33  1  1
 14 34  1  0
 14 35  1  0
 15 36  1  0
 15 37  1  0
 16 38  1  0
 16 39  1  0
M  END
>  <_SMILES>  (61) 
CCCC(=O)N[C@]12C[C@H]3C[C@H](C[C@H](C3)C1)C2

$$$$

     RDKit          3D

 34 36  0  0  0  0  0  0  0  0999 V2000
    5.0053   -0.4393   -0.7421 C   0  0  0  0  0  0  0  0  0  0  0  0
    3.9212   -0.1410    0.1379 O   0  0  0  0  0  0  0  0  0  0  0  0
    2.6994   -0.2431   -0.4421 C   0  0  0  0  0  0  0  0  0  0  0  0
    2.4988   -0.5572   -1.6041 O   0  0  0  0  0  0  0  0  0  0  0  0
    1.7537    0.0621    0.4870 N   0  0  0  0  0  0  0  0  0  0  0  0
    0.3092    0.0721    0.2696 C   0  0  2  0  0  0  0  0  0  0  0  0
   -0.3874    0.4759    1.5963 C   0  0  0  0  0  0  0  0  0  0  0  0
   -1.9152    0.5042    1.4300 C   0  0  1  0  0  0  0  0  0  0  0  0
   -2.2847    1.5210    0.3387 C   0  0  0  0  0  0  0  0  0  0  0  0
   -1.6257    1.1254   -0.9921 C   0  0  2  0  0  0  0  0  0  0  0  0
   -2.1109   -0.2757   -1.4017 C   0  0  0  0  0  0  0  0  0  0  0  0
   -1.7442   -1.3013   -0.3157 C   0  0  2  0  0  0  0  0  0  0  0  0
   -2.4026   -0.8918    1.0113 C   0  0  0  0  0  0  0  0  0  0  0  0
   -0.2157   -1.3270   -0.1387 C   0  0  0  0  0  0  0  0  0  0  0  0
   -0.0972    1.1003   -0.8153 C   0  0  0  0  0  0  0  0  0  0  0  0
    5.0224    0.2622   -1.5822 H   0  0  0  0  0  0  0  0  0  0  0  0
    4.9377   -1.4719   -1.0988 H   0  0  0  0  0  0  0  0  0  0  0  0
    5.9372   -0.3283   -0.1807 H   0  0  0  0  0  0  0  0  0  0  0  0
    2.1256    0.2976    1.3967 H   0  0  0  0  0  0  0  0  0  0  0  0
   -0.1152   -0.2274    2.3948 H   0  0  0  0  0  0  0  0  0  0  0  0
   -0.0327    1.4624    1.9237 H   0  0  0  0  0  0  0  0  0  0  0  0
   -2.3854    0.7912    2.3772 H   0  0  0  0  0  0  0  0  0  0  0  0
   -1.9576    2.5252    0.6351 H   0  0  0  0  0  0  0  0  0  0  0  0
   -3.3743    1.5634    0.2194 H   0  0  0  0  0  0  0  0  0  0  0  0
   -1.8953    1.8511   -1.7676 H   0  0  0  0  0  0  0  0  0  0  0  0
   -3.1971   -0.2652   -1.5544 H   0  0  0  0  0  0  0  0  0  0  0  0
   -1.6579   -0.5644   -2.3582 H   0  0  0  0  0  0  0  0  0  0  0  0
   -2.0978   -2.2953   -0.6117 H   0  0  0  0  0  0  0  0  0  0  0  0
   -3.4942   -0.8909    0.9036 H   0  0  0  0  0  0  0  0  0  0  0  0
   -2.1602   -1.6235    1.7916 H   0  0  0  0  0  0  0  0  0  0  0  0
    0.0598   -2.0700    0.6212 H   0  0  0  0  0  0  0  0  0  0  0  0
    0.2473   -1.6600   -1.0752 H   0  0  0  0  0  0  0  0  0  0  0  0
    0.3703    0.8587   -1.7773 H   0  0  0  0  0  0  0  0  0  0  0  0
    0.2635    2.1005   -0.5414 H   0  0  0  0  0  0  0  0  0  0  0  0
  1  2  1  0
  2  3  1  0
  3  4  2  0
  3  5  1  0
  6  5  1  1
  6  7  1  0
  7  8  1  0
  8  9  1  0
  9 10  1  0
 10 11  1  0
 11 12  1  0
 12 13  1  0
 12 14  1  0
 10 15  1  0
 14  6  1  0
 15  6  1  0
 13  8  1  0
  1 16  1  0
  1 17  1  0
  1 18  1  0
  5 19  1  0
  7 20  1  0
  7 21  1  0
  8 22  1  1
  9 23  1  0
  9 24  1  0
 10 25  1  6
 11 26  1  0
 11 27  1  0
 12 28  1  6
 13 29  1  0
 13 30  1  0
 14 31  1  0
 14 32  1  0
 15 33  1  0
 15 34  1  0
M  END
>  <_SMILES>  (62) 
COC(=O)N[C@]12C[C@H]3C[C@H](C[C@H](C3)C1)C2

$$$$

     RDKit          3D

 34 36  0  0  0  0  0  0  0  0999 V2000
    5.0752   -0.1629    1.1805 C   0  0  0  0  0  0  0  0  0  0  0  0
    4.0857   -0.3076    0.2899 C   0  0  0  0  0  0  0  0  0  0  0  0
    2.6689   -0.1101    0.6970 C   0  0  0  0  0  0  0  0  0  0  0  0
    2.3548    0.1871    1.8408 O   0  0  0  0  0  0  0  0  0  0  0  0
    1.7920   -0.2990   -0.3440 N   0  0  0  0  0  0  0  0  0  0  0  0
    0.3342   -0.1710   -0.2378 C   0  0  2  0  0  0  0  0  0  0  0  0
   -0.2593   -1.1889    0.7682 C   0  0  0  0  0  0  0  0  0  0  0  0
   -1.7926   -1.0670    0.8213 C   0  0  1  0  0  0  0  0  0  0  0  0
   -2.1726    0.3620    1.2455 C   0  0  0  0  0  0  0  0  0  0  0  0
   -1.6207    1.3797    0.2326 C   0  0  2  0  0  0  0  0  0  0  0  0
   -2.2030    1.0785   -1.1572 C   0  0  0  0  0  0  0  0  0  0  0  0
   -1.8186   -0.3450   -1.5895 C   0  0  2  0  0  0  0  0  0  0  0  0
   -2.3739   -1.3537   -0.5720 C   0  0  0  0  0  0  0  0  0  0  0  0
   -0.2868   -0.4627   -1.6314 C   0  0  0  0  0  0  0  0  0  0  0  0
   -0.0872    1.2604    0.1789 C   0  0  0  0  0  0  0  0  0  0  0  0
    6.1109   -0.3049    0.8927 H   0  0  0  0  0  0  0  0  0  0  0  0
    4.8718    0.1005    2.2155 H   0  0  0  0  0  0  0  0  0  0  0  0
    4.3039   -0.5700   -0.7368 H   0  0  0  0  0  0  0  0  0  0  0  0
    2.1678   -0.5433   -1.2494 H   0  0  0  0  0  0  0  0  0  0  0  0
    0.1454   -1.0279    1.7743 H   0  0  0  0  0  0  0  0  0  0  0  0
    0.0247   -2.2104    0.4832 H   0  0  0  0  0  0  0  0  0  0  0  0
   -2.1947   -1.7861    1.5438 H   0  0  0  0  0  0  0  0  0  0  0  0
   -1.7745    0.5745    2.2453 H   0  0  0  0  0  0  0  0  0  0  0  0
   -3.2637    0.4544    1.3112 H   0  0  0  0  0  0  0  0  0  0  0  0
   -1.9010    2.3940    0.5380 H   0  0  0  0  0  0  0  0  0  0  0  0
   -1.8277    1.8065   -1.8869 H   0  0  0  0  0  0  0  0  0  0  0  0
   -3.2948    1.1822   -1.1368 H   0  0  0  0  0  0  0  0  0  0  0  0
   -2.2333   -0.5547   -2.5818 H   0  0  0  0  0  0  0  0  0  0  0  0
   -2.1215   -2.3756   -0.8806 H   0  0  0  0  0  0  0  0  0  0  0  0
   -3.4686   -1.2915   -0.5416 H   0  0  0  0  0  0  0  0  0  0  0  0
   -0.0026   -1.4689   -1.9678 H   0  0  0  0  0  0  0  0  0  0  0  0
    0.1171    0.2346   -2.3776 H   0  0  0  0  0  0  0  0  0  0  0  0
    0.3244    1.5205    1.1611 H   0  0  0  0  0  0  0  0  0  0  0  0
    0.3201    1.9946   -0.5286 H   0  0  0  0  0  0  0  0  0  0  0  0
  1  2  2  0
  2  3  1  0
  3  4  2  0
  3  5  1  0
  6  5  1  6
  6  7  1  0
  7  8  1  0
  8  9  1  0
  9 10  1  0
 10 11  1  0
 11 12  1  0
 12 13  1  0
 12 14  1  0
 10 15  1  0
 14  6  1  0
 15  6  1  0
 13  8  1  0
  1 16  1  0
  1 17  1  0
  2 18  1  0
  5 19  1  0
  7 20  1  0
  7 21  1  0
  8 22  1  1
  9 23  1  0
  9 24  1  0
 10 25  1  1
 11 26  1  0
 11 27  1  0
 12 28  1  6
 13 29  1  0
 13 30  1  0
 14 31  1  0
 14 32  1  0
 15 33  1  0
 15 34  1  0
M  END
>  <_SMILES>  (63) 
C=CC(=O)N[C@]12C[C@H]3C[C@H](C[C@H](C3)C1)C2

$$$$

     RDKit          3D

 30 32  0  0  0  0  0  0  0  0999 V2000
   -3.0711    1.9818   -0.2138 O   0  0  0  0  0  0  0  0  0  0  0  0
   -3.3524    0.8310    0.0818 C   0  0  0  0  0  0  0  0  0  0  0  0
   -2.4782   -0.2109    0.2558 N   0  0  0  0  0  0  0  0  0  0  0  0
   -1.0223   -0.1173    0.1127 C   0  0  2  0  0  0  0  0  0  0  0  0
   -0.4116    0.8826    1.1262 C   0  0  0  0  0  0  0  0  0  0  0  0
    1.1205    0.9261    0.9879 C   0  0  1  0  0  0  0  0  0  0  0  0
    1.6956   -0.4721    1.2634 C   0  0  0  0  0  0  0  0  0  0  0  0
    1.1226   -1.4827    0.2576 C   0  0  2  0  0  0  0  0  0  0  0  0
    1.4936   -1.0477   -1.1687 C   0  0  0  0  0  0  0  0  0  0  0  0
    0.9173    0.3472   -1.4585 C   0  0  2  0  0  0  0  0  0  0  0  0
    1.4877    1.3526   -0.4437 C   0  0  0  0  0  0  0  0  0  0  0  0
   -0.6150    0.3034   -1.3216 C   0  0  0  0  0  0  0  0  0  0  0  0
   -0.4082   -1.5155    0.3925 C   0  0  0  0  0  0  0  0  0  0  0  0
   -4.3955    0.5109    0.2442 H   0  0  0  0  0  0  0  0  0  0  0  0
   -2.8769   -1.1081    0.5012 H   0  0  0  0  0  0  0  0  0  0  0  0
   -0.8129    1.8911    0.9711 H   0  0  0  0  0  0  0  0  0  0  0  0
   -0.6862    0.5970    2.1502 H   0  0  0  0  0  0  0  0  0  0  0  0
    1.5351    1.6435    1.7050 H   0  0  0  0  0  0  0  0  0  0  0  0
    2.7898   -0.4487    1.1892 H   0  0  0  0  0  0  0  0  0  0  0  0
    1.4526   -0.7825    2.2871 H   0  0  0  0  0  0  0  0  0  0  0  0
    1.5333   -2.4783    0.4591 H   0  0  0  0  0  0  0  0  0  0  0  0
    1.1052   -1.7721   -1.8950 H   0  0  0  0  0  0  0  0  0  0  0  0
    2.5843   -1.0342   -1.2847 H   0  0  0  0  0  0  0  0  0  0  0  0
    1.1879    0.6544   -2.4749 H   0  0  0  0  0  0  0  0  0  0  0  0
    2.5781    1.4111   -0.5481 H   0  0  0  0  0  0  0  0  0  0  0  0
    1.0943    2.3559   -0.6484 H   0  0  0  0  0  0  0  0  0  0  0  0
   -1.0355   -0.3979   -2.0543 H   0  0  0  0  0  0  0  0  0  0  0  0
   -1.0241    1.2896   -1.5712 H   0  0  0  0  0  0  0  0  0  0  0  0
   -0.6833   -1.8535    1.4007 H   0  0  0  0  0  0  0  0  0  0  0  0
   -0.8248   -2.2566   -0.3028 H   0  0  0  0  0  0  0  0  0  0  0  0
  1  2  2  0
  2  3  1  0
  4  3  1  6
  4  5  1  0
  5  6  1  0
  6  7  1  0
  7  8  1  0
  8  9  1  0
  9 10  1  0
 10 11  1  0
 10 12  1  0
  8 13  1  0
 12  4  1  0
 13  4  1  0
 11  6  1  0
  2 14  1  0
  3 15  1  0
  5 16  1  0
  5 17  1  0
  6 18  1  1
  7 19  1  0
  7 20  1  0
  8 21  1  1
  9 22  1  0
  9 23  1  0
 10 24  1  6
 11 25  1  0
 11 26  1  0
 12 27  1  0
 12 28  1  0
 13 29  1  0
 13 30  1  0
M  END
>  <_SMILES>  (64) 
O=CN[C@]12C[C@H]3C[C@H](C[C@H](C3)C1)C2

$$$$

     RDKit          3D

 36 38  0  0  0  0  0  0  0  0999 V2000
    4.4445   -0.9866    0.5751 C   0  0  0  0  0  0  0  0  0  0  0  0
    3.4653    0.0530    0.0996 C   0  0  0  0  0  0  0  0  0  0  0  0
    3.5759    0.5940   -0.9953 O   0  0  0  0  0  0  0  0  0  0  0  0
    2.4465    0.3122    0.9869 N   0  0  0  0  0  0  0  0  0  0  0  0
    1.3886    1.2627    0.7024 C   0  0  0  0  0  0  0  0  0  0  0  0
    0.0705    0.6089    0.2319 C   0  0  2  0  0  0  0  0  0  0  0  0
   -0.4866   -0.3722    1.2958 C   0  0  0  0  0  0  0  0  0  0  0  0
   -1.8254   -0.9739    0.8323 C   0  0  1  0  0  0  0  0  0  0  0  0
   -2.8423    0.1572    0.6123 C   0  0  0  0  0  0  0  0  0  0  0  0
   -2.3237    1.1289   -0.4594 C   0  0  2  0  0  0  0  0  0  0  0  0
   -2.1072    0.3671   -1.7763 C   0  0  0  0  0  0  0  0  0  0  0  0
   -1.0869   -0.7629   -1.5675 C   0  0  2  0  0  0  0  0  0  0  0  0
   -1.6110   -1.7274   -0.4907 C   0  0  0  0  0  0  0  0  0  0  0  0
    0.2511   -0.1620   -1.1006 C   0  0  0  0  0  0  0  0  0  0  0  0
   -0.9847    1.7251    0.0048 C   0  0  0  0  0  0  0  0  0  0  0  0
    5.4618   -0.6292    0.3930 H   0  0  0  0  0  0  0  0  0  0  0  0
    4.3386   -1.1837    1.6455 H   0  0  0  0  0  0  0  0  0  0  0  0
    4.2749   -1.9152    0.0239 H   0  0  0  0  0  0  0  0  0  0  0  0
    2.4053   -0.2008    1.8574 H   0  0  0  0  0  0  0  0  0  0  0  0
    1.2206    1.8186    1.6323 H   0  0  0  0  0  0  0  0  0  0  0  0
    1.7420    1.9822   -0.0456 H   0  0  0  0  0  0  0  0  0  0  0  0
    0.2263   -1.1854    1.4808 H   0  0  0  0  0  0  0  0  0  0  0  0
   -0.6277    0.1476    2.2521 H   0  0  0  0  0  0  0  0  0  0  0  0
   -2.2019   -1.6656    1.5943 H   0  0  0  0  0  0  0  0  0  0  0  0
   -3.8075   -0.2619    0.3023 H   0  0  0  0  0  0  0  0  0  0  0  0
   -3.0158    0.6938    1.5531 H   0  0  0  0  0  0  0  0  0  0  0  0
   -3.0525    1.9325   -0.6131 H   0  0  0  0  0  0  0  0  0  0  0  0
   -3.0591   -0.0481   -2.1297 H   0  0  0  0  0  0  0  0  0  0  0  0
   -1.7517    1.0545   -2.5536 H   0  0  0  0  0  0  0  0  0  0  0  0
   -0.9390   -1.3050   -2.5082 H   0  0  0  0  0  0  0  0  0  0  0  0
   -0.8985   -2.5483   -0.3436 H   0  0  0  0  0  0  0  0  0  0  0  0
   -2.5541   -2.1800   -0.8208 H   0  0  0  0  0  0  0  0  0  0  0  0
    0.6442    0.5087   -1.8752 H   0  0  0  0  0  0  0  0  0  0  0  0
    0.9809   -0.9721   -0.9819 H   0  0  0  0  0  0  0  0  0  0  0  0
   -0.6224    2.4402   -0.7454 H   0  0  0  0  0  0  0  0  0  0  0  0
   -1.1389    2.2935    0.9313 H   0  0  0  0  0  0  0  0  0  0  0  0
  1  2  1  0
  2  3  2  0
  2  4  1  0
  4  5  1  0
  6  5  1  1
  6  7  1  0
  7  8  1  0
  8  9  1  0
  9 10  1  0
 10 11  1  0
 11 12  1  0
 12 13  1  0
 12 14  1  0
 10 15  1  0
 14  6  1  0
 15  6  1  0
 13  8  1  0
  1 16  1  0
  1 17  1  0
  1 18  1  0
  4 19  1  0
  5 20  1  0
  5 21  1  0
  7 22  1  0
  7 23  1  0
  8 24  1  1
  9 25  1  0
  9 26  1  0
 10 27  1  6
 11 28  1  0
 11 29  1  0
 12 30  1  6
 13 31  1  0
 13 32  1  0
 14 33  1  0
 14 34  1  0
 15 35  1  0
 15 36  1  0
M  END
>  <_SMILES>  (65) 
CC(=O)NC[C@]12C[C@H]3C[C@H](C[C@H](C3)C1)C2

$$$$

     RDKit          3D

 26 28  0  0  0  0  0  0  0  0999 V2000
    0.9743    1.2904   -0.7286 C   0  0  0  0  0  0  0  0  0  0  0  0
    1.3797    0.4718    0.5098 C   0  0  0  0  0  0  0  0  0  0  0  0
    0.3231    0.6660    1.6116 C   0  0  0  0  0  0  0  0  0  0  0  0
   -1.0547    0.1980    1.1110 C   0  0  0  0  0  0  0  0  0  0  0  0
   -1.4462    1.0182   -0.1308 C   0  0  0  0  0  0  0  0  0  0  0  0
   -0.3998    0.8259   -1.2426 C   0  0  0  0  0  0  0  0  0  0  0  0
   -0.3231   -0.6660   -1.6116 C   0  0  0  0  0  0  0  0  0  0  0  0
    0.0748   -1.4958   -0.3782 C   0  0  0  0  0  0  0  0  0  0  0  0
    1.4462   -1.0182    0.1308 C   0  0  0  0  0  0  0  0  0  0  0  0
   -0.9743   -1.2904    0.7286 C   0  0  0  0  0  0  0  0  0  0  0  0
    0.9387    2.3575   -0.4769 H   0  0  0  0  0  0  0  0  0  0  0  0
    1.7278    1.1741   -1.5173 H   0  0  0  0  0  0  0  0  0  0  0  0
    2.3583    0.8065    0.8714 H   0  0  0  0  0  0  0  0  0  0  0  0
    0.2764    1.7224    1.9035 H   0  0  0  0  0  0  0  0  0  0  0  0
    0.6080    0.1004    2.5073 H   0  0  0  0  0  0  0  0  0  0  0  0
   -1.8028    0.3385    1.8991 H   0  0  0  0  0  0  0  0  0  0  0  0
   -1.5233    2.0806    0.1312 H   0  0  0  0  0  0  0  0  0  0  0  0
   -2.4349    0.7060   -0.4892 H   0  0  0  0  0  0  0  0  0  0  0  0
   -0.6834    1.4118   -2.1239 H   0  0  0  0  0  0  0  0  0  0  0  0
    0.4081   -0.8158   -2.4154 H   0  0  0  0  0  0  0  0  0  0  0  0
   -1.2925   -1.0071   -1.9953 H   0  0  0  0  0  0  0  0  0  0  0  0
    0.1279   -2.5567   -0.6465 H   0  0  0  0  0  0  0  0  0  0  0  0
    2.2078   -1.1739   -0.6432 H   0  0  0  0  0  0  0  0  0  0  0  0
    1.7503   -1.6126    1.0011 H   0  0  0  0  0  0  0  0  0  0  0  0
   -0.7117   -1.8895    1.6092 H   0  0  0  0  0  0  0  0  0  0  0  0
   -1.9549   -1.6421    0.3850 H   0  0  0  0  0  0  0  0  0  0  0  0
  1  2  1  0
  2  3  1  0
  3  4  1  0
  4  5  1  0
  5  6  1  0
  6  7  1  0
  7  8  1  0
  8  9  1  0
  8 10  1  0
  6  1  1  0
  9  2  1  0
 10  4  1  0
  1 11  1  0
  1 12  1  0
  2 13  1  0
  3 14  1  0
  3 15  1  0
  4 16  1  0
  5 17  1  0
  5 18  1  0
  6 19  1  0
  7 20  1  0
  7 21  1  0
  8 22  1  0
  9 23  1  0
  9 24  1  0
 10 25  1  0
 10 26  1  0
M  END
>  <_SMILES>  (66) 
C1C2CC3CC1CC(C2)C3

$$$$

     RDKit          3D

 30 32  0  0  0  0  0  0  0  0999 V2000
    3.2213   -0.3387    0.6067 C   0  0  0  0  0  0  0  0  0  0  0  0
    1.9999   -0.0440    1.2644 O   0  0  0  0  0  0  0  0  0  0  0  0
    0.8184   -0.0090    0.4596 C   0  0  2  0  0  0  0  0  0  0  0  0
   -0.3386    0.3306    1.4308 C   0  0  0  0  0  0  0  0  0  0  0  0
   -1.6802    0.4000    0.6878 C   0  0  1  0  0  0  0  0  0  0  0  0
   -1.5973    1.4861   -0.3966 C   0  0  0  0  0  0  0  0  0  0  0  0
   -0.4682    1.1556   -1.3859 C   0  0  2  0  0  0  0  0  0  0  0  0
   -0.7501   -0.2104   -2.0369 C   0  0  0  0  0  0  0  0  0  0  0  0
   -0.8320   -1.3058   -0.9587 C   0  0  2  0  0  0  0  0  0  0  0  0
   -1.9589   -0.9600    0.0279 C   0  0  0  0  0  0  0  0  0  0  0  0
    0.5060   -1.3705   -0.2016 C   0  0  0  0  0  0  0  0  0  0  0  0
    0.8694    1.0877   -0.6282 C   0  0  0  0  0  0  0  0  0  0  0  0
    4.0167   -0.3259    1.3577 H   0  0  0  0  0  0  0  0  0  0  0  0
    3.2041   -1.3352    0.1594 H   0  0  0  0  0  0  0  0  0  0  0  0
    3.4630    0.4166   -0.1447 H   0  0  0  0  0  0  0  0  0  0  0  0
   -0.1351    1.2845    1.9355 H   0  0  0  0  0  0  0  0  0  0  0  0
   -0.3870   -0.4197    2.2313 H   0  0  0  0  0  0  0  0  0  0  0  0
   -2.4834    0.6411    1.3929 H   0  0  0  0  0  0  0  0  0  0  0  0
   -2.5535    1.5576   -0.9293 H   0  0  0  0  0  0  0  0  0  0  0  0
   -1.4160    2.4644    0.0654 H   0  0  0  0  0  0  0  0  0  0  0  0
   -0.4157    1.9300   -2.1592 H   0  0  0  0  0  0  0  0  0  0  0  0
   -1.6908   -0.1690   -2.5996 H   0  0  0  0  0  0  0  0  0  0  0  0
    0.0411   -0.4523   -2.7572 H   0  0  0  0  0  0  0  0  0  0  0  0
   -1.0371   -2.2736   -1.4297 H   0  0  0  0  0  0  0  0  0  0  0  0
   -2.9215   -0.9314   -0.4973 H   0  0  0  0  0  0  0  0  0  0  0  0
   -2.0375   -1.7400    0.7951 H   0  0  0  0  0  0  0  0  0  0  0  0
    1.3005   -1.6523   -0.9027 H   0  0  0  0  0  0  0  0  0  0  0  0
    0.4815   -2.1617    0.5586 H   0  0  0  0  0  0  0  0  0  0  0  0
    1.6759    0.8869   -1.3434 H   0  0  0  0  0  0  0  0  0  0  0  0
    1.1053    2.0584   -0.1737 H   0  0  0  0  0  0  0  0  0  0  0  0
  1  2  1  0
  3  2  1  1
  3  4  1  0
  4  5  1  0
  5  6  1  0
  6  7  1  0
  7  8  1  0
  8  9  1  0
  9 10  1  0
  9 11  1  0
  7 12  1  0
 11  3  1  0
 12  3  1  0
 10  5  1  0
  1 13  1  0
  1 14  1  0
  1 15  1  0
  4 16  1  0
  4 17  1  0
  5 18  1  1
  6 19  1  0
  6 20  1  0
  7 21  1  6
  8 22  1  0
  8 23  1  0
  9 24  1  6
 10 25  1  0
 10 26  1  0
 11 27  1  0
 11 28  1  0
 12 29  1  0
 12 30  1  0
M  END
>  <_SMILES>  (67) 
CO[C@]12C[C@H]3C[C@H](C[C@H](C3)C1)C2

$$$$

     RDKit          3D

 40 43  0  0  0  0  0  0  0  0999 V2000
    1.5560   -0.6804    1.7931 O   0  0  0  0  0  0  0  0  0  0  0  0
    1.7817   -0.2061    0.6869 C   0  0  0  0  0  0  0  0  0  0  0  0
    0.8123    0.1017   -0.2470 N   0  0  0  0  0  0  0  0  0  0  0  0
   -0.6302   -0.0522   -0.0256 C   0  0  2  0  0  0  0  0  0  0  0  0
   -1.3693    0.3628   -1.3273 C   0  0  0  0  0  0  0  0  0  0  0  0
   -2.8919    0.2328   -1.1638 C   0  0  1  0  0  0  0  0  0  0  0  0
   -3.2404   -1.2273   -0.8371 C   0  0  0  0  0  0  0  0  0  0  0  0
   -2.5396   -1.6549    0.4616 C   0  0  2  0  0  0  0  0  0  0  0  0
   -2.9990   -0.7418    1.6112 C   0  0  0  0  0  0  0  0  0  0  0  0
   -2.6546    0.7234    1.2941 C   0  0  2  0  0  0  0  0  0  0  0  0
   -3.3540    1.1372   -0.0104 C   0  0  0  0  0  0  0  0  0  0  0  0
   -1.1315    0.8604    1.1205 C   0  0  0  0  0  0  0  0  0  0  0  0
   -1.0163   -1.5205    0.2866 C   0  0  0  0  0  0  0  0  0  0  0  0
    3.1830    0.1148    0.2959 C   0  0  0  0  0  0  0  0  0  0  0  0
    4.0976    0.4460    1.3033 C   0  0  0  0  0  0  0  0  0  0  0  0
    5.4194    0.7538    0.9773 C   0  0  0  0  0  0  0  0  0  0  0  0
    5.8343    0.7219   -0.3538 C   0  0  0  0  0  0  0  0  0  0  0  0
    4.9324    0.3750   -1.3601 C   0  0  0  0  0  0  0  0  0  0  0  0
    3.6083    0.0673   -1.0384 C   0  0  0  0  0  0  0  0  0  0  0  0
    1.0896    0.7101   -1.0055 H   0  0  0  0  0  0  0  0  0  0  0  0
   -1.1151    1.3981   -1.5920 H   0  0  0  0  0  0  0  0  0  0  0  0
   -1.0315   -0.2590   -2.1672 H   0  0  0  0  0  0  0  0  0  0  0  0
   -3.3909    0.5332   -2.0919 H   0  0  0  0  0  0  0  0  0  0  0  0
   -2.9318   -1.8806   -1.6625 H   0  0  0  0  0  0  0  0  0  0  0  0
   -4.3265   -1.3391   -0.7316 H   0  0  0  0  0  0  0  0  0  0  0  0
   -2.7936   -2.6956    0.6923 H   0  0  0  0  0  0  0  0  0  0  0  0
   -2.5157   -1.0462    2.5477 H   0  0  0  0  0  0  0  0  0  0  0  0
   -4.0804   -0.8471    1.7624 H   0  0  0  0  0  0  0  0  0  0  0  0
   -2.9914    1.3679    2.1137 H   0  0  0  0  0  0  0  0  0  0  0  0
   -4.4421    1.0659    0.1088 H   0  0  0  0  0  0  0  0  0  0  0  0
   -3.1271    2.1853   -0.2414 H   0  0  0  0  0  0  0  0  0  0  0  0
   -0.6387    0.6063    2.0665 H   0  0  0  0  0  0  0  0  0  0  0  0
   -0.8722    1.9065    0.9108 H   0  0  0  0  0  0  0  0  0  0  0  0
   -0.5244   -1.8727    1.2003 H   0  0  0  0  0  0  0  0  0  0  0  0
   -0.6727   -2.1805   -0.5207 H   0  0  0  0  0  0  0  0  0  0  0  0
    3.7795    0.4653    2.3439 H   0  0  0  0  0  0  0  0  0  0  0  0
    6.1250    1.0130    1.7627 H   0  0  0  0  0  0  0  0  0  0  0  0
    6.8657    0.9572   -0.6057 H   0  0  0  0  0  0  0  0  0  0  0  0
    5.2650    0.3334   -2.3945 H   0  0  0  0  0  0  0  0  0  0  0  0
    2.9312   -0.2352   -1.8320 H   0  0  0  0  0  0  0  0  0  0  0  0
  1  2  2  0
  2  3  1  0
  4  3  1  6
  4  5  1  0
  5  6  1  0
  6  7  1  0
  7  8  1  0
  8  9  1  0
  9 10  1  0
 10 11  1  0
 10 12  1  0
  8 13  1  0
  2 14  1  0
 14 15  2  0
 15 16  1  0
 16 17  2  0
 17 18  1  0
 18 19  2  0
 12  4  1  0
 19 14  1  0
 13  4  1  0
 11  6  1  0
  3 20  1  0
  5 21  1  0
  5 22  1  0
  6 23  1  6
  7 24  1  0
  7 25  1  0
  8 26  1  1
  9 27  1  0
  9 28  1  0
 10 29  1  1
 11 30  1  0
 11 31  1  0
 12 32  1  0
 12 33  1  0
 13 34  1  0
 13 35  1  0
 15 36  1  0
 16 37  1  0
 17 38  1  0
 18 39  1  0
 19 40  1  0
M  END
>  <_SMILES>  (68) 
O=C(N[C@]12C[C@H]3C[C@H](C[C@H](C3)C1)C2)c1ccccc1

$$$$

     RDKit          3D

 37 40  0  0  0  0  0  0  0  0999 V2000
    1.3640   -0.9339   -2.0211 O   0  0  0  0  0  0  0  0  0  0  0  0
    1.9039   -0.2539   -1.1529 C   0  0  0  0  0  0  0  0  0  0  0  0
    1.2132    0.2401   -0.0645 N   0  0  0  0  0  0  0  0  0  0  0  0
   -0.2107    0.0370    0.2097 C   0  0  2  0  0  0  0  0  0  0  0  0
   -0.5524   -1.4631    0.3895 C   0  0  0  0  0  0  0  0  0  0  0  0
   -2.0430   -1.6420    0.7282 C   0  0  1  0  0  0  0  0  0  0  0  0
   -2.3588   -0.9033    2.0382 C   0  0  0  0  0  0  0  0  0  0  0  0
   -2.0486    0.5937    1.8838 C   0  0  2  0  0  0  0  0  0  0  0  0
   -2.9039    1.1766    0.7482 C   0  0  0  0  0  0  0  0  0  0  0  0
   -2.5913    0.4503   -0.5695 C   0  0  2  0  0  0  0  0  0  0  0  0
   -2.8950   -1.0489   -0.4070 C   0  0  0  0  0  0  0  0  0  0  0  0
   -1.1013    0.6314   -0.9096 C   0  0  0  0  0  0  0  0  0  0  0  0
   -0.5619    0.7669    1.5349 C   0  0  0  0  0  0  0  0  0  0  0  0
    3.3227    0.0866   -1.2033 C   0  0  0  0  0  0  0  0  0  0  0  0
    4.2245   -0.2859   -2.1848 C   0  0  0  0  0  0  0  0  0  0  0  0
    5.5386    0.2081   -1.9436 C   0  0  0  0  0  0  0  0  0  0  0  0
    5.6035    0.9449   -0.7831 C   0  0  0  0  0  0  0  0  0  0  0  0
    4.0888    1.0360    0.0038 S   0  0  0  0  0  0  0  0  0  0  0  0
    1.7530    0.7893    0.5929 H   0  0  0  0  0  0  0  0  0  0  0  0
    0.0665   -1.8983    1.1851 H   0  0  0  0  0  0  0  0  0  0  0  0
   -0.3240   -2.0298   -0.5207 H   0  0  0  0  0  0  0  0  0  0  0  0
   -2.2697   -2.7080    0.8420 H   0  0  0  0  0  0  0  0  0  0  0  0
   -1.7672   -1.3264    2.8593 H   0  0  0  0  0  0  0  0  0  0  0  0
   -3.4145   -1.0421    2.3019 H   0  0  0  0  0  0  0  0  0  0  0  0
   -2.2723    1.1161    2.8206 H   0  0  0  0  0  0  0  0  0  0  0  0
   -3.9688    1.0732    0.9898 H   0  0  0  0  0  0  0  0  0  0  0  0
   -2.7045    2.2500    0.6411 H   0  0  0  0  0  0  0  0  0  0  0  0
   -3.2065    0.8667   -1.3751 H   0  0  0  0  0  0  0  0  0  0  0  0
   -3.9604   -1.1927   -0.1887 H   0  0  0  0  0  0  0  0  0  0  0  0
   -2.6884   -1.5771   -1.3459 H   0  0  0  0  0  0  0  0  0  0  0  0
   -0.8758    1.6974   -1.0451 H   0  0  0  0  0  0  0  0  0  0  0  0
   -0.8952    0.1501   -1.8727 H   0  0  0  0  0  0  0  0  0  0  0  0
   -0.3239    1.8359    1.4512 H   0  0  0  0  0  0  0  0  0  0  0  0
    0.0578    0.3792    2.3546 H   0  0  0  0  0  0  0  0  0  0  0  0
    3.9420   -0.8903   -3.0401 H   0  0  0  0  0  0  0  0  0  0  0  0
    6.3906    0.0312   -2.5889 H   0  0  0  0  0  0  0  0  0  0  0  0
    6.4689    1.4352   -0.3582 H   0  0  0  0  0  0  0  0  0  0  0  0
  1  2  2  0
  2  3  1  0
  4  3  1  6
  4  5  1  0
  5  6  1  0
  6  7  1  0
  7  8  1  0
  8  9  1  0
  9 10  1  0
 10 11  1  0
 10 12  1  0
  8 13  1  0
  2 14  1  0
 14 15  2  0
 15 16  1  0
 16 17  2  0
 17 18  1  0
 12  4  1  0
 18 14  1  0
 13  4  1  0
 11  6  1  0
  3 19  1  0
  5 20  1  0
  5 21  1  0
  6 22  1  1
  7 23  1  0
  7 24  1  0
  8 25  1  1
  9 26  1  0
  9 27  1  0
 10 28  1  6
 11 29  1  0
 11 30  1  0
 12 31  1  0
 12 32  1  0
 13 33  1  0
 13 34  1  0
 15 35  1  0
 16 36  1  0
 17 37  1  0
M  END
>  <_SMILES>  (69) 
O=C(N[C@]12C[C@H]3C[C@H](C[C@H](C3)C1)C2)c1cccs1

$$$$

     RDKit          3D

 42 44  0  0  0  0  0  0  0  0999 V2000
    3.6293    0.8027   -1.0393 C   0  0  0  0  0  0  0  0  0  0  0  0
    3.2978    0.0555    0.2612 C   0  0  0  0  0  0  0  0  0  0  0  0
    3.5773   -1.4459    0.0956 C   0  0  0  0  0  0  0  0  0  0  0  0
    4.1966    0.6018    1.3849 C   0  0  0  0  0  0  0  0  0  0  0  0
    1.8174    0.2785    0.6352 C   0  0  0  0  0  0  0  0  0  0  0  0
    1.4808    0.8166    1.6859 O   0  0  0  0  0  0  0  0  0  0  0  0
    0.9101   -0.1733   -0.3014 N   0  0  0  0  0  0  0  0  0  0  0  0
   -0.5487   -0.0765   -0.1766 C   0  0  2  0  0  0  0  0  0  0  0  0
   -1.1900   -0.7022   -1.4457 C   0  0  0  0  0  0  0  0  0  0  0  0
   -2.7239   -0.6340   -1.3811 C   0  0  1  0  0  0  0  0  0  0  0  0
   -3.2106   -1.4023   -0.1426 C   0  0  0  0  0  0  0  0  0  0  0  0
   -2.6086   -0.7831    1.1285 C   0  0  2  0  0  0  0  0  0  0  0  0
   -3.0391    0.6903    1.2282 C   0  0  0  0  0  0  0  0  0  0  0  0
   -2.5564    1.4684   -0.0080 C   0  0  2  0  0  0  0  0  0  0  0  0
   -3.1587    0.8357   -1.2722 C   0  0  0  0  0  0  0  0  0  0  0  0
   -1.0210    1.3960   -0.0845 C   0  0  0  0  0  0  0  0  0  0  0  0
   -1.0732   -0.8584    1.0535 C   0  0  0  0  0  0  0  0  0  0  0  0
    3.0819    0.3972   -1.8970 H   0  0  0  0  0  0  0  0  0  0  0  0
    3.3675    1.8641   -0.9593 H   0  0  0  0  0  0  0  0  0  0  0  0
    4.6978    0.7352   -1.2731 H   0  0  0  0  0  0  0  0  0  0  0  0
    3.0293   -1.8749   -0.7502 H   0  0  0  0  0  0  0  0  0  0  0  0
    4.6430   -1.6332   -0.0777 H   0  0  0  0  0  0  0  0  0  0  0  0
    3.2781   -2.0016    0.9918 H   0  0  0  0  0  0  0  0  0  0  0  0
    5.2578    0.4594    1.1515 H   0  0  0  0  0  0  0  0  0  0  0  0
    3.9938    0.0970    2.3366 H   0  0  0  0  0  0  0  0  0  0  0  0
    4.0304    1.6741    1.5406 H   0  0  0  0  0  0  0  0  0  0  0  0
    1.2709   -0.6052   -1.1408 H   0  0  0  0  0  0  0  0  0  0  0  0
   -0.8707   -1.7476   -1.5531 H   0  0  0  0  0  0  0  0  0  0  0  0
   -0.8344   -0.1802   -2.3443 H   0  0  0  0  0  0  0  0  0  0  0  0
   -3.1528   -1.0804   -2.2852 H   0  0  0  0  0  0  0  0  0  0  0  0
   -4.3060   -1.3745   -0.0907 H   0  0  0  0  0  0  0  0  0  0  0  0
   -2.9221   -2.4579   -0.2184 H   0  0  0  0  0  0  0  0  0  0  0  0
   -2.9619   -1.3316    2.0088 H   0  0  0  0  0  0  0  0  0  0  0  0
   -4.1312    0.7558    1.3077 H   0  0  0  0  0  0  0  0  0  0  0  0
   -2.6262    1.1406    2.1392 H   0  0  0  0  0  0  0  0  0  0  0  0
   -2.8727    2.5148    0.0673 H   0  0  0  0  0  0  0  0  0  0  0  0
   -4.2532    0.9014   -1.2395 H   0  0  0  0  0  0  0  0  0  0  0  0
   -2.8329    1.3902   -2.1608 H   0  0  0  0  0  0  0  0  0  0  0  0
   -0.5978    1.8903    0.7977 H   0  0  0  0  0  0  0  0  0  0  0  0
   -0.6628    1.9621   -0.9544 H   0  0  0  0  0  0  0  0  0  0  0  0
   -0.6522   -0.4578    1.9829 H   0  0  0  0  0  0  0  0  0  0  0  0
   -0.7525   -1.9070    0.9987 H   0  0  0  0  0  0  0  0  0  0  0  0
  1  2  1  0
  2  3  1  0
  2  4  1  0
  2  5  1  0
  5  6  2  0
  5  7  1  0
  8  7  1  6
  8  9  1  0
  9 10  1  0
 10 11  1  0
 11 12  1  0
 12 13  1  0
 13 14  1  0
 14 15  1  0
 14 16  1  0
 12 17  1  0
 16  8  1  0
 17  8  1  0
 15 10  1  0
  1 18  1  0
  1 19  1  0
  1 20  1  0
  3 21  1  0
  3 22  1  0
  3 23  1  0
  4 24  1  0
  4 25  1  0
  4 26  1  0
  7 27  1  0
  9 28  1  0
  9 29  1  0
 10 30  1  6
 11 31  1  0
 11 32  1  0
 12 33  1  1
 13 34  1  0
 13 35  1  0
 14 36  1  1
 15 37  1  0
 15 38  1  0
 16 39  1  0
 16 40  1  0
 17 41  1  0
 17 42  1  0
M  END
>  <_SMILES>  (70) 
CC(C)(C)C(=O)N[C@]12C[C@H]3C[C@H](C[C@H](C3)C1)C2

$$$$

     RDKit          3D

 40 43  0  0  0  0  0  0  0  0999 V2000
    3.5953    1.1253    1.3881 C   0  0  0  0  0  0  0  0  0  0  0  0
    4.0164    0.2418    0.2713 C   0  0  0  0  0  0  0  0  0  0  0  0
    5.3482    0.1062   -0.2206 C   0  0  0  0  0  0  0  0  0  0  0  0
    5.3077   -0.8443   -1.2084 C   0  0  0  0  0  0  0  0  0  0  0  0
    4.0452   -1.3033   -1.3680 O   0  0  0  0  0  0  0  0  0  0  0  0
    3.2389   -0.6369   -0.4813 C   0  0  0  0  0  0  0  0  0  0  0  0
    1.8224   -0.9728   -0.4962 C   0  0  0  0  0  0  0  0  0  0  0  0
    1.3926   -2.0546   -0.8857 O   0  0  0  0  0  0  0  0  0  0  0  0
    0.9861    0.0438   -0.0656 N   0  0  0  0  0  0  0  0  0  0  0  0
   -0.4791   -0.0165   -0.0754 C   0  0  2  0  0  0  0  0  0  0  0  0
   -1.0207    1.3119    0.5212 C   0  0  0  0  0  0  0  0  0  0  0  0
   -2.5573    1.3258    0.5369 C   0  0  1  0  0  0  0  0  0  0  0  0
   -3.0774    1.1687   -0.9006 C   0  0  0  0  0  0  0  0  0  0  0  0
   -2.5757   -0.1552   -1.4988 C   0  0  2  0  0  0  0  0  0  0  0  0
   -3.0758   -1.3243   -0.6332 C   0  0  0  0  0  0  0  0  0  0  0  0
   -2.5598   -1.1751    0.8084 C   0  0  2  0  0  0  0  0  0  0  0  0
   -3.0626    0.1540    1.3923 C   0  0  0  0  0  0  0  0  0  0  0  0
   -1.0207   -1.1772    0.7976 C   0  0  0  0  0  0  0  0  0  0  0  0
   -1.0368   -0.1564   -1.5131 C   0  0  0  0  0  0  0  0  0  0  0  0
    4.4536    1.4124    2.0047 H   0  0  0  0  0  0  0  0  0  0  0  0
    3.1382    2.0409    1.0004 H   0  0  0  0  0  0  0  0  0  0  0  0
    2.8756    0.6203    2.0400 H   0  0  0  0  0  0  0  0  0  0  0  0
    6.2327    0.6268    0.1204 H   0  0  0  0  0  0  0  0  0  0  0  0
    6.0518   -1.2882   -1.8551 H   0  0  0  0  0  0  0  0  0  0  0  0
    1.4008    0.9635   -0.0300 H   0  0  0  0  0  0  0  0  0  0  0  0
   -0.6516    2.1660   -0.0626 H   0  0  0  0  0  0  0  0  0  0  0  0
   -0.6375    1.4509    1.5411 H   0  0  0  0  0  0  0  0  0  0  0  0
   -2.9148    2.2720    0.9581 H   0  0  0  0  0  0  0  0  0  0  0  0
   -4.1741    1.1910   -0.9069 H   0  0  0  0  0  0  0  0  0  0  0  0
   -2.7384    2.0107   -1.5164 H   0  0  0  0  0  0  0  0  0  0  0  0
   -2.9537   -0.2645   -2.5214 H   0  0  0  0  0  0  0  0  0  0  0  0
   -2.7347   -2.2769   -1.0567 H   0  0  0  0  0  0  0  0  0  0  0  0
   -4.1725   -1.3492   -0.6366 H   0  0  0  0  0  0  0  0  0  0  0  0
   -2.9252   -2.0080    1.4196 H   0  0  0  0  0  0  0  0  0  0  0  0
   -4.1590    0.1587    1.4248 H   0  0  0  0  0  0  0  0  0  0  0  0
   -2.7129    0.2657    2.4260 H   0  0  0  0  0  0  0  0  0  0  0  0
   -0.6735   -2.1478    0.4260 H   0  0  0  0  0  0  0  0  0  0  0  0
   -0.6392   -1.0873    1.8232 H   0  0  0  0  0  0  0  0  0  0  0  0
   -0.6839   -1.0828   -1.9814 H   0  0  0  0  0  0  0  0  0  0  0  0
   -0.6686    0.6647   -2.1422 H   0  0  0  0  0  0  0  0  0  0  0  0
  1  2  1  0
  2  3  1  0
  3  4  2  0
  4  5  1  0
  5  6  1  0
  6  7  1  0
  7  8  2  0
  7  9  1  0
 10  9  1  6
 10 11  1  0
 11 12  1  0
 12 13  1  0
 13 14  1  0
 14 15  1  0
 15 16  1  0
 16 17  1  0
 16 18  1  0
 14 19  1  0
  6  2  2  0
 18 10  1  0
 19 10  1  0
 17 12  1  0
  1 20  1  0
  1 21  1  0
  1 22  1  0
  3 23  1  0
  4 24  1  0
  9 25  1  0
 11 26  1  0
 11 27  1  0
 12 28  1  1
 13 29  1  0
 13 30  1  0
 14 31  1  6
 15 32  1  0
 15 33  1  0
 16 34  1  1
 17 35  1  0
 17 36  1  0
 18 37  1  0
 18 38  1  0
 19 39  1  0
 19 40  1  0
M  END
>  <_SMILES>  (71) 
Cc1ccoc1C(=O)N[C@]12C[C@H]3C[C@H](C[C@H](C3)C1)C2

$$$$

     RDKit          3D

 37 40  0  0  0  0  0  0  0  0999 V2000
    2.1106    1.4329    0.6512 O   0  0  0  0  0  0  0  0  0  0  0  0
    2.2690    0.3572    0.0852 C   0  0  0  0  0  0  0  0  0  0  0  0
    1.2266   -0.4406   -0.3388 N   0  0  0  0  0  0  0  0  0  0  0  0
   -0.1950   -0.1284   -0.1550 C   0  0  2  0  0  0  0  0  0  0  0  0
   -0.5721   -0.0348    1.3445 C   0  0  0  0  0  0  0  0  0  0  0  0
   -2.0777    0.2391    1.5083 C   0  0  1  0  0  0  0  0  0  0  0  0
   -2.4325    1.5584    0.8014 C   0  0  0  0  0  0  0  0  0  0  0  0
   -2.0983    1.4633   -0.6971 C   0  0  2  0  0  0  0  0  0  0  0  0
   -2.8962    0.3086   -1.3224 C   0  0  0  0  0  0  0  0  0  0  0  0
   -2.5382   -1.0132   -0.6258 C   0  0  2  0  0  0  0  0  0  0  0  0
   -2.8755   -0.9086    0.8697 C   0  0  0  0  0  0  0  0  0  0  0  0
   -1.0323   -1.2752   -0.7856 C   0  0  0  0  0  0  0  0  0  0  0  0
   -0.5927    1.1909   -0.8639 C   0  0  0  0  0  0  0  0  0  0  0  0
    3.6057   -0.1629   -0.1732 C   0  0  0  0  0  0  0  0  0  0  0  0
    4.8405    0.4334    0.2290 C   0  0  0  0  0  0  0  0  0  0  0  0
    5.8464   -0.3852   -0.2232 C   0  0  0  0  0  0  0  0  0  0  0  0
    5.3244   -1.4489   -0.8827 O   0  0  0  0  0  0  0  0  0  0  0  0
    3.9732   -1.3087   -0.8525 C   0  0  0  0  0  0  0  0  0  0  0  0
    1.4483   -1.3435   -0.7292 H   0  0  0  0  0  0  0  0  0  0  0  0
   -0.0087    0.7635    1.8417 H   0  0  0  0  0  0  0  0  0  0  0  0
   -0.3036   -0.9663    1.8598 H   0  0  0  0  0  0  0  0  0  0  0  0
   -2.3251    0.3124    2.5732 H   0  0  0  0  0  0  0  0  0  0  0  0
   -1.8787    2.3885    1.2570 H   0  0  0  0  0  0  0  0  0  0  0  0
   -3.4993    1.7775    0.9329 H   0  0  0  0  0  0  0  0  0  0  0  0
   -2.3599    2.4040   -1.1945 H   0  0  0  0  0  0  0  0  0  0  0  0
   -2.6772    0.2389   -2.3950 H   0  0  0  0  0  0  0  0  0  0  0  0
   -3.9719    0.5023   -1.2291 H   0  0  0  0  0  0  0  0  0  0  0  0
   -3.1067   -1.8344   -1.0764 H   0  0  0  0  0  0  0  0  0  0  0  0
   -2.6416   -1.8541    1.3742 H   0  0  0  0  0  0  0  0  0  0  0  0
   -3.9508   -0.7357    1.0002 H   0  0  0  0  0  0  0  0  0  0  0  0
   -0.7859   -1.3801   -1.8507 H   0  0  0  0  0  0  0  0  0  0  0  0
   -0.7729   -2.2336   -0.3160 H   0  0  0  0  0  0  0  0  0  0  0  0
   -0.0322    2.0408   -0.4580 H   0  0  0  0  0  0  0  0  0  0  0  0
   -0.3384    1.1373   -1.9306 H   0  0  0  0  0  0  0  0  0  0  0  0
    4.9624    1.3539    0.7843 H   0  0  0  0  0  0  0  0  0  0  0  0
    6.9254   -0.3525   -0.1629 H   0  0  0  0  0  0  0  0  0  0  0  0
    3.4308   -2.0961   -1.3559 H   0  0  0  0  0  0  0  0  0  0  0  0
  1  2  2  0
  2  3  1  0
  4  3  1  1
  4  5  1  0
  5  6  1  0
  6  7  1  0
  7  8  1  0
  8  9  1  0
  9 10  1  0
 10 11  1  0
 10 12  1  0
  8 13  1  0
  2 14  1  0
 14 15  1  0
 15 16  2  0
 16 17  1  0
 17 18  1  0
 12  4  1  0
 18 14  2  0
 13  4  1  0
 11  6  1  0
  3 19  1  0
  5 20  1  0
  5 21  1  0
  6 22  1  1
  7 23  1  0
  7 24  1  0
  8 25  1  6
  9 26  1  0
  9 27  1  0
 10 28  1  6
 11 29  1  0
 11 30  1  0
 12 31  1  0
 12 32  1  0
 13 33  1  0
 13 34  1  0
 15 35  1  0
 16 36  1  0
 18 37  1  0
M  END
>  <_SMILES>  (72) 
O=C(N[C@]12C[C@H]3C[C@H](C[C@H](C3)C1)C2)c1ccoc1

$$$$

     RDKit          3D

 37 40  0  0  0  0  0  0  0  0999 V2000
    1.7251    0.1647   -2.3984 O   0  0  0  0  0  0  0  0  0  0  0  0
    2.1892   -0.0170   -1.2818 C   0  0  0  0  0  0  0  0  0  0  0  0
    1.4465   -0.1084   -0.1282 N   0  0  0  0  0  0  0  0  0  0  0  0
   -0.0135   -0.0022   -0.0592 C   0  0  2  0  0  0  0  0  0  0  0  0
   -0.5121    1.3784   -0.5544 C   0  0  0  0  0  0  0  0  0  0  0  0
   -2.0421    1.4806   -0.4227 C   0  0  1  0  0  0  0  0  0  0  0  0
   -2.6975    0.3647   -1.2542 C   0  0  0  0  0  0  0  0  0  0  0  0
   -2.2387   -1.0131   -0.7468 C   0  0  2  0  0  0  0  0  0  0  0  0
   -2.6331   -1.1664    0.7305 C   0  0  0  0  0  0  0  0  0  0  0  0
   -1.9736   -0.0590    1.5670 C   0  0  2  0  0  0  0  0  0  0  0  0
   -2.4377    1.3125    1.0526 C   0  0  0  0  0  0  0  0  0  0  0  0
   -0.4468   -0.1608    1.4237 C   0  0  0  0  0  0  0  0  0  0  0  0
   -0.7089   -1.1178   -0.8788 C   0  0  0  0  0  0  0  0  0  0  0  0
    3.6680   -0.1531   -1.1321 C   0  0  0  0  0  0  0  0  0  0  0  0
    4.4186    0.3927    0.0603 C   0  0  0  0  0  0  0  0  0  0  0  0
    4.3015   -1.0928   -0.1327 C   0  0  0  0  0  0  0  0  0  0  0  0
    1.9443   -0.2600    0.7365 H   0  0  0  0  0  0  0  0  0  0  0  0
   -0.0330    2.1812    0.0213 H   0  0  0  0  0  0  0  0  0  0  0  0
   -0.2330    1.5438   -1.6016 H   0  0  0  0  0  0  0  0  0  0  0  0
   -2.3787    2.4582   -0.7858 H   0  0  0  0  0  0  0  0  0  0  0  0
   -2.4335    0.4814   -2.3125 H   0  0  0  0  0  0  0  0  0  0  0  0
   -3.7898    0.4423   -1.1883 H   0  0  0  0  0  0  0  0  0  0  0  0
   -2.7146   -1.8023   -1.3395 H   0  0  0  0  0  0  0  0  0  0  0  0
   -3.7239   -1.1156    0.8345 H   0  0  0  0  0  0  0  0  0  0  0  0
   -2.3235   -2.1514    1.1009 H   0  0  0  0  0  0  0  0  0  0  0  0
   -2.2552   -0.1736    2.6197 H   0  0  0  0  0  0  0  0  0  0  0  0
   -3.5251    1.4057    1.1622 H   0  0  0  0  0  0  0  0  0  0  0  0
   -1.9875    2.1112    1.6549 H   0  0  0  0  0  0  0  0  0  0  0  0
    0.0346    0.6091    2.0417 H   0  0  0  0  0  0  0  0  0  0  0  0
   -0.1023   -1.1271    1.8160 H   0  0  0  0  0  0  0  0  0  0  0  0
   -0.3709   -2.1045   -0.5357 H   0  0  0  0  0  0  0  0  0  0  0  0
   -0.4378   -1.0528   -1.9390 H   0  0  0  0  0  0  0  0  0  0  0  0
    4.1812   -0.0693   -2.0881 H   0  0  0  0  0  0  0  0  0  0  0  0
    3.8670    0.8598    0.8667 H   0  0  0  0  0  0  0  0  0  0  0  0
    5.3823    0.8553   -0.1261 H   0  0  0  0  0  0  0  0  0  0  0  0
    5.1859   -1.6356   -0.4498 H   0  0  0  0  0  0  0  0  0  0  0  0
    3.6684   -1.6587    0.5394 H   0  0  0  0  0  0  0  0  0  0  0  0
  1  2  2  0
  2  3  1  0
  4  3  1  1
  4  5  1  0
  5  6  1  0
  6  7  1  0
  7  8  1  0
  8  9  1  0
  9 10  1  0
 10 11  1  0
 10 12  1  0
  8 13  1  0
  2 14  1  0
 14 15  1  0
 15 16  1  0
 12  4  1  0
 16 14  1  0
 13  4  1  0
 11  6  1  0
  3 17  1  0
  5 18  1  0
  5 19  1  0
  6 20  1  6
  7 21  1  0
  7 22  1  0
  8 23  1  6
  9 24  1  0
  9 25  1  0
 10 26  1  1
 11 27  1  0
 11 28  1  0
 12 29  1  0
 12 30  1  0
 13 31  1  0
 13 32  1  0
 14 33  1  0
 15 34  1  0
 15 35  1  0
 16 36  1  0
 16 37  1  0
M  END
>  <_SMILES>  (73) 
O=C(N[C@]12C[C@H]3C[C@H](C[C@H](C3)C1)C2)C1CC1

$$$$

     RDKit          3D

 37 40  0  0  0  0  0  0  0  0999 V2000
    1.8318   -1.0618   -1.5704 O   0  0  0  0  0  0  0  0  0  0  0  0
    2.1697   -0.4704   -0.5489 C   0  0  0  0  0  0  0  0  0  0  0  0
    1.2441    0.0963    0.3124 N   0  0  0  0  0  0  0  0  0  0  0  0
   -0.2104    0.0655    0.1241 C   0  0  2  0  0  0  0  0  0  0  0  0
   -0.7596   -1.3831    0.1137 C   0  0  0  0  0  0  0  0  0  0  0  0
   -2.2920   -1.3806   -0.0300 C   0  0  1  0  0  0  0  0  0  0  0  0
   -2.9127   -0.6276    1.1569 C   0  0  0  0  0  0  0  0  0  0  0  0
   -2.4024    0.8214    1.1829 C   0  0  2  0  0  0  0  0  0  0  0  0
   -2.7919    1.5222   -0.1278 C   0  0  0  0  0  0  0  0  0  0  0  0
   -2.1705    0.7822   -1.3225 C   0  0  2  0  0  0  0  0  0  0  0  0
   -2.6768   -0.6703   -1.3390 C   0  0  0  0  0  0  0  0  0  0  0  0
   -0.6379    0.7830   -1.1808 C   0  0  0  0  0  0  0  0  0  0  0  0
   -0.8713    0.8141    1.3146 C   0  0  0  0  0  0  0  0  0  0  0  0
    3.5581   -0.3074   -0.1455 C   0  0  0  0  0  0  0  0  0  0  0  0
    4.1761    0.3035    0.9349 C   0  0  0  0  0  0  0  0  0  0  0  0
    5.5729    0.1264    0.7697 C   0  0  0  0  0  0  0  0  0  0  0  0
    5.7311   -0.5796   -0.3967 C   0  0  0  0  0  0  0  0  0  0  0  0
    4.5258   -0.8462   -0.9561 O   0  0  0  0  0  0  0  0  0  0  0  0
    1.5921    0.5673    1.1333 H   0  0  0  0  0  0  0  0  0  0  0  0
   -0.3272   -1.9623   -0.7103 H   0  0  0  0  0  0  0  0  0  0  0  0
   -0.4717   -1.9023    1.0373 H   0  0  0  0  0  0  0  0  0  0  0  0
   -2.6622   -2.4119   -0.0467 H   0  0  0  0  0  0  0  0  0  0  0  0
   -2.6569   -1.1325    2.0966 H   0  0  0  0  0  0  0  0  0  0  0  0
   -4.0067   -0.6385    1.0773 H   0  0  0  0  0  0  0  0  0  0  0  0
   -2.8446    1.3539    2.0323 H   0  0  0  0  0  0  0  0  0  0  0  0
   -2.4492    2.5641   -0.1125 H   0  0  0  0  0  0  0  0  0  0  0  0
   -3.8839    1.5477   -0.2292 H   0  0  0  0  0  0  0  0  0  0  0  0
   -2.4545    1.2831   -2.2548 H   0  0  0  0  0  0  0  0  0  0  0  0
   -2.2502   -1.2062   -2.1958 H   0  0  0  0  0  0  0  0  0  0  0  0
   -3.7664   -0.6845   -1.4653 H   0  0  0  0  0  0  0  0  0  0  0  0
   -0.2628    1.8149   -1.1841 H   0  0  0  0  0  0  0  0  0  0  0  0
   -0.2003    0.2956   -2.0596 H   0  0  0  0  0  0  0  0  0  0  0  0
   -0.5845    0.3409    2.2634 H   0  0  0  0  0  0  0  0  0  0  0  0
   -0.4999    1.8466    1.3636 H   0  0  0  0  0  0  0  0  0  0  0  0
    3.6904    0.8183    1.7506 H   0  0  0  0  0  0  0  0  0  0  0  0
    6.3655    0.4701    1.4195 H   0  0  0  0  0  0  0  0  0  0  0  0
    6.5891   -0.9521   -0.9393 H   0  0  0  0  0  0  0  0  0  0  0  0
  1  2  2  0
  2  3  1  0
  4  3  1  1
  4  5  1  0
  5  6  1  0
  6  7  1  0
  7  8  1  0
  8  9  1  0
  9 10  1  0
 10 11  1  0
 10 12  1  0
  8 13  1  0
  2 14  1  0
 14 15  2  0
 15 16  1  0
 16 17  2  0
 17 18  1  0
 12  4  1  0
 18 14  1  0
 13  4  1  0
 11  6  1  0
  3 19  1  0
  5 20  1  0
  5 21  1  0
  6 22  1  6
  7 23  1  0
  7 24  1  0
  8 25  1  1
  9 26  1  0
  9 27  1  0
 10 28  1  6
 11 29  1  0
 11 30  1  0
 12 31  1  0
 12 32  1  0
 13 33  1  0
 13 34  1  0
 15 35  1  0
 16 36  1  0
 17 37  1  0
M  END
>  <_SMILES>  (74) 
O=C(N[C@]12C[C@H]3C[C@H](C[C@H](C3)C1)C2)c1ccco1

$$$$

     RDKit          3D

 36 39  0  0  0  0  0  0  0  0999 V2000
    1.7642   -2.0449    1.0078 O   0  0  0  0  0  0  0  0  0  0  0  0
    2.1930   -0.9984    0.5281 C   0  0  0  0  0  0  0  0  0  0  0  0
    1.3664    0.0448    0.1466 N   0  0  0  0  0  0  0  0  0  0  0  0
   -0.0914    0.0720    0.2473 C   0  0  2  0  0  0  0  0  0  0  0  0
   -0.5954    1.4361   -0.2961 C   0  0  0  0  0  0  0  0  0  0  0  0
   -2.1275    1.5293   -0.2179 C   0  0  1  0  0  0  0  0  0  0  0  0
   -2.7445    0.3970   -1.0536 C   0  0  0  0  0  0  0  0  0  0  0  0
   -2.2790   -0.9654   -0.5161 C   0  0  2  0  0  0  0  0  0  0  0  0
   -2.7142   -1.1070    0.9525 C   0  0  0  0  0  0  0  0  0  0  0  0
   -2.1008    0.0222    1.7979 C   0  0  2  0  0  0  0  0  0  0  0  0
   -2.5673    1.3788    1.2468 C   0  0  0  0  0  0  0  0  0  0  0  0
   -0.5662   -0.0599    1.7157 C   0  0  0  0  0  0  0  0  0  0  0  0
   -0.7445   -1.0482   -0.5999 C   0  0  0  0  0  0  0  0  0  0  0  0
    3.6077   -0.7078    0.2952 C   0  0  0  0  0  0  0  0  0  0  0  0
    4.0270    0.4353   -0.2250 N   0  0  0  0  0  0  0  0  0  0  0  0
    5.4055    0.4109   -0.3208 C   0  0  0  0  0  0  0  0  0  0  0  0
    6.0151   -0.7424    0.1245 C   0  0  0  0  0  0  0  0  0  0  0  0
    4.8286   -1.8453    0.6866 S   0  0  0  0  0  0  0  0  0  0  0  0
    1.8533    0.8522   -0.2355 H   0  0  0  0  0  0  0  0  0  0  0  0
   -0.1453    2.2593    0.2750 H   0  0  0  0  0  0  0  0  0  0  0  0
   -0.2694    1.5717   -1.3361 H   0  0  0  0  0  0  0  0  0  0  0  0
   -2.4598    2.4986   -0.6059 H   0  0  0  0  0  0  0  0  0  0  0  0
   -2.4523    0.5049   -2.1054 H   0  0  0  0  0  0  0  0  0  0  0  0
   -3.8392    0.4594   -1.0194 H   0  0  0  0  0  0  0  0  0  0  0  0
   -2.7247   -1.7692   -1.1127 H   0  0  0  0  0  0  0  0  0  0  0  0
   -3.8085   -1.0741    1.0227 H   0  0  0  0  0  0  0  0  0  0  0  0
   -2.3994   -2.0820    1.3443 H   0  0  0  0  0  0  0  0  0  0  0  0
   -2.4202   -0.0818    2.8409 H   0  0  0  0  0  0  0  0  0  0  0  0
   -2.1476    2.1931    1.8502 H   0  0  0  0  0  0  0  0  0  0  0  0
   -3.6589    1.4581    1.3205 H   0  0  0  0  0  0  0  0  0  0  0  0
   -0.1163    0.7309    2.3303 H   0  0  0  0  0  0  0  0  0  0  0  0
   -0.2363   -1.0107    2.1505 H   0  0  0  0  0  0  0  0  0  0  0  0
   -0.4226   -0.9663   -1.6464 H   0  0  0  0  0  0  0  0  0  0  0  0
   -0.4217   -2.0381   -0.2567 H   0  0  0  0  0  0  0  0  0  0  0  0
    5.9243    1.2707   -0.7277 H   0  0  0  0  0  0  0  0  0  0  0  0
    7.0680   -0.9839    0.1465 H   0  0  0  0  0  0  0  0  0  0  0  0
  1  2  2  0
  2  3  1  0
  4  3  1  1
  4  5  1  0
  5  6  1  0
  6  7  1  0
  7  8  1  0
  8  9  1  0
  9 10  1  0
 10 11  1  0
 10 12  1  0
  8 13  1  0
  2 14  1  0
 14 15  2  0
 15 16  1  0
 16 17  2  0
 17 18  1  0
 12  4  1  0
 18 14  1  0
 13  4  1  0
 11  6  1  0
  3 19  1  0
  5 20  1  0
  5 21  1  0
  6 22  1  6
  7 23  1  0
  7 24  1  0
  8 25  1  6
  9 26  1  0
  9 27  1  0
 10 28  1  1
 11 29  1  0
 11 30  1  0
 12 31  1  0
 12 32  1  0
 13 33  1  0
 13 34  1  0
 16 35  1  0
 17 36  1  0
M  END
>  <_SMILES>  (75) 
O=C(N[C@]12C[C@H]3C[C@H](C[C@H](C3)C1)C2)c1nccs1

$$$$

     RDKit          3D

 32 34  0  0  0  0  0  0  0  0999 V2000
    4.2631   -0.0194    0.1023 C   0  0  0  0  0  0  0  0  0  0  0  0
    2.8641    0.1721    0.3154 O   0  0  0  0  0  0  0  0  0  0  0  0
    2.0698   -0.4572   -0.5973 C   0  0  0  0  0  0  0  0  0  0  0  0
    2.4893   -1.1333   -1.5278 O   0  0  0  0  0  0  0  0  0  0  0  0
    0.5929   -0.2043   -0.3014 C   0  0  2  0  0  0  0  0  0  0  0  0
   -0.2922   -0.9266   -1.3479 C   0  0  0  0  0  0  0  0  0  0  0  0
   -1.7827   -0.6799   -1.0611 C   0  0  1  0  0  0  0  0  0  0  0  0
   -2.1208   -1.2102    0.3417 C   0  0  0  0  0  0  0  0  0  0  0  0
   -1.2652   -0.4902    1.3966 C   0  0  2  0  0  0  0  0  0  0  0  0
   -1.5457    1.0211    1.3309 C   0  0  0  0  0  0  0  0  0  0  0  0
   -1.2074    1.5626   -0.0690 C   0  0  2  0  0  0  0  0  0  0  0  0
   -2.0634    0.8305   -1.1153 C   0  0  0  0  0  0  0  0  0  0  0  0
    0.2814    1.3089   -0.3634 C   0  0  0  0  0  0  0  0  0  0  0  0
    0.2238   -0.7418    1.1006 C   0  0  0  0  0  0  0  0  0  0  0  0
    4.8018    0.5234    0.8838 H   0  0  0  0  0  0  0  0  0  0  0  0
    4.5619    0.3857   -0.8695 H   0  0  0  0  0  0  0  0  0  0  0  0
    4.5206   -1.0805    0.1775 H   0  0  0  0  0  0  0  0  0  0  0  0
   -0.0885   -2.0056   -1.3389 H   0  0  0  0  0  0  0  0  0  0  0  0
   -0.0483   -0.5760   -2.3596 H   0  0  0  0  0  0  0  0  0  0  0  0
   -2.3941   -1.1968   -1.8092 H   0  0  0  0  0  0  0  0  0  0  0  0
   -1.9409   -2.2913    0.3874 H   0  0  0  0  0  0  0  0  0  0  0  0
   -3.1859   -1.0554    0.5539 H   0  0  0  0  0  0  0  0  0  0  0  0
   -1.5125   -0.8692    2.3944 H   0  0  0  0  0  0  0  0  0  0  0  0
   -0.9514    1.5457    2.0891 H   0  0  0  0  0  0  0  0  0  0  0  0
   -2.6001    1.2159    1.5622 H   0  0  0  0  0  0  0  0  0  0  0  0
   -1.4139    2.6379   -0.1095 H   0  0  0  0  0  0  0  0  0  0  0  0
   -1.8422    1.2174   -2.1176 H   0  0  0  0  0  0  0  0  0  0  0  0
   -3.1275    1.0207   -0.9283 H   0  0  0  0  0  0  0  0  0  0  0  0
    0.5425    1.7091   -1.3518 H   0  0  0  0  0  0  0  0  0  0  0  0
    0.8937    1.8605    0.3615 H   0  0  0  0  0  0  0  0  0  0  0  0
    0.4434   -1.8156    1.1645 H   0  0  0  0  0  0  0  0  0  0  0  0
    0.8342   -0.2581    1.8741 H   0  0  0  0  0  0  0  0  0  0  0  0
  1  2  1  0
  2  3  1  0
  3  4  2  0
  5  3  1  6
  5  6  1  0
  6  7  1  0
  7  8  1  0
  8  9  1  0
  9 10  1  0
 10 11  1  0
 11 12  1  0
 11 13  1  0
  9 14  1  0
 13  5  1  0
 14  5  1  0
 12  7  1  0
  1 15  1  0
  1 16  1  0
  1 17  1  0
  6 18  1  0
  6 19  1  0
  7 20  1  6
  8 21  1  0
  8 22  1  0
  9 23  1  1
 10 24  1  0
 10 25  1  0
 11 26  1  1
 12 27  1  0
 12 28  1  0
 13 29  1  0
 13 30  1  0
 14 31  1  0
 14 32  1  0
M  END
>  <_SMILES>  (76) 
COC(=O)[C@]12C[C@H]3C[C@H](C[C@H](C3)C1)C2

$$$$

     RDKit          3D

 37 40  0  0  0  0  0  0  0  0999 V2000
    1.7741   -1.8923   -0.8875 O   0  0  0  0  0  0  0  0  0  0  0  0
    2.1635   -0.8521   -0.3692 C   0  0  0  0  0  0  0  0  0  0  0  0
    1.3206    0.1663    0.0249 N   0  0  0  0  0  0  0  0  0  0  0  0
   -0.1421    0.1256   -0.0756 C   0  0  2  0  0  0  0  0  0  0  0  0
   -0.7431   -1.0068    0.7930 C   0  0  0  0  0  0  0  0  0  0  0  0
   -2.2801   -0.9911    0.7150 C   0  0  1  0  0  0  0  0  0  0  0  0
   -2.8015    0.3587    1.2327 C   0  0  0  0  0  0  0  0  0  0  0  0
   -2.2385    1.5028    0.3750 C   0  0  2  0  0  0  0  0  0  0  0  0
   -2.6788    1.3097   -1.0841 C   0  0  0  0  0  0  0  0  0  0  0  0
   -2.1560   -0.0337   -1.6154 C   0  0  2  0  0  0  0  0  0  0  0  0
   -2.7153   -1.1751   -0.7489 C   0  0  0  0  0  0  0  0  0  0  0  0
   -0.6188   -0.0479   -1.5402 C   0  0  0  0  0  0  0  0  0  0  0  0
   -0.7035    1.4772    0.4456 C   0  0  0  0  0  0  0  0  0  0  0  0
    3.5868   -0.6142   -0.0980 C   0  0  0  0  0  0  0  0  0  0  0  0
    4.2395    0.6135    0.2750 C   0  0  0  0  0  0  0  0  0  0  0  0
    5.5991    0.4678    0.4491 C   0  0  0  0  0  0  0  0  0  0  0  0
    6.1134   -1.1334    0.1597 S   0  0  0  0  0  0  0  0  0  0  0  0
    4.5211   -1.6324   -0.2057 C   0  0  0  0  0  0  0  0  0  0  0  0
    1.7152    0.8865    0.6107 H   0  0  0  0  0  0  0  0  0  0  0  0
   -0.4211   -0.8933    1.8365 H   0  0  0  0  0  0  0  0  0  0  0  0
   -0.3784   -1.9874    0.4649 H   0  0  0  0  0  0  0  0  0  0  0  0
   -2.6884   -1.8034    1.3267 H   0  0  0  0  0  0  0  0  0  0  0  0
   -2.5091    0.4966    2.2809 H   0  0  0  0  0  0  0  0  0  0  0  0
   -3.8980    0.3731    1.2036 H   0  0  0  0  0  0  0  0  0  0  0  0
   -2.6104    2.4630    0.7494 H   0  0  0  0  0  0  0  0  0  0  0  0
   -3.7732    1.3400   -1.1528 H   0  0  0  0  0  0  0  0  0  0  0  0
   -2.2982    2.1316   -1.7029 H   0  0  0  0  0  0  0  0  0  0  0  0
   -2.4754   -0.1686   -2.6549 H   0  0  0  0  0  0  0  0  0  0  0  0
   -3.8102   -1.1912   -0.8138 H   0  0  0  0  0  0  0  0  0  0  0  0
   -2.3599   -2.1415   -1.1269 H   0  0  0  0  0  0  0  0  0  0  0  0
   -0.2061    0.7525   -2.1684 H   0  0  0  0  0  0  0  0  0  0  0  0
   -0.2539   -0.9896   -1.9656 H   0  0  0  0  0  0  0  0  0  0  0  0
   -0.2912    2.3084   -0.1422 H   0  0  0  0  0  0  0  0  0  0  0  0
   -0.3801    1.6457    1.4816 H   0  0  0  0  0  0  0  0  0  0  0  0
    3.7479    1.5699    0.3983 H   0  0  0  0  0  0  0  0  0  0  0  0
    6.3176    1.2274    0.7258 H   0  0  0  0  0  0  0  0  0  0  0  0
    4.3324   -2.6624   -0.4819 H   0  0  0  0  0  0  0  0  0  0  0  0
  1  2  2  0
  2  3  1  0
  4  3  1  6
  4  5  1  0
  5  6  1  0
  6  7  1  0
  7  8  1  0
  8  9  1  0
  9 10  1  0
 10 11  1  0
 10 12  1  0
  8 13  1  0
  2 14  1  0
 14 15  1  0
 15 16  2  0
 16 17  1  0
 17 18  1  0
 12  4  1  0
 18 14  2  0
 13  4  1  0
 11  6  1  0
  3 19  1  0
  5 20  1  0
  5 21  1  0
  6 22  1  1
  7 23  1  0
  7 24  1  0
  8 25  1  1
  9 26  1  0
  9 27  1  0
 10 28  1  6
 11 29  1  0
 11 30  1  0
 12 31  1  0
 12 32  1  0
 13 33  1  0
 13 34  1  0
 15 35  1  0
 16 36  1  0
 18 37  1  0
M  END
>  <_SMILES>  (77) 
O=C(N[C@]12C[C@H]3C[C@H](C[C@H](C3)C1)C2)c1ccsc1

$$$$

     RDKit          3D

 38 40  0  0  0  0  0  0  0  0999 V2000
    2.6243   -2.2900   -1.6545 O   0  0  0  0  0  0  0  0  0  0  0  0
    1.9309   -1.4329   -1.1186 C   0  0  0  0  0  0  0  0  0  0  0  0
    2.3279   -0.1581   -0.7644 N   0  0  0  0  0  0  0  0  0  0  0  0
    3.5860    0.4454   -0.9282 C   0  0  0  0  0  0  0  0  0  0  0  0
    3.7236    1.7650   -0.4768 C   0  0  0  0  0  0  0  0  0  0  0  0
    4.9425    2.4386   -0.6022 C   0  0  0  0  0  0  0  0  0  0  0  0
    6.0310    1.7933   -1.1812 C   0  0  0  0  0  0  0  0  0  0  0  0
    7.5320    2.6179   -1.3375 Cl  0  0  0  0  0  0  0  0  0  0  0  0
    5.9081    0.4828   -1.6338 C   0  0  0  0  0  0  0  0  0  0  0  0
    4.6870   -0.1901   -1.5073 C   0  0  0  0  0  0  0  0  0  0  0  0
    0.5484   -1.6786   -0.7823 C   0  0  0  0  0  0  0  0  0  0  0  0
   -0.2734   -0.8192   -0.2060 N   0  0  0  0  0  0  0  0  0  0  0  0
   -1.4453   -1.5315   -0.1086 C   0  0  0  0  0  0  0  0  0  0  0  0
   -2.6906   -0.9577    0.4880 C   0  0  0  0  0  0  0  0  0  0  0  0
   -2.4467   -0.4051    1.8975 C   0  0  0  0  0  0  0  0  0  0  0  0
   -3.7462    0.0566    2.5622 C   0  0  0  0  0  0  0  0  0  0  0  0
   -4.7953    0.5620    1.5707 C   0  0  0  0  0  0  0  0  0  0  0  0
   -4.1560    1.1494    0.3207 C   0  0  0  0  0  0  0  0  0  0  0  0
   -3.3085    0.1171   -0.4281 C   0  0  0  0  0  0  0  0  0  0  0  0
   -1.3867   -2.7779   -0.5951 N   0  0  0  0  0  0  0  0  0  0  0  0
   -0.1122   -2.8461   -1.0150 N   0  0  0  0  0  0  0  0  0  0  0  0
    1.5932    0.3955   -0.3294 H   0  0  0  0  0  0  0  0  0  0  0  0
    2.8855    2.2874   -0.0215 H   0  0  0  0  0  0  0  0  0  0  0  0
    5.0332    3.4617   -0.2473 H   0  0  0  0  0  0  0  0  0  0  0  0
    6.7552   -0.0259   -2.0867 H   0  0  0  0  0  0  0  0  0  0  0  0
    4.6328   -1.2109   -1.8728 H   0  0  0  0  0  0  0  0  0  0  0  0
   -3.4225   -1.7734    0.5829 H   0  0  0  0  0  0  0  0  0  0  0  0
   -1.9615   -1.1556    2.5342 H   0  0  0  0  0  0  0  0  0  0  0  0
   -1.7504    0.4431    1.8458 H   0  0  0  0  0  0  0  0  0  0  0  0
   -3.5085    0.8460    3.2856 H   0  0  0  0  0  0  0  0  0  0  0  0
   -4.1796   -0.7674    3.1420 H   0  0  0  0  0  0  0  0  0  0  0  0
   -5.4524   -0.2681    1.2818 H   0  0  0  0  0  0  0  0  0  0  0  0
   -5.4329    1.3078    2.0586 H   0  0  0  0  0  0  0  0  0  0  0  0
   -3.5233    1.9992    0.6066 H   0  0  0  0  0  0  0  0  0  0  0  0
   -4.9269    1.5465   -0.3493 H   0  0  0  0  0  0  0  0  0  0  0  0
   -3.9300   -0.3856   -1.1810 H   0  0  0  0  0  0  0  0  0  0  0  0
   -2.5361    0.6533   -0.9947 H   0  0  0  0  0  0  0  0  0  0  0  0
    0.2432   -3.6945   -1.4431 H   0  0  0  0  0  0  0  0  0  0  0  0
  1  2  2  0
  2  3  1  0
  3  4  1  0
  4  5  1  0
  5  6  2  0
  6  7  1  0
  7  8  1  0
  7  9  2  0
  9 10  1  0
  2 11  1  0
 11 12  2  0
 12 13  1  0
 13 14  1  0
 14 15  1  0
 15 16  1  0
 16 17  1  0
 17 18  1  0
 18 19  1  0
 13 20  2  0
 20 21  1  0
 10  4  2  0
 21 11  1  0
 19 14  1  0
  3 22  1  0
  5 23  1  0
  6 24  1  0
  9 25  1  0
 10 26  1  0
 14 27  1  0
 15 28  1  0
 15 29  1  0
 16 30  1  0
 16 31  1  0
 17 32  1  0
 17 33  1  0
 18 34  1  0
 18 35  1  0
 19 36  1  0
 19 37  1  0
 21 38  1  0
M  END
>  <_SMILES>  (78) 
O=C(Nc1ccc(Cl)cc1)c1nc(C2CCCCC2)n[nH]1

$$$$

     RDKit          3D

 38 40  0  0  0  0  0  0  0  0999 V2000
    2.5616   -2.8102    0.3098 O   0  0  0  0  0  0  0  0  0  0  0  0
    1.9539   -1.8292   -0.1036 C   0  0  0  0  0  0  0  0  0  0  0  0
    2.5259   -0.5793   -0.3208 N   0  0  0  0  0  0  0  0  0  0  0  0
    3.8460   -0.1773   -0.0265 C   0  0  0  0  0  0  0  0  0  0  0  0
    4.7562   -0.9492    0.7000 C   0  0  0  0  0  0  0  0  0  0  0  0
    6.0457   -0.4701    0.9609 C   0  0  0  0  0  0  0  0  0  0  0  0
    6.4286    0.7854    0.4991 C   0  0  0  0  0  0  0  0  0  0  0  0
    8.0115    1.3739    0.8221 Cl  0  0  0  0  0  0  0  0  0  0  0  0
    5.5318    1.5681   -0.2215 C   0  0  0  0  0  0  0  0  0  0  0  0
    4.2440    1.0881   -0.4813 C   0  0  0  0  0  0  0  0  0  0  0  0
    0.5404   -1.8605   -0.4233 C   0  0  0  0  0  0  0  0  0  0  0  0
   -0.0675   -2.8443   -1.0538 N   0  0  0  0  0  0  0  0  0  0  0  0
   -1.3981   -2.5168   -1.1803 N   0  0  0  0  0  0  0  0  0  0  0  0
   -1.5929   -1.3565   -0.5926 C   0  0  0  0  0  0  0  0  0  0  0  0
   -2.8910   -0.6273   -0.4532 C   0  0  0  0  0  0  0  0  0  0  0  0
   -3.2991   -0.4823    1.0203 C   0  0  0  0  0  0  0  0  0  0  0  0
   -4.6198    0.2714    1.1641 C   0  0  0  0  0  0  0  0  0  0  0  0
   -4.5742    1.6261    0.4634 C   0  0  0  0  0  0  0  0  0  0  0  0
   -4.1693    1.4887   -1.0014 C   0  0  0  0  0  0  0  0  0  0  0  0
   -2.8470    0.7393   -1.1526 C   0  0  0  0  0  0  0  0  0  0  0  0
   -0.3940   -0.9093   -0.1038 N   0  0  0  0  0  0  0  0  0  0  0  0
    1.9817    0.0744   -0.8676 H   0  0  0  0  0  0  0  0  0  0  0  0
    4.4990   -1.9318    1.0848 H   0  0  0  0  0  0  0  0  0  0  0  0
    6.7411   -1.0868    1.5248 H   0  0  0  0  0  0  0  0  0  0  0  0
    5.8275    2.5488   -0.5849 H   0  0  0  0  0  0  0  0  0  0  0  0
    3.5651    1.7185   -1.0499 H   0  0  0  0  0  0  0  0  0  0  0  0
   -3.6593   -1.2335   -0.9540 H   0  0  0  0  0  0  0  0  0  0  0  0
   -2.5212    0.0521    1.5814 H   0  0  0  0  0  0  0  0  0  0  0  0
   -3.3933   -1.4718    1.4849 H   0  0  0  0  0  0  0  0  0  0  0  0
   -4.8487    0.4136    2.2263 H   0  0  0  0  0  0  0  0  0  0  0  0
   -5.4320   -0.3319    0.7404 H   0  0  0  0  0  0  0  0  0  0  0  0
   -3.8601    2.2797    0.9793 H   0  0  0  0  0  0  0  0  0  0  0  0
   -5.5555    2.1090    0.5307 H   0  0  0  0  0  0  0  0  0  0  0  0
   -4.9556    0.9551   -1.5493 H   0  0  0  0  0  0  0  0  0  0  0  0
   -4.0829    2.4828   -1.4545 H   0  0  0  0  0  0  0  0  0  0  0  0
   -2.6225    0.6104   -2.2188 H   0  0  0  0  0  0  0  0  0  0  0  0
   -2.0389    1.3555   -0.7368 H   0  0  0  0  0  0  0  0  0  0  0  0
   -0.2372   -0.0728    0.4380 H   0  0  0  0  0  0  0  0  0  0  0  0
  1  2  2  0
  2  3  1  0
  3  4  1  0
  4  5  1  0
  5  6  2  0
  6  7  1  0
  7  8  1  0
  7  9  2  0
  9 10  1  0
  2 11  1  0
 11 12  2  0
 12 13  1  0
 13 14  2  0
 14 15  1  0
 15 16  1  0
 16 17  1  0
 17 18  1  0
 18 19  1  0
 19 20  1  0
 14 21  1  0
 10  4  2  0
 21 11  1  0
 20 15  1  0
  3 22  1  0
  5 23  1  0
  6 24  1  0
  9 25  1  0
 10 26  1  0
 15 27  1  0
 16 28  1  0
 16 29  1  0
 17 30  1  0
 17 31  1  0
 18 32  1  0
 18 33  1  0
 19 34  1  0
 19 35  1  0
 20 36  1  0
 20 37  1  0
 21 38  1  0
M  END
>  <_SMILES>  (79) 
O=C(Nc1ccc(Cl)cc1)c1nnc(C2CCCCC2)[nH]1

$$$$

     RDKit          3D

 38 40  0  0  0  0  0  0  0  0999 V2000
    2.8785   -1.8980   -2.0058 O   0  0  0  0  0  0  0  0  0  0  0  0
    2.2189   -1.1932   -1.2486 C   0  0  0  0  0  0  0  0  0  0  0  0
    2.7169   -0.4326   -0.2005 N   0  0  0  0  0  0  0  0  0  0  0  0
    4.0479   -0.2950    0.2260 C   0  0  0  0  0  0  0  0  0  0  0  0
    5.1309   -0.9401   -0.3756 C   0  0  0  0  0  0  0  0  0  0  0  0
    6.4295   -0.7494    0.1113 C   0  0  0  0  0  0  0  0  0  0  0  0
    6.6480    0.0875    1.2017 C   0  0  0  0  0  0  0  0  0  0  0  0
    8.2439    0.3209    1.7988 Cl  0  0  0  0  0  0  0  0  0  0  0  0
    5.5784    0.7367    1.8110 C   0  0  0  0  0  0  0  0  0  0  0  0
    4.2821    0.5449    1.3232 C   0  0  0  0  0  0  0  0  0  0  0  0
    0.7473   -1.0511   -1.3514 C   0  0  0  0  0  0  0  0  0  0  0  0
   -0.0213   -1.6651   -2.2671 N   0  0  0  0  0  0  0  0  0  0  0  0
   -1.2459   -1.2266   -1.9511 N   0  0  0  0  0  0  0  0  0  0  0  0
   -1.2192   -0.3762   -0.8813 C   0  0  0  0  0  0  0  0  0  0  0  0
   -2.4350    0.2725   -0.2993 C   0  0  0  0  0  0  0  0  0  0  0  0
   -3.3387   -0.7537    0.4093 C   0  0  0  0  0  0  0  0  0  0  0  0
   -4.8074   -0.3252    0.4807 C   0  0  0  0  0  0  0  0  0  0  0  0
   -4.9573    1.1888    0.5314 C   0  0  0  0  0  0  0  0  0  0  0  0
   -4.3674    1.8623   -0.7090 C   0  0  0  0  0  0  0  0  0  0  0  0
   -3.2146    1.0789   -1.3432 C   0  0  0  0  0  0  0  0  0  0  0  0
    0.0266   -0.2436   -0.4771 N   0  0  0  0  0  0  0  0  0  0  0  0
    2.0005    0.0815    0.3070 H   0  0  0  0  0  0  0  0  0  0  0  0
    5.0023   -1.6007   -1.2279 H   0  0  0  0  0  0  0  0  0  0  0  0
    7.2605   -1.2593   -0.3691 H   0  0  0  0  0  0  0  0  0  0  0  0
    5.7438    1.3910    2.6625 H   0  0  0  0  0  0  0  0  0  0  0  0
    3.4601    1.0612    1.8132 H   0  0  0  0  0  0  0  0  0  0  0  0
   -2.0404   -1.5430   -2.4960 H   0  0  0  0  0  0  0  0  0  0  0  0
   -2.0807    0.9832    0.4616 H   0  0  0  0  0  0  0  0  0  0  0  0
   -2.9558   -0.9077    1.4269 H   0  0  0  0  0  0  0  0  0  0  0  0
   -3.2930   -1.7380   -0.0739 H   0  0  0  0  0  0  0  0  0  0  0  0
   -5.3401   -0.7093   -0.3984 H   0  0  0  0  0  0  0  0  0  0  0  0
   -5.2807   -0.7831    1.3567 H   0  0  0  0  0  0  0  0  0  0  0  0
   -6.0135    1.4634    0.6311 H   0  0  0  0  0  0  0  0  0  0  0  0
   -4.4509    1.5698    1.4273 H   0  0  0  0  0  0  0  0  0  0  0  0
   -4.0254    2.8673   -0.4333 H   0  0  0  0  0  0  0  0  0  0  0  0
   -5.1515    2.0037   -1.4628 H   0  0  0  0  0  0  0  0  0  0  0  0
   -3.6230    0.4027   -2.1064 H   0  0  0  0  0  0  0  0  0  0  0  0
   -2.5545    1.7744   -1.8765 H   0  0  0  0  0  0  0  0  0  0  0  0
  1  2  2  0
  2  3  1  0
  3  4  1  0
  4  5  1  0
  5  6  2  0
  6  7  1  0
  7  8  1  0
  7  9  2  0
  9 10  1  0
  2 11  1  0
 11 12  2  0
 12 13  1  0
 13 14  1  0
 14 15  1  0
 15 16  1  0
 16 17  1  0
 17 18  1  0
 18 19  1  0
 19 20  1  0
 14 21  2  0
 10  4  2  0
 21 11  1  0
 20 15  1  0
  3 22  1  0
  5 23  1  0
  6 24  1  0
  9 25  1  0
 10 26  1  0
 13 27  1  0
 15 28  1  0
 16 29  1  0
 16 30  1  0
 17 31  1  0
 17 32  1  0
 18 33  1  0
 18 34  1  0
 19 35  1  0
 19 36  1  0
 20 37  1  0
 20 38  1  0
M  END
>  <_SMILES>  (80) 
O=C(Nc1ccc(Cl)cc1)c1n[nH]c(C2CCCCC2)n1

$$$$

     RDKit          3D

 28 29  0  0  0  0  0  0  0  0999 V2000
    5.4088    0.3399   -1.2426 C   0  0  0  0  0  0  0  0  0  0  0  0
    4.3712   -0.4598   -0.5610 C   0  0  0  0  0  0  0  0  0  0  0  0
    4.6521   -1.5903    0.0985 N   0  0  0  0  0  0  0  0  0  0  0  0
    3.4362   -1.9557    0.5390 N   0  0  0  0  0  0  0  0  0  0  0  0
    2.4813   -1.0668    0.1481 C   0  0  0  0  0  0  0  0  0  0  0  0
    1.0760   -1.1776    0.4620 C   0  0  0  0  0  0  0  0  0  0  0  0
    0.6376   -2.1119    1.1236 O   0  0  0  0  0  0  0  0  0  0  0  0
    0.3459   -0.1311   -0.0667 N   0  0  0  0  0  0  0  0  0  0  0  0
   -1.0359    0.1074    0.0239 C   0  0  0  0  0  0  0  0  0  0  0  0
   -1.9285   -0.7236    0.7015 C   0  0  0  0  0  0  0  0  0  0  0  0
   -3.2937   -0.4144    0.7446 C   0  0  0  0  0  0  0  0  0  0  0  0
   -3.7916    0.7287    0.1046 C   0  0  0  0  0  0  0  0  0  0  0  0
   -5.2596    1.0718    0.1718 C   0  0  0  0  0  0  0  0  0  0  0  0
   -5.5582    1.8603    1.2407 F   0  0  0  0  0  0  0  0  0  0  0  0
   -6.0625   -0.0236    0.2778 F   0  0  0  0  0  0  0  0  0  0  0  0
   -5.6995    1.7486   -0.9262 F   0  0  0  0  0  0  0  0  0  0  0  0
   -2.8913    1.5657   -0.5673 C   0  0  0  0  0  0  0  0  0  0  0  0
   -1.5281    1.2548   -0.6090 C   0  0  0  0  0  0  0  0  0  0  0  0
    3.0459   -0.1006   -0.5556 N   0  0  0  0  0  0  0  0  0  0  0  0
    6.1639    0.6797   -0.5271 H   0  0  0  0  0  0  0  0  0  0  0  0
    4.9705    1.2222   -1.7192 H   0  0  0  0  0  0  0  0  0  0  0  0
    5.9048   -0.2536   -2.0167 H   0  0  0  0  0  0  0  0  0  0  0  0
    3.3207   -2.8008    1.0885 H   0  0  0  0  0  0  0  0  0  0  0  0
    0.9061    0.5412   -0.5858 H   0  0  0  0  0  0  0  0  0  0  0  0
   -1.5980   -1.6233    1.2115 H   0  0  0  0  0  0  0  0  0  0  0  0
   -3.9683   -1.0788    1.2838 H   0  0  0  0  0  0  0  0  0  0  0  0
   -3.2477    2.4666   -1.0653 H   0  0  0  0  0  0  0  0  0  0  0  0
   -0.8580    1.9249   -1.1430 H   0  0  0  0  0  0  0  0  0  0  0  0
  1  2  1  0
  2  3  2  0
  3  4  1  0
  4  5  1  0
  5  6  1  0
  6  7  2  0
  6  8  1  0
  8  9  1  0
  9 10  1  0
 10 11  2  0
 11 12  1  0
 12 13  1  0
 13 14  1  0
 13 15  1  0
 13 16  1  0
 12 17  2  0
 17 18  1  0
  5 19  2  0
 19  2  1  0
 18  9  2  0
  1 20  1  0
  1 21  1  0
  1 22  1  0
  4 23  1  0
  8 24  1  0
 10 25  1  0
 11 26  1  0
 17 27  1  0
 18 28  1  0
M  END
>  <_SMILES>  (81) 
Cc1n[nH]c(C(=O)Nc2ccc(C(F)(F)F)cc2)n1

$$$$

     RDKit          3D

 28 29  0  0  0  0  0  0  0  0999 V2000
   -5.5290    0.3285   -1.1422 C   0  0  0  0  0  0  0  0  0  0  0  0
   -4.5325   -0.1433   -0.1596 C   0  0  0  0  0  0  0  0  0  0  0  0
   -4.7489   -0.5582    1.0682 N   0  0  0  0  0  0  0  0  0  0  0  0
   -3.5414   -0.9383    1.6090 N   0  0  0  0  0  0  0  0  0  0  0  0
   -2.6004   -0.7135    0.7144 C   0  0  0  0  0  0  0  0  0  0  0  0
   -1.1892   -0.9814    0.9113 C   0  0  0  0  0  0  0  0  0  0  0  0
   -0.7788   -1.9949    1.4653 O   0  0  0  0  0  0  0  0  0  0  0  0
   -0.3756    0.0297    0.4094 N   0  0  0  0  0  0  0  0  0  0  0  0
    1.0342    0.0464    0.3500 C   0  0  0  0  0  0  0  0  0  0  0  0
    1.6424    1.2422   -0.0524 C   0  0  0  0  0  0  0  0  0  0  0  0
    3.0348    1.3404   -0.1493 C   0  0  0  0  0  0  0  0  0  0  0  0
    3.8486    0.2387    0.1448 C   0  0  0  0  0  0  0  0  0  0  0  0
    5.3518    0.3484    0.0638 C   0  0  0  0  0  0  0  0  0  0  0  0
    5.9645   -0.8394   -0.1980 F   0  0  0  0  0  0  0  0  0  0  0  0
    5.7676    1.2026   -0.9136 F   0  0  0  0  0  0  0  0  0  0  0  0
    5.9011    0.8091    1.2205 F   0  0  0  0  0  0  0  0  0  0  0  0
    3.2375   -0.9549    0.5503 C   0  0  0  0  0  0  0  0  0  0  0  0
    1.8435   -1.0510    0.6466 C   0  0  0  0  0  0  0  0  0  0  0  0
   -3.1924   -0.2228   -0.4215 N   0  0  0  0  0  0  0  0  0  0  0  0
   -6.5337    0.3183   -0.7085 H   0  0  0  0  0  0  0  0  0  0  0  0
   -5.5334   -0.3157   -2.0268 H   0  0  0  0  0  0  0  0  0  0  0  0
   -5.3051    1.3521   -1.4579 H   0  0  0  0  0  0  0  0  0  0  0  0
   -0.8322    0.9027    0.1821 H   0  0  0  0  0  0  0  0  0  0  0  0
    1.0469    2.1207   -0.2890 H   0  0  0  0  0  0  0  0  0  0  0  0
    3.4836    2.2846   -0.4557 H   0  0  0  0  0  0  0  0  0  0  0  0
    3.8437   -1.8266    0.7958 H   0  0  0  0  0  0  0  0  0  0  0  0
    1.4265   -2.0049    0.9570 H   0  0  0  0  0  0  0  0  0  0  0  0
   -2.7342   -0.0196   -1.2972 H   0  0  0  0  0  0  0  0  0  0  0  0
  1  2  1  0
  2  3  2  0
  3  4  1  0
  4  5  2  0
  5  6  1  0
  6  7  2  0
  6  8  1  0
  8  9  1  0
  9 10  1  0
 10 11  2  0
 11 12  1  0
 12 13  1  0
 13 14  1  0
 13 15  1  0
 13 16  1  0
 12 17  2  0
 17 18  1  0
  5 19  1  0
 19  2  1  0
 18  9  2  0
  1 20  1  0
  1 21  1  0
  1 22  1  0
  8 23  1  0
 10 24  1  0
 11 25  1  0
 17 26  1  0
 18 27  1  0
 19 28  1  0
M  END
>  <_SMILES>  (82) 
Cc1nnc(C(=O)Nc2ccc(C(F)(F)F)cc2)[nH]1

$$$$

     RDKit          3D

 28 29  0  0  0  0  0  0  0  0999 V2000
    6.0413   -0.5784    0.5087 C   0  0  0  0  0  0  0  0  0  0  0  0
    4.6018   -0.3608    0.2584 C   0  0  0  0  0  0  0  0  0  0  0  0
    3.5867   -0.7331    1.0035 N   0  0  0  0  0  0  0  0  0  0  0  0
    2.4783   -0.2824    0.3144 C   0  0  0  0  0  0  0  0  0  0  0  0
    1.0795   -0.4703    0.7714 C   0  0  0  0  0  0  0  0  0  0  0  0
    0.7976   -1.0509    1.8146 O   0  0  0  0  0  0  0  0  0  0  0  0
    0.1751    0.0862   -0.1215 N   0  0  0  0  0  0  0  0  0  0  0  0
   -1.2266    0.1159   -0.0462 C   0  0  0  0  0  0  0  0  0  0  0  0
   -1.9089    0.7483   -1.0920 C   0  0  0  0  0  0  0  0  0  0  0  0
   -3.3058    0.8215   -1.0938 C   0  0  0  0  0  0  0  0  0  0  0  0
   -4.0492    0.2557   -0.0495 C   0  0  0  0  0  0  0  0  0  0  0  0
   -5.5548    0.3524   -0.0362 C   0  0  0  0  0  0  0  0  0  0  0  0
   -6.0992    0.3487   -1.2858 F   0  0  0  0  0  0  0  0  0  0  0  0
   -5.9950    1.4956    0.5581 F   0  0  0  0  0  0  0  0  0  0  0  0
   -6.1546   -0.6724    0.6314 F   0  0  0  0  0  0  0  0  0  0  0  0
   -3.3621   -0.3688    1.0001 C   0  0  0  0  0  0  0  0  0  0  0  0
   -1.9635   -0.4406    0.9994 C   0  0  0  0  0  0  0  0  0  0  0  0
    2.7844    0.3589   -0.8376 N   0  0  0  0  0  0  0  0  0  0  0  0
    4.1269    0.2909   -0.8409 N   0  0  0  0  0  0  0  0  0  0  0  0
    6.4894   -1.1649   -0.2993 H   0  0  0  0  0  0  0  0  0  0  0  0
    6.1917   -1.1212    1.4469 H   0  0  0  0  0  0  0  0  0  0  0  0
    6.5696    0.3773    0.5800 H   0  0  0  0  0  0  0  0  0  0  0  0
    0.6197    0.5217   -0.9260 H   0  0  0  0  0  0  0  0  0  0  0  0
   -1.3631    1.1947   -1.9200 H   0  0  0  0  0  0  0  0  0  0  0  0
   -3.8122    1.3223   -1.9178 H   0  0  0  0  0  0  0  0  0  0  0  0
   -3.9115   -0.8091    1.8316 H   0  0  0  0  0  0  0  0  0  0  0  0
   -1.4819   -0.9392    1.8357 H   0  0  0  0  0  0  0  0  0  0  0  0
    4.6463    0.7021   -1.6088 H   0  0  0  0  0  0  0  0  0  0  0  0
  1  2  1  0
  2  3  2  0
  3  4  1  0
  4  5  1  0
  5  6  2  0
  5  7  1  0
  7  8  1  0
  8  9  1  0
  9 10  2  0
 10 11  1  0
 11 12  1  0
 12 13  1  0
 12 14  1  0
 12 15  1  0
 11 16  2  0
 16 17  1  0
  4 18  2  0
 18 19  1  0
 19  2  1  0
 17  8  2  0
  1 20  1  0
  1 21  1  0
  1 22  1  0
  7 23  1  0
  9 24  1  0
 10 25  1  0
 16 26  1  0
 17 27  1  0
 19 28  1  0
M  END
>  <_SMILES>  (83) 
Cc1nc(C(=O)Nc2ccc(C(F)(F)F)cc2)n[nH]1

$$$$

     RDKit          3D

 32 34  0  0  0  0  0  0  0  0999 V2000
    1.8279   -2.0671    1.9101 O   0  0  0  0  0  0  0  0  0  0  0  0
    1.2342   -1.2284    1.2420 C   0  0  0  0  0  0  0  0  0  0  0  0
    1.7653   -0.0621    0.7267 N   0  0  0  0  0  0  0  0  0  0  0  0
    3.0770    0.4286    0.8417 C   0  0  0  0  0  0  0  0  0  0  0  0
    3.3572    1.6515    0.2169 C   0  0  0  0  0  0  0  0  0  0  0  0
    4.6375    2.2098    0.2830 C   0  0  0  0  0  0  0  0  0  0  0  0
    5.6450    1.5455    0.9759 C   0  0  0  0  0  0  0  0  0  0  0  0
    7.2210    2.2284    1.0598 Cl  0  0  0  0  0  0  0  0  0  0  0  0
    5.3804    0.3302    1.6009 C   0  0  0  0  0  0  0  0  0  0  0  0
    4.0979   -0.2273    1.5337 C   0  0  0  0  0  0  0  0  0  0  0  0
   -0.1612   -1.3809    0.9052 C   0  0  0  0  0  0  0  0  0  0  0  0
   -0.8854   -0.5366    0.1942 N   0  0  0  0  0  0  0  0  0  0  0  0
   -2.1334   -1.1315    0.1592 C   0  0  0  0  0  0  0  0  0  0  0  0
   -3.2660   -0.5268   -0.5373 C   0  0  0  0  0  0  0  0  0  0  0  0
   -4.5205   -1.1547   -0.5550 C   0  0  0  0  0  0  0  0  0  0  0  0
   -5.6003   -0.5711   -1.2231 C   0  0  0  0  0  0  0  0  0  0  0  0
   -5.4379    0.6466   -1.8807 C   0  0  0  0  0  0  0  0  0  0  0  0
   -4.1977    1.2821   -1.8717 C   0  0  0  0  0  0  0  0  0  0  0  0
   -3.1176    0.6986   -1.2036 C   0  0  0  0  0  0  0  0  0  0  0  0
   -2.1927   -2.3005    0.8199 N   0  0  0  0  0  0  0  0  0  0  0  0
   -0.9388   -2.4315    1.2783 N   0  0  0  0  0  0  0  0  0  0  0  0
    1.0992    0.4971    0.1990 H   0  0  0  0  0  0  0  0  0  0  0  0
    2.5845    2.1871   -0.3296 H   0  0  0  0  0  0  0  0  0  0  0  0
    4.8389    3.1587   -0.2066 H   0  0  0  0  0  0  0  0  0  0  0  0
    6.1637   -0.1928    2.1434 H   0  0  0  0  0  0  0  0  0  0  0  0
    3.9335   -1.1762    2.0346 H   0  0  0  0  0  0  0  0  0  0  0  0
   -4.6643   -2.1061   -0.0464 H   0  0  0  0  0  0  0  0  0  0  0  0
   -6.5665   -1.0690   -1.2286 H   0  0  0  0  0  0  0  0  0  0  0  0
   -6.2782    1.1001   -2.4003 H   0  0  0  0  0  0  0  0  0  0  0  0
   -4.0697    2.2320   -2.3843 H   0  0  0  0  0  0  0  0  0  0  0  0
   -2.1569    1.2084   -1.2067 H   0  0  0  0  0  0  0  0  0  0  0  0
   -0.6760   -3.2422    1.8291 H   0  0  0  0  0  0  0  0  0  0  0  0
  1  2  2  0
  2  3  1  0
  3  4  1  0
  4  5  1  0
  5  6  2  0
  6  7  1  0
  7  8  1  0
  7  9  2  0
  9 10  1  0
  2 11  1  0
 11 12  2  0
 12 13  1  0
 13 14  1  0
 14 15  2  0
 15 16  1  0
 16 17  2  0
 17 18  1  0
 18 19  2  0
 13 20  2  0
 20 21  1  0
 10  4  2  0
 21 11  1  0
 19 14  1  0
  3 22  1  0
  5 23  1  0
  6 24  1  0
  9 25  1  0
 10 26  1  0
 15 27  1  0
 16 28  1  0
 17 29  1  0
 18 30  1  0
 19 31  1  0
 21 32  1  0
M  END
>  <_SMILES>  (84) 
O=C(Nc1ccc(Cl)cc1)c1nc(-c2ccccc2)n[nH]1

$$$$

     RDKit          3D

 32 34  0  0  0  0  0  0  0  0999 V2000
    1.2488   -1.3304    1.2491 O   0  0  0  0  0  0  0  0  0  0  0  0
    1.1999   -0.4386    0.4086 C   0  0  0  0  0  0  0  0  0  0  0  0
    2.2786    0.1761   -0.1975 N   0  0  0  0  0  0  0  0  0  0  0  0
    3.6489   -0.0675   -0.0008 C   0  0  0  0  0  0  0  0  0  0  0  0
    4.1535   -1.0209    0.8868 C   0  0  0  0  0  0  0  0  0  0  0  0
    5.5351   -1.2012    1.0234 C   0  0  0  0  0  0  0  0  0  0  0  0
    6.4159   -0.4280    0.2725 C   0  0  0  0  0  0  0  0  0  0  0  0
    8.1126   -0.6514    0.4422 Cl  0  0  0  0  0  0  0  0  0  0  0  0
    5.9274    0.5255   -0.6155 C   0  0  0  0  0  0  0  0  0  0  0  0
    4.5472    0.7041   -0.7507 C   0  0  0  0  0  0  0  0  0  0  0  0
   -0.0640    0.0850   -0.0549 C   0  0  0  0  0  0  0  0  0  0  0  0
   -0.2121    1.0385   -0.9511 N   0  0  0  0  0  0  0  0  0  0  0  0
   -1.5620    1.2453   -1.1136 N   0  0  0  0  0  0  0  0  0  0  0  0
   -2.2218    0.4191   -0.3180 C   0  0  0  0  0  0  0  0  0  0  0  0
   -3.6752    0.3084   -0.1783 C   0  0  0  0  0  0  0  0  0  0  0  0
   -4.2829   -0.6043    0.6976 C   0  0  0  0  0  0  0  0  0  0  0  0
   -5.6765   -0.6767    0.7997 C   0  0  0  0  0  0  0  0  0  0  0  0
   -6.4802    0.1602    0.0294 C   0  0  0  0  0  0  0  0  0  0  0  0
   -5.8935    1.0710   -0.8443 C   0  0  0  0  0  0  0  0  0  0  0  0
   -4.5020    1.1433   -0.9463 C   0  0  0  0  0  0  0  0  0  0  0  0
   -1.2967   -0.3281    0.3648 N   0  0  0  0  0  0  0  0  0  0  0  0
    2.0256    0.8959   -0.8707 H   0  0  0  0  0  0  0  0  0  0  0  0
    3.5013   -1.6441    1.4905 H   0  0  0  0  0  0  0  0  0  0  0  0
    5.9115   -1.9473    1.7184 H   0  0  0  0  0  0  0  0  0  0  0  0
    6.6105    1.1319   -1.2042 H   0  0  0  0  0  0  0  0  0  0  0  0
    4.1865    1.4548   -1.4503 H   0  0  0  0  0  0  0  0  0  0  0  0
   -3.6961   -1.2756    1.3170 H   0  0  0  0  0  0  0  0  0  0  0  0
   -6.1354   -1.3881    1.4822 H   0  0  0  0  0  0  0  0  0  0  0  0
   -7.5628    0.1030    0.1095 H   0  0  0  0  0  0  0  0  0  0  0  0
   -6.5153    1.7270   -1.4483 H   0  0  0  0  0  0  0  0  0  0  0  0
   -4.0612    1.8626   -1.6357 H   0  0  0  0  0  0  0  0  0  0  0  0
   -1.4656   -1.0493    1.0494 H   0  0  0  0  0  0  0  0  0  0  0  0
  1  2  2  0
  2  3  1  0
  3  4  1  0
  4  5  1  0
  5  6  2  0
  6  7  1  0
  7  8  1  0
  7  9  2  0
  9 10  1  0
  2 11  1  0
 11 12  2  0
 12 13  1  0
 13 14  2  0
 14 15  1  0
 15 16  2  0
 16 17  1  0
 17 18  2  0
 18 19  1  0
 19 20  2  0
 14 21  1  0
 10  4  2  0
 21 11  1  0
 20 15  1  0
  3 22  1  0
  5 23  1  0
  6 24  1  0
  9 25  1  0
 10 26  1  0
 16 27  1  0
 17 28  1  0
 18 29  1  0
 19 30  1  0
 20 31  1  0
 21 32  1  0
M  END
>  <_SMILES>  (85) 
O=C(Nc1ccc(Cl)cc1)c1nnc(-c2ccccc2)[nH]1

$$$$

     RDKit          3D

 32 34  0  0  0  0  0  0  0  0999 V2000
    1.9957   -2.6457   -0.9434 O   0  0  0  0  0  0  0  0  0  0  0  0
    1.3486   -1.6666   -0.5863 C   0  0  0  0  0  0  0  0  0  0  0  0
    1.8666   -0.4241   -0.2505 N   0  0  0  0  0  0  0  0  0  0  0  0
    3.2086   -0.0095   -0.2407 C   0  0  0  0  0  0  0  0  0  0  0  0
    4.2825   -0.8326   -0.5873 C   0  0  0  0  0  0  0  0  0  0  0  0
    5.5930   -0.3415   -0.5513 C   0  0  0  0  0  0  0  0  0  0  0  0
    5.8326    0.9749   -0.1684 C   0  0  0  0  0  0  0  0  0  0  0  0
    7.4430    1.5769   -0.1247 Cl  0  0  0  0  0  0  0  0  0  0  0  0
    4.7723    1.8064    0.1796 C   0  0  0  0  0  0  0  0  0  0  0  0
    3.4641    1.3141    0.1430 C   0  0  0  0  0  0  0  0  0  0  0  0
   -0.1278   -1.6763   -0.4601 C   0  0  0  0  0  0  0  0  0  0  0  0
   -0.9120   -2.7356   -0.7164 N   0  0  0  0  0  0  0  0  0  0  0  0
   -2.1332   -2.2481   -0.4600 N   0  0  0  0  0  0  0  0  0  0  0  0
   -2.0991   -0.9387   -0.0612 C   0  0  0  0  0  0  0  0  0  0  0  0
   -3.2687   -0.1293    0.2895 C   0  0  0  0  0  0  0  0  0  0  0  0
   -3.0832    1.2055    0.6828 C   0  0  0  0  0  0  0  0  0  0  0  0
   -4.1698    2.0139    1.0259 C   0  0  0  0  0  0  0  0  0  0  0  0
   -5.4615    1.4979    0.9807 C   0  0  0  0  0  0  0  0  0  0  0  0
   -5.6659    0.1760    0.5931 C   0  0  0  0  0  0  0  0  0  0  0  0
   -4.5778   -0.6337    0.2494 C   0  0  0  0  0  0  0  0  0  0  0  0
   -0.8357   -0.5519   -0.0531 N   0  0  0  0  0  0  0  0  0  0  0  0
    1.1595    0.2551    0.0199 H   0  0  0  0  0  0  0  0  0  0  0  0
    4.1379   -1.8651   -0.8914 H   0  0  0  0  0  0  0  0  0  0  0  0
    6.4167   -0.9961   -0.8243 H   0  0  0  0  0  0  0  0  0  0  0  0
    4.9542    2.8349    0.4792 H   0  0  0  0  0  0  0  0  0  0  0  0
    2.6500    1.9800    0.4186 H   0  0  0  0  0  0  0  0  0  0  0  0
   -2.9345   -2.8558   -0.5763 H   0  0  0  0  0  0  0  0  0  0  0  0
   -2.0805    1.6277    0.7245 H   0  0  0  0  0  0  0  0  0  0  0  0
   -4.0049    3.0452    1.3278 H   0  0  0  0  0  0  0  0  0  0  0  0
   -6.3082    2.1256    1.2474 H   0  0  0  0  0  0  0  0  0  0  0  0
   -6.6758   -0.2263    0.5581 H   0  0  0  0  0  0  0  0  0  0  0  0
   -4.7869   -1.6573   -0.0463 H   0  0  0  0  0  0  0  0  0  0  0  0
  1  2  2  0
  2  3  1  0
  3  4  1  0
  4  5  1  0
  5  6  2  0
  6  7  1  0
  7  8  1  0
  7  9  2  0
  9 10  1  0
  2 11  1  0
 11 12  2  0
 12 13  1  0
 13 14  1  0
 14 15  1  0
 15 16  2  0
 16 17  1  0
 17 18  2  0
 18 19  1  0
 19 20  2  0
 14 21  2  0
 10  4  2  0
 21 11  1  0
 20 15  1  0
  3 22  1  0
  5 23  1  0
  6 24  1  0
  9 25  1  0
 10 26  1  0
 13 27  1  0
 16 28  1  0
 17 29  1  0
 18 30  1  0
 19 31  1  0
 20 32  1  0
M  END
>  <_SMILES>  (86) 
O=C(Nc1ccc(Cl)cc1)c1n[nH]c(-c2ccccc2)n1

$$$$

     RDKit          3D

 31 32  0  0  0  0  0  0  0  0999 V2000
    5.4700   -0.6854   -0.0697 C   0  0  0  0  0  0  0  0  0  0  0  0
    4.8377   -0.0995    1.1824 C   0  0  0  0  0  0  0  0  0  0  0  0
    3.6989    0.7996    0.8672 C   0  0  0  0  0  0  0  0  0  0  0  0
    3.8381    2.1240    0.7283 N   0  0  0  0  0  0  0  0  0  0  0  0
    2.5783    2.5007    0.4514 N   0  0  0  0  0  0  0  0  0  0  0  0
    1.7358    1.4310    0.4297 C   0  0  0  0  0  0  0  0  0  0  0  0
    0.3189    1.5047    0.1606 C   0  0  0  0  0  0  0  0  0  0  0  0
   -0.2357    2.5727   -0.0732 O   0  0  0  0  0  0  0  0  0  0  0  0
   -0.2791    0.2605    0.2046 N   0  0  0  0  0  0  0  0  0  0  0  0
   -1.6288   -0.0711   -0.0027 C   0  0  0  0  0  0  0  0  0  0  0  0
   -2.6245    0.8600   -0.2990 C   0  0  0  0  0  0  0  0  0  0  0  0
   -3.9486    0.4469   -0.4918 C   0  0  0  0  0  0  0  0  0  0  0  0
   -4.2993   -0.9069   -0.3981 C   0  0  0  0  0  0  0  0  0  0  0  0
   -5.7308   -1.3468   -0.5837 C   0  0  0  0  0  0  0  0  0  0  0  0
   -6.4337   -0.5435   -1.4300 F   0  0  0  0  0  0  0  0  0  0  0  0
   -5.8396   -2.6063   -1.0926 F   0  0  0  0  0  0  0  0  0  0  0  0
   -6.4251   -1.3562    0.5873 F   0  0  0  0  0  0  0  0  0  0  0  0
   -3.2986   -1.8382   -0.0915 C   0  0  0  0  0  0  0  0  0  0  0  0
   -1.9768   -1.4230    0.1006 C   0  0  0  0  0  0  0  0  0  0  0  0
    2.4198    0.3306    0.6915 N   0  0  0  0  0  0  0  0  0  0  0  0
    6.3000   -1.3471    0.1974 H   0  0  0  0  0  0  0  0  0  0  0  0
    4.7418   -1.2672   -0.6451 H   0  0  0  0  0  0  0  0  0  0  0  0
    5.8594    0.1035   -0.7222 H   0  0  0  0  0  0  0  0  0  0  0  0
    4.4855   -0.9146    1.8254 H   0  0  0  0  0  0  0  0  0  0  0  0
    5.5981    0.4465    1.7531 H   0  0  0  0  0  0  0  0  0  0  0  0
    2.3575    3.4777    0.2897 H   0  0  0  0  0  0  0  0  0  0  0  0
    0.3644   -0.4987    0.4162 H   0  0  0  0  0  0  0  0  0  0  0  0
   -2.4084    1.9204   -0.3870 H   0  0  0  0  0  0  0  0  0  0  0  0
   -4.7072    1.1954   -0.7188 H   0  0  0  0  0  0  0  0  0  0  0  0
   -3.5432   -2.8959   -0.0020 H   0  0  0  0  0  0  0  0  0  0  0  0
   -1.2247   -2.1735    0.3336 H   0  0  0  0  0  0  0  0  0  0  0  0
  1  2  1  0
  2  3  1  0
  3  4  2  0
  4  5  1  0
  5  6  1  0
  6  7  1  0
  7  8  2  0
  7  9  1  0
  9 10  1  0
 10 11  1  0
 11 12  2  0
 12 13  1  0
 13 14  1  0
 14 15  1  0
 14 16  1  0
 14 17  1  0
 13 18  2  0
 18 19  1  0
  6 20  2  0
 20  3  1  0
 19 10  2  0
  1 21  1  0
  1 22  1  0
  1 23  1  0
  2 24  1  0
  2 25  1  0
  5 26  1  0
  9 27  1  0
 11 28  1  0
 12 29  1  0
 18 30  1  0
 19 31  1  0
M  END
>  <_SMILES>  (87) 
CCc1n[nH]c(C(=O)Nc2ccc(C(F)(F)F)cc2)n1

$$$$

     RDKit          3D

 31 32  0  0  0  0  0  0  0  0999 V2000
   -5.3578    0.5705   -1.1838 C   0  0  0  0  0  0  0  0  0  0  0  0
   -5.0666   -0.5163   -0.1622 C   0  0  0  0  0  0  0  0  0  0  0  0
   -3.9204   -0.1513    0.7080 C   0  0  0  0  0  0  0  0  0  0  0  0
   -3.9587    0.4960    1.8511 N   0  0  0  0  0  0  0  0  0  0  0  0
   -2.6727    0.5866    2.3334 N   0  0  0  0  0  0  0  0  0  0  0  0
   -1.8637    0.0256    1.4577 C   0  0  0  0  0  0  0  0  0  0  0  0
   -0.4247   -0.0731    1.6035 C   0  0  0  0  0  0  0  0  0  0  0  0
    0.1151   -0.3581    2.6665 O   0  0  0  0  0  0  0  0  0  0  0  0
    0.2542    0.1920    0.4181 N   0  0  0  0  0  0  0  0  0  0  0  0
    1.6422    0.0935    0.1839 C   0  0  0  0  0  0  0  0  0  0  0  0
    2.1174    0.5651   -1.0464 C   0  0  0  0  0  0  0  0  0  0  0  0
    3.4783    0.4940   -1.3633 C   0  0  0  0  0  0  0  0  0  0  0  0
    4.3923   -0.0613   -0.4585 C   0  0  0  0  0  0  0  0  0  0  0  0
    5.8642   -0.1182   -0.7879 C   0  0  0  0  0  0  0  0  0  0  0  0
    6.5173   -1.1345   -0.1592 F   0  0  0  0  0  0  0  0  0  0  0  0
    6.5180    1.0232   -0.4388 F   0  0  0  0  0  0  0  0  0  0  0  0
    6.1017   -0.2928   -2.1187 F   0  0  0  0  0  0  0  0  0  0  0  0
    3.9144   -0.5290    0.7726 C   0  0  0  0  0  0  0  0  0  0  0  0
    2.5517   -0.4569    1.0878 C   0  0  0  0  0  0  0  0  0  0  0  0
   -2.6193   -0.4651    0.4236 N   0  0  0  0  0  0  0  0  0  0  0  0
   -6.2117    0.2867   -1.8071 H   0  0  0  0  0  0  0  0  0  0  0  0
   -4.4977    0.7376   -1.8413 H   0  0  0  0  0  0  0  0  0  0  0  0
   -5.5950    1.5212   -0.6940 H   0  0  0  0  0  0  0  0  0  0  0  0
   -5.9546   -0.6784    0.4594 H   0  0  0  0  0  0  0  0  0  0  0  0
   -4.8621   -1.4613   -0.6787 H   0  0  0  0  0  0  0  0  0  0  0  0
   -0.2830    0.6276   -0.3195 H   0  0  0  0  0  0  0  0  0  0  0  0
    1.4413    1.0039   -1.7761 H   0  0  0  0  0  0  0  0  0  0  0  0
    3.8239    0.8762   -2.3233 H   0  0  0  0  0  0  0  0  0  0  0  0
    4.6018   -0.9572    1.5019 H   0  0  0  0  0  0  0  0  0  0  0  0
    2.2389   -0.8441    2.0535 H   0  0  0  0  0  0  0  0  0  0  0  0
   -2.2847   -1.0021   -0.3623 H   0  0  0  0  0  0  0  0  0  0  0  0
  1  2  1  0
  2  3  1  0
  3  4  2  0
  4  5  1  0
  5  6  2  0
  6  7  1  0
  7  8  2  0
  7  9  1  0
  9 10  1  0
 10 11  1  0
 11 12  2  0
 12 13  1  0
 13 14  1  0
 14 15  1  0
 14 16  1  0
 14 17  1  0
 13 18  2  0
 18 19  1  0
  6 20  1  0
 20  3  1  0
 19 10  2  0
  1 21  1  0
  1 22  1  0
  1 23  1  0
  2 24  1  0
  2 25  1  0
  9 26  1  0
 11 27  1  0
 12 28  1  0
 18 29  1  0
 19 30  1  0
 20 31  1  0
M  END
>  <_SMILES>  (88) 
CCc1nnc(C(=O)Nc2ccc(C(F)(F)F)cc2)[nH]1

$$$$

     RDKit          3D

 31 32  0  0  0  0  0  0  0  0999 V2000
    6.0693    0.0501    0.6462 C   0  0  0  0  0  0  0  0  0  0  0  0
    5.3663   -0.7337   -0.4499 C   0  0  0  0  0  0  0  0  0  0  0  0
    3.9108   -0.4404   -0.4800 C   0  0  0  0  0  0  0  0  0  0  0  0
    2.9555   -1.0414    0.1917 N   0  0  0  0  0  0  0  0  0  0  0  0
    1.8044   -0.3860   -0.1977 C   0  0  0  0  0  0  0  0  0  0  0  0
    0.4476   -0.7164    0.3029 C   0  0  0  0  0  0  0  0  0  0  0  0
    0.2430   -1.6129    1.1148 O   0  0  0  0  0  0  0  0  0  0  0  0
   -0.5158    0.1069   -0.2619 N   0  0  0  0  0  0  0  0  0  0  0  0
   -1.9032    0.1095   -0.0463 C   0  0  0  0  0  0  0  0  0  0  0  0
   -2.6569    1.0556   -0.7506 C   0  0  0  0  0  0  0  0  0  0  0  0
   -4.0451    1.1250   -0.5933 C   0  0  0  0  0  0  0  0  0  0  0  0
   -4.7084    0.2421    0.2691 C   0  0  0  0  0  0  0  0  0  0  0  0
   -6.2027    0.3286    0.4588 C   0  0  0  0  0  0  0  0  0  0  0  0
   -6.8581    0.7440   -0.6617 F   0  0  0  0  0  0  0  0  0  0  0  0
   -6.7721   -0.8608    0.8006 F   0  0  0  0  0  0  0  0  0  0  0  0
   -6.5501    1.2063    1.4400 F   0  0  0  0  0  0  0  0  0  0  0  0
   -3.9493   -0.6978    0.9791 C   0  0  0  0  0  0  0  0  0  0  0  0
   -2.5596   -0.7651    0.8198 C   0  0  0  0  0  0  0  0  0  0  0  0
    2.0250    0.6041   -1.0937 N   0  0  0  0  0  0  0  0  0  0  0  0
    3.3588    0.5416   -1.2487 N   0  0  0  0  0  0  0  0  0  0  0  0
    7.1374   -0.1887    0.6583 H   0  0  0  0  0  0  0  0  0  0  0  0
    5.9639    1.1295    0.4919 H   0  0  0  0  0  0  0  0  0  0  0  0
    5.6558   -0.1895    1.6319 H   0  0  0  0  0  0  0  0  0  0  0  0
    5.8199   -0.4977   -1.4195 H   0  0  0  0  0  0  0  0  0  0  0  0
    5.5141   -1.8066   -0.2815 H   0  0  0  0  0  0  0  0  0  0  0  0
   -0.1323    0.7867   -0.9141 H   0  0  0  0  0  0  0  0  0  0  0  0
   -2.1745    1.7536   -1.4309 H   0  0  0  0  0  0  0  0  0  0  0  0
   -4.6078    1.8728   -1.1504 H   0  0  0  0  0  0  0  0  0  0  0  0
   -4.4349   -1.3913    1.6650 H   0  0  0  0  0  0  0  0  0  0  0  0
   -2.0203   -1.5149    1.3914 H   0  0  0  0  0  0  0  0  0  0  0  0
    3.8193    1.1869   -1.8811 H   0  0  0  0  0  0  0  0  0  0  0  0
  1  2  1  0
  2  3  1  0
  3  4  2  0
  4  5  1  0
  5  6  1  0
  6  7  2  0
  6  8  1  0
  8  9  1  0
  9 10  1  0
 10 11  2  0
 11 12  1  0
 12 13  1  0
 13 14  1  0
 13 15  1  0
 13 16  1  0
 12 17  2  0
 17 18  1  0
  5 19  2  0
 19 20  1  0
 20  3  1  0
 18  9  2  0
  1 21  1  0
  1 22  1  0
  1 23  1  0
  2 24  1  0
  2 25  1  0
  8 26  1  0
 10 27  1  0
 11 28  1  0
 17 29  1  0
 18 30  1  0
 20 31  1  0
M  END
>  <_SMILES>  (89) 
CCc1nc(C(=O)Nc2ccc(C(F)(F)F)cc2)n[nH]1

$$$$

     RDKit          3D

 38 40  0  0  0  0  0  0  0  0999 V2000
    2.6938   -2.1171   -1.6605 O   0  0  0  0  0  0  0  0  0  0  0  0
    2.1070   -1.2169   -1.0705 C   0  0  0  0  0  0  0  0  0  0  0  0
    2.6816   -0.1157   -0.4678 N   0  0  0  0  0  0  0  0  0  0  0  0
    4.0417    0.2300   -0.3872 C   0  0  0  0  0  0  0  0  0  0  0  0
    4.3596    1.4150    0.2891 C   0  0  0  0  0  0  0  0  0  0  0  0
    5.6877    1.8306    0.4143 C   0  0  0  0  0  0  0  0  0  0  0  0
    6.7108    1.0641   -0.1363 C   0  0  0  0  0  0  0  0  0  0  0  0
    6.4042   -0.1155   -0.8105 C   0  0  0  0  0  0  0  0  0  0  0  0
    5.0746   -0.5318   -0.9359 C   0  0  0  0  0  0  0  0  0  0  0  0
    0.6689   -1.2148   -0.9368 C   0  0  0  0  0  0  0  0  0  0  0  0
   -0.0536   -0.2945   -0.3223 N   0  0  0  0  0  0  0  0  0  0  0  0
   -1.3390   -0.7554   -0.4791 C   0  0  0  0  0  0  0  0  0  0  0  0
   -2.5169   -0.0172    0.0737 C   0  0  0  0  0  0  0  0  0  0  0  0
   -3.5827    0.2698   -0.9909 C   0  0  0  0  0  0  0  0  0  0  0  0
   -4.7022    1.1635   -0.4500 C   0  0  0  0  0  0  0  0  0  0  0  0
   -4.9556    0.9894    1.0483 C   0  0  0  0  0  0  0  0  0  0  0  0
   -4.6030   -0.4128    1.5234 C   0  0  0  0  0  0  0  0  0  0  0  0
   -3.1259   -0.7421    1.2901 C   0  0  0  0  0  0  0  0  0  0  0  0
   -1.4430   -1.9084   -1.1540 N   0  0  0  0  0  0  0  0  0  0  0  0
   -0.1566   -2.1769   -1.4331 N   0  0  0  0  0  0  0  0  0  0  0  0
    2.0123    0.5136   -0.0315 H   0  0  0  0  0  0  0  0  0  0  0  0
    3.5787    2.0311    0.7278 H   0  0  0  0  0  0  0  0  0  0  0  0
    5.9216    2.7519    0.9413 H   0  0  0  0  0  0  0  0  0  0  0  0
    7.7451    1.3841   -0.0411 H   0  0  0  0  0  0  0  0  0  0  0  0
    7.1999   -0.7176   -1.2423 H   0  0  0  0  0  0  0  0  0  0  0  0
    4.8827   -1.4571   -1.4692 H   0  0  0  0  0  0  0  0  0  0  0  0
   -2.1447    0.9566    0.4246 H   0  0  0  0  0  0  0  0  0  0  0  0
   -3.1369    0.7437   -1.8744 H   0  0  0  0  0  0  0  0  0  0  0  0
   -4.0192   -0.6752   -1.3416 H   0  0  0  0  0  0  0  0  0  0  0  0
   -4.4638    2.2161   -0.6455 H   0  0  0  0  0  0  0  0  0  0  0  0
   -5.6214    0.9505   -1.0091 H   0  0  0  0  0  0  0  0  0  0  0  0
   -6.0045    1.2145    1.2720 H   0  0  0  0  0  0  0  0  0  0  0  0
   -4.3549    1.7192    1.6059 H   0  0  0  0  0  0  0  0  0  0  0  0
   -5.2256   -1.1406    0.9878 H   0  0  0  0  0  0  0  0  0  0  0  0
   -4.8397   -0.5239    2.5877 H   0  0  0  0  0  0  0  0  0  0  0  0
   -3.0276   -1.8316    1.2002 H   0  0  0  0  0  0  0  0  0  0  0  0
   -2.5473   -0.4671    2.1820 H   0  0  0  0  0  0  0  0  0  0  0  0
    0.0937   -3.0115   -1.9527 H   0  0  0  0  0  0  0  0  0  0  0  0
  1  2  2  0
  2  3  1  0
  3  4  1  0
  4  5  2  0
  5  6  1  0
  6  7  2  0
  7  8  1  0
  8  9  2  0
  2 10  1  0
 10 11  2  0
 11 12  1  0
 12 13  1  0
 13 14  1  0
 14 15  1  0
 15 16  1  0
 16 17  1  0
 17 18  1  0
 12 19  2  0
 19 20  1  0
  9  4  1  0
 20 10  1  0
 18 13  1  0
  3 21  1  0
  5 22  1  0
  6 23  1  0
  7 24  1  0
  8 25  1  0
  9 26  1  0
 13 27  1  0
 14 28  1  0
 14 29  1  0
 15 30  1  0
 15 31  1  0
 16 32  1  0
 16 33  1  0
 17 34  1  0
 17 35  1  0
 18 36  1  0
 18 37  1  0
 20 38  1  0
M  END
>  <_SMILES>  (90) 
O=C(Nc1ccccc1)c1nc(C2CCCCC2)n[nH]1

$$$$

     RDKit          3D

 38 40  0  0  0  0  0  0  0  0999 V2000
    2.8809   -1.1789   -2.1594 O   0  0  0  0  0  0  0  0  0  0  0  0
    2.1642   -0.4821   -1.4498 C   0  0  0  0  0  0  0  0  0  0  0  0
    2.5864    0.1689   -0.2950 N   0  0  0  0  0  0  0  0  0  0  0  0
    3.8472    0.0747    0.3322 C   0  0  0  0  0  0  0  0  0  0  0  0
    4.8372   -0.8388   -0.0337 C   0  0  0  0  0  0  0  0  0  0  0  0
    6.0561   -0.8756    0.6518 C   0  0  0  0  0  0  0  0  0  0  0  0
    6.2940   -0.0031    1.7106 C   0  0  0  0  0  0  0  0  0  0  0  0
    5.3121    0.9083    2.0873 C   0  0  0  0  0  0  0  0  0  0  0  0
    4.0943    0.9455    1.4028 C   0  0  0  0  0  0  0  0  0  0  0  0
    0.7628   -0.2495   -1.7418 C   0  0  0  0  0  0  0  0  0  0  0  0
    0.2656   -0.0543   -2.9461 N   0  0  0  0  0  0  0  0  0  0  0  0
   -1.0927    0.1326   -2.8260 N   0  0  0  0  0  0  0  0  0  0  0  0
   -1.4127    0.0112   -1.5562 C   0  0  0  0  0  0  0  0  0  0  0  0
   -2.7822    0.1023   -0.9627 C   0  0  0  0  0  0  0  0  0  0  0  0
   -3.2062   -1.2266   -0.3200 C   0  0  0  0  0  0  0  0  0  0  0  0
   -4.6008   -1.1313    0.2955 C   0  0  0  0  0  0  0  0  0  0  0  0
   -4.7007    0.0236    1.2877 C   0  0  0  0  0  0  0  0  0  0  0  0
   -4.2807    1.3471    0.6551 C   0  0  0  0  0  0  0  0  0  0  0  0
   -2.8849    1.2603    0.0409 C   0  0  0  0  0  0  0  0  0  0  0  0
   -0.2702   -0.2296   -0.8403 N   0  0  0  0  0  0  0  0  0  0  0  0
    1.9746    0.8868    0.0681 H   0  0  0  0  0  0  0  0  0  0  0  0
    4.6971   -1.5430   -0.8482 H   0  0  0  0  0  0  0  0  0  0  0  0
    6.8197   -1.5897    0.3525 H   0  0  0  0  0  0  0  0  0  0  0  0
    7.2438   -0.0339    2.2383 H   0  0  0  0  0  0  0  0  0  0  0  0
    5.4951    1.5924    2.9119 H   0  0  0  0  0  0  0  0  0  0  0  0
    3.3493    1.6711    1.7179 H   0  0  0  0  0  0  0  0  0  0  0  0
   -3.4796    0.3120   -1.7862 H   0  0  0  0  0  0  0  0  0  0  0  0
   -2.4915   -1.5186    0.4607 H   0  0  0  0  0  0  0  0  0  0  0  0
   -3.1936   -2.0287   -1.0686 H   0  0  0  0  0  0  0  0  0  0  0  0
   -4.8456   -2.0728    0.8000 H   0  0  0  0  0  0  0  0  0  0  0  0
   -5.3424   -0.9937   -0.5011 H   0  0  0  0  0  0  0  0  0  0  0  0
   -4.0623   -0.1847    2.1551 H   0  0  0  0  0  0  0  0  0  0  0  0
   -5.7286    0.1024    1.6591 H   0  0  0  0  0  0  0  0  0  0  0  0
   -5.0039    1.6268   -0.1209 H   0  0  0  0  0  0  0  0  0  0  0  0
   -4.3016    2.1399    1.4113 H   0  0  0  0  0  0  0  0  0  0  0  0
   -2.1489    1.1347    0.8460 H   0  0  0  0  0  0  0  0  0  0  0  0
   -2.6459    2.2103   -0.4533 H   0  0  0  0  0  0  0  0  0  0  0  0
   -0.2053   -0.4161    0.1491 H   0  0  0  0  0  0  0  0  0  0  0  0
  1  2  2  0
  2  3  1  0
  3  4  1  0
  4  5  2  0
  5  6  1  0
  6  7  2  0
  7  8  1  0
  8  9  2  0
  2 10  1  0
 10 11  2  0
 11 12  1  0
 12 13  2  0
 13 14  1  0
 14 15  1  0
 15 16  1  0
 16 17  1  0
 17 18  1  0
 18 19  1  0
 13 20  1  0
  9  4  1  0
 20 10  1  0
 19 14  1  0
  3 21  1  0
  5 22  1  0
  6 23  1  0
  7 24  1  0
  8 25  1  0
  9 26  1  0
 14 27  1  0
 15 28  1  0
 15 29  1  0
 16 30  1  0
 16 31  1  0
 17 32  1  0
 17 33  1  0
 18 34  1  0
 18 35  1  0
 19 36  1  0
 19 37  1  0
 20 38  1  0
M  END
>  <_SMILES>  (91) 
O=C(Nc1ccccc1)c1nnc(C2CCCCC2)[nH]1

$$$$

     RDKit          3D

 38 40  0  0  0  0  0  0  0  0999 V2000
    2.2536    0.6178    2.2292 O   0  0  0  0  0  0  0  0  0  0  0  0
    1.9643    0.2616    1.0915 C   0  0  0  0  0  0  0  0  0  0  0  0
    2.8598   -0.0993    0.0959 N   0  0  0  0  0  0  0  0  0  0  0  0
    4.2626   -0.1417    0.1498 C   0  0  0  0  0  0  0  0  0  0  0  0
    5.0103    0.1925    1.2798 C   0  0  0  0  0  0  0  0  0  0  0  0
    6.4072    0.1232    1.2501 C   0  0  0  0  0  0  0  0  0  0  0  0
    7.0663   -0.2804    0.0913 C   0  0  0  0  0  0  0  0  0  0  0  0
    6.3294   -0.6158   -1.0410 C   0  0  0  0  0  0  0  0  0  0  0  0
    4.9341   -0.5465   -1.0112 C   0  0  0  0  0  0  0  0  0  0  0  0
    0.5613    0.1681    0.6181 C   0  0  0  0  0  0  0  0  0  0  0  0
    0.2432   -0.2247   -0.6361 N   0  0  0  0  0  0  0  0  0  0  0  0
   -1.0986   -0.1597   -0.6122 N   0  0  0  0  0  0  0  0  0  0  0  0
   -1.5686    0.2533    0.6004 C   0  0  0  0  0  0  0  0  0  0  0  0
   -3.0152    0.4309    0.9579 C   0  0  0  0  0  0  0  0  0  0  0  0
   -3.6992    1.5417    0.1475 C   0  0  0  0  0  0  0  0  0  0  0  0
   -4.1903    1.1000   -1.2300 C   0  0  0  0  0  0  0  0  0  0  0  0
   -5.0338   -0.1669   -1.1529 C   0  0  0  0  0  0  0  0  0  0  0  0
   -4.2927   -1.2994   -0.4525 C   0  0  0  0  0  0  0  0  0  0  0  0
   -3.8029   -0.8873    0.9345 C   0  0  0  0  0  0  0  0  0  0  0  0
   -0.5405    0.4662    1.3932 N   0  0  0  0  0  0  0  0  0  0  0  0
    2.4096   -0.3628   -0.7769 H   0  0  0  0  0  0  0  0  0  0  0  0
    4.5383    0.5120    2.2037 H   0  0  0  0  0  0  0  0  0  0  0  0
    6.9772    0.3865    2.1376 H   0  0  0  0  0  0  0  0  0  0  0  0
    8.1517   -0.3327    0.0727 H   0  0  0  0  0  0  0  0  0  0  0  0
    6.8389   -0.9313   -1.9475 H   0  0  0  0  0  0  0  0  0  0  0  0
    4.3807   -0.8134   -1.9078 H   0  0  0  0  0  0  0  0  0  0  0  0
   -1.6170   -0.4078   -1.4464 H   0  0  0  0  0  0  0  0  0  0  0  0
   -3.0082    0.7697    2.0046 H   0  0  0  0  0  0  0  0  0  0  0  0
   -4.5715    1.8901    0.7169 H   0  0  0  0  0  0  0  0  0  0  0  0
   -3.0363    2.4091    0.0391 H   0  0  0  0  0  0  0  0  0  0  0  0
   -3.3403    0.9382   -1.9011 H   0  0  0  0  0  0  0  0  0  0  0  0
   -4.7852    1.9054   -1.6766 H   0  0  0  0  0  0  0  0  0  0  0  0
   -5.9647    0.0476   -0.6137 H   0  0  0  0  0  0  0  0  0  0  0  0
   -5.3177   -0.4821   -2.1634 H   0  0  0  0  0  0  0  0  0  0  0  0
   -4.9590   -2.1650   -0.3578 H   0  0  0  0  0  0  0  0  0  0  0  0
   -3.4499   -1.6274   -1.0699 H   0  0  0  0  0  0  0  0  0  0  0  0
   -3.2118   -1.7019    1.3711 H   0  0  0  0  0  0  0  0  0  0  0  0
   -4.6850   -0.7678    1.5781 H   0  0  0  0  0  0  0  0  0  0  0  0
  1  2  2  0
  2  3  1  0
  3  4  1  0
  4  5  2  0
  5  6  1  0
  6  7  2  0
  7  8  1  0
  8  9  2  0
  2 10  1  0
 10 11  2  0
 11 12  1  0
 12 13  1  0
 13 14  1  0
 14 15  1  0
 15 16  1  0
 16 17  1  0
 17 18  1  0
 18 19  1  0
 13 20  2  0
  9  4  1  0
 20 10  1  0
 19 14  1  0
  3 21  1  0
  5 22  1  0
  6 23  1  0
  7 24  1  0
  8 25  1  0
  9 26  1  0
 12 27  1  0
 14 28  1  0
 15 29  1  0
 15 30  1  0
 16 31  1  0
 16 32  1  0
 17 33  1  0
 17 34  1  0
 18 35  1  0
 18 36  1  0
 19 37  1  0
 19 38  1  0
M  END
>  <_SMILES>  (92) 
O=C(Nc1ccccc1)c1n[nH]c(C2CCCCC2)n1

$$$$

     RDKit          3D

 32 34  0  0  0  0  0  0  0  0999 V2000
   -2.1465    1.8528    1.6344 O   0  0  0  0  0  0  0  0  0  0  0  0
   -1.4388    1.1051    0.9691 C   0  0  0  0  0  0  0  0  0  0  0  0
   -1.8668    0.1580    0.0603 N   0  0  0  0  0  0  0  0  0  0  0  0
   -3.1827   -0.1685   -0.3112 C   0  0  0  0  0  0  0  0  0  0  0  0
   -4.3184    0.4512    0.2128 C   0  0  0  0  0  0  0  0  0  0  0  0
   -5.5943    0.0657   -0.2120 C   0  0  0  0  0  0  0  0  0  0  0  0
   -5.7442   -0.9411   -1.1627 C   0  0  0  0  0  0  0  0  0  0  0  0
   -4.6177   -1.5650   -1.6912 C   0  0  0  0  0  0  0  0  0  0  0  0
   -3.3433   -1.1801   -1.2670 C   0  0  0  0  0  0  0  0  0  0  0  0
    0.0008    1.1405    1.0740 C   0  0  0  0  0  0  0  0  0  0  0  0
    0.8492    0.3816    0.4051 N   0  0  0  0  0  0  0  0  0  0  0  0
    2.0858    0.8011    0.8599 C   0  0  0  0  0  0  0  0  0  0  0  0
    3.3337    0.2171    0.3748 C   0  0  0  0  0  0  0  0  0  0  0  0
    3.3129   -0.8059   -0.5847 C   0  0  0  0  0  0  0  0  0  0  0  0
    4.5035   -1.3686   -1.0527 C   0  0  0  0  0  0  0  0  0  0  0  0
    5.7279   -0.9146   -0.5663 C   0  0  0  0  0  0  0  0  0  0  0  0
    5.7643    0.1010    0.3871 C   0  0  0  0  0  0  0  0  0  0  0  0
    4.5739    0.6638    0.8552 C   0  0  0  0  0  0  0  0  0  0  0  0
    2.0199    1.7825    1.7761 N   0  0  0  0  0  0  0  0  0  0  0  0
    0.6970    1.9749    1.8904 N   0  0  0  0  0  0  0  0  0  0  0  0
   -1.1138   -0.3589   -0.3866 H   0  0  0  0  0  0  0  0  0  0  0  0
   -4.2498    1.2397    0.9551 H   0  0  0  0  0  0  0  0  0  0  0  0
   -6.4712    0.5559    0.2037 H   0  0  0  0  0  0  0  0  0  0  0  0
   -6.7372   -1.2377   -1.4901 H   0  0  0  0  0  0  0  0  0  0  0  0
   -4.7294   -2.3511   -2.4333 H   0  0  0  0  0  0  0  0  0  0  0  0
   -2.4796   -1.6828   -1.6950 H   0  0  0  0  0  0  0  0  0  0  0  0
    2.3661   -1.1722   -0.9751 H   0  0  0  0  0  0  0  0  0  0  0  0
    4.4736   -2.1607   -1.7964 H   0  0  0  0  0  0  0  0  0  0  0  0
    6.6541   -1.3521   -0.9301 H   0  0  0  0  0  0  0  0  0  0  0  0
    6.7179    0.4571    0.7683 H   0  0  0  0  0  0  0  0  0  0  0  0
    4.6197    1.4562    1.5999 H   0  0  0  0  0  0  0  0  0  0  0  0
    0.3333    2.6750    2.5284 H   0  0  0  0  0  0  0  0  0  0  0  0
  1  2  2  0
  2  3  1  0
  3  4  1  0
  4  5  2  0
  5  6  1  0
  6  7  2  0
  7  8  1  0
  8  9  2  0
  2 10  1  0
 10 11  2  0
 11 12  1  0
 12 13  1  0
 13 14  2  0
 14 15  1  0
 15 16  2  0
 16 17  1  0
 17 18  2  0
 12 19  2  0
 19 20  1  0
  9  4  1  0
 20 10  1  0
 18 13  1  0
  3 21  1  0
  5 22  1  0
  6 23  1  0
  7 24  1  0
  8 25  1  0
  9 26  1  0
 14 27  1  0
 15 28  1  0
 16 29  1  0
 17 30  1  0
 18 31  1  0
 20 32  1  0
M  END
>  <_SMILES>  (93) 
O=C(Nc1ccccc1)c1nc(-c2ccccc2)n[nH]1

$$$$

     RDKit          3D

 32 34  0  0  0  0  0  0  0  0999 V2000
    1.8853   -2.5935    0.5667 O   0  0  0  0  0  0  0  0  0  0  0  0
    1.3168   -1.5083    0.5314 C   0  0  0  0  0  0  0  0  0  0  0  0
    1.9483   -0.2880    0.3150 N   0  0  0  0  0  0  0  0  0  0  0  0
    3.3050   -0.0683   -0.0058 C   0  0  0  0  0  0  0  0  0  0  0  0
    3.7495    1.2612   -0.0239 C   0  0  0  0  0  0  0  0  0  0  0  0
    5.0748    1.5667   -0.3453 C   0  0  0  0  0  0  0  0  0  0  0  0
    5.9682    0.5459   -0.6557 C   0  0  0  0  0  0  0  0  0  0  0  0
    5.5350   -0.7774   -0.6453 C   0  0  0  0  0  0  0  0  0  0  0  0
    4.2085   -1.0839   -0.3237 C   0  0  0  0  0  0  0  0  0  0  0  0
   -0.1140   -1.3694    0.7164 C   0  0  0  0  0  0  0  0  0  0  0  0
   -0.8258   -2.0189    1.6124 N   0  0  0  0  0  0  0  0  0  0  0  0
   -2.1349   -1.6130    1.4890 N   0  0  0  0  0  0  0  0  0  0  0  0
   -2.2220   -0.7528    0.4911 C   0  0  0  0  0  0  0  0  0  0  0  0
   -3.4341   -0.0893    0.0075 C   0  0  0  0  0  0  0  0  0  0  0  0
   -4.6347   -0.2610    0.7142 C   0  0  0  0  0  0  0  0  0  0  0  0
   -5.8145    0.3564    0.2916 C   0  0  0  0  0  0  0  0  0  0  0  0
   -5.8114    1.1550   -0.8482 C   0  0  0  0  0  0  0  0  0  0  0  0
   -4.6310    1.3341   -1.5653 C   0  0  0  0  0  0  0  0  0  0  0  0
   -3.4491    0.7161   -1.1418 C   0  0  0  0  0  0  0  0  0  0  0  0
   -0.9599   -0.5785   -0.0167 N   0  0  0  0  0  0  0  0  0  0  0  0
    1.4159    0.5421    0.5373 H   0  0  0  0  0  0  0  0  0  0  0  0
    3.0773    2.0799    0.2181 H   0  0  0  0  0  0  0  0  0  0  0  0
    5.4100    2.6008   -0.3501 H   0  0  0  0  0  0  0  0  0  0  0  0
    7.0007    0.7786   -0.9036 H   0  0  0  0  0  0  0  0  0  0  0  0
    6.2287   -1.5794   -0.8863 H   0  0  0  0  0  0  0  0  0  0  0  0
    3.9173   -2.1298   -0.3347 H   0  0  0  0  0  0  0  0  0  0  0  0
   -4.6571   -0.8847    1.6076 H   0  0  0  0  0  0  0  0  0  0  0  0
   -6.7333    0.2092    0.8538 H   0  0  0  0  0  0  0  0  0  0  0  0
   -6.7298    1.6337   -1.1789 H   0  0  0  0  0  0  0  0  0  0  0  0
   -4.6318    1.9531   -2.4593 H   0  0  0  0  0  0  0  0  0  0  0  0
   -2.5562    0.8751   -1.7377 H   0  0  0  0  0  0  0  0  0  0  0  0
   -0.7020   -0.0117   -0.8083 H   0  0  0  0  0  0  0  0  0  0  0  0
  1  2  2  0
  2  3  1  0
  3  4  1  0
  4  5  2  0
  5  6  1  0
  6  7  2  0
  7  8  1  0
  8  9  2  0
  2 10  1  0
 10 11  2  0
 11 12  1  0
 12 13  2  0
 13 14  1  0
 14 15  2  0
 15 16  1  0
 16 17  2  0
 17 18  1  0
 18 19  2  0
 13 20  1  0
  9  4  1  0
 20 10  1  0
 19 14  1  0
  3 21  1  0
  5 22  1  0
  6 23  1  0
  7 24  1  0
  8 25  1  0
  9 26  1  0
 15 27  1  0
 16 28  1  0
 17 29  1  0
 18 30  1  0
 19 31  1  0
 20 32  1  0
M  END
>  <_SMILES>  (94) 
O=C(Nc1ccccc1)c1nnc(-c2ccccc2)[nH]1

$$$$

     RDKit          3D

 32 34  0  0  0  0  0  0  0  0999 V2000
   -1.3832   -1.8850   -0.0283 O   0  0  0  0  0  0  0  0  0  0  0  0
   -1.2565   -0.6664    0.0328 C   0  0  0  0  0  0  0  0  0  0  0  0
   -2.2858    0.2627    0.0520 N   0  0  0  0  0  0  0  0  0  0  0  0
   -3.6717    0.0382    0.0074 C   0  0  0  0  0  0  0  0  0  0  0  0
   -4.5023    1.1658    0.0408 C   0  0  0  0  0  0  0  0  0  0  0  0
   -5.8924    1.0294    0.0004 C   0  0  0  0  0  0  0  0  0  0  0  0
   -6.4647   -0.2374   -0.0739 C   0  0  0  0  0  0  0  0  0  0  0  0
   -5.6465   -1.3641   -0.1076 C   0  0  0  0  0  0  0  0  0  0  0  0
   -4.2550   -1.2275   -0.0671 C   0  0  0  0  0  0  0  0  0  0  0  0
    0.0710   -0.0074    0.0966 C   0  0  0  0  0  0  0  0  0  0  0  0
    0.2128    1.3349    0.1640 N   0  0  0  0  0  0  0  0  0  0  0  0
    1.5510    1.4624    0.2027 N   0  0  0  0  0  0  0  0  0  0  0  0
    2.1928    0.2553    0.1609 C   0  0  0  0  0  0  0  0  0  0  0  0
    3.6443    0.0621    0.1872 C   0  0  0  0  0  0  0  0  0  0  0  0
    4.1578   -1.2435    0.1375 C   0  0  0  0  0  0  0  0  0  0  0  0
    5.5347   -1.4781    0.1599 C   0  0  0  0  0  0  0  0  0  0  0  0
    6.4208   -0.4075    0.2326 C   0  0  0  0  0  0  0  0  0  0  0  0
    5.9306    0.8952    0.2827 C   0  0  0  0  0  0  0  0  0  0  0  0
    4.5514    1.1304    0.2602 C   0  0  0  0  0  0  0  0  0  0  0  0
    1.2716   -0.6861    0.0936 N   0  0  0  0  0  0  0  0  0  0  0  0
   -1.9626    1.2252    0.1057 H   0  0  0  0  0  0  0  0  0  0  0  0
   -4.0793    2.1653    0.0987 H   0  0  0  0  0  0  0  0  0  0  0  0
   -6.5264    1.9116    0.0269 H   0  0  0  0  0  0  0  0  0  0  0  0
   -7.5453   -0.3482   -0.1055 H   0  0  0  0  0  0  0  0  0  0  0  0
   -6.0876   -2.3561   -0.1655 H   0  0  0  0  0  0  0  0  0  0  0  0
   -3.6560   -2.1325   -0.0955 H   0  0  0  0  0  0  0  0  0  0  0  0
    1.9552    2.3889    0.2567 H   0  0  0  0  0  0  0  0  0  0  0  0
    3.4780   -2.0935    0.0804 H   0  0  0  0  0  0  0  0  0  0  0  0
    5.9101   -2.4976    0.1205 H   0  0  0  0  0  0  0  0  0  0  0  0
    7.4925   -0.5892    0.2501 H   0  0  0  0  0  0  0  0  0  0  0  0
    6.6244    1.7307    0.3394 H   0  0  0  0  0  0  0  0  0  0  0  0
    4.2164    2.1621    0.3012 H   0  0  0  0  0  0  0  0  0  0  0  0
  1  2  2  0
  2  3  1  0
  3  4  1  0
  4  5  2  0
  5  6  1  0
  6  7  2  0
  7  8  1  0
  8  9  2  0
  2 10  1  0
 10 11  2  0
 11 12  1  0
 12 13  1  0
 13 14  1  0
 14 15  2  0
 15 16  1  0
 16 17  2  0
 17 18  1  0
 18 19  2  0
 13 20  2  0
  9  4  1  0
 20 10  1  0
 19 14  1  0
  3 21  1  0
  5 22  1  0
  6 23  1  0
  7 24  1  0
  8 25  1  0
  9 26  1  0
 12 27  1  0
 15 28  1  0
 16 29  1  0
 17 30  1  0
 18 31  1  0
 19 32  1  0
M  END
>  <_SMILES>  (95) 
O=C(Nc1ccccc1)c1n[nH]c(-c2ccccc2)n1

$$$$

     RDKit          3D

 38 40  0  0  0  0  0  0  0  0999 V2000
    2.9092    1.6262   -1.3799 O   0  0  0  0  0  0  0  0  0  0  0  0
    2.2287    0.9460   -0.6203 C   0  0  0  0  0  0  0  0  0  0  0  0
    2.6825    0.2269    0.4683 N   0  0  0  0  0  0  0  0  0  0  0  0
    3.9958    0.1057    0.9531 C   0  0  0  0  0  0  0  0  0  0  0  0
    5.1030    0.7312    0.3720 C   0  0  0  0  0  0  0  0  0  0  0  0
    6.3790    0.5582    0.9181 C   0  0  0  0  0  0  0  0  0  0  0  0
    6.5453   -0.2389    2.0427 C   0  0  0  0  0  0  0  0  0  0  0  0
    7.7680   -0.4027    2.5634 F   0  0  0  0  0  0  0  0  0  0  0  0
    5.4586   -0.8683    2.6341 C   0  0  0  0  0  0  0  0  0  0  0  0
    4.1840   -0.6957    2.0890 C   0  0  0  0  0  0  0  0  0  0  0  0
    0.8009    0.8174   -0.7933 C   0  0  0  0  0  0  0  0  0  0  0  0
   -0.0126    0.1099   -0.0290 N   0  0  0  0  0  0  0  0  0  0  0  0
   -1.2410    0.3178   -0.6102 C   0  0  0  0  0  0  0  0  0  0  0  0
   -2.4898   -0.3085   -0.0681 C   0  0  0  0  0  0  0  0  0  0  0  0
   -3.0120   -1.4138   -1.0069 C   0  0  0  0  0  0  0  0  0  0  0  0
   -4.4867   -1.7062   -0.7604 C   0  0  0  0  0  0  0  0  0  0  0  0
   -5.3610   -0.4808   -1.0302 C   0  0  0  0  0  0  0  0  0  0  0  0
   -4.6416    0.8488   -0.7962 C   0  0  0  0  0  0  0  0  0  0  0  0
   -3.5702    0.7356    0.2838 C   0  0  0  0  0  0  0  0  0  0  0  0
   -1.2231    1.1122   -1.6891 N   0  0  0  0  0  0  0  0  0  0  0  0
    0.0821    1.4155   -1.7826 N   0  0  0  0  0  0  0  0  0  0  0  0
    1.9489   -0.2713    0.9672 H   0  0  0  0  0  0  0  0  0  0  0  0
    5.0103    1.3610   -0.5072 H   0  0  0  0  0  0  0  0  0  0  0  0
    7.2407    1.0424    0.4694 H   0  0  0  0  0  0  0  0  0  0  0  0
    5.6085   -1.4874    3.5127 H   0  0  0  0  0  0  0  0  0  0  0  0
    3.3428   -1.1953    2.5635 H   0  0  0  0  0  0  0  0  0  0  0  0
   -2.2095   -0.7894    0.8804 H   0  0  0  0  0  0  0  0  0  0  0  0
   -2.8794   -1.1326   -2.0600 H   0  0  0  0  0  0  0  0  0  0  0  0
   -2.4210   -2.3263   -0.8597 H   0  0  0  0  0  0  0  0  0  0  0  0
   -4.6207   -2.0274    0.2803 H   0  0  0  0  0  0  0  0  0  0  0  0
   -4.8192   -2.5405   -1.3885 H   0  0  0  0  0  0  0  0  0  0  0  0
   -5.7250   -0.5049   -2.0646 H   0  0  0  0  0  0  0  0  0  0  0  0
   -6.2519   -0.5384   -0.3930 H   0  0  0  0  0  0  0  0  0  0  0  0
   -4.1800    1.1819   -1.7338 H   0  0  0  0  0  0  0  0  0  0  0  0
   -5.3740    1.6169   -0.5225 H   0  0  0  0  0  0  0  0  0  0  0  0
   -4.0602    0.4340    1.2194 H   0  0  0  0  0  0  0  0  0  0  0  0
   -3.1268    1.7201    0.4764 H   0  0  0  0  0  0  0  0  0  0  0  0
    0.4173    2.0208   -2.5247 H   0  0  0  0  0  0  0  0  0  0  0  0
  1  2  2  0
  2  3  1  0
  3  4  1  0
  4  5  1  0
  5  6  2  0
  6  7  1  0
  7  8  1  0
  7  9  2  0
  9 10  1  0
  2 11  1  0
 11 12  2  0
 12 13  1  0
 13 14  1  0
 14 15  1  0
 15 16  1  0
 16 17  1  0
 17 18  1  0
 18 19  1  0
 13 20  2  0
 20 21  1  0
 10  4  2  0
 21 11  1  0
 19 14  1  0
  3 22  1  0
  5 23  1  0
  6 24  1  0
  9 25  1  0
 10 26  1  0
 14 27  1  0
 15 28  1  0
 15 29  1  0
 16 30  1  0
 16 31  1  0
 17 32  1  0
 17 33  1  0
 18 34  1  0
 18 35  1  0
 19 36  1  0
 19 37  1  0
 21 38  1  0
M  END
>  <_SMILES>  (96) 
O=C(Nc1ccc(F)cc1)c1nc(C2CCCCC2)n[nH]1

$$$$

     RDKit          3D

 38 40  0  0  0  0  0  0  0  0999 V2000
    2.6608   -0.0342    2.7482 O   0  0  0  0  0  0  0  0  0  0  0  0
    2.1199    0.1859    1.6705 C   0  0  0  0  0  0  0  0  0  0  0  0
    2.7900    0.2817    0.4548 N   0  0  0  0  0  0  0  0  0  0  0  0
    4.1613    0.0552    0.2106 C   0  0  0  0  0  0  0  0  0  0  0  0
    4.6409    0.3682   -1.0709 C   0  0  0  0  0  0  0  0  0  0  0  0
    5.9836    0.1619   -1.3983 C   0  0  0  0  0  0  0  0  0  0  0  0
    6.8473   -0.3609   -0.4459 C   0  0  0  0  0  0  0  0  0  0  0  0
    8.1336   -0.5606   -0.7592 F   0  0  0  0  0  0  0  0  0  0  0  0
    6.3914   -0.6813    0.8252 C   0  0  0  0  0  0  0  0  0  0  0  0
    5.0473   -0.4752    1.1537 C   0  0  0  0  0  0  0  0  0  0  0  0
    0.6894    0.3785    1.5369 C   0  0  0  0  0  0  0  0  0  0  0  0
   -0.0556    1.0852    2.3622 N   0  0  0  0  0  0  0  0  0  0  0  0
   -1.3549    1.0435    1.9113 N   0  0  0  0  0  0  0  0  0  0  0  0
   -1.3921    0.2815    0.8400 C   0  0  0  0  0  0  0  0  0  0  0  0
   -2.5862   -0.0903    0.0220 C   0  0  0  0  0  0  0  0  0  0  0  0
   -3.2357    1.1597   -0.5899 C   0  0  0  0  0  0  0  0  0  0  0  0
   -4.4881    0.8078   -1.3898 C   0  0  0  0  0  0  0  0  0  0  0  0
   -5.4886    0.0187   -0.5507 C   0  0  0  0  0  0  0  0  0  0  0  0
   -4.8511   -1.2241    0.0632 C   0  0  0  0  0  0  0  0  0  0  0  0
   -3.5994   -0.8770    0.8664 C   0  0  0  0  0  0  0  0  0  0  0  0
   -0.1235   -0.1555    0.5700 N   0  0  0  0  0  0  0  0  0  0  0  0
    2.2700    0.6833   -0.3140 H   0  0  0  0  0  0  0  0  0  0  0  0
    3.9830    0.7823   -1.8305 H   0  0  0  0  0  0  0  0  0  0  0  0
    6.3603    0.4071   -2.3862 H   0  0  0  0  0  0  0  0  0  0  0  0
    7.0805   -1.0898    1.5580 H   0  0  0  0  0  0  0  0  0  0  0  0
    4.7282   -0.7440    2.1564 H   0  0  0  0  0  0  0  0  0  0  0  0
   -2.2580   -0.7384   -0.8028 H   0  0  0  0  0  0  0  0  0  0  0  0
   -3.5038    1.8736    0.2005 H   0  0  0  0  0  0  0  0  0  0  0  0
   -2.5203    1.6745   -1.2434 H   0  0  0  0  0  0  0  0  0  0  0  0
   -4.2047    0.2184   -2.2704 H   0  0  0  0  0  0  0  0  0  0  0  0
   -4.9595    1.7258   -1.7585 H   0  0  0  0  0  0  0  0  0  0  0  0
   -5.8802    0.6601    0.2485 H   0  0  0  0  0  0  0  0  0  0  0  0
   -6.3421   -0.2736   -1.1727 H   0  0  0  0  0  0  0  0  0  0  0  0
   -4.5887   -1.9313   -0.7333 H   0  0  0  0  0  0  0  0  0  0  0  0
   -5.5766   -1.7283    0.7114 H   0  0  0  0  0  0  0  0  0  0  0  0
   -3.8909   -0.2938    1.7502 H   0  0  0  0  0  0  0  0  0  0  0  0
   -3.1411   -1.8006    1.2414 H   0  0  0  0  0  0  0  0  0  0  0  0
    0.1534   -0.7943   -0.1602 H   0  0  0  0  0  0  0  0  0  0  0  0
  1  2  2  0
  2  3  1  0
  3  4  1  0
  4  5  1  0
  5  6  2  0
  6  7  1  0
  7  8  1  0
  7  9  2  0
  9 10  1  0
  2 11  1  0
 11 12  2  0
 12 13  1  0
 13 14  2  0
 14 15  1  0
 15 16  1  0
 16 17  1  0
 17 18  1  0
 18 19  1  0
 19 20  1  0
 14 21  1  0
 10  4  2  0
 21 11  1  0
 20 15  1  0
  3 22  1  0
  5 23  1  0
  6 24  1  0
  9 25  1  0
 10 26  1  0
 15 27  1  0
 16 28  1  0
 16 29  1  0
 17 30  1  0
 17 31  1  0
 18 32  1  0
 18 33  1  0
 19 34  1  0
 19 35  1  0
 20 36  1  0
 20 37  1  0
 21 38  1  0
M  END
>  <_SMILES>  (97) 
O=C(Nc1ccc(F)cc1)c1nnc(C2CCCCC2)[nH]1

$$$$

     RDKit          3D

 38 40  0  0  0  0  0  0  0  0999 V2000
    3.0376   -2.3775   -0.7797 O   0  0  0  0  0  0  0  0  0  0  0  0
    2.3212   -1.4262   -0.4848 C   0  0  0  0  0  0  0  0  0  0  0  0
    2.7552   -0.1706   -0.0848 N   0  0  0  0  0  0  0  0  0  0  0  0
    4.0721    0.2919    0.0714 C   0  0  0  0  0  0  0  0  0  0  0  0
    5.2069   -0.4891   -0.1666 C   0  0  0  0  0  0  0  0  0  0  0  0
    6.4854    0.0491    0.0133 C   0  0  0  0  0  0  0  0  0  0  0  0
    6.6263    1.3658    0.4302 C   0  0  0  0  0  0  0  0  0  0  0  0
    7.8513    1.8790    0.6018 F   0  0  0  0  0  0  0  0  0  0  0  0
    5.5120    2.1575    0.6717 C   0  0  0  0  0  0  0  0  0  0  0  0
    4.2350    1.6202    0.4922 C   0  0  0  0  0  0  0  0  0  0  0  0
    0.8407   -1.4879   -0.5157 C   0  0  0  0  0  0  0  0  0  0  0  0
    0.1245   -2.5708   -0.8634 N   0  0  0  0  0  0  0  0  0  0  0  0
   -1.1339   -2.1329   -0.7350 N   0  0  0  0  0  0  0  0  0  0  0  0
   -1.1777   -0.8302   -0.3233 C   0  0  0  0  0  0  0  0  0  0  0  0
   -2.4447   -0.0690   -0.0934 C   0  0  0  0  0  0  0  0  0  0  0  0
   -3.3616   -0.7660    0.9172 C   0  0  0  0  0  0  0  0  0  0  0  0
   -4.5817    0.0927    1.2619 C   0  0  0  0  0  0  0  0  0  0  0  0
   -5.0315    1.0054    0.1196 C   0  0  0  0  0  0  0  0  0  0  0  0
   -4.6879    0.4208   -1.2432 C   0  0  0  0  0  0  0  0  0  0  0  0
   -3.1798    0.2177   -1.4161 C   0  0  0  0  0  0  0  0  0  0  0  0
    0.0546   -0.3916   -0.1755 N   0  0  0  0  0  0  0  0  0  0  0  0
    1.9977    0.4787    0.1145 H   0  0  0  0  0  0  0  0  0  0  0  0
    5.1335   -1.5219   -0.4934 H   0  0  0  0  0  0  0  0  0  0  0  0
    7.3677   -0.5557   -0.1710 H   0  0  0  0  0  0  0  0  0  0  0  0
    5.6425    3.1844    0.9971 H   0  0  0  0  0  0  0  0  0  0  0  0
    3.3718    2.2523    0.6853 H   0  0  0  0  0  0  0  0  0  0  0  0
   -1.9006   -2.7636   -0.9422 H   0  0  0  0  0  0  0  0  0  0  0  0
   -2.1574    0.8989    0.3427 H   0  0  0  0  0  0  0  0  0  0  0  0
   -3.7071   -1.7245    0.5066 H   0  0  0  0  0  0  0  0  0  0  0  0
   -2.8183   -1.0094    1.8388 H   0  0  0  0  0  0  0  0  0  0  0  0
   -4.3633    0.7119    2.1404 H   0  0  0  0  0  0  0  0  0  0  0  0
   -5.4055   -0.5701    1.5537 H   0  0  0  0  0  0  0  0  0  0  0  0
   -4.5455    1.9838    0.2233 H   0  0  0  0  0  0  0  0  0  0  0  0
   -6.1100    1.1846    0.1958 H   0  0  0  0  0  0  0  0  0  0  0  0
   -5.0641    1.0711   -2.0411 H   0  0  0  0  0  0  0  0  0  0  0  0
   -5.1990   -0.5433   -1.3593 H   0  0  0  0  0  0  0  0  0  0  0  0
   -2.7419    1.1181   -1.8672 H   0  0  0  0  0  0  0  0  0  0  0  0
   -3.0246   -0.5836   -2.1497 H   0  0  0  0  0  0  0  0  0  0  0  0
  1  2  2  0
  2  3  1  0
  3  4  1  0
  4  5  1  0
  5  6  2  0
  6  7  1  0
  7  8  1  0
  7  9  2  0
  9 10  1  0
  2 11  1  0
 11 12  2  0
 12 13  1  0
 13 14  1  0
 14 15  1  0
 15 16  1  0
 16 17  1  0
 17 18  1  0
 18 19  1  0
 19 20  1  0
 14 21  2  0
 10  4  2  0
 21 11  1  0
 20 15  1  0
  3 22  1  0
  5 23  1  0
  6 24  1  0
  9 25  1  0
 10 26  1  0
 13 27  1  0
 15 28  1  0
 16 29  1  0
 16 30  1  0
 17 31  1  0
 17 32  1  0
 18 33  1  0
 18 34  1  0
 19 35  1  0
 19 36  1  0
 20 37  1  0
 20 38  1  0
M  END
>  <_SMILES>  (98) 
O=C(Nc1ccc(F)cc1)c1n[nH]c(C2CCCCC2)n1

$$$$

     RDKit          3D

 41 43  0  0  0  0  0  0  0  0999 V2000
    7.5222    1.0279   -1.1659 C   0  0  0  0  0  0  0  0  0  0  0  0
    6.1056    0.6832   -0.8141 C   0  0  0  0  0  0  0  0  0  0  0  0
    5.2255    0.2141   -1.7936 C   0  0  0  0  0  0  0  0  0  0  0  0
    3.8927   -0.0771   -1.4785 C   0  0  0  0  0  0  0  0  0  0  0  0
    3.4151    0.1099   -0.1815 C   0  0  0  0  0  0  0  0  0  0  0  0
    2.0931   -0.1717    0.2243 N   0  0  0  0  0  0  0  0  0  0  0  0
    1.0183   -0.5301   -0.5814 C   0  0  0  0  0  0  0  0  0  0  0  0
    1.0409   -0.5679   -1.8064 O   0  0  0  0  0  0  0  0  0  0  0  0
   -0.1665   -0.8594    0.1846 C   0  0  0  0  0  0  0  0  0  0  0  0
   -1.3897   -0.4304   -0.0592 N   0  0  0  0  0  0  0  0  0  0  0  0
   -2.1403   -1.0132    0.9296 C   0  0  0  0  0  0  0  0  0  0  0  0
   -3.6167   -0.7977    1.0567 C   0  0  0  0  0  0  0  0  0  0  0  0
   -3.9211    0.6406    1.5209 C   0  0  0  0  0  0  0  0  0  0  0  0
   -5.3359    1.0641    1.1476 C   0  0  0  0  0  0  0  0  0  0  0  0
   -5.5473    1.0611   -0.3670 C   0  0  0  0  0  0  0  0  0  0  0  0
   -4.6781    0.0406   -1.1040 C   0  0  0  0  0  0  0  0  0  0  0  0
   -4.3681   -1.1756   -0.2370 C   0  0  0  0  0  0  0  0  0  0  0  0
   -1.4435   -1.7804    1.7782 N   0  0  0  0  0  0  0  0  0  0  0  0
   -0.2088   -1.6976    1.2608 N   0  0  0  0  0  0  0  0  0  0  0  0
    4.2946    0.5894    0.7974 C   0  0  0  0  0  0  0  0  0  0  0  0
    5.6260    0.8804    0.4832 C   0  0  0  0  0  0  0  0  0  0  0  0
    7.8918    0.3853   -1.9719 H   0  0  0  0  0  0  0  0  0  0  0  0
    8.1845    0.8829   -0.3059 H   0  0  0  0  0  0  0  0  0  0  0  0
    7.5843    2.0718   -1.4883 H   0  0  0  0  0  0  0  0  0  0  0  0
    5.5676    0.0693   -2.8165 H   0  0  0  0  0  0  0  0  0  0  0  0
    3.2581   -0.4486   -2.2771 H   0  0  0  0  0  0  0  0  0  0  0  0
    1.8859    0.0300    1.1939 H   0  0  0  0  0  0  0  0  0  0  0  0
   -3.9814   -1.4822    1.8363 H   0  0  0  0  0  0  0  0  0  0  0  0
   -3.7855    0.7089    2.6075 H   0  0  0  0  0  0  0  0  0  0  0  0
   -3.2114    1.3540    1.0810 H   0  0  0  0  0  0  0  0  0  0  0  0
   -5.5523    2.0615    1.5469 H   0  0  0  0  0  0  0  0  0  0  0  0
   -6.0526    0.3785    1.6172 H   0  0  0  0  0  0  0  0  0  0  0  0
   -6.6065    0.8648   -0.5730 H   0  0  0  0  0  0  0  0  0  0  0  0
   -5.3380    2.0581   -0.7733 H   0  0  0  0  0  0  0  0  0  0  0  0
   -5.1827   -0.2711   -2.0257 H   0  0  0  0  0  0  0  0  0  0  0  0
   -3.7392    0.5173   -1.4113 H   0  0  0  0  0  0  0  0  0  0  0  0
   -3.8087   -1.9176   -0.8197 H   0  0  0  0  0  0  0  0  0  0  0  0
   -5.3192   -1.6536    0.0339 H   0  0  0  0  0  0  0  0  0  0  0  0
    0.5418   -2.2390    1.6738 H   0  0  0  0  0  0  0  0  0  0  0  0
    3.9604    0.7537    1.8184 H   0  0  0  0  0  0  0  0  0  0  0  0
    6.2853    1.2635    1.2590 H   0  0  0  0  0  0  0  0  0  0  0  0
  1  2  1  0
  2  3  1  0
  3  4  2  0
  4  5  1  0
  5  6  1  0
  6  7  1  0
  7  8  2  0
  7  9  1  0
  9 10  2  0
 10 11  1  0
 11 12  1  0
 12 13  1  0
 13 14  1  0
 14 15  1  0
 15 16  1  0
 16 17  1  0
 11 18  2  0
 18 19  1  0
  5 20  2  0
 20 21  1  0
 21  2  2  0
 19  9  1  0
 17 12  1  0
  1 22  1  0
  1 23  1  0
  1 24  1  0
  3 25  1  0
  4 26  1  0
  6 27  1  0
 12 28  1  0
 13 29  1  0
 13 30  1  0
 14 31  1  0
 14 32  1  0
 15 33  1  0
 15 34  1  0
 16 35  1  0
 16 36  1  0
 17 37  1  0
 17 38  1  0
 19 39  1  0
 20 40  1  0
 21 41  1  0
M  END
>  <_SMILES>  (99) 
Cc1ccc(NC(=O)c2nc(C3CCCCC3)n[nH]2)cc1

$$$$

     RDKit          3D

 41 43  0  0  0  0  0  0  0  0999 V2000
    7.9746    0.2645   -0.6821 C   0  0  0  0  0  0  0  0  0  0  0  0
    6.5035    0.1891   -0.4012 C   0  0  0  0  0  0  0  0  0  0  0  0
    6.0268    0.2354    0.9115 C   0  0  0  0  0  0  0  0  0  0  0  0
    4.6526    0.1966    1.1668 C   0  0  0  0  0  0  0  0  0  0  0  0
    3.7308    0.1217    0.1161 C   0  0  0  0  0  0  0  0  0  0  0  0
    2.3681    0.0864    0.4609 N   0  0  0  0  0  0  0  0  0  0  0  0
    1.2707    0.0139   -0.3743 C   0  0  0  0  0  0  0  0  0  0  0  0
    1.2890   -0.0334   -1.5999 O   0  0  0  0  0  0  0  0  0  0  0  0
    0.0242   -0.0028    0.3564 C   0  0  0  0  0  0  0  0  0  0  0  0
   -0.0936    0.0448    1.6689 N   0  0  0  0  0  0  0  0  0  0  0  0
   -1.4353    0.0086    1.9707 N   0  0  0  0  0  0  0  0  0  0  0  0
   -2.1106   -0.0608    0.8413 C   0  0  0  0  0  0  0  0  0  0  0  0
   -3.5961   -0.1200    0.6834 C   0  0  0  0  0  0  0  0  0  0  0  0
   -4.0421   -1.3505   -0.1135 C   0  0  0  0  0  0  0  0  0  0  0  0
   -5.5672   -1.4857   -0.1412 C   0  0  0  0  0  0  0  0  0  0  0  0
   -6.3029   -0.1465   -0.0685 C   0  0  0  0  0  0  0  0  0  0  0  0
   -5.4803    0.9862   -0.6662 C   0  0  0  0  0  0  0  0  0  0  0  0
   -4.1507    1.1790    0.0692 C   0  0  0  0  0  0  0  0  0  0  0  0
   -1.2219   -0.0700   -0.2005 N   0  0  0  0  0  0  0  0  0  0  0  0
    4.2063    0.0904   -1.1946 C   0  0  0  0  0  0  0  0  0  0  0  0
    5.5821    0.1291   -1.4513 C   0  0  0  0  0  0  0  0  0  0  0  0
    8.5511   -0.1919    0.1294 H   0  0  0  0  0  0  0  0  0  0  0  0
    8.2249   -0.2757   -1.6013 H   0  0  0  0  0  0  0  0  0  0  0  0
    8.2818    1.3091   -0.7905 H   0  0  0  0  0  0  0  0  0  0  0  0
    6.7209    0.3011    1.7464 H   0  0  0  0  0  0  0  0  0  0  0  0
    4.3159    0.2287    2.2002 H   0  0  0  0  0  0  0  0  0  0  0  0
    2.1400    0.1161    1.4516 H   0  0  0  0  0  0  0  0  0  0  0  0
   -4.0193   -0.2162    1.6939 H   0  0  0  0  0  0  0  0  0  0  0  0
   -3.6735   -1.2787   -1.1457 H   0  0  0  0  0  0  0  0  0  0  0  0
   -3.6050   -2.2675    0.3012 H   0  0  0  0  0  0  0  0  0  0  0  0
   -5.8991   -2.1142    0.6942 H   0  0  0  0  0  0  0  0  0  0  0  0
   -5.8551   -2.0182   -1.0559 H   0  0  0  0  0  0  0  0  0  0  0  0
   -6.5282    0.0879    0.9796 H   0  0  0  0  0  0  0  0  0  0  0  0
   -7.2671   -0.2289   -0.5828 H   0  0  0  0  0  0  0  0  0  0  0  0
   -5.2813    0.7664   -1.7228 H   0  0  0  0  0  0  0  0  0  0  0  0
   -6.0503    1.9219   -0.6445 H   0  0  0  0  0  0  0  0  0  0  0  0
   -4.2851    1.9130    0.8749 H   0  0  0  0  0  0  0  0  0  0  0  0
   -3.4374    1.6359   -0.6285 H   0  0  0  0  0  0  0  0  0  0  0  0
   -1.4222   -0.1145   -1.1897 H   0  0  0  0  0  0  0  0  0  0  0  0
    3.5354    0.0388   -2.0459 H   0  0  0  0  0  0  0  0  0  0  0  0
    5.9259    0.1109   -2.4834 H   0  0  0  0  0  0  0  0  0  0  0  0
  1  2  1  0
  2  3  1  0
  3  4  2  0
  4  5  1  0
  5  6  1  0
  6  7  1  0
  7  8  2  0
  7  9  1  0
  9 10  2  0
 10 11  1  0
 11 12  2  0
 12 13  1  0
 13 14  1  0
 14 15  1  0
 15 16  1  0
 16 17  1  0
 17 18  1  0
 12 19  1  0
  5 20  2  0
 20 21  1  0
 21  2  2  0
 19  9  1  0
 18 13  1  0
  1 22  1  0
  1 23  1  0
  1 24  1  0
  3 25  1  0
  4 26  1  0
  6 27  1  0
 13 28  1  0
 14 29  1  0
 14 30  1  0
 15 31  1  0
 15 32  1  0
 16 33  1  0
 16 34  1  0
 17 35  1  0
 17 36  1  0
 18 37  1  0
 18 38  1  0
 19 39  1  0
 20 40  1  0
 21 41  1  0
M  END
>  <_SMILES>  (100) 
Cc1ccc(NC(=O)c2nnc(C3CCCCC3)[nH]2)cc1

$$$$

     RDKit          3D

 41 43  0  0  0  0  0  0  0  0999 V2000
    8.0331   -0.4090    0.4555 C   0  0  0  0  0  0  0  0  0  0  0  0
    6.5388   -0.3354    0.3551 C   0  0  0  0  0  0  0  0  0  0  0  0
    5.7385   -1.3466    0.8934 C   0  0  0  0  0  0  0  0  0  0  0  0
    4.3446   -1.2573    0.8249 C   0  0  0  0  0  0  0  0  0  0  0  0
    3.7265   -0.1526    0.2277 C   0  0  0  0  0  0  0  0  0  0  0  0
    2.3224   -0.1414    0.2000 N   0  0  0  0  0  0  0  0  0  0  0  0
    1.4731    0.8213   -0.3247 C   0  0  0  0  0  0  0  0  0  0  0  0
    1.8140    1.8645   -0.8729 O   0  0  0  0  0  0  0  0  0  0  0  0
    0.0494    0.4428   -0.1465 C   0  0  0  0  0  0  0  0  0  0  0  0
   -0.3251   -0.7081    0.4581 N   0  0  0  0  0  0  0  0  0  0  0  0
   -1.6646   -0.6285    0.3944 N   0  0  0  0  0  0  0  0  0  0  0  0
   -2.0767    0.5187   -0.2203 C   0  0  0  0  0  0  0  0  0  0  0  0
   -3.5111    0.8906   -0.4400 C   0  0  0  0  0  0  0  0  0  0  0  0
   -4.2932    1.0022    0.8839 C   0  0  0  0  0  0  0  0  0  0  0  0
   -5.1721   -0.2167    1.1483 C   0  0  0  0  0  0  0  0  0  0  0  0
   -6.1881   -0.4465    0.0282 C   0  0  0  0  0  0  0  0  0  0  0  0
   -5.6965    0.0018   -1.3489 C   0  0  0  0  0  0  0  0  0  0  0  0
   -4.1777   -0.0552   -1.4555 C   0  0  0  0  0  0  0  0  0  0  0  0
   -1.0161    1.2113   -0.5711 N   0  0  0  0  0  0  0  0  0  0  0  0
    4.5251    0.8633   -0.2963 C   0  0  0  0  0  0  0  0  0  0  0  0
    5.9206    0.7749   -0.2284 C   0  0  0  0  0  0  0  0  0  0  0  0
    8.3694    0.0607    1.3849 H   0  0  0  0  0  0  0  0  0  0  0  0
    8.5069    0.1000   -0.3905 H   0  0  0  0  0  0  0  0  0  0  0  0
    8.3749   -1.4493    0.4407 H   0  0  0  0  0  0  0  0  0  0  0  0
    6.1933   -2.2122    1.3695 H   0  0  0  0  0  0  0  0  0  0  0  0
    3.7511   -2.0635    1.2482 H   0  0  0  0  0  0  0  0  0  0  0  0
    1.8327   -0.9320    0.6112 H   0  0  0  0  0  0  0  0  0  0  0  0
   -2.2268   -1.3784    0.7810 H   0  0  0  0  0  0  0  0  0  0  0  0
   -3.5042    1.8976   -0.8818 H   0  0  0  0  0  0  0  0  0  0  0  0
   -3.6225    1.1717    1.7350 H   0  0  0  0  0  0  0  0  0  0  0  0
   -4.9457    1.8844    0.8316 H   0  0  0  0  0  0  0  0  0  0  0  0
   -5.7001   -0.1008    2.1018 H   0  0  0  0  0  0  0  0  0  0  0  0
   -4.5401   -1.1067    1.2524 H   0  0  0  0  0  0  0  0  0  0  0  0
   -6.4443   -1.5126    0.0015 H   0  0  0  0  0  0  0  0  0  0  0  0
   -7.1202    0.0842    0.2578 H   0  0  0  0  0  0  0  0  0  0  0  0
   -6.1559   -0.6218   -2.1242 H   0  0  0  0  0  0  0  0  0  0  0  0
   -6.0316    1.0296   -1.5376 H   0  0  0  0  0  0  0  0  0  0  0  0
   -3.8645    0.2189   -2.4706 H   0  0  0  0  0  0  0  0  0  0  0  0
   -3.8522   -1.0931   -1.3066 H   0  0  0  0  0  0  0  0  0  0  0  0
    4.0960    1.7438   -0.7644 H   0  0  0  0  0  0  0  0  0  0  0  0
    6.5191    1.5857   -0.6387 H   0  0  0  0  0  0  0  0  0  0  0  0
  1  2  1  0
  2  3  1  0
  3  4  2  0
  4  5  1  0
  5  6  1  0
  6  7  1  0
  7  8  2  0
  7  9  1  0
  9 10  2  0
 10 11  1  0
 11 12  1  0
 12 13  1  0
 13 14  1  0
 14 15  1  0
 15 16  1  0
 16 17  1  0
 17 18  1  0
 12 19  2  0
  5 20  2  0
 20 21  1  0
 21  2  2  0
 19  9  1  0
 18 13  1  0
  1 22  1  0
  1 23  1  0
  1 24  1  0
  3 25  1  0
  4 26  1  0
  6 27  1  0
 11 28  1  0
 13 29  1  0
 14 30  1  0
 14 31  1  0
 15 32  1  0
 15 33  1  0
 16 34  1  0
 16 35  1  0
 17 36  1  0
 17 37  1  0
 18 38  1  0
 18 39  1  0
 20 40  1  0
 21 41  1  0
M  END
>  <_SMILES>  (101) 
Cc1ccc(NC(=O)c2n[nH]c(C3CCCCC3)n2)cc1

$$$$

     RDKit          3D

 42 44  0  0  0  0  0  0  0  0999 V2000
    7.8056   -1.4927   -0.7013 C   0  0  0  0  0  0  0  0  0  0  0  0
    7.3012   -0.4605    0.1364 O   0  0  0  0  0  0  0  0  0  0  0  0
    5.9445   -0.2984    0.1697 C   0  0  0  0  0  0  0  0  0  0  0  0
    5.0090   -1.0483   -0.5392 C   0  0  0  0  0  0  0  0  0  0  0  0
    3.6419   -0.7710   -0.4089 C   0  0  0  0  0  0  0  0  0  0  0  0
    3.1922    0.2564    0.4290 C   0  0  0  0  0  0  0  0  0  0  0  0
    1.8045    0.4654    0.4996 N   0  0  0  0  0  0  0  0  0  0  0  0
    1.1116    1.4017    1.2414 C   0  0  0  0  0  0  0  0  0  0  0  0
    1.5942    2.2420    1.9922 O   0  0  0  0  0  0  0  0  0  0  0  0
   -0.3150    1.2972    1.0428 C   0  0  0  0  0  0  0  0  0  0  0  0
   -0.9289    0.4288    0.2581 N   0  0  0  0  0  0  0  0  0  0  0  0
   -2.2559    0.7456    0.4257 C   0  0  0  0  0  0  0  0  0  0  0  0
   -3.3420    0.0072   -0.2904 C   0  0  0  0  0  0  0  0  0  0  0  0
   -4.4101   -0.5386    0.6651 C   0  0  0  0  0  0  0  0  0  0  0  0
   -5.4241   -1.4268   -0.0612 C   0  0  0  0  0  0  0  0  0  0  0  0
   -5.6446   -1.0362   -1.5234 C   0  0  0  0  0  0  0  0  0  0  0  0
   -5.4085    0.4494   -1.7548 C   0  0  0  0  0  0  0  0  0  0  0  0
   -3.9764    0.8632   -1.4044 C   0  0  0  0  0  0  0  0  0  0  0  0
   -2.4879    1.7615    1.2682 N   0  0  0  0  0  0  0  0  0  0  0  0
   -1.2416    2.0918    1.6457 N   0  0  0  0  0  0  0  0  0  0  0  0
    4.1314    1.0042    1.1364 C   0  0  0  0  0  0  0  0  0  0  0  0
    5.4971    0.7260    1.0052 C   0  0  0  0  0  0  0  0  0  0  0  0
    7.4482   -2.4753   -0.3760 H   0  0  0  0  0  0  0  0  0  0  0  0
    7.5541   -1.3076   -1.7509 H   0  0  0  0  0  0  0  0  0  0  0  0
    8.8965   -1.4901   -0.6152 H   0  0  0  0  0  0  0  0  0  0  0  0
    5.3050   -1.8548   -1.2014 H   0  0  0  0  0  0  0  0  0  0  0  0
    2.9352   -1.3733   -0.9749 H   0  0  0  0  0  0  0  0  0  0  0  0
    1.2093   -0.1401   -0.0604 H   0  0  0  0  0  0  0  0  0  0  0  0
   -2.8702   -0.8616   -0.7728 H   0  0  0  0  0  0  0  0  0  0  0  0
   -3.9507   -1.1083    1.4826 H   0  0  0  0  0  0  0  0  0  0  0  0
   -4.9433    0.2963    1.1397 H   0  0  0  0  0  0  0  0  0  0  0  0
   -6.3765   -1.3869    0.4813 H   0  0  0  0  0  0  0  0  0  0  0  0
   -5.0956   -2.4725   -0.0231 H   0  0  0  0  0  0  0  0  0  0  0  0
   -6.6605   -1.3121   -1.8282 H   0  0  0  0  0  0  0  0  0  0  0  0
   -4.9614   -1.6119   -2.1606 H   0  0  0  0  0  0  0  0  0  0  0  0
   -5.6203    0.7096   -2.7981 H   0  0  0  0  0  0  0  0  0  0  0  0
   -6.1127    1.0248   -1.1406 H   0  0  0  0  0  0  0  0  0  0  0  0
   -3.3467    0.7865   -2.3007 H   0  0  0  0  0  0  0  0  0  0  0  0
   -3.9825    1.9283   -1.1395 H   0  0  0  0  0  0  0  0  0  0  0  0
   -1.0866    2.8504    2.3014 H   0  0  0  0  0  0  0  0  0  0  0  0
    3.8421    1.8122    1.8003 H   0  0  0  0  0  0  0  0  0  0  0  0
    6.2183    1.3183    1.5638 H   0  0  0  0  0  0  0  0  0  0  0  0
  1  2  1  0
  2  3  1  0
  3  4  1  0
  4  5  2  0
  5  6  1  0
  6  7  1  0
  7  8  1  0
  8  9  2  0
  8 10  1  0
 10 11  2  0
 11 12  1  0
 12 13  1  0
 13 14  1  0
 14 15  1  0
 15 16  1  0
 16 17  1  0
 17 18  1  0
 12 19  2  0
 19 20  1  0
  6 21  2  0
 21 22  1  0
 22  3  2  0
 20 10  1  0
 18 13  1  0
  1 23  1  0
  1 24  1  0
  1 25  1  0
  4 26  1  0
  5 27  1  0
  7 28  1  0
 13 29  1  0
 14 30  1  0
 14 31  1  0
 15 32  1  0
 15 33  1  0
 16 34  1  0
 16 35  1  0
 17 36  1  0
 17 37  1  0
 18 38  1  0
 18 39  1  0
 20 40  1  0
 21 41  1  0
 22 42  1  0
M  END
>  <_SMILES>  (102) 
COc1ccc(NC(=O)c2nc(C3CCCCC3)n[nH]2)cc1

$$$$

     RDKit          3D

 42 44  0  0  0  0  0  0  0  0999 V2000
    7.5668   -1.3049    0.8467 C   0  0  0  0  0  0  0  0  0  0  0  0
    7.0215   -0.6368   -0.2837 O   0  0  0  0  0  0  0  0  0  0  0  0
    5.7081   -0.2670   -0.2115 C   0  0  0  0  0  0  0  0  0  0  0  0
    4.8390   -0.5216    0.8463 C   0  0  0  0  0  0  0  0  0  0  0  0
    3.5092   -0.0834    0.7851 C   0  0  0  0  0  0  0  0  0  0  0  0
    3.0315    0.6177   -0.3296 C   0  0  0  0  0  0  0  0  0  0  0  0
    1.6759    1.0082   -0.3130 N   0  0  0  0  0  0  0  0  0  0  0  0
    1.0199    1.8263   -1.2270 C   0  0  0  0  0  0  0  0  0  0  0  0
    1.5637    2.4151   -2.1543 O   0  0  0  0  0  0  0  0  0  0  0  0
   -0.4034    1.9172   -0.9692 C   0  0  0  0  0  0  0  0  0  0  0  0
   -1.1099    3.0280   -1.0138 N   0  0  0  0  0  0  0  0  0  0  0  0
   -2.4153    2.7195   -0.7056 N   0  0  0  0  0  0  0  0  0  0  0  0
   -2.4962    1.4206   -0.5155 C   0  0  0  0  0  0  0  0  0  0  0  0
   -3.7265    0.6345   -0.1937 C   0  0  0  0  0  0  0  0  0  0  0  0
   -3.6762    0.0681    1.2377 C   0  0  0  0  0  0  0  0  0  0  0  0
   -4.5331   -1.1871    1.4269 C   0  0  0  0  0  0  0  0  0  0  0  0
   -5.7400   -1.1981    0.4993 C   0  0  0  0  0  0  0  0  0  0  0  0
   -5.3277   -1.1706   -0.9735 C   0  0  0  0  0  0  0  0  0  0  0  0
   -3.9894   -0.4696   -1.2232 C   0  0  0  0  0  0  0  0  0  0  0  0
   -1.2477    0.8790   -0.6711 N   0  0  0  0  0  0  0  0  0  0  0  0
    3.9043    0.8652   -1.3875 C   0  0  0  0  0  0  0  0  0  0  0  0
    5.2320    0.4254   -1.3252 C   0  0  0  0  0  0  0  0  0  0  0  0
    8.6212   -1.5098    0.6377 H   0  0  0  0  0  0  0  0  0  0  0  0
    7.0680   -2.2649    1.0153 H   0  0  0  0  0  0  0  0  0  0  0  0
    7.5208   -0.6729    1.7398 H   0  0  0  0  0  0  0  0  0  0  0  0
    5.1609   -1.0567    1.7333 H   0  0  0  0  0  0  0  0  0  0  0  0
    2.8600   -0.2966    1.6304 H   0  0  0  0  0  0  0  0  0  0  0  0
    1.1633    0.7698    0.5252 H   0  0  0  0  0  0  0  0  0  0  0  0
   -4.5733    1.3344   -0.2440 H   0  0  0  0  0  0  0  0  0  0  0  0
   -2.6498   -0.1693    1.5455 H   0  0  0  0  0  0  0  0  0  0  0  0
   -4.0178    0.8484    1.9308 H   0  0  0  0  0  0  0  0  0  0  0  0
   -4.8566   -1.2561    2.4717 H   0  0  0  0  0  0  0  0  0  0  0  0
   -3.9212   -2.0766    1.2302 H   0  0  0  0  0  0  0  0  0  0  0  0
   -6.3590   -2.0818    0.6910 H   0  0  0  0  0  0  0  0  0  0  0  0
   -6.3681   -0.3250    0.7173 H   0  0  0  0  0  0  0  0  0  0  0  0
   -5.2641   -2.1950   -1.3603 H   0  0  0  0  0  0  0  0  0  0  0  0
   -6.1188   -0.6759   -1.5501 H   0  0  0  0  0  0  0  0  0  0  0  0
   -3.9766   -0.0670   -2.2438 H   0  0  0  0  0  0  0  0  0  0  0  0
   -3.1847   -1.2161   -1.1816 H   0  0  0  0  0  0  0  0  0  0  0  0
   -1.0032   -0.0990   -0.6308 H   0  0  0  0  0  0  0  0  0  0  0  0
    3.5919    1.3945   -2.2824 H   0  0  0  0  0  0  0  0  0  0  0  0
    5.9005    0.6300   -2.1587 H   0  0  0  0  0  0  0  0  0  0  0  0
  1  2  1  0
  2  3  1  0
  3  4  1  0
  4  5  2  0
  5  6  1  0
  6  7  1  0
  7  8  1  0
  8  9  2  0
  8 10  1  0
 10 11  2  0
 11 12  1  0
 12 13  2  0
 13 14  1  0
 14 15  1  0
 15 16  1  0
 16 17  1  0
 17 18  1  0
 18 19  1  0
 13 20  1  0
  6 21  2  0
 21 22  1  0
 22  3  2  0
 20 10  1  0
 19 14  1  0
  1 23  1  0
  1 24  1  0
  1 25  1  0
  4 26  1  0
  5 27  1  0
  7 28  1  0
 14 29  1  0
 15 30  1  0
 15 31  1  0
 16 32  1  0
 16 33  1  0
 17 34  1  0
 17 35  1  0
 18 36  1  0
 18 37  1  0
 19 38  1  0
 19 39  1  0
 20 40  1  0
 21 41  1  0
 22 42  1  0
M  END
>  <_SMILES>  (103) 
COc1ccc(NC(=O)c2nnc(C3CCCCC3)[nH]2)cc1

$$$$

     RDKit          3D

 42 44  0  0  0  0  0  0  0  0999 V2000
    8.0900    1.3712   -0.3418 C   0  0  0  0  0  0  0  0  0  0  0  0
    7.5266    0.0725   -0.2052 O   0  0  0  0  0  0  0  0  0  0  0  0
    6.1636   -0.0029   -0.1335 C   0  0  0  0  0  0  0  0  0  0  0  0
    5.6548   -1.2948   -0.0001 C   0  0  0  0  0  0  0  0  0  0  0  0
    4.2763   -1.5128    0.0844 C   0  0  0  0  0  0  0  0  0  0  0  0
    3.3832   -0.4381    0.0366 C   0  0  0  0  0  0  0  0  0  0  0  0
    2.0143   -0.7367    0.1274 N   0  0  0  0  0  0  0  0  0  0  0  0
    0.9341    0.1331    0.1058 C   0  0  0  0  0  0  0  0  0  0  0  0
    0.9929    1.3539   -0.0000 O   0  0  0  0  0  0  0  0  0  0  0  0
   -0.3520   -0.5962    0.2290 C   0  0  0  0  0  0  0  0  0  0  0  0
   -0.4140   -1.9428    0.3454 N   0  0  0  0  0  0  0  0  0  0  0  0
   -1.7390   -2.1509    0.4262 N   0  0  0  0  0  0  0  0  0  0  0  0
   -2.4397   -0.9820    0.3626 C   0  0  0  0  0  0  0  0  0  0  0  0
   -3.9342   -0.9168    0.4253 C   0  0  0  0  0  0  0  0  0  0  0  0
   -4.4051    0.0547    1.5261 C   0  0  0  0  0  0  0  0  0  0  0  0
   -4.7320    1.4389    0.9745 C   0  0  0  0  0  0  0  0  0  0  0  0
   -5.8410    1.3869   -0.0781 C   0  0  0  0  0  0  0  0  0  0  0  0
   -5.8855    0.0706   -0.8556 C   0  0  0  0  0  0  0  0  0  0  0  0
   -4.5067   -0.5685   -0.9620 C   0  0  0  0  0  0  0  0  0  0  0  0
   -1.5905    0.0131    0.2367 N   0  0  0  0  0  0  0  0  0  0  0  0
    3.8935    0.8533   -0.0969 C   0  0  0  0  0  0  0  0  0  0  0  0
    5.2766    1.0707   -0.1816 C   0  0  0  0  0  0  0  0  0  0  0  0
    9.1778    1.2606   -0.3846 H   0  0  0  0  0  0  0  0  0  0  0  0
    7.7668    1.8458   -1.2742 H   0  0  0  0  0  0  0  0  0  0  0  0
    7.8531    1.9976    0.5246 H   0  0  0  0  0  0  0  0  0  0  0  0
    6.3374   -2.1402    0.0386 H   0  0  0  0  0  0  0  0  0  0  0  0
    3.9168   -2.5331    0.1878 H   0  0  0  0  0  0  0  0  0  0  0  0
    1.7455   -1.7129    0.2227 H   0  0  0  0  0  0  0  0  0  0  0  0
   -2.0906   -3.0972    0.5214 H   0  0  0  0  0  0  0  0  0  0  0  0
   -4.3045   -1.9133    0.7051 H   0  0  0  0  0  0  0  0  0  0  0  0
   -3.6634    0.1374    2.3300 H   0  0  0  0  0  0  0  0  0  0  0  0
   -5.3141   -0.3515    1.9898 H   0  0  0  0  0  0  0  0  0  0  0  0
   -3.8292    1.8759    0.5303 H   0  0  0  0  0  0  0  0  0  0  0  0
   -5.0319    2.1090    1.7883 H   0  0  0  0  0  0  0  0  0  0  0  0
   -5.7042    2.2244   -0.7730 H   0  0  0  0  0  0  0  0  0  0  0  0
   -6.8153    1.5447    0.4004 H   0  0  0  0  0  0  0  0  0  0  0  0
   -6.5678   -0.6268   -0.3534 H   0  0  0  0  0  0  0  0  0  0  0  0
   -6.3010    0.2474   -1.8542 H   0  0  0  0  0  0  0  0  0  0  0  0
   -4.5634   -1.4788   -1.5718 H   0  0  0  0  0  0  0  0  0  0  0  0
   -3.8412    0.1181   -1.5026 H   0  0  0  0  0  0  0  0  0  0  0  0
    3.2429    1.7216   -0.1390 H   0  0  0  0  0  0  0  0  0  0  0  0
    5.6200    2.0948   -0.2845 H   0  0  0  0  0  0  0  0  0  0  0  0
  1  2  1  0
  2  3  1  0
  3  4  1  0
  4  5  2  0
  5  6  1  0
  6  7  1  0
  7  8  1  0
  8  9  2  0
  8 10  1  0
 10 11  2  0
 11 12  1  0
 12 13  1  0
 13 14  1  0
 14 15  1  0
 15 16  1  0
 16 17  1  0
 17 18  1  0
 18 19  1  0
 13 20  2  0
  6 21  2  0
 21 22  1  0
 22  3  2  0
 20 10  1  0
 19 14  1  0
  1 23  1  0
  1 24  1  0
  1 25  1  0
  4 26  1  0
  5 27  1  0
  7 28  1  0
 12 29  1  0
 14 30  1  0
 15 31  1  0
 15 32  1  0
 16 33  1  0
 16 34  1  0
 17 35  1  0
 17 36  1  0
 18 37  1  0
 18 38  1  0
 19 39  1  0
 19 40  1  0
 21 41  1  0
 22 42  1  0
M  END
>  <_SMILES>  (104) 
COc1ccc(NC(=O)c2n[nH]c(C3CCCCC3)n2)cc1

$$$$

     RDKit          3D

 32 34  0  0  0  0  0  0  0  0999 V2000
    1.8739    0.9596    2.3357 O   0  0  0  0  0  0  0  0  0  0  0  0
    1.2692    0.5579    1.3481 C   0  0  0  0  0  0  0  0  0  0  0  0
    1.8132   -0.1014    0.2632 N   0  0  0  0  0  0  0  0  0  0  0  0
    3.1532   -0.4598    0.0376 C   0  0  0  0  0  0  0  0  0  0  0  0
    4.1949   -0.1865    0.9293 C   0  0  0  0  0  0  0  0  0  0  0  0
    5.5034   -0.5783    0.6280 C   0  0  0  0  0  0  0  0  0  0  0  0
    5.7675   -1.2418   -0.5627 C   0  0  0  0  0  0  0  0  0  0  0  0
    7.0212   -1.6157   -0.8485 F   0  0  0  0  0  0  0  0  0  0  0  0
    4.7471   -1.5223   -1.4608 C   0  0  0  0  0  0  0  0  0  0  0  0
    3.4401   -1.1311   -1.1604 C   0  0  0  0  0  0  0  0  0  0  0  0
   -0.1557    0.7426    1.2084 C   0  0  0  0  0  0  0  0  0  0  0  0
   -0.8939    0.3478    0.1876 N   0  0  0  0  0  0  0  0  0  0  0  0
   -2.1688    0.7567    0.5336 C   0  0  0  0  0  0  0  0  0  0  0  0
   -3.3244    0.5196   -0.3278 C   0  0  0  0  0  0  0  0  0  0  0  0
   -4.6060    0.9465    0.0508 C   0  0  0  0  0  0  0  0  0  0  0  0
   -5.7076    0.7167   -0.7778 C   0  0  0  0  0  0  0  0  0  0  0  0
   -5.5400    0.0574   -1.9939 C   0  0  0  0  0  0  0  0  0  0  0  0
   -4.2730   -0.3725   -2.3833 C   0  0  0  0  0  0  0  0  0  0  0  0
   -3.1711   -0.1427   -1.5548 C   0  0  0  0  0  0  0  0  0  0  0  0
   -2.2311    1.3824    1.7216 N   0  0  0  0  0  0  0  0  0  0  0  0
   -0.9511    1.3588    2.1223 N   0  0  0  0  0  0  0  0  0  0  0  0
    1.1342   -0.3492   -0.4526 H   0  0  0  0  0  0  0  0  0  0  0  0
    4.0256    0.3300    1.8688 H   0  0  0  0  0  0  0  0  0  0  0  0
    6.3145   -0.3677    1.3180 H   0  0  0  0  0  0  0  0  0  0  0  0
    4.9733   -2.0418   -2.3864 H   0  0  0  0  0  0  0  0  0  0  0  0
    2.6519   -1.3581   -1.8741 H   0  0  0  0  0  0  0  0  0  0  0  0
   -4.7542    1.4629    0.9974 H   0  0  0  0  0  0  0  0  0  0  0  0
   -6.6948    1.0531   -0.4715 H   0  0  0  0  0  0  0  0  0  0  0  0
   -6.3973   -0.1211   -2.6381 H   0  0  0  0  0  0  0  0  0  0  0  0
   -4.1409   -0.8868   -3.3317 H   0  0  0  0  0  0  0  0  0  0  0  0
   -2.1895   -0.4851   -1.8744 H   0  0  0  0  0  0  0  0  0  0  0  0
   -0.6839    1.7700    3.0106 H   0  0  0  0  0  0  0  0  0  0  0  0
  1  2  2  0
  2  3  1  0
  3  4  1  0
  4  5  1  0
  5  6  2  0
  6  7  1  0
  7  8  1  0
  7  9  2  0
  9 10  1  0
  2 11  1  0
 11 12  2  0
 12 13  1  0
 13 14  1  0
 14 15  2  0
 15 16  1  0
 16 17  2  0
 17 18  1  0
 18 19  2  0
 13 20  2  0
 20 21  1  0
 10  4  2  0
 21 11  1  0
 19 14  1  0
  3 22  1  0
  5 23  1  0
  6 24  1  0
  9 25  1  0
 10 26  1  0
 15 27  1  0
 16 28  1  0
 17 29  1  0
 18 30  1  0
 19 31  1  0
 21 32  1  0
M  END
>  <_SMILES>  (105) 
O=C(Nc1ccc(F)cc1)c1nc(-c2ccccc2)n[nH]1

$$$$

     RDKit          3D

 32 34  0  0  0  0  0  0  0  0999 V2000
    1.3563    1.7292   -0.1714 O   0  0  0  0  0  0  0  0  0  0  0  0
    1.2378    0.5267    0.0388 C   0  0  0  0  0  0  0  0  0  0  0  0
    2.2606   -0.3642    0.3007 N   0  0  0  0  0  0  0  0  0  0  0  0
    3.6410   -0.1119    0.3862 C   0  0  0  0  0  0  0  0  0  0  0  0
    4.2169    1.1497    0.2088 C   0  0  0  0  0  0  0  0  0  0  0  0
    5.6022    1.3143    0.3109 C   0  0  0  0  0  0  0  0  0  0  0  0
    6.4080    0.2186    0.5898 C   0  0  0  0  0  0  0  0  0  0  0  0
    7.7339    0.3794    0.6869 F   0  0  0  0  0  0  0  0  0  0  0  0
    5.8555   -1.0419    0.7692 C   0  0  0  0  0  0  0  0  0  0  0  0
    4.4719   -1.2068    0.6673 C   0  0  0  0  0  0  0  0  0  0  0  0
   -0.0587   -0.1100    0.0322 C   0  0  0  0  0  0  0  0  0  0  0  0
   -0.2812   -1.3902    0.2468 N   0  0  0  0  0  0  0  0  0  0  0  0
   -1.6382   -1.5939    0.1546 N   0  0  0  0  0  0  0  0  0  0  0  0
   -2.2282   -0.4404   -0.1143 C   0  0  0  0  0  0  0  0  0  0  0  0
   -3.6629   -0.2092   -0.2941 C   0  0  0  0  0  0  0  0  0  0  0  0
   -4.5500   -1.2910   -0.1795 C   0  0  0  0  0  0  0  0  0  0  0  0
   -5.9263   -1.1151   -0.3435 C   0  0  0  0  0  0  0  0  0  0  0  0
   -6.4369    0.1486   -0.6251 C   0  0  0  0  0  0  0  0  0  0  0  0
   -5.5726    1.2343   -0.7426 C   0  0  0  0  0  0  0  0  0  0  0  0
   -4.1943    1.0582   -0.5784 C   0  0  0  0  0  0  0  0  0  0  0  0
   -1.2504    0.5174   -0.1973 N   0  0  0  0  0  0  0  0  0  0  0  0
    1.9529   -1.3228    0.4479 H   0  0  0  0  0  0  0  0  0  0  0  0
    3.6184    2.0282   -0.0102 H   0  0  0  0  0  0  0  0  0  0  0  0
    6.0526    2.2924    0.1738 H   0  0  0  0  0  0  0  0  0  0  0  0
    6.5013   -1.8865    0.9866 H   0  0  0  0  0  0  0  0  0  0  0  0
    4.0543   -2.2006    0.8105 H   0  0  0  0  0  0  0  0  0  0  0  0
   -4.1691   -2.2877    0.0405 H   0  0  0  0  0  0  0  0  0  0  0  0
   -6.5956   -1.9667   -0.2506 H   0  0  0  0  0  0  0  0  0  0  0  0
   -7.5076    0.2866   -0.7529 H   0  0  0  0  0  0  0  0  0  0  0  0
   -5.9722    2.2215   -0.9626 H   0  0  0  0  0  0  0  0  0  0  0  0
   -3.5584    1.9325   -0.6787 H   0  0  0  0  0  0  0  0  0  0  0  0
   -1.3611    1.5014   -0.3892 H   0  0  0  0  0  0  0  0  0  0  0  0
  1  2  2  0
  2  3  1  0
  3  4  1  0
  4  5  1  0
  5  6  2  0
  6  7  1  0
  7  8  1  0
  7  9  2  0
  9 10  1  0
  2 11  1  0
 11 12  2  0
 12 13  1  0
 13 14  2  0
 14 15  1  0
 15 16  2  0
 16 17  1  0
 17 18  2  0
 18 19  1  0
 19 20  2  0
 14 21  1  0
 10  4  2  0
 21 11  1  0
 20 15  1  0
  3 22  1  0
  5 23  1  0
  6 24  1  0
  9 25  1  0
 10 26  1  0
 16 27  1  0
 17 28  1  0
 18 29  1  0
 19 30  1  0
 20 31  1  0
 21 32  1  0
M  END
>  <_SMILES>  (106) 
O=C(Nc1ccc(F)cc1)c1nnc(-c2ccccc2)[nH]1

$$$$

     RDKit          3D

 32 34  0  0  0  0  0  0  0  0999 V2000
    2.4567   -1.2857   -2.1399 O   0  0  0  0  0  0  0  0  0  0  0  0
    1.6422   -0.8499   -1.3327 C   0  0  0  0  0  0  0  0  0  0  0  0
    1.9380   -0.2567   -0.1139 N   0  0  0  0  0  0  0  0  0  0  0  0
    3.1974   -0.0236    0.4630 C   0  0  0  0  0  0  0  0  0  0  0  0
    4.4090   -0.3748   -0.1396 C   0  0  0  0  0  0  0  0  0  0  0  0
    5.6219   -0.1068    0.5036 C   0  0  0  0  0  0  0  0  0  0  0  0
    5.6207    0.5112    1.7468 C   0  0  0  0  0  0  0  0  0  0  0  0
    6.7830    0.7669    2.3608 F   0  0  0  0  0  0  0  0  0  0  0  0
    4.4283    0.8677    2.3616 C   0  0  0  0  0  0  0  0  0  0  0  0
    3.2168    0.6001    1.7195 C   0  0  0  0  0  0  0  0  0  0  0  0
    0.1781   -0.8986   -1.5562 C   0  0  0  0  0  0  0  0  0  0  0  0
   -0.4141   -1.4145   -2.6452 N   0  0  0  0  0  0  0  0  0  0  0  0
   -1.7123   -1.2245   -2.3741 N   0  0  0  0  0  0  0  0  0  0  0  0
   -1.9087   -0.6147   -1.1640 C   0  0  0  0  0  0  0  0  0  0  0  0
   -3.2122   -0.2735   -0.5890 C   0  0  0  0  0  0  0  0  0  0  0  0
   -3.2628    0.3513    0.6671 C   0  0  0  0  0  0  0  0  0  0  0  0
   -4.4838    0.6944    1.2532 C   0  0  0  0  0  0  0  0  0  0  0  0
   -5.6753    0.4170    0.5900 C   0  0  0  0  0  0  0  0  0  0  0  0
   -5.6458   -0.2023   -0.6570 C   0  0  0  0  0  0  0  0  0  0  0  0
   -4.4231   -0.5460   -1.2441 C   0  0  0  0  0  0  0  0  0  0  0  0
   -0.7224   -0.3971   -0.6243 N   0  0  0  0  0  0  0  0  0  0  0  0
    1.1166    0.0380    0.4085 H   0  0  0  0  0  0  0  0  0  0  0  0
    4.4471   -0.8591   -1.1106 H   0  0  0  0  0  0  0  0  0  0  0  0
    6.5636   -0.3787    0.0374 H   0  0  0  0  0  0  0  0  0  0  0  0
    4.4480    1.3499    3.3335 H   0  0  0  0  0  0  0  0  0  0  0  0
    2.2914    0.8852    2.2136 H   0  0  0  0  0  0  0  0  0  0  0  0
   -2.4009   -1.5310   -3.0498 H   0  0  0  0  0  0  0  0  0  0  0  0
   -2.3416    0.5766    1.2019 H   0  0  0  0  0  0  0  0  0  0  0  0
   -4.5013    1.1777    2.2269 H   0  0  0  0  0  0  0  0  0  0  0  0
   -6.6263    0.6833    1.0447 H   0  0  0  0  0  0  0  0  0  0  0  0
   -6.5776   -0.4187   -1.1745 H   0  0  0  0  0  0  0  0  0  0  0  0
   -4.4506   -1.0271   -2.2172 H   0  0  0  0  0  0  0  0  0  0  0  0
  1  2  2  0
  2  3  1  0
  3  4  1  0
  4  5  1  0
  5  6  2  0
  6  7  1  0
  7  8  1  0
  7  9  2  0
  9 10  1  0
  2 11  1  0
 11 12  2  0
 12 13  1  0
 13 14  1  0
 14 15  1  0
 15 16  2  0
 16 17  1  0
 17 18  2  0
 18 19  1  0
 19 20  2  0
 14 21  2  0
 10  4  2  0
 21 11  1  0
 20 15  1  0
  3 22  1  0
  5 23  1  0
  6 24  1  0
  9 25  1  0
 10 26  1  0
 13 27  1  0
 16 28  1  0
 17 29  1  0
 18 30  1  0
 19 31  1  0
 20 32  1  0
M  END
>  <_SMILES>  (107) 
O=C(Nc1ccc(F)cc1)c1n[nH]c(-c2ccccc2)n1

$$$$

     RDKit          3D

 38 40  0  0  0  0  0  0  0  0999 V2000
    2.3815   -0.5625    2.8004 O   0  0  0  0  0  0  0  0  0  0  0  0
    1.6925   -0.3328    1.8130 C   0  0  0  0  0  0  0  0  0  0  0  0
    1.9931    0.5407    0.7858 N   0  0  0  0  0  0  0  0  0  0  0  0
    3.1295    1.3538    0.6295 C   0  0  0  0  0  0  0  0  0  0  0  0
    4.1851    1.4018    1.5437 C   0  0  0  0  0  0  0  0  0  0  0  0
    5.2837    2.2381    1.3172 C   0  0  0  0  0  0  0  0  0  0  0  0
    5.3355    3.0332    0.1745 C   0  0  0  0  0  0  0  0  0  0  0  0
    4.2860    2.9879   -0.7381 C   0  0  0  0  0  0  0  0  0  0  0  0
    4.3427    3.9673   -2.1525 Cl  0  0  0  0  0  0  0  0  0  0  0  0
    3.1877    2.1554   -0.5171 C   0  0  0  0  0  0  0  0  0  0  0  0
    0.4223   -0.9875    1.6066 C   0  0  0  0  0  0  0  0  0  0  0  0
   -0.3849   -0.8027    0.5772 N   0  0  0  0  0  0  0  0  0  0  0  0
   -1.4353   -1.6453    0.8537 C   0  0  0  0  0  0  0  0  0  0  0  0
   -2.6228   -1.7788   -0.0495 C   0  0  0  0  0  0  0  0  0  0  0  0
   -3.4921   -0.5065    0.0007 C   0  0  0  0  0  0  0  0  0  0  0  0
   -4.3494   -0.3610   -1.2500 C   0  0  0  0  0  0  0  0  0  0  0  0
   -3.4941   -0.2324   -2.5112 C   0  0  0  0  0  0  0  0  0  0  0  0
   -2.1465   -0.9495   -2.4123 C   0  0  0  0  0  0  0  0  0  0  0  0
   -2.2123   -2.1607   -1.4872 C   0  0  0  0  0  0  0  0  0  0  0  0
   -1.3167   -2.3336    1.9966 N   0  0  0  0  0  0  0  0  0  0  0  0
   -0.1303   -1.8988    2.4537 N   0  0  0  0  0  0  0  0  0  0  0  0
    1.2809    0.5813    0.0596 H   0  0  0  0  0  0  0  0  0  0  0  0
    4.1872    0.7999    2.4474 H   0  0  0  0  0  0  0  0  0  0  0  0
    6.0983    2.2656    2.0372 H   0  0  0  0  0  0  0  0  0  0  0  0
    6.1909    3.6809    0.0034 H   0  0  0  0  0  0  0  0  0  0  0  0
    2.3811    2.1383   -1.2452 H   0  0  0  0  0  0  0  0  0  0  0  0
   -3.2314   -2.6126    0.3297 H   0  0  0  0  0  0  0  0  0  0  0  0
   -4.1328   -0.5382    0.8907 H   0  0  0  0  0  0  0  0  0  0  0  0
   -2.8687    0.3914    0.1074 H   0  0  0  0  0  0  0  0  0  0  0  0
   -5.0044   -1.2367   -1.3413 H   0  0  0  0  0  0  0  0  0  0  0  0
   -5.0068    0.5113   -1.1613 H   0  0  0  0  0  0  0  0  0  0  0  0
   -4.0629   -0.6258   -3.3625 H   0  0  0  0  0  0  0  0  0  0  0  0
   -3.3122    0.8268   -2.7303 H   0  0  0  0  0  0  0  0  0  0  0  0
   -1.3881   -0.2489   -2.0417 H   0  0  0  0  0  0  0  0  0  0  0  0
   -1.8214   -1.2557   -3.4132 H   0  0  0  0  0  0  0  0  0  0  0  0
   -1.2532   -2.6928   -1.4989 H   0  0  0  0  0  0  0  0  0  0  0  0
   -2.9552   -2.8606   -1.8926 H   0  0  0  0  0  0  0  0  0  0  0  0
    0.2434   -2.2505    3.3290 H   0  0  0  0  0  0  0  0  0  0  0  0
  1  2  2  0
  2  3  1  0
  3  4  1  0
  4  5  2  0
  5  6  1  0
  6  7  2  0
  7  8  1  0
  8  9  1  0
  8 10  2  0
  2 11  1  0
 11 12  2  0
 12 13  1  0
 13 14  1  0
 14 15  1  0
 15 16  1  0
 16 17  1  0
 17 18  1  0
 18 19  1  0
 13 20  2  0
 20 21  1  0
 10  4  1  0
 21 11  1  0
 19 14  1  0
  3 22  1  0
  5 23  1  0
  6 24  1  0
  7 25  1  0
 10 26  1  0
 14 27  1  0
 15 28  1  0
 15 29  1  0
 16 30  1  0
 16 31  1  0
 17 32  1  0
 17 33  1  0
 18 34  1  0
 18 35  1  0
 19 36  1  0
 19 37  1  0
 21 38  1  0
M  END
>  <_SMILES>  (108) 
O=C(Nc1cccc(Cl)c1)c1nc(C2CCCCC2)n[nH]1

$$$$

     RDKit          3D

 38 40  0  0  0  0  0  0  0  0999 V2000
    1.9362   -0.6173    1.3450 O   0  0  0  0  0  0  0  0  0  0  0  0
    1.9260   -0.1138    0.2268 C   0  0  0  0  0  0  0  0  0  0  0  0
    3.0328    0.2409   -0.5204 N   0  0  0  0  0  0  0  0  0  0  0  0
    4.3932    0.1127   -0.1865 C   0  0  0  0  0  0  0  0  0  0  0  0
    5.3243    0.5559   -1.1365 C   0  0  0  0  0  0  0  0  0  0  0  0
    6.6965    0.4668   -0.8893 C   0  0  0  0  0  0  0  0  0  0  0  0
    7.1508   -0.0676    0.3134 C   0  0  0  0  0  0  0  0  0  0  0  0
    6.2290   -0.5091    1.2600 C   0  0  0  0  0  0  0  0  0  0  0  0
    6.7936   -1.1698    2.7472 Cl  0  0  0  0  0  0  0  0  0  0  0  0
    4.8559   -0.4221    1.0173 C   0  0  0  0  0  0  0  0  0  0  0  0
    0.6861    0.1737   -0.4562 C   0  0  0  0  0  0  0  0  0  0  0  0
    0.5833    0.7123   -1.6554 N   0  0  0  0  0  0  0  0  0  0  0  0
   -0.7555    0.8235   -1.9508 N   0  0  0  0  0  0  0  0  0  0  0  0
   -1.4440    0.3526   -0.9305 C   0  0  0  0  0  0  0  0  0  0  0  0
   -2.9325    0.2740   -0.8097 C   0  0  0  0  0  0  0  0  0  0  0  0
   -3.4113   -1.1799   -0.6841 C   0  0  0  0  0  0  0  0  0  0  0  0
   -4.9308   -1.2597   -0.5513 C   0  0  0  0  0  0  0  0  0  0  0  0
   -5.4407   -0.4041    0.6046 C   0  0  0  0  0  0  0  0  0  0  0  0
   -4.9684    1.0420    0.4856 C   0  0  0  0  0  0  0  0  0  0  0  0
   -3.4489    1.1297    0.3564 C   0  0  0  0  0  0  0  0  0  0  0  0
   -0.5667   -0.0673    0.0335 N   0  0  0  0  0  0  0  0  0  0  0  0
    2.8110    0.6459   -1.4273 H   0  0  0  0  0  0  0  0  0  0  0  0
    4.9936    0.9771   -2.0836 H   0  0  0  0  0  0  0  0  0  0  0  0
    7.4079    0.8141   -1.6345 H   0  0  0  0  0  0  0  0  0  0  0  0
    8.2177   -0.1375    0.5073 H   0  0  0  0  0  0  0  0  0  0  0  0
    4.1740   -0.7778    1.7821 H   0  0  0  0  0  0  0  0  0  0  0  0
   -3.3552    0.6851   -1.7376 H   0  0  0  0  0  0  0  0  0  0  0  0
   -3.0924   -1.7592   -1.5596 H   0  0  0  0  0  0  0  0  0  0  0  0
   -2.9518   -1.6593    0.1903 H   0  0  0  0  0  0  0  0  0  0  0  0
   -5.3967   -0.9254   -1.4865 H   0  0  0  0  0  0  0  0  0  0  0  0
   -5.2328   -2.3021   -0.3992 H   0  0  0  0  0  0  0  0  0  0  0  0
   -5.0879   -0.8259    1.5538 H   0  0  0  0  0  0  0  0  0  0  0  0
   -6.5359   -0.4331    0.6295 H   0  0  0  0  0  0  0  0  0  0  0  0
   -5.4364    1.5082   -0.3901 H   0  0  0  0  0  0  0  0  0  0  0  0
   -5.2966    1.6102    1.3632 H   0  0  0  0  0  0  0  0  0  0  0  0
   -2.9919    0.8049    1.3004 H   0  0  0  0  0  0  0  0  0  0  0  0
   -3.1566    2.1776    0.2138 H   0  0  0  0  0  0  0  0  0  0  0  0
   -0.7787   -0.4760    0.9329 H   0  0  0  0  0  0  0  0  0  0  0  0
  1  2  2  0
  2  3  1  0
  3  4  1  0
  4  5  2  0
  5  6  1  0
  6  7  2  0
  7  8  1  0
  8  9  1  0
  8 10  2  0
  2 11  1  0
 11 12  2  0
 12 13  1  0
 13 14  2  0
 14 15  1  0
 15 16  1  0
 16 17  1  0
 17 18  1  0
 18 19  1  0
 19 20  1  0
 14 21  1  0
 10  4  1  0
 21 11  1  0
 20 15  1  0
  3 22  1  0
  5 23  1  0
  6 24  1  0
  7 25  1  0
 10 26  1  0
 15 27  1  0
 16 28  1  0
 16 29  1  0
 17 30  1  0
 17 31  1  0
 18 32  1  0
 18 33  1  0
 19 34  1  0
 19 35  1  0
 20 36  1  0
 20 37  1  0
 21 38  1  0
M  END
>  <_SMILES>  (109) 
O=C(Nc1cccc(Cl)c1)c1nnc(C2CCCCC2)[nH]1

$$$$

     RDKit          3D

 38 40  0  0  0  0  0  0  0  0999 V2000
    2.3713    0.7172   -2.1209 O   0  0  0  0  0  0  0  0  0  0  0  0
    2.0905    0.2845   -1.0082 C   0  0  0  0  0  0  0  0  0  0  0  0
    2.9983   -0.1091   -0.0356 N   0  0  0  0  0  0  0  0  0  0  0  0
    4.4023   -0.1056   -0.0919 C   0  0  0  0  0  0  0  0  0  0  0  0
    5.0843   -0.5609    1.0453 C   0  0  0  0  0  0  0  0  0  0  0  0
    6.4806   -0.5921    1.0774 C   0  0  0  0  0  0  0  0  0  0  0  0
    7.2086   -0.1669   -0.0307 C   0  0  0  0  0  0  0  0  0  0  0  0
    6.5347    0.2862   -1.1629 C   0  0  0  0  0  0  0  0  0  0  0  0
    7.4396    0.8111   -2.5312 Cl  0  0  0  0  0  0  0  0  0  0  0  0
    5.1386    0.3191   -1.1995 C   0  0  0  0  0  0  0  0  0  0  0  0
    0.6916    0.1205   -0.5429 C   0  0  0  0  0  0  0  0  0  0  0  0
    0.3884   -0.3572    0.6859 N   0  0  0  0  0  0  0  0  0  0  0  0
   -0.9550   -0.3317    0.6662 N   0  0  0  0  0  0  0  0  0  0  0  0
   -1.4364    0.1398   -0.5213 C   0  0  0  0  0  0  0  0  0  0  0  0
   -2.8920    0.2851   -0.8444 C   0  0  0  0  0  0  0  0  0  0  0  0
   -3.5411    1.3865    0.0134 C   0  0  0  0  0  0  0  0  0  0  0  0
   -5.0574    1.2416    0.0435 C   0  0  0  0  0  0  0  0  0  0  0  0
   -5.4904   -0.0863    0.6668 C   0  0  0  0  0  0  0  0  0  0  0  0
   -4.4563   -1.2030    0.5143 C   0  0  0  0  0  0  0  0  0  0  0  0
   -3.6426   -1.0595   -0.7683 C   0  0  0  0  0  0  0  0  0  0  0  0
   -0.4190    0.4322   -1.3004 N   0  0  0  0  0  0  0  0  0  0  0  0
    2.5546   -0.4383    0.8187 H   0  0  0  0  0  0  0  0  0  0  0  0
    4.5365   -0.8978    1.9224 H   0  0  0  0  0  0  0  0  0  0  0  0
    6.9978   -0.9472    1.9651 H   0  0  0  0  0  0  0  0  0  0  0  0
    8.2947   -0.1903   -0.0080 H   0  0  0  0  0  0  0  0  0  0  0  0
    4.6537    0.6793   -2.1009 H   0  0  0  0  0  0  0  0  0  0  0  0
   -1.4713   -0.6424    1.4814 H   0  0  0  0  0  0  0  0  0  0  0  0
   -2.9439    0.6101   -1.8936 H   0  0  0  0  0  0  0  0  0  0  0  0
   -3.1637    1.3631    1.0441 H   0  0  0  0  0  0  0  0  0  0  0  0
   -3.2684    2.3706   -0.3878 H   0  0  0  0  0  0  0  0  0  0  0  0
   -5.5080    2.0724    0.5982 H   0  0  0  0  0  0  0  0  0  0  0  0
   -5.4449    1.3054   -0.9812 H   0  0  0  0  0  0  0  0  0  0  0  0
   -6.4396   -0.3944    0.2117 H   0  0  0  0  0  0  0  0  0  0  0  0
   -5.6975    0.0554    1.7346 H   0  0  0  0  0  0  0  0  0  0  0  0
   -4.9633   -2.1746    0.5322 H   0  0  0  0  0  0  0  0  0  0  0  0
   -3.7811   -1.1920    1.3782 H   0  0  0  0  0  0  0  0  0  0  0  0
   -2.9577   -1.9096   -0.8741 H   0  0  0  0  0  0  0  0  0  0  0  0
   -4.3365   -1.1215   -1.6176 H   0  0  0  0  0  0  0  0  0  0  0  0
  1  2  2  0
  2  3  1  0
  3  4  1  0
  4  5  2  0
  5  6  1  0
  6  7  2  0
  7  8  1  0
  8  9  1  0
  8 10  2  0
  2 11  1  0
 11 12  2  0
 12 13  1  0
 13 14  1  0
 14 15  1  0
 15 16  1  0
 16 17  1  0
 17 18  1  0
 18 19  1  0
 19 20  1  0
 14 21  2  0
 10  4  1  0
 21 11  1  0
 20 15  1  0
  3 22  1  0
  5 23  1  0
  6 24  1  0
  7 25  1  0
 10 26  1  0
 13 27  1  0
 15 28  1  0
 16 29  1  0
 16 30  1  0
 17 31  1  0
 17 32  1  0
 18 33  1  0
 18 34  1  0
 19 35  1  0
 19 36  1  0
 20 37  1  0
 20 38  1  0
M  END
>  <_SMILES>  (110) 
O=C(Nc1cccc(Cl)c1)c1n[nH]c(C2CCCCC2)n1

$$$$

     RDKit          3D

 38 40  0  0  0  0  0  0  0  0999 V2000
    2.8953   -2.2993    0.6856 O   0  0  0  0  0  0  0  0  0  0  0  0
    2.2272   -1.2932    0.4756 C   0  0  0  0  0  0  0  0  0  0  0  0
    2.6985    0.0023    0.3875 N   0  0  0  0  0  0  0  0  0  0  0  0
    4.0201    0.4653    0.5138 C   0  0  0  0  0  0  0  0  0  0  0  0
    5.1181   -0.3645    0.7618 C   0  0  0  0  0  0  0  0  0  0  0  0
    6.4064    0.1727    0.8747 C   0  0  0  0  0  0  0  0  0  0  0  0
    6.6053    1.5438    0.7405 C   0  0  0  0  0  0  0  0  0  0  0  0
    5.5139    2.3654    0.4944 C   0  0  0  0  0  0  0  0  0  0  0  0
    5.6992    3.6857    0.3642 F   0  0  0  0  0  0  0  0  0  0  0  0
    4.2292    1.8418    0.3802 C   0  0  0  0  0  0  0  0  0  0  0  0
    0.7971   -1.3600    0.2878 C   0  0  0  0  0  0  0  0  0  0  0  0
   -0.0037   -0.3343    0.0574 N   0  0  0  0  0  0  0  0  0  0  0  0
   -1.2410   -0.9248   -0.0423 C   0  0  0  0  0  0  0  0  0  0  0  0
   -2.4792   -0.1271   -0.3057 C   0  0  0  0  0  0  0  0  0  0  0  0
   -3.4814   -0.2263    0.8555 C   0  0  0  0  0  0  0  0  0  0  0  0
   -4.7430    0.5899    0.5824 C   0  0  0  0  0  0  0  0  0  0  0  0
   -5.3906    0.1990   -0.7425 C   0  0  0  0  0  0  0  0  0  0  0  0
   -4.4032    0.2973   -1.9012 C   0  0  0  0  0  0  0  0  0  0  0  0
   -3.1404   -0.5199   -1.6365 C   0  0  0  0  0  0  0  0  0  0  0  0
   -1.2411   -2.2556    0.1145 N   0  0  0  0  0  0  0  0  0  0  0  0
    0.0622   -2.5054    0.3222 N   0  0  0  0  0  0  0  0  0  0  0  0
    1.9730    0.6930    0.2069 H   0  0  0  0  0  0  0  0  0  0  0  0
    5.0087   -1.4391    0.8734 H   0  0  0  0  0  0  0  0  0  0  0  0
    7.2508   -0.4846    1.0677 H   0  0  0  0  0  0  0  0  0  0  0  0
    7.5977    1.9744    0.8255 H   0  0  0  0  0  0  0  0  0  0  0  0
    3.4088    2.5256    0.1874 H   0  0  0  0  0  0  0  0  0  0  0  0
   -2.1746    0.9263   -0.3881 H   0  0  0  0  0  0  0  0  0  0  0  0
   -3.7630   -1.2739    1.0254 H   0  0  0  0  0  0  0  0  0  0  0  0
   -3.0162    0.1250    1.7850 H   0  0  0  0  0  0  0  0  0  0  0  0
   -5.4590    0.4452    1.3992 H   0  0  0  0  0  0  0  0  0  0  0  0
   -4.4901    1.6571    0.5646 H   0  0  0  0  0  0  0  0  0  0  0  0
   -5.7713   -0.8275   -0.6736 H   0  0  0  0  0  0  0  0  0  0  0  0
   -6.2526    0.8471   -0.9368 H   0  0  0  0  0  0  0  0  0  0  0  0
   -4.1308    1.3478   -2.0612 H   0  0  0  0  0  0  0  0  0  0  0  0
   -4.8812   -0.0523   -2.8233 H   0  0  0  0  0  0  0  0  0  0  0  0
   -3.3995   -1.5869   -1.6313 H   0  0  0  0  0  0  0  0  0  0  0  0
   -2.4348   -0.3757   -2.4642 H   0  0  0  0  0  0  0  0  0  0  0  0
    0.3851   -3.4545    0.4782 H   0  0  0  0  0  0  0  0  0  0  0  0
  1  2  2  0
  2  3  1  0
  3  4  1  0
  4  5  2  0
  5  6  1  0
  6  7  2  0
  7  8  1  0
  8  9  1  0
  8 10  2  0
  2 11  1  0
 11 12  2  0
 12 13  1  0
 13 14  1  0
 14 15  1  0
 15 16  1  0
 16 17  1  0
 17 18  1  0
 18 19  1  0
 13 20  2  0
 20 21  1  0
 10  4  1  0
 21 11  1  0
 19 14  1  0
  3 22  1  0
  5 23  1  0
  6 24  1  0
  7 25  1  0
 10 26  1  0
 14 27  1  0
 15 28  1  0
 15 29  1  0
 16 30  1  0
 16 31  1  0
 17 32  1  0
 17 33  1  0
 18 34  1  0
 18 35  1  0
 19 36  1  0
 19 37  1  0
 21 38  1  0
M  END
>  <_SMILES>  (111) 
O=C(Nc1cccc(F)c1)c1nc(C2CCCCC2)n[nH]1

$$$$

     RDKit          3D

 38 40  0  0  0  0  0  0  0  0999 V2000
    2.7991   -2.1114    1.4265 O   0  0  0  0  0  0  0  0  0  0  0  0
    2.1109   -1.1625    1.0675 C   0  0  0  0  0  0  0  0  0  0  0  0
    2.5758   -0.0960    0.3033 N   0  0  0  0  0  0  0  0  0  0  0  0
    3.8556    0.0521   -0.2751 C   0  0  0  0  0  0  0  0  0  0  0  0
    4.8268   -0.9538   -0.2996 C   0  0  0  0  0  0  0  0  0  0  0  0
    6.0702   -0.7323   -0.9055 C   0  0  0  0  0  0  0  0  0  0  0  0
    6.3507    0.4959   -1.4964 C   0  0  0  0  0  0  0  0  0  0  0  0
    5.3844    1.4913   -1.4765 C   0  0  0  0  0  0  0  0  0  0  0  0
    5.6443    2.6753   -2.0465 F   0  0  0  0  0  0  0  0  0  0  0  0
    4.1454    1.2822   -0.8762 C   0  0  0  0  0  0  0  0  0  0  0  0
    0.7070   -1.0391    1.4098 C   0  0  0  0  0  0  0  0  0  0  0  0
    0.1848   -1.3714    2.5729 N   0  0  0  0  0  0  0  0  0  0  0  0
   -1.1660   -1.1127    2.5283 N   0  0  0  0  0  0  0  0  0  0  0  0
   -1.4580   -0.6621    1.3280 C   0  0  0  0  0  0  0  0  0  0  0  0
   -2.8109   -0.2834    0.8156 C   0  0  0  0  0  0  0  0  0  0  0  0
   -3.2464   -1.1893   -0.3456 C   0  0  0  0  0  0  0  0  0  0  0  0
   -4.6237   -0.7966   -0.8763 C   0  0  0  0  0  0  0  0  0  0  0  0
   -4.6765    0.6767   -1.2699 C   0  0  0  0  0  0  0  0  0  0  0  0
   -4.2449    1.5822   -0.1201 C   0  0  0  0  0  0  0  0  0  0  0  0
   -2.8661    1.1978    0.4131 C   0  0  0  0  0  0  0  0  0  0  0  0
   -0.3037   -0.6011    0.5931 N   0  0  0  0  0  0  0  0  0  0  0  0
    1.9824    0.7218    0.2631 H   0  0  0  0  0  0  0  0  0  0  0  0
    4.6526   -1.9308    0.1428 H   0  0  0  0  0  0  0  0  0  0  0  0
    6.8156   -1.5243   -0.9115 H   0  0  0  0  0  0  0  0  0  0  0  0
    7.3101    0.6813   -1.9684 H   0  0  0  0  0  0  0  0  0  0  0  0
    3.4292    2.0970   -0.8878 H   0  0  0  0  0  0  0  0  0  0  0  0
   -3.5233   -0.4317    1.6396 H   0  0  0  0  0  0  0  0  0  0  0  0
   -2.5194   -1.1341   -1.1666 H   0  0  0  0  0  0  0  0  0  0  0  0
   -3.2680   -2.2367   -0.0194 H   0  0  0  0  0  0  0  0  0  0  0  0
   -5.3811   -0.9969   -0.1084 H   0  0  0  0  0  0  0  0  0  0  0  0
   -4.8755   -1.4186   -1.7426 H   0  0  0  0  0  0  0  0  0  0  0  0
   -5.6934    0.9382   -1.5832 H   0  0  0  0  0  0  0  0  0  0  0  0
   -4.0219    0.8470   -2.1335 H   0  0  0  0  0  0  0  0  0  0  0  0
   -4.2316    2.6248   -0.4573 H   0  0  0  0  0  0  0  0  0  0  0  0
   -4.9804    1.5183    0.6912 H   0  0  0  0  0  0  0  0  0  0  0  0
   -2.1139    1.4127   -0.3573 H   0  0  0  0  0  0  0  0  0  0  0  0
   -2.6197    1.8321    1.2737 H   0  0  0  0  0  0  0  0  0  0  0  0
   -0.2205   -0.3420   -0.3784 H   0  0  0  0  0  0  0  0  0  0  0  0
  1  2  2  0
  2  3  1  0
  3  4  1  0
  4  5  2  0
  5  6  1  0
  6  7  2  0
  7  8  1  0
  8  9  1  0
  8 10  2  0
  2 11  1  0
 11 12  2  0
 12 13  1  0
 13 14  2  0
 14 15  1  0
 15 16  1  0
 16 17  1  0
 17 18  1  0
 18 19  1  0
 19 20  1  0
 14 21  1  0
 10  4  1  0
 21 11  1  0
 20 15  1  0
  3 22  1  0
  5 23  1  0
  6 24  1  0
  7 25  1  0
 10 26  1  0
 15 27  1  0
 16 28  1  0
 16 29  1  0
 17 30  1  0
 17 31  1  0
 18 32  1  0
 18 33  1  0
 19 34  1  0
 19 35  1  0
 20 36  1  0
 20 37  1  0
 21 38  1  0
M  END
>  <_SMILES>  (112) 
O=C(Nc1cccc(F)c1)c1nnc(C2CCCCC2)[nH]1

$$$$

     RDKit          3D

 38 40  0  0  0  0  0  0  0  0999 V2000
    2.0189   -0.4750    1.3857 O   0  0  0  0  0  0  0  0  0  0  0  0
    1.9602   -0.0990    0.2197 C   0  0  0  0  0  0  0  0  0  0  0  0
    3.0419    0.2312   -0.5838 N   0  0  0  0  0  0  0  0  0  0  0  0
    4.4096    0.2136   -0.2628 C   0  0  0  0  0  0  0  0  0  0  0  0
    5.3057    0.5989   -1.2715 C   0  0  0  0  0  0  0  0  0  0  0  0
    6.6845    0.6110   -1.0396 C   0  0  0  0  0  0  0  0  0  0  0  0
    7.1780    0.2367    0.2062 C   0  0  0  0  0  0  0  0  0  0  0  0
    6.2889   -0.1446    1.2039 C   0  0  0  0  0  0  0  0  0  0  0  0
    6.7676   -0.5044    2.4025 F   0  0  0  0  0  0  0  0  0  0  0  0
    4.9135   -0.1600    0.9829 C   0  0  0  0  0  0  0  0  0  0  0  0
    0.6766    0.0562   -0.5073 C   0  0  0  0  0  0  0  0  0  0  0  0
    0.6183    0.4716   -1.7939 N   0  0  0  0  0  0  0  0  0  0  0  0
   -0.7057    0.4632   -2.0250 N   0  0  0  0  0  0  0  0  0  0  0  0
   -1.4086    0.0597   -0.9276 C   0  0  0  0  0  0  0  0  0  0  0  0
   -2.8995   -0.0394   -0.9009 C   0  0  0  0  0  0  0  0  0  0  0  0
   -3.3553   -1.4058   -0.3785 C   0  0  0  0  0  0  0  0  0  0  0  0
   -4.8766   -1.5631   -0.4504 C   0  0  0  0  0  0  0  0  0  0  0  0
   -5.6363   -0.2437   -0.3037 C   0  0  0  0  0  0  0  0  0  0  0  0
   -4.8684    0.7606    0.5439 C   0  0  0  0  0  0  0  0  0  0  0  0
   -3.5071    1.1047   -0.0675 C   0  0  0  0  0  0  0  0  0  0  0  0
   -0.5623   -0.2015    0.0434 N   0  0  0  0  0  0  0  0  0  0  0  0
    2.7739    0.5196   -1.5218 H   0  0  0  0  0  0  0  0  0  0  0  0
    4.9411    0.8951   -2.2525 H   0  0  0  0  0  0  0  0  0  0  0  0
    7.3683    0.9115   -1.8292 H   0  0  0  0  0  0  0  0  0  0  0  0
    8.2441    0.2385    0.4086 H   0  0  0  0  0  0  0  0  0  0  0  0
    4.2752   -0.4675    1.8031 H   0  0  0  0  0  0  0  0  0  0  0  0
   -1.0553    0.7395   -2.9359 H   0  0  0  0  0  0  0  0  0  0  0  0
   -3.2696    0.0590   -1.9316 H   0  0  0  0  0  0  0  0  0  0  0  0
   -3.0320   -1.5294    0.6643 H   0  0  0  0  0  0  0  0  0  0  0  0
   -2.8803   -2.2198   -0.9405 H   0  0  0  0  0  0  0  0  0  0  0  0
   -5.1571   -2.0253   -1.4046 H   0  0  0  0  0  0  0  0  0  0  0  0
   -5.1938   -2.2632    0.3321 H   0  0  0  0  0  0  0  0  0  0  0  0
   -5.8135    0.1863   -1.2976 H   0  0  0  0  0  0  0  0  0  0  0  0
   -6.6231   -0.4346    0.1329 H   0  0  0  0  0  0  0  0  0  0  0  0
   -4.7195    0.3431    1.5478 H   0  0  0  0  0  0  0  0  0  0  0  0
   -5.4554    1.6772    0.6716 H   0  0  0  0  0  0  0  0  0  0  0  0
   -3.6120    1.9861   -0.7140 H   0  0  0  0  0  0  0  0  0  0  0  0
   -2.8348    1.4128    0.7438 H   0  0  0  0  0  0  0  0  0  0  0  0
  1  2  2  0
  2  3  1  0
  3  4  1  0
  4  5  2  0
  5  6  1  0
  6  7  2  0
  7  8  1  0
  8  9  1  0
  8 10  2  0
  2 11  1  0
 11 12  2  0
 12 13  1  0
 13 14  1  0
 14 15  1  0
 15 16  1  0
 16 17  1  0
 17 18  1  0
 18 19  1  0
 19 20  1  0
 14 21  2  0
 10  4  1  0
 21 11  1  0
 20 15  1  0
  3 22  1  0
  5 23  1  0
  6 24  1  0
  7 25  1  0
 10 26  1  0
 13 27  1  0
 15 28  1  0
 16 29  1  0
 16 30  1  0
 17 31  1  0
 17 32  1  0
 18 33  1  0
 18 34  1  0
 19 35  1  0
 19 36  1  0
 20 37  1  0
 20 38  1  0
M  END
>  <_SMILES>  (113) 
O=C(Nc1cccc(F)c1)c1n[nH]c(C2CCCCC2)n1

$$$$

     RDKit          3D

 38 40  0  0  0  0  0  0  0  0999 V2000
    2.8535    0.0397   -2.4889 O   0  0  0  0  0  0  0  0  0  0  0  0
    2.0827    0.0411   -1.5358 C   0  0  0  0  0  0  0  0  0  0  0  0
    2.4284    0.0662   -0.1988 N   0  0  0  0  0  0  0  0  0  0  0  0
    3.7108    0.0955    0.3746 C   0  0  0  0  0  0  0  0  0  0  0  0
    4.8961    0.1040   -0.3641 C   0  0  0  0  0  0  0  0  0  0  0  0
    6.1361    0.1336    0.2848 C   0  0  0  0  0  0  0  0  0  0  0  0
    6.1924    0.1548    1.6756 C   0  0  0  0  0  0  0  0  0  0  0  0
    7.8672    0.1948    2.5495 Br  0  0  0  0  0  0  0  0  0  0  0  0
    5.0199    0.1467    2.4251 C   0  0  0  0  0  0  0  0  0  0  0  0
    3.7830    0.1170    1.7740 C   0  0  0  0  0  0  0  0  0  0  0  0
    0.6509    0.0151   -1.7206 C   0  0  0  0  0  0  0  0  0  0  0  0
   -0.2552    0.0142   -0.7587 N   0  0  0  0  0  0  0  0  0  0  0  0
   -1.4415   -0.0144   -1.4529 C   0  0  0  0  0  0  0  0  0  0  0  0
   -2.7733   -0.0299   -0.7733 C   0  0  0  0  0  0  0  0  0  0  0  0
   -3.0351   -1.3825   -0.0818 C   0  0  0  0  0  0  0  0  0  0  0  0
   -4.0066   -1.2914    1.0983 C   0  0  0  0  0  0  0  0  0  0  0  0
   -5.0157   -0.1664    0.9192 C   0  0  0  0  0  0  0  0  0  0  0  0
   -4.3330    1.1978    0.8096 C   0  0  0  0  0  0  0  0  0  0  0  0
   -2.9232    1.1320    0.2163 C   0  0  0  0  0  0  0  0  0  0  0  0
   -1.3117   -0.0332   -2.7858 N   0  0  0  0  0  0  0  0  0  0  0  0
    0.0241   -0.0130   -2.9290 N   0  0  0  0  0  0  0  0  0  0  0  0
    1.6308    0.0624    0.4329 H   0  0  0  0  0  0  0  0  0  0  0  0
    4.8947    0.0882   -1.4495 H   0  0  0  0  0  0  0  0  0  0  0  0
    7.0470    0.1398   -0.3083 H   0  0  0  0  0  0  0  0  0  0  0  0
    5.0549    0.1631    3.5111 H   0  0  0  0  0  0  0  0  0  0  0  0
    2.8783    0.1111    2.3774 H   0  0  0  0  0  0  0  0  0  0  0  0
   -3.5447    0.1024   -1.5463 H   0  0  0  0  0  0  0  0  0  0  0  0
   -2.1022   -1.8371    0.2761 H   0  0  0  0  0  0  0  0  0  0  0  0
   -3.4353   -2.0811   -0.8285 H   0  0  0  0  0  0  0  0  0  0  0  0
   -4.5240   -2.2495    1.2221 H   0  0  0  0  0  0  0  0  0  0  0  0
   -3.4396   -1.1214    2.0223 H   0  0  0  0  0  0  0  0  0  0  0  0
   -5.7261   -0.1558    1.7535 H   0  0  0  0  0  0  0  0  0  0  0  0
   -5.6040   -0.3526    0.0117 H   0  0  0  0  0  0  0  0  0  0  0  0
   -4.9621    1.8570    0.1992 H   0  0  0  0  0  0  0  0  0  0  0  0
   -4.2746    1.6644    1.8005 H   0  0  0  0  0  0  0  0  0  0  0  0
   -2.1967    1.0176    1.0323 H   0  0  0  0  0  0  0  0  0  0  0  0
   -2.6883    2.0896   -0.2651 H   0  0  0  0  0  0  0  0  0  0  0  0
    0.4422   -0.0200   -3.8534 H   0  0  0  0  0  0  0  0  0  0  0  0
  1  2  2  0
  2  3  1  0
  3  4  1  0
  4  5  1  0
  5  6  2  0
  6  7  1  0
  7  8  1  0
  7  9  2  0
  9 10  1  0
  2 11  1  0
 11 12  2  0
 12 13  1  0
 13 14  1  0
 14 15  1  0
 15 16  1  0
 16 17  1  0
 17 18  1  0
 18 19  1  0
 13 20  2  0
 20 21  1  0
 10  4  2  0
 21 11  1  0
 19 14  1  0
  3 22  1  0
  5 23  1  0
  6 24  1  0
  9 25  1  0
 10 26  1  0
 14 27  1  0
 15 28  1  0
 15 29  1  0
 16 30  1  0
 16 31  1  0
 17 32  1  0
 17 33  1  0
 18 34  1  0
 18 35  1  0
 19 36  1  0
 19 37  1  0
 21 38  1  0
M  END
>  <_SMILES>  (114) 
O=C(Nc1ccc(Br)cc1)c1nc(C2CCCCC2)n[nH]1

$$$$

     RDKit          3D

 38 40  0  0  0  0  0  0  0  0999 V2000
    2.2406    2.0130    0.4932 O   0  0  0  0  0  0  0  0  0  0  0  0
    2.0208    0.8551    0.1535 C   0  0  0  0  0  0  0  0  0  0  0  0
    2.9686   -0.1077   -0.1354 N   0  0  0  0  0  0  0  0  0  0  0  0
    4.3693    0.0065   -0.1097 C   0  0  0  0  0  0  0  0  0  0  0  0
    5.1079   -1.1349   -0.4500 C   0  0  0  0  0  0  0  0  0  0  0  0
    6.5058   -1.1078   -0.4500 C   0  0  0  0  0  0  0  0  0  0  0  0
    7.1715    0.0654   -0.1084 C   0  0  0  0  0  0  0  0  0  0  0  0
    9.0606    0.1089   -0.1063 Br  0  0  0  0  0  0  0  0  0  0  0  0
    6.4512    1.2071    0.2318 C   0  0  0  0  0  0  0  0  0  0  0  0
    5.0516    1.1767    0.2309 C   0  0  0  0  0  0  0  0  0  0  0  0
    0.6717    0.3570    0.0146 C   0  0  0  0  0  0  0  0  0  0  0  0
    0.3448   -0.8691   -0.3443 N   0  0  0  0  0  0  0  0  0  0  0  0
   -1.0281   -0.9489   -0.3590 N   0  0  0  0  0  0  0  0  0  0  0  0
   -1.5126    0.2265   -0.0118 C   0  0  0  0  0  0  0  0  0  0  0  0
   -2.9494    0.6259    0.1182 C   0  0  0  0  0  0  0  0  0  0  0  0
   -3.5700   -0.0304    1.3662 C   0  0  0  0  0  0  0  0  0  0  0  0
   -5.0838   -0.1490    1.2433 C   0  0  0  0  0  0  0  0  0  0  0  0
   -5.4888   -1.0307    0.0610 C   0  0  0  0  0  0  0  0  0  0  0  0
   -4.4813   -1.0117   -1.0902 C   0  0  0  0  0  0  0  0  0  0  0  0
   -3.7349    0.3163   -1.1719 C   0  0  0  0  0  0  0  0  0  0  0  0
   -0.4692    1.0771    0.2333 N   0  0  0  0  0  0  0  0  0  0  0  0
    2.5796   -1.0103   -0.3989 H   0  0  0  0  0  0  0  0  0  0  0  0
    4.6063   -2.0615   -0.7199 H   0  0  0  0  0  0  0  0  0  0  0  0
    7.0600   -2.0037   -0.7168 H   0  0  0  0  0  0  0  0  0  0  0  0
    6.9633    2.1276    0.4999 H   0  0  0  0  0  0  0  0  0  0  0  0
    4.5270    2.0874    0.5019 H   0  0  0  0  0  0  0  0  0  0  0  0
   -2.9853    1.7160    0.2547 H   0  0  0  0  0  0  0  0  0  0  0  0
   -3.3129    0.5602    2.2544 H   0  0  0  0  0  0  0  0  0  0  0  0
   -3.1508   -1.0314    1.5355 H   0  0  0  0  0  0  0  0  0  0  0  0
   -5.5141    0.8524    1.1155 H   0  0  0  0  0  0  0  0  0  0  0  0
   -5.5100   -0.5551    2.1676 H   0  0  0  0  0  0  0  0  0  0  0  0
   -6.4716   -0.7039   -0.2998 H   0  0  0  0  0  0  0  0  0  0  0  0
   -5.6172   -2.0668    0.3972 H   0  0  0  0  0  0  0  0  0  0  0  0
   -3.7595   -1.8267   -0.9554 H   0  0  0  0  0  0  0  0  0  0  0  0
   -5.0012   -1.2118   -2.0340 H   0  0  0  0  0  0  0  0  0  0  0  0
   -3.0787    0.3236   -2.0508 H   0  0  0  0  0  0  0  0  0  0  0  0
   -4.4730    1.1131   -1.3352 H   0  0  0  0  0  0  0  0  0  0  0  0
   -0.5083    2.0453    0.5196 H   0  0  0  0  0  0  0  0  0  0  0  0
  1  2  2  0
  2  3  1  0
  3  4  1  0
  4  5  1  0
  5  6  2  0
  6  7  1  0
  7  8  1  0
  7  9  2  0
  9 10  1  0
  2 11  1  0
 11 12  2  0
 12 13  1  0
 13 14  2  0
 14 15  1  0
 15 16  1  0
 16 17  1  0
 17 18  1  0
 18 19  1  0
 19 20  1  0
 14 21  1  0
 10  4  2  0
 21 11  1  0
 20 15  1  0
  3 22  1  0
  5 23  1  0
  6 24  1  0
  9 25  1  0
 10 26  1  0
 15 27  1  0
 16 28  1  0
 16 29  1  0
 17 30  1  0
 17 31  1  0
 18 32  1  0
 18 33  1  0
 19 34  1  0
 19 35  1  0
 20 36  1  0
 20 37  1  0
 21 38  1  0
M  END
>  <_SMILES>  (115) 
O=C(Nc1ccc(Br)cc1)c1nnc(C2CCCCC2)[nH]1

$$$$

     RDKit          3D

 38 40  0  0  0  0  0  0  0  0999 V2000
    1.9977   -1.3922    1.1627 O   0  0  0  0  0  0  0  0  0  0  0  0
    1.9426   -0.4519    0.3768 C   0  0  0  0  0  0  0  0  0  0  0  0
    3.0262    0.1754   -0.2207 N   0  0  0  0  0  0  0  0  0  0  0  0
    4.3938   -0.1063   -0.0736 C   0  0  0  0  0  0  0  0  0  0  0  0
    4.8978   -1.1199    0.7444 C   0  0  0  0  0  0  0  0  0  0  0  0
    6.2776   -1.3371    0.8365 C   0  0  0  0  0  0  0  0  0  0  0  0
    7.1566   -0.5394    0.1094 C   0  0  0  0  0  0  0  0  0  0  0  0
    9.0189   -0.8337    0.2348 Br  0  0  0  0  0  0  0  0  0  0  0  0
    6.6692    0.4746   -0.7100 C   0  0  0  0  0  0  0  0  0  0  0  0
    5.2906    0.6888   -0.7997 C   0  0  0  0  0  0  0  0  0  0  0  0
    0.6596    0.1575   -0.0510 C   0  0  0  0  0  0  0  0  0  0  0  0
    0.6035    1.1946   -0.9184 N   0  0  0  0  0  0  0  0  0  0  0  0
   -0.7208    1.4051   -1.0091 N   0  0  0  0  0  0  0  0  0  0  0  0
   -1.4261    0.5348   -0.2304 C   0  0  0  0  0  0  0  0  0  0  0  0
   -2.9180    0.5394   -0.1421 C   0  0  0  0  0  0  0  0  0  0  0  0
   -3.5125   -0.6649   -0.8963 C   0  0  0  0  0  0  0  0  0  0  0  0
   -4.8764   -1.1101   -0.3607 C   0  0  0  0  0  0  0  0  0  0  0  0
   -5.6559    0.0478    0.2462 C   0  0  0  0  0  0  0  0  0  0  0  0
   -4.9101    0.6818    1.4215 C   0  0  0  0  0  0  0  0  0  0  0  0
   -3.3872    0.5642    1.3163 C   0  0  0  0  0  0  0  0  0  0  0  0
   -0.5812   -0.2633    0.3830 N   0  0  0  0  0  0  0  0  0  0  0  0
    2.7591    0.9356   -0.8415 H   0  0  0  0  0  0  0  0  0  0  0  0
    4.2446   -1.7628    1.3268 H   0  0  0  0  0  0  0  0  0  0  0  0
    6.6485   -2.1314    1.4792 H   0  0  0  0  0  0  0  0  0  0  0  0
    7.3486    1.1017   -1.2809 H   0  0  0  0  0  0  0  0  0  0  0  0
    4.9289    1.4856   -1.4450 H   0  0  0  0  0  0  0  0  0  0  0  0
   -1.0688    2.1445   -1.6096 H   0  0  0  0  0  0  0  0  0  0  0  0
   -3.2886    1.4563   -0.6227 H   0  0  0  0  0  0  0  0  0  0  0  0
   -2.8358   -1.5291   -0.8720 H   0  0  0  0  0  0  0  0  0  0  0  0
   -3.6091   -0.3961   -1.9566 H   0  0  0  0  0  0  0  0  0  0  0  0
   -5.4536   -1.5748   -1.1681 H   0  0  0  0  0  0  0  0  0  0  0  0
   -4.7303   -1.8839    0.4036 H   0  0  0  0  0  0  0  0  0  0  0  0
   -5.8301    0.8075   -0.5263 H   0  0  0  0  0  0  0  0  0  0  0  0
   -6.6440   -0.2908    0.5776 H   0  0  0  0  0  0  0  0  0  0  0  0
   -5.1968    1.7382    1.4902 H   0  0  0  0  0  0  0  0  0  0  0  0
   -5.2334    0.2167    2.3607 H   0  0  0  0  0  0  0  0  0  0  0  0
   -3.0637   -0.3547    1.8244 H   0  0  0  0  0  0  0  0  0  0  0  0
   -2.9215    1.3926    1.8649 H   0  0  0  0  0  0  0  0  0  0  0  0
  1  2  2  0
  2  3  1  0
  3  4  1  0
  4  5  1  0
  5  6  2  0
  6  7  1  0
  7  8  1  0
  7  9  2  0
  9 10  1  0
  2 11  1  0
 11 12  2  0
 12 13  1  0
 13 14  1  0
 14 15  1  0
 15 16  1  0
 16 17  1  0
 17 18  1  0
 18 19  1  0
 19 20  1  0
 14 21  2  0
 10  4  2  0
 21 11  1  0
 20 15  1  0
  3 22  1  0
  5 23  1  0
  6 24  1  0
  9 25  1  0
 10 26  1  0
 13 27  1  0
 15 28  1  0
 16 29  1  0
 16 30  1  0
 17 31  1  0
 17 32  1  0
 18 33  1  0
 18 34  1  0
 19 35  1  0
 19 36  1  0
 20 37  1  0
 20 38  1  0
M  END
>  <_SMILES>  (116) 
O=C(Nc1ccc(Br)cc1)c1n[nH]c(C2CCCCC2)n1

$$$$

     RDKit          3D

 29 31  0  0  0  0  0  0  0  0999 V2000
   -0.7429    2.5987   -0.4348 O   0  0  0  0  0  0  0  0  0  0  0  0
   -0.3428    1.4833   -0.1213 C   0  0  0  0  0  0  0  0  0  0  0  0
   -1.1068    0.3384   -0.0062 N   0  0  0  0  0  0  0  0  0  0  0  0
   -2.4873    0.1814   -0.2153 C   0  0  0  0  0  0  0  0  0  0  0  0
   -3.3424    1.2194   -0.5932 C   0  0  0  0  0  0  0  0  0  0  0  0
   -4.7087    0.9790   -0.7816 C   0  0  0  0  0  0  0  0  0  0  0  0
   -5.2232   -0.3005   -0.5925 C   0  0  0  0  0  0  0  0  0  0  0  0
   -6.9018   -0.5934   -0.8245 Cl  0  0  0  0  0  0  0  0  0  0  0  0
   -4.3829   -1.3438   -0.2160 C   0  0  0  0  0  0  0  0  0  0  0  0
   -3.0185   -1.1019   -0.0283 C   0  0  0  0  0  0  0  0  0  0  0  0
    1.0476    1.2350    0.1775 C   0  0  0  0  0  0  0  0  0  0  0  0
    1.5700    0.0713    0.5222 N   0  0  0  0  0  0  0  0  0  0  0  0
    2.8975    0.3723    0.6872 C   0  0  0  0  0  0  0  0  0  0  0  0
    3.9482   -0.6924    1.1005 C   0  0  0  0  0  0  0  0  0  0  0  0
    5.0452   -1.0556    0.1323 C   0  0  0  0  0  0  0  0  0  0  0  0
    3.9452   -2.0362    0.4172 C   0  0  0  0  0  0  0  0  0  0  0  0
    3.2214    1.6514    0.4713 N   0  0  0  0  0  0  0  0  0  0  0  0
    2.0297    2.1778    0.1457 N   0  0  0  0  0  0  0  0  0  0  0  0
   -0.5758   -0.4855    0.2675 H   0  0  0  0  0  0  0  0  0  0  0  0
   -2.9815    2.2309   -0.7509 H   0  0  0  0  0  0  0  0  0  0  0  0
   -5.3607    1.7975   -1.0757 H   0  0  0  0  0  0  0  0  0  0  0  0
   -4.7795   -2.3445   -0.0670 H   0  0  0  0  0  0  0  0  0  0  0  0
   -2.3793   -1.9311    0.2660 H   0  0  0  0  0  0  0  0  0  0  0  0
    4.2029   -0.6688    2.1536 H   0  0  0  0  0  0  0  0  0  0  0  0
    5.0573   -0.5671   -0.8356 H   0  0  0  0  0  0  0  0  0  0  0  0
    6.0289   -1.2549    0.5403 H   0  0  0  0  0  0  0  0  0  0  0  0
    3.2120   -2.2171   -0.3606 H   0  0  0  0  0  0  0  0  0  0  0  0
    4.1801   -2.9067    1.0178 H   0  0  0  0  0  0  0  0  0  0  0  0
    1.9479    3.1631   -0.0826 H   0  0  0  0  0  0  0  0  0  0  0  0
  1  2  2  0
  2  3  1  0
  3  4  1  0
  4  5  1  0
  5  6  2  0
  6  7  1  0
  7  8  1  0
  7  9  2  0
  9 10  1  0
  2 11  1  0
 11 12  2  0
 12 13  1  0
 13 14  1  0
 14 15  1  0
 15 16  1  0
 13 17  2  0
 17 18  1  0
 10  4  2  0
 18 11  1  0
 16 14  1  0
  3 19  1  0
  5 20  1  0
  6 21  1  0
  9 22  1  0
 10 23  1  0
 14 24  1  0
 15 25  1  0
 15 26  1  0
 16 27  1  0
 16 28  1  0
 18 29  1  0
M  END
>  <_SMILES>  (117) 
O=C(Nc1ccc(Cl)cc1)c1nc(C2CC2)n[nH]1

$$$$

     RDKit          3D

 29 31  0  0  0  0  0  0  0  0999 V2000
   -1.3073   -0.2454   -2.5334 O   0  0  0  0  0  0  0  0  0  0  0  0
   -0.6228   -0.4047   -1.5292 C   0  0  0  0  0  0  0  0  0  0  0  0
   -1.1277   -0.4882   -0.2350 N   0  0  0  0  0  0  0  0  0  0  0  0
   -2.4660   -0.3120    0.1763 C   0  0  0  0  0  0  0  0  0  0  0  0
   -3.4876    0.1487   -0.6580 C   0  0  0  0  0  0  0  0  0  0  0  0
   -4.7890    0.3089   -0.1667 C   0  0  0  0  0  0  0  0  0  0  0  0
   -5.0728    0.0124    1.1627 C   0  0  0  0  0  0  0  0  0  0  0  0
   -6.6706    0.2116    1.7657 Cl  0  0  0  0  0  0  0  0  0  0  0  0
   -4.0650   -0.4426    2.0074 C   0  0  0  0  0  0  0  0  0  0  0  0
   -2.7655   -0.6021    1.5153 C   0  0  0  0  0  0  0  0  0  0  0  0
    0.8205   -0.5317   -1.5777 C   0  0  0  0  0  0  0  0  0  0  0  0
    1.4863   -1.2086   -2.4926 N   0  0  0  0  0  0  0  0  0  0  0  0
    2.8311   -1.1035   -2.2106 N   0  0  0  0  0  0  0  0  0  0  0  0
    2.9614   -0.3368   -1.1536 C   0  0  0  0  0  0  0  0  0  0  0  0
    4.3277    0.0556   -0.5370 C   0  0  0  0  0  0  0  0  0  0  0  0
    4.5464    1.4553   -0.0263 C   0  0  0  0  0  0  0  0  0  0  0  0
    4.4512    0.3105    0.9420 C   0  0  0  0  0  0  0  0  0  0  0  0
    1.7245    0.0443   -0.7228 N   0  0  0  0  0  0  0  0  0  0  0  0
   -0.4969   -0.8412    0.4721 H   0  0  0  0  0  0  0  0  0  0  0  0
   -3.3110    0.3982   -1.7003 H   0  0  0  0  0  0  0  0  0  0  0  0
   -5.5714    0.6652   -0.8322 H   0  0  0  0  0  0  0  0  0  0  0  0
   -4.2828   -0.6764    3.0462 H   0  0  0  0  0  0  0  0  0  0  0  0
   -1.9985   -0.9628    2.1959 H   0  0  0  0  0  0  0  0  0  0  0  0
    5.1727   -0.4239   -1.0239 H   0  0  0  0  0  0  0  0  0  0  0  0
    5.5216    1.9010   -0.1936 H   0  0  0  0  0  0  0  0  0  0  0  0
    3.7320    2.1680   -0.0673 H   0  0  0  0  0  0  0  0  0  0  0  0
    3.5735    0.2416    1.5719 H   0  0  0  0  0  0  0  0  0  0  0  0
    5.3632   -0.0168    1.4308 H   0  0  0  0  0  0  0  0  0  0  0  0
    1.5227    0.6754    0.0367 H   0  0  0  0  0  0  0  0  0  0  0  0
  1  2  2  0
  2  3  1  0
  3  4  1  0
  4  5  1  0
  5  6  2  0
  6  7  1  0
  7  8  1  0
  7  9  2  0
  9 10  1  0
  2 11  1  0
 11 12  2  0
 12 13  1  0
 13 14  2  0
 14 15  1  0
 15 16  1  0
 16 17  1  0
 14 18  1  0
 10  4  2  0
 18 11  1  0
 17 15  1  0
  3 19  1  0
  5 20  1  0
  6 21  1  0
  9 22  1  0
 10 23  1  0
 15 24  1  0
 16 25  1  0
 16 26  1  0
 17 27  1  0
 17 28  1  0
 18 29  1  0
M  END
>  <_SMILES>  (118) 
O=C(Nc1ccc(Cl)cc1)c1nnc(C2CC2)[nH]1

$$$$

     RDKit          3D

 29 31  0  0  0  0  0  0  0  0999 V2000
   -0.8401    1.8071   -0.2521 O   0  0  0  0  0  0  0  0  0  0  0  0
   -0.5581    0.6279   -0.0656 C   0  0  0  0  0  0  0  0  0  0  0  0
   -1.4377   -0.4422   -0.1439 N   0  0  0  0  0  0  0  0  0  0  0  0
   -2.8092   -0.4299   -0.4440 C   0  0  0  0  0  0  0  0  0  0  0  0
   -3.4702   -1.6657   -0.4574 C   0  0  0  0  0  0  0  0  0  0  0  0
   -4.8360   -1.7410   -0.7470 C   0  0  0  0  0  0  0  0  0  0  0  0
   -5.5477   -0.5778   -1.0250 C   0  0  0  0  0  0  0  0  0  0  0  0
   -7.2278   -0.6665   -1.3816 Cl  0  0  0  0  0  0  0  0  0  0  0  0
   -4.9036    0.6560   -1.0151 C   0  0  0  0  0  0  0  0  0  0  0  0
   -3.5361    0.7293   -0.7249 C   0  0  0  0  0  0  0  0  0  0  0  0
    0.8129    0.1794    0.2804 C   0  0  0  0  0  0  0  0  0  0  0  0
    1.1172   -1.1250    0.4848 N   0  0  0  0  0  0  0  0  0  0  0  0
    2.4320   -1.0552    0.7623 N   0  0  0  0  0  0  0  0  0  0  0  0
    2.8829    0.2272    0.7225 C   0  0  0  0  0  0  0  0  0  0  0  0
    4.3363    0.6825    0.9960 C   0  0  0  0  0  0  0  0  0  0  0  0
    4.9587    1.7032    0.0799 C   0  0  0  0  0  0  0  0  0  0  0  0
    5.4261    0.2773    0.0382 C   0  0  0  0  0  0  0  0  0  0  0  0
    1.8911    1.0301    0.4263 N   0  0  0  0  0  0  0  0  0  0  0  0
   -0.9981   -1.3396    0.0467 H   0  0  0  0  0  0  0  0  0  0  0  0
   -2.9321   -2.5858   -0.2429 H   0  0  0  0  0  0  0  0  0  0  0  0
   -5.3344   -2.7065   -0.7535 H   0  0  0  0  0  0  0  0  0  0  0  0
   -5.4536    1.5681   -1.2313 H   0  0  0  0  0  0  0  0  0  0  0  0
   -3.0704    1.7104   -0.7271 H   0  0  0  0  0  0  0  0  0  0  0  0
    2.9520   -1.9015    0.9623 H   0  0  0  0  0  0  0  0  0  0  0  0
    4.5897    0.7589    2.0483 H   0  0  0  0  0  0  0  0  0  0  0  0
    4.3672    2.0764   -0.7496 H   0  0  0  0  0  0  0  0  0  0  0  0
    5.6115    2.4464    0.5226 H   0  0  0  0  0  0  0  0  0  0  0  0
    5.1715   -0.3010   -0.8427 H   0  0  0  0  0  0  0  0  0  0  0  0
    6.4064    0.0576    0.4454 H   0  0  0  0  0  0  0  0  0  0  0  0
  1  2  2  0
  2  3  1  0
  3  4  1  0
  4  5  1  0
  5  6  2  0
  6  7  1  0
  7  8  1  0
  7  9  2  0
  9 10  1  0
  2 11  1  0
 11 12  2  0
 12 13  1  0
 13 14  1  0
 14 15  1  0
 15 16  1  0
 16 17  1  0
 14 18  2  0
 10  4  2  0
 18 11  1  0
 17 15  1  0
  3 19  1  0
  5 20  1  0
  6 21  1  0
  9 22  1  0
 10 23  1  0
 13 24  1  0
 15 25  1  0
 16 26  1  0
 16 27  1  0
 17 28  1  0
 17 29  1  0
M  END
>  <_SMILES>  (119) 
O=C(Nc1ccc(Cl)cc1)c1n[nH]c(C2CC2)n1

$$$$

     RDKit          3D

 36 39  0  0  0  0  0  0  0  0999 V2000
    2.0452   -1.4358   -1.1934 O   0  0  0  0  0  0  0  0  0  0  0  0
    2.3214   -0.5051   -0.4443 C   0  0  0  0  0  0  0  0  0  0  0  0
    1.3874    0.2858    0.1916 N   0  0  0  0  0  0  0  0  0  0  0  0
   -0.0643    0.1528    0.0837 C   0  0  2  0  0  0  0  0  0  0  0  0
   -0.5500    0.3554   -1.3731 C   0  0  0  0  0  0  0  0  0  0  0  0
   -2.0840    0.2590   -1.4507 C   0  0  1  0  0  0  0  0  0  0  0  0
   -2.5305   -1.1232   -0.9445 C   0  0  0  0  0  0  0  0  0  0  0  0
   -2.0851   -1.3222    0.5143 C   0  0  2  0  0  0  0  0  0  0  0  0
   -2.7082   -0.2230    1.3891 C   0  0  0  0  0  0  0  0  0  0  0  0
   -2.2585    1.1602    0.8931 C   0  0  2  0  0  0  0  0  0  0  0  0
   -2.7071    1.3490   -0.5645 C   0  0  0  0  0  0  0  0  0  0  0  0
   -0.7256    1.2471    0.9639 C   0  0  0  0  0  0  0  0  0  0  0  0
   -0.5511   -1.2266    0.5929 C   0  0  0  0  0  0  0  0  0  0  0  0
    3.7082   -0.1355   -0.1462 C   0  0  0  0  0  0  0  0  0  0  0  0
    4.8871   -0.7497   -0.6397 C   0  0  0  0  0  0  0  0  0  0  0  0
    5.9084   -0.0402   -0.0682 C   0  0  0  0  0  0  0  0  0  0  0  0
    5.3961    0.9371    0.7178 O   0  0  0  0  0  0  0  0  0  0  0  0
    4.0134    0.8865    0.6763 N   0  0  0  0  0  0  0  0  0  0  0  0
    1.7730    1.0185    0.7813 H   0  0  0  0  0  0  0  0  0  0  0  0
   -0.1109   -0.3958   -2.0402 H   0  0  0  0  0  0  0  0  0  0  0  0
   -0.2175    1.3317   -1.7494 H   0  0  0  0  0  0  0  0  0  0  0  0
   -2.4099    0.3957   -2.4879 H   0  0  0  0  0  0  0  0  0  0  0  0
   -2.1030   -1.9104   -1.5776 H   0  0  0  0  0  0  0  0  0  0  0  0
   -3.6213   -1.2134   -1.0176 H   0  0  0  0  0  0  0  0  0  0  0  0
   -2.4118   -2.3059    0.8695 H   0  0  0  0  0  0  0  0  0  0  0  0
   -3.8023   -0.2947    1.3584 H   0  0  0  0  0  0  0  0  0  0  0  0
   -2.4093   -0.3619    2.4353 H   0  0  0  0  0  0  0  0  0  0  0  0
   -2.7029    1.9405    1.5207 H   0  0  0  0  0  0  0  0  0  0  0  0
   -2.4074    2.3411   -0.9238 H   0  0  0  0  0  0  0  0  0  0  0  0
   -3.8012    1.3043   -0.6287 H   0  0  0  0  0  0  0  0  0  0  0  0
   -0.3970    1.1422    2.0067 H   0  0  0  0  0  0  0  0  0  0  0  0
   -0.3963    2.2431    0.6385 H   0  0  0  0  0  0  0  0  0  0  0  0
   -0.1121   -2.0393    0.0022 H   0  0  0  0  0  0  0  0  0  0  0  0
   -0.2194   -1.3855    1.6274 H   0  0  0  0  0  0  0  0  0  0  0  0
    4.9601   -1.5891   -1.3151 H   0  0  0  0  0  0  0  0  0  0  0  0
    6.9862   -0.0927   -0.1099 H   0  0  0  0  0  0  0  0  0  0  0  0
  1  2  2  0
  2  3  1  0
  4  3  1  6
  4  5  1  0
  5  6  1  0
  6  7  1  0
  7  8  1  0
  8  9  1  0
  9 10  1  0
 10 11  1  0
 10 12  1  0
  8 13  1  0
  2 14  1  0
 14 15  1  0
 15 16  2  0
 16 17  1  0
 17 18  1  0
 12  4  1  0
 18 14  2  0
 13  4  1  0
 11  6  1  0
  3 19  1  0
  5 20  1  0
  5 21  1  0
  6 22  1  6
  7 23  1  0
  7 24  1  0
  8 25  1  1
  9 26  1  0
  9 27  1  0
 10 28  1  1
 11 29  1  0
 11 30  1  0
 12 31  1  0
 12 32  1  0
 13 33  1  0
 13 34  1  0
 15 35  1  0
 16 36  1  0
M  END
>  <_SMILES>  (120) 
O=C(N[C@]12C[C@H]3C[C@H](C[C@H](C3)C1)C2)c1ccon1

$$$$

     RDKit          3D

 35 38  0  0  0  0  0  0  0  0999 V2000
    2.1940    1.8290   -0.2288 O   0  0  0  0  0  0  0  0  0  0  0  0
    2.4795    0.6618    0.0206 C   0  0  0  0  0  0  0  0  0  0  0  0
    1.5327   -0.3306    0.2189 N   0  0  0  0  0  0  0  0  0  0  0  0
    0.0823   -0.1488    0.1638 C   0  0  2  0  0  0  0  0  0  0  0  0
   -0.5945   -1.5177    0.4446 C   0  0  0  0  0  0  0  0  0  0  0  0
   -2.1259   -1.3958    0.4012 C   0  0  1  0  0  0  0  0  0  0  0  0
   -2.5811   -0.3835    1.4639 C   0  0  0  0  0  0  0  0  0  0  0  0
   -1.9430    0.9873    1.1899 C   0  0  2  0  0  0  0  0  0  0  0  0
   -2.3664    1.4741   -0.2066 C   0  0  0  0  0  0  0  0  0  0  0  0
   -1.9145    0.4671   -1.2780 C   0  0  2  0  0  0  0  0  0  0  0  0
   -2.5528   -0.9007   -0.9894 C   0  0  0  0  0  0  0  0  0  0  0  0
   -0.3820    0.3332   -1.2331 C   0  0  0  0  0  0  0  0  0  0  0  0
   -0.4105    0.8539    1.2367 C   0  0  0  0  0  0  0  0  0  0  0  0
    3.8713    0.1867    0.1369 C   0  0  0  0  0  0  0  0  0  0  0  0
    4.9821    0.9949   -0.0207 N   0  0  0  0  0  0  0  0  0  0  0  0
    5.9665    0.1556    0.1677 C   0  0  0  0  0  0  0  0  0  0  0  0
    5.5670   -1.1131    0.4305 O   0  0  0  0  0  0  0  0  0  0  0  0
    4.1715   -1.1008    0.4118 N   0  0  0  0  0  0  0  0  0  0  0  0
    1.9024   -1.2554    0.4181 H   0  0  0  0  0  0  0  0  0  0  0  0
   -0.2816   -1.8990    1.4260 H   0  0  0  0  0  0  0  0  0  0  0  0
   -0.2618   -2.2612   -0.2922 H   0  0  0  0  0  0  0  0  0  0  0  0
   -2.5809   -2.3722    0.6018 H   0  0  0  0  0  0  0  0  0  0  0  0
   -2.2980   -0.7359    2.4634 H   0  0  0  0  0  0  0  0  0  0  0  0
   -3.6746   -0.2967    1.4549 H   0  0  0  0  0  0  0  0  0  0  0  0
   -2.2737    1.7063    1.9477 H   0  0  0  0  0  0  0  0  0  0  0  0
   -3.4558    1.5968   -0.2450 H   0  0  0  0  0  0  0  0  0  0  0  0
   -1.9279    2.4589   -0.4091 H   0  0  0  0  0  0  0  0  0  0  0  0
   -2.2250    0.8174   -2.2687 H   0  0  0  0  0  0  0  0  0  0  0  0
   -2.2493   -1.6252   -1.7551 H   0  0  0  0  0  0  0  0  0  0  0  0
   -3.6457   -0.8227   -1.0404 H   0  0  0  0  0  0  0  0  0  0  0  0
   -0.0456   -0.3702   -2.0061 H   0  0  0  0  0  0  0  0  0  0  0  0
    0.0677    1.3013   -1.4834 H   0  0  0  0  0  0  0  0  0  0  0  0
   -0.0945    0.5239    2.2351 H   0  0  0  0  0  0  0  0  0  0  0  0
    0.0380    1.8427    1.0848 H   0  0  0  0  0  0  0  0  0  0  0  0
    7.0301    0.3385    0.1414 H   0  0  0  0  0  0  0  0  0  0  0  0
  1  2  2  0
  2  3  1  0
  4  3  1  6
  4  5  1  0
  5  6  1  0
  6  7  1  0
  7  8  1  0
  8  9  1  0
  9 10  1  0
 10 11  1  0
 10 12  1  0
  8 13  1  0
  2 14  1  0
 14 15  1  0
 15 16  2  0
 16 17  1  0
 17 18  1  0
 12  4  1  0
 18 14  2  0
 13  4  1  0
 11  6  1  0
  3 19  1  0
  5 20  1  0
  5 21  1  0
  6 22  1  1
  7 23  1  0
  7 24  1  0
  8 25  1  1
  9 26  1  0
  9 27  1  0
 10 28  1  6
 11 29  1  0
 11 30  1  0
 12 31  1  0
 12 32  1  0
 13 33  1  0
 13 34  1  0
 16 35  1  0
M  END
>  <_SMILES>  (121) 
O=C(N[C@]12C[C@H]3C[C@H](C[C@H](C3)C1)C2)c1ncon1

$$$$

     RDKit          3D

 36 39  0  0  0  0  0  0  0  0999 V2000
    2.2684    0.6026    1.4423 O   0  0  0  0  0  0  0  0  0  0  0  0
    2.3697   -0.0379    0.4014 C   0  0  0  0  0  0  0  0  0  0  0  0
    1.3056   -0.4017   -0.3962 N   0  0  0  0  0  0  0  0  0  0  0  0
   -0.1005   -0.0948   -0.1472 C   0  0  2  0  0  0  0  0  0  0  0  0
   -0.5940   -0.7168    1.1826 C   0  0  0  0  0  0  0  0  0  0  0  0
   -2.0888   -0.4202    1.3972 C   0  0  1  0  0  0  0  0  0  0  0  0
   -2.3033    1.1027    1.4282 C   0  0  0  0  0  0  0  0  0  0  0  0
   -1.8497    1.7285    0.0982 C   0  0  2  0  0  0  0  0  0  0  0  0
   -2.6602    1.1137   -1.0537 C   0  0  0  0  0  0  0  0  0  0  0  0
   -2.4430   -0.4071   -1.0949 C   0  0  2  0  0  0  0  0  0  0  0  0
   -2.8978   -1.0226    0.2377 C   0  0  0  0  0  0  0  0  0  0  0  0
   -0.9477   -0.6973   -1.2998 C   0  0  0  0  0  0  0  0  0  0  0  0
   -0.3548    1.4327   -0.1168 C   0  0  0  0  0  0  0  0  0  0  0  0
    3.6747   -0.4949   -0.1143 C   0  0  0  0  0  0  0  0  0  0  0  0
    4.9387   -0.2485    0.5260 C   0  0  0  0  0  0  0  0  0  0  0  0
    5.9755   -0.7993   -0.1944 C   0  0  0  0  0  0  0  0  0  0  0  0
    5.3278   -1.5632   -1.5771 S   0  0  0  0  0  0  0  0  0  0  0  0
    3.7445   -1.1944   -1.2584 N   0  0  0  0  0  0  0  0  0  0  0  0
    1.5617   -0.9317   -1.2257 H   0  0  0  0  0  0  0  0  0  0  0  0
   -0.4254   -1.8017    1.1773 H   0  0  0  0  0  0  0  0  0  0  0  0
   -0.0259   -0.3227    2.0336 H   0  0  0  0  0  0  0  0  0  0  0  0
   -2.4194   -0.8593    2.3451 H   0  0  0  0  0  0  0  0  0  0  0  0
   -3.3623    1.3273    1.6049 H   0  0  0  0  0  0  0  0  0  0  0  0
   -1.7413    1.5434    2.2607 H   0  0  0  0  0  0  0  0  0  0  0  0
   -2.0110    2.8119    0.1257 H   0  0  0  0  0  0  0  0  0  0  0  0
   -3.7262    1.3367   -0.9229 H   0  0  0  0  0  0  0  0  0  0  0  0
   -2.3558    1.5621   -2.0074 H   0  0  0  0  0  0  0  0  0  0  0  0
   -3.0206   -0.8409   -1.9187 H   0  0  0  0  0  0  0  0  0  0  0  0
   -2.7645   -2.1111    0.2131 H   0  0  0  0  0  0  0  0  0  0  0  0
   -3.9679   -0.8363    0.3907 H   0  0  0  0  0  0  0  0  0  0  0  0
   -0.6198   -0.2860   -2.2640 H   0  0  0  0  0  0  0  0  0  0  0  0
   -0.7862   -1.7821   -1.3595 H   0  0  0  0  0  0  0  0  0  0  0  0
   -0.0146    1.8907   -1.0549 H   0  0  0  0  0  0  0  0  0  0  0  0
    0.2225    1.9097    0.6840 H   0  0  0  0  0  0  0  0  0  0  0  0
    5.0562    0.2987    1.4528 H   0  0  0  0  0  0  0  0  0  0  0  0
    7.0354   -0.7902    0.0158 H   0  0  0  0  0  0  0  0  0  0  0  0
  1  2  2  0
  2  3  1  0
  4  3  1  6
  4  5  1  0
  5  6  1  0
  6  7  1  0
  7  8  1  0
  8  9  1  0
  9 10  1  0
 10 11  1  0
 10 12  1  0
  8 13  1  0
  2 14  1  0
 14 15  1  0
 15 16  2  0
 16 17  1  0
 17 18  1  0
 12  4  1  0
 18 14  2  0
 13  4  1  0
 11  6  1  0
  3 19  1  0
  5 20  1  0
  5 21  1  0
  6 22  1  1
  7 23  1  0
  7 24  1  0
  8 25  1  1
  9 26  1  0
  9 27  1  0
 10 28  1  6
 11 29  1  0
 11 30  1  0
 12 31  1  0
 12 32  1  0
 13 33  1  0
 13 34  1  0
 15 35  1  0
 16 36  1  0
M  END
>  <_SMILES>  (122) 
O=C(N[C@]12C[C@H]3C[C@H](C[C@H](C3)C1)C2)c1ccsn1

$$$$

     RDKit          3D

 36 39  0  0  0  0  0  0  0  0999 V2000
    1.9167   -1.2842    1.6397 O   0  0  0  0  0  0  0  0  0  0  0  0
    2.2749   -0.6366    0.6639 C   0  0  0  0  0  0  0  0  0  0  0  0
    1.4316    0.0273   -0.1979 N   0  0  0  0  0  0  0  0  0  0  0  0
   -0.0254    0.0767   -0.1026 C   0  0  2  0  0  0  0  0  0  0  0  0
   -0.6528   -1.3351   -0.2129 C   0  0  0  0  0  0  0  0  0  0  0  0
   -2.1885   -1.2508   -0.1582 C   0  0  1  0  0  0  0  0  0  0  0  0
   -2.6126   -0.5994    1.1692 C   0  0  0  0  0  0  0  0  0  0  0  0
   -2.0246    0.8180    1.2750 C   0  0  2  0  0  0  0  0  0  0  0  0
   -2.5293    1.6655    0.0965 C   0  0  0  0  0  0  0  0  0  0  0  0
   -2.1011    1.0239   -1.2325 C   0  0  2  0  0  0  0  0  0  0  0  0
   -2.6922   -0.3914   -1.3284 C   0  0  0  0  0  0  0  0  0  0  0  0
   -0.5674    0.9336   -1.2777 C   0  0  0  0  0  0  0  0  0  0  0  0
   -0.4888    0.7345    1.2208 C   0  0  0  0  0  0  0  0  0  0  0  0
    3.6747   -0.4887    0.2903 C   0  0  0  0  0  0  0  0  0  0  0  0
    4.7587   -1.0275    0.9441 C   0  0  0  0  0  0  0  0  0  0  0  0
    5.8864   -0.6549    0.2773 O   0  0  0  0  0  0  0  0  0  0  0  0
    5.4224    0.0985   -0.7572 C   0  0  0  0  0  0  0  0  0  0  0  0
    4.1161    0.2378   -0.8089 N   0  0  0  0  0  0  0  0  0  0  0  0
    1.8975    0.5168   -0.9579 H   0  0  0  0  0  0  0  0  0  0  0  0
   -0.3014   -1.9839    0.5982 H   0  0  0  0  0  0  0  0  0  0  0  0
   -0.3383   -1.8159   -1.1485 H   0  0  0  0  0  0  0  0  0  0  0  0
   -2.6157   -2.2574   -0.2289 H   0  0  0  0  0  0  0  0  0  0  0  0
   -2.2706   -1.2111    2.0131 H   0  0  0  0  0  0  0  0  0  0  0  0
   -3.7070   -0.5555    1.2310 H   0  0  0  0  0  0  0  0  0  0  0  0
   -2.3357    1.2775    2.2199 H   0  0  0  0  0  0  0  0  0  0  0  0
   -2.1279    2.6839    0.1680 H   0  0  0  0  0  0  0  0  0  0  0  0
   -3.6222    1.7505    0.1368 H   0  0  0  0  0  0  0  0  0  0  0  0
   -2.4610    1.6323   -2.0697 H   0  0  0  0  0  0  0  0  0  0  0  0
   -2.4082   -0.8529   -2.2821 H   0  0  0  0  0  0  0  0  0  0  0  0
   -3.7879   -0.3418   -1.3126 H   0  0  0  0  0  0  0  0  0  0  0  0
   -0.1363    1.9430   -1.2389 H   0  0  0  0  0  0  0  0  0  0  0  0
   -0.2504    0.5025   -2.2368 H   0  0  0  0  0  0  0  0  0  0  0  0
   -0.1312    0.1652    2.0869 H   0  0  0  0  0  0  0  0  0  0  0  0
   -0.0566    1.7394    1.3144 H   0  0  0  0  0  0  0  0  0  0  0  0
    4.8882   -1.6451    1.8209 H   0  0  0  0  0  0  0  0  0  0  0  0
    6.1657    0.5050   -1.4290 H   0  0  0  0  0  0  0  0  0  0  0  0
  1  2  2  0
  2  3  1  0
  4  3  1  1
  4  5  1  0
  5  6  1  0
  6  7  1  0
  7  8  1  0
  8  9  1  0
  9 10  1  0
 10 11  1  0
 10 12  1  0
  8 13  1  0
  2 14  1  0
 14 15  2  0
 15 16  1  0
 16 17  1  0
 17 18  2  0
 12  4  1  0
 18 14  1  0
 13  4  1  0
 11  6  1  0
  3 19  1  0
  5 20  1  0
  5 21  1  0
  6 22  1  6
  7 23  1  0
  7 24  1  0
  8 25  1  1
  9 26  1  0
  9 27  1  0
 10 28  1  6
 11 29  1  0
 11 30  1  0
 12 31  1  0
 12 32  1  0
 13 33  1  0
 13 34  1  0
 15 35  1  0
 17 36  1  0
M  END
>  <_SMILES>  (123) 
O=C(N[C@]12C[C@H]3C[C@H](C[C@H](C3)C1)C2)c1cocn1

$$$$

     RDKit          3D

 27 28  0  0  0  0  0  0  0  0999 V2000
    1.6493    1.1509    1.7000 O   0  0  0  0  0  0  0  0  0  0  0  0
    1.9211    0.3469    0.8118 C   0  0  0  0  0  0  0  0  0  0  0  0
    0.9515   -0.3832    0.1405 N   0  0  0  0  0  0  0  0  0  0  0  0
   -0.4693   -0.1452    0.3263 C   0  0  0  0  0  0  0  0  0  0  0  0
   -1.2749   -1.4094   -0.0137 C   0  0  0  0  0  0  0  0  0  0  0  0
   -2.7176   -1.1226   -0.4379 C   0  0  0  0  0  0  0  0  0  0  0  0
   -3.2481    0.1660    0.1741 C   0  0  0  0  0  0  0  0  0  0  0  0
   -2.4149    1.3782   -0.2450 C   0  0  0  0  0  0  0  0  0  0  0  0
   -0.9424    1.0506   -0.5042 C   0  0  0  0  0  0  0  0  0  0  0  0
    3.2974    0.0806    0.3565 C   0  0  0  0  0  0  0  0  0  0  0  0
    4.4214    0.6782    0.8965 N   0  0  0  0  0  0  0  0  0  0  0  0
    5.3852    0.1502    0.1885 C   0  0  0  0  0  0  0  0  0  0  0  0
    4.9604   -0.7271   -0.7538 O   0  0  0  0  0  0  0  0  0  0  0  0
    3.5695   -0.7776   -0.6496 N   0  0  0  0  0  0  0  0  0  0  0  0
    1.2697   -0.9199   -0.6606 H   0  0  0  0  0  0  0  0  0  0  0  0
   -0.6258    0.0930    1.3868 H   0  0  0  0  0  0  0  0  0  0  0  0
   -1.2741   -2.0678    0.8646 H   0  0  0  0  0  0  0  0  0  0  0  0
   -0.7892   -1.9841   -0.8129 H   0  0  0  0  0  0  0  0  0  0  0  0
   -2.7640   -1.0447   -1.5316 H   0  0  0  0  0  0  0  0  0  0  0  0
   -3.3574   -1.9675   -0.1590 H   0  0  0  0  0  0  0  0  0  0  0  0
   -3.2360    0.0763    1.2677 H   0  0  0  0  0  0  0  0  0  0  0  0
   -4.2939    0.3217   -0.1138 H   0  0  0  0  0  0  0  0  0  0  0  0
   -2.4924    2.1436    0.5367 H   0  0  0  0  0  0  0  0  0  0  0  0
   -2.8396    1.8251   -1.1521 H   0  0  0  0  0  0  0  0  0  0  0  0
   -0.8023    0.8290   -1.5708 H   0  0  0  0  0  0  0  0  0  0  0  0
   -0.3330    1.9394   -0.3007 H   0  0  0  0  0  0  0  0  0  0  0  0
    6.4493    0.3194    0.2559 H   0  0  0  0  0  0  0  0  0  0  0  0
  1  2  2  0
  2  3  1  0
  3  4  1  0
  4  5  1  0
  5  6  1  0
  6  7  1  0
  7  8  1  0
  8  9  1  0
  2 10  1  0
 10 11  1  0
 11 12  2  0
 12 13  1  0
 13 14  1  0
  9  4  1  0
 14 10  2  0
  3 15  1  0
  4 16  1  0
  5 17  1  0
  5 18  1  0
  6 19  1  0
  6 20  1  0
  7 21  1  0
  7 22  1  0
  8 23  1  0
  8 24  1  0
  9 25  1  0
  9 26  1  0
 12 27  1  0
M  END
>  <_SMILES>  (124) 
O=C(NC1CCCCC1)c1ncon1

$$$$

     RDKit          3D

 36 39  0  0  0  0  0  0  0  0999 V2000
    2.0044    0.2553    2.0602 O   0  0  0  0  0  0  0  0  0  0  0  0
    2.3163    0.0100    0.9012 C   0  0  0  0  0  0  0  0  0  0  0  0
    1.4300   -0.1333   -0.1417 N   0  0  0  0  0  0  0  0  0  0  0  0
   -0.0234   -0.0200   -0.0551 C   0  0  2  0  0  0  0  0  0  0  0  0
   -0.4587    1.3886    0.4195 C   0  0  0  0  0  0  0  0  0  0  0  0
   -1.9934    1.4972    0.4562 C   0  0  1  0  0  0  0  0  0  0  0  0
   -2.5538    1.2536   -0.9539 C   0  0  0  0  0  0  0  0  0  0  0  0
   -2.1542   -0.1474   -1.4427 C   0  0  2  0  0  0  0  0  0  0  0  0
   -2.7169   -1.2029   -0.4778 C   0  0  0  0  0  0  0  0  0  0  0  0
   -2.1575   -0.9736    0.9351 C   0  0  2  0  0  0  0  0  0  0  0  0
   -2.5533    0.4330    1.4154 C   0  0  0  0  0  0  0  0  0  0  0  0
   -0.6228   -1.0830    0.8986 C   0  0  0  0  0  0  0  0  0  0  0  0
   -0.6211   -0.2542   -1.4681 C   0  0  0  0  0  0  0  0  0  0  0  0
    3.7092   -0.1653    0.4743 C   0  0  0  0  0  0  0  0  0  0  0  0
    4.7977   -0.0730    1.3234 C   0  0  0  0  0  0  0  0  0  0  0  0
    6.2522   -0.3374    0.4575 S   0  0  0  0  0  0  0  0  0  0  0  0
    5.3390   -0.5548   -0.9769 C   0  0  0  0  0  0  0  0  0  0  0  0
    4.0337   -0.4455   -0.8602 N   0  0  0  0  0  0  0  0  0  0  0  0
    1.8640   -0.3361   -1.0391 H   0  0  0  0  0  0  0  0  0  0  0  0
   -0.0458    2.1562   -0.2481 H   0  0  0  0  0  0  0  0  0  0  0  0
   -0.0612    1.6050    1.4183 H   0  0  0  0  0  0  0  0  0  0  0  0
   -2.2842    2.4956    0.8015 H   0  0  0  0  0  0  0  0  0  0  0  0
   -2.1728    2.0151   -1.6455 H   0  0  0  0  0  0  0  0  0  0  0  0
   -3.6465    1.3500   -0.9449 H   0  0  0  0  0  0  0  0  0  0  0  0
   -2.5538   -0.3159   -2.4489 H   0  0  0  0  0  0  0  0  0  0  0  0
   -3.8124   -1.1488   -0.4606 H   0  0  0  0  0  0  0  0  0  0  0  0
   -2.4533   -2.2088   -0.8268 H   0  0  0  0  0  0  0  0  0  0  0  0
   -2.5646   -1.7261    1.6197 H   0  0  0  0  0  0  0  0  0  0  0  0
   -2.1713    0.6042    2.4294 H   0  0  0  0  0  0  0  0  0  0  0  0
   -3.6459    0.5159    1.4689 H   0  0  0  0  0  0  0  0  0  0  0  0
   -0.3278   -2.0898    0.5749 H   0  0  0  0  0  0  0  0  0  0  0  0
   -0.2316   -0.9611    1.9156 H   0  0  0  0  0  0  0  0  0  0  0  0
   -0.2112    0.4774   -2.1773 H   0  0  0  0  0  0  0  0  0  0  0  0
   -0.3254   -1.2430   -1.8439 H   0  0  0  0  0  0  0  0  0  0  0  0
    4.7965    0.1329    2.3851 H   0  0  0  0  0  0  0  0  0  0  0  0
    5.8196   -0.7700   -1.9227 H   0  0  0  0  0  0  0  0  0  0  0  0
  1  2  2  0
  2  3  1  0
  4  3  1  6
  4  5  1  0
  5  6  1  0
  6  7  1  0
  7  8  1  0
  8  9  1  0
  9 10  1  0
 10 11  1  0
 10 12  1  0
  8 13  1  0
  2 14  1  0
 14 15  2  0
 15 16  1  0
 16 17  1  0
 17 18  2  0
 12  4  1  0
 18 14  1  0
 13  4  1  0
 11  6  1  0
  3 19  1  0
  5 20  1  0
  5 21  1  0
  6 22  1  1
  7 23  1  0
  7 24  1  0
  8 25  1  6
  9 26  1  0
  9 27  1  0
 10 28  1  1
 11 29  1  0
 11 30  1  0
 12 31  1  0
 12 32  1  0
 13 33  1  0
 13 34  1  0
 15 35  1  0
 17 36  1  0
M  END
>  <_SMILES>  (125) 
O=C(N[C@]12C[C@H]3C[C@H](C[C@H](C3)C1)C2)c1cscn1

$$$$

     RDKit          3D

 35 38  0  0  0  0  0  0  0  0999 V2000
    2.2625    1.3075   -1.4906 O   0  0  0  0  0  0  0  0  0  0  0  0
    2.5221    0.4993   -0.6044 C   0  0  0  0  0  0  0  0  0  0  0  0
    1.5596   -0.1388    0.1597 N   0  0  0  0  0  0  0  0  0  0  0  0
    0.1142    0.0407    0.0390 C   0  0  2  0  0  0  0  0  0  0  0  0
   -0.3063    1.5044    0.3216 C   0  0  0  0  0  0  0  0  0  0  0  0
   -1.8357    1.6541    0.2374 C   0  0  1  0  0  0  0  0  0  0  0  0
   -2.3081    1.2423   -1.1674 C   0  0  0  0  0  0  0  0  0  0  0  0
   -1.9281   -0.2221   -1.4458 C   0  0  2  0  0  0  0  0  0  0  0  0
   -2.5860   -1.1258   -0.3912 C   0  0  0  0  0  0  0  0  0  0  0  0
   -2.1108   -0.7242    1.0139 C   0  0  2  0  0  0  0  0  0  0  0  0
   -2.4942    0.7395    1.2821 C   0  0  0  0  0  0  0  0  0  0  0  0
   -0.5822   -0.8667    1.0887 C   0  0  0  0  0  0  0  0  0  0  0  0
   -0.3988   -0.3730   -1.3626 C   0  0  0  0  0  0  0  0  0  0  0  0
    3.8997    0.0966   -0.2319 C   0  0  0  0  0  0  0  0  0  0  0  0
    4.1051   -0.8440    0.8046 N   0  0  0  0  0  0  0  0  0  0  0  0
    5.4001   -1.0294    0.9396 C   0  0  0  0  0  0  0  0  0  0  0  0
    6.3207   -0.0920   -0.1556 S   0  0  0  0  0  0  0  0  0  0  0  0
    4.9765    0.6003   -0.8525 N   0  0  0  0  0  0  0  0  0  0  0  0
    1.9240   -0.7828    0.8568 H   0  0  0  0  0  0  0  0  0  0  0  0
    0.1592    2.1912   -0.3951 H   0  0  0  0  0  0  0  0  0  0  0  0
    0.0451    1.8130    1.3149 H   0  0  0  0  0  0  0  0  0  0  0  0
   -2.1153    2.6959    0.4306 H   0  0  0  0  0  0  0  0  0  0  0  0
   -3.3949    1.3680   -1.2479 H   0  0  0  0  0  0  0  0  0  0  0  0
   -1.8553    1.8970   -1.9221 H   0  0  0  0  0  0  0  0  0  0  0  0
   -2.2731   -0.5098   -2.4452 H   0  0  0  0  0  0  0  0  0  0  0  0
   -2.3340   -2.1753   -0.5869 H   0  0  0  0  0  0  0  0  0  0  0  0
   -3.6780   -1.0433   -0.4554 H   0  0  0  0  0  0  0  0  0  0  0  0
   -2.5801   -1.3725    1.7622 H   0  0  0  0  0  0  0  0  0  0  0  0
   -3.5845    0.8539    1.2466 H   0  0  0  0  0  0  0  0  0  0  0  0
   -2.1761    1.0320    2.2903 H   0  0  0  0  0  0  0  0  0  0  0  0
   -0.2360   -0.6095    2.0988 H   0  0  0  0  0  0  0  0  0  0  0  0
   -0.3003   -1.9158    0.9269 H   0  0  0  0  0  0  0  0  0  0  0  0
    0.0631    0.2398   -2.1456 H   0  0  0  0  0  0  0  0  0  0  0  0
   -0.1137   -1.4113   -1.5776 H   0  0  0  0  0  0  0  0  0  0  0  0
    5.8396   -1.7013    1.6638 H   0  0  0  0  0  0  0  0  0  0  0  0
  1  2  2  0
  2  3  1  0
  4  3  1  6
  4  5  1  0
  5  6  1  0
  6  7  1  0
  7  8  1  0
  8  9  1  0
  9 10  1  0
 10 11  1  0
 10 12  1  0
  8 13  1  0
  2 14  1  0
 14 15  1  0
 15 16  2  0
 16 17  1  0
 17 18  1  0
 12  4  1  0
 18 14  2  0
 13  4  1  0
 11  6  1  0
  3 19  1  0
  5 20  1  0
  5 21  1  0
  6 22  1  1
  7 23  1  0
  7 24  1  0
  8 25  1  6
  9 26  1  0
  9 27  1  0
 10 28  1  1
 11 29  1  0
 11 30  1  0
 12 31  1  0
 12 32  1  0
 13 33  1  0
 13 34  1  0
 16 35  1  0
M  END
>  <_SMILES>  (126) 
O=C(N[C@]12C[C@H]3C[C@H](C[C@H](C3)C1)C2)c1ncsn1

$$$$

     RDKit          3D

 36 39  0  0  0  0  0  0  0  0999 V2000
    1.8993    1.4706   -1.4806 O   0  0  0  0  0  0  0  0  0  0  0  0
    2.2476    0.7803   -0.5274 C   0  0  0  0  0  0  0  0  0  0  0  0
    1.3743    0.0332    0.2439 N   0  0  0  0  0  0  0  0  0  0  0  0
   -0.0715   -0.0563    0.0570 C   0  0  2  0  0  0  0  0  0  0  0  0
   -0.6496   -1.0024    1.1436 C   0  0  0  0  0  0  0  0  0  0  0  0
   -2.1738   -1.1398    1.0014 C   0  0  1  0  0  0  0  0  0  0  0  0
   -2.8205    0.2465    1.1471 C   0  0  0  0  0  0  0  0  0  0  0  0
   -2.2813    1.1934    0.0634 C   0  0  2  0  0  0  0  0  0  0  0  0
   -2.6039    0.6127   -1.3240 C   0  0  0  0  0  0  0  0  0  0  0  0
   -1.9599   -0.7755   -1.4799 C   0  0  2  0  0  0  0  0  0  0  0  0
   -2.5009   -1.7109   -0.3871 C   0  0  0  0  0  0  0  0  0  0  0  0
   -0.4338   -0.6457   -1.3288 C   0  0  0  0  0  0  0  0  0  0  0  0
   -0.7554    1.3243    0.2153 C   0  0  0  0  0  0  0  0  0  0  0  0
    3.6499    0.6503   -0.0695 C   0  0  0  0  0  0  0  0  0  0  0  0
    4.0004   -0.1450    1.0182 N   0  0  0  0  0  0  0  0  0  0  0  0
    5.3009    0.0054    1.0971 C   0  0  0  0  0  0  0  0  0  0  0  0
    5.7226    0.8432    0.1160 N   0  0  0  0  0  0  0  0  0  0  0  0
    4.7014    1.2684   -0.6391 N   0  0  0  0  0  0  0  0  0  0  0  0
    1.8143   -0.4869    0.9990 H   0  0  0  0  0  0  0  0  0  0  0  0
   -0.1806   -1.9928    1.0698 H   0  0  0  0  0  0  0  0  0  0  0  0
   -0.4044   -0.6220    2.1443 H   0  0  0  0  0  0  0  0  0  0  0  0
   -2.5590   -1.8108    1.7773 H   0  0  0  0  0  0  0  0  0  0  0  0
   -2.6090    0.6565    2.1423 H   0  0  0  0  0  0  0  0  0  0  0  0
   -3.9109    0.1622    1.0627 H   0  0  0  0  0  0  0  0  0  0  0  0
   -2.7482    2.1790    0.1691 H   0  0  0  0  0  0  0  0  0  0  0  0
   -3.6906    0.5372   -1.4539 H   0  0  0  0  0  0  0  0  0  0  0  0
   -2.2359    1.2867   -2.1073 H   0  0  0  0  0  0  0  0  0  0  0  0
   -2.1991   -1.1850   -2.4677 H   0  0  0  0  0  0  0  0  0  0  0  0
   -3.5859   -1.8287   -0.4979 H   0  0  0  0  0  0  0  0  0  0  0  0
   -2.0595   -2.7092   -0.4958 H   0  0  0  0  0  0  0  0  0  0  0  0
   -0.0480   -0.0128   -2.1367 H   0  0  0  0  0  0  0  0  0  0  0  0
    0.0391   -1.6283   -1.4565 H   0  0  0  0  0  0  0  0  0  0  0  0
   -0.3822    2.0344   -0.5321 H   0  0  0  0  0  0  0  0  0  0  0  0
   -0.5133    1.7553    1.1957 H   0  0  0  0  0  0  0  0  0  0  0  0
    5.9661   -0.4501    1.8168 H   0  0  0  0  0  0  0  0  0  0  0  0
    6.6614    1.1624   -0.0957 H   0  0  0  0  0  0  0  0  0  0  0  0
  1  2  2  0
  2  3  1  0
  4  3  1  6
  4  5  1  0
  5  6  1  0
  6  7  1  0
  7  8  1  0
  8  9  1  0
  9 10  1  0
 10 11  1  0
 10 12  1  0
  8 13  1  0
  2 14  1  0
 14 15  1  0
 15 16  2  0
 16 17  1  0
 17 18  1  0
 12  4  1  0
 18 14  2  0
 13  4  1  0
 11  6  1  0
  3 19  1  0
  5 20  1  0
  5 21  1  0
  6 22  1  1
  7 23  1  0
  7 24  1  0
  8 25  1  6
  9 26  1  0
  9 27  1  0
 10 28  1  6
 11 29  1  0
 11 30  1  0
 12 31  1  0
 12 32  1  0
 13 33  1  0
 13 34  1  0
 16 35  1  0
 17 36  1  0
M  END
>  <_SMILES>  (127) 
O=C(N[C@]12C[C@H]3C[C@H](C[C@H](C3)C1)C2)c1nc[nH]n1

$$$$

     RDKit          3D

 36 39  0  0  0  0  0  0  0  0999 V2000
    2.3836   -0.6477    1.0954 O   0  0  0  0  0  0  0  0  0  0  0  0
    2.4082    0.0266    0.0709 C   0  0  0  0  0  0  0  0  0  0  0  0
    1.2878    0.4162   -0.6280 N   0  0  0  0  0  0  0  0  0  0  0  0
   -0.0967    0.1013   -0.2790 C   0  0  2  0  0  0  0  0  0  0  0  0
   -1.0304    0.7411   -1.3414 C   0  0  0  0  0  0  0  0  0  0  0  0
   -2.5058    0.4446   -1.0290 C   0  0  1  0  0  0  0  0  0  0  0  0
   -2.7232   -1.0766   -1.0200 C   0  0  0  0  0  0  0  0  0  0  0  0
   -1.8263   -1.7286    0.0441 C   0  0  2  0  0  0  0  0  0  0  0  0
   -2.1721   -1.1461    1.4251 C   0  0  0  0  0  0  0  0  0  0  0  0
   -1.9567    0.3769    1.4266 C   0  0  2  0  0  0  0  0  0  0  0  0
   -2.8528    1.0167    0.3544 C   0  0  0  0  0  0  0  0  0  0  0  0
   -0.4825    0.6801    1.1048 C   0  0  0  0  0  0  0  0  0  0  0  0
   -0.3521   -1.4264   -0.2783 C   0  0  0  0  0  0  0  0  0  0  0  0
    3.6424    0.4884   -0.5161 C   0  0  0  0  0  0  0  0  0  0  0  0
    3.7479    1.2151   -1.6129 N   0  0  0  0  0  0  0  0  0  0  0  0
    5.0877    1.4448   -1.8363 N   0  0  0  0  0  0  0  0  0  0  0  0
    5.7601    0.8551   -0.8749 C   0  0  0  0  0  0  0  0  0  0  0  0
    4.8946    0.2428   -0.0240 N   0  0  0  0  0  0  0  0  0  0  0  0
    1.4696    0.9733   -1.4594 H   0  0  0  0  0  0  0  0  0  0  0  0
   -0.7805    0.3611   -2.3411 H   0  0  0  0  0  0  0  0  0  0  0  0
   -0.8712    1.8272   -1.3785 H   0  0  0  0  0  0  0  0  0  0  0  0
   -3.1452    0.9050   -1.7904 H   0  0  0  0  0  0  0  0  0  0  0  0
   -2.4960   -1.4939   -2.0087 H   0  0  0  0  0  0  0  0  0  0  0  0
   -3.7762   -1.3035   -0.8130 H   0  0  0  0  0  0  0  0  0  0  0  0
   -1.9879   -2.8123    0.0491 H   0  0  0  0  0  0  0  0  0  0  0  0
   -1.5476   -1.6138    2.1962 H   0  0  0  0  0  0  0  0  0  0  0  0
   -3.2146   -1.3763    1.6773 H   0  0  0  0  0  0  0  0  0  0  0  0
   -2.2106    0.7851    2.4112 H   0  0  0  0  0  0  0  0  0  0  0  0
   -2.7188    2.1054    0.3546 H   0  0  0  0  0  0  0  0  0  0  0  0
   -3.9080    0.8257    0.5851 H   0  0  0  0  0  0  0  0  0  0  0  0
   -0.3121    1.7646    1.1212 H   0  0  0  0  0  0  0  0  0  0  0  0
    0.1494    0.2587    1.8955 H   0  0  0  0  0  0  0  0  0  0  0  0
   -0.0881   -1.8537   -1.2546 H   0  0  0  0  0  0  0  0  0  0  0  0
    0.2849   -1.9294    0.4588 H   0  0  0  0  0  0  0  0  0  0  0  0
    6.8339    0.8428   -0.7550 H   0  0  0  0  0  0  0  0  0  0  0  0
    5.1054   -0.2903    0.8078 H   0  0  0  0  0  0  0  0  0  0  0  0
  1  2  2  0
  2  3  1  0
  4  3  1  6
  4  5  1  0
  5  6  1  0
  6  7  1  0
  7  8  1  0
  8  9  1  0
  9 10  1  0
 10 11  1  0
 10 12  1  0
  8 13  1  0
  2 14  1  0
 14 15  2  0
 15 16  1  0
 16 17  2  0
 17 18  1  0
 12  4  1  0
 18 14  1  0
 13  4  1  0
 11  6  1  0
  3 19  1  0
  5 20  1  0
  5 21  1  0
  6 22  1  6
  7 23  1  0
  7 24  1  0
  8 25  1  1
  9 26  1  0
  9 27  1  0
 10 28  1  1
 11 29  1  0
 11 30  1  0
 12 31  1  0
 12 32  1  0
 13 33  1  0
 13 34  1  0
 17 35  1  0
 18 36  1  0
M  END
>  <_SMILES>  (128) 
O=C(N[C@]12C[C@H]3C[C@H](C[C@H](C3)C1)C2)c1nnc[nH]1

$$$$

     RDKit          3D

 36 39  0  0  0  0  0  0  0  0999 V2000
    2.0605    1.5069   -1.1294 O   0  0  0  0  0  0  0  0  0  0  0  0
    2.3684    0.4746   -0.5438 C   0  0  0  0  0  0  0  0  0  0  0  0
    1.4308   -0.3357    0.0870 N   0  0  0  0  0  0  0  0  0  0  0  0
   -0.0180   -0.0824    0.0656 C   0  0  2  0  0  0  0  0  0  0  0  0
   -0.5921   -0.1540   -1.3707 C   0  0  0  0  0  0  0  0  0  0  0  0
   -2.1174    0.0503   -1.3543 C   0  0  1  0  0  0  0  0  0  0  0  0
   -2.7691   -1.0536   -0.5065 C   0  0  0  0  0  0  0  0  0  0  0  0
   -2.2351   -0.9941    0.9332 C   0  0  2  0  0  0  0  0  0  0  0  0
   -2.5623    0.3779    1.5416 C   0  0  0  0  0  0  0  0  0  0  0  0
   -1.9083    1.4895    0.7070 C   0  0  2  0  0  0  0  0  0  0  0  0
   -2.4391    1.4213   -0.7353 C   0  0  0  0  0  0  0  0  0  0  0  0
   -0.3824    1.2870    0.6947 C   0  0  0  0  0  0  0  0  0  0  0  0
   -0.7104   -1.1856    0.9136 C   0  0  0  0  0  0  0  0  0  0  0  0
    3.7277   -0.0181   -0.4534 C   0  0  0  0  0  0  0  0  0  0  0  0
    4.6742    0.1549   -1.3580 N   0  0  0  0  0  0  0  0  0  0  0  0
    5.7540   -0.4781   -0.8150 C   0  0  0  0  0  0  0  0  0  0  0  0
    5.5435   -1.0360    0.3794 N   0  0  0  0  0  0  0  0  0  0  0  0
    4.2619   -0.7038    0.6000 N   0  0  0  0  0  0  0  0  0  0  0  0
    1.6954   -1.3058    0.1942 H   0  0  0  0  0  0  0  0  0  0  0  0
   -0.1361    0.6081   -2.0135 H   0  0  0  0  0  0  0  0  0  0  0  0
   -0.3501   -1.1235   -1.8257 H   0  0  0  0  0  0  0  0  0  0  0  0
   -2.5059    0.0068   -2.3780 H   0  0  0  0  0  0  0  0  0  0  0  0
   -2.5580   -2.0368   -0.9447 H   0  0  0  0  0  0  0  0  0  0  0  0
   -3.8593   -0.9323   -0.5071 H   0  0  0  0  0  0  0  0  0  0  0  0
   -2.6999   -1.7847    1.5329 H   0  0  0  0  0  0  0  0  0  0  0  0
   -2.2025    0.4250    2.5768 H   0  0  0  0  0  0  0  0  0  0  0  0
   -3.6490    0.5239    1.5753 H   0  0  0  0  0  0  0  0  0  0  0  0
   -2.1468    2.4663    1.1425 H   0  0  0  0  0  0  0  0  0  0  0  0
   -3.5231    1.5893   -0.7425 H   0  0  0  0  0  0  0  0  0  0  0  0
   -1.9894    2.2196   -1.3384 H   0  0  0  0  0  0  0  0  0  0  0  0
    0.0757    2.1134    0.1402 H   0  0  0  0  0  0  0  0  0  0  0  0
    0.0116    1.3487    1.7176 H   0  0  0  0  0  0  0  0  0  0  0  0
   -0.4708   -2.1785    0.5096 H   0  0  0  0  0  0  0  0  0  0  0  0
   -0.3210   -1.1717    1.9404 H   0  0  0  0  0  0  0  0  0  0  0  0
    6.7181   -0.5351   -1.3049 H   0  0  0  0  0  0  0  0  0  0  0  0
    3.8245   -0.9536    1.4791 H   0  0  0  0  0  0  0  0  0  0  0  0
  1  2  2  0
  2  3  1  0
  4  3  1  6
  4  5  1  0
  5  6  1  0
  6  7  1  0
  7  8  1  0
  8  9  1  0
  9 10  1  0
 10 11  1  0
 10 12  1  0
  8 13  1  0
  2 14  1  0
 14 15  2  0
 15 16  1  0
 16 17  2  0
 17 18  1  0
 12  4  1  0
 18 14  1  0
 13  4  1  0
 11  6  1  0
  3 19  1  0
  5 20  1  0
  5 21  1  0
  6 22  1  6
  7 23  1  0
  7 24  1  0
  8 25  1  1
  9 26  1  0
  9 27  1  0
 10 28  1  1
 11 29  1  0
 11 30  1  0
 12 31  1  0
 12 32  1  0
 13 33  1  0
 13 34  1  0
 16 35  1  0
 18 36  1  0
M  END
>  <_SMILES>  (129) 
O=C(N[C@]12C[C@H]3C[C@H](C[C@H](C3)C1)C2)c1ncn[nH]1

$$$$

     RDKit          3D

 35 38  0  0  0  0  0  0  0  0999 V2000
    2.1944   -1.6140    1.0868 O   0  0  0  0  0  0  0  0  0  0  0  0
    2.4982   -0.6031    0.4599 C   0  0  0  0  0  0  0  0  0  0  0  0
    1.5570    0.2498   -0.0959 N   0  0  0  0  0  0  0  0  0  0  0  0
    0.1044    0.0855   -0.0255 C   0  0  2  0  0  0  0  0  0  0  0  0
   -0.5599    1.2679   -0.7816 C   0  0  0  0  0  0  0  0  0  0  0  0
   -2.0923    1.1552   -0.7453 C   0  0  1  0  0  0  0  0  0  0  0  0
   -2.5162   -0.1653   -1.4071 C   0  0  0  0  0  0  0  0  0  0  0  0
   -1.8903   -1.3521   -0.6578 C   0  0  2  0  0  0  0  0  0  0  0  0
   -2.3585   -1.3311    0.8073 C   0  0  0  0  0  0  0  0  0  0  0  0
   -1.9382   -0.0126    1.4789 C   0  0  2  0  0  0  0  0  0  0  0  0
   -2.5639    1.1663    0.7171 C   0  0  0  0  0  0  0  0  0  0  0  0
   -0.4047    0.1108    1.4372 C   0  0  0  0  0  0  0  0  0  0  0  0
   -0.3567   -1.2297   -0.7013 C   0  0  0  0  0  0  0  0  0  0  0  0
    3.8641   -0.1764    0.2231 C   0  0  0  0  0  0  0  0  0  0  0  0
    4.2496    0.8985   -0.4422 N   0  0  0  0  0  0  0  0  0  0  0  0
    5.6098    0.8014   -0.3507 C   0  0  0  0  0  0  0  0  0  0  0  0
    6.0721   -0.2554    0.3222 N   0  0  0  0  0  0  0  0  0  0  0  0
    4.9010   -0.9176    0.7110 O   0  0  0  0  0  0  0  0  0  0  0  0
    1.9336    1.0535   -0.5913 H   0  0  0  0  0  0  0  0  0  0  0  0
   -0.2488    2.2226   -0.3366 H   0  0  0  0  0  0  0  0  0  0  0  0
   -0.2155    1.2901   -1.8243 H   0  0  0  0  0  0  0  0  0  0  0  0
   -2.5384    1.9986   -1.2840 H   0  0  0  0  0  0  0  0  0  0  0  0
   -2.2010   -0.1767   -2.4576 H   0  0  0  0  0  0  0  0  0  0  0  0
   -3.6096   -0.2532   -1.4018 H   0  0  0  0  0  0  0  0  0  0  0  0
   -2.1987   -2.2911   -1.1309 H   0  0  0  0  0  0  0  0  0  0  0  0
   -3.4489   -1.4425    0.8526 H   0  0  0  0  0  0  0  0  0  0  0  0
   -1.9289   -2.1820    1.3503 H   0  0  0  0  0  0  0  0  0  0  0  0
   -2.2806   -0.0026    2.5198 H   0  0  0  0  0  0  0  0  0  0  0  0
   -2.2829    2.1129    1.1948 H   0  0  0  0  0  0  0  0  0  0  0  0
   -3.6581    1.1012    0.7587 H   0  0  0  0  0  0  0  0  0  0  0  0
   -0.0911    1.0405    1.9299 H   0  0  0  0  0  0  0  0  0  0  0  0
    0.0345   -0.7076    2.0196 H   0  0  0  0  0  0  0  0  0  0  0  0
   -0.0088   -1.2614   -1.7421 H   0  0  0  0  0  0  0  0  0  0  0  0
    0.0844   -2.1017   -0.2043 H   0  0  0  0  0  0  0  0  0  0  0  0
    6.2890    1.5213   -0.7868 H   0  0  0  0  0  0  0  0  0  0  0  0
  1  2  2  0
  2  3  1  0
  4  3  1  1
  4  5  1  0
  5  6  1  0
  6  7  1  0
  7  8  1  0
  8  9  1  0
  9 10  1  0
 10 11  1  0
 10 12  1  0
  8 13  1  0
  2 14  1  0
 14 15  2  0
 15 16  1  0
 16 17  2  0
 17 18  1  0
 12  4  1  0
 18 14  1  0
 13  4  1  0
 11  6  1  0
  3 19  1  0
  5 20  1  0
  5 21  1  0
  6 22  1  6
  7 23  1  0
  7 24  1  0
  8 25  1  6
  9 26  1  0
  9 27  1  0
 10 28  1  1
 11 29  1  0
 11 30  1  0
 12 31  1  0
 12 32  1  0
 13 33  1  0
 13 34  1  0
 16 35  1  0
M  END
>  <_SMILES>  (130) 
O=C(N[C@]12C[C@H]3C[C@H](C[C@H](C3)C1)C2)c1ncno1

$$$$

     RDKit          3D

 36 39  0  0  0  0  0  0  0  0999 V2000
    1.7713   -1.7252    1.3277 O   0  0  0  0  0  0  0  0  0  0  0  0
    2.2088   -0.8022    0.6455 C   0  0  0  0  0  0  0  0  0  0  0  0
    1.3902    0.0986   -0.0173 N   0  0  0  0  0  0  0  0  0  0  0  0
   -0.0718    0.0962   -0.0119 C   0  0  2  0  0  0  0  0  0  0  0  0
   -0.6444   -1.2107   -0.6146 C   0  0  0  0  0  0  0  0  0  0  0  0
   -2.1825   -1.1653   -0.6433 C   0  0  1  0  0  0  0  0  0  0  0  0
   -2.7104   -0.9818    0.7898 C   0  0  0  0  0  0  0  0  0  0  0  0
   -2.1777    0.3322    1.3862 C   0  0  2  0  0  0  0  0  0  0  0  0
   -2.6351    1.5089    0.5099 C   0  0  0  0  0  0  0  0  0  0  0  0
   -2.1030    1.3350   -0.9211 C   0  0  2  0  0  0  0  0  0  0  0  0
   -2.6399    0.0201   -1.5077 C   0  0  0  0  0  0  0  0  0  0  0  0
   -0.5675    1.2807   -0.8848 C   0  0  0  0  0  0  0  0  0  0  0  0
   -0.6396    0.2879    1.4164 C   0  0  0  0  0  0  0  0  0  0  0  0
    3.6276   -0.5325    0.4430 C   0  0  0  0  0  0  0  0  0  0  0  0
    4.1279    0.4557   -0.2875 N   0  0  0  0  0  0  0  0  0  0  0  0
    5.4851    0.2886   -0.1675 C   0  0  0  0  0  0  0  0  0  0  0  0
    5.7568   -0.7939    0.6306 C   0  0  0  0  0  0  0  0  0  0  0  0
    4.5727   -1.3328    1.0312 O   0  0  0  0  0  0  0  0  0  0  0  0
    1.8814    0.8145   -0.5468 H   0  0  0  0  0  0  0  0  0  0  0  0
   -0.3245   -2.0836   -0.0336 H   0  0  0  0  0  0  0  0  0  0  0  0
   -0.2561   -1.3596   -1.6308 H   0  0  0  0  0  0  0  0  0  0  0  0
   -2.5711   -2.0998   -1.0634 H   0  0  0  0  0  0  0  0  0  0  0  0
   -2.4018   -1.8291    1.4143 H   0  0  0  0  0  0  0  0  0  0  0  0
   -3.8073   -0.9725    0.7856 H   0  0  0  0  0  0  0  0  0  0  0  0
   -2.5628    0.4589    2.4042 H   0  0  0  0  0  0  0  0  0  0  0  0
   -2.2731    2.4542    0.9326 H   0  0  0  0  0  0  0  0  0  0  0  0
   -3.7306    1.5641    0.4984 H   0  0  0  0  0  0  0  0  0  0  0  0
   -2.4291    2.1770   -1.5417 H   0  0  0  0  0  0  0  0  0  0  0  0
   -3.7355    0.0499   -1.5537 H   0  0  0  0  0  0  0  0  0  0  0  0
   -2.2814   -0.1058   -2.5367 H   0  0  0  0  0  0  0  0  0  0  0  0
   -0.1766    1.1856   -1.9068 H   0  0  0  0  0  0  0  0  0  0  0  0
   -0.1732    2.2283   -0.4937 H   0  0  0  0  0  0  0  0  0  0  0  0
   -0.2477    1.2141    1.8571 H   0  0  0  0  0  0  0  0  0  0  0  0
   -0.3194   -0.5255    2.0781 H   0  0  0  0  0  0  0  0  0  0  0  0
    6.1873    0.9494   -0.6568 H   0  0  0  0  0  0  0  0  0  0  0  0
    6.6532   -1.2796    0.9868 H   0  0  0  0  0  0  0  0  0  0  0  0
  1  2  2  0
  2  3  1  0
  4  3  1  1
  4  5  1  0
  5  6  1  0
  6  7  1  0
  7  8  1  0
  8  9  1  0
  9 10  1  0
 10 11  1  0
 10 12  1  0
  8 13  1  0
  2 14  1  0
 14 15  2  0
 15 16  1  0
 16 17  2  0
 17 18  1  0
 12  4  1  0
 18 14  1  0
 13  4  1  0
 11  6  1  0
  3 19  1  0
  5 20  1  0
  5 21  1  0
  6 22  1  6
  7 23  1  0
  7 24  1  0
  8 25  1  1
  9 26  1  0
  9 27  1  0
 10 28  1  6
 11 29  1  0
 11 30  1  0
 12 31  1  0
 12 32  1  0
 13 33  1  0
 13 34  1  0
 16 35  1  0
 17 36  1  0
M  END
>  <_SMILES>  (131) 
O=C(N[C@]12C[C@H]3C[C@H](C[C@H](C3)C1)C2)c1ncco1

$$$$
