
     RDKit          3D

 40 43  0  0  0  0  0  0  0  0999 V2000
    1.1956    0.7721   -1.9798 O   0  0  0  0  0  0  0  0  0  0  0  0
    1.6377    0.3901   -0.9036 C   0  0  0  0  0  0  0  0  0  0  0  0
    0.8611   -0.0066    0.1669 N   0  0  0  0  0  0  0  0  0  0  0  0
   -0.6062    0.0195    0.1811 C   0  0  2  0  0  0  0  0  0  0  0  0
   -1.2134   -0.8695   -0.9340 C   0  0  0  0  0  0  0  0  0  0  0  0
   -2.7507   -0.8602   -0.8577 C   0  0  1  0  0  0  0  0  0  0  0  0
   -3.1956   -1.4093    0.5065 C   0  0  0  0  0  0  0  0  0  0  0  0
   -2.6241   -0.5362    1.6340 C   0  0  2  0  0  0  0  0  0  0  0  0
   -3.1335    0.9045    1.4707 C   0  0  0  0  0  0  0  0  0  0  0  0
   -2.6891    1.4678    0.1115 C   0  0  2  0  0  0  0  0  0  0  0  0
   -3.2558    0.5845   -1.0131 C   0  0  0  0  0  0  0  0  0  0  0  0
   -1.1520    1.4613    0.0360 C   0  0  0  0  0  0  0  0  0  0  0  0
   -1.0897   -0.5412    1.5465 C   0  0  0  0  0  0  0  0  0  0  0  0
    3.1100    0.3754   -0.6764 C   0  0  0  0  0  0  0  0  0  0  0  0
    3.9017    1.2975   -1.3721 C   0  0  0  0  0  0  0  0  0  0  0  0
    5.2849    1.3160   -1.1858 C   0  0  0  0  0  0  0  0  0  0  0  0
    5.8825    0.4076   -0.3126 C   0  0  0  0  0  0  0  0  0  0  0  0
    5.1012   -0.5255    0.3695 C   0  0  0  0  0  0  0  0  0  0  0  0
    3.7164   -0.5468    0.1870 C   0  0  0  0  0  0  0  0  0  0  0  0
    1.3197   -0.0567    1.0667 H   0  0  0  0  0  0  0  0  0  0  0  0
   -0.9079   -0.5214   -1.9272 H   0  0  0  0  0  0  0  0  0  0  0  0
   -0.8405   -1.8980   -0.8412 H   0  0  0  0  0  0  0  0  0  0  0  0
   -3.1632   -1.4839   -1.6587 H   0  0  0  0  0  0  0  0  0  0  0  0
   -4.2908   -1.4274    0.5645 H   0  0  0  0  0  0  0  0  0  0  0  0
   -2.8535   -2.4449    0.6236 H   0  0  0  0  0  0  0  0  0  0  0  0
   -2.9409   -0.9325    2.6051 H   0  0  0  0  0  0  0  0  0  0  0  0
   -2.7467    1.5335    2.2819 H   0  0  0  0  0  0  0  0  0  0  0  0
   -4.2277    0.9258    1.5456 H   0  0  0  0  0  0  0  0  0  0  0  0
   -3.0592    2.4929   -0.0017 H   0  0  0  0  0  0  0  0  0  0  0  0
   -4.3523    0.6018   -0.9851 H   0  0  0  0  0  0  0  0  0  0  0  0
   -2.9562    0.9834   -1.9900 H   0  0  0  0  0  0  0  0  0  0  0  0
   -0.8381    1.9041   -0.9168 H   0  0  0  0  0  0  0  0  0  0  0  0
   -0.7367    2.1031    0.8240 H   0  0  0  0  0  0  0  0  0  0  0  0
   -0.6728    0.0559    2.3688 H   0  0  0  0  0  0  0  0  0  0  0  0
   -0.7130   -1.5629    1.6893 H   0  0  0  0  0  0  0  0  0  0  0  0
    3.4399    2.0036   -2.0596 H   0  0  0  0  0  0  0  0  0  0  0  0
    5.8949    2.0356   -1.7261 H   0  0  0  0  0  0  0  0  0  0  0  0
    6.9607    0.4199   -0.1722 H   0  0  0  0  0  0  0  0  0  0  0  0
    5.5735   -1.2439    1.0352 H   0  0  0  0  0  0  0  0  0  0  0  0
    3.1301   -1.3041    0.6994 H   0  0  0  0  0  0  0  0  0  0  0  0
  1  2  2  0
  2  3  1  0
  4  3  1  1
  4  5  1  0
  5  6  1  0
  6  7  1  0
  7  8  1  0
  8  9  1  0
  9 10  1  0
 10 11  1  0
 10 12  1  0
  8 13  1  0
  2 14  1  0
 14 15  2  0
 15 16  1  0
 16 17  2  0
 17 18  1  0
 18 19  2  0
 12  4  1  0
 19 14  1  0
 13  4  1  0
 11  6  1  0
  3 20  1  0
  5 21  1  0
  5 22  1  0
  6 23  1  6
  7 24  1  0
  7 25  1  0
  8 26  1  1
  9 27  1  0
  9 28  1  0
 10 29  1  6
 11 30  1  0
 11 31  1  0
 12 32  1  0
 12 33  1  0
 13 34  1  0
 13 35  1  0
 15 36  1  0
 16 37  1  0
 17 38  1  0
 18 39  1  0
 19 40  1  0
M  END
>  <_SMILES>  (1) 
O=C(N[C@]12C[C@H]3C[C@H](C[C@H](C3)C1)C2)c1ccccc1

$$$$

     RDKit          3D

 40 43  0  0  0  0  0  0  0  0999 V2000
    1.3174   -1.9737    0.0072 O   0  0  0  0  0  0  0  0  0  0  0  0
    1.6741   -0.8040   -0.0433 C   0  0  0  0  0  0  0  0  0  0  0  0
    0.8260    0.2825    0.0171 N   0  0  0  0  0  0  0  0  0  0  0  0
   -0.6367    0.1854    0.1075 C   0  0  2  0  0  0  0  0  0  0  0  0
   -1.2409   -0.4977   -1.1439 C   0  0  0  0  0  0  0  0  0  0  0  0
   -2.7766   -0.5357   -1.0509 C   0  0  1  0  0  0  0  0  0  0  0  0
   -3.1890   -1.3114    0.2118 C   0  0  0  0  0  0  0  0  0  0  0  0
   -2.6260   -0.6205    1.4657 C   0  0  2  0  0  0  0  0  0  0  0  0
   -3.1672    0.8156    1.5398 C   0  0  0  0  0  0  0  0  0  0  0  0
   -2.7497    1.5979    0.2852 C   0  0  2  0  0  0  0  0  0  0  0  0
   -3.3160    0.9007   -0.9618 C   0  0  0  0  0  0  0  0  0  0  0  0
   -1.2157    1.6240    0.1951 C   0  0  0  0  0  0  0  0  0  0  0  0
   -1.0900   -0.5821    1.3755 C   0  0  0  0  0  0  0  0  0  0  0  0
    3.1191   -0.4931   -0.2193 C   0  0  0  0  0  0  0  0  0  0  0  0
    3.6932    0.6723    0.3033 C   0  0  0  0  0  0  0  0  0  0  0  0
    5.0570    0.9194    0.1220 C   0  0  0  0  0  0  0  0  0  0  0  0
    5.8534    0.0033   -0.5734 C   0  0  0  0  0  0  0  0  0  0  0  0
    7.5290    0.3787   -0.7608 Cl  0  0  0  0  0  0  0  0  0  0  0  0
    5.2835   -1.1696   -1.0826 C   0  0  0  0  0  0  0  0  0  0  0  0
    6.2081   -2.3467   -1.9455 Cl  0  0  0  0  0  0  0  0  0  0  0  0
    3.9202   -1.4185   -0.9006 C   0  0  0  0  0  0  0  0  0  0  0  0
    1.1972    1.1757   -0.2770 H   0  0  0  0  0  0  0  0  0  0  0  0
   -0.9349    0.0390   -2.0515 H   0  0  0  0  0  0  0  0  0  0  0  0
   -0.8629   -1.5214   -1.2514 H   0  0  0  0  0  0  0  0  0  0  0  0
   -3.1874   -1.0296   -1.9386 H   0  0  0  0  0  0  0  0  0  0  0  0
   -4.2827   -1.3671    0.2754 H   0  0  0  0  0  0  0  0  0  0  0  0
   -2.8206   -2.3430    0.1550 H   0  0  0  0  0  0  0  0  0  0  0  0
   -2.9289   -1.1754    2.3607 H   0  0  0  0  0  0  0  0  0  0  0  0
   -2.7840    1.3148    2.4383 H   0  0  0  0  0  0  0  0  0  0  0  0
   -4.2606    0.8004    1.6259 H   0  0  0  0  0  0  0  0  0  0  0  0
   -3.1347    2.6221    0.3431 H   0  0  0  0  0  0  0  0  0  0  0  0
   -4.4120    0.8874   -0.9184 H   0  0  0  0  0  0  0  0  0  0  0  0
   -3.0399    1.4615   -1.8631 H   0  0  0  0  0  0  0  0  0  0  0  0
   -0.8012    2.1447    1.0688 H   0  0  0  0  0  0  0  0  0  0  0  0
   -0.9090    2.2085   -0.6828 H   0  0  0  0  0  0  0  0  0  0  0  0
   -0.7116   -1.6106    1.3713 H   0  0  0  0  0  0  0  0  0  0  0  0
   -0.6743   -0.1060    2.2732 H   0  0  0  0  0  0  0  0  0  0  0  0
    3.1018    1.3806    0.8781 H   0  0  0  0  0  0  0  0  0  0  0  0
    5.4970    1.8250    0.5346 H   0  0  0  0  0  0  0  0  0  0  0  0
    3.4752   -2.3332   -1.2895 H   0  0  0  0  0  0  0  0  0  0  0  0
  1  2  2  0
  2  3  1  0
  4  3  1  6
  4  5  1  0
  5  6  1  0
  6  7  1  0
  7  8  1  0
  8  9  1  0
  9 10  1  0
 10 11  1  0
 10 12  1  0
  8 13  1  0
  2 14  1  0
 14 15  1  0
 15 16  2  0
 16 17  1  0
 17 18  1  0
 17 19  2  0
 19 20  1  0
 19 21  1  0
 12  4  1  0
 21 14  2  0
 13  4  1  0
 11  6  1  0
  3 22  1  0
  5 23  1  0
  5 24  1  0
  6 25  1  6
  7 26  1  0
  7 27  1  0
  8 28  1  1
  9 29  1  0
  9 30  1  0
 10 31  1  1
 11 32  1  0
 11 33  1  0
 12 34  1  0
 12 35  1  0
 13 36  1  0
 13 37  1  0
 15 38  1  0
 16 39  1  0
 21 40  1  0
M  END
>  <_SMILES>  (2) 
O=C(N[C@]12C[C@H]3C[C@H](C[C@H](C3)C1)C2)c1ccc(Cl)c(Cl)c1

$$$$

     RDKit          3D

 46 49  0  0  0  0  0  0  0  0999 V2000
    6.4659    0.6032    0.3185 C   0  0  0  0  0  0  0  0  0  0  0  0
    4.9825    0.6307    0.0668 C   0  0  0  0  0  0  0  0  0  0  0  0
    4.3535    1.8602   -0.1841 C   0  0  0  0  0  0  0  0  0  0  0  0
    2.9809    1.9235   -0.4272 C   0  0  0  0  0  0  0  0  0  0  0  0
    2.2132    0.7575   -0.4136 C   0  0  0  0  0  0  0  0  0  0  0  0
    0.7507    0.8665   -0.6740 C   0  0  0  0  0  0  0  0  0  0  0  0
    0.3279    1.7699   -1.3843 O   0  0  0  0  0  0  0  0  0  0  0  0
   -0.0422   -0.0696   -0.0402 N   0  0  0  0  0  0  0  0  0  0  0  0
   -1.5086   -0.0842   -0.0903 C   0  0  2  0  0  0  0  0  0  0  0  0
   -2.1136    1.1876    0.5533 C   0  0  0  0  0  0  0  0  0  0  0  0
   -3.6511    1.1214    0.5399 C   0  0  1  0  0  0  0  0  0  0  0  0
   -4.1405    0.9939   -0.9128 C   0  0  0  0  0  0  0  0  0  0  0  0
   -3.5763   -0.2867   -1.5516 C   0  0  2  0  0  0  0  0  0  0  0  0
   -4.0405   -1.5057   -0.7396 C   0  0  0  0  0  0  0  0  0  0  0  0
   -3.5459   -1.3882    0.7102 C   0  0  2  0  0  0  0  0  0  0  0  0
   -4.1139   -0.1066    1.3399 C   0  0  0  0  0  0  0  0  0  0  0  0
   -2.0108   -1.3143    0.7143 C   0  0  0  0  0  0  0  0  0  0  0  0
   -2.0386   -0.2225   -1.5403 C   0  0  0  0  0  0  0  0  0  0  0  0
    2.8333   -0.4777   -0.1837 C   0  0  0  0  0  0  0  0  0  0  0  0
    4.2156   -0.5529    0.0618 C   0  0  0  0  0  0  0  0  0  0  0  0
    4.8497   -1.8970    0.2983 C   0  0  0  0  0  0  0  0  0  0  0  0
    6.9719    0.0205   -0.4577 H   0  0  0  0  0  0  0  0  0  0  0  0
    6.8944    1.6111    0.3078 H   0  0  0  0  0  0  0  0  0  0  0  0
    6.6777    0.1677    1.3001 H   0  0  0  0  0  0  0  0  0  0  0  0
    4.9308    2.7827   -0.1969 H   0  0  0  0  0  0  0  0  0  0  0  0
    2.5112    2.8848   -0.6257 H   0  0  0  0  0  0  0  0  0  0  0  0
    0.3891   -0.5969    0.7072 H   0  0  0  0  0  0  0  0  0  0  0  0
   -1.7889    2.0883    0.0189 H   0  0  0  0  0  0  0  0  0  0  0  0
   -1.7534    1.2963    1.5847 H   0  0  0  0  0  0  0  0  0  0  0  0
   -4.0629    2.0316    0.9901 H   0  0  0  0  0  0  0  0  0  0  0  0
   -5.2370    0.9716   -0.9369 H   0  0  0  0  0  0  0  0  0  0  0  0
   -3.8274    1.8712   -1.4921 H   0  0  0  0  0  0  0  0  0  0  0  0
   -3.9341   -0.3732   -2.5837 H   0  0  0  0  0  0  0  0  0  0  0  0
   -3.6562   -2.4272   -1.1938 H   0  0  0  0  0  0  0  0  0  0  0  0
   -5.1351   -1.5740   -0.7581 H   0  0  0  0  0  0  0  0  0  0  0  0
   -3.8761   -2.2604    1.2852 H   0  0  0  0  0  0  0  0  0  0  0  0
   -5.2098   -0.1514    1.3572 H   0  0  0  0  0  0  0  0  0  0  0  0
   -3.7823   -0.0218    2.3821 H   0  0  0  0  0  0  0  0  0  0  0  0
   -1.5934   -2.2377    0.2909 H   0  0  0  0  0  0  0  0  0  0  0  0
   -1.6482   -1.2617    1.7498 H   0  0  0  0  0  0  0  0  0  0  0  0
   -1.7167    0.6215   -2.1608 H   0  0  0  0  0  0  0  0  0  0  0  0
   -1.6230   -1.1241   -2.0093 H   0  0  0  0  0  0  0  0  0  0  0  0
    2.2492   -1.3937   -0.2243 H   0  0  0  0  0  0  0  0  0  0  0  0
    4.1077   -2.7021    0.2717 H   0  0  0  0  0  0  0  0  0  0  0  0
    5.3279   -1.9244    1.2825 H   0  0  0  0  0  0  0  0  0  0  0  0
    5.5935   -2.1077   -0.4765 H   0  0  0  0  0  0  0  0  0  0  0  0
  1  2  1  0
  2  3  1  0
  3  4  2  0
  4  5  1  0
  5  6  1  0
  6  7  2  0
  6  8  1  0
  9  8  1  6
  9 10  1  0
 10 11  1  0
 11 12  1  0
 12 13  1  0
 13 14  1  0
 14 15  1  0
 15 16  1  0
 15 17  1  0
 13 18  1  0
  5 19  2  0
 19 20  1  0
 20 21  1  0
 20  2  2  0
 17  9  1  0
 18  9  1  0
 16 11  1  0
  1 22  1  0
  1 23  1  0
  1 24  1  0
  3 25  1  0
  4 26  1  0
  8 27  1  0
 10 28  1  0
 10 29  1  0
 11 30  1  1
 12 31  1  0
 12 32  1  0
 13 33  1  6
 14 34  1  0
 14 35  1  0
 15 36  1  1
 16 37  1  0
 16 38  1  0
 17 39  1  0
 17 40  1  0
 18 41  1  0
 18 42  1  0
 19 43  1  0
 21 44  1  0
 21 45  1  0
 21 46  1  0
M  END
>  <_SMILES>  (3) 
Cc1ccc(C(=O)N[C@]23C[C@H]4C[C@H](C[C@H](C4)C2)C3)cc1C

$$$$

     RDKit          3D

 44 47  0  0  0  0  0  0  0  0999 V2000
    7.0413    1.6133    0.1624 C   0  0  0  0  0  0  0  0  0  0  0  0
    6.5245    0.3060   -0.0515 O   0  0  0  0  0  0  0  0  0  0  0  0
    5.1680    0.1870   -0.1748 C   0  0  0  0  0  0  0  0  0  0  0  0
    4.2414    1.2280   -0.0923 C   0  0  0  0  0  0  0  0  0  0  0  0
    2.8725    0.9670   -0.2357 C   0  0  0  0  0  0  0  0  0  0  0  0
    2.4231   -0.3409   -0.4557 C   0  0  0  0  0  0  0  0  0  0  0  0
    0.9772   -0.6603   -0.6162 C   0  0  0  0  0  0  0  0  0  0  0  0
    0.6416   -1.6064   -1.3169 O   0  0  0  0  0  0  0  0  0  0  0  0
    0.1039    0.1418    0.0913 N   0  0  0  0  0  0  0  0  0  0  0  0
   -1.3492   -0.0594    0.1412 C   0  0  2  0  0  0  0  0  0  0  0  0
   -1.9677    1.0732    1.0057 C   0  0  0  0  0  0  0  0  0  0  0  0
   -3.4935    0.9202    1.1077 C   0  0  1  0  0  0  0  0  0  0  0  0
   -4.1011    0.9814   -0.3021 C   0  0  0  0  0  0  0  0  0  0  0  0
   -3.5223   -0.1458   -1.1710 C   0  0  2  0  0  0  0  0  0  0  0  0
   -3.8467   -1.5034   -0.5244 C   0  0  0  0  0  0  0  0  0  0  0  0
   -3.2426   -1.5752    0.8884 C   0  0  2  0  0  0  0  0  0  0  0  0
   -3.8222   -0.4388    1.7456 C   0  0  0  0  0  0  0  0  0  0  0  0
   -1.7148   -1.4143    0.7957 C   0  0  0  0  0  0  0  0  0  0  0  0
   -1.9947    0.0172   -1.2659 C   0  0  0  0  0  0  0  0  0  0  0  0
    3.3526   -1.3800   -0.5564 C   0  0  0  0  0  0  0  0  0  0  0  0
    4.7162   -1.1144   -0.4099 C   0  0  0  0  0  0  0  0  0  0  0  0
    8.1305    1.5351    0.2313 H   0  0  0  0  0  0  0  0  0  0  0  0
    6.8073    2.2730   -0.6797 H   0  0  0  0  0  0  0  0  0  0  0  0
    6.6770    2.0318    1.1064 H   0  0  0  0  0  0  0  0  0  0  0  0
    4.5506    2.2549    0.0729 H   0  0  0  0  0  0  0  0  0  0  0  0
    2.1742    1.7988   -0.2027 H   0  0  0  0  0  0  0  0  0  0  0  0
    0.5040    0.7154    0.8215 H   0  0  0  0  0  0  0  0  0  0  0  0
   -1.7207    2.0533    0.5758 H   0  0  0  0  0  0  0  0  0  0  0  0
   -1.5291    1.0620    2.0126 H   0  0  0  0  0  0  0  0  0  0  0  0
   -3.9062    1.7271    1.7234 H   0  0  0  0  0  0  0  0  0  0  0  0
   -5.1925    0.8879   -0.2445 H   0  0  0  0  0  0  0  0  0  0  0  0
   -3.8887    1.9550   -0.7604 H   0  0  0  0  0  0  0  0  0  0  0  0
   -3.9608   -0.1002   -2.1742 H   0  0  0  0  0  0  0  0  0  0  0  0
   -3.4503   -2.3177   -1.1433 H   0  0  0  0  0  0  0  0  0  0  0  0
   -4.9336   -1.6426   -0.4734 H   0  0  0  0  0  0  0  0  0  0  0  0
   -3.4842   -2.5416    1.3449 H   0  0  0  0  0  0  0  0  0  0  0  0
   -4.9089   -0.5562    1.8383 H   0  0  0  0  0  0  0  0  0  0  0  0
   -3.4091   -0.4866    2.7606 H   0  0  0  0  0  0  0  0  0  0  0  0
   -1.3005   -2.2507    0.2203 H   0  0  0  0  0  0  0  0  0  0  0  0
   -1.2708   -1.4814    1.7976 H   0  0  0  0  0  0  0  0  0  0  0  0
   -1.7496    0.9759   -1.7415 H   0  0  0  0  0  0  0  0  0  0  0  0
   -1.5977   -0.7624   -1.9258 H   0  0  0  0  0  0  0  0  0  0  0  0
    3.0186   -2.3979   -0.7469 H   0  0  0  0  0  0  0  0  0  0  0  0
    5.4330   -1.9290   -0.4849 H   0  0  0  0  0  0  0  0  0  0  0  0
  1  2  1  0
  2  3  1  0
  3  4  1  0
  4  5  2  0
  5  6  1  0
  6  7  1  0
  7  8  2  0
  7  9  1  0
 10  9  1  6
 10 11  1  0
 11 12  1  0
 12 13  1  0
 13 14  1  0
 14 15  1  0
 15 16  1  0
 16 17  1  0
 16 18  1  0
 14 19  1  0
  6 20  2  0
 20 21  1  0
 21  3  2  0
 18 10  1  0
 19 10  1  0
 17 12  1  0
  1 22  1  0
  1 23  1  0
  1 24  1  0
  4 25  1  0
  5 26  1  0
  9 27  1  0
 11 28  1  0
 11 29  1  0
 12 30  1  1
 13 31  1  0
 13 32  1  0
 14 33  1  6
 15 34  1  0
 15 35  1  0
 16 36  1  1
 17 37  1  0
 17 38  1  0
 18 39  1  0
 18 40  1  0
 19 41  1  0
 19 42  1  0
 20 43  1  0
 21 44  1  0
M  END
>  <_SMILES>  (4) 
COc1ccc(C(=O)N[C@]23C[C@H]4C[C@H](C[C@H](C4)C2)C3)cc1

$$$$

     RDKit          3D

 43 46  0  0  0  0  0  0  0  0999 V2000
    6.7950   -0.5668    0.5764 C   0  0  0  0  0  0  0  0  0  0  0  0
    5.3211   -0.5645    0.2947 C   0  0  0  0  0  0  0  0  0  0  0  0
    4.7096   -1.6849   -0.2808 C   0  0  0  0  0  0  0  0  0  0  0  0
    3.3444   -1.6717   -0.5762 C   0  0  0  0  0  0  0  0  0  0  0  0
    2.5747   -0.5368   -0.2989 C   0  0  0  0  0  0  0  0  0  0  0  0
    1.1223   -0.5648   -0.6286 C   0  0  0  0  0  0  0  0  0  0  0  0
    0.7234   -1.2716   -1.5455 O   0  0  0  0  0  0  0  0  0  0  0  0
    0.3090    0.2066    0.1778 N   0  0  0  0  0  0  0  0  0  0  0  0
   -1.1545    0.2498    0.0795 C   0  0  2  0  0  0  0  0  0  0  0  0
   -1.6831    1.2632    1.1313 C   0  0  0  0  0  0  0  0  0  0  0  0
   -3.2167    1.3542    1.0892 C   0  0  1  0  0  0  0  0  0  0  0  0
   -3.6557    1.8136   -0.3096 C   0  0  0  0  0  0  0  0  0  0  0  0
   -3.1648    0.8132   -1.3673 C   0  0  2  0  0  0  0  0  0  0  0  0
   -3.7567   -0.5746   -1.0672 C   0  0  0  0  0  0  0  0  0  0  0  0
   -3.3230   -1.0444    0.3319 C   0  0  2  0  0  0  0  0  0  0  0  0
   -3.8121   -0.0324    1.3802 C   0  0  0  0  0  0  0  0  0  0  0  0
   -1.7873   -1.1300    0.3849 C   0  0  0  0  0  0  0  0  0  0  0  0
   -1.6288    0.7300   -1.3158 C   0  0  0  0  0  0  0  0  0  0  0  0
    3.1874    0.5974    0.2475 C   0  0  0  0  0  0  0  0  0  0  0  0
    4.5541    0.5813    0.5408 C   0  0  0  0  0  0  0  0  0  0  0  0
    7.1426   -1.5741    0.8290 H   0  0  0  0  0  0  0  0  0  0  0  0
    7.3442   -0.2121   -0.3012 H   0  0  0  0  0  0  0  0  0  0  0  0
    7.0306    0.0807    1.4275 H   0  0  0  0  0  0  0  0  0  0  0  0
    5.2923   -2.5754   -0.5074 H   0  0  0  0  0  0  0  0  0  0  0  0
    2.8813   -2.5484   -1.0248 H   0  0  0  0  0  0  0  0  0  0  0  0
    0.7131    0.5408    1.0423 H   0  0  0  0  0  0  0  0  0  0  0  0
   -1.3602    0.9655    2.1380 H   0  0  0  0  0  0  0  0  0  0  0  0
   -1.2472    2.2551    0.9515 H   0  0  0  0  0  0  0  0  0  0  0  0
   -3.5658    2.0715    1.8403 H   0  0  0  0  0  0  0  0  0  0  0  0
   -4.7486    1.8974   -0.3510 H   0  0  0  0  0  0  0  0  0  0  0  0
   -3.2517    2.8113   -0.5209 H   0  0  0  0  0  0  0  0  0  0  0  0
   -3.4829    1.1431   -2.3626 H   0  0  0  0  0  0  0  0  0  0  0  0
   -3.4245   -1.2956   -1.8242 H   0  0  0  0  0  0  0  0  0  0  0  0
   -4.8514   -0.5343   -1.1250 H   0  0  0  0  0  0  0  0  0  0  0  0
   -3.7544   -2.0297    0.5411 H   0  0  0  0  0  0  0  0  0  0  0  0
   -4.9077    0.0202    1.3678 H   0  0  0  0  0  0  0  0  0  0  0  0
   -3.5205   -0.3626    2.3847 H   0  0  0  0  0  0  0  0  0  0  0  0
   -1.4669   -1.4814    1.3745 H   0  0  0  0  0  0  0  0  0  0  0  0
   -1.4454   -1.8845   -0.3336 H   0  0  0  0  0  0  0  0  0  0  0  0
   -1.2863    0.0509   -2.1048 H   0  0  0  0  0  0  0  0  0  0  0  0
   -1.1931    1.7113   -1.5451 H   0  0  0  0  0  0  0  0  0  0  0  0
    2.6240    1.5098    0.4204 H   0  0  0  0  0  0  0  0  0  0  0  0
    5.0205    1.4735    0.9540 H   0  0  0  0  0  0  0  0  0  0  0  0
  1  2  1  0
  2  3  1  0
  3  4  2  0
  4  5  1  0
  5  6  1  0
  6  7  2  0
  6  8  1  0
  9  8  1  6
  9 10  1  0
 10 11  1  0
 11 12  1  0
 12 13  1  0
 13 14  1  0
 14 15  1  0
 15 16  1  0
 15 17  1  0
 13 18  1  0
  5 19  2  0
 19 20  1  0
 20  2  2  0
 17  9  1  0
 18  9  1  0
 16 11  1  0
  1 21  1  0
  1 22  1  0
  1 23  1  0
  3 24  1  0
  4 25  1  0
  8 26  1  0
 10 27  1  0
 10 28  1  0
 11 29  1  1
 12 30  1  0
 12 31  1  0
 13 32  1  6
 14 33  1  0
 14 34  1  0
 15 35  1  1
 16 36  1  0
 16 37  1  0
 17 38  1  0
 17 39  1  0
 18 40  1  0
 18 41  1  0
 19 42  1  0
 20 43  1  0
M  END
>  <_SMILES>  (5) 
Cc1ccc(C(=O)N[C@]23C[C@H]4C[C@H](C[C@H](C4)C2)C3)cc1

$$$$

     RDKit          3D

 44 47  0  0  0  0  0  0  0  0999 V2000
   -0.6000    1.6111   -0.6003 O   0  0  0  0  0  0  0  0  0  0  0  0
   -0.8279    0.4721   -0.2179 C   0  0  0  0  0  0  0  0  0  0  0  0
   -2.2101   -0.0415   -0.0321 C   0  0  0  0  0  0  0  0  0  0  0  0
   -3.2567    0.7653   -0.2652 C   0  0  0  0  0  0  0  0  0  0  0  0
   -4.6566    0.3569   -0.0944 C   0  0  0  0  0  0  0  0  0  0  0  0
   -5.5701    1.2795    0.4314 C   0  0  0  0  0  0  0  0  0  0  0  0
   -6.9157    0.9381    0.5880 C   0  0  0  0  0  0  0  0  0  0  0  0
   -7.3633   -0.3256    0.2091 C   0  0  0  0  0  0  0  0  0  0  0  0
   -6.4678   -1.2460   -0.3314 C   0  0  0  0  0  0  0  0  0  0  0  0
   -5.1215   -0.9051   -0.4874 C   0  0  0  0  0  0  0  0  0  0  0  0
    0.1279   -0.4675    0.0869 N   0  0  0  0  0  0  0  0  0  0  0  0
    1.5751   -0.2394    0.0058 C   0  0  2  0  0  0  0  0  0  0  0  0
    2.0319    0.8895    0.9635 C   0  0  0  0  0  0  0  0  0  0  0  0
    3.5586    1.0723    0.8961 C   0  0  1  0  0  0  0  0  0  0  0  0
    4.2462   -0.2373    1.3129 C   0  0  0  0  0  0  0  0  0  0  0  0
    3.8281   -1.3734    0.3666 C   0  0  2  0  0  0  0  0  0  0  0  0
    4.2366   -1.0154   -1.0707 C   0  0  0  0  0  0  0  0  0  0  0  0
    3.5489    0.2894   -1.5017 C   0  0  2  0  0  0  0  0  0  0  0  0
    3.9636    1.4213   -0.5462 C   0  0  0  0  0  0  0  0  0  0  0  0
    2.0222    0.1058   -1.4369 C   0  0  0  0  0  0  0  0  0  0  0  0
    2.3021   -1.5453    0.4288 C   0  0  0  0  0  0  0  0  0  0  0  0
   -2.3394   -1.0610    0.3048 H   0  0  0  0  0  0  0  0  0  0  0  0
   -3.0960    1.7967   -0.5760 H   0  0  0  0  0  0  0  0  0  0  0  0
   -5.2395    2.2719    0.7309 H   0  0  0  0  0  0  0  0  0  0  0  0
   -7.6133    1.6608    1.0033 H   0  0  0  0  0  0  0  0  0  0  0  0
   -8.4108   -0.5901    0.3283 H   0  0  0  0  0  0  0  0  0  0  0  0
   -6.8181   -2.2276   -0.6396 H   0  0  0  0  0  0  0  0  0  0  0  0
   -4.4470   -1.6316   -0.9331 H   0  0  0  0  0  0  0  0  0  0  0  0
   -0.1768   -1.3743    0.4120 H   0  0  0  0  0  0  0  0  0  0  0  0
    1.5480    1.8397    0.7089 H   0  0  0  0  0  0  0  0  0  0  0  0
    1.7285    0.6569    1.9927 H   0  0  0  0  0  0  0  0  0  0  0  0
    3.8632    1.8799    1.5711 H   0  0  0  0  0  0  0  0  0  0  0  0
    5.3357   -0.1124    1.2902 H   0  0  0  0  0  0  0  0  0  0  0  0
    3.9762   -0.4904    2.3455 H   0  0  0  0  0  0  0  0  0  0  0  0
    4.3182   -2.3056    0.6689 H   0  0  0  0  0  0  0  0  0  0  0  0
    5.3260   -0.9037   -1.1341 H   0  0  0  0  0  0  0  0  0  0  0  0
    3.9597   -1.8284   -1.7531 H   0  0  0  0  0  0  0  0  0  0  0  0
    3.8465    0.5425   -2.5255 H   0  0  0  0  0  0  0  0  0  0  0  0
    5.0478    1.5788   -0.6020 H   0  0  0  0  0  0  0  0  0  0  0  0
    3.4894    2.3622   -0.8515 H   0  0  0  0  0  0  0  0  0  0  0  0
    1.5385    1.0244   -1.7889 H   0  0  0  0  0  0  0  0  0  0  0  0
    1.7117   -0.6886   -2.1283 H   0  0  0  0  0  0  0  0  0  0  0  0
    2.0037   -1.8302    1.4467 H   0  0  0  0  0  0  0  0  0  0  0  0
    1.9966   -2.3749   -0.2229 H   0  0  0  0  0  0  0  0  0  0  0  0
  1  2  2  0
  2  3  1  0
  3  4  2  0
  4  5  1  0
  5  6  2  0
  6  7  1  0
  7  8  2  0
  8  9  1  0
  9 10  2  0
  2 11  1  0
 12 11  1  6
 12 13  1  0
 13 14  1  0
 14 15  1  0
 15 16  1  0
 16 17  1  0
 17 18  1  0
 18 19  1  0
 18 20  1  0
 16 21  1  0
 10  5  1  0
 20 12  1  0
 21 12  1  0
 19 14  1  0
  3 22  1  0
  4 23  1  0
  6 24  1  0
  7 25  1  0
  8 26  1  0
  9 27  1  0
 10 28  1  0
 11 29  1  0
 13 30  1  0
 13 31  1  0
 14 32  1  1
 15 33  1  0
 15 34  1  0
 16 35  1  1
 17 36  1  0
 17 37  1  0
 18 38  1  6
 19 39  1  0
 19 40  1  0
 20 41  1  0
 20 42  1  0
 21 43  1  0
 21 44  1  0
M  END
>  <_SMILES>  (6) 
O=C(/C=C/c1ccccc1)N[C@]12C[C@H]3C[C@H](C[C@H](C3)C1)C2

$$$$

     RDKit          3D

 40 43  0  0  0  0  0  0  0  0999 V2000
    1.4353    0.1157    1.9619 O   0  0  0  0  0  0  0  0  0  0  0  0
    1.7242    0.1711    0.7736 C   0  0  0  0  0  0  0  0  0  0  0  0
    0.8108    0.1422   -0.2602 N   0  0  0  0  0  0  0  0  0  0  0  0
   -0.6400    0.0023   -0.0788 C   0  0  2  0  0  0  0  0  0  0  0  0
   -1.2319    1.1542    0.7729 C   0  0  0  0  0  0  0  0  0  0  0  0
   -2.7585    1.0051    0.8998 C   0  0  1  0  0  0  0  0  0  0  0  0
   -3.3921    1.0517   -0.4991 C   0  0  0  0  0  0  0  0  0  0  0  0
   -2.8386   -0.0918   -1.3629 C   0  0  2  0  0  0  0  0  0  0  0  0
   -3.1656   -1.4377   -0.6969 C   0  0  0  0  0  0  0  0  0  0  0  0
   -2.5313   -1.4993    0.7017 C   0  0  2  0  0  0  0  0  0  0  0  0
   -3.0815   -0.3468    1.5591 C   0  0  0  0  0  0  0  0  0  0  0  0
   -1.0045   -1.3532    0.5749 C   0  0  0  0  0  0  0  0  0  0  0  0
   -1.3132    0.0563   -1.4776 C   0  0  0  0  0  0  0  0  0  0  0  0
    3.1580    0.2394    0.3775 C   0  0  0  0  0  0  0  0  0  0  0  0
    4.1165   -0.3181    1.2403 C   0  0  0  0  0  0  0  0  0  0  0  0
    5.4739   -0.2709    0.9125 C   0  0  0  0  0  0  0  0  0  0  0  0
    5.8691    0.3415   -0.2713 C   0  0  0  0  0  0  0  0  0  0  0  0
    7.1705    0.3863   -0.5863 F   0  0  0  0  0  0  0  0  0  0  0  0
    4.9238    0.9087   -1.1192 C   0  0  0  0  0  0  0  0  0  0  0  0
    5.3113    1.5085   -2.2532 F   0  0  0  0  0  0  0  0  0  0  0  0
    3.5684    0.8677   -0.8044 C   0  0  0  0  0  0  0  0  0  0  0  0
    1.1645   -0.0473   -1.1881 H   0  0  0  0  0  0  0  0  0  0  0  0
   -0.9870    2.1232    0.3186 H   0  0  0  0  0  0  0  0  0  0  0  0
   -0.7944    1.1677    1.7776 H   0  0  0  0  0  0  0  0  0  0  0  0
   -3.1586    1.8202    1.5132 H   0  0  0  0  0  0  0  0  0  0  0  0
   -4.4830    0.9677   -0.4198 H   0  0  0  0  0  0  0  0  0  0  0  0
   -3.1809    2.0174   -0.9745 H   0  0  0  0  0  0  0  0  0  0  0  0
   -3.2904   -0.0536   -2.3604 H   0  0  0  0  0  0  0  0  0  0  0  0
   -2.7914   -2.2630   -1.3150 H   0  0  0  0  0  0  0  0  0  0  0  0
   -4.2526   -1.5641   -0.6214 H   0  0  0  0  0  0  0  0  0  0  0  0
   -2.7718   -2.4585    1.1738 H   0  0  0  0  0  0  0  0  0  0  0  0
   -4.1667   -0.4546    1.6778 H   0  0  0  0  0  0  0  0  0  0  0  0
   -2.6458   -0.3869    2.5650 H   0  0  0  0  0  0  0  0  0  0  0  0
   -0.5984   -2.1810   -0.0212 H   0  0  0  0  0  0  0  0  0  0  0  0
   -0.5524   -1.4417    1.5699 H   0  0  0  0  0  0  0  0  0  0  0  0
   -1.0687    1.0033   -1.9774 H   0  0  0  0  0  0  0  0  0  0  0  0
   -0.9138   -0.7402   -2.1198 H   0  0  0  0  0  0  0  0  0  0  0  0
    3.8030   -0.7905    2.1707 H   0  0  0  0  0  0  0  0  0  0  0  0
    6.2198   -0.7026    1.5730 H   0  0  0  0  0  0  0  0  0  0  0  0
    2.8642    1.3514   -1.4727 H   0  0  0  0  0  0  0  0  0  0  0  0
  1  2  2  0
  2  3  1  0
  4  3  1  6
  4  5  1  0
  5  6  1  0
  6  7  1  0
  7  8  1  0
  8  9  1  0
  9 10  1  0
 10 11  1  0
 10 12  1  0
  8 13  1  0
  2 14  1  0
 14 15  1  0
 15 16  2  0
 16 17  1  0
 17 18  1  0
 17 19  2  0
 19 20  1  0
 19 21  1  0
 12  4  1  0
 21 14  2  0
 13  4  1  0
 11  6  1  0
  3 22  1  0
  5 23  1  0
  5 24  1  0
  6 25  1  1
  7 26  1  0
  7 27  1  0
  8 28  1  6
  9 29  1  0
  9 30  1  0
 10 31  1  1
 11 32  1  0
 11 33  1  0
 12 34  1  0
 12 35  1  0
 13 36  1  0
 13 37  1  0
 15 38  1  0
 16 39  1  0
 21 40  1  0
M  END
>  <_SMILES>  (7) 
O=C(N[C@]12C[C@H]3C[C@H](C[C@H](C3)C1)C2)c1ccc(F)c(F)c1

$$$$

     RDKit          3D

 44 47  0  0  0  0  0  0  0  0999 V2000
    3.3850    2.3721    0.9510 C   0  0  0  0  0  0  0  0  0  0  0  0
    2.6942    1.1967    0.5414 O   0  0  0  0  0  0  0  0  0  0  0  0
    3.4372    0.0794    0.2481 C   0  0  0  0  0  0  0  0  0  0  0  0
    4.8387    0.0481    0.3344 C   0  0  0  0  0  0  0  0  0  0  0  0
    5.5532   -1.1125    0.0258 C   0  0  0  0  0  0  0  0  0  0  0  0
    4.8800   -2.2593   -0.3734 C   0  0  0  0  0  0  0  0  0  0  0  0
    3.4892   -2.2452   -0.4642 C   0  0  0  0  0  0  0  0  0  0  0  0
    2.7494   -1.0859   -0.1578 C   0  0  0  0  0  0  0  0  0  0  0  0
    1.2553   -1.2060   -0.2971 C   0  0  0  0  0  0  0  0  0  0  0  0
    0.7631   -2.2710   -0.6585 O   0  0  0  0  0  0  0  0  0  0  0  0
    0.4997   -0.0938   -0.0065 N   0  0  0  0  0  0  0  0  0  0  0  0
   -0.9596   -0.0053   -0.0791 C   0  0  2  0  0  0  0  0  0  0  0  0
   -1.6435   -0.9997    0.8917 C   0  0  0  0  0  0  0  0  0  0  0  0
   -3.1738   -0.8480    0.8325 C   0  0  1  0  0  0  0  0  0  0  0  0
   -3.5588    0.5832    1.2387 C   0  0  0  0  0  0  0  0  0  0  0  0
   -2.9102    1.5931    0.2793 C   0  0  2  0  0  0  0  0  0  0  0  0
   -3.3952    1.3190   -1.1528 C   0  0  0  0  0  0  0  0  0  0  0  0
   -3.0093   -0.1078   -1.5732 C   0  0  2  0  0  0  0  0  0  0  0  0
   -3.6538   -1.1141   -0.6045 C   0  0  0  0  0  0  0  0  0  0  0  0
   -1.4788   -0.2588   -1.5162 C   0  0  0  0  0  0  0  0  0  0  0  0
   -1.3830    1.4307    0.3338 C   0  0  0  0  0  0  0  0  0  0  0  0
    3.9303    2.2040    1.8853 H   0  0  0  0  0  0  0  0  0  0  0  0
    2.6366    3.1481    1.1388 H   0  0  0  0  0  0  0  0  0  0  0  0
    4.0485    2.7358    0.1597 H   0  0  0  0  0  0  0  0  0  0  0  0
    5.4145    0.9156    0.6410 H   0  0  0  0  0  0  0  0  0  0  0  0
    6.6383   -1.1182    0.0984 H   0  0  0  0  0  0  0  0  0  0  0  0
    5.4311   -3.1648   -0.6146 H   0  0  0  0  0  0  0  0  0  0  0  0
    2.9760   -3.1531   -0.7790 H   0  0  0  0  0  0  0  0  0  0  0  0
    1.0117    0.7332    0.2831 H   0  0  0  0  0  0  0  0  0  0  0  0
   -1.2904   -0.8291    1.9172 H   0  0  0  0  0  0  0  0  0  0  0  0
   -1.3783   -2.0344    0.6447 H   0  0  0  0  0  0  0  0  0  0  0  0
   -3.6420   -1.5643    1.5170 H   0  0  0  0  0  0  0  0  0  0  0  0
   -4.6497    0.6972    1.2217 H   0  0  0  0  0  0  0  0  0  0  0  0
   -3.2341    0.7811    2.2676 H   0  0  0  0  0  0  0  0  0  0  0  0
   -3.1849    2.6121    0.5740 H   0  0  0  0  0  0  0  0  0  0  0  0
   -2.9528    2.0464   -1.8445 H   0  0  0  0  0  0  0  0  0  0  0  0
   -4.4833    1.4456   -1.2107 H   0  0  0  0  0  0  0  0  0  0  0  0
   -3.3608   -0.2996   -2.5932 H   0  0  0  0  0  0  0  0  0  0  0  0
   -4.7466   -1.0332   -0.6544 H   0  0  0  0  0  0  0  0  0  0  0  0
   -3.3966   -2.1381   -0.9020 H   0  0  0  0  0  0  0  0  0  0  0  0
   -1.2070   -1.2637   -1.8601 H   0  0  0  0  0  0  0  0  0  0  0  0
   -1.0076    0.4430   -2.2169 H   0  0  0  0  0  0  0  0  0  0  0  0
   -1.0233    1.6532    1.3474 H   0  0  0  0  0  0  0  0  0  0  0  0
   -0.9087    2.1685   -0.3274 H   0  0  0  0  0  0  0  0  0  0  0  0
  1  2  1  0
  2  3  1  0
  3  4  2  0
  4  5  1  0
  5  6  2  0
  6  7  1  0
  7  8  2  0
  8  9  1  0
  9 10  2  0
  9 11  1  0
 12 11  1  6
 12 13  1  0
 13 14  1  0
 14 15  1  0
 15 16  1  0
 16 17  1  0
 17 18  1  0
 18 19  1  0
 18 20  1  0
 16 21  1  0
  8  3  1  0
 20 12  1  0
 21 12  1  0
 19 14  1  0
  1 22  1  0
  1 23  1  0
  1 24  1  0
  4 25  1  0
  5 26  1  0
  6 27  1  0
  7 28  1  0
 11 29  1  0
 13 30  1  0
 13 31  1  0
 14 32  1  1
 15 33  1  0
 15 34  1  0
 16 35  1  1
 17 36  1  0
 17 37  1  0
 18 38  1  6
 19 39  1  0
 19 40  1  0
 20 41  1  0
 20 42  1  0
 21 43  1  0
 21 44  1  0
M  END
>  <_SMILES>  (8) 
COc1ccccc1C(=O)N[C@]12C[C@H]3C[C@H](C[C@H](C3)C1)C2

$$$$

     RDKit          3D

 33 35  0  0  0  0  0  0  0  0999 V2000
    3.8717   -1.9389   -0.3928 C   0  0  0  0  0  0  0  0  0  0  0  0
    2.8620   -0.8467   -0.1563 C   0  0  0  0  0  0  0  0  0  0  0  0
    3.2051    0.3135    0.0382 O   0  0  0  0  0  0  0  0  0  0  0  0
    1.5565   -1.2823   -0.2072 N   0  0  0  0  0  0  0  0  0  0  0  0
    0.3793   -0.4194   -0.0580 C   0  0  2  0  0  0  0  0  0  0  0  0
    0.3559    0.2910    1.3190 C   0  0  0  0  0  0  0  0  0  0  0  0
   -0.9139    1.1483    1.4650 C   0  0  1  0  0  0  0  0  0  0  0  0
   -0.9483    2.1972    0.3403 C   0  0  0  0  0  0  0  0  0  0  0  0
   -0.9636    1.5022   -1.0319 C   0  0  2  0  0  0  0  0  0  0  0  0
   -2.2016    0.5968   -1.1276 C   0  0  0  0  0  0  0  0  0  0  0  0
   -2.1676   -0.4584   -0.0110 C   0  0  2  0  0  0  0  0  0  0  0  0
   -2.1524    0.2455    1.3546 C   0  0  0  0  0  0  0  0  0  0  0  0
   -0.8930   -1.3048   -0.1560 C   0  0  0  0  0  0  0  0  0  0  0  0
    0.3063    0.6454   -1.1803 C   0  0  0  0  0  0  0  0  0  0  0  0
    4.1823   -1.9197   -1.4405 H   0  0  0  0  0  0  0  0  0  0  0  0
    3.4593   -2.9237   -0.1558 H   0  0  0  0  0  0  0  0  0  0  0  0
    4.7394   -1.7713    0.2515 H   0  0  0  0  0  0  0  0  0  0  0  0
    1.3957   -2.2419   -0.4845 H   0  0  0  0  0  0  0  0  0  0  0  0
    0.4010   -0.4510    2.1270 H   0  0  0  0  0  0  0  0  0  0  0  0
    1.2343    0.9346    1.4448 H   0  0  0  0  0  0  0  0  0  0  0  0
   -0.9094    1.6508    2.4388 H   0  0  0  0  0  0  0  0  0  0  0  0
   -0.0755    2.8573    0.4165 H   0  0  0  0  0  0  0  0  0  0  0  0
   -1.8371    2.8312    0.4479 H   0  0  0  0  0  0  0  0  0  0  0  0
   -0.9950    2.2554   -1.8271 H   0  0  0  0  0  0  0  0  0  0  0  0
   -3.1143    1.1998   -1.0457 H   0  0  0  0  0  0  0  0  0  0  0  0
   -2.2318    0.1052   -2.1077 H   0  0  0  0  0  0  0  0  0  0  0  0
   -3.0505   -1.1032   -0.0847 H   0  0  0  0  0  0  0  0  0  0  0  0
   -3.0641    0.8427    1.4789 H   0  0  0  0  0  0  0  0  0  0  0  0
   -2.1470   -0.4987    2.1605 H   0  0  0  0  0  0  0  0  0  0  0  0
   -0.8731   -2.0807    0.6211 H   0  0  0  0  0  0  0  0  0  0  0  0
   -0.9102   -1.8354   -1.1175 H   0  0  0  0  0  0  0  0  0  0  0  0
    0.3150    0.1580   -2.1641 H   0  0  0  0  0  0  0  0  0  0  0  0
    1.1847    1.3011   -1.1556 H   0  0  0  0  0  0  0  0  0  0  0  0
  1  2  1  0
  2  3  2  0
  2  4  1  0
  5  4  1  6
  5  6  1  0
  6  7  1  0
  7  8  1  0
  8  9  1  0
  9 10  1  0
 10 11  1  0
 11 12  1  0
 11 13  1  0
  9 14  1  0
 13  5  1  0
 14  5  1  0
 12  7  1  0
  1 15  1  0
  1 16  1  0
  1 17  1  0
  4 18  1  0
  6 19  1  0
  6 20  1  0
  7 21  1  1
  8 22  1  0
  8 23  1  0
  9 24  1  6
 10 25  1  0
 10 26  1  0
 11 27  1  1
 12 28  1  0
 12 29  1  0
 13 30  1  0
 13 31  1  0
 14 32  1  0
 14 33  1  0
M  END
>  <_SMILES>  (9) 
CC(=O)N[C@]12C[C@H]3C[C@H](C[C@H](C3)C1)C2

$$$$

     RDKit          3D

 43 46  0  0  0  0  0  0  0  0999 V2000
    5.4107    1.1893    1.3011 C   0  0  0  0  0  0  0  0  0  0  0  0
    4.7054    0.2033    0.4168 C   0  0  0  0  0  0  0  0  0  0  0  0
    5.4368   -0.6197   -0.4491 C   0  0  0  0  0  0  0  0  0  0  0  0
    4.7905   -1.5751   -1.2350 C   0  0  0  0  0  0  0  0  0  0  0  0
    3.4053   -1.7180   -1.1617 C   0  0  0  0  0  0  0  0  0  0  0  0
    2.6601   -0.9004   -0.3051 C   0  0  0  0  0  0  0  0  0  0  0  0
    1.1833   -1.0878   -0.2520 C   0  0  0  0  0  0  0  0  0  0  0  0
    0.7042   -2.1902   -0.4860 O   0  0  0  0  0  0  0  0  0  0  0  0
    0.4451    0.0447    0.0295 N   0  0  0  0  0  0  0  0  0  0  0  0
   -1.0213    0.0968    0.0403 C   0  0  2  0  0  0  0  0  0  0  0  0
   -1.4542    1.5339    0.4404 C   0  0  0  0  0  0  0  0  0  0  0  0
   -2.9854    1.6632    0.4649 C   0  0  1  0  0  0  0  0  0  0  0  0
   -3.5410    1.3386   -0.9307 C   0  0  0  0  0  0  0  0  0  0  0  0
   -3.1471   -0.0915   -1.3331 C   0  0  2  0  0  0  0  0  0  0  0  0
   -3.7152   -1.0826   -0.3030 C   0  0  0  0  0  0  0  0  0  0  0  0
   -3.1639   -0.7652    1.0976 C   0  0  2  0  0  0  0  0  0  0  0  0
   -3.5585    0.6681    1.4854 C   0  0  0  0  0  0  0  0  0  0  0  0
   -1.6294   -0.8830    1.0760 C   0  0  0  0  0  0  0  0  0  0  0  0
   -1.6128   -0.2090   -1.3576 C   0  0  0  0  0  0  0  0  0  0  0  0
    3.3141    0.0464    0.4965 C   0  0  0  0  0  0  0  0  0  0  0  0
    4.7731    2.0560    1.5049 H   0  0  0  0  0  0  0  0  0  0  0  0
    5.6788    0.7155    2.2504 H   0  0  0  0  0  0  0  0  0  0  0  0
    6.3217    1.5624    0.8214 H   0  0  0  0  0  0  0  0  0  0  0  0
    6.5195   -0.5285   -0.5095 H   0  0  0  0  0  0  0  0  0  0  0  0
    5.3667   -2.2141   -1.8995 H   0  0  0  0  0  0  0  0  0  0  0  0
    2.9061   -2.4690   -1.7708 H   0  0  0  0  0  0  0  0  0  0  0  0
    0.9276    0.9303   -0.0451 H   0  0  0  0  0  0  0  0  0  0  0  0
   -1.0440    1.7904    1.4264 H   0  0  0  0  0  0  0  0  0  0  0  0
   -1.0348    2.2645   -0.2644 H   0  0  0  0  0  0  0  0  0  0  0  0
   -3.2662    2.6843    0.7463 H   0  0  0  0  0  0  0  0  0  0  0  0
   -4.6331    1.4410   -0.9324 H   0  0  0  0  0  0  0  0  0  0  0  0
   -3.1529    2.0551   -1.6651 H   0  0  0  0  0  0  0  0  0  0  0  0
   -3.5500   -0.3194   -2.3263 H   0  0  0  0  0  0  0  0  0  0  0  0
   -3.4516   -2.1092   -0.5858 H   0  0  0  0  0  0  0  0  0  0  0  0
   -4.8106   -1.0261   -0.2948 H   0  0  0  0  0  0  0  0  0  0  0  0
   -3.5775   -1.4715    1.8262 H   0  0  0  0  0  0  0  0  0  0  0  0
   -4.6510    0.7587    1.5249 H   0  0  0  0  0  0  0  0  0  0  0  0
   -3.1832    0.9019    2.4893 H   0  0  0  0  0  0  0  0  0  0  0  0
   -1.3589   -1.9196    0.8454 H   0  0  0  0  0  0  0  0  0  0  0  0
   -1.2241   -0.6751    2.0749 H   0  0  0  0  0  0  0  0  0  0  0  0
   -1.1973    0.4822   -2.1026 H   0  0  0  0  0  0  0  0  0  0  0  0
   -1.3358   -1.2174   -1.6872 H   0  0  0  0  0  0  0  0  0  0  0  0
    2.7510    0.6459    1.2073 H   0  0  0  0  0  0  0  0  0  0  0  0
  1  2  1  0
  2  3  2  0
  3  4  1  0
  4  5  2  0
  5  6  1  0
  6  7  1  0
  7  8  2  0
  7  9  1  0
 10  9  1  6
 10 11  1  0
 11 12  1  0
 12 13  1  0
 13 14  1  0
 14 15  1  0
 15 16  1  0
 16 17  1  0
 16 18  1  0
 14 19  1  0
  6 20  2  0
 20  2  1  0
 18 10  1  0
 19 10  1  0
 17 12  1  0
  1 21  1  0
  1 22  1  0
  1 23  1  0
  3 24  1  0
  4 25  1  0
  5 26  1  0
  9 27  1  0
 11 28  1  0
 11 29  1  0
 12 30  1  1
 13 31  1  0
 13 32  1  0
 14 33  1  6
 15 34  1  0
 15 35  1  0
 16 36  1  1
 17 37  1  0
 17 38  1  0
 18 39  1  0
 18 40  1  0
 19 41  1  0
 19 42  1  0
 20 43  1  0
M  END
>  <_SMILES>  (10) 
Cc1cccc(C(=O)N[C@]23C[C@H]4C[C@H](C[C@H](C4)C2)C3)c1

$$$$

     RDKit          3D

 40 43  0  0  0  0  0  0  0  0999 V2000
    1.2613   -0.4158    2.1537 O   0  0  0  0  0  0  0  0  0  0  0  0
    1.6554   -0.1757    1.0197 C   0  0  0  0  0  0  0  0  0  0  0  0
    0.8351    0.1088   -0.0535 N   0  0  0  0  0  0  0  0  0  0  0  0
   -0.6317    0.1187    0.0053 C   0  0  2  0  0  0  0  0  0  0  0  0
   -1.1645    1.1506    1.0319 C   0  0  0  0  0  0  0  0  0  0  0  0
   -2.7035    1.1714    1.0305 C   0  0  1  0  0  0  0  0  0  0  0  0
   -3.2056    1.5639   -0.3675 C   0  0  0  0  0  0  0  0  0  0  0  0
   -2.7088    0.5472   -1.4067 C   0  0  2  0  0  0  0  0  0  0  0  0
   -3.2376   -0.8499   -1.0458 C   0  0  0  0  0  0  0  0  0  0  0  0
   -2.7365   -1.2570    0.3490 C   0  0  2  0  0  0  0  0  0  0  0  0
   -3.2285   -0.2307    1.3838 C   0  0  0  0  0  0  0  0  0  0  0  0
   -1.1977   -1.2807    0.3500 C   0  0  0  0  0  0  0  0  0  0  0  0
   -1.1722    0.5234   -1.3935 C   0  0  0  0  0  0  0  0  0  0  0  0
    3.1154   -0.2225    0.7267 C   0  0  0  0  0  0  0  0  0  0  0  0
    3.9235   -1.0696    1.4969 C   0  0  0  0  0  0  0  0  0  0  0  0
    5.2978   -1.1420    1.2566 C   0  0  0  0  0  0  0  0  0  0  0  0
    5.8646   -0.3588    0.2525 C   0  0  0  0  0  0  0  0  0  0  0  0
    7.7241   -0.4534   -0.0734 Br  0  0  0  0  0  0  0  0  0  0  0  0
    5.0725    0.5009   -0.5088 C   0  0  0  0  0  0  0  0  0  0  0  0
    3.6968    0.5734   -0.2700 C   0  0  0  0  0  0  0  0  0  0  0  0
    1.2472    0.0421   -0.9743 H   0  0  0  0  0  0  0  0  0  0  0  0
   -0.8163    0.9167    2.0443 H   0  0  0  0  0  0  0  0  0  0  0  0
   -0.7765    2.1506    0.7974 H   0  0  0  0  0  0  0  0  0  0  0  0
   -3.0629    1.8973    1.7686 H   0  0  0  0  0  0  0  0  0  0  0  0
   -2.8495    2.5688   -0.6255 H   0  0  0  0  0  0  0  0  0  0  0  0
   -4.3018    1.6028   -0.3752 H   0  0  0  0  0  0  0  0  0  0  0  0
   -3.0662    0.8319   -2.4025 H   0  0  0  0  0  0  0  0  0  0  0  0
   -2.9044   -1.5815   -1.7921 H   0  0  0  0  0  0  0  0  0  0  0  0
   -4.3343   -0.8520   -1.0654 H   0  0  0  0  0  0  0  0  0  0  0  0
   -3.1206   -2.2512    0.6033 H   0  0  0  0  0  0  0  0  0  0  0  0
   -2.8880   -0.5168    2.3865 H   0  0  0  0  0  0  0  0  0  0  0  0
   -4.3251   -0.2232    1.4103 H   0  0  0  0  0  0  0  0  0  0  0  0
   -0.8451   -1.6137    1.3335 H   0  0  0  0  0  0  0  0  0  0  0  0
   -0.8352   -2.0230   -0.3732 H   0  0  0  0  0  0  0  0  0  0  0  0
   -0.8089   -0.1787   -2.1562 H   0  0  0  0  0  0  0  0  0  0  0  0
   -0.7831    1.5106   -1.6769 H   0  0  0  0  0  0  0  0  0  0  0  0
    3.4814   -1.6756    2.2860 H   0  0  0  0  0  0  0  0  0  0  0  0
    5.9124   -1.8059    1.8592 H   0  0  0  0  0  0  0  0  0  0  0  0
    5.5173    1.1243   -1.2805 H   0  0  0  0  0  0  0  0  0  0  0  0
    3.0997    1.2744   -0.8468 H   0  0  0  0  0  0  0  0  0  0  0  0
  1  2  2  0
  2  3  1  0
  4  3  1  6
  4  5  1  0
  5  6  1  0
  6  7  1  0
  7  8  1  0
  8  9  1  0
  9 10  1  0
 10 11  1  0
 10 12  1  0
  8 13  1  0
  2 14  1  0
 14 15  1  0
 15 16  2  0
 16 17  1  0
 17 18  1  0
 17 19  2  0
 19 20  1  0
 12  4  1  0
 20 14  2  0
 13  4  1  0
 11  6  1  0
  3 21  1  0
  5 22  1  0
  5 23  1  0
  6 24  1  1
  7 25  1  0
  7 26  1  0
  8 27  1  6
  9 28  1  0
  9 29  1  0
 10 30  1  1
 11 31  1  0
 11 32  1  0
 12 33  1  0
 12 34  1  0
 13 35  1  0
 13 36  1  0
 15 37  1  0
 16 38  1  0
 19 39  1  0
 20 40  1  0
M  END
>  <_SMILES>  (11) 
O=C(N[C@]12C[C@H]3C[C@H](C[C@H](C3)C1)C2)c1ccc(Br)cc1

$$$$

     RDKit          3D

 36 38  0  0  0  0  0  0  0  0999 V2000
    4.9933   -0.2377    0.4980 C   0  0  0  0  0  0  0  0  0  0  0  0
    3.8376   -0.1022   -0.4773 C   0  0  0  0  0  0  0  0  0  0  0  0
    2.4881   -0.1148    0.2169 C   0  0  0  0  0  0  0  0  0  0  0  0
    2.3565   -0.2229    1.4296 O   0  0  0  0  0  0  0  0  0  0  0  0
    1.4403    0.0086   -0.6730 N   0  0  0  0  0  0  0  0  0  0  0  0
    0.0213    0.0287   -0.3023 C   0  0  2  0  0  0  0  0  0  0  0  0
   -0.8219    0.1820   -1.5975 C   0  0  0  0  0  0  0  0  0  0  0  0
   -2.3250    0.2103   -1.2781 C   0  0  1  0  0  0  0  0  0  0  0  0
   -2.7159   -1.1001   -0.5772 C   0  0  0  0  0  0  0  0  0  0  0  0
   -1.9116   -1.2598    0.7225 C   0  0  2  0  0  0  0  0  0  0  0  0
   -2.2032   -0.0674    1.6495 C   0  0  0  0  0  0  0  0  0  0  0  0
   -1.8148    1.2498    0.9565 C   0  0  2  0  0  0  0  0  0  0  0  0
   -2.6196    1.3947   -0.3445 C   0  0  0  0  0  0  0  0  0  0  0  0
   -0.3120    1.2240    0.6252 C   0  0  0  0  0  0  0  0  0  0  0  0
   -0.4089   -1.2882    0.3910 C   0  0  0  0  0  0  0  0  0  0  0  0
    5.9476   -0.2246   -0.0375 H   0  0  0  0  0  0  0  0  0  0  0  0
    4.9276   -1.1768    1.0574 H   0  0  0  0  0  0  0  0  0  0  0  0
    4.9955    0.5842    1.2216 H   0  0  0  0  0  0  0  0  0  0  0  0
    3.9352    0.8388   -1.0302 H   0  0  0  0  0  0  0  0  0  0  0  0
    3.8669   -0.9295   -1.1951 H   0  0  0  0  0  0  0  0  0  0  0  0
    1.6691    0.0913   -1.6552 H   0  0  0  0  0  0  0  0  0  0  0  0
   -0.5388    1.1029   -2.1250 H   0  0  0  0  0  0  0  0  0  0  0  0
   -0.6063   -0.6444   -2.2879 H   0  0  0  0  0  0  0  0  0  0  0  0
   -2.8986    0.3188   -2.2054 H   0  0  0  0  0  0  0  0  0  0  0  0
   -2.5273   -1.9520   -1.2420 H   0  0  0  0  0  0  0  0  0  0  0  0
   -3.7902   -1.1008   -0.3557 H   0  0  0  0  0  0  0  0  0  0  0  0
   -2.1968   -2.1933    1.2204 H   0  0  0  0  0  0  0  0  0  0  0  0
   -3.2679   -0.0510    1.9132 H   0  0  0  0  0  0  0  0  0  0  0  0
   -1.6447   -0.1764    2.5873 H   0  0  0  0  0  0  0  0  0  0  0  0
   -2.0314    2.0943    1.6202 H   0  0  0  0  0  0  0  0  0  0  0  0
   -2.3618    2.3377   -0.8420 H   0  0  0  0  0  0  0  0  0  0  0  0
   -3.6923    1.4365   -0.1191 H   0  0  0  0  0  0  0  0  0  0  0  0
    0.2575    1.1660    1.5602 H   0  0  0  0  0  0  0  0  0  0  0  0
   -0.0189    2.1670    0.1454 H   0  0  0  0  0  0  0  0  0  0  0  0
    0.1567   -1.4475    1.3165 H   0  0  0  0  0  0  0  0  0  0  0  0
   -0.1852   -2.1460   -0.2567 H   0  0  0  0  0  0  0  0  0  0  0  0
  1  2  1  0
  2  3  1  0
  3  4  2  0
  3  5  1  0
  6  5  1  6
  6  7  1  0
  7  8  1  0
  8  9  1  0
  9 10  1  0
 10 11  1  0
 11 12  1  0
 12 13  1  0
 12 14  1  0
 10 15  1  0
 14  6  1  0
 15  6  1  0
 13  8  1  0
  1 16  1  0
  1 17  1  0
  1 18  1  0
  2 19  1  0
  2 20  1  0
  5 21  1  0
  7 22  1  0
  7 23  1  0
  8 24  1  6
  9 25  1  0
  9 26  1  0
 10 27  1  1
 11 28  1  0
 11 29  1  0
 12 30  1  1
 13 31  1  0
 13 32  1  0
 14 33  1  0
 14 34  1  0
 15 35  1  0
 15 36  1  0
M  END
>  <_SMILES>  (12) 
CCC(=O)N[C@]12C[C@H]3C[C@H](C[C@H](C3)C1)C2

$$$$

     RDKit          3D

 45 47  0  0  0  0  0  0  0  0999 V2000
    2.6005    2.0738   -0.0829 C   0  0  0  0  0  0  0  0  0  0  0  0
    2.1177    0.6546    0.0673 C   0  0  0  0  0  0  0  0  0  0  0  0
    0.7363    0.4105    0.1847 C   0  0  0  0  0  0  0  0  0  0  0  0
    0.2495   -0.8946    0.3319 C   0  0  0  0  0  0  0  0  0  0  0  0
   -1.2044   -1.1872    0.4581 C   0  0  0  0  0  0  0  0  0  0  0  0
   -1.5815   -2.1470    1.1204 O   0  0  0  0  0  0  0  0  0  0  0  0
   -2.0597   -0.3470   -0.2252 N   0  0  0  0  0  0  0  0  0  0  0  0
   -3.5064   -0.4793   -0.1260 C   0  0  0  0  0  0  0  0  0  0  0  0
   -4.1807    0.0991   -1.3753 C   0  0  0  0  0  0  0  0  0  0  0  0
   -5.7023    0.0320   -1.2775 C   0  0  0  0  0  0  0  0  0  0  0  0
   -6.2138    0.7111   -0.0107 C   0  0  0  0  0  0  0  0  0  0  0  0
   -5.5471    0.1442    1.2390 C   0  0  0  0  0  0  0  0  0  0  0  0
   -4.0248    0.2076    1.1446 C   0  0  0  0  0  0  0  0  0  0  0  0
    1.1469   -1.9624    0.3935 C   0  0  0  0  0  0  0  0  0  0  0  0
    2.5190   -1.7302    0.2810 C   0  0  0  0  0  0  0  0  0  0  0  0
    3.0244   -0.4285    0.1151 C   0  0  0  0  0  0  0  0  0  0  0  0
    4.4771   -0.2395    0.0084 C   0  0  0  0  0  0  0  0  0  0  0  0
    5.2484    0.0442    1.1456 C   0  0  0  0  0  0  0  0  0  0  0  0
    6.6300    0.2208    1.0443 C   0  0  0  0  0  0  0  0  0  0  0  0
    7.2576    0.1131   -0.1951 C   0  0  0  0  0  0  0  0  0  0  0  0
    6.5058   -0.1723   -1.3332 C   0  0  0  0  0  0  0  0  0  0  0  0
    5.1241   -0.3489   -1.2318 C   0  0  0  0  0  0  0  0  0  0  0  0
    3.1755    2.3752    0.7983 H   0  0  0  0  0  0  0  0  0  0  0  0
    1.7632    2.7722   -0.1870 H   0  0  0  0  0  0  0  0  0  0  0  0
    3.2195    2.1775   -0.9797 H   0  0  0  0  0  0  0  0  0  0  0  0
    0.0491    1.2523    0.1906 H   0  0  0  0  0  0  0  0  0  0  0  0
   -1.6840    0.4037   -0.7869 H   0  0  0  0  0  0  0  0  0  0  0  0
   -3.7415   -1.5499   -0.0643 H   0  0  0  0  0  0  0  0  0  0  0  0
   -3.8724    1.1433   -1.5176 H   0  0  0  0  0  0  0  0  0  0  0  0
   -3.8463   -0.4462   -2.2663 H   0  0  0  0  0  0  0  0  0  0  0  0
   -6.1496    0.5082   -2.1572 H   0  0  0  0  0  0  0  0  0  0  0  0
   -6.0224   -1.0172   -1.2844 H   0  0  0  0  0  0  0  0  0  0  0  0
   -7.3001    0.5864    0.0619 H   0  0  0  0  0  0  0  0  0  0  0  0
   -6.0190    1.7890   -0.0707 H   0  0  0  0  0  0  0  0  0  0  0  0
   -5.8601   -0.8979    1.3787 H   0  0  0  0  0  0  0  0  0  0  0  0
   -5.8849    0.6998    2.1210 H   0  0  0  0  0  0  0  0  0  0  0  0
   -3.5864   -0.2598    2.0345 H   0  0  0  0  0  0  0  0  0  0  0  0
   -3.7027    1.2572    1.1569 H   0  0  0  0  0  0  0  0  0  0  0  0
    0.7809   -2.9783    0.5283 H   0  0  0  0  0  0  0  0  0  0  0  0
    3.2029   -2.5763    0.3299 H   0  0  0  0  0  0  0  0  0  0  0  0
    4.7706    0.1281    2.1196 H   0  0  0  0  0  0  0  0  0  0  0  0
    7.2152    0.4403    1.9335 H   0  0  0  0  0  0  0  0  0  0  0  0
    8.3331    0.2493   -0.2737 H   0  0  0  0  0  0  0  0  0  0  0  0
    6.9941   -0.2590   -2.3003 H   0  0  0  0  0  0  0  0  0  0  0  0
    4.5487   -0.5722   -2.1277 H   0  0  0  0  0  0  0  0  0  0  0  0
  1  2  1  0
  2  3  1  0
  3  4  2  0
  4  5  1  0
  5  6  2  0
  5  7  1  0
  7  8  1  0
  8  9  1  0
  9 10  1  0
 10 11  1  0
 11 12  1  0
 12 13  1  0
  4 14  1  0
 14 15  2  0
 15 16  1  0
 16 17  1  0
 17 18  2  0
 18 19  1  0
 19 20  2  0
 20 21  1  0
 21 22  2  0
 16  2  2  0
 22 17  1  0
 13  8  1  0
  1 23  1  0
  1 24  1  0
  1 25  1  0
  3 26  1  0
  7 27  1  0
  8 28  1  0
  9 29  1  0
  9 30  1  0
 10 31  1  0
 10 32  1  0
 11 33  1  0
 11 34  1  0
 12 35  1  0
 12 36  1  0
 13 37  1  0
 13 38  1  0
 14 39  1  0
 15 40  1  0
 18 41  1  0
 19 42  1  0
 20 43  1  0
 21 44  1  0
 22 45  1  0
M  END
>  <_SMILES>  (13) 
Cc1cc(C(=O)NC2CCCCC2)ccc1-c1ccccc1

$$$$

     RDKit          3D

 43 46  0  0  0  0  0  0  0  0999 V2000
    0.7790   -1.0415    1.6648 O   0  0  0  0  0  0  0  0  0  0  0  0
    1.1269   -0.5541    0.5969 C   0  0  0  0  0  0  0  0  0  0  0  0
    0.2672   -0.0058   -0.3337 N   0  0  0  0  0  0  0  0  0  0  0  0
   -1.1849    0.1105   -0.1519 C   0  0  2  0  0  0  0  0  0  0  0  0
   -1.5379    1.0303    1.0427 C   0  0  0  0  0  0  0  0  0  0  0  0
   -3.0636    1.1816    1.1764 C   0  0  1  0  0  0  0  0  0  0  0  0
   -3.6274    1.8035   -0.1111 C   0  0  0  0  0  0  0  0  0  0  0  0
   -3.3110    0.8998   -1.3131 C   0  0  2  0  0  0  0  0  0  0  0  0
   -3.9448   -0.4821   -1.0921 C   0  0  0  0  0  0  0  0  0  0  0  0
   -3.3822   -1.1175    0.1886 C   0  0  2  0  0  0  0  0  0  0  0  0
   -3.6941   -0.2055    1.3875 C   0  0  0  0  0  0  0  0  0  0  0  0
   -1.8567   -1.2712    0.0533 C   0  0  0  0  0  0  0  0  0  0  0  0
   -1.7874    0.7412   -1.4372 C   0  0  0  0  0  0  0  0  0  0  0  0
    2.5762   -0.4938    0.2571 C   0  0  0  0  0  0  0  0  0  0  0  0
    3.0291   -0.5409   -1.0669 C   0  0  0  0  0  0  0  0  0  0  0  0
    4.3999   -0.4872   -1.3401 C   0  0  0  0  0  0  0  0  0  0  0  0
    5.3350   -0.3874   -0.2969 C   0  0  0  0  0  0  0  0  0  0  0  0
    6.8154   -0.3538   -0.5953 C   0  0  0  0  0  0  0  0  0  0  0  0
    7.3549   -1.6002   -0.6803 F   0  0  0  0  0  0  0  0  0  0  0  0
    7.1040    0.2610   -1.7766 F   0  0  0  0  0  0  0  0  0  0  0  0
    7.5382    0.3060    0.3519 F   0  0  0  0  0  0  0  0  0  0  0  0
    4.8730   -0.3660    1.0280 C   0  0  0  0  0  0  0  0  0  0  0  0
    3.5038   -0.4207    1.3027 C   0  0  0  0  0  0  0  0  0  0  0  0
    0.6789    0.5809   -1.0467 H   0  0  0  0  0  0  0  0  0  0  0  0
   -1.1344    0.6272    1.9791 H   0  0  0  0  0  0  0  0  0  0  0  0
   -1.0752    2.0169    0.9088 H   0  0  0  0  0  0  0  0  0  0  0  0
   -3.2964    1.8272    2.0306 H   0  0  0  0  0  0  0  0  0  0  0  0
   -3.1954    2.7997   -0.2666 H   0  0  0  0  0  0  0  0  0  0  0  0
   -4.7122    1.9379   -0.0186 H   0  0  0  0  0  0  0  0  0  0  0  0
   -3.7123    1.3484   -2.2287 H   0  0  0  0  0  0  0  0  0  0  0  0
   -3.7412   -1.1305   -1.9532 H   0  0  0  0  0  0  0  0  0  0  0  0
   -5.0350   -0.3869   -1.0160 H   0  0  0  0  0  0  0  0  0  0  0  0
   -3.8394   -2.1011    0.3438 H   0  0  0  0  0  0  0  0  0  0  0  0
   -4.7799   -0.1077    1.5098 H   0  0  0  0  0  0  0  0  0  0  0  0
   -3.3092   -0.6555    2.3109 H   0  0  0  0  0  0  0  0  0  0  0  0
   -1.4718   -1.7683    0.9510 H   0  0  0  0  0  0  0  0  0  0  0  0
   -1.6207   -1.9341   -0.7894 H   0  0  0  0  0  0  0  0  0  0  0  0
   -1.5487    0.1188   -2.3101 H   0  0  0  0  0  0  0  0  0  0  0  0
   -1.3300    1.7216   -1.6267 H   0  0  0  0  0  0  0  0  0  0  0  0
    2.3321   -0.6511   -1.8935 H   0  0  0  0  0  0  0  0  0  0  0  0
    4.7396   -0.5327   -2.3746 H   0  0  0  0  0  0  0  0  0  0  0  0
    5.5789   -0.3095    1.8560 H   0  0  0  0  0  0  0  0  0  0  0  0
    3.1598   -0.4072    2.3359 H   0  0  0  0  0  0  0  0  0  0  0  0
  1  2  2  0
  2  3  1  0
  4  3  1  6
  4  5  1  0
  5  6  1  0
  6  7  1  0
  7  8  1  0
  8  9  1  0
  9 10  1  0
 10 11  1  0
 10 12  1  0
  8 13  1  0
  2 14  1  0
 14 15  1  0
 15 16  2  0
 16 17  1  0
 17 18  1  0
 18 19  1  0
 18 20  1  0
 18 21  1  0
 17 22  2  0
 22 23  1  0
 12  4  1  0
 23 14  2  0
 13  4  1  0
 11  6  1  0
  3 24  1  0
  5 25  1  0
  5 26  1  0
  6 27  1  1
  7 28  1  0
  7 29  1  0
  8 30  1  6
  9 31  1  0
  9 32  1  0
 10 33  1  1
 11 34  1  0
 11 35  1  0
 12 36  1  0
 12 37  1  0
 13 38  1  0
 13 39  1  0
 15 40  1  0
 16 41  1  0
 22 42  1  0
 23 43  1  0
M  END
>  <_SMILES>  (14) 
O=C(N[C@]12C[C@H]3C[C@H](C[C@H](C3)C1)C2)c1ccc(C(F)(F)F)cc1

$$$$

     RDKit          3D

 42 44  0  0  0  0  0  0  0  0999 V2000
   -1.3861   -0.7843    2.1809 O   0  0  0  0  0  0  0  0  0  0  0  0
   -1.0099   -0.5673    1.0350 C   0  0  0  0  0  0  0  0  0  0  0  0
   -1.8686   -0.3934   -0.0332 N   0  0  0  0  0  0  0  0  0  0  0  0
   -3.3127   -0.3612    0.1561 C   0  0  0  0  0  0  0  0  0  0  0  0
   -3.7674    1.0205    0.6460 C   0  0  0  0  0  0  0  0  0  0  0  0
   -5.2859    1.0993    0.7806 C   0  0  0  0  0  0  0  0  0  0  0  0
   -5.9881    0.7103   -0.5168 C   0  0  0  0  0  0  0  0  0  0  0  0
   -5.5404   -0.6629   -1.0080 C   0  0  0  0  0  0  0  0  0  0  0  0
   -4.0227   -0.7422   -1.1478 C   0  0  0  0  0  0  0  0  0  0  0  0
    0.4435   -0.4372    0.7376 C   0  0  0  0  0  0  0  0  0  0  0  0
    1.2986   -0.0187    1.7616 C   0  0  0  0  0  0  0  0  0  0  0  0
    2.6704    0.1156    1.5234 C   0  0  0  0  0  0  0  0  0  0  0  0
    3.2183   -0.1731    0.2628 C   0  0  0  0  0  0  0  0  0  0  0  0
    4.6627   -0.0348    0.0140 C   0  0  0  0  0  0  0  0  0  0  0  0
    5.6037   -0.6771    0.8361 C   0  0  0  0  0  0  0  0  0  0  0  0
    6.9750   -0.5474    0.6001 C   0  0  0  0  0  0  0  0  0  0  0  0
    7.4292    0.2290   -0.4628 C   0  0  0  0  0  0  0  0  0  0  0  0
    6.5137    0.8749   -1.2897 C   0  0  0  0  0  0  0  0  0  0  0  0
    5.1426    0.7432   -1.0531 C   0  0  0  0  0  0  0  0  0  0  0  0
    2.3483   -0.6083   -0.7515 C   0  0  0  0  0  0  0  0  0  0  0  0
    0.9745   -0.7446   -0.5194 C   0  0  0  0  0  0  0  0  0  0  0  0
   -1.5010    0.0383   -0.8702 H   0  0  0  0  0  0  0  0  0  0  0  0
   -3.5662   -1.1042    0.9236 H   0  0  0  0  0  0  0  0  0  0  0  0
   -3.3052    1.2522    1.6131 H   0  0  0  0  0  0  0  0  0  0  0  0
   -3.4235    1.7939   -0.0534 H   0  0  0  0  0  0  0  0  0  0  0  0
   -5.6149    0.4330    1.5876 H   0  0  0  0  0  0  0  0  0  0  0  0
   -5.5781    2.1159    1.0671 H   0  0  0  0  0  0  0  0  0  0  0  0
   -7.0732    0.7117   -0.3637 H   0  0  0  0  0  0  0  0  0  0  0  0
   -5.7729    1.4612   -1.2870 H   0  0  0  0  0  0  0  0  0  0  0  0
   -5.8826   -1.4320   -0.3046 H   0  0  0  0  0  0  0  0  0  0  0  0
   -6.0113   -0.8806   -1.9732 H   0  0  0  0  0  0  0  0  0  0  0  0
   -3.7347   -1.7575   -1.4468 H   0  0  0  0  0  0  0  0  0  0  0  0
   -3.6980   -0.0770   -1.9589 H   0  0  0  0  0  0  0  0  0  0  0  0
    0.8993    0.2083    2.7483 H   0  0  0  0  0  0  0  0  0  0  0  0
    3.3118    0.4573    2.3339 H   0  0  0  0  0  0  0  0  0  0  0  0
    5.2709   -1.2978    1.6659 H   0  0  0  0  0  0  0  0  0  0  0  0
    7.6864   -1.0552    1.2462 H   0  0  0  0  0  0  0  0  0  0  0  0
    8.4956    0.3308   -0.6462 H   0  0  0  0  0  0  0  0  0  0  0  0
    6.8651    1.4845   -2.1180 H   0  0  0  0  0  0  0  0  0  0  0  0
    4.4458    1.2663   -1.7047 H   0  0  0  0  0  0  0  0  0  0  0  0
    2.7445   -0.8680   -1.7319 H   0  0  0  0  0  0  0  0  0  0  0  0
    0.3435   -1.1212   -1.3192 H   0  0  0  0  0  0  0  0  0  0  0  0
  1  2  2  0
  2  3  1  0
  3  4  1  0
  4  5  1  0
  5  6  1  0
  6  7  1  0
  7  8  1  0
  8  9  1  0
  2 10  1  0
 10 11  1  0
 11 12  2  0
 12 13  1  0
 13 14  1  0
 14 15  2  0
 15 16  1  0
 16 17  2  0
 17 18  1  0
 18 19  2  0
 13 20  2  0
 20 21  1  0
  9  4  1  0
 21 10  2  0
 19 14  1  0
  3 22  1  0
  4 23  1  0
  5 24  1  0
  5 25  1  0
  6 26  1  0
  6 27  1  0
  7 28  1  0
  7 29  1  0
  8 30  1  0
  8 31  1  0
  9 32  1  0
  9 33  1  0
 11 34  1  0
 12 35  1  0
 15 36  1  0
 16 37  1  0
 17 38  1  0
 18 39  1  0
 19 40  1  0
 20 41  1  0
 21 42  1  0
M  END
>  <_SMILES>  (15) 
O=C(NC1CCCCC1)c1ccc(-c2ccccc2)cc1

$$$$

     RDKit          3D

 50 54  0  0  0  0  0  0  0  0999 V2000
   -0.7239    0.7907   -1.8967 O   0  0  0  0  0  0  0  0  0  0  0  0
   -0.2403    0.2906   -0.8890 C   0  0  0  0  0  0  0  0  0  0  0  0
   -0.9741   -0.2395    0.1535 N   0  0  0  0  0  0  0  0  0  0  0  0
   -2.4402   -0.2354    0.2209 C   0  0  2  0  0  0  0  0  0  0  0  0
   -3.0046    1.2058    0.2653 C   0  0  0  0  0  0  0  0  0  0  0  0
   -4.5381    1.1824    0.3938 C   0  0  1  0  0  0  0  0  0  0  0  0
   -5.1360    0.4294   -0.8069 C   0  0  0  0  0  0  0  0  0  0  0  0
   -4.6118   -1.0165   -0.8401 C   0  0  2  0  0  0  0  0  0  0  0  0
   -5.0025   -1.7279    0.4644 C   0  0  0  0  0  0  0  0  0  0  0  0
   -4.3996   -0.9853    1.6666 C   0  0  2  0  0  0  0  0  0  0  0  0
   -4.9283    0.4575    1.6916 C   0  0  0  0  0  0  0  0  0  0  0  0
   -2.8693   -0.9590    1.5267 C   0  0  0  0  0  0  0  0  0  0  0  0
   -3.0783   -0.9958   -0.9696 C   0  0  0  0  0  0  0  0  0  0  0  0
    1.2393    0.2684   -0.7176 C   0  0  0  0  0  0  0  0  0  0  0  0
    1.8856   -0.7357    0.0109 C   0  0  0  0  0  0  0  0  0  0  0  0
    3.2790   -0.7175    0.1437 C   0  0  0  0  0  0  0  0  0  0  0  0
    4.0537    0.2925   -0.4521 C   0  0  0  0  0  0  0  0  0  0  0  0
    5.5192    0.3049   -0.3119 C   0  0  0  0  0  0  0  0  0  0  0  0
    6.3539    0.3576   -1.4408 C   0  0  0  0  0  0  0  0  0  0  0  0
    7.7452    0.3682   -1.3090 C   0  0  0  0  0  0  0  0  0  0  0  0
    8.3259    0.3274   -0.0441 C   0  0  0  0  0  0  0  0  0  0  0  0
    7.5172    0.2755    1.0882 C   0  0  0  0  0  0  0  0  0  0  0  0
    6.1260    0.2638    0.9546 C   0  0  0  0  0  0  0  0  0  0  0  0
    3.3895    1.2831   -1.1939 C   0  0  0  0  0  0  0  0  0  0  0  0
    1.9976    1.2704   -1.3305 C   0  0  0  0  0  0  0  0  0  0  0  0
   -0.4837   -0.3911    1.0246 H   0  0  0  0  0  0  0  0  0  0  0  0
   -2.5676    1.7564    1.1087 H   0  0  0  0  0  0  0  0  0  0  0  0
   -2.7292    1.7616   -0.6389 H   0  0  0  0  0  0  0  0  0  0  0  0
   -4.9218    2.2085    0.4147 H   0  0  0  0  0  0  0  0  0  0  0  0
   -6.2309    0.4283   -0.7395 H   0  0  0  0  0  0  0  0  0  0  0  0
   -4.8752    0.9442   -1.7398 H   0  0  0  0  0  0  0  0  0  0  0  0
   -5.0466   -1.5476   -1.6943 H   0  0  0  0  0  0  0  0  0  0  0  0
   -6.0948   -1.7676    0.5574 H   0  0  0  0  0  0  0  0  0  0  0  0
   -4.6465   -2.7653    0.4470 H   0  0  0  0  0  0  0  0  0  0  0  0
   -4.6778   -1.4971    2.5946 H   0  0  0  0  0  0  0  0  0  0  0  0
   -4.5188    0.9922    2.5574 H   0  0  0  0  0  0  0  0  0  0  0  0
   -6.0193    0.4549    1.8059 H   0  0  0  0  0  0  0  0  0  0  0  0
   -2.4291   -0.4568    2.3987 H   0  0  0  0  0  0  0  0  0  0  0  0
   -2.4780   -1.9851    1.5352 H   0  0  0  0  0  0  0  0  0  0  0  0
   -2.8117   -0.5294   -1.9248 H   0  0  0  0  0  0  0  0  0  0  0  0
   -2.6924   -2.0228   -1.0114 H   0  0  0  0  0  0  0  0  0  0  0  0
    1.3277   -1.5560    0.4534 H   0  0  0  0  0  0  0  0  0  0  0  0
    3.7649   -1.5168    0.7010 H   0  0  0  0  0  0  0  0  0  0  0  0
    5.9217    0.3789   -2.4395 H   0  0  0  0  0  0  0  0  0  0  0  0
    8.3731    0.4060   -2.1953 H   0  0  0  0  0  0  0  0  0  0  0  0
    9.4078    0.3365    0.0589 H   0  0  0  0  0  0  0  0  0  0  0  0
    7.9674    0.2472    2.0771 H   0  0  0  0  0  0  0  0  0  0  0  0
    5.5135    0.2350    1.8534 H   0  0  0  0  0  0  0  0  0  0  0  0
    3.9552    2.0829   -1.6689 H   0  0  0  0  0  0  0  0  0  0  0  0
    1.5067    2.0472   -1.9137 H   0  0  0  0  0  0  0  0  0  0  0  0
  1  2  2  0
  2  3  1  0
  4  3  1  6
  4  5  1  0
  5  6  1  0
  6  7  1  0
  7  8  1  0
  8  9  1  0
  9 10  1  0
 10 11  1  0
 10 12  1  0
  8 13  1  0
  2 14  1  0
 14 15  1  0
 15 16  2  0
 16 17  1  0
 17 18  1  0
 18 19  2  0
 19 20  1  0
 20 21  2  0
 21 22  1  0
 22 23  2  0
 17 24  2  0
 24 25  1  0
 12  4  1  0
 25 14  2  0
 13  4  1  0
 23 18  1  0
 11  6  1  0
  3 26  1  0
  5 27  1  0
  5 28  1  0
  6 29  1  1
  7 30  1  0
  7 31  1  0
  8 32  1  6
  9 33  1  0
  9 34  1  0
 10 35  1  1
 11 36  1  0
 11 37  1  0
 12 38  1  0
 12 39  1  0
 13 40  1  0
 13 41  1  0
 15 42  1  0
 16 43  1  0
 19 44  1  0
 20 45  1  0
 21 46  1  0
 22 47  1  0
 23 48  1  0
 24 49  1  0
 25 50  1  0
M  END
>  <_SMILES>  (16) 
O=C(N[C@]12C[C@H]3C[C@H](C[C@H](C3)C1)C2)c1ccc(-c2ccccc2)cc1

$$$$

     RDKit          3D

 50 54  0  0  0  0  0  0  0  0999 V2000
   -0.5651    1.8076   -1.1255 O   0  0  0  0  0  0  0  0  0  0  0  0
   -0.1727    0.7751   -0.5970 C   0  0  0  0  0  0  0  0  0  0  0  0
   -0.9970   -0.2099   -0.0908 N   0  0  0  0  0  0  0  0  0  0  0  0
   -2.4628   -0.1354   -0.0736 C   0  0  2  0  0  0  0  0  0  0  0  0
   -3.0538    0.0019   -1.4999 C   0  0  0  0  0  0  0  0  0  0  0  0
   -4.5920    0.0249   -1.4494 C   0  0  1  0  0  0  0  0  0  0  0  0
   -5.1002   -1.2861   -0.8301 C   0  0  0  0  0  0  0  0  0  0  0  0
   -4.5458   -1.4419    0.5941 C   0  0  2  0  0  0  0  0  0  0  0  0
   -5.0096   -0.2556    1.4540 C   0  0  0  0  0  0  0  0  0  0  0  0
   -4.5016    1.0624    0.8481 C   0  0  2  0  0  0  0  0  0  0  0  0
   -5.0516    1.2086   -0.5810 C   0  0  0  0  0  0  0  0  0  0  0  0
   -2.9635    1.0410    0.8000 C   0  0  0  0  0  0  0  0  0  0  0  0
   -3.0100   -1.4540    0.5384 C   0  0  0  0  0  0  0  0  0  0  0  0
    1.2899    0.5447   -0.4335 C   0  0  0  0  0  0  0  0  0  0  0  0
    1.8411   -0.7408   -0.4233 C   0  0  0  0  0  0  0  0  0  0  0  0
    3.2225   -0.9091   -0.2707 C   0  0  0  0  0  0  0  0  0  0  0  0
    4.0796    0.1964   -0.1350 C   0  0  0  0  0  0  0  0  0  0  0  0
    5.5321    0.0140    0.0213 C   0  0  0  0  0  0  0  0  0  0  0  0
    6.4386    0.6586   -0.8406 C   0  0  0  0  0  0  0  0  0  0  0  0
    7.8173    0.4851   -0.6938 C   0  0  0  0  0  0  0  0  0  0  0  0
    8.3000   -0.3343    0.3176 C   0  0  0  0  0  0  0  0  0  0  0  0
    9.6213   -0.5009    0.4592 F   0  0  0  0  0  0  0  0  0  0  0  0
    7.4312   -0.9836    1.1844 C   0  0  0  0  0  0  0  0  0  0  0  0
    6.0526   -0.8102    1.0360 C   0  0  0  0  0  0  0  0  0  0  0  0
    3.5109    1.4804   -0.1638 C   0  0  0  0  0  0  0  0  0  0  0  0
    2.1315    1.6548   -0.3161 C   0  0  0  0  0  0  0  0  0  0  0  0
   -0.5733   -0.8823    0.5341 H   0  0  0  0  0  0  0  0  0  0  0  0
   -2.7127   -0.8292   -2.1310 H   0  0  0  0  0  0  0  0  0  0  0  0
   -2.7036    0.9194   -1.9861 H   0  0  0  0  0  0  0  0  0  0  0  0
   -4.9925    0.1333   -2.4635 H   0  0  0  0  0  0  0  0  0  0  0  0
   -4.7909   -2.1376   -1.4486 H   0  0  0  0  0  0  0  0  0  0  0  0
   -6.1969   -1.2902   -0.8083 H   0  0  0  0  0  0  0  0  0  0  0  0
   -4.9078   -2.3791    1.0313 H   0  0  0  0  0  0  0  0  0  0  0  0
   -4.6349   -0.3660    2.4790 H   0  0  0  0  0  0  0  0  0  0  0  0
   -6.1047   -0.2425    1.5150 H   0  0  0  0  0  0  0  0  0  0  0  0
   -4.8393    1.9049    1.4620 H   0  0  0  0  0  0  0  0  0  0  0  0
   -6.1475    1.2508   -0.5570 H   0  0  0  0  0  0  0  0  0  0  0  0
   -4.7064    2.1524   -1.0207 H   0  0  0  0  0  0  0  0  0  0  0  0
   -2.5593    0.9544    1.8171 H   0  0  0  0  0  0  0  0  0  0  0  0
   -2.6038    1.9997    0.4080 H   0  0  0  0  0  0  0  0  0  0  0  0
   -2.6066   -1.5966    1.5500 H   0  0  0  0  0  0  0  0  0  0  0  0
   -2.6666   -2.3144   -0.0516 H   0  0  0  0  0  0  0  0  0  0  0  0
    1.2184   -1.6196   -0.5655 H   0  0  0  0  0  0  0  0  0  0  0  0
    3.6328   -1.9176   -0.2819 H   0  0  0  0  0  0  0  0  0  0  0  0
    6.0719    1.2948   -1.6442 H   0  0  0  0  0  0  0  0  0  0  0  0
    8.5129    0.9815   -1.3626 H   0  0  0  0  0  0  0  0  0  0  0  0
    7.8294   -1.6169    1.9705 H   0  0  0  0  0  0  0  0  0  0  0  0
    5.3824   -1.3151    1.7290 H   0  0  0  0  0  0  0  0  0  0  0  0
    4.1410    2.3621   -0.0601 H   0  0  0  0  0  0  0  0  0  0  0  0
    1.7153    2.6604   -0.3395 H   0  0  0  0  0  0  0  0  0  0  0  0
  1  2  2  0
  2  3  1  0
  4  3  1  6
  4  5  1  0
  5  6  1  0
  6  7  1  0
  7  8  1  0
  8  9  1  0
  9 10  1  0
 10 11  1  0
 10 12  1  0
  8 13  1  0
  2 14  1  0
 14 15  1  0
 15 16  2  0
 16 17  1  0
 17 18  1  0
 18 19  1  0
 19 20  2  0
 20 21  1  0
 21 22  1  0
 21 23  2  0
 23 24  1  0
 17 25  2  0
 25 26  1  0
 12  4  1  0
 26 14  2  0
 13  4  1  0
 24 18  2  0
 11  6  1  0
  3 27  1  0
  5 28  1  0
  5 29  1  0
  6 30  1  6
  7 31  1  0
  7 32  1  0
  8 33  1  1
  9 34  1  0
  9 35  1  0
 10 36  1  1
 11 37  1  0
 11 38  1  0
 12 39  1  0
 12 40  1  0
 13 41  1  0
 13 42  1  0
 15 43  1  0
 16 44  1  0
 19 45  1  0
 20 46  1  0
 23 47  1  0
 24 48  1  0
 25 49  1  0
 26 50  1  0
M  END
>  <_SMILES>  (17) 
O=C(N[C@]12C[C@H]3C[C@H](C[C@H](C3)C1)C2)c1ccc(-c2ccc(F)cc2)cc1

$$$$

     RDKit          3D

 50 54  0  0  0  0  0  0  0  0999 V2000
   -0.5440   -0.9579    1.7437 O   0  0  0  0  0  0  0  0  0  0  0  0
   -0.1735   -0.5009    0.6698 C   0  0  0  0  0  0  0  0  0  0  0  0
   -1.0146    0.0156   -0.2955 N   0  0  0  0  0  0  0  0  0  0  0  0
   -2.4705    0.1317   -0.1495 C   0  0  2  0  0  0  0  0  0  0  0  0
   -2.8529    1.0856    1.0087 C   0  0  0  0  0  0  0  0  0  0  0  0
   -4.3817    1.2350    1.1039 C   0  0  1  0  0  0  0  0  0  0  0  0
   -4.9186    1.8159   -0.2139 C   0  0  0  0  0  0  0  0  0  0  0  0
   -4.5726    0.8776   -1.3809 C   0  0  2  0  0  0  0  0  0  0  0  0
   -5.2069   -0.4994   -1.1325 C   0  0  0  0  0  0  0  0  0  0  0  0
   -4.6709   -1.0939    0.1790 C   0  0  2  0  0  0  0  0  0  0  0  0
   -5.0123   -0.1475    1.3427 C   0  0  0  0  0  0  0  0  0  0  0  0
   -3.1423   -1.2458    0.0823 C   0  0  0  0  0  0  0  0  0  0  0  0
   -3.0461    0.7212   -1.4663 C   0  0  0  0  0  0  0  0  0  0  0  0
    1.2825   -0.4433    0.3602 C   0  0  0  0  0  0  0  0  0  0  0  0
    1.7654   -0.5242   -0.9501 C   0  0  0  0  0  0  0  0  0  0  0  0
    3.1429   -0.4698   -1.1931 C   0  0  0  0  0  0  0  0  0  0  0  0
    4.0635   -0.3435   -0.1386 C   0  0  0  0  0  0  0  0  0  0  0  0
    5.5114   -0.2909   -0.3995 C   0  0  0  0  0  0  0  0  0  0  0  0
    6.3939   -1.1805    0.2377 C   0  0  0  0  0  0  0  0  0  0  0  0
    7.7696   -1.1329   -0.0096 C   0  0  0  0  0  0  0  0  0  0  0  0
    8.2798   -0.1916   -0.8988 C   0  0  0  0  0  0  0  0  0  0  0  0
    9.9715   -0.1308   -1.2044 Cl  0  0  0  0  0  0  0  0  0  0  0  0
    7.4273    0.7009   -1.5421 C   0  0  0  0  0  0  0  0  0  0  0  0
    6.0519    0.6499   -1.2933 C   0  0  0  0  0  0  0  0  0  0  0  0
    3.5619   -0.2802    1.1718 C   0  0  0  0  0  0  0  0  0  0  0  0
    2.1866   -0.3342    1.4209 C   0  0  0  0  0  0  0  0  0  0  0  0
   -0.5881    0.5821   -1.0161 H   0  0  0  0  0  0  0  0  0  0  0  0
   -2.4690    0.7123    1.9656 H   0  0  0  0  0  0  0  0  0  0  0  0
   -2.3904    2.0695    0.8555 H   0  0  0  0  0  0  0  0  0  0  0  0
   -4.6355    1.9051    1.9329 H   0  0  0  0  0  0  0  0  0  0  0  0
   -6.0055    1.9488   -0.1495 H   0  0  0  0  0  0  0  0  0  0  0  0
   -4.4863    2.8086   -0.3897 H   0  0  0  0  0  0  0  0  0  0  0  0
   -4.9548    1.2970   -2.3182 H   0  0  0  0  0  0  0  0  0  0  0  0
   -4.9821   -1.1726   -1.9689 H   0  0  0  0  0  0  0  0  0  0  0  0
   -6.2987   -0.4061   -1.0834 H   0  0  0  0  0  0  0  0  0  0  0  0
   -5.1283   -2.0741    0.3536 H   0  0  0  0  0  0  0  0  0  0  0  0
   -6.1008   -0.0502    1.4378 H   0  0  0  0  0  0  0  0  0  0  0  0
   -4.6467   -0.5681    2.2875 H   0  0  0  0  0  0  0  0  0  0  0  0
   -2.8855   -1.9328   -0.7347 H   0  0  0  0  0  0  0  0  0  0  0  0
   -2.7760   -1.7142    1.0028 H   0  0  0  0  0  0  0  0  0  0  0  0
   -2.7861    0.0738   -2.3145 H   0  0  0  0  0  0  0  0  0  0  0  0
   -2.5877    1.6972   -1.6750 H   0  0  0  0  0  0  0  0  0  0  0  0
    1.0899   -0.6626   -1.7895 H   0  0  0  0  0  0  0  0  0  0  0  0
    3.4985   -0.5509   -2.2191 H   0  0  0  0  0  0  0  0  0  0  0  0
    6.0109   -1.9305    0.9278 H   0  0  0  0  0  0  0  0  0  0  0  0
    8.4316   -1.8333    0.4925 H   0  0  0  0  0  0  0  0  0  0  0  0
    7.8228    1.4394   -2.2342 H   0  0  0  0  0  0  0  0  0  0  0  0
    5.4016    1.3632   -1.7962 H   0  0  0  0  0  0  0  0  0  0  0  0
    4.2424   -0.1805    2.0157 H   0  0  0  0  0  0  0  0  0  0  0  0
    1.8228   -0.2874    2.4458 H   0  0  0  0  0  0  0  0  0  0  0  0
  1  2  2  0
  2  3  1  0
  4  3  1  6
  4  5  1  0
  5  6  1  0
  6  7  1  0
  7  8  1  0
  8  9  1  0
  9 10  1  0
 10 11  1  0
 10 12  1  0
  8 13  1  0
  2 14  1  0
 14 15  1  0
 15 16  2  0
 16 17  1  0
 17 18  1  0
 18 19  1  0
 19 20  2  0
 20 21  1  0
 21 22  1  0
 21 23  2  0
 23 24  1  0
 17 25  2  0
 25 26  1  0
 12  4  1  0
 26 14  2  0
 13  4  1  0
 24 18  2  0
 11  6  1  0
  3 27  1  0
  5 28  1  0
  5 29  1  0
  6 30  1  1
  7 31  1  0
  7 32  1  0
  8 33  1  6
  9 34  1  0
  9 35  1  0
 10 36  1  1
 11 37  1  0
 11 38  1  0
 12 39  1  0
 12 40  1  0
 13 41  1  0
 13 42  1  0
 15 43  1  0
 16 44  1  0
 19 45  1  0
 20 46  1  0
 23 47  1  0
 24 48  1  0
 25 49  1  0
 26 50  1  0
M  END
>  <_SMILES>  (18) 
O=C(N[C@]12C[C@H]3C[C@H](C[C@H](C3)C1)C2)c1ccc(-c2ccc(Cl)cc2)cc1

$$$$

     RDKit          3D

 46 50  0  0  0  0  0  0  0  0999 V2000
    0.0915    1.4222    1.6337 O   0  0  0  0  0  0  0  0  0  0  0  0
    0.5946    0.7412    0.7493 C   0  0  0  0  0  0  0  0  0  0  0  0
   -0.1164   -0.0199   -0.1570 N   0  0  0  0  0  0  0  0  0  0  0  0
   -1.5815   -0.0824   -0.2169 C   0  0  2  0  0  0  0  0  0  0  0  0
   -2.1951   -0.6007    1.1088 C   0  0  0  0  0  0  0  0  0  0  0  0
   -3.7265   -0.7029    0.9938 C   0  0  1  0  0  0  0  0  0  0  0  0
   -4.3024    0.6846    0.6629 C   0  0  0  0  0  0  0  0  0  0  0  0
   -3.7286    1.1922   -0.6710 C   0  0  2  0  0  0  0  0  0  0  0  0
   -4.0887    0.1995   -1.7877 C   0  0  0  0  0  0  0  0  0  0  0  0
   -3.5084   -1.1866   -1.4655 C   0  0  2  0  0  0  0  0  0  0  0  0
   -4.0876   -1.6838   -0.1323 C   0  0  0  0  0  0  0  0  0  0  0  0
   -1.9805   -1.0769   -1.3414 C   0  0  0  0  0  0  0  0  0  0  0  0
   -2.1973    1.2968   -0.5575 C   0  0  0  0  0  0  0  0  0  0  0  0
    2.0735    0.7378    0.5767 C   0  0  0  0  0  0  0  0  0  0  0  0
    2.7884    1.8834    0.9360 C   0  0  0  0  0  0  0  0  0  0  0  0
    4.1760    1.9200    0.7844 C   0  0  0  0  0  0  0  0  0  0  0  0
    4.8705    0.8085    0.2823 C   0  0  0  0  0  0  0  0  0  0  0  0
    6.2652    0.8306    0.1244 C   0  0  0  0  0  0  0  0  0  0  0  0
    6.9451   -0.2848   -0.3670 C   0  0  0  0  0  0  0  0  0  0  0  0
    6.2404   -1.4362   -0.7047 C   0  0  0  0  0  0  0  0  0  0  0  0
    4.8533   -1.4752   -0.5539 C   0  0  0  0  0  0  0  0  0  0  0  0
    4.1527   -0.3606   -0.0646 C   0  0  0  0  0  0  0  0  0  0  0  0
    2.7564   -0.3853    0.0912 C   0  0  0  0  0  0  0  0  0  0  0  0
    0.3813   -0.3265   -0.9823 H   0  0  0  0  0  0  0  0  0  0  0  0
   -1.7725   -1.5820    1.3616 H   0  0  0  0  0  0  0  0  0  0  0  0
   -1.9482    0.0635    1.9447 H   0  0  0  0  0  0  0  0  0  0  0  0
   -4.1443   -1.0598    1.9418 H   0  0  0  0  0  0  0  0  0  0  0  0
   -5.3963    0.6302    0.6024 H   0  0  0  0  0  0  0  0  0  0  0  0
   -4.0630    1.3913    1.4669 H   0  0  0  0  0  0  0  0  0  0  0  0
   -4.1490    2.1771   -0.9032 H   0  0  0  0  0  0  0  0  0  0  0  0
   -3.6963    0.5566   -2.7478 H   0  0  0  0  0  0  0  0  0  0  0  0
   -5.1786    0.1340   -1.8938 H   0  0  0  0  0  0  0  0  0  0  0  0
   -3.7653   -1.8900   -2.2654 H   0  0  0  0  0  0  0  0  0  0  0  0
   -3.6945   -2.6815    0.0989 H   0  0  0  0  0  0  0  0  0  0  0  0
   -5.1774   -1.7812   -0.2098 H   0  0  0  0  0  0  0  0  0  0  0  0
   -1.5524   -2.0676   -1.1379 H   0  0  0  0  0  0  0  0  0  0  0  0
   -1.5562   -0.7518   -2.3009 H   0  0  0  0  0  0  0  0  0  0  0  0
   -1.9446    2.0380    0.2100 H   0  0  0  0  0  0  0  0  0  0  0  0
   -1.7781    1.6751   -1.4991 H   0  0  0  0  0  0  0  0  0  0  0  0
    2.2657    2.7516    1.3329 H   0  0  0  0  0  0  0  0  0  0  0  0
    4.7112    2.8242    1.0666 H   0  0  0  0  0  0  0  0  0  0  0  0
    6.8348    1.7196    0.3868 H   0  0  0  0  0  0  0  0  0  0  0  0
    8.0256   -0.2540   -0.4827 H   0  0  0  0  0  0  0  0  0  0  0  0
    6.7703   -2.3062   -1.0843 H   0  0  0  0  0  0  0  0  0  0  0  0
    4.3233   -2.3865   -0.8218 H   0  0  0  0  0  0  0  0  0  0  0  0
    2.2097   -1.2954   -0.1420 H   0  0  0  0  0  0  0  0  0  0  0  0
  1  2  2  0
  2  3  1  0
  4  3  1  1
  4  5  1  0
  5  6  1  0
  6  7  1  0
  7  8  1  0
  8  9  1  0
  9 10  1  0
 10 11  1  0
 10 12  1  0
  8 13  1  0
  2 14  1  0
 14 15  1  0
 15 16  2  0
 16 17  1  0
 17 18  2  0
 18 19  1  0
 19 20  2  0
 20 21  1  0
 21 22  2  0
 22 23  1  0
 12  4  1  0
 23 14  2  0
 13  4  1  0
 22 17  1  0
 11  6  1  0
  3 24  1  0
  5 25  1  0
  5 26  1  0
  6 27  1  1
  7 28  1  0
  7 29  1  0
  8 30  1  6
  9 31  1  0
  9 32  1  0
 10 33  1  6
 11 34  1  0
 11 35  1  0
 12 36  1  0
 12 37  1  0
 13 38  1  0
 13 39  1  0
 15 40  1  0
 16 41  1  0
 18 42  1  0
 19 43  1  0
 20 44  1  0
 21 45  1  0
 23 46  1  0
M  END
>  <_SMILES>  (19) 
O=C(N[C@]12C[C@H]3C[C@H](C[C@H](C3)C1)C2)c1ccc2ccccc2c1

$$$$

     RDKit          3D

 50 54  0  0  0  0  0  0  0  0999 V2000
    3.6999   -2.3310   -0.0286 C   0  0  0  0  0  0  0  0  0  0  0  0
    3.0293   -1.0504   -0.0115 N   0  0  0  0  0  0  0  0  0  0  0  0
    1.6800   -1.0246   -0.0512 N   0  0  0  0  0  0  0  0  0  0  0  0
    1.3735    0.2855    0.0481 C   0  0  0  0  0  0  0  0  0  0  0  0
   -0.0195    0.7624    0.0592 C   0  0  0  0  0  0  0  0  0  0  0  0
   -0.3104    1.9495    0.1541 O   0  0  0  0  0  0  0  0  0  0  0  0
   -0.9325   -0.2640   -0.0463 N   0  0  0  0  0  0  0  0  0  0  0  0
   -2.3849   -0.1288   -0.0661 C   0  0  2  0  0  0  0  0  0  0  0  0
   -2.9165    0.5076    1.2419 C   0  0  0  0  0  0  0  0  0  0  0  0
   -4.4528    0.5950    1.2159 C   0  0  1  0  0  0  0  0  0  0  0  0
   -4.8910    1.4465    0.0122 C   0  0  0  0  0  0  0  0  0  0  0  0
   -4.3987    0.8059   -1.2967 C   0  0  2  0  0  0  0  0  0  0  0  0
   -4.9861   -0.6089   -1.4208 C   0  0  0  0  0  0  0  0  0  0  0  0
   -4.5447   -1.4671   -0.2249 C   0  0  2  0  0  0  0  0  0  0  0  0
   -5.0398   -0.8185    1.0774 C   0  0  0  0  0  0  0  0  0  0  0  0
   -3.0098   -1.5432   -0.1982 C   0  0  0  0  0  0  0  0  0  0  0  0
   -2.8625    0.7185   -1.2714 C   0  0  0  0  0  0  0  0  0  0  0  0
    2.5459    1.0744    0.1340 C   0  0  0  0  0  0  0  0  0  0  0  0
    3.6078    0.1941    0.0682 C   0  0  0  0  0  0  0  0  0  0  0  0
    5.0415    0.4583    0.1055 C   0  0  0  0  0  0  0  0  0  0  0  0
    5.8697    0.0740   -0.9564 C   0  0  0  0  0  0  0  0  0  0  0  0
    7.2416    0.3325   -0.9120 C   0  0  0  0  0  0  0  0  0  0  0  0
    7.7940    0.9814    0.1910 C   0  0  0  0  0  0  0  0  0  0  0  0
    6.9756    1.3774    1.2475 C   0  0  0  0  0  0  0  0  0  0  0  0
    5.6037    1.1202    1.2035 C   0  0  0  0  0  0  0  0  0  0  0  0
    3.0036   -3.1055    0.3047 H   0  0  0  0  0  0  0  0  0  0  0  0
    4.5545   -2.3005    0.6513 H   0  0  0  0  0  0  0  0  0  0  0  0
    4.0225   -2.5327   -1.0527 H   0  0  0  0  0  0  0  0  0  0  0  0
   -0.5051   -1.1853   -0.1160 H   0  0  0  0  0  0  0  0  0  0  0  0
   -2.5035    1.5135    1.3833 H   0  0  0  0  0  0  0  0  0  0  0  0
   -2.5906   -0.0825    2.1085 H   0  0  0  0  0  0  0  0  0  0  0  0
   -4.8117    1.0543    2.1437 H   0  0  0  0  0  0  0  0  0  0  0  0
   -4.4894    2.4630    0.1061 H   0  0  0  0  0  0  0  0  0  0  0  0
   -5.9841    1.5365   -0.0037 H   0  0  0  0  0  0  0  0  0  0  0  0
   -4.7194    1.4146   -2.1495 H   0  0  0  0  0  0  0  0  0  0  0  0
   -6.0811   -0.5579   -1.4617 H   0  0  0  0  0  0  0  0  0  0  0  0
   -4.6537   -1.0720   -2.3580 H   0  0  0  0  0  0  0  0  0  0  0  0
   -4.9638   -2.4751   -0.3185 H   0  0  0  0  0  0  0  0  0  0  0  0
   -4.7460   -1.4325    1.9376 H   0  0  0  0  0  0  0  0  0  0  0  0
   -6.1357   -0.7712    1.0795 H   0  0  0  0  0  0  0  0  0  0  0  0
   -2.6853   -2.1786    0.6367 H   0  0  0  0  0  0  0  0  0  0  0  0
   -2.6477   -2.0318   -1.1128 H   0  0  0  0  0  0  0  0  0  0  0  0
   -2.4474    1.7324   -1.2255 H   0  0  0  0  0  0  0  0  0  0  0  0
   -2.4978    0.2798   -2.2095 H   0  0  0  0  0  0  0  0  0  0  0  0
    2.5967    2.1518    0.2158 H   0  0  0  0  0  0  0  0  0  0  0  0
    5.4520   -0.4132   -1.8343 H   0  0  0  0  0  0  0  0  0  0  0  0
    7.8775    0.0354   -1.7420 H   0  0  0  0  0  0  0  0  0  0  0  0
    8.8612    1.1857    0.2240 H   0  0  0  0  0  0  0  0  0  0  0  0
    7.4039    1.8897    2.1052 H   0  0  0  0  0  0  0  0  0  0  0  0
    4.9772    1.4357    2.0349 H   0  0  0  0  0  0  0  0  0  0  0  0
  1  2  1  0
  2  3  1  0
  3  4  2  0
  4  5  1  0
  5  6  2  0
  5  7  1  0
  8  7  1  1
  8  9  1  0
  9 10  1  0
 10 11  1  0
 11 12  1  0
 12 13  1  0
 13 14  1  0
 14 15  1  0
 14 16  1  0
 12 17  1  0
  4 18  1  0
 18 19  2  0
 19 20  1  0
 20 21  2  0
 21 22  1  0
 22 23  2  0
 23 24  1  0
 24 25  2  0
 19  2  1  0
 25 20  1  0
 16  8  1  0
 17  8  1  0
 15 10  1  0
  1 26  1  0
  1 27  1  0
  1 28  1  0
  7 29  1  0
  9 30  1  0
  9 31  1  0
 10 32  1  1
 11 33  1  0
 11 34  1  0
 12 35  1  6
 13 36  1  0
 13 37  1  0
 14 38  1  6
 15 39  1  0
 15 40  1  0
 16 41  1  0
 16 42  1  0
 17 43  1  0
 17 44  1  0
 18 45  1  0
 21 46  1  0
 22 47  1  0
 23 48  1  0
 24 49  1  0
 25 50  1  0
M  END
>  <_SMILES>  (20) 
Cn1nc(C(=O)N[C@]23C[C@H]4C[C@H](C[C@H](C4)C2)C3)cc1-c1ccccc1

$$$$

     RDKit          3D

 56 60  0  0  0  0  0  0  0  0999 V2000
   -4.1288   -2.2945    0.7453 C   0  0  0  0  0  0  0  0  0  0  0  0
   -3.3413   -1.2253    1.4996 C   0  0  0  0  0  0  0  0  0  0  0  0
   -4.2090   -0.4836    2.5146 C   0  0  0  0  0  0  0  0  0  0  0  0
   -2.5966   -0.3356    0.6092 N   0  0  0  0  0  0  0  0  0  0  0  0
   -1.2436   -0.4265    0.6375 N   0  0  0  0  0  0  0  0  0  0  0  0
   -0.8224    0.4861   -0.2596 C   0  0  0  0  0  0  0  0  0  0  0  0
    0.6070    0.7086   -0.5335 C   0  0  0  0  0  0  0  0  0  0  0  0
    1.0031    1.5359   -1.3469 O   0  0  0  0  0  0  0  0  0  0  0  0
    1.4243   -0.1070    0.2181 N   0  0  0  0  0  0  0  0  0  0  0  0
    2.8823   -0.1356    0.1844 C   0  0  2  0  0  0  0  0  0  0  0  0
    3.3779   -1.2050    1.1939 C   0  0  0  0  0  0  0  0  0  0  0  0
    4.9128   -1.2832    1.2047 C   0  0  1  0  0  0  0  0  0  0  0  0
    5.4085   -1.6524   -0.2023 C   0  0  0  0  0  0  0  0  0  0  0  0
    4.9503   -0.5915   -1.2154 C   0  0  2  0  0  0  0  0  0  0  0  0
    5.5185    0.7785   -0.8073 C   0  0  0  0  0  0  0  0  0  0  0  0
    5.0267    1.1577    0.5999 C   0  0  2  0  0  0  0  0  0  0  0  0
    5.4845    0.0867    1.6026 C   0  0  0  0  0  0  0  0  0  0  0  0
    3.4894    1.2281    0.5972 C   0  0  0  0  0  0  0  0  0  0  0  0
    3.4130   -0.5215   -1.2186 C   0  0  0  0  0  0  0  0  0  0  0  0
   -1.9175    1.1497   -0.8541 C   0  0  0  0  0  0  0  0  0  0  0  0
   -3.0533    0.6070   -0.2860 C   0  0  0  0  0  0  0  0  0  0  0  0
   -4.4409    0.9496   -0.5592 C   0  0  0  0  0  0  0  0  0  0  0  0
   -5.1545    0.2707   -1.5528 C   0  0  0  0  0  0  0  0  0  0  0  0
   -6.4778    0.6180   -1.8312 C   0  0  0  0  0  0  0  0  0  0  0  0
   -7.0895    1.6550   -1.1282 C   0  0  0  0  0  0  0  0  0  0  0  0
   -6.3773    2.3510   -0.1526 C   0  0  0  0  0  0  0  0  0  0  0  0
   -5.0539    2.0044    0.1265 C   0  0  0  0  0  0  0  0  0  0  0  0
   -3.5044   -2.7877   -0.0075 H   0  0  0  0  0  0  0  0  0  0  0  0
   -4.4895   -3.0620    1.4388 H   0  0  0  0  0  0  0  0  0  0  0  0
   -5.0036   -1.8792    0.2386 H   0  0  0  0  0  0  0  0  0  0  0  0
   -2.5737   -1.7556    2.0815 H   0  0  0  0  0  0  0  0  0  0  0  0
   -3.6534    0.3313    2.9907 H   0  0  0  0  0  0  0  0  0  0  0  0
   -4.5414   -1.1694    3.3018 H   0  0  0  0  0  0  0  0  0  0  0  0
   -5.1078   -0.0620    2.0571 H   0  0  0  0  0  0  0  0  0  0  0  0
    0.9162   -0.7319    0.8408 H   0  0  0  0  0  0  0  0  0  0  0  0
    3.0124   -0.9698    2.2026 H   0  0  0  0  0  0  0  0  0  0  0  0
    2.9592   -2.1878    0.9386 H   0  0  0  0  0  0  0  0  0  0  0  0
    5.2398   -2.0431    1.9231 H   0  0  0  0  0  0  0  0  0  0  0  0
    5.0212   -2.6376   -0.4900 H   0  0  0  0  0  0  0  0  0  0  0  0
    6.5029   -1.7269   -0.2066 H   0  0  0  0  0  0  0  0  0  0  0  0
    5.3094   -0.8573   -2.2159 H   0  0  0  0  0  0  0  0  0  0  0  0
    5.2097    1.5429   -1.5309 H   0  0  0  0  0  0  0  0  0  0  0  0
    6.6149    0.7484   -0.8245 H   0  0  0  0  0  0  0  0  0  0  0  0
    5.4399    2.1314    0.8858 H   0  0  0  0  0  0  0  0  0  0  0  0
    6.5802    0.0422    1.6294 H   0  0  0  0  0  0  0  0  0  0  0  0
    5.1518    0.3528    2.6134 H   0  0  0  0  0  0  0  0  0  0  0  0
    3.1690    2.0221   -0.0878 H   0  0  0  0  0  0  0  0  0  0  0  0
    3.1269    1.5168    1.5926 H   0  0  0  0  0  0  0  0  0  0  0  0
    3.0897    0.2060   -1.9726 H   0  0  0  0  0  0  0  0  0  0  0  0
    2.9957   -1.4891   -1.5270 H   0  0  0  0  0  0  0  0  0  0  0  0
   -1.8752    1.9268   -1.6056 H   0  0  0  0  0  0  0  0  0  0  0  0
   -4.6824   -0.5298   -2.1179 H   0  0  0  0  0  0  0  0  0  0  0  0
   -7.0282    0.0845   -2.6018 H   0  0  0  0  0  0  0  0  0  0  0  0
   -8.1185    1.9280   -1.3484 H   0  0  0  0  0  0  0  0  0  0  0  0
   -6.8493    3.1685    0.3863 H   0  0  0  0  0  0  0  0  0  0  0  0
   -4.5034    2.5621    0.8808 H   0  0  0  0  0  0  0  0  0  0  0  0
  1  2  1  0
  2  3  1  0
  2  4  1  0
  4  5  1  0
  5  6  2  0
  6  7  1  0
  7  8  2  0
  7  9  1  0
 10  9  1  6
 10 11  1  0
 11 12  1  0
 12 13  1  0
 13 14  1  0
 14 15  1  0
 15 16  1  0
 16 17  1  0
 16 18  1  0
 14 19  1  0
  6 20  1  0
 20 21  2  0
 21 22  1  0
 22 23  2  0
 23 24  1  0
 24 25  2  0
 25 26  1  0
 26 27  2  0
 21  4  1  0
 27 22  1  0
 18 10  1  0
 19 10  1  0
 17 12  1  0
  1 28  1  0
  1 29  1  0
  1 30  1  0
  2 31  1  0
  3 32  1  0
  3 33  1  0
  3 34  1  0
  9 35  1  0
 11 36  1  0
 11 37  1  0
 12 38  1  1
 13 39  1  0
 13 40  1  0
 14 41  1  6
 15 42  1  0
 15 43  1  0
 16 44  1  1
 17 45  1  0
 17 46  1  0
 18 47  1  0
 18 48  1  0
 19 49  1  0
 19 50  1  0
 20 51  1  0
 23 52  1  0
 24 53  1  0
 25 54  1  0
 26 55  1  0
 27 56  1  0
M  END
>  <_SMILES>  (21) 
CC(C)n1nc(C(=O)N[C@]23C[C@H]4C[C@H](C[C@H](C4)C2)C3)cc1-c1ccccc1

$$$$

     RDKit          3D

 53 57  0  0  0  0  0  0  0  0999 V2000
   -3.6651   -1.9629    2.1033 C   0  0  0  0  0  0  0  0  0  0  0  0
   -3.4979   -0.4557    2.0233 C   0  0  0  0  0  0  0  0  0  0  0  0
   -2.8160   -0.0393    0.8098 N   0  0  0  0  0  0  0  0  0  0  0  0
   -1.4685   -0.1356    0.7629 N   0  0  0  0  0  0  0  0  0  0  0  0
   -1.1433    0.3700   -0.4449 C   0  0  0  0  0  0  0  0  0  0  0  0
    0.2532    0.4549   -0.9040 C   0  0  0  0  0  0  0  0  0  0  0  0
    0.5625    0.9166   -1.9967 O   0  0  0  0  0  0  0  0  0  0  0  0
    1.1467   -0.0359    0.0227 N   0  0  0  0  0  0  0  0  0  0  0  0
    2.5968   -0.0960   -0.1238 C   0  0  2  0  0  0  0  0  0  0  0  0
    3.1966   -0.7223    1.1632 C   0  0  0  0  0  0  0  0  0  0  0  0
    4.7281   -0.8132    1.0696 C   0  0  1  0  0  0  0  0  0  0  0  0
    5.1084   -1.6845   -0.1378 C   0  0  0  0  0  0  0  0  0  0  0  0
    4.5456   -1.0678   -1.4281 C   0  0  2  0  0  0  0  0  0  0  0  0
    5.1210    0.3474   -1.6070 C   0  0  0  0  0  0  0  0  0  0  0  0
    4.7444    1.2281   -0.4034 C   0  0  2  0  0  0  0  0  0  0  0  0
    5.3061    0.5982    0.8811 C   0  0  0  0  0  0  0  0  0  0  0  0
    3.2114    1.3147   -0.2993 C   0  0  0  0  0  0  0  0  0  0  0  0
    3.0126   -0.9818   -1.3243 C   0  0  0  0  0  0  0  0  0  0  0  0
   -2.2996    0.7816   -1.1499 C   0  0  0  0  0  0  0  0  0  0  0  0
   -3.3708    0.4975   -0.3276 C   0  0  0  0  0  0  0  0  0  0  0  0
   -4.7926    0.7189   -0.5474 C   0  0  0  0  0  0  0  0  0  0  0  0
   -5.3137    2.0170   -0.5107 C   0  0  0  0  0  0  0  0  0  0  0  0
   -6.6775    2.2342   -0.7167 C   0  0  0  0  0  0  0  0  0  0  0  0
   -7.5257    1.1563   -0.9666 C   0  0  0  0  0  0  0  0  0  0  0  0
   -7.0115   -0.1387   -1.0155 C   0  0  0  0  0  0  0  0  0  0  0  0
   -5.6480   -0.3573   -0.8092 C   0  0  0  0  0  0  0  0  0  0  0  0
   -4.2476   -2.3440    1.2588 H   0  0  0  0  0  0  0  0  0  0  0  0
   -4.1828   -2.2383    3.0273 H   0  0  0  0  0  0  0  0  0  0  0  0
   -2.6944   -2.4698    2.0933 H   0  0  0  0  0  0  0  0  0  0  0  0
   -2.9047   -0.0908    2.8697 H   0  0  0  0  0  0  0  0  0  0  0  0
   -4.4703    0.0436    2.0694 H   0  0  0  0  0  0  0  0  0  0  0  0
    0.7055   -0.3779    0.8740 H   0  0  0  0  0  0  0  0  0  0  0  0
    2.7760   -1.7236    1.3271 H   0  0  0  0  0  0  0  0  0  0  0  0
    2.9144   -0.1250    2.0406 H   0  0  0  0  0  0  0  0  0  0  0  0
    5.1294   -1.2575    1.9872 H   0  0  0  0  0  0  0  0  0  0  0  0
    6.1997   -1.7711   -0.2086 H   0  0  0  0  0  0  0  0  0  0  0  0
    4.7164   -2.7004   -0.0057 H   0  0  0  0  0  0  0  0  0  0  0  0
    4.8227   -1.6905   -2.2861 H   0  0  0  0  0  0  0  0  0  0  0  0
    6.2123    0.2973   -1.7064 H   0  0  0  0  0  0  0  0  0  0  0  0
    4.7373    0.7938   -2.5326 H   0  0  0  0  0  0  0  0  0  0  0  0
    5.1623    2.2324   -0.5351 H   0  0  0  0  0  0  0  0  0  0  0  0
    6.4007    0.5510    0.8278 H   0  0  0  0  0  0  0  0  0  0  0  0
    5.0562    1.2246    1.7462 H   0  0  0  0  0  0  0  0  0  0  0  0
    2.8190    1.8030   -1.1992 H   0  0  0  0  0  0  0  0  0  0  0  0
    2.9301    1.9569    0.5457 H   0  0  0  0  0  0  0  0  0  0  0  0
    2.5886   -1.9887   -1.2153 H   0  0  0  0  0  0  0  0  0  0  0  0
    2.6126   -0.5808   -2.2631 H   0  0  0  0  0  0  0  0  0  0  0  0
   -2.3350    1.2219   -2.1373 H   0  0  0  0  0  0  0  0  0  0  0  0
   -4.6609    2.8659   -0.3201 H   0  0  0  0  0  0  0  0  0  0  0  0
   -7.0765    3.2448   -0.6862 H   0  0  0  0  0  0  0  0  0  0  0  0
   -8.5867    1.3266   -1.1311 H   0  0  0  0  0  0  0  0  0  0  0  0
   -7.6709   -0.9779   -1.2219 H   0  0  0  0  0  0  0  0  0  0  0  0
   -5.2569   -1.3702   -0.8674 H   0  0  0  0  0  0  0  0  0  0  0  0
  1  2  1  0
  2  3  1  0
  3  4  1  0
  4  5  2  0
  5  6  1  0
  6  7  2  0
  6  8  1  0
  9  8  1  1
  9 10  1  0
 10 11  1  0
 11 12  1  0
 12 13  1  0
 13 14  1  0
 14 15  1  0
 15 16  1  0
 15 17  1  0
 13 18  1  0
  5 19  1  0
 19 20  2  0
 20 21  1  0
 21 22  2  0
 22 23  1  0
 23 24  2  0
 24 25  1  0
 25 26  2  0
 20  3  1  0
 26 21  1  0
 17  9  1  0
 18  9  1  0
 16 11  1  0
  1 27  1  0
  1 28  1  0
  1 29  1  0
  2 30  1  0
  2 31  1  0
  8 32  1  0
 10 33  1  0
 10 34  1  0
 11 35  1  1
 12 36  1  0
 12 37  1  0
 13 38  1  6
 14 39  1  0
 14 40  1  0
 15 41  1  6
 16 42  1  0
 16 43  1  0
 17 44  1  0
 17 45  1  0
 18 46  1  0
 18 47  1  0
 19 48  1  0
 22 49  1  0
 23 50  1  0
 24 51  1  0
 25 52  1  0
 26 53  1  0
M  END
>  <_SMILES>  (22) 
CCn1nc(C(=O)N[C@]23C[C@H]4C[C@H](C[C@H](C4)C2)C3)cc1-c1ccccc1

$$$$

     RDKit          3D

 54 59  0  0  0  0  0  0  0  0999 V2000
   -1.1590   -2.0613   -0.3658 O   0  0  0  0  0  0  0  0  0  0  0  0
   -0.5534   -1.0051   -0.2120 C   0  0  0  0  0  0  0  0  0  0  0  0
   -1.1954    0.2077   -0.0081 N   0  0  0  0  0  0  0  0  0  0  0  0
   -2.6507    0.3900   -0.0203 C   0  0  2  0  0  0  0  0  0  0  0  0
   -3.2593    0.0434   -1.4015 C   0  0  0  0  0  0  0  0  0  0  0  0
   -4.7767    0.3005   -1.4043 C   0  0  1  0  0  0  0  0  0  0  0  0
   -5.4390   -0.5608   -0.3155 C   0  0  0  0  0  0  0  0  0  0  0  0
   -4.8703   -0.1973    1.0669 C   0  0  2  0  0  0  0  0  0  0  0  0
   -5.1352    1.2895    1.3495 C   0  0  0  0  0  0  0  0  0  0  0  0
   -4.4671    2.1545    0.2701 C   0  0  2  0  0  0  0  0  0  0  0  0
   -5.0412    1.7849   -1.1066 C   0  0  0  0  0  0  0  0  0  0  0  0
   -2.9541    1.8853    0.2740 C   0  0  0  0  0  0  0  0  0  0  0  0
   -3.3529   -0.4548    1.0734 C   0  0  0  0  0  0  0  0  0  0  0  0
    0.9232   -0.9156   -0.2446 C   0  0  0  0  0  0  0  0  0  0  0  0
    1.7566    0.1281    0.2504 C   0  0  0  0  0  0  0  0  0  0  0  0
    3.0586   -0.2461   -0.0258 C   0  0  0  0  0  0  0  0  0  0  0  0
    4.3102    0.4447    0.2614 C   0  0  0  0  0  0  0  0  0  0  0  0
    4.6254    0.8047    1.5777 C   0  0  0  0  0  0  0  0  0  0  0  0
    5.8186    1.4720    1.8626 C   0  0  0  0  0  0  0  0  0  0  0  0
    6.7022    1.7911    0.8333 C   0  0  0  0  0  0  0  0  0  0  0  0
    6.3929    1.4465   -0.4812 C   0  0  0  0  0  0  0  0  0  0  0  0
    5.2002    0.7784   -0.7670 C   0  0  0  0  0  0  0  0  0  0  0  0
    2.9396   -1.4839   -0.6089 N   0  0  0  0  0  0  0  0  0  0  0  0
    4.0736   -2.3415   -1.0322 C   0  0  0  0  0  0  0  0  0  0  0  0
    4.1133   -3.8211   -0.7223 C   0  0  0  0  0  0  0  0  0  0  0  0
    5.0829   -2.8951   -0.0527 C   0  0  0  0  0  0  0  0  0  0  0  0
    1.6755   -1.8914   -0.7823 N   0  0  0  0  0  0  0  0  0  0  0  0
   -0.6334    1.0397   -0.1143 H   0  0  0  0  0  0  0  0  0  0  0  0
   -2.7778    0.6410   -2.1866 H   0  0  0  0  0  0  0  0  0  0  0  0
   -3.0740   -1.0062   -1.6587 H   0  0  0  0  0  0  0  0  0  0  0  0
   -5.1924    0.0411   -2.3844 H   0  0  0  0  0  0  0  0  0  0  0  0
   -6.5249   -0.4052   -0.3253 H   0  0  0  0  0  0  0  0  0  0  0  0
   -5.2681   -1.6243   -0.5233 H   0  0  0  0  0  0  0  0  0  0  0  0
   -5.3515   -0.8104    1.8371 H   0  0  0  0  0  0  0  0  0  0  0  0
   -4.7467    1.5581    2.3395 H   0  0  0  0  0  0  0  0  0  0  0  0
   -6.2151    1.4811    1.3686 H   0  0  0  0  0  0  0  0  0  0  0  0
   -4.6552    3.2140    0.4766 H   0  0  0  0  0  0  0  0  0  0  0  0
   -4.5848    2.4103   -1.8837 H   0  0  0  0  0  0  0  0  0  0  0  0
   -6.1194    1.9854   -1.1292 H   0  0  0  0  0  0  0  0  0  0  0  0
   -2.4653    2.5238   -0.4742 H   0  0  0  0  0  0  0  0  0  0  0  0
   -2.5286    2.1722    1.2451 H   0  0  0  0  0  0  0  0  0  0  0  0
   -2.9368   -0.2142    2.0606 H   0  0  0  0  0  0  0  0  0  0  0  0
   -3.1775   -1.5255    0.9201 H   0  0  0  0  0  0  0  0  0  0  0  0
    1.4541    1.0385    0.7480 H   0  0  0  0  0  0  0  0  0  0  0  0
    3.9496    0.5575    2.3934 H   0  0  0  0  0  0  0  0  0  0  0  0
    6.0586    1.7410    2.8881 H   0  0  0  0  0  0  0  0  0  0  0  0
    7.6311    2.3106    1.0553 H   0  0  0  0  0  0  0  0  0  0  0  0
    7.0789    1.7006   -1.2852 H   0  0  0  0  0  0  0  0  0  0  0  0
    4.9701    0.5302   -1.8005 H   0  0  0  0  0  0  0  0  0  0  0  0
    4.4372   -2.0560   -2.0140 H   0  0  0  0  0  0  0  0  0  0  0  0
    4.4838   -4.4869   -1.4926 H   0  0  0  0  0  0  0  0  0  0  0  0
    3.3070   -4.2382   -0.1282 H   0  0  0  0  0  0  0  0  0  0  0  0
    4.9422   -2.6978    1.0042 H   0  0  0  0  0  0  0  0  0  0  0  0
    6.1206   -2.9277   -0.3631 H   0  0  0  0  0  0  0  0  0  0  0  0
  1  2  2  0
  2  3  1  0
  4  3  1  6
  4  5  1  0
  5  6  1  0
  6  7  1  0
  7  8  1  0
  8  9  1  0
  9 10  1  0
 10 11  1  0
 10 12  1  0
  8 13  1  0
  2 14  1  0
 14 15  1  0
 15 16  2  0
 16 17  1  0
 17 18  2  0
 18 19  1  0
 19 20  2  0
 20 21  1  0
 21 22  2  0
 16 23  1  0
 23 24  1  0
 24 25  1  0
 25 26  1  0
 23 27  1  0
 12  4  1  0
 27 14  2  0
 13  4  1  0
 22 17  1  0
 26 24  1  0
 11  6  1  0
  3 28  1  0
  5 29  1  0
  5 30  1  0
  6 31  1  6
  7 32  1  0
  7 33  1  0
  8 34  1  1
  9 35  1  0
  9 36  1  0
 10 37  1  1
 11 38  1  0
 11 39  1  0
 12 40  1  0
 12 41  1  0
 13 42  1  0
 13 43  1  0
 15 44  1  0
 18 45  1  0
 19 46  1  0
 20 47  1  0
 21 48  1  0
 22 49  1  0
 24 50  1  0
 25 51  1  0
 25 52  1  0
 26 53  1  0
 26 54  1  0
M  END
>  <_SMILES>  (23) 
O=C(N[C@]12C[C@H]3C[C@H](C[C@H](C3)C1)C2)c1cc(-c2ccccc2)n(C2CC2)n1

$$$$

     RDKit          3D

 47 51  0  0  0  0  0  0  0  0999 V2000
   -0.0556    1.2313    1.2103 O   0  0  0  0  0  0  0  0  0  0  0  0
    0.2269    0.4015    0.3533 C   0  0  0  0  0  0  0  0  0  0  0  0
   -0.6912   -0.2652   -0.4278 N   0  0  0  0  0  0  0  0  0  0  0  0
   -2.1409   -0.1076   -0.3799 C   0  0  2  0  0  0  0  0  0  0  0  0
   -2.5687    1.3412   -0.7215 C   0  0  0  0  0  0  0  0  0  0  0  0
   -4.1023    1.4694   -0.7112 C   0  0  1  0  0  0  0  0  0  0  0  0
   -4.6989    0.5158   -1.7583 C   0  0  0  0  0  0  0  0  0  0  0  0
   -4.3071   -0.9338   -1.4316 C   0  0  2  0  0  0  0  0  0  0  0  0
   -4.8401   -1.3035   -0.0385 C   0  0  0  0  0  0  0  0  0  0  0  0
   -4.2442   -0.3604    1.0186 C   0  0  2  0  0  0  0  0  0  0  0  0
   -4.6326    1.0893    0.6818 C   0  0  0  0  0  0  0  0  0  0  0  0
   -2.7107   -0.4891    1.0088 C   0  0  0  0  0  0  0  0  0  0  0  0
   -2.7749   -1.0545   -1.4335 C   0  0  0  0  0  0  0  0  0  0  0  0
    1.6160    0.0146    0.0532 C   0  0  0  0  0  0  0  0  0  0  0  0
    2.7918    0.5064    0.6741 C   0  0  0  0  0  0  0  0  0  0  0  0
    3.8488   -0.1485    0.0735 C   0  0  0  0  0  0  0  0  0  0  0  0
    5.2925   -0.0543    0.2803 C   0  0  0  0  0  0  0  0  0  0  0  0
    6.1318   -1.1590    0.0748 C   0  0  0  0  0  0  0  0  0  0  0  0
    7.5116   -1.0535    0.2738 C   0  0  0  0  0  0  0  0  0  0  0  0
    8.0684    0.1560    0.6821 C   0  0  0  0  0  0  0  0  0  0  0  0
    7.2467    1.2596    0.8957 C   0  0  0  0  0  0  0  0  0  0  0  0
    5.8674    1.1541    0.6982 C   0  0  0  0  0  0  0  0  0  0  0  0
    3.2612   -0.9592   -0.8631 N   0  0  0  0  0  0  0  0  0  0  0  0
    1.9182   -0.8956   -0.8960 N   0  0  0  0  0  0  0  0  0  0  0  0
   -0.2718   -0.9162   -1.0884 H   0  0  0  0  0  0  0  0  0  0  0  0
   -2.1455    2.0535   -0.0032 H   0  0  0  0  0  0  0  0  0  0  0  0
   -2.1765    1.6285   -1.7059 H   0  0  0  0  0  0  0  0  0  0  0  0
   -4.3876    2.5009   -0.9464 H   0  0  0  0  0  0  0  0  0  0  0  0
   -5.7913    0.6140   -1.7755 H   0  0  0  0  0  0  0  0  0  0  0  0
   -4.3392    0.7853   -2.7589 H   0  0  0  0  0  0  0  0  0  0  0  0
   -4.7326   -1.6098   -2.1816 H   0  0  0  0  0  0  0  0  0  0  0  0
   -4.5819   -2.3430    0.1983 H   0  0  0  0  0  0  0  0  0  0  0  0
   -5.9349   -1.2366   -0.0261 H   0  0  0  0  0  0  0  0  0  0  0  0
   -4.6301   -0.6257    2.0093 H   0  0  0  0  0  0  0  0  0  0  0  0
   -4.2245    1.7719    1.4373 H   0  0  0  0  0  0  0  0  0  0  0  0
   -5.7237    1.1999    0.7092 H   0  0  0  0  0  0  0  0  0  0  0  0
   -2.2930    0.1535    1.7929 H   0  0  0  0  0  0  0  0  0  0  0  0
   -2.4205   -1.5161    1.2668 H   0  0  0  0  0  0  0  0  0  0  0  0
   -2.4854   -2.0941   -1.2292 H   0  0  0  0  0  0  0  0  0  0  0  0
   -2.3866   -0.8200   -2.4338 H   0  0  0  0  0  0  0  0  0  0  0  0
    2.8401    1.2394    1.4681 H   0  0  0  0  0  0  0  0  0  0  0  0
    5.7274   -2.1237   -0.2202 H   0  0  0  0  0  0  0  0  0  0  0  0
    8.1509   -1.9188    0.1170 H   0  0  0  0  0  0  0  0  0  0  0  0
    9.1410    0.2375    0.8385 H   0  0  0  0  0  0  0  0  0  0  0  0
    7.6771    2.2049    1.2167 H   0  0  0  0  0  0  0  0  0  0  0  0
    5.2478    2.0324    0.8653 H   0  0  0  0  0  0  0  0  0  0  0  0
    3.7267   -1.5727   -1.5224 H   0  0  0  0  0  0  0  0  0  0  0  0
  1  2  2  0
  2  3  1  0
  4  3  1  1
  4  5  1  0
  5  6  1  0
  6  7  1  0
  7  8  1  0
  8  9  1  0
  9 10  1  0
 10 11  1  0
 10 12  1  0
  8 13  1  0
  2 14  1  0
 14 15  1  0
 15 16  2  0
 16 17  1  0
 17 18  2  0
 18 19  1  0
 19 20  2  0
 20 21  1  0
 21 22  2  0
 16 23  1  0
 23 24  1  0
 12  4  1  0
 24 14  2  0
 13  4  1  0
 22 17  1  0
 11  6  1  0
  3 25  1  0
  5 26  1  0
  5 27  1  0
  6 28  1  6
  7 29  1  0
  7 30  1  0
  8 31  1  6
  9 32  1  0
  9 33  1  0
 10 34  1  1
 11 35  1  0
 11 36  1  0
 12 37  1  0
 12 38  1  0
 13 39  1  0
 13 40  1  0
 15 41  1  0
 18 42  1  0
 19 43  1  0
 20 44  1  0
 21 45  1  0
 22 46  1  0
 23 47  1  0
M  END
>  <_SMILES>  (24) 
O=C(N[C@]12C[C@H]3C[C@H](C[C@H](C3)C1)C2)c1cc(-c2ccccc2)[nH]n1

$$$$

     RDKit          3D

 47 51  0  0  0  0  0  0  0  0999 V2000
   -0.4982   -2.4252    0.3419 O   0  0  0  0  0  0  0  0  0  0  0  0
    0.1146   -1.3728    0.2034 C   0  0  0  0  0  0  0  0  0  0  0  0
   -0.4983   -0.1526    0.0339 N   0  0  0  0  0  0  0  0  0  0  0  0
   -1.9480    0.0651   -0.0057 C   0  0  2  0  0  0  0  0  0  0  0  0
   -2.6109   -0.6949   -1.1817 C   0  0  0  0  0  0  0  0  0  0  0  0
   -4.1220   -0.4065   -1.2299 C   0  0  1  0  0  0  0  0  0  0  0  0
   -4.7636   -0.8447    0.0977 C   0  0  0  0  0  0  0  0  0  0  0  0
   -4.1395   -0.0682    1.2697 C   0  0  2  0  0  0  0  0  0  0  0  0
   -4.3631    1.4372    1.0568 C   0  0  0  0  0  0  0  0  0  0  0  0
   -3.7160    1.8817   -0.2640 C   0  0  2  0  0  0  0  0  0  0  0  0
   -4.3457    1.1009   -1.4279 C   0  0  0  0  0  0  0  0  0  0  0  0
   -2.2095    1.5822   -0.2129 C   0  0  0  0  0  0  0  0  0  0  0  0
   -2.6285   -0.3562    1.3208 C   0  0  0  0  0  0  0  0  0  0  0  0
    1.5535   -1.3371    0.2082 C   0  0  0  0  0  0  0  0  0  0  0  0
    2.4941   -0.3341    0.0790 C   0  0  0  0  0  0  0  0  0  0  0  0
    3.7698   -0.9640    0.1725 C   0  0  0  0  0  0  0  0  0  0  0  0
    5.1021   -0.3473    0.0980 C   0  0  0  0  0  0  0  0  0  0  0  0
    6.2574   -1.1390    0.2022 C   0  0  0  0  0  0  0  0  0  0  0  0
    7.5310   -0.5676    0.1332 C   0  0  0  0  0  0  0  0  0  0  0  0
    7.6689    0.8065   -0.0414 C   0  0  0  0  0  0  0  0  0  0  0  0
    6.5350    1.6083   -0.1467 C   0  0  0  0  0  0  0  0  0  0  0  0
    5.2600    1.0360   -0.0775 C   0  0  0  0  0  0  0  0  0  0  0  0
    3.6154   -2.2863    0.3498 N   0  0  0  0  0  0  0  0  0  0  0  0
    2.2893   -2.4773    0.3671 N   0  0  0  0  0  0  0  0  0  0  0  0
    0.0927    0.6579   -0.0729 H   0  0  0  0  0  0  0  0  0  0  0  0
   -2.1441   -0.4017   -2.1312 H   0  0  0  0  0  0  0  0  0  0  0  0
   -2.4583   -1.7762   -1.0866 H   0  0  0  0  0  0  0  0  0  0  0  0
   -4.5763   -0.9589   -2.0599 H   0  0  0  0  0  0  0  0  0  0  0  0
   -4.6222   -1.9225    0.2446 H   0  0  0  0  0  0  0  0  0  0  0  0
   -5.8457   -0.6672    0.0661 H   0  0  0  0  0  0  0  0  0  0  0  0
   -4.6062   -0.3810    2.2105 H   0  0  0  0  0  0  0  0  0  0  0  0
   -5.4375    1.6581    1.0410 H   0  0  0  0  0  0  0  0  0  0  0  0
   -3.9343    2.0020    1.8937 H   0  0  0  0  0  0  0  0  0  0  0  0
   -3.8752    2.9559   -0.4104 H   0  0  0  0  0  0  0  0  0  0  0  0
   -3.9044    1.4238   -2.3787 H   0  0  0  0  0  0  0  0  0  0  0  0
   -5.4198    1.3161   -1.4861 H   0  0  0  0  0  0  0  0  0  0  0  0
   -1.7453    2.1591    0.5984 H   0  0  0  0  0  0  0  0  0  0  0  0
   -1.7331    1.9236   -1.1418 H   0  0  0  0  0  0  0  0  0  0  0  0
   -2.4766   -1.4236    1.5186 H   0  0  0  0  0  0  0  0  0  0  0  0
   -2.1742    0.1797    2.1645 H   0  0  0  0  0  0  0  0  0  0  0  0
    2.3007    0.7178   -0.0646 H   0  0  0  0  0  0  0  0  0  0  0  0
    6.1711   -2.2157    0.3391 H   0  0  0  0  0  0  0  0  0  0  0  0
    8.4115   -1.1994    0.2162 H   0  0  0  0  0  0  0  0  0  0  0  0
    8.6591    1.2514   -0.0951 H   0  0  0  0  0  0  0  0  0  0  0  0
    6.6414    2.6815   -0.2828 H   0  0  0  0  0  0  0  0  0  0  0  0
    4.4006    1.6937   -0.1632 H   0  0  0  0  0  0  0  0  0  0  0  0
    1.9281   -3.4184    0.4918 H   0  0  0  0  0  0  0  0  0  0  0  0
  1  2  2  0
  2  3  1  0
  4  3  1  1
  4  5  1  0
  5  6  1  0
  6  7  1  0
  7  8  1  0
  8  9  1  0
  9 10  1  0
 10 11  1  0
 10 12  1  0
  8 13  1  0
  2 14  1  0
 14 15  2  0
 15 16  1  0
 16 17  1  0
 17 18  2  0
 18 19  1  0
 19 20  2  0
 20 21  1  0
 21 22  2  0
 16 23  2  0
 23 24  1  0
 12  4  1  0
 24 14  1  0
 13  4  1  0
 22 17  1  0
 11  6  1  0
  3 25  1  0
  5 26  1  0
  5 27  1  0
  6 28  1  6
  7 29  1  0
  7 30  1  0
  8 31  1  1
  9 32  1  0
  9 33  1  0
 10 34  1  6
 11 35  1  0
 11 36  1  0
 12 37  1  0
 12 38  1  0
 13 39  1  0
 13 40  1  0
 15 41  1  0
 18 42  1  0
 19 43  1  0
 20 44  1  0
 21 45  1  0
 22 46  1  0
 24 47  1  0
M  END
>  <_SMILES>  (25) 
O=C(N[C@]12C[C@H]3C[C@H](C[C@H](C3)C1)C2)c1cc(-c2ccccc2)n[nH]1

$$$$

     RDKit          3D

 59 63  0  0  0  0  0  0  0  0999 V2000
   -4.6671    3.0961    0.0332 C   0  0  0  0  0  0  0  0  0  0  0  0
   -4.3263    1.6229   -0.1292 C   0  0  0  0  0  0  0  0  0  0  0  0
   -3.5240    1.3731   -1.4077 C   0  0  0  0  0  0  0  0  0  0  0  0
   -3.2353   -0.1101   -1.6503 C   0  0  0  0  0  0  0  0  0  0  0  0
   -2.3336   -0.6962   -0.6732 N   0  0  0  0  0  0  0  0  0  0  0  0
   -1.0303   -0.3372   -0.7075 N   0  0  0  0  0  0  0  0  0  0  0  0
   -0.4782   -0.9957    0.3321 C   0  0  0  0  0  0  0  0  0  0  0  0
    0.9496   -0.8651    0.6674 C   0  0  0  0  0  0  0  0  0  0  0  0
    1.4634   -1.4555    1.6110 O   0  0  0  0  0  0  0  0  0  0  0  0
    1.6194   -0.0175   -0.1875 N   0  0  0  0  0  0  0  0  0  0  0  0
    3.0355    0.3275   -0.1275 C   0  0  2  0  0  0  0  0  0  0  0  0
    3.3524    1.3117   -1.2847 C   0  0  0  0  0  0  0  0  0  0  0  0
    4.8357    1.7143   -1.2748 C   0  0  1  0  0  0  0  0  0  0  0  0
    5.1654    2.3909    0.0650 C   0  0  0  0  0  0  0  0  0  0  0  0
    4.8829    1.4233    1.2251 C   0  0  2  0  0  0  0  0  0  0  0  0
    5.7453    0.1611    1.0545 C   0  0  0  0  0  0  0  0  0  0  0  0
    5.4216   -0.5243   -0.2839 C   0  0  2  0  0  0  0  0  0  0  0  0
    5.7010    0.4545   -1.4354 C   0  0  0  0  0  0  0  0  0  0  0  0
    3.9348   -0.9211   -0.3030 C   0  0  0  0  0  0  0  0  0  0  0  0
    3.3960    1.0270    1.2064 C   0  0  0  0  0  0  0  0  0  0  0  0
   -1.4435   -1.7833    1.0027 C   0  0  0  0  0  0  0  0  0  0  0  0
   -2.6309   -1.5941    0.3250 C   0  0  0  0  0  0  0  0  0  0  0  0
   -3.9451   -2.1631    0.5876 C   0  0  0  0  0  0  0  0  0  0  0  0
   -4.4808   -3.1368   -0.2634 C   0  0  0  0  0  0  0  0  0  0  0  0
   -5.7418   -3.6788   -0.0073 C   0  0  0  0  0  0  0  0  0  0  0  0
   -6.4707   -3.2552    1.1032 C   0  0  0  0  0  0  0  0  0  0  0  0
   -5.9382   -2.2942    1.9615 C   0  0  0  0  0  0  0  0  0  0  0  0
   -4.6770   -1.7523    1.7071 C   0  0  0  0  0  0  0  0  0  0  0  0
   -5.2709    3.4544   -0.8067 H   0  0  0  0  0  0  0  0  0  0  0  0
   -5.2383    3.2535    0.9534 H   0  0  0  0  0  0  0  0  0  0  0  0
   -3.7589    3.7048    0.0885 H   0  0  0  0  0  0  0  0  0  0  0  0
   -5.2546    1.0405   -0.1517 H   0  0  0  0  0  0  0  0  0  0  0  0
   -3.7553    1.2961    0.7466 H   0  0  0  0  0  0  0  0  0  0  0  0
   -2.5853    1.9393   -1.3680 H   0  0  0  0  0  0  0  0  0  0  0  0
   -4.0896    1.7568   -2.2658 H   0  0  0  0  0  0  0  0  0  0  0  0
   -2.7569   -0.2401   -2.6286 H   0  0  0  0  0  0  0  0  0  0  0  0
   -4.1665   -0.6828   -1.6716 H   0  0  0  0  0  0  0  0  0  0  0  0
    1.0272    0.3831   -0.9122 H   0  0  0  0  0  0  0  0  0  0  0  0
    2.7250    2.2091   -1.1994 H   0  0  0  0  0  0  0  0  0  0  0  0
    3.1000    0.8530   -2.2502 H   0  0  0  0  0  0  0  0  0  0  0  0
    5.0365    2.4082   -2.0987 H   0  0  0  0  0  0  0  0  0  0  0  0
    4.5663    3.3023    0.1825 H   0  0  0  0  0  0  0  0  0  0  0  0
    6.2184    2.6979    0.0808 H   0  0  0  0  0  0  0  0  0  0  0  0
    5.1231    1.9090    2.1775 H   0  0  0  0  0  0  0  0  0  0  0  0
    6.8088    0.4276    1.0902 H   0  0  0  0  0  0  0  0  0  0  0  0
    5.5630   -0.5324    1.8846 H   0  0  0  0  0  0  0  0  0  0  0  0
    6.0435   -1.4189   -0.4009 H   0  0  0  0  0  0  0  0  0  0  0  0
    6.7632    0.7281   -1.4454 H   0  0  0  0  0  0  0  0  0  0  0  0
    5.4872   -0.0274   -2.3973 H   0  0  0  0  0  0  0  0  0  0  0  0
    3.7494   -1.6516    0.4935 H   0  0  0  0  0  0  0  0  0  0  0  0
    3.6958   -1.4289   -1.2467 H   0  0  0  0  0  0  0  0  0  0  0  0
    3.1901    0.3705    2.0603 H   0  0  0  0  0  0  0  0  0  0  0  0
    2.7701    1.9181    1.3466 H   0  0  0  0  0  0  0  0  0  0  0  0
   -1.2794   -2.4155    1.8651 H   0  0  0  0  0  0  0  0  0  0  0  0
   -3.9160   -3.4854   -1.1249 H   0  0  0  0  0  0  0  0  0  0  0  0
   -6.1523   -4.4362   -0.6701 H   0  0  0  0  0  0  0  0  0  0  0  0
   -7.4510   -3.6798    1.3044 H   0  0  0  0  0  0  0  0  0  0  0  0
   -6.5027   -1.9692    2.8317 H   0  0  0  0  0  0  0  0  0  0  0  0
   -4.2702   -1.0058    2.3857 H   0  0  0  0  0  0  0  0  0  0  0  0
  1  2  1  0
  2  3  1  0
  3  4  1  0
  4  5  1  0
  5  6  1  0
  6  7  2  0
  7  8  1  0
  8  9  2  0
  8 10  1  0
 11 10  1  1
 11 12  1  0
 12 13  1  0
 13 14  1  0
 14 15  1  0
 15 16  1  0
 16 17  1  0
 17 18  1  0
 17 19  1  0
 15 20  1  0
  7 21  1  0
 21 22  2  0
 22 23  1  0
 23 24  2  0
 24 25  1  0
 25 26  2  0
 26 27  1  0
 27 28  2  0
 22  5  1  0
 28 23  1  0
 19 11  1  0
 20 11  1  0
 18 13  1  0
  1 29  1  0
  1 30  1  0
  1 31  1  0
  2 32  1  0
  2 33  1  0
  3 34  1  0
  3 35  1  0
  4 36  1  0
  4 37  1  0
 10 38  1  0
 12 39  1  0
 12 40  1  0
 13 41  1  6
 14 42  1  0
 14 43  1  0
 15 44  1  1
 16 45  1  0
 16 46  1  0
 17 47  1  6
 18 48  1  0
 18 49  1  0
 19 50  1  0
 19 51  1  0
 20 52  1  0
 20 53  1  0
 21 54  1  0
 24 55  1  0
 25 56  1  0
 26 57  1  0
 27 58  1  0
 28 59  1  0
M  END
>  <_SMILES>  (26) 
CCCCn1nc(C(=O)N[C@]23C[C@H]4C[C@H](C[C@H](C4)C2)C3)cc1-c1ccccc1

$$$$

     RDKit          3D

 56 60  0  0  0  0  0  0  0  0999 V2000
   -5.8174    3.1125    0.7986 C   0  0  0  0  0  0  0  0  0  0  0  0
   -4.5170    2.3288    0.8650 C   0  0  0  0  0  0  0  0  0  0  0  0
   -4.2020    1.6613   -0.4709 C   0  0  0  0  0  0  0  0  0  0  0  0
   -2.9736    0.8850   -0.4210 N   0  0  0  0  0  0  0  0  0  0  0  0
   -1.8010    1.5345   -0.5402 N   0  0  0  0  0  0  0  0  0  0  0  0
   -0.8623    0.5718   -0.5208 C   0  0  0  0  0  0  0  0  0  0  0  0
    0.5784    0.8904   -0.6400 C   0  0  0  0  0  0  0  0  0  0  0  0
    0.9904    1.9700   -1.0543 O   0  0  0  0  0  0  0  0  0  0  0  0
    1.4255   -0.1286   -0.2282 N   0  0  0  0  0  0  0  0  0  0  0  0
    2.8869   -0.0235   -0.1699 C   0  0  2  0  0  0  0  0  0  0  0  0
    3.3427    1.0655    0.8324 C   0  0  0  0  0  0  0  0  0  0  0  0
    4.8785    1.1134    0.9183 C   0  0  1  0  0  0  0  0  0  0  0  0
    5.4035   -0.2493    1.3972 C   0  0  0  0  0  0  0  0  0  0  0  0
    4.9853   -1.3495    0.4093 C   0  0  2  0  0  0  0  0  0  0  0  0
    5.5663   -1.0363   -0.9779 C   0  0  0  0  0  0  0  0  0  0  0  0
    5.0415    0.3209   -1.4709 C   0  0  2  0  0  0  0  0  0  0  0  0
    5.4551    1.4178   -0.4749 C   0  0  0  0  0  0  0  0  0  0  0  0
    3.5057    0.2714   -1.5602 C   0  0  0  0  0  0  0  0  0  0  0  0
    3.4517   -1.3869    0.3163 C   0  0  0  0  0  0  0  0  0  0  0  0
   -1.4777   -0.7042   -0.3856 C   0  0  0  0  0  0  0  0  0  0  0  0
   -2.8370   -0.4761   -0.3051 C   0  0  0  0  0  0  0  0  0  0  0  0
   -3.9324   -1.4248   -0.1706 C   0  0  0  0  0  0  0  0  0  0  0  0
   -4.6286   -1.5399    1.0377 C   0  0  0  0  0  0  0  0  0  0  0  0
   -5.6798   -2.4506    1.1603 C   0  0  0  0  0  0  0  0  0  0  0  0
   -6.0369   -3.2537    0.0781 C   0  0  0  0  0  0  0  0  0  0  0  0
   -5.3418   -3.1504   -1.1260 C   0  0  0  0  0  0  0  0  0  0  0  0
   -4.2901   -2.2404   -1.2499 C   0  0  0  0  0  0  0  0  0  0  0  0
   -6.6588    2.4558    0.5552 H   0  0  0  0  0  0  0  0  0  0  0  0
   -6.0245    3.5861    1.7633 H   0  0  0  0  0  0  0  0  0  0  0  0
   -5.7633    3.8986    0.0387 H   0  0  0  0  0  0  0  0  0  0  0  0
   -4.5898    1.5757    1.6578 H   0  0  0  0  0  0  0  0  0  0  0  0
   -3.7021    3.0053    1.1492 H   0  0  0  0  0  0  0  0  0  0  0  0
   -5.0167    0.9992   -0.7818 H   0  0  0  0  0  0  0  0  0  0  0  0
   -4.0762    2.4112   -1.2612 H   0  0  0  0  0  0  0  0  0  0  0  0
    1.0022   -0.8828    0.2926 H   0  0  0  0  0  0  0  0  0  0  0  0
    2.9703    2.0527    0.5342 H   0  0  0  0  0  0  0  0  0  0  0  0
    2.9192    0.8653    1.8255 H   0  0  0  0  0  0  0  0  0  0  0  0
    5.1839    1.8947    1.6233 H   0  0  0  0  0  0  0  0  0  0  0  0
    5.0099   -0.4727    2.3964 H   0  0  0  0  0  0  0  0  0  0  0  0
    6.4966   -0.2201    1.4849 H   0  0  0  0  0  0  0  0  0  0  0  0
    5.3589   -2.3194    0.7562 H   0  0  0  0  0  0  0  0  0  0  0  0
    5.2898   -1.8257   -1.6877 H   0  0  0  0  0  0  0  0  0  0  0  0
    6.6621   -1.0201   -0.9307 H   0  0  0  0  0  0  0  0  0  0  0  0
    5.4611    0.5416   -2.4588 H   0  0  0  0  0  0  0  0  0  0  0  0
    5.0977    2.3946   -0.8232 H   0  0  0  0  0  0  0  0  0  0  0  0
    6.5490    1.4800   -0.4210 H   0  0  0  0  0  0  0  0  0  0  0  0
    3.1974   -0.4974   -2.2807 H   0  0  0  0  0  0  0  0  0  0  0  0
    3.1459    1.2265   -1.9591 H   0  0  0  0  0  0  0  0  0  0  0  0
    3.0301   -1.6415    1.2981 H   0  0  0  0  0  0  0  0  0  0  0  0
    3.1408   -2.1888   -0.3668 H   0  0  0  0  0  0  0  0  0  0  0  0
   -0.9996   -1.6728   -0.3600 H   0  0  0  0  0  0  0  0  0  0  0  0
   -4.3520   -0.9289    1.8937 H   0  0  0  0  0  0  0  0  0  0  0  0
   -6.2171   -2.5364    2.1014 H   0  0  0  0  0  0  0  0  0  0  0  0
   -6.8548   -3.9634    0.1742 H   0  0  0  0  0  0  0  0  0  0  0  0
   -5.6178   -3.7787   -1.9691 H   0  0  0  0  0  0  0  0  0  0  0  0
   -3.7562   -2.1675   -2.1948 H   0  0  0  0  0  0  0  0  0  0  0  0
  1  2  1  0
  2  3  1  0
  3  4  1  0
  4  5  1  0
  5  6  2  0
  6  7  1  0
  7  8  2  0
  7  9  1  0
 10  9  1  6
 10 11  1  0
 11 12  1  0
 12 13  1  0
 13 14  1  0
 14 15  1  0
 15 16  1  0
 16 17  1  0
 16 18  1  0
 14 19  1  0
  6 20  1  0
 20 21  2  0
 21 22  1  0
 22 23  2  0
 23 24  1  0
 24 25  2  0
 25 26  1  0
 26 27  2  0
 21  4  1  0
 27 22  1  0
 18 10  1  0
 19 10  1  0
 17 12  1  0
  1 28  1  0
  1 29  1  0
  1 30  1  0
  2 31  1  0
  2 32  1  0
  3 33  1  0
  3 34  1  0
  9 35  1  0
 11 36  1  0
 11 37  1  0
 12 38  1  1
 13 39  1  0
 13 40  1  0
 14 41  1  1
 15 42  1  0
 15 43  1  0
 16 44  1  6
 17 45  1  0
 17 46  1  0
 18 47  1  0
 18 48  1  0
 19 49  1  0
 19 50  1  0
 20 51  1  0
 23 52  1  0
 24 53  1  0
 25 54  1  0
 26 55  1  0
 27 56  1  0
M  END
>  <_SMILES>  (27) 
CCCn1nc(C(=O)N[C@]23C[C@H]4C[C@H](C[C@H](C4)C2)C3)cc1-c1ccccc1

$$$$

     RDKit          3D

 27 29  0  0  0  0  0  0  0  0999 V2000
    2.7601    0.3326   -0.5129 O   0  0  0  0  0  0  0  0  0  0  0  0
    1.3743    0.1698   -0.2482 C   0  0  2  0  0  0  0  0  0  0  0  0
    1.0321   -1.3267   -0.1349 C   0  0  0  0  0  0  0  0  0  0  0  0
   -0.4655   -1.5016    0.1655 C   0  0  1  0  0  0  0  0  0  0  0  0
   -0.8006   -0.7923    1.4897 C   0  0  0  0  0  0  0  0  0  0  0  0
   -0.4665    0.7067    1.3874 C   0  0  2  0  0  0  0  0  0  0  0  0
   -1.2878    1.3304    0.2448 C   0  0  0  0  0  0  0  0  0  0  0  0
   -0.9558    0.6347   -1.0875 C   0  0  2  0  0  0  0  0  0  0  0  0
   -1.2859   -0.8643   -0.9705 C   0  0  0  0  0  0  0  0  0  0  0  0
    0.5443    0.7990   -1.3816 C   0  0  0  0  0  0  0  0  0  0  0  0
    1.0308    0.8691    1.0784 C   0  0  0  0  0  0  0  0  0  0  0  0
    2.9586   -0.1146   -1.3532 H   0  0  0  0  0  0  0  0  0  0  0  0
    1.2988   -1.8472   -1.0638 H   0  0  0  0  0  0  0  0  0  0  0  0
    1.6389   -1.7940    0.6514 H   0  0  0  0  0  0  0  0  0  0  0  0
   -0.7064   -2.5675    0.2442 H   0  0  0  0  0  0  0  0  0  0  0  0
   -0.2334   -1.2467    2.3114 H   0  0  0  0  0  0  0  0  0  0  0  0
   -1.8638   -0.9234    1.7258 H   0  0  0  0  0  0  0  0  0  0  0  0
   -0.7070    1.2058    2.3326 H   0  0  0  0  0  0  0  0  0  0  0  0
   -2.3593    1.2358    0.4594 H   0  0  0  0  0  0  0  0  0  0  0  0
   -1.0710    2.4031    0.1707 H   0  0  0  0  0  0  0  0  0  0  0  0
   -1.5440    1.0821   -1.8963 H   0  0  0  0  0  0  0  0  0  0  0  0
   -1.0676   -1.3705   -1.9189 H   0  0  0  0  0  0  0  0  0  0  0  0
   -2.3576   -0.9972   -0.7777 H   0  0  0  0  0  0  0  0  0  0  0  0
    0.7988    0.3314   -2.3416 H   0  0  0  0  0  0  0  0  0  0  0  0
    0.8001    1.8607   -1.4921 H   0  0  0  0  0  0  0  0  0  0  0  0
    1.2978    1.9325    1.0249 H   0  0  0  0  0  0  0  0  0  0  0  0
    1.6375    0.4524    1.8930 H   0  0  0  0  0  0  0  0  0  0  0  0
  2  1  1  6
  2  3  1  0
  3  4  1  0
  4  5  1  0
  5  6  1  0
  6  7  1  0
  7  8  1  0
  8  9  1  0
  8 10  1  0
  6 11  1  0
 10  2  1  0
 11  2  1  0
  9  4  1  0
  1 12  1  0
  3 13  1  0
  3 14  1  0
  4 15  1  1
  5 16  1  0
  5 17  1  0
  6 18  1  1
  7 19  1  0
  7 20  1  0
  8 21  1  6
  9 22  1  0
  9 23  1  0
 10 24  1  0
 10 25  1  0
 11 26  1  0
 11 27  1  0
M  END
>  <_SMILES>  (28) 
O[C@]12C[C@H]3C[C@H](C[C@H](C3)C1)C2

$$$$

     RDKit          3D

 52 55  0  0  0  0  0  0  0  0999 V2000
    2.1107   -2.3848    0.7287 O   0  0  0  0  0  0  0  0  0  0  0  0
    1.3994   -1.3853    0.7467 C   0  0  0  0  0  0  0  0  0  0  0  0
    1.6058   -0.3067    1.5811 N   0  0  0  0  0  0  0  0  0  0  0  0
    2.7950   -0.1576    2.3949 C   0  0  0  0  0  0  0  0  0  0  0  0
    3.9844    0.3210    1.5442 C   0  0  0  0  0  0  0  0  0  0  0  0
    5.0353    1.0971    2.3422 C   0  0  0  0  0  0  0  0  0  0  0  0
    5.0789    0.6622    3.8001 C   0  0  0  0  0  0  0  0  0  0  0  0
    3.7385    0.8892    4.5012 C   0  0  0  0  0  0  0  0  0  0  0  0
    2.5327    0.7912    3.5641 C   0  0  0  0  0  0  0  0  0  0  0  0
    0.2386   -1.2107   -0.1398 C   0  0  0  0  0  0  0  0  0  0  0  0
   -0.2588   -2.1351   -1.0873 C   0  0  0  0  0  0  0  0  0  0  0  0
   -1.3395   -1.5233   -1.6900 C   0  0  0  0  0  0  0  0  0  0  0  0
   -2.2077   -2.0173   -2.7504 C   0  0  0  0  0  0  0  0  0  0  0  0
   -2.2042   -1.4121   -4.0131 C   0  0  0  0  0  0  0  0  0  0  0  0
   -3.0393   -1.8891   -5.0253 C   0  0  0  0  0  0  0  0  0  0  0  0
   -3.8776   -2.9764   -4.7833 C   0  0  0  0  0  0  0  0  0  0  0  0
   -3.8785   -3.5910   -3.5319 C   0  0  0  0  0  0  0  0  0  0  0  0
   -3.0435   -3.1153   -2.5189 C   0  0  0  0  0  0  0  0  0  0  0  0
   -1.4628   -0.3064   -1.0567 N   0  0  0  0  0  0  0  0  0  0  0  0
   -2.4878    0.7074   -1.2761 C   0  0  0  0  0  0  0  0  0  0  0  0
   -1.9451    1.9107   -2.0669 C   0  0  0  0  0  0  0  0  0  0  0  0
   -2.4216    3.1453   -1.3117 C   0  0  0  0  0  0  0  0  0  0  0  0
   -2.4853    2.6852    0.1341 C   0  0  0  0  0  0  0  0  0  0  0  0
   -3.0752    1.2862    0.0244 C   0  0  0  0  0  0  0  0  0  0  0  0
   -0.4930   -0.0786   -0.1406 N   0  0  0  0  0  0  0  0  0  0  0  0
    1.0094    0.4934    1.3815 H   0  0  0  0  0  0  0  0  0  0  0  0
    3.0374   -1.1491    2.8004 H   0  0  0  0  0  0  0  0  0  0  0  0
    3.6430    0.9535    0.7145 H   0  0  0  0  0  0  0  0  0  0  0  0
    4.4538   -0.5538    1.0759 H   0  0  0  0  0  0  0  0  0  0  0  0
    4.8069    2.1694    2.2946 H   0  0  0  0  0  0  0  0  0  0  0  0
    6.0191    0.9674    1.8771 H   0  0  0  0  0  0  0  0  0  0  0  0
    5.3395   -0.4027    3.8497 H   0  0  0  0  0  0  0  0  0  0  0  0
    5.8692    1.2012    4.3347 H   0  0  0  0  0  0  0  0  0  0  0  0
    3.6387    0.1576    5.3123 H   0  0  0  0  0  0  0  0  0  0  0  0
    3.7319    1.8765    4.9790 H   0  0  0  0  0  0  0  0  0  0  0  0
    2.2929    1.7906    3.1763 H   0  0  0  0  0  0  0  0  0  0  0  0
    1.6522    0.4713    4.1349 H   0  0  0  0  0  0  0  0  0  0  0  0
    0.1415   -3.1153   -1.3090 H   0  0  0  0  0  0  0  0  0  0  0  0
   -1.5427   -0.5743   -4.2206 H   0  0  0  0  0  0  0  0  0  0  0  0
   -3.0301   -1.4174   -6.0045 H   0  0  0  0  0  0  0  0  0  0  0  0
   -4.5251   -3.3501   -5.5726 H   0  0  0  0  0  0  0  0  0  0  0  0
   -4.5266   -4.4434   -3.3449 H   0  0  0  0  0  0  0  0  0  0  0  0
   -3.0517   -3.6048   -1.5475 H   0  0  0  0  0  0  0  0  0  0  0  0
   -3.3042    0.2305   -1.8294 H   0  0  0  0  0  0  0  0  0  0  0  0
   -0.8494    1.9060   -2.1157 H   0  0  0  0  0  0  0  0  0  0  0  0
   -2.3133    1.9133   -3.0983 H   0  0  0  0  0  0  0  0  0  0  0  0
   -1.7520    3.9991   -1.4490 H   0  0  0  0  0  0  0  0  0  0  0  0
   -3.4199    3.4360   -1.6601 H   0  0  0  0  0  0  0  0  0  0  0  0
   -3.0985    3.3457    0.7537 H   0  0  0  0  0  0  0  0  0  0  0  0
   -1.4791    2.6444    0.5667 H   0  0  0  0  0  0  0  0  0  0  0  0
   -4.1649    1.3670   -0.0794 H   0  0  0  0  0  0  0  0  0  0  0  0
   -2.8774    0.6825    0.9157 H   0  0  0  0  0  0  0  0  0  0  0  0
  1  2  2  0
  2  3  1  0
  3  4  1  0
  4  5  1  0
  5  6  1  0
  6  7  1  0
  7  8  1  0
  8  9  1  0
  2 10  1  0
 10 11  1  0
 11 12  2  0
 12 13  1  0
 13 14  2  0
 14 15  1  0
 15 16  2  0
 16 17  1  0
 17 18  2  0
 12 19  1  0
 19 20  1  0
 20 21  1  0
 21 22  1  0
 22 23  1  0
 23 24  1  0
 19 25  1  0
  9  4  1  0
 25 10  2  0
 18 13  1  0
 24 20  1  0
  3 26  1  0
  4 27  1  0
  5 28  1  0
  5 29  1  0
  6 30  1  0
  6 31  1  0
  7 32  1  0
  7 33  1  0
  8 34  1  0
  8 35  1  0
  9 36  1  0
  9 37  1  0
 11 38  1  0
 14 39  1  0
 15 40  1  0
 16 41  1  0
 17 42  1  0
 18 43  1  0
 20 44  1  0
 21 45  1  0
 21 46  1  0
 22 47  1  0
 22 48  1  0
 23 49  1  0
 23 50  1  0
 24 51  1  0
 24 52  1  0
M  END
>  <_SMILES>  (29) 
O=C(NC1CCCCC1)c1cc(-c2ccccc2)n(C2CCCC2)n1

$$$$

     RDKit          3D

 55 58  0  0  0  0  0  0  0  0999 V2000
    1.9043    1.9739    1.2862 O   0  0  0  0  0  0  0  0  0  0  0  0
    1.2593    0.9996    0.9119 C   0  0  0  0  0  0  0  0  0  0  0  0
    1.7892   -0.2650    0.7606 N   0  0  0  0  0  0  0  0  0  0  0  0
    3.2136   -0.5478    0.8568 C   0  0  0  0  0  0  0  0  0  0  0  0
    3.9127   -0.2175   -0.4700 C   0  0  0  0  0  0  0  0  0  0  0  0
    5.3656    0.2184   -0.2784 C   0  0  0  0  0  0  0  0  0  0  0  0
    6.3365   -0.8904    0.1112 C   0  0  0  0  0  0  0  0  0  0  0  0
    5.9592   -1.6783    1.3640 C   0  0  0  0  0  0  0  0  0  0  0  0
    4.7825   -2.6203    1.1336 C   0  0  0  0  0  0  0  0  0  0  0  0
    3.3997   -1.9990    1.3152 C   0  0  0  0  0  0  0  0  0  0  0  0
   -0.1676    1.0690    0.5610 C   0  0  0  0  0  0  0  0  0  0  0  0
   -1.0100    2.2026    0.6310 C   0  0  0  0  0  0  0  0  0  0  0  0
   -2.2482    1.7892    0.1824 C   0  0  0  0  0  0  0  0  0  0  0  0
   -3.4777    2.5552    0.0276 C   0  0  0  0  0  0  0  0  0  0  0  0
   -4.1311    3.0690    1.1533 C   0  0  0  0  0  0  0  0  0  0  0  0
   -5.3107    3.8022    1.0097 C   0  0  0  0  0  0  0  0  0  0  0  0
   -5.8396    4.0317   -0.2597 C   0  0  0  0  0  0  0  0  0  0  0  0
   -5.1883    3.5329   -1.3869 C   0  0  0  0  0  0  0  0  0  0  0  0
   -4.0090    2.7991   -1.2446 C   0  0  0  0  0  0  0  0  0  0  0  0
   -2.1032    0.4461   -0.0859 N   0  0  0  0  0  0  0  0  0  0  0  0
   -3.1330   -0.4853   -0.5316 C   0  0  0  0  0  0  0  0  0  0  0  0
   -2.9809   -0.8392   -2.0215 C   0  0  0  0  0  0  0  0  0  0  0  0
   -3.1050   -2.3559   -2.0966 C   0  0  0  0  0  0  0  0  0  0  0  0
   -2.5528   -2.8325   -0.7646 C   0  0  0  0  0  0  0  0  0  0  0  0
   -3.1246   -1.8267    0.2246 C   0  0  0  0  0  0  0  0  0  0  0  0
   -0.8402   -0.0038    0.0987 N   0  0  0  0  0  0  0  0  0  0  0  0
    1.1564   -0.9294    0.3202 H   0  0  0  0  0  0  0  0  0  0  0  0
    3.6081    0.1153    1.6373 H   0  0  0  0  0  0  0  0  0  0  0  0
    3.3940    0.6189   -0.9571 H   0  0  0  0  0  0  0  0  0  0  0  0
    3.8461   -1.0591   -1.1701 H   0  0  0  0  0  0  0  0  0  0  0  0
    5.4128    1.0220    0.4672 H   0  0  0  0  0  0  0  0  0  0  0  0
    5.7194    0.6587   -1.2193 H   0  0  0  0  0  0  0  0  0  0  0  0
    6.4591   -1.5789   -0.7342 H   0  0  0  0  0  0  0  0  0  0  0  0
    7.3209   -0.4337    0.2746 H   0  0  0  0  0  0  0  0  0  0  0  0
    6.8283   -2.2907    1.6364 H   0  0  0  0  0  0  0  0  0  0  0  0
    5.7741   -1.0087    2.2115 H   0  0  0  0  0  0  0  0  0  0  0  0
    4.8618   -3.4602    1.8358 H   0  0  0  0  0  0  0  0  0  0  0  0
    4.8530   -3.0658    0.1333 H   0  0  0  0  0  0  0  0  0  0  0  0
    3.1287   -2.0519    2.3788 H   0  0  0  0  0  0  0  0  0  0  0  0
    2.6762   -2.6500    0.8054 H   0  0  0  0  0  0  0  0  0  0  0  0
   -0.7326    3.1979    0.9514 H   0  0  0  0  0  0  0  0  0  0  0  0
   -3.7271    2.8986    2.1488 H   0  0  0  0  0  0  0  0  0  0  0  0
   -5.8141    4.1971    1.8884 H   0  0  0  0  0  0  0  0  0  0  0  0
   -6.7558    4.6062   -0.3706 H   0  0  0  0  0  0  0  0  0  0  0  0
   -5.5945    3.7219   -2.3772 H   0  0  0  0  0  0  0  0  0  0  0  0
   -3.5019    2.4307   -2.1333 H   0  0  0  0  0  0  0  0  0  0  0  0
   -4.1027   -0.0072   -0.3553 H   0  0  0  0  0  0  0  0  0  0  0  0
   -2.0070   -0.5267   -2.4175 H   0  0  0  0  0  0  0  0  0  0  0  0
   -3.7483   -0.3505   -2.6312 H   0  0  0  0  0  0  0  0  0  0  0  0
   -4.1592   -2.6418   -2.1926 H   0  0  0  0  0  0  0  0  0  0  0  0
   -2.5607   -2.7745   -2.9480 H   0  0  0  0  0  0  0  0  0  0  0  0
   -2.8539   -3.8581   -0.5330 H   0  0  0  0  0  0  0  0  0  0  0  0
   -1.4576   -2.7881   -0.7671 H   0  0  0  0  0  0  0  0  0  0  0  0
   -2.5668   -1.8093    1.1662 H   0  0  0  0  0  0  0  0  0  0  0  0
   -4.1577   -2.1103    0.4629 H   0  0  0  0  0  0  0  0  0  0  0  0
  1  2  2  0
  2  3  1  0
  3  4  1  0
  4  5  1  0
  5  6  1  0
  6  7  1  0
  7  8  1  0
  8  9  1  0
  9 10  1  0
  2 11  1  0
 11 12  1  0
 12 13  2  0
 13 14  1  0
 14 15  2  0
 15 16  1  0
 16 17  2  0
 17 18  1  0
 18 19  2  0
 13 20  1  0
 20 21  1  0
 21 22  1  0
 22 23  1  0
 23 24  1  0
 24 25  1  0
 20 26  1  0
 10  4  1  0
 26 11  2  0
 19 14  1  0
 25 21  1  0
  3 27  1  0
  4 28  1  0
  5 29  1  0
  5 30  1  0
  6 31  1  0
  6 32  1  0
  7 33  1  0
  7 34  1  0
  8 35  1  0
  8 36  1  0
  9 37  1  0
  9 38  1  0
 10 39  1  0
 10 40  1  0
 12 41  1  0
 15 42  1  0
 16 43  1  0
 17 44  1  0
 18 45  1  0
 19 46  1  0
 21 47  1  0
 22 48  1  0
 22 49  1  0
 23 50  1  0
 23 51  1  0
 24 52  1  0
 24 53  1  0
 25 54  1  0
 25 55  1  0
M  END
>  <_SMILES>  (30) 
O=C(NC1CCCCCC1)c1cc(-c2ccccc2)n(C2CCCC2)n1

$$$$

     RDKit          3D

 49 52  0  0  0  0  0  0  0  0999 V2000
    2.8269    2.2266    0.5652 O   0  0  0  0  0  0  0  0  0  0  0  0
    2.2046    1.1713    0.6369 C   0  0  0  0  0  0  0  0  0  0  0  0
    2.7940   -0.0633    0.7815 N   0  0  0  0  0  0  0  0  0  0  0  0
    4.2131   -0.2678    0.6783 C   0  0  0  0  0  0  0  0  0  0  0  0
    4.5943   -0.7135   -0.7093 C   0  0  0  0  0  0  0  0  0  0  0  0
    4.7008   -2.0766   -1.0203 C   0  0  0  0  0  0  0  0  0  0  0  0
    5.0340   -2.4829   -2.3137 C   0  0  0  0  0  0  0  0  0  0  0  0
    5.2558   -1.5327   -3.3092 C   0  0  0  0  0  0  0  0  0  0  0  0
    5.1413   -0.1756   -3.0143 C   0  0  0  0  0  0  0  0  0  0  0  0
    4.8089    0.2327   -1.7219 C   0  0  0  0  0  0  0  0  0  0  0  0
    0.7370    1.1007    0.5638 C   0  0  0  0  0  0  0  0  0  0  0  0
   -0.1643    2.1829    0.4351 C   0  0  0  0  0  0  0  0  0  0  0  0
   -1.4288    1.6296    0.4184 C   0  0  0  0  0  0  0  0  0  0  0  0
   -2.7245    2.2890    0.3248 C   0  0  0  0  0  0  0  0  0  0  0  0
   -3.0792    2.9778   -0.8405 C   0  0  0  0  0  0  0  0  0  0  0  0
   -4.3207    3.6097   -0.9350 C   0  0  0  0  0  0  0  0  0  0  0  0
   -5.2114    3.5624    0.1365 C   0  0  0  0  0  0  0  0  0  0  0  0
   -4.8608    2.8877    1.3051 C   0  0  0  0  0  0  0  0  0  0  0  0
   -3.6198    2.2550    1.4008 C   0  0  0  0  0  0  0  0  0  0  0  0
   -1.2265    0.2690    0.4863 N   0  0  0  0  0  0  0  0  0  0  0  0
   -2.2366   -0.7816    0.4362 C   0  0  0  0  0  0  0  0  0  0  0  0
   -2.4755   -1.4152    1.8179 C   0  0  0  0  0  0  0  0  0  0  0  0
   -2.4576   -2.9210    1.5860 C   0  0  0  0  0  0  0  0  0  0  0  0
   -1.5045   -3.0976    0.4171 C   0  0  0  0  0  0  0  0  0  0  0  0
   -1.8739   -1.9447   -0.5056 C   0  0  0  0  0  0  0  0  0  0  0  0
    0.0766   -0.0731    0.6131 N   0  0  0  0  0  0  0  0  0  0  0  0
    2.1580   -0.8513    0.7002 H   0  0  0  0  0  0  0  0  0  0  0  0
    4.7546    0.6468    0.9455 H   0  0  0  0  0  0  0  0  0  0  0  0
    4.4884   -1.0329    1.4126 H   0  0  0  0  0  0  0  0  0  0  0  0
    4.5239   -2.8302   -0.2565 H   0  0  0  0  0  0  0  0  0  0  0  0
    5.1176   -3.5413   -2.5459 H   0  0  0  0  0  0  0  0  0  0  0  0
    5.5133   -1.8497   -4.3162 H   0  0  0  0  0  0  0  0  0  0  0  0
    5.3065    0.5667   -3.7908 H   0  0  0  0  0  0  0  0  0  0  0  0
    4.7113    1.2954   -1.5050 H   0  0  0  0  0  0  0  0  0  0  0  0
    0.0872    3.2336    0.3814 H   0  0  0  0  0  0  0  0  0  0  0  0
   -2.3922    3.0234   -1.6826 H   0  0  0  0  0  0  0  0  0  0  0  0
   -4.5906    4.1415   -1.8438 H   0  0  0  0  0  0  0  0  0  0  0  0
   -6.1761    4.0581    0.0633 H   0  0  0  0  0  0  0  0  0  0  0  0
   -5.5505    2.8607    2.1447 H   0  0  0  0  0  0  0  0  0  0  0  0
   -3.3521    1.7470    2.3242 H   0  0  0  0  0  0  0  0  0  0  0  0
   -3.1616   -0.3266    0.0659 H   0  0  0  0  0  0  0  0  0  0  0  0
   -3.4301   -1.0939    2.2480 H   0  0  0  0  0  0  0  0  0  0  0  0
   -1.6908   -1.1409    2.5336 H   0  0  0  0  0  0  0  0  0  0  0  0
   -3.4603   -3.2703    1.3122 H   0  0  0  0  0  0  0  0  0  0  0  0
   -2.1363   -3.4731    2.4739 H   0  0  0  0  0  0  0  0  0  0  0  0
   -1.6193   -4.0704   -0.0693 H   0  0  0  0  0  0  0  0  0  0  0  0
   -0.4656   -3.0020    0.7534 H   0  0  0  0  0  0  0  0  0  0  0  0
   -2.7616   -2.2252   -1.0871 H   0  0  0  0  0  0  0  0  0  0  0  0
   -1.0770   -1.7144   -1.2196 H   0  0  0  0  0  0  0  0  0  0  0  0
  1  2  2  0
  2  3  1  0
  3  4  1  0
  4  5  1  0
  5  6  2  0
  6  7  1  0
  7  8  2  0
  8  9  1  0
  9 10  2  0
  2 11  1  0
 11 12  1  0
 12 13  2  0
 13 14  1  0
 14 15  2  0
 15 16  1  0
 16 17  2  0
 17 18  1  0
 18 19  2  0
 13 20  1  0
 20 21  1  0
 21 22  1  0
 22 23  1  0
 23 24  1  0
 24 25  1  0
 20 26  1  0
 10  5  1  0
 26 11  2  0
 19 14  1  0
 25 21  1  0
  3 27  1  0
  4 28  1  0
  4 29  1  0
  6 30  1  0
  7 31  1  0
  8 32  1  0
  9 33  1  0
 10 34  1  0
 12 35  1  0
 15 36  1  0
 16 37  1  0
 17 38  1  0
 18 39  1  0
 19 40  1  0
 21 41  1  0
 22 42  1  0
 22 43  1  0
 23 44  1  0
 23 45  1  0
 24 46  1  0
 24 47  1  0
 25 48  1  0
 25 49  1  0
M  END
>  <_SMILES>  (31) 
O=C(NCc1ccccc1)c1cc(-c2ccccc2)n(C2CCCC2)n1

$$$$

     RDKit          3D

 43 46  0  0  0  0  0  0  0  0999 V2000
    3.2231    2.3526   -0.8385 O   0  0  0  0  0  0  0  0  0  0  0  0
    2.7176    1.2505   -0.6457 C   0  0  0  0  0  0  0  0  0  0  0  0
    3.4078    0.0557   -0.7035 N   0  0  0  0  0  0  0  0  0  0  0  0
    4.7986   -0.0437   -0.9813 C   0  0  0  0  0  0  0  0  0  0  0  0
    5.5058   -1.3680   -0.8900 C   0  0  0  0  0  0  0  0  0  0  0  0
    5.7804   -0.3004    0.1277 C   0  0  0  0  0  0  0  0  0  0  0  0
    1.2936    1.0681   -0.3274 C   0  0  0  0  0  0  0  0  0  0  0  0
    0.3111    2.0772   -0.1995 C   0  0  0  0  0  0  0  0  0  0  0  0
   -0.8723    1.4270    0.0871 C   0  0  0  0  0  0  0  0  0  0  0  0
   -2.2034    1.9811    0.2961 C   0  0  0  0  0  0  0  0  0  0  0  0
   -3.2338    1.7212   -0.6155 C   0  0  0  0  0  0  0  0  0  0  0  0
   -4.5079    2.2539   -0.4095 C   0  0  0  0  0  0  0  0  0  0  0  0
   -4.7576    3.0536    0.7047 C   0  0  0  0  0  0  0  0  0  0  0  0
   -3.7338    3.3258    1.6110 C   0  0  0  0  0  0  0  0  0  0  0  0
   -2.4591    2.7941    1.4060 C   0  0  0  0  0  0  0  0  0  0  0  0
   -0.5404    0.0925    0.1625 N   0  0  0  0  0  0  0  0  0  0  0  0
   -1.4188   -1.0220    0.4991 C   0  0  0  0  0  0  0  0  0  0  0  0
   -1.7869   -1.8572   -0.7397 C   0  0  0  0  0  0  0  0  0  0  0  0
   -1.5809   -3.3101   -0.3296 C   0  0  0  0  0  0  0  0  0  0  0  0
   -0.4566   -3.2443    0.6890 C   0  0  0  0  0  0  0  0  0  0  0  0
   -0.8065   -2.0104    1.5088 C   0  0  0  0  0  0  0  0  0  0  0  0
    0.7608   -0.1525   -0.1198 N   0  0  0  0  0  0  0  0  0  0  0  0
    2.8467   -0.7738   -0.5258 H   0  0  0  0  0  0  0  0  0  0  0  0
    5.1240    0.6245   -1.7767 H   0  0  0  0  0  0  0  0  0  0  0  0
    6.2749   -1.5800   -1.6238 H   0  0  0  0  0  0  0  0  0  0  0  0
    4.9450   -2.2383   -0.5712 H   0  0  0  0  0  0  0  0  0  0  0  0
    6.7314    0.2176    0.0843 H   0  0  0  0  0  0  0  0  0  0  0  0
    5.3966   -0.4391    1.1315 H   0  0  0  0  0  0  0  0  0  0  0  0
    0.4549    3.1423   -0.3236 H   0  0  0  0  0  0  0  0  0  0  0  0
   -3.0484    1.1134   -1.4981 H   0  0  0  0  0  0  0  0  0  0  0  0
   -5.3032    2.0514   -1.1223 H   0  0  0  0  0  0  0  0  0  0  0  0
   -5.7487    3.4714    0.8631 H   0  0  0  0  0  0  0  0  0  0  0  0
   -3.9261    3.9553    2.4761 H   0  0  0  0  0  0  0  0  0  0  0  0
   -1.6681    3.0157    2.1190 H   0  0  0  0  0  0  0  0  0  0  0  0
   -2.3229   -0.5992    0.9503 H   0  0  0  0  0  0  0  0  0  0  0  0
   -1.1455   -1.6195   -1.5971 H   0  0  0  0  0  0  0  0  0  0  0  0
   -2.8213   -1.6788   -1.0522 H   0  0  0  0  0  0  0  0  0  0  0  0
   -1.3354   -3.9503   -1.1817 H   0  0  0  0  0  0  0  0  0  0  0  0
   -2.4924   -3.7007    0.1384 H   0  0  0  0  0  0  0  0  0  0  0  0
    0.5077   -3.1095    0.1856 H   0  0  0  0  0  0  0  0  0  0  0  0
   -0.3993   -4.1472    1.3036 H   0  0  0  0  0  0  0  0  0  0  0  0
   -1.5677   -2.2813    2.2518 H   0  0  0  0  0  0  0  0  0  0  0  0
    0.0567   -1.6185    2.0559 H   0  0  0  0  0  0  0  0  0  0  0  0
  1  2  2  0
  2  3  1  0
  3  4  1  0
  4  5  1  0
  5  6  1  0
  2  7  1  0
  7  8  1  0
  8  9  2  0
  9 10  1  0
 10 11  2  0
 11 12  1  0
 12 13  2  0
 13 14  1  0
 14 15  2  0
  9 16  1  0
 16 17  1  0
 17 18  1  0
 18 19  1  0
 19 20  1  0
 20 21  1  0
 16 22  1  0
  6  4  1  0
 22  7  2  0
 15 10  1  0
 21 17  1  0
  3 23  1  0
  4 24  1  0
  5 25  1  0
  5 26  1  0
  6 27  1  0
  6 28  1  0
  8 29  1  0
 11 30  1  0
 12 31  1  0
 13 32  1  0
 14 33  1  0
 15 34  1  0
 17 35  1  0
 18 36  1  0
 18 37  1  0
 19 38  1  0
 19 39  1  0
 20 40  1  0
 20 41  1  0
 21 42  1  0
 21 43  1  0
M  END
>  <_SMILES>  (32) 
O=C(NC1CC1)c1cc(-c2ccccc2)n(C2CCCC2)n1

$$$$

     RDKit          3D

 48 50  0  0  0  0  0  0  0  0999 V2000
    5.1711    1.0468    0.9732 C   0  0  0  0  0  0  0  0  0  0  0  0
    4.4886   -0.2290    0.4441 C   0  0  0  0  0  0  0  0  0  0  0  0
    5.1693   -0.6177   -0.8788 C   0  0  0  0  0  0  0  0  0  0  0  0
    4.6716   -1.3458    1.4832 C   0  0  0  0  0  0  0  0  0  0  0  0
    3.0635    0.0727    0.2451 N   0  0  0  0  0  0  0  0  0  0  0  0
    2.1306   -0.8258   -0.2542 C   0  0  0  0  0  0  0  0  0  0  0  0
    2.4333   -1.9516   -0.6390 O   0  0  0  0  0  0  0  0  0  0  0  0
    0.7402   -0.3184   -0.2669 C   0  0  0  0  0  0  0  0  0  0  0  0
    0.2889    1.0264   -0.1787 C   0  0  0  0  0  0  0  0  0  0  0  0
   -1.0902    0.9796   -0.2224 C   0  0  0  0  0  0  0  0  0  0  0  0
   -2.0547    2.0692   -0.1651 C   0  0  0  0  0  0  0  0  0  0  0  0
   -2.1583    2.9710   -1.2301 C   0  0  0  0  0  0  0  0  0  0  0  0
   -3.0820    4.0168   -1.1799 C   0  0  0  0  0  0  0  0  0  0  0  0
   -3.9024    4.1701   -0.0631 C   0  0  0  0  0  0  0  0  0  0  0  0
   -3.7983    3.2810    1.0057 C   0  0  0  0  0  0  0  0  0  0  0  0
   -2.8754    2.2345    0.9567 C   0  0  0  0  0  0  0  0  0  0  0  0
   -1.3982   -0.3540   -0.3738 N   0  0  0  0  0  0  0  0  0  0  0  0
   -2.7249   -0.9385   -0.5381 C   0  0  0  0  0  0  0  0  0  0  0  0
   -2.7915   -2.0955   -1.5413 C   0  0  0  0  0  0  0  0  0  0  0  0
   -2.5996   -3.3765   -0.7279 C   0  0  0  0  0  0  0  0  0  0  0  0
   -2.7281   -2.9878    0.7428 C   0  0  0  0  0  0  0  0  0  0  0  0
   -3.2609   -1.5608    0.7508 C   0  0  0  0  0  0  0  0  0  0  0  0
   -0.3104   -1.1485   -0.3774 N   0  0  0  0  0  0  0  0  0  0  0  0
    5.0580    1.8768    0.2659 H   0  0  0  0  0  0  0  0  0  0  0  0
    4.7279    1.3673    1.9235 H   0  0  0  0  0  0  0  0  0  0  0  0
    6.2426    0.8892    1.1398 H   0  0  0  0  0  0  0  0  0  0  0  0
    5.0019    0.1470   -1.6461 H   0  0  0  0  0  0  0  0  0  0  0  0
    6.2515   -0.7311   -0.7472 H   0  0  0  0  0  0  0  0  0  0  0  0
    4.7932   -1.5659   -1.2747 H   0  0  0  0  0  0  0  0  0  0  0  0
    4.2506   -2.2964    1.1403 H   0  0  0  0  0  0  0  0  0  0  0  0
    5.7326   -1.5167    1.6977 H   0  0  0  0  0  0  0  0  0  0  0  0
    4.1742   -1.0905    2.4260 H   0  0  0  0  0  0  0  0  0  0  0  0
    2.6955    0.8745    0.7363 H   0  0  0  0  0  0  0  0  0  0  0  0
    0.8857    1.9234   -0.0975 H   0  0  0  0  0  0  0  0  0  0  0  0
   -1.5253    2.8604   -2.1078 H   0  0  0  0  0  0  0  0  0  0  0  0
   -3.1609    4.7116   -2.0122 H   0  0  0  0  0  0  0  0  0  0  0  0
   -4.6205    4.9854   -0.0241 H   0  0  0  0  0  0  0  0  0  0  0  0
   -4.4327    3.4052    1.8797 H   0  0  0  0  0  0  0  0  0  0  0  0
   -2.7954    1.5565    1.8030 H   0  0  0  0  0  0  0  0  0  0  0  0
   -3.3841   -0.1336   -0.8800 H   0  0  0  0  0  0  0  0  0  0  0  0
   -2.0648   -2.0125   -2.3562 H   0  0  0  0  0  0  0  0  0  0  0  0
   -3.7888   -2.1187   -1.9987 H   0  0  0  0  0  0  0  0  0  0  0  0
   -1.6177   -3.8227   -0.9202 H   0  0  0  0  0  0  0  0  0  0  0  0
   -3.3527   -4.1218   -1.0063 H   0  0  0  0  0  0  0  0  0  0  0  0
   -3.3863   -3.6699    1.2902 H   0  0  0  0  0  0  0  0  0  0  0  0
   -1.7452   -3.0283    1.2264 H   0  0  0  0  0  0  0  0  0  0  0  0
   -2.9644   -1.0222    1.6561 H   0  0  0  0  0  0  0  0  0  0  0  0
   -4.3572   -1.5854    0.7172 H   0  0  0  0  0  0  0  0  0  0  0  0
  1  2  1  0
  2  3  1  0
  2  4  1  0
  2  5  1  0
  5  6  1  0
  6  7  2  0
  6  8  1  0
  8  9  1  0
  9 10  2  0
 10 11  1  0
 11 12  2  0
 12 13  1  0
 13 14  2  0
 14 15  1  0
 15 16  2  0
 10 17  1  0
 17 18  1  0
 18 19  1  0
 19 20  1  0
 20 21  1  0
 21 22  1  0
 17 23  1  0
 23  8  2  0
 16 11  1  0
 22 18  1  0
  1 24  1  0
  1 25  1  0
  1 26  1  0
  3 27  1  0
  3 28  1  0
  3 29  1  0
  4 30  1  0
  4 31  1  0
  4 32  1  0
  5 33  1  0
  9 34  1  0
 12 35  1  0
 13 36  1  0
 14 37  1  0
 15 38  1  0
 16 39  1  0
 18 40  1  0
 19 41  1  0
 19 42  1  0
 20 43  1  0
 20 44  1  0
 21 45  1  0
 21 46  1  0
 22 47  1  0
 22 48  1  0
M  END
>  <_SMILES>  (33) 
CC(C)(C)NC(=O)c1cc(-c2ccccc2)n(C2CCCC2)n1

$$$$

     RDKit          3D

 48 50  0  0  0  0  0  0  0  0999 V2000
    6.7257    1.0183    1.6625 C   0  0  0  0  0  0  0  0  0  0  0  0
    5.9193    1.8422    0.6706 C   0  0  0  0  0  0  0  0  0  0  0  0
    4.5389    1.2553    0.3728 C   0  0  0  0  0  0  0  0  0  0  0  0
    3.6067    1.2602    1.5828 C   0  0  0  0  0  0  0  0  0  0  0  0
    2.2801    0.8188    1.2271 N   0  0  0  0  0  0  0  0  0  0  0  0
    1.9253   -0.5097    1.1386 C   0  0  0  0  0  0  0  0  0  0  0  0
    2.6702   -1.4387    1.4348 O   0  0  0  0  0  0  0  0  0  0  0  0
    0.5553   -0.7072    0.6404 C   0  0  0  0  0  0  0  0  0  0  0  0
   -0.1124   -1.9388    0.4467 C   0  0  0  0  0  0  0  0  0  0  0  0
   -1.3609   -1.6248   -0.0512 C   0  0  0  0  0  0  0  0  0  0  0  0
   -2.4473   -2.5112   -0.4467 C   0  0  0  0  0  0  0  0  0  0  0  0
   -2.8371   -2.6047   -1.7882 C   0  0  0  0  0  0  0  0  0  0  0  0
   -3.8798   -3.4550   -2.1613 C   0  0  0  0  0  0  0  0  0  0  0  0
   -4.5344   -4.2205   -1.1973 C   0  0  0  0  0  0  0  0  0  0  0  0
   -4.1445   -4.1408    0.1388 C   0  0  0  0  0  0  0  0  0  0  0  0
   -3.1016   -3.2912    0.5132 C   0  0  0  0  0  0  0  0  0  0  0  0
   -1.3974   -0.2485   -0.0879 N   0  0  0  0  0  0  0  0  0  0  0  0
   -2.5174    0.5982   -0.4820 C   0  0  0  0  0  0  0  0  0  0  0  0
   -2.7679    1.7796    0.4734 C   0  0  0  0  0  0  0  0  0  0  0  0
   -2.2834    3.0079   -0.2841 C   0  0  0  0  0  0  0  0  0  0  0  0
   -2.6550    2.6933   -1.7225 C   0  0  0  0  0  0  0  0  0  0  0  0
   -2.3064    1.2179   -1.8746 C   0  0  0  0  0  0  0  0  0  0  0  0
   -0.2336    0.3288    0.2918 N   0  0  0  0  0  0  0  0  0  0  0  0
    6.8188   -0.0196    1.3275 H   0  0  0  0  0  0  0  0  0  0  0  0
    6.2658    1.0222    2.6550 H   0  0  0  0  0  0  0  0  0  0  0  0
    7.7338    1.4333    1.7633 H   0  0  0  0  0  0  0  0  0  0  0  0
    6.4809    1.9038   -0.2691 H   0  0  0  0  0  0  0  0  0  0  0  0
    5.8164    2.8670    1.0459 H   0  0  0  0  0  0  0  0  0  0  0  0
    4.0802    1.8409   -0.4343 H   0  0  0  0  0  0  0  0  0  0  0  0
    4.6465    0.2342   -0.0135 H   0  0  0  0  0  0  0  0  0  0  0  0
    3.9896    0.6051    2.3719 H   0  0  0  0  0  0  0  0  0  0  0  0
    3.5098    2.2716    1.9905 H   0  0  0  0  0  0  0  0  0  0  0  0
    1.5845    1.4740    0.8785 H   0  0  0  0  0  0  0  0  0  0  0  0
    0.2850   -2.9278    0.6314 H   0  0  0  0  0  0  0  0  0  0  0  0
   -2.3236   -2.0264   -2.5527 H   0  0  0  0  0  0  0  0  0  0  0  0
   -4.1761   -3.5260   -3.2047 H   0  0  0  0  0  0  0  0  0  0  0  0
   -5.3438   -4.8853   -1.4883 H   0  0  0  0  0  0  0  0  0  0  0  0
   -4.6496   -4.7429    0.8898 H   0  0  0  0  0  0  0  0  0  0  0  0
   -2.8051   -3.2396    1.5585 H   0  0  0  0  0  0  0  0  0  0  0  0
   -3.4155   -0.0290   -0.4815 H   0  0  0  0  0  0  0  0  0  0  0  0
   -3.8468    1.8743    0.6511 H   0  0  0  0  0  0  0  0  0  0  0  0
   -2.2852    1.6789    1.4505 H   0  0  0  0  0  0  0  0  0  0  0  0
   -1.1971    3.1158   -0.1851 H   0  0  0  0  0  0  0  0  0  0  0  0
   -2.7535    3.9279    0.0748 H   0  0  0  0  0  0  0  0  0  0  0  0
   -2.1188    3.3217   -2.4393 H   0  0  0  0  0  0  0  0  0  0  0  0
   -3.7304    2.8426   -1.8763 H   0  0  0  0  0  0  0  0  0  0  0  0
   -2.9402    0.7388   -2.6283 H   0  0  0  0  0  0  0  0  0  0  0  0
   -1.2683    1.1153   -2.2135 H   0  0  0  0  0  0  0  0  0  0  0  0
  1  2  1  0
  2  3  1  0
  3  4  1  0
  4  5  1  0
  5  6  1  0
  6  7  2  0
  6  8  1  0
  8  9  1  0
  9 10  2  0
 10 11  1  0
 11 12  2  0
 12 13  1  0
 13 14  2  0
 14 15  1  0
 15 16  2  0
 10 17  1  0
 17 18  1  0
 18 19  1  0
 19 20  1  0
 20 21  1  0
 21 22  1  0
 17 23  1  0
 23  8  2  0
 16 11  1  0
 22 18  1  0
  1 24  1  0
  1 25  1  0
  1 26  1  0
  2 27  1  0
  2 28  1  0
  3 29  1  0
  3 30  1  0
  4 31  1  0
  4 32  1  0
  5 33  1  0
  9 34  1  0
 12 35  1  0
 13 36  1  0
 14 37  1  0
 15 38  1  0
 16 39  1  0
 18 40  1  0
 19 41  1  0
 19 42  1  0
 20 43  1  0
 20 44  1  0
 21 45  1  0
 21 46  1  0
 22 47  1  0
 22 48  1  0
M  END
>  <_SMILES>  (34) 
CCCCNC(=O)c1cc(-c2ccccc2)n(C2CCCC2)n1

$$$$

     RDKit          3D

 49 52  0  0  0  0  0  0  0  0999 V2000
    1.4851   -1.7702   -2.4958 O   0  0  0  0  0  0  0  0  0  0  0  0
    1.5267   -0.7964   -1.7471 C   0  0  0  0  0  0  0  0  0  0  0  0
    2.7057   -0.1014   -1.5143 N   0  0  0  0  0  0  0  0  0  0  0  0
    3.9700   -0.5752   -2.0530 C   0  0  0  0  0  0  0  0  0  0  0  0
    4.5796   -1.6784   -1.1907 C   0  0  0  0  0  0  0  0  0  0  0  0
    5.2523   -0.9348   -0.0405 C   0  0  0  0  0  0  0  0  0  0  0  0
    5.5945    0.4545   -0.5787 C   0  0  0  0  0  0  0  0  0  0  0  0
    5.0388    0.5123   -2.0007 C   0  0  0  0  0  0  0  0  0  0  0  0
    0.3516   -0.2821   -1.0122 C   0  0  0  0  0  0  0  0  0  0  0  0
    0.1922    0.9759   -0.3698 C   0  0  0  0  0  0  0  0  0  0  0  0
   -1.0711    0.9738    0.1877 C   0  0  0  0  0  0  0  0  0  0  0  0
   -1.7381    2.0032    0.9729 C   0  0  0  0  0  0  0  0  0  0  0  0
   -2.0317    1.7872    2.3247 C   0  0  0  0  0  0  0  0  0  0  0  0
   -2.6694    2.7778    3.0740 C   0  0  0  0  0  0  0  0  0  0  0  0
   -3.0123    3.9906    2.4783 C   0  0  0  0  0  0  0  0  0  0  0  0
   -2.7151    4.2162    1.1350 C   0  0  0  0  0  0  0  0  0  0  0  0
   -2.0768    3.2268    0.3845 C   0  0  0  0  0  0  0  0  0  0  0  0
   -1.6200   -0.2323   -0.1815 N   0  0  0  0  0  0  0  0  0  0  0  0
   -2.9669   -0.7182    0.0917 C   0  0  0  0  0  0  0  0  0  0  0  0
   -3.6609   -1.3492   -1.1297 C   0  0  0  0  0  0  0  0  0  0  0  0
   -3.6728   -2.8451   -0.8474 C   0  0  0  0  0  0  0  0  0  0  0  0
   -3.8714   -2.9102    0.6567 C   0  0  0  0  0  0  0  0  0  0  0  0
   -2.9782   -1.7968    1.1891 C   0  0  0  0  0  0  0  0  0  0  0  0
   -0.7661   -1.0146   -0.8710 N   0  0  0  0  0  0  0  0  0  0  0  0
    2.7309    0.5239   -0.7221 H   0  0  0  0  0  0  0  0  0  0  0  0
    3.8023   -0.9205   -3.0788 H   0  0  0  0  0  0  0  0  0  0  0  0
    5.3417   -2.2178   -1.7667 H   0  0  0  0  0  0  0  0  0  0  0  0
    3.8495   -2.4097   -0.8306 H   0  0  0  0  0  0  0  0  0  0  0  0
    4.5632   -0.8438    0.8074 H   0  0  0  0  0  0  0  0  0  0  0  0
    6.1408   -1.4657    0.3154 H   0  0  0  0  0  0  0  0  0  0  0  0
    5.1287    1.2231    0.0488 H   0  0  0  0  0  0  0  0  0  0  0  0
    6.6740    0.6370   -0.5707 H   0  0  0  0  0  0  0  0  0  0  0  0
    5.8420    0.2727   -2.7086 H   0  0  0  0  0  0  0  0  0  0  0  0
    4.6578    1.5077   -2.2506 H   0  0  0  0  0  0  0  0  0  0  0  0
    0.9041    1.7866   -0.3120 H   0  0  0  0  0  0  0  0  0  0  0  0
   -1.7582    0.8506    2.8052 H   0  0  0  0  0  0  0  0  0  0  0  0
   -2.8945    2.6049    4.1234 H   0  0  0  0  0  0  0  0  0  0  0  0
   -3.5080    4.7622    3.0621 H   0  0  0  0  0  0  0  0  0  0  0  0
   -2.9799    5.1630    0.6710 H   0  0  0  0  0  0  0  0  0  0  0  0
   -1.8527    3.4140   -0.6632 H   0  0  0  0  0  0  0  0  0  0  0  0
   -3.5651    0.1435    0.4075 H   0  0  0  0  0  0  0  0  0  0  0  0
   -4.6964   -0.9886   -1.1794 H   0  0  0  0  0  0  0  0  0  0  0  0
   -3.1886   -1.1130   -2.0884 H   0  0  0  0  0  0  0  0  0  0  0  0
   -4.4656   -3.3634   -1.3942 H   0  0  0  0  0  0  0  0  0  0  0  0
   -2.7127   -3.2949   -1.1256 H   0  0  0  0  0  0  0  0  0  0  0  0
   -4.9185   -2.7049    0.9092 H   0  0  0  0  0  0  0  0  0  0  0  0
   -3.6070   -3.8873    1.0709 H   0  0  0  0  0  0  0  0  0  0  0  0
   -3.3602   -1.4029    2.1369 H   0  0  0  0  0  0  0  0  0  0  0  0
   -1.9731   -2.1898    1.3847 H   0  0  0  0  0  0  0  0  0  0  0  0
  1  2  2  0
  2  3  1  0
  3  4  1  0
  4  5  1  0
  5  6  1  0
  6  7  1  0
  7  8  1  0
  2  9  1  0
  9 10  1  0
 10 11  2  0
 11 12  1  0
 12 13  2  0
 13 14  1  0
 14 15  2  0
 15 16  1  0
 16 17  2  0
 11 18  1  0
 18 19  1  0
 19 20  1  0
 20 21  1  0
 21 22  1  0
 22 23  1  0
 18 24  1  0
  8  4  1  0
 24  9  2  0
 17 12  1  0
 23 19  1  0
  3 25  1  0
  4 26  1  0
  5 27  1  0
  5 28  1  0
  6 29  1  0
  6 30  1  0
  7 31  1  0
  7 32  1  0
  8 33  1  0
  8 34  1  0
 10 35  1  0
 13 36  1  0
 14 37  1  0
 15 38  1  0
 16 39  1  0
 17 40  1  0
 19 41  1  0
 20 42  1  0
 20 43  1  0
 21 44  1  0
 21 45  1  0
 22 46  1  0
 22 47  1  0
 23 48  1  0
 23 49  1  0
M  END
>  <_SMILES>  (35) 
O=C(NC1CCCC1)c1cc(-c2ccccc2)n(C2CCCC2)n1

$$$$

     RDKit          3D

 55 58  0  0  0  0  0  0  0  0999 V2000
    1.5544   -3.2845   -0.9332 O   0  0  0  0  0  0  0  0  0  0  0  0
    1.2239   -2.1814   -0.5102 C   0  0  0  0  0  0  0  0  0  0  0  0
    2.0194   -1.3922    0.2937 N   0  0  0  0  0  0  0  0  0  0  0  0
    3.4048   -1.7024    0.5482 C   0  0  0  0  0  0  0  0  0  0  0  0
    3.9950   -0.9532    1.7522 C   0  0  0  0  0  0  0  0  0  0  0  0
    4.0542    0.5659    1.5227 C   0  0  0  0  0  0  0  0  0  0  0  0
    4.6663    1.2892    2.7211 C   0  0  0  0  0  0  0  0  0  0  0  0
    3.9297    0.9557    4.0149 C   0  0  0  0  0  0  0  0  0  0  0  0
    3.8607   -0.5502    4.2501 C   0  0  0  0  0  0  0  0  0  0  0  0
    3.2490   -1.2802    3.0558 C   0  0  0  0  0  0  0  0  0  0  0  0
   -0.0679   -1.5527   -0.8268 C   0  0  0  0  0  0  0  0  0  0  0  0
   -1.1227   -2.1008   -1.5923 C   0  0  0  0  0  0  0  0  0  0  0  0
   -2.1109   -1.1373   -1.6292 C   0  0  0  0  0  0  0  0  0  0  0  0
   -3.4059   -1.1672   -2.2959 C   0  0  0  0  0  0  0  0  0  0  0  0
   -3.6757   -0.3058   -3.3663 C   0  0  0  0  0  0  0  0  0  0  0  0
   -4.9190   -0.3381   -4.0008 C   0  0  0  0  0  0  0  0  0  0  0  0
   -5.8970   -1.2349   -3.5732 C   0  0  0  0  0  0  0  0  0  0  0  0
   -5.6320   -2.1032   -2.5152 C   0  0  0  0  0  0  0  0  0  0  0  0
   -4.3888   -2.0723   -1.8802 C   0  0  0  0  0  0  0  0  0  0  0  0
   -1.6296   -0.0993   -0.8625 N   0  0  0  0  0  0  0  0  0  0  0  0
   -2.3114    1.1445   -0.5230 C   0  0  0  0  0  0  0  0  0  0  0  0
   -1.7520    2.3398   -1.3146 C   0  0  0  0  0  0  0  0  0  0  0  0
   -1.5137    3.4385   -0.2859 C   0  0  0  0  0  0  0  0  0  0  0  0
   -1.1970    2.6811    0.9917 C   0  0  0  0  0  0  0  0  0  0  0  0
   -2.1914    1.5290    0.9632 C   0  0  0  0  0  0  0  0  0  0  0  0
   -0.3758   -0.3116   -0.4006 N   0  0  0  0  0  0  0  0  0  0  0  0
    1.6599   -0.4488    0.4188 H   0  0  0  0  0  0  0  0  0  0  0  0
    3.4964   -2.7843    0.7007 H   0  0  0  0  0  0  0  0  0  0  0  0
    3.9645   -1.4587   -0.3623 H   0  0  0  0  0  0  0  0  0  0  0  0
    5.0298   -1.3069    1.8647 H   0  0  0  0  0  0  0  0  0  0  0  0
    3.0494    0.9678    1.3460 H   0  0  0  0  0  0  0  0  0  0  0  0
    4.6472    0.7852    0.6270 H   0  0  0  0  0  0  0  0  0  0  0  0
    5.7218    1.0069    2.8179 H   0  0  0  0  0  0  0  0  0  0  0  0
    4.6398    2.3714    2.5506 H   0  0  0  0  0  0  0  0  0  0  0  0
    2.9129    1.3651    3.9716 H   0  0  0  0  0  0  0  0  0  0  0  0
    4.4327    1.4382    4.8604 H   0  0  0  0  0  0  0  0  0  0  0  0
    4.8700   -0.9374    4.4364 H   0  0  0  0  0  0  0  0  0  0  0  0
    3.2692   -0.7558    5.1494 H   0  0  0  0  0  0  0  0  0  0  0  0
    2.1925   -0.9970    2.9711 H   0  0  0  0  0  0  0  0  0  0  0  0
    3.2758   -2.3606    3.2404 H   0  0  0  0  0  0  0  0  0  0  0  0
   -1.1416   -3.0714   -2.0696 H   0  0  0  0  0  0  0  0  0  0  0  0
   -2.9159    0.3865   -3.7213 H   0  0  0  0  0  0  0  0  0  0  0  0
   -5.1216    0.3307   -4.8333 H   0  0  0  0  0  0  0  0  0  0  0  0
   -6.8638   -1.2626   -4.0696 H   0  0  0  0  0  0  0  0  0  0  0  0
   -6.3916   -2.8076   -2.1861 H   0  0  0  0  0  0  0  0  0  0  0  0
   -4.1934   -2.7563   -1.0573 H   0  0  0  0  0  0  0  0  0  0  0  0
   -3.3740    1.0056   -0.7497 H   0  0  0  0  0  0  0  0  0  0  0  0
   -0.8094    2.0912   -1.8173 H   0  0  0  0  0  0  0  0  0  0  0  0
   -2.4518    2.6715   -2.0890 H   0  0  0  0  0  0  0  0  0  0  0  0
   -0.7062    4.1146   -0.5814 H   0  0  0  0  0  0  0  0  0  0  0  0
   -2.4253    4.0339   -0.1556 H   0  0  0  0  0  0  0  0  0  0  0  0
   -1.3109    3.3044    1.8831 H   0  0  0  0  0  0  0  0  0  0  0  0
   -0.1687    2.3021    0.9667 H   0  0  0  0  0  0  0  0  0  0  0  0
   -3.1645    1.8903    1.3199 H   0  0  0  0  0  0  0  0  0  0  0  0
   -1.8899    0.7055    1.6182 H   0  0  0  0  0  0  0  0  0  0  0  0
  1  2  2  0
  2  3  1  0
  3  4  1  0
  4  5  1  0
  5  6  1  0
  6  7  1  0
  7  8  1  0
  8  9  1  0
  9 10  1  0
  2 11  1  0
 11 12  1  0
 12 13  2  0
 13 14  1  0
 14 15  2  0
 15 16  1  0
 16 17  2  0
 17 18  1  0
 18 19  2  0
 13 20  1  0
 20 21  1  0
 21 22  1  0
 22 23  1  0
 23 24  1  0
 24 25  1  0
 20 26  1  0
 10  5  1  0
 26 11  2  0
 19 14  1  0
 25 21  1  0
  3 27  1  0
  4 28  1  0
  4 29  1  0
  5 30  1  0
  6 31  1  0
  6 32  1  0
  7 33  1  0
  7 34  1  0
  8 35  1  0
  8 36  1  0
  9 37  1  0
  9 38  1  0
 10 39  1  0
 10 40  1  0
 12 41  1  0
 15 42  1  0
 16 43  1  0
 17 44  1  0
 18 45  1  0
 19 46  1  0
 21 47  1  0
 22 48  1  0
 22 49  1  0
 23 50  1  0
 23 51  1  0
 24 52  1  0
 24 53  1  0
 25 54  1  0
 25 55  1  0
M  END
>  <_SMILES>  (36) 
O=C(NCC1CCCCC1)c1cc(-c2ccccc2)n(C2CCCC2)n1

$$$$

     RDKit          3D

 60 65  0  0  0  0  0  0  0  0999 V2000
    1.0067    1.7940    0.8076 O   0  0  0  0  0  0  0  0  0  0  0  0
    0.7196    0.7044    0.3202 C   0  0  0  0  0  0  0  0  0  0  0  0
    1.6644   -0.2850    0.0882 N   0  0  0  0  0  0  0  0  0  0  0  0
    3.0826   -0.1828    0.4466 C   0  0  2  0  0  0  0  0  0  0  0  0
    3.7922   -1.4887   -0.0066 C   0  0  0  0  0  0  0  0  0  0  0  0
    5.2882   -1.4563    0.3440 C   0  0  1  0  0  0  0  0  0  0  0  0
    5.9453   -0.2614   -0.3633 C   0  0  0  0  0  0  0  0  0  0  0  0
    5.2766    1.0462    0.0877 C   0  0  2  0  0  0  0  0  0  0  0  0
    5.4296    1.1961    1.6110 C   0  0  0  0  0  0  0  0  0  0  0  0
    4.7749    0.0037    2.3293 C   0  0  2  0  0  0  0  0  0  0  0  0
    5.4461   -1.2983    1.8644 C   0  0  0  0  0  0  0  0  0  0  0  0
    3.2776   -0.0413    1.9763 C   0  0  0  0  0  0  0  0  0  0  0  0
    3.7799    1.0024   -0.2687 C   0  0  0  0  0  0  0  0  0  0  0  0
   -0.6637    0.3302   -0.0524 C   0  0  0  0  0  0  0  0  0  0  0  0
   -1.0997   -0.7388   -0.8827 C   0  0  0  0  0  0  0  0  0  0  0  0
   -2.4766   -0.6544   -0.9390 C   0  0  0  0  0  0  0  0  0  0  0  0
   -3.4256   -1.4793   -1.6728 C   0  0  0  0  0  0  0  0  0  0  0  0
   -4.1067   -0.9617   -2.7810 C   0  0  0  0  0  0  0  0  0  0  0  0
   -5.0159   -1.7558   -3.4822 C   0  0  0  0  0  0  0  0  0  0  0  0
   -5.2456   -3.0716   -3.0826 C   0  0  0  0  0  0  0  0  0  0  0  0
   -4.5647   -3.5961   -1.9848 C   0  0  0  0  0  0  0  0  0  0  0  0
   -3.6545   -2.8034   -1.2829 C   0  0  0  0  0  0  0  0  0  0  0  0
   -2.8011    0.4129   -0.1349 N   0  0  0  0  0  0  0  0  0  0  0  0
   -4.1324    0.9171    0.1790 C   0  0  0  0  0  0  0  0  0  0  0  0
   -4.3441    1.2288    1.6722 C   0  0  0  0  0  0  0  0  0  0  0  0
   -4.3651    2.7485    1.7587 C   0  0  0  0  0  0  0  0  0  0  0  0
   -5.0481    3.1577    0.4655 C   0  0  0  0  0  0  0  0  0  0  0  0
   -4.4463    2.2214   -0.5746 C   0  0  0  0  0  0  0  0  0  0  0  0
   -1.7233    1.0315    0.3857 N   0  0  0  0  0  0  0  0  0  0  0  0
    1.3125   -1.2072   -0.1220 H   0  0  0  0  0  0  0  0  0  0  0  0
    3.6679   -1.6293   -1.0888 H   0  0  0  0  0  0  0  0  0  0  0  0
    3.3216   -2.3590    0.4705 H   0  0  0  0  0  0  0  0  0  0  0  0
    5.7652   -2.3871    0.0176 H   0  0  0  0  0  0  0  0  0  0  0  0
    5.8554   -0.3730   -1.4508 H   0  0  0  0  0  0  0  0  0  0  0  0
    7.0176   -0.2329   -0.1337 H   0  0  0  0  0  0  0  0  0  0  0  0
    5.7507    1.8957   -0.4166 H   0  0  0  0  0  0  0  0  0  0  0  0
    4.9675    2.1337    1.9437 H   0  0  0  0  0  0  0  0  0  0  0  0
    6.4926    1.2537    1.8757 H   0  0  0  0  0  0  0  0  0  0  0  0
    4.8949    0.1139    3.4128 H   0  0  0  0  0  0  0  0  0  0  0  0
    6.5099   -1.2878    2.1316 H   0  0  0  0  0  0  0  0  0  0  0  0
    4.9969   -2.1564    2.3795 H   0  0  0  0  0  0  0  0  0  0  0  0
    2.7948    0.8692    2.3502 H   0  0  0  0  0  0  0  0  0  0  0  0
    2.7963   -0.8795    2.4972 H   0  0  0  0  0  0  0  0  0  0  0  0
    3.6567    0.9117   -1.3559 H   0  0  0  0  0  0  0  0  0  0  0  0
    3.3234    1.9581    0.0122 H   0  0  0  0  0  0  0  0  0  0  0  0
   -0.4931   -1.4611   -1.4098 H   0  0  0  0  0  0  0  0  0  0  0  0
   -3.9272    0.0594   -3.1100 H   0  0  0  0  0  0  0  0  0  0  0  0
   -5.5412   -1.3492   -4.3427 H   0  0  0  0  0  0  0  0  0  0  0  0
   -5.9528   -3.6900   -3.6297 H   0  0  0  0  0  0  0  0  0  0  0  0
   -4.7419   -4.6230   -1.6753 H   0  0  0  0  0  0  0  0  0  0  0  0
   -3.1313   -3.2231   -0.4269 H   0  0  0  0  0  0  0  0  0  0  0  0
   -4.8493    0.1389   -0.1051 H   0  0  0  0  0  0  0  0  0  0  0  0
   -5.3226    0.8414    1.9837 H   0  0  0  0  0  0  0  0  0  0  0  0
   -3.5939    0.7871    2.3356 H   0  0  0  0  0  0  0  0  0  0  0  0
   -4.9008    3.1056    2.6428 H   0  0  0  0  0  0  0  0  0  0  0  0
   -3.3435    3.1442    1.7926 H   0  0  0  0  0  0  0  0  0  0  0  0
   -6.1294    2.9913    0.5398 H   0  0  0  0  0  0  0  0  0  0  0  0
   -4.8821    4.2107    0.2207 H   0  0  0  0  0  0  0  0  0  0  0  0
   -3.5425    2.6734   -1.0010 H   0  0  0  0  0  0  0  0  0  0  0  0
   -5.1424    2.0504   -1.4026 H   0  0  0  0  0  0  0  0  0  0  0  0
  1  2  2  0
  2  3  1  0
  4  3  1  1
  4  5  1  0
  5  6  1  0
  6  7  1  0
  7  8  1  0
  8  9  1  0
  9 10  1  0
 10 11  1  0
 10 12  1  0
  8 13  1  0
  2 14  1  0
 14 15  1  0
 15 16  2  0
 16 17  1  0
 17 18  2  0
 18 19  1  0
 19 20  2  0
 20 21  1  0
 21 22  2  0
 16 23  1  0
 23 24  1  0
 24 25  1  0
 25 26  1  0
 26 27  1  0
 27 28  1  0
 23 29  1  0
 12  4  1  0
 29 14  2  0
 13  4  1  0
 22 17  1  0
 28 24  1  0
 11  6  1  0
  3 30  1  0
  5 31  1  0
  5 32  1  0
  6 33  1  6
  7 34  1  0
  7 35  1  0
  8 36  1  6
  9 37  1  0
  9 38  1  0
 10 39  1  1
 11 40  1  0
 11 41  1  0
 12 42  1  0
 12 43  1  0
 13 44  1  0
 13 45  1  0
 15 46  1  0
 18 47  1  0
 19 48  1  0
 20 49  1  0
 21 50  1  0
 22 51  1  0
 24 52  1  0
 25 53  1  0
 25 54  1  0
 26 55  1  0
 26 56  1  0
 27 57  1  0
 27 58  1  0
 28 59  1  0
 28 60  1  0
M  END
>  <_SMILES>  (37) 
O=C(N[C@]12C[C@H]3C[C@H](C[C@H](C3)C1)C2)c1cc(-c2ccccc2)n(C2CCCC2)n1

$$$$

     RDKit          3D

 59 63  0  0  0  0  0  0  0  0999 V2000
   -4.8495   -0.1462   -2.0555 C   0  0  0  0  0  0  0  0  0  0  0  0
   -4.6075   -1.5506   -1.5041 C   0  0  0  0  0  0  0  0  0  0  0  0
   -3.6466   -2.3207   -2.4107 C   0  0  0  0  0  0  0  0  0  0  0  0
   -4.1638   -1.5410   -0.0284 C   0  0  0  0  0  0  0  0  0  0  0  0
   -2.9044   -0.8742    0.2531 N   0  0  0  0  0  0  0  0  0  0  0  0
   -1.7628   -1.5607    0.0566 N   0  0  0  0  0  0  0  0  0  0  0  0
   -0.7744   -0.7065    0.3719 C   0  0  0  0  0  0  0  0  0  0  0  0
    0.6499   -1.0951    0.2606 C   0  0  0  0  0  0  0  0  0  0  0  0
    1.0150   -2.2608    0.1378 O   0  0  0  0  0  0  0  0  0  0  0  0
    1.5394   -0.0304    0.2890 N   0  0  0  0  0  0  0  0  0  0  0  0
    2.9903   -0.1524    0.1152 C   0  0  2  0  0  0  0  0  0  0  0  0
    3.6143    1.2651    0.2404 C   0  0  0  0  0  0  0  0  0  0  0  0
    5.1399    1.2164    0.0614 C   0  0  1  0  0  0  0  0  0  0  0  0
    5.7450    0.3088    1.1432 C   0  0  0  0  0  0  0  0  0  0  0  0
    5.1614   -1.1075    1.0247 C   0  0  2  0  0  0  0  0  0  0  0  0
    5.4832   -1.6746   -0.3686 C   0  0  0  0  0  0  0  0  0  0  0  0
    4.8819   -0.7725   -1.4598 C   0  0  2  0  0  0  0  0  0  0  0  0
    5.4664    0.6426   -1.3262 C   0  0  0  0  0  0  0  0  0  0  0  0
    3.3543   -0.7111   -1.2825 C   0  0  0  0  0  0  0  0  0  0  0  0
    3.6342   -1.0462    1.2058 C   0  0  0  0  0  0  0  0  0  0  0  0
   -1.3247    0.5286    0.8112 C   0  0  0  0  0  0  0  0  0  0  0  0
   -2.6979    0.3890    0.7550 C   0  0  0  0  0  0  0  0  0  0  0  0
   -3.7349    1.3424    1.1257 C   0  0  0  0  0  0  0  0  0  0  0  0
   -3.9269    2.5024    0.3665 C   0  0  0  0  0  0  0  0  0  0  0  0
   -4.9140    3.4232    0.7231 C   0  0  0  0  0  0  0  0  0  0  0  0
   -5.7076    3.1951    1.8463 C   0  0  0  0  0  0  0  0  0  0  0  0
   -5.5126    2.0496    2.6164 C   0  0  0  0  0  0  0  0  0  0  0  0
   -4.5266    1.1275    2.2599 C   0  0  0  0  0  0  0  0  0  0  0  0
   -5.2738   -0.1975   -3.0642 H   0  0  0  0  0  0  0  0  0  0  0  0
   -3.9212    0.4304   -2.1170 H   0  0  0  0  0  0  0  0  0  0  0  0
   -5.5584    0.4021   -1.4269 H   0  0  0  0  0  0  0  0  0  0  0  0
   -5.5693   -2.0800   -1.5352 H   0  0  0  0  0  0  0  0  0  0  0  0
   -4.0796   -2.4434   -3.4095 H   0  0  0  0  0  0  0  0  0  0  0  0
   -2.6919   -1.7990   -2.5299 H   0  0  0  0  0  0  0  0  0  0  0  0
   -3.4473   -3.3202   -2.0105 H   0  0  0  0  0  0  0  0  0  0  0  0
   -4.9418   -1.0771    0.5856 H   0  0  0  0  0  0  0  0  0  0  0  0
   -4.0622   -2.5711    0.3371 H   0  0  0  0  0  0  0  0  0  0  0  0
    1.1445    0.8930    0.1901 H   0  0  0  0  0  0  0  0  0  0  0  0
    3.3693    1.6998    1.2188 H   0  0  0  0  0  0  0  0  0  0  0  0
    3.1774    1.9373   -0.5105 H   0  0  0  0  0  0  0  0  0  0  0  0
    5.5556    2.2262    0.1510 H   0  0  0  0  0  0  0  0  0  0  0  0
    5.5343    0.7192    2.1384 H   0  0  0  0  0  0  0  0  0  0  0  0
    6.8362    0.2751    1.0371 H   0  0  0  0  0  0  0  0  0  0  0  0
    5.5983   -1.7519    1.7958 H   0  0  0  0  0  0  0  0  0  0  0  0
    5.0832   -2.6918   -0.4608 H   0  0  0  0  0  0  0  0  0  0  0  0
    6.5698   -1.7468   -0.5005 H   0  0  0  0  0  0  0  0  0  0  0  0
    5.1219   -1.1788   -2.4488 H   0  0  0  0  0  0  0  0  0  0  0  0
    6.5530    0.6148   -1.4741 H   0  0  0  0  0  0  0  0  0  0  0  0
    5.0553    1.2934   -2.1077 H   0  0  0  0  0  0  0  0  0  0  0  0
    2.9375   -1.7152   -1.4237 H   0  0  0  0  0  0  0  0  0  0  0  0
    2.9124   -0.0826   -2.0668 H   0  0  0  0  0  0  0  0  0  0  0  0
    3.2345   -2.0658    1.1687 H   0  0  0  0  0  0  0  0  0  0  0  0
    3.3910   -0.6577    2.2035 H   0  0  0  0  0  0  0  0  0  0  0  0
   -0.7972    1.4024    1.1657 H   0  0  0  0  0  0  0  0  0  0  0  0
   -3.3150    2.6916   -0.5124 H   0  0  0  0  0  0  0  0  0  0  0  0
   -5.0627    4.3187    0.1252 H   0  0  0  0  0  0  0  0  0  0  0  0
   -6.4747    3.9133    2.1250 H   0  0  0  0  0  0  0  0  0  0  0  0
   -6.1247    1.8763    3.4979 H   0  0  0  0  0  0  0  0  0  0  0  0
   -4.3753    0.2449    2.8775 H   0  0  0  0  0  0  0  0  0  0  0  0
  1  2  1  0
  2  3  1  0
  2  4  1  0
  4  5  1  0
  5  6  1  0
  6  7  2  0
  7  8  1  0
  8  9  2  0
  8 10  1  0
 11 10  1  1
 11 12  1  0
 12 13  1  0
 13 14  1  0
 14 15  1  0
 15 16  1  0
 16 17  1  0
 17 18  1  0
 17 19  1  0
 15 20  1  0
  7 21  1  0
 21 22  2  0
 22 23  1  0
 23 24  2  0
 24 25  1  0
 25 26  2  0
 26 27  1  0
 27 28  2  0
 22  5  1  0
 28 23  1  0
 19 11  1  0
 20 11  1  0
 18 13  1  0
  1 29  1  0
  1 30  1  0
  1 31  1  0
  2 32  1  0
  3 33  1  0
  3 34  1  0
  3 35  1  0
  4 36  1  0
  4 37  1  0
 10 38  1  0
 12 39  1  0
 12 40  1  0
 13 41  1  6
 14 42  1  0
 14 43  1  0
 15 44  1  1
 16 45  1  0
 16 46  1  0
 17 47  1  6
 18 48  1  0
 18 49  1  0
 19 50  1  0
 19 51  1  0
 20 52  1  0
 20 53  1  0
 21 54  1  0
 24 55  1  0
 25 56  1  0
 26 57  1  0
 27 58  1  0
 28 59  1  0
M  END
>  <_SMILES>  (38) 
CC(C)Cn1nc(C(=O)N[C@]23C[C@H]4C[C@H](C[C@H](C4)C2)C3)cc1-c1ccccc1

$$$$

     RDKit          3D

 46 49  0  0  0  0  0  0  0  0999 V2000
    2.5502   -1.9522   -0.0913 O   0  0  0  0  0  0  0  0  0  0  0  0
    2.2095   -0.8057    0.1847 C   0  0  0  0  0  0  0  0  0  0  0  0
    3.0604    0.1782    0.6750 N   0  0  0  0  0  0  0  0  0  0  0  0
    4.4501    0.0863    0.9001 C   0  0  0  0  0  0  0  0  0  0  0  0
    5.0791    1.2062    1.4622 C   0  0  0  0  0  0  0  0  0  0  0  0
    6.4537    1.2032    1.7146 C   0  0  0  0  0  0  0  0  0  0  0  0
    7.2147    0.0798    1.4058 C   0  0  0  0  0  0  0  0  0  0  0  0
    6.6002   -1.0367    0.8448 C   0  0  0  0  0  0  0  0  0  0  0  0
    5.2240   -1.0336    0.5920 C   0  0  0  0  0  0  0  0  0  0  0  0
    0.8042   -0.3511    0.0296 C   0  0  0  0  0  0  0  0  0  0  0  0
    0.2978    0.9771   -0.0335 C   0  0  0  0  0  0  0  0  0  0  0  0
   -1.0681    0.8680   -0.2042 C   0  0  0  0  0  0  0  0  0  0  0  0
   -2.0680    1.9143   -0.3614 C   0  0  0  0  0  0  0  0  0  0  0  0
   -2.6823    2.1271   -1.6012 C   0  0  0  0  0  0  0  0  0  0  0  0
   -3.6406    3.1315   -1.7484 C   0  0  0  0  0  0  0  0  0  0  0  0
   -3.9864    3.9305   -0.6594 C   0  0  0  0  0  0  0  0  0  0  0  0
   -3.3728    3.7290    0.5763 C   0  0  0  0  0  0  0  0  0  0  0  0
   -2.4136    2.7254    0.7250 C   0  0  0  0  0  0  0  0  0  0  0  0
   -1.3207   -0.4834   -0.2059 N   0  0  0  0  0  0  0  0  0  0  0  0
   -2.6133   -1.1463   -0.3279 C   0  0  0  0  0  0  0  0  0  0  0  0
   -2.8153   -1.7607   -1.7241 C   0  0  0  0  0  0  0  0  0  0  0  0
   -3.3579   -3.1626   -1.4773 C   0  0  0  0  0  0  0  0  0  0  0  0
   -2.7262   -3.5673   -0.1569 C   0  0  0  0  0  0  0  0  0  0  0  0
   -2.8208   -2.2960    0.6753 C   0  0  0  0  0  0  0  0  0  0  0  0
   -0.2055   -1.2304   -0.0921 N   0  0  0  0  0  0  0  0  0  0  0  0
    2.6329    1.0485    0.9531 H   0  0  0  0  0  0  0  0  0  0  0  0
    4.5108    2.0976    1.7141 H   0  0  0  0  0  0  0  0  0  0  0  0
    6.9289    2.0773    2.1522 H   0  0  0  0  0  0  0  0  0  0  0  0
    8.2839    0.0723    1.6006 H   0  0  0  0  0  0  0  0  0  0  0  0
    7.1888   -1.9175    0.6003 H   0  0  0  0  0  0  0  0  0  0  0  0
    4.7920   -1.9263    0.1506 H   0  0  0  0  0  0  0  0  0  0  0  0
    0.8495    1.9055   -0.0011 H   0  0  0  0  0  0  0  0  0  0  0  0
   -2.4129    1.5181   -2.4613 H   0  0  0  0  0  0  0  0  0  0  0  0
   -4.1139    3.2933   -2.7136 H   0  0  0  0  0  0  0  0  0  0  0  0
   -4.7321    4.7132   -0.7749 H   0  0  0  0  0  0  0  0  0  0  0  0
   -3.6410    4.3538    1.4244 H   0  0  0  0  0  0  0  0  0  0  0  0
   -1.9442    2.5763    1.6946 H   0  0  0  0  0  0  0  0  0  0  0  0
   -3.3841   -0.3917   -0.1361 H   0  0  0  0  0  0  0  0  0  0  0  0
   -3.5108   -1.1681   -2.3280 H   0  0  0  0  0  0  0  0  0  0  0  0
   -1.8735   -1.8212   -2.2830 H   0  0  0  0  0  0  0  0  0  0  0  0
   -3.1081   -3.8524   -2.2885 H   0  0  0  0  0  0  0  0  0  0  0  0
   -4.4497   -3.1311   -1.3804 H   0  0  0  0  0  0  0  0  0  0  0  0
   -1.6778   -3.8501   -0.3061 H   0  0  0  0  0  0  0  0  0  0  0  0
   -3.2451   -4.4084    0.3116 H   0  0  0  0  0  0  0  0  0  0  0  0
   -2.1159   -2.2964    1.5125 H   0  0  0  0  0  0  0  0  0  0  0  0
   -3.8304   -2.2233    1.0997 H   0  0  0  0  0  0  0  0  0  0  0  0
  1  2  2  0
  2  3  1  0
  3  4  1  0
  4  5  2  0
  5  6  1  0
  6  7  2  0
  7  8  1  0
  8  9  2  0
  2 10  1  0
 10 11  1  0
 11 12  2  0
 12 13  1  0
 13 14  2  0
 14 15  1  0
 15 16  2  0
 16 17  1  0
 17 18  2  0
 12 19  1  0
 19 20  1  0
 20 21  1  0
 21 22  1  0
 22 23  1  0
 23 24  1  0
 19 25  1  0
  9  4  1  0
 25 10  2  0
 18 13  1  0
 24 20  1  0
  3 26  1  0
  5 27  1  0
  6 28  1  0
  7 29  1  0
  8 30  1  0
  9 31  1  0
 11 32  1  0
 14 33  1  0
 15 34  1  0
 16 35  1  0
 17 36  1  0
 18 37  1  0
 20 38  1  0
 21 39  1  0
 21 40  1  0
 22 41  1  0
 22 42  1  0
 23 43  1  0
 23 44  1  0
 24 45  1  0
 24 46  1  0
M  END
>  <_SMILES>  (39) 
O=C(Nc1ccccc1)c1cc(-c2ccccc2)n(C2CCCC2)n1

$$$$

     RDKit          3D

 57 62  0  0  0  0  0  0  0  0999 V2000
    1.0942    1.9486    1.1994 O   0  0  0  0  0  0  0  0  0  0  0  0
    0.6624    1.0134    0.5352 C   0  0  0  0  0  0  0  0  0  0  0  0
    1.4430    0.0685   -0.0934 N   0  0  0  0  0  0  0  0  0  0  0  0
    2.9010    0.0108   -0.0866 C   0  0  2  0  0  0  0  0  0  0  0  0
    3.3496   -1.2178   -0.9219 C   0  0  0  0  0  0  0  0  0  0  0  0
    4.8819   -1.3333   -0.9528 C   0  0  1  0  0  0  0  0  0  0  0  0
    5.4708   -0.0587   -1.5774 C   0  0  0  0  0  0  0  0  0  0  0  0
    5.0598    1.1695   -0.7500 C   0  0  2  0  0  0  0  0  0  0  0  0
    5.5788    1.0085    0.6891 C   0  0  0  0  0  0  0  0  0  0  0  0
    4.9936   -0.2646    1.3236 C   0  0  2  0  0  0  0  0  0  0  0  0
    5.4050   -1.4845    0.4843 C   0  0  0  0  0  0  0  0  0  0  0  0
    3.4585   -0.1584    1.3484 C   0  0  0  0  0  0  0  0  0  0  0  0
    3.5248    1.2761   -0.7257 C   0  0  0  0  0  0  0  0  0  0  0  0
   -0.7779    0.7876    0.3302 C   0  0  0  0  0  0  0  0  0  0  0  0
   -1.8436    1.5732    0.8297 C   0  0  0  0  0  0  0  0  0  0  0  0
   -3.0039    0.9872    0.3631 C   0  0  0  0  0  0  0  0  0  0  0  0
   -4.3895    1.3949    0.5591 C   0  0  0  0  0  0  0  0  0  0  0  0
   -5.1856    1.7744   -0.5282 C   0  0  0  0  0  0  0  0  0  0  0  0
   -6.5120    2.1637   -0.3299 C   0  0  0  0  0  0  0  0  0  0  0  0
   -7.0488    2.1830    0.9563 C   0  0  0  0  0  0  0  0  0  0  0  0
   -6.2596    1.8187    2.0458 C   0  0  0  0  0  0  0  0  0  0  0  0
   -4.9330    1.4298    1.8489 C   0  0  0  0  0  0  0  0  0  0  0  0
   -2.5832   -0.1324   -0.3240 N   0  0  0  0  0  0  0  0  0  0  0  0
   -3.4855   -1.1037   -0.9862 C   0  0  0  0  0  0  0  0  0  0  0  0
   -4.3959   -1.8778    0.0038 C   0  0  0  0  0  0  0  0  0  0  0  0
   -4.1716   -3.1189   -0.8846 C   0  0  0  0  0  0  0  0  0  0  0  0
   -2.8330   -2.4773   -1.3038 C   0  0  0  0  0  0  0  0  0  0  0  0
   -1.2401   -0.2451   -0.4019 N   0  0  0  0  0  0  0  0  0  0  0  0
    0.9099   -0.6338   -0.6024 H   0  0  0  0  0  0  0  0  0  0  0  0
    2.9177   -2.1368   -0.5033 H   0  0  0  0  0  0  0  0  0  0  0  0
    2.9638   -1.1383   -1.9472 H   0  0  0  0  0  0  0  0  0  0  0  0
    5.1755   -2.2058   -1.5469 H   0  0  0  0  0  0  0  0  0  0  0  0
    6.5644   -0.1330   -1.6201 H   0  0  0  0  0  0  0  0  0  0  0  0
    5.1185    0.0502   -2.6105 H   0  0  0  0  0  0  0  0  0  0  0  0
    5.4853    2.0749   -1.1971 H   0  0  0  0  0  0  0  0  0  0  0  0
    5.3036    1.8860    1.2871 H   0  0  0  0  0  0  0  0  0  0  0  0
    6.6745    0.9555    0.6874 H   0  0  0  0  0  0  0  0  0  0  0  0
    5.3720   -0.3755    2.3459 H   0  0  0  0  0  0  0  0  0  0  0  0
    6.4974   -1.5834    0.4770 H   0  0  0  0  0  0  0  0  0  0  0  0
    5.0053   -2.4014    0.9345 H   0  0  0  0  0  0  0  0  0  0  0  0
    3.0296   -1.0540    1.8169 H   0  0  0  0  0  0  0  0  0  0  0  0
    3.1689    0.6878    1.9827 H   0  0  0  0  0  0  0  0  0  0  0  0
    3.2375    2.1768   -0.1702 H   0  0  0  0  0  0  0  0  0  0  0  0
    3.1435    1.4105   -1.7465 H   0  0  0  0  0  0  0  0  0  0  0  0
   -1.7623    2.4673    1.4336 H   0  0  0  0  0  0  0  0  0  0  0  0
   -4.7778    1.7817   -1.5363 H   0  0  0  0  0  0  0  0  0  0  0  0
   -7.1242    2.4582   -1.1785 H   0  0  0  0  0  0  0  0  0  0  0  0
   -8.0807    2.4884    1.1105 H   0  0  0  0  0  0  0  0  0  0  0  0
   -6.6755    1.8394    3.0499 H   0  0  0  0  0  0  0  0  0  0  0  0
   -4.3291    1.1483    2.7087 H   0  0  0  0  0  0  0  0  0  0  0  0
   -4.0139   -0.6724   -1.8453 H   0  0  0  0  0  0  0  0  0  0  0  0
   -3.9944   -1.9901    1.0183 H   0  0  0  0  0  0  0  0  0  0  0  0
   -5.4327   -1.5370    0.0679 H   0  0  0  0  0  0  0  0  0  0  0  0
   -4.0993   -4.0743   -0.3594 H   0  0  0  0  0  0  0  0  0  0  0  0
   -4.8934   -3.2131   -1.7040 H   0  0  0  0  0  0  0  0  0  0  0  0
   -2.5447   -2.6344   -2.3467 H   0  0  0  0  0  0  0  0  0  0  0  0
   -2.0000   -2.7772   -0.6567 H   0  0  0  0  0  0  0  0  0  0  0  0
  1  2  2  0
  2  3  1  0
  4  3  1  1
  4  5  1  0
  5  6  1  0
  6  7  1  0
  7  8  1  0
  8  9  1  0
  9 10  1  0
 10 11  1  0
 10 12  1  0
  8 13  1  0
  2 14  1  0
 14 15  1  0
 15 16  2  0
 16 17  1  0
 17 18  2  0
 18 19  1  0
 19 20  2  0
 20 21  1  0
 21 22  2  0
 16 23  1  0
 23 24  1  0
 24 25  1  0
 25 26  1  0
 26 27  1  0
 23 28  1  0
 12  4  1  0
 28 14  2  0
 13  4  1  0
 22 17  1  0
 27 24  1  0
 11  6  1  0
  3 29  1  0
  5 30  1  0
  5 31  1  0
  6 32  1  6
  7 33  1  0
  7 34  1  0
  8 35  1  6
  9 36  1  0
  9 37  1  0
 10 38  1  1
 11 39  1  0
 11 40  1  0
 12 41  1  0
 12 42  1  0
 13 43  1  0
 13 44  1  0
 15 45  1  0
 18 46  1  0
 19 47  1  0
 20 48  1  0
 21 49  1  0
 22 50  1  0
 24 51  1  0
 25 52  1  0
 25 53  1  0
 26 54  1  0
 26 55  1  0
 27 56  1  0
 27 57  1  0
M  END
>  <_SMILES>  (40) 
O=C(N[C@]12C[C@H]3C[C@H](C[C@H](C3)C1)C2)c1cc(-c2ccccc2)n(C2CCC2)n1

$$$$

     RDKit          3D

 59 63  0  0  0  0  0  0  0  0999 V2000
   -1.4083    0.9448   -0.6879 C   0  0  0  0  0  0  0  0  0  0  0  0
   -1.5637   -0.4603   -0.2276 C   0  0  0  0  0  0  0  0  0  0  0  0
   -0.5466   -1.4716   -0.2052 C   0  0  0  0  0  0  0  0  0  0  0  0
    0.8807   -1.3441   -0.5651 C   0  0  0  0  0  0  0  0  0  0  0  0
    1.4810   -2.1842   -1.2273 O   0  0  0  0  0  0  0  0  0  0  0  0
    1.4760   -0.2004   -0.0565 N   0  0  0  0  0  0  0  0  0  0  0  0
    2.9023    0.1135   -0.1631 C   0  0  2  0  0  0  0  0  0  0  0  0
    3.7748   -0.9358    0.5680 C   0  0  0  0  0  0  0  0  0  0  0  0
    5.2627   -0.5497    0.4914 C   0  0  1  0  0  0  0  0  0  0  0  0
    5.6882   -0.4605   -0.9841 C   0  0  0  0  0  0  0  0  0  0  0  0
    4.8536    0.6067   -1.7127 C   0  0  2  0  0  0  0  0  0  0  0  0
    5.0624    1.9673   -1.0303 C   0  0  0  0  0  0  0  0  0  0  0  0
    4.6295    1.8865    0.4415 C   0  0  2  0  0  0  0  0  0  0  0  0
    5.4679    0.8183    1.1613 C   0  0  0  0  0  0  0  0  0  0  0  0
    3.1456    1.4925    0.5091 C   0  0  0  0  0  0  0  0  0  0  0  0
    3.3651    0.2225   -1.6384 C   0  0  0  0  0  0  0  0  0  0  0  0
   -1.0485   -2.6393    0.2237 N   0  0  0  0  0  0  0  0  0  0  0  0
   -2.3428   -2.3942    0.4619 N   0  0  0  0  0  0  0  0  0  0  0  0
   -3.1790   -3.4875    0.9043 C   0  0  0  0  0  0  0  0  0  0  0  0
   -2.7106   -1.0876    0.2470 C   0  0  0  0  0  0  0  0  0  0  0  0
   -4.1117   -0.5837    0.4862 C   0  0  0  0  0  0  0  0  0  0  0  0
   -4.1390    0.6662    1.3753 C   0  0  0  0  0  0  0  0  0  0  0  0
   -5.5718    1.0734    1.7318 C   0  0  0  0  0  0  0  0  0  0  0  0
   -6.5902    0.7561    0.6348 C   0  0  0  0  0  0  0  0  0  0  0  0
   -5.9498    0.7175   -0.7461 C   0  0  0  0  0  0  0  0  0  0  0  0
   -4.8634   -0.3572   -0.8398 C   0  0  0  0  0  0  0  0  0  0  0  0
   -0.6503    1.0222   -1.4739 H   0  0  0  0  0  0  0  0  0  0  0  0
   -1.1087    1.5863    0.1467 H   0  0  0  0  0  0  0  0  0  0  0  0
   -2.3399    1.3365   -1.1057 H   0  0  0  0  0  0  0  0  0  0  0  0
    0.9537    0.2634    0.6752 H   0  0  0  0  0  0  0  0  0  0  0  0
    3.6395   -1.9312    0.1284 H   0  0  0  0  0  0  0  0  0  0  0  0
    3.4644   -1.0194    1.6178 H   0  0  0  0  0  0  0  0  0  0  0  0
    5.8665   -1.3062    1.0050 H   0  0  0  0  0  0  0  0  0  0  0  0
    5.5584   -1.4348   -1.4711 H   0  0  0  0  0  0  0  0  0  0  0  0
    6.7543   -0.2109   -1.0510 H   0  0  0  0  0  0  0  0  0  0  0  0
    5.1665    0.6682   -2.7610 H   0  0  0  0  0  0  0  0  0  0  0  0
    6.1170    2.2618   -1.0955 H   0  0  0  0  0  0  0  0  0  0  0  0
    4.4832    2.7404   -1.5499 H   0  0  0  0  0  0  0  0  0  0  0  0
    4.7768    2.8591    0.9241 H   0  0  0  0  0  0  0  0  0  0  0  0
    5.1802    0.7650    2.2185 H   0  0  0  0  0  0  0  0  0  0  0  0
    6.5293    1.0936    1.1337 H   0  0  0  0  0  0  0  0  0  0  0  0
    2.5340    2.2632    0.0208 H   0  0  0  0  0  0  0  0  0  0  0  0
    2.8205    1.4639    1.5579 H   0  0  0  0  0  0  0  0  0  0  0  0
    2.7590    0.9682   -2.1695 H   0  0  0  0  0  0  0  0  0  0  0  0
    3.2195   -0.7247   -2.1697 H   0  0  0  0  0  0  0  0  0  0  0  0
   -2.6140   -4.4226    0.8600 H   0  0  0  0  0  0  0  0  0  0  0  0
   -3.4870   -3.2889    1.9337 H   0  0  0  0  0  0  0  0  0  0  0  0
   -4.0453   -3.5536    0.2416 H   0  0  0  0  0  0  0  0  0  0  0  0
   -4.6681   -1.3522    1.0396 H   0  0  0  0  0  0  0  0  0  0  0  0
   -3.6571    1.5082    0.8645 H   0  0  0  0  0  0  0  0  0  0  0  0
   -3.5685    0.5031    2.2981 H   0  0  0  0  0  0  0  0  0  0  0  0
   -5.8818    0.5697    2.6555 H   0  0  0  0  0  0  0  0  0  0  0  0
   -5.5863    2.1479    1.9515 H   0  0  0  0  0  0  0  0  0  0  0  0
   -7.0540   -0.2167    0.8416 H   0  0  0  0  0  0  0  0  0  0  0  0
   -7.3981    1.4962    0.6585 H   0  0  0  0  0  0  0  0  0  0  0  0
   -5.5111    1.6986   -0.9679 H   0  0  0  0  0  0  0  0  0  0  0  0
   -6.7119    0.5355   -1.5122 H   0  0  0  0  0  0  0  0  0  0  0  0
   -4.1832   -0.0902   -1.6576 H   0  0  0  0  0  0  0  0  0  0  0  0
   -5.3218   -1.3085   -1.1419 H   0  0  0  0  0  0  0  0  0  0  0  0
  1  2  1  0
  2  3  1  0
  3  4  1  0
  4  5  2  0
  4  6  1  0
  7  6  1  6
  7  8  1  0
  8  9  1  0
  9 10  1  0
 10 11  1  0
 11 12  1  0
 12 13  1  0
 13 14  1  0
 13 15  1  0
 11 16  1  0
  3 17  2  0
 17 18  1  0
 18 19  1  0
 18 20  1  0
 20 21  1  0
 21 22  1  0
 22 23  1  0
 23 24  1  0
 24 25  1  0
 25 26  1  0
 20  2  2  0
 26 21  1  0
 15  7  1  0
 16  7  1  0
 14  9  1  0
  1 27  1  0
  1 28  1  0
  1 29  1  0
  6 30  1  0
  8 31  1  0
  8 32  1  0
  9 33  1  1
 10 34  1  0
 10 35  1  0
 11 36  1  6
 12 37  1  0
 12 38  1  0
 13 39  1  1
 14 40  1  0
 14 41  1  0
 15 42  1  0
 15 43  1  0
 16 44  1  0
 16 45  1  0
 19 46  1  0
 19 47  1  0
 19 48  1  0
 21 49  1  0
 22 50  1  0
 22 51  1  0
 23 52  1  0
 23 53  1  0
 24 54  1  0
 24 55  1  0
 25 56  1  0
 25 57  1  0
 26 58  1  0
 26 59  1  0
M  END
>  <_SMILES>  (41) 
Cc1c(C(=O)N[C@]23C[C@H]4C[C@H](C[C@H](C4)C2)C3)nn(C)c1C1CCCCC1

$$$$

     RDKit          3D

 59 63  0  0  0  0  0  0  0  0999 V2000
   -2.2204    2.2120    0.7312 C   0  0  0  0  0  0  0  0  0  0  0  0
   -3.0042    1.2245   -0.1409 C   0  0  2  0  0  0  0  0  0  0  0  0
   -4.5346    1.4480    0.0152 C   0  0  2  0  0  0  0  0  0  0  0  0
   -5.0171    0.9950    1.4063 C   0  0  0  0  0  0  0  0  0  0  0  0
   -4.7190   -0.4992    1.6110 C   0  0  1  0  0  0  0  0  0  0  0  0
   -5.4520   -1.3118    0.5344 C   0  0  0  0  0  0  0  0  0  0  0  0
   -4.9787   -0.8728   -0.8577 C   0  0  1  0  0  0  0  0  0  0  0  0
   -5.2743    0.6211   -1.0523 C   0  0  0  0  0  0  0  0  0  0  0  0
   -3.4656   -1.1048   -0.9681 C   0  0  0  0  0  0  0  0  0  0  0  0
   -2.6774   -0.2866    0.1031 C   0  0  1  0  0  0  0  0  0  0  0  0
   -1.2543   -0.5980   -0.1141 N   0  0  0  0  0  0  0  0  0  0  0  0
   -0.2246   -0.3959    0.7801 C   0  0  0  0  0  0  0  0  0  0  0  0
   -0.3790    0.0217    1.9198 O   0  0  0  0  0  0  0  0  0  0  0  0
    1.0803   -0.6718    0.2318 C   0  0  0  0  0  0  0  0  0  0  0  0
    2.2442    0.0536    0.4045 C   0  0  0  0  0  0  0  0  0  0  0  0
    3.2317   -0.6119   -0.3567 C   0  0  0  0  0  0  0  0  0  0  0  0
    4.6734   -0.2378   -0.5544 C   0  0  0  0  0  0  0  0  0  0  0  0
    5.4176   -0.0671    0.7764 C   0  0  0  0  0  0  0  0  0  0  0  0
    6.9170    0.1602    0.5655 C   0  0  0  0  0  0  0  0  0  0  0  0
    7.2500    0.8758   -0.7446 C   0  0  0  0  0  0  0  0  0  0  0  0
    6.1198    1.7910   -1.1931 C   0  0  0  0  0  0  0  0  0  0  0  0
    4.8195    1.0195   -1.4358 C   0  0  0  0  0  0  0  0  0  0  0  0
    2.7306   -1.7026   -0.9484 N   0  0  0  0  0  0  0  0  0  0  0  0
    1.4549   -1.7561   -0.5200 N   0  0  0  0  0  0  0  0  0  0  0  0
    0.6678   -2.9248   -0.8411 C   0  0  0  0  0  0  0  0  0  0  0  0
   -3.2037   -0.7406    1.4909 C   0  0  0  0  0  0  0  0  0  0  0  0
   -2.5750    3.2352    0.5640 H   0  0  0  0  0  0  0  0  0  0  0  0
   -2.3126    2.0008    1.7994 H   0  0  0  0  0  0  0  0  0  0  0  0
   -1.1575    2.2026    0.4718 H   0  0  0  0  0  0  0  0  0  0  0  0
   -2.7333    1.4688   -1.1788 H   0  0  0  0  0  0  0  0  0  0  0  0
   -4.7752    2.5081   -0.1282 H   0  0  0  0  0  0  0  0  0  0  0  0
   -6.0960    1.1731    1.4992 H   0  0  0  0  0  0  0  0  0  0  0  0
   -4.5386    1.5869    2.1943 H   0  0  0  0  0  0  0  0  0  0  0  0
   -5.0636   -0.8113    2.6034 H   0  0  0  0  0  0  0  0  0  0  0  0
   -6.5354   -1.1667    0.6260 H   0  0  0  0  0  0  0  0  0  0  0  0
   -5.2613   -2.3826    0.6767 H   0  0  0  0  0  0  0  0  0  0  0  0
   -5.4999   -1.4556   -1.6254 H   0  0  0  0  0  0  0  0  0  0  0  0
   -6.3543    0.8013   -0.9839 H   0  0  0  0  0  0  0  0  0  0  0  0
   -4.9636    0.9386   -2.0552 H   0  0  0  0  0  0  0  0  0  0  0  0
   -3.1268   -0.8315   -1.9768 H   0  0  0  0  0  0  0  0  0  0  0  0
   -3.2472   -2.1757   -0.8561 H   0  0  0  0  0  0  0  0  0  0  0  0
   -0.9682   -0.6358   -1.0837 H   0  0  0  0  0  0  0  0  0  0  0  0
    2.3500    0.9598    0.9857 H   0  0  0  0  0  0  0  0  0  0  0  0
    5.1612   -1.0684   -1.0867 H   0  0  0  0  0  0  0  0  0  0  0  0
    5.0019    0.7881    1.3263 H   0  0  0  0  0  0  0  0  0  0  0  0
    5.2722   -0.9423    1.4221 H   0  0  0  0  0  0  0  0  0  0  0  0
    7.3065    0.7372    1.4130 H   0  0  0  0  0  0  0  0  0  0  0  0
    7.4443   -0.8014    0.5839 H   0  0  0  0  0  0  0  0  0  0  0  0
    7.4411    0.1309   -1.5274 H   0  0  0  0  0  0  0  0  0  0  0  0
    8.1778    1.4467   -0.6258 H   0  0  0  0  0  0  0  0  0  0  0  0
    6.4043    2.3262   -2.1062 H   0  0  0  0  0  0  0  0  0  0  0  0
    5.9498    2.5550   -0.4239 H   0  0  0  0  0  0  0  0  0  0  0  0
    4.7714    0.7110   -2.4886 H   0  0  0  0  0  0  0  0  0  0  0  0
    3.9795    1.7113   -1.2935 H   0  0  0  0  0  0  0  0  0  0  0  0
    0.1123   -2.7200   -1.7592 H   0  0  0  0  0  0  0  0  0  0  0  0
    1.3366   -3.7774   -0.9882 H   0  0  0  0  0  0  0  0  0  0  0  0
   -0.0119   -3.1423   -0.0139 H   0  0  0  0  0  0  0  0  0  0  0  0
   -2.9833   -1.8051    1.6457 H   0  0  0  0  0  0  0  0  0  0  0  0
   -2.7072   -0.2061    2.3065 H   0  0  0  0  0  0  0  0  0  0  0  0
  1  2  1  0
  2  3  1  0
  3  4  1  0
  4  5  1  0
  5  6  1  0
  6  7  1  0
  7  8  1  0
  7  9  1  0
  9 10  1  0
 10 11  1  1
 11 12  1  0
 12 13  2  0
 12 14  1  0
 14 15  2  0
 15 16  1  0
 16 17  1  0
 17 18  1  0
 18 19  1  0
 19 20  1  0
 20 21  1  0
 21 22  1  0
 16 23  2  0
 23 24  1  0
 24 25  1  0
 10 26  1  0
 10  2  1  0
 24 14  1  0
  8  3  1  0
 22 17  1  0
 26  5  1  0
  1 27  1  0
  1 28  1  0
  1 29  1  0
  2 30  1  6
  3 31  1  6
  4 32  1  0
  4 33  1  0
  5 34  1  1
  6 35  1  0
  6 36  1  0
  7 37  1  6
  8 38  1  0
  8 39  1  0
  9 40  1  0
  9 41  1  0
 11 42  1  0
 15 43  1  0
 17 44  1  0
 18 45  1  0
 18 46  1  0
 19 47  1  0
 19 48  1  0
 20 49  1  0
 20 50  1  0
 21 51  1  0
 21 52  1  0
 22 53  1  0
 22 54  1  0
 25 55  1  0
 25 56  1  0
 25 57  1  0
 26 58  1  0
 26 59  1  0
M  END
>  <_SMILES>  (42) 
C[C@@H]1[C@@H]2C[C@H]3C[C@@H](C2)C[C@]1(NC(=O)c1cc(C2CCCCC2)nn1C)C3

$$$$

     RDKit          3D

 53 57  0  0  0  0  0  0  0  0999 V2000
    2.6221   -1.2702   -1.9286 C   0  0  0  0  0  0  0  0  0  0  0  0
    2.4573   -0.3616   -0.7645 C   0  0  0  0  0  0  0  0  0  0  0  0
    1.2276    0.0086   -0.1394 C   0  0  0  0  0  0  0  0  0  0  0  0
   -0.1400   -0.4133   -0.5069 C   0  0  0  0  0  0  0  0  0  0  0  0
   -0.3794   -1.1623   -1.4478 O   0  0  0  0  0  0  0  0  0  0  0  0
   -1.0992    0.1293    0.3206 N   0  0  0  0  0  0  0  0  0  0  0  0
   -2.5397   -0.0801    0.2289 C   0  0  2  0  0  0  0  0  0  0  0  0
   -3.2278    0.7238    1.3641 C   0  0  0  0  0  0  0  0  0  0  0  0
   -4.7535    0.5433    1.3204 C   0  0  1  0  0  0  0  0  0  0  0  0
   -5.2808    1.0369   -0.0360 C   0  0  0  0  0  0  0  0  0  0  0  0
   -4.6308    0.2355   -1.1750 C   0  0  2  0  0  0  0  0  0  0  0  0
   -4.9636   -1.2561   -0.9999 C   0  0  0  0  0  0  0  0  0  0  0  0
   -4.4385   -1.7601    0.3552 C   0  0  2  0  0  0  0  0  0  0  0  0
   -5.0896   -0.9472    1.4853 C   0  0  0  0  0  0  0  0  0  0  0  0
   -2.9119   -1.5728    0.4081 C   0  0  0  0  0  0  0  0  0  0  0  0
   -3.1043    0.4233   -1.1225 C   0  0  0  0  0  0  0  0  0  0  0  0
    1.4405    0.8432    0.8996 N   0  0  0  0  0  0  0  0  0  0  0  0
    2.7761    1.0085    0.9222 N   0  0  0  0  0  0  0  0  0  0  0  0
    3.3560    1.8870    1.9132 C   0  0  0  0  0  0  0  0  0  0  0  0
    3.4426    0.2985   -0.0455 C   0  0  0  0  0  0  0  0  0  0  0  0
    4.8906    0.3114   -0.2165 C   0  0  0  0  0  0  0  0  0  0  0  0
    5.4650    0.9989   -1.2913 C   0  0  0  0  0  0  0  0  0  0  0  0
    6.8514    1.0178   -1.4543 C   0  0  0  0  0  0  0  0  0  0  0  0
    7.6697    0.3467   -0.5465 C   0  0  0  0  0  0  0  0  0  0  0  0
    7.1036   -0.3463    0.5228 C   0  0  0  0  0  0  0  0  0  0  0  0
    5.7173   -0.3656    0.6873 C   0  0  0  0  0  0  0  0  0  0  0  0
    3.6760   -1.4387   -2.1694 H   0  0  0  0  0  0  0  0  0  0  0  0
    2.1396   -0.8453   -2.8146 H   0  0  0  0  0  0  0  0  0  0  0  0
    2.1718   -2.2459   -1.7198 H   0  0  0  0  0  0  0  0  0  0  0  0
   -0.7154    0.7328    1.0454 H   0  0  0  0  0  0  0  0  0  0  0  0
   -2.8448    0.4003    2.3413 H   0  0  0  0  0  0  0  0  0  0  0  0
   -2.9788    1.7899    1.2760 H   0  0  0  0  0  0  0  0  0  0  0  0
   -5.2177    1.1186    2.1291 H   0  0  0  0  0  0  0  0  0  0  0  0
   -5.0626    2.1051   -0.1572 H   0  0  0  0  0  0  0  0  0  0  0  0
   -6.3716    0.9283   -0.0762 H   0  0  0  0  0  0  0  0  0  0  0  0
   -5.0128    0.5886   -2.1394 H   0  0  0  0  0  0  0  0  0  0  0  0
   -4.5164   -1.8381   -1.8151 H   0  0  0  0  0  0  0  0  0  0  0  0
   -6.0486   -1.4064   -1.0595 H   0  0  0  0  0  0  0  0  0  0  0  0
   -4.6841   -2.8212    0.4752 H   0  0  0  0  0  0  0  0  0  0  0  0
   -4.7338   -1.3065    2.4587 H   0  0  0  0  0  0  0  0  0  0  0  0
   -6.1771   -1.0900    1.4713 H   0  0  0  0  0  0  0  0  0  0  0  0
   -2.4491   -2.1878   -0.3728 H   0  0  0  0  0  0  0  0  0  0  0  0
   -2.5226   -1.9468    1.3642 H   0  0  0  0  0  0  0  0  0  0  0  0
   -2.6486   -0.1156   -1.9617 H   0  0  0  0  0  0  0  0  0  0  0  0
   -2.8532    1.4826   -1.2655 H   0  0  0  0  0  0  0  0  0  0  0  0
    2.5693    2.5071    2.3516 H   0  0  0  0  0  0  0  0  0  0  0  0
    4.0961    2.5299    1.4307 H   0  0  0  0  0  0  0  0  0  0  0  0
    3.8198    1.2702    2.6866 H   0  0  0  0  0  0  0  0  0  0  0  0
    4.8352    1.5232   -2.0066 H   0  0  0  0  0  0  0  0  0  0  0  0
    7.2919    1.5532   -2.2914 H   0  0  0  0  0  0  0  0  0  0  0  0
    8.7490    0.3587   -0.6762 H   0  0  0  0  0  0  0  0  0  0  0  0
    7.7412   -0.8773    1.2250 H   0  0  0  0  0  0  0  0  0  0  0  0
    5.2864   -0.9211    1.5171 H   0  0  0  0  0  0  0  0  0  0  0  0
  1  2  1  0
  2  3  1  0
  3  4  1  0
  4  5  2  0
  4  6  1  0
  7  6  1  6
  7  8  1  0
  8  9  1  0
  9 10  1  0
 10 11  1  0
 11 12  1  0
 12 13  1  0
 13 14  1  0
 13 15  1  0
 11 16  1  0
  3 17  2  0
 17 18  1  0
 18 19  1  0
 18 20  1  0
 20 21  1  0
 21 22  2  0
 22 23  1  0
 23 24  2  0
 24 25  1  0
 25 26  2  0
 20  2  2  0
 26 21  1  0
 15  7  1  0
 16  7  1  0
 14  9  1  0
  1 27  1  0
  1 28  1  0
  1 29  1  0
  6 30  1  0
  8 31  1  0
  8 32  1  0
  9 33  1  1
 10 34  1  0
 10 35  1  0
 11 36  1  6
 12 37  1  0
 12 38  1  0
 13 39  1  1
 14 40  1  0
 14 41  1  0
 15 42  1  0
 15 43  1  0
 16 44  1  0
 16 45  1  0
 19 46  1  0
 19 47  1  0
 19 48  1  0
 22 49  1  0
 23 50  1  0
 24 51  1  0
 25 52  1  0
 26 53  1  0
M  END
>  <_SMILES>  (43) 
Cc1c(C(=O)N[C@]23C[C@H]4C[C@H](C[C@H](C4)C2)C3)nn(C)c1-c1ccccc1

$$$$

     RDKit          3D

 59 63  0  0  0  0  0  0  0  0999 V2000
    1.3943    1.7791   -0.3162 C   0  0  0  0  0  0  0  0  0  0  0  0
    1.7756    0.4879    0.3120 C   0  0  0  0  0  0  0  0  0  0  0  0
    0.9235   -0.4306    1.0135 C   0  0  0  0  0  0  0  0  0  0  0  0
   -0.5365   -0.3462    1.2276 C   0  0  0  0  0  0  0  0  0  0  0  0
   -1.0737   -0.6389    2.2908 O   0  0  0  0  0  0  0  0  0  0  0  0
   -1.2363    0.0614    0.1027 N   0  0  0  0  0  0  0  0  0  0  0  0
   -2.6986    0.1178    0.0036 C   0  0  1  0  0  0  0  0  0  0  0  0
   -3.0663    0.6764   -1.4008 C   0  0  0  0  0  0  0  0  0  0  0  0
   -4.5887    0.7935   -1.5724 C   0  0  2  0  0  0  0  0  0  0  0  0
   -5.1401    1.7562   -0.5102 C   0  0  0  0  0  0  0  0  0  0  0  0
   -4.8162    1.2223    0.8926 C   0  0  1  0  0  0  0  0  0  0  0  0
   -5.4540   -0.1657    1.0686 C   0  0  0  0  0  0  0  0  0  0  0  0
   -4.9044   -1.1424    0.0104 C   0  0  1  0  0  0  0  0  0  0  0  0
   -5.2358   -0.5870   -1.3866 C   0  0  0  0  0  0  0  0  0  0  0  0
   -3.3706   -1.2794    0.2044 C   0  0  1  0  0  0  0  0  0  0  0  0
   -2.7853   -2.3867   -0.6830 C   0  0  0  0  0  0  0  0  0  0  0  0
   -3.2906    1.1037    1.0508 C   0  0  0  0  0  0  0  0  0  0  0  0
    1.6340   -1.4685    1.4870 N   0  0  0  0  0  0  0  0  0  0  0  0
    2.8900   -1.2243    1.1057 N   0  0  0  0  0  0  0  0  0  0  0  0
    3.0386   -0.0792    0.3732 C   0  0  0  0  0  0  0  0  0  0  0  0
    4.3672    0.3741   -0.1663 C   0  0  0  0  0  0  0  0  0  0  0  0
    5.2610    0.9120    0.9666 C   0  0  0  0  0  0  0  0  0  0  0  0
    6.7224    0.9633    0.5394 C   0  0  0  0  0  0  0  0  0  0  0  0
    7.2670   -0.4246    0.1990 C   0  0  0  0  0  0  0  0  0  0  0  0
    6.1934   -1.4091   -0.2672 C   0  0  0  0  0  0  0  0  0  0  0  0
    5.0612   -0.7117   -1.0155 C   0  0  0  0  0  0  0  0  0  0  0  0
    2.2288    2.4873   -0.3047 H   0  0  0  0  0  0  0  0  0  0  0  0
    0.5644    2.2506    0.2194 H   0  0  0  0  0  0  0  0  0  0  0  0
    1.0930    1.6208   -1.3563 H   0  0  0  0  0  0  0  0  0  0  0  0
   -0.7181    0.0125   -0.7644 H   0  0  0  0  0  0  0  0  0  0  0  0
   -2.6509    0.0421   -2.1934 H   0  0  0  0  0  0  0  0  0  0  0  0
   -2.6048    1.6637   -1.5414 H   0  0  0  0  0  0  0  0  0  0  0  0
   -4.8197    1.1785   -2.5720 H   0  0  0  0  0  0  0  0  0  0  0  0
   -6.2250    1.8662   -0.6292 H   0  0  0  0  0  0  0  0  0  0  0  0
   -4.7030    2.7534   -0.6430 H   0  0  0  0  0  0  0  0  0  0  0  0
   -5.2128    1.9093    1.6485 H   0  0  0  0  0  0  0  0  0  0  0  0
   -6.5445   -0.0898    0.9760 H   0  0  0  0  0  0  0  0  0  0  0  0
   -5.2481   -0.5485    2.0758 H   0  0  0  0  0  0  0  0  0  0  0  0
   -5.3863   -2.1186    0.1401 H   0  0  0  0  0  0  0  0  0  0  0  0
   -4.8936   -1.2732   -2.1690 H   0  0  0  0  0  0  0  0  0  0  0  0
   -6.3239   -0.5053   -1.5038 H   0  0  0  0  0  0  0  0  0  0  0  0
   -3.2009   -1.6072    1.2393 H   0  0  0  0  0  0  0  0  0  0  0  0
   -1.7324   -2.5652   -0.4423 H   0  0  0  0  0  0  0  0  0  0  0  0
   -2.8459   -2.1559   -1.7493 H   0  0  0  0  0  0  0  0  0  0  0  0
   -3.3187   -3.3289   -0.5165 H   0  0  0  0  0  0  0  0  0  0  0  0
   -3.0685    0.7749    2.0723 H   0  0  0  0  0  0  0  0  0  0  0  0
   -2.8262    2.0928    0.9412 H   0  0  0  0  0  0  0  0  0  0  0  0
    3.6052   -1.8895    1.3796 H   0  0  0  0  0  0  0  0  0  0  0  0
    4.1685    1.2094   -0.8522 H   0  0  0  0  0  0  0  0  0  0  0  0
    4.9218    1.9148    1.2551 H   0  0  0  0  0  0  0  0  0  0  0  0
    5.1766    0.2907    1.8680 H   0  0  0  0  0  0  0  0  0  0  0  0
    7.3338    1.4146    1.3290 H   0  0  0  0  0  0  0  0  0  0  0  0
    6.8172    1.6156   -0.3380 H   0  0  0  0  0  0  0  0  0  0  0  0
    7.7741   -0.8486    1.0743 H   0  0  0  0  0  0  0  0  0  0  0  0
    8.0361   -0.3195   -0.5759 H   0  0  0  0  0  0  0  0  0  0  0  0
    5.7861   -1.9384    0.6023 H   0  0  0  0  0  0  0  0  0  0  0  0
    6.6517   -2.1732   -0.9054 H   0  0  0  0  0  0  0  0  0  0  0  0
    4.3441   -1.4537   -1.3869 H   0  0  0  0  0  0  0  0  0  0  0  0
    5.4907   -0.2351   -1.9073 H   0  0  0  0  0  0  0  0  0  0  0  0
  1  2  1  0
  2  3  1  0
  3  4  1  0
  4  5  2  0
  4  6  1  0
  7  6  1  6
  7  8  1  0
  8  9  1  0
  9 10  1  0
 10 11  1  0
 11 12  1  0
 12 13  1  0
 13 14  1  0
 13 15  1  0
 15 16  1  0
 11 17  1  0
  3 18  2  0
 18 19  1  0
 19 20  1  0
 20 21  1  0
 21 22  1  0
 22 23  1  0
 23 24  1  0
 24 25  1  0
 25 26  1  0
 20  2  2  0
 26 21  1  0
 15  7  1  0
 17  7  1  0
 14  9  1  0
  1 27  1  0
  1 28  1  0
  1 29  1  0
  6 30  1  0
  8 31  1  0
  8 32  1  0
  9 33  1  6
 10 34  1  0
 10 35  1  0
 11 36  1  1
 12 37  1  0
 12 38  1  0
 13 39  1  1
 14 40  1  0
 14 41  1  0
 15 42  1  1
 16 43  1  0
 16 44  1  0
 16 45  1  0
 17 46  1  0
 17 47  1  0
 19 48  1  0
 21 49  1  0
 22 50  1  0
 22 51  1  0
 23 52  1  0
 23 53  1  0
 24 54  1  0
 24 55  1  0
 25 56  1  0
 25 57  1  0
 26 58  1  0
 26 59  1  0
M  END
>  <_SMILES>  (44) 
Cc1c(C(=O)N[C@@]23C[C@@H]4C[C@@H](C[C@@H](C4)[C@H]2C)C3)n[nH]c1C1CCCCC1

$$$$

     RDKit          3D

 59 63  0  0  0  0  0  0  0  0999 V2000
    2.3356   -1.9090   -0.4731 C   0  0  0  0  0  0  0  0  0  0  0  0
    2.1654   -0.5428    0.0863 C   0  0  0  0  0  0  0  0  0  0  0  0
    3.1643    0.4386    0.3681 C   0  0  0  0  0  0  0  0  0  0  0  0
    4.6592    0.3806    0.1852 C   0  0  0  0  0  0  0  0  0  0  0  0
    5.0670    0.3756   -1.3018 C   0  0  0  0  0  0  0  0  0  0  0  0
    6.4017   -0.3259   -1.5646 C   0  0  0  0  0  0  0  0  0  0  0  0
    7.3762   -0.1328   -0.4112 C   0  0  0  0  0  0  0  0  0  0  0  0
    6.8375   -0.7103    0.8988 C   0  0  0  0  0  0  0  0  0  0  0  0
    5.3089   -0.7727    0.9611 C   0  0  0  0  0  0  0  0  0  0  0  0
    2.6211    1.5546    0.8719 N   0  0  0  0  0  0  0  0  0  0  0  0
    1.3163    1.2769    0.9531 N   0  0  0  0  0  0  0  0  0  0  0  0
    0.9670    0.0549    0.4548 C   0  0  0  0  0  0  0  0  0  0  0  0
   -0.3796   -0.4647    0.4207 C   0  0  0  0  0  0  0  0  0  0  0  0
   -0.6304   -1.6618    0.4803 O   0  0  0  0  0  0  0  0  0  0  0  0
   -1.3495    0.5107    0.2840 N   0  0  0  0  0  0  0  0  0  0  0  0
   -2.7898    0.2413    0.1431 C   0  0  1  0  0  0  0  0  0  0  0  0
   -3.3574   -0.5889    1.3263 C   0  0  0  0  0  0  0  0  0  0  0  0
   -4.8663   -0.8348    1.1470 C   0  0  2  0  0  0  0  0  0  0  0  0
   -5.0985   -1.6020   -0.1657 C   0  0  0  0  0  0  0  0  0  0  0  0
   -4.5787   -0.7783   -1.3550 C   0  0  1  0  0  0  0  0  0  0  0  0
   -5.3161    0.5684   -1.4013 C   0  0  0  0  0  0  0  0  0  0  0  0
   -5.0782    1.3460   -0.0938 C   0  0  1  0  0  0  0  0  0  0  0  0
   -5.6095    0.5070    1.0816 C   0  0  0  0  0  0  0  0  0  0  0  0
   -3.5585    1.6085    0.0615 C   0  0  1  0  0  0  0  0  0  0  0  0
   -3.2724    2.5607    1.2334 C   0  0  0  0  0  0  0  0  0  0  0  0
   -3.0717   -0.5290   -1.1765 C   0  0  0  0  0  0  0  0  0  0  0  0
    1.5208   -2.1554   -1.1615 H   0  0  0  0  0  0  0  0  0  0  0  0
    2.3423   -2.6486    0.3338 H   0  0  0  0  0  0  0  0  0  0  0  0
    3.2685   -2.0065   -1.0339 H   0  0  0  0  0  0  0  0  0  0  0  0
    5.0717    1.3057    0.6178 H   0  0  0  0  0  0  0  0  0  0  0  0
    4.3018   -0.0863   -1.9366 H   0  0  0  0  0  0  0  0  0  0  0  0
    5.1348    1.4176   -1.6424 H   0  0  0  0  0  0  0  0  0  0  0  0
    6.8374    0.0535   -2.4959 H   0  0  0  0  0  0  0  0  0  0  0  0
    6.2265   -1.3986   -1.7148 H   0  0  0  0  0  0  0  0  0  0  0  0
    7.5697    0.9396   -0.2816 H   0  0  0  0  0  0  0  0  0  0  0  0
    8.3410   -0.5957   -0.6474 H   0  0  0  0  0  0  0  0  0  0  0  0
    7.2183   -0.1067    1.7318 H   0  0  0  0  0  0  0  0  0  0  0  0
    7.2356   -1.7212    1.0494 H   0  0  0  0  0  0  0  0  0  0  0  0
    4.9893   -0.7658    2.0106 H   0  0  0  0  0  0  0  0  0  0  0  0
    4.9820   -1.7362    0.5522 H   0  0  0  0  0  0  0  0  0  0  0  0
    0.7069    1.9665    1.3784 H   0  0  0  0  0  0  0  0  0  0  0  0
   -1.0314    1.3720   -0.1386 H   0  0  0  0  0  0  0  0  0  0  0  0
   -2.8584   -1.5617    1.3995 H   0  0  0  0  0  0  0  0  0  0  0  0
   -3.1664   -0.0865    2.2818 H   0  0  0  0  0  0  0  0  0  0  0  0
   -5.2454   -1.4253    1.9887 H   0  0  0  0  0  0  0  0  0  0  0  0
   -4.5883   -2.5724   -0.1291 H   0  0  0  0  0  0  0  0  0  0  0  0
   -6.1680   -1.8101   -0.2936 H   0  0  0  0  0  0  0  0  0  0  0  0
   -4.7534   -1.3264   -2.2876 H   0  0  0  0  0  0  0  0  0  0  0  0
   -4.9677    1.1582   -2.2581 H   0  0  0  0  0  0  0  0  0  0  0  0
   -6.3905    0.4020   -1.5477 H   0  0  0  0  0  0  0  0  0  0  0  0
   -5.6213    2.2973   -0.1400 H   0  0  0  0  0  0  0  0  0  0  0  0
   -5.4977    1.0474    2.0279 H   0  0  0  0  0  0  0  0  0  0  0  0
   -6.6850    0.3300    0.9541 H   0  0  0  0  0  0  0  0  0  0  0  0
   -3.2161    2.1387   -0.8399 H   0  0  0  0  0  0  0  0  0  0  0  0
   -3.5145    2.1258    2.2061 H   0  0  0  0  0  0  0  0  0  0  0  0
   -2.2173    2.8520    1.2547 H   0  0  0  0  0  0  0  0  0  0  0  0
   -3.8577    3.4807    1.1265 H   0  0  0  0  0  0  0  0  0  0  0  0
   -2.6837    0.0375   -2.0334 H   0  0  0  0  0  0  0  0  0  0  0  0
   -2.5472   -1.4919   -1.1865 H   0  0  0  0  0  0  0  0  0  0  0  0
  1  2  1  0
  2  3  1  0
  3  4  1  0
  4  5  1  0
  5  6  1  0
  6  7  1  0
  7  8  1  0
  8  9  1  0
  3 10  2  0
 10 11  1  0
 11 12  1  0
 12 13  1  0
 13 14  2  0
 13 15  1  0
 16 15  1  1
 16 17  1  0
 17 18  1  0
 18 19  1  0
 19 20  1  0
 20 21  1  0
 21 22  1  0
 22 23  1  0
 22 24  1  0
 24 25  1  0
 20 26  1  0
 12  2  2  0
 24 16  1  0
  9  4  1  0
 26 16  1  0
 23 18  1  0
  1 27  1  0
  1 28  1  0
  1 29  1  0
  4 30  1  0
  5 31  1  0
  5 32  1  0
  6 33  1  0
  6 34  1  0
  7 35  1  0
  7 36  1  0
  8 37  1  0
  8 38  1  0
  9 39  1  0
  9 40  1  0
 11 41  1  0
 15 42  1  0
 17 43  1  0
 17 44  1  0
 18 45  1  1
 19 46  1  0
 19 47  1  0
 20 48  1  6
 21 49  1  0
 21 50  1  0
 22 51  1  6
 23 52  1  0
 23 53  1  0
 24 54  1  6
 25 55  1  0
 25 56  1  0
 25 57  1  0
 26 58  1  0
 26 59  1  0
M  END
>  <_SMILES>  (45) 
Cc1c(C2CCCCC2)n[nH]c1C(=O)N[C@@]12C[C@@H]3C[C@@H](C[C@@H](C3)[C@H]1C)C2

$$$$

     RDKit          3D

 59 63  0  0  0  0  0  0  0  0999 V2000
   -3.0205    0.8380    2.1570 C   0  0  0  0  0  0  0  0  0  0  0  0
   -3.4914    1.0188    0.7071 C   0  0  2  0  0  0  0  0  0  0  0  0
   -5.0397    1.0652    0.6111 C   0  0  2  0  0  0  0  0  0  0  0  0
   -5.6531   -0.3091    0.9351 C   0  0  0  0  0  0  0  0  0  0  0  0
   -5.1261   -1.3662   -0.0466 C   0  0  1  0  0  0  0  0  0  0  0  0
   -5.5219   -0.9677   -1.4766 C   0  0  0  0  0  0  0  0  0  0  0  0
   -4.9169    0.4011   -1.8218 C   0  0  1  0  0  0  0  0  0  0  0  0
   -5.4365    1.4520   -0.8271 C   0  0  0  0  0  0  0  0  0  0  0  0
   -3.3844    0.3183   -1.7191 C   0  0  0  0  0  0  0  0  0  0  0  0
   -2.9453   -0.0656   -0.2784 C   0  0  1  0  0  0  0  0  0  0  0  0
   -1.4935   -0.2091   -0.2043 N   0  0  0  0  0  0  0  0  0  0  0  0
   -0.5614    0.7758   -0.4494 C   0  0  0  0  0  0  0  0  0  0  0  0
   -0.8301    1.9237   -0.7859 O   0  0  0  0  0  0  0  0  0  0  0  0
    0.8211    0.3073   -0.2570 C   0  0  0  0  0  0  0  0  0  0  0  0
    2.0080    1.0556   -0.4246 C   0  0  0  0  0  0  0  0  0  0  0  0
    3.0514    0.1991   -0.1279 C   0  0  0  0  0  0  0  0  0  0  0  0
    4.5265    0.4937   -0.1408 C   0  0  0  0  0  0  0  0  0  0  0  0
    5.2478   -0.1773   -1.3244 C   0  0  0  0  0  0  0  0  0  0  0  0
    6.7185   -0.4874   -1.0353 C   0  0  0  0  0  0  0  0  0  0  0  0
    7.3569    0.5843   -0.1616 C   0  0  0  0  0  0  0  0  0  0  0  0
    6.6664    0.7114    1.1982 C   0  0  0  0  0  0  0  0  0  0  0  0
    5.2158    0.2201    1.2001 C   0  0  0  0  0  0  0  0  0  0  0  0
    2.4502   -0.9969    0.1848 N   0  0  0  0  0  0  0  0  0  0  0  0
    3.0610   -2.2445    0.5818 C   0  0  0  0  0  0  0  0  0  0  0  0
    1.1022   -0.9539    0.1255 N   0  0  0  0  0  0  0  0  0  0  0  0
   -3.5940   -1.4396    0.0479 C   0  0  0  0  0  0  0  0  0  0  0  0
   -3.2922   -0.1338    2.5762 H   0  0  0  0  0  0  0  0  0  0  0  0
   -1.9328    0.9377    2.2304 H   0  0  0  0  0  0  0  0  0  0  0  0
   -3.4594    1.6103    2.7981 H   0  0  0  0  0  0  0  0  0  0  0  0
   -3.1154    2.0022    0.3929 H   0  0  0  0  0  0  0  0  0  0  0  0
   -5.4353    1.8158    1.3055 H   0  0  0  0  0  0  0  0  0  0  0  0
   -6.7468   -0.2517    0.8665 H   0  0  0  0  0  0  0  0  0  0  0  0
   -5.4253   -0.6033    1.9655 H   0  0  0  0  0  0  0  0  0  0  0  0
   -5.5587   -2.3435    0.1953 H   0  0  0  0  0  0  0  0  0  0  0  0
   -5.1704   -1.7244   -2.1888 H   0  0  0  0  0  0  0  0  0  0  0  0
   -6.6144   -0.9291   -1.5672 H   0  0  0  0  0  0  0  0  0  0  0  0
   -5.2033    0.6839   -2.8410 H   0  0  0  0  0  0  0  0  0  0  0  0
   -5.0283    2.4392   -1.0766 H   0  0  0  0  0  0  0  0  0  0  0  0
   -6.5278    1.5323   -0.9047 H   0  0  0  0  0  0  0  0  0  0  0  0
   -3.0024   -0.4184   -2.4384 H   0  0  0  0  0  0  0  0  0  0  0  0
   -2.9552    1.2831   -2.0144 H   0  0  0  0  0  0  0  0  0  0  0  0
   -1.0832   -1.0942    0.0863 H   0  0  0  0  0  0  0  0  0  0  0  0
    2.0800    2.0935   -0.7217 H   0  0  0  0  0  0  0  0  0  0  0  0
    4.6162    1.5794   -0.3038 H   0  0  0  0  0  0  0  0  0  0  0  0
    4.7519   -1.1005   -1.6454 H   0  0  0  0  0  0  0  0  0  0  0  0
    5.1875    0.4966   -2.1898 H   0  0  0  0  0  0  0  0  0  0  0  0
    6.7953   -1.4594   -0.5322 H   0  0  0  0  0  0  0  0  0  0  0  0
    7.2655   -0.5795   -1.9805 H   0  0  0  0  0  0  0  0  0  0  0  0
    8.4213    0.3688   -0.0140 H   0  0  0  0  0  0  0  0  0  0  0  0
    7.3055    1.5482   -0.6837 H   0  0  0  0  0  0  0  0  0  0  0  0
    6.7027    1.7610    1.5144 H   0  0  0  0  0  0  0  0  0  0  0  0
    7.2282    0.1474    1.9527 H   0  0  0  0  0  0  0  0  0  0  0  0
    5.2191   -0.8532    1.4196 H   0  0  0  0  0  0  0  0  0  0  0  0
    4.6721    0.6974    2.0248 H   0  0  0  0  0  0  0  0  0  0  0  0
    2.4048   -3.0706    0.2930 H   0  0  0  0  0  0  0  0  0  0  0  0
    3.1869   -2.2295    1.6670 H   0  0  0  0  0  0  0  0  0  0  0  0
    4.0217   -2.3670    0.0818 H   0  0  0  0  0  0  0  0  0  0  0  0
   -3.2974   -1.7833    1.0463 H   0  0  0  0  0  0  0  0  0  0  0  0
   -3.2214   -2.2026   -0.6494 H   0  0  0  0  0  0  0  0  0  0  0  0
  1  2  1  0
  2  3  1  0
  3  4  1  0
  4  5  1  0
  5  6  1  0
  6  7  1  0
  7  8  1  0
  7  9  1  0
  9 10  1  0
 10 11  1  6
 11 12  1  0
 12 13  2  0
 12 14  1  0
 14 15  1  0
 15 16  2  0
 16 17  1  0
 17 18  1  0
 18 19  1  0
 19 20  1  0
 20 21  1  0
 21 22  1  0
 16 23  1  0
 23 24  1  0
 23 25  1  0
 10 26  1  0
 10  2  1  0
 25 14  2  0
  8  3  1  0
 22 17  1  0
 26  5  1  0
  1 27  1  0
  1 28  1  0
  1 29  1  0
  2 30  1  6
  3 31  1  1
  4 32  1  0
  4 33  1  0
  5 34  1  1
  6 35  1  0
  6 36  1  0
  7 37  1  6
  8 38  1  0
  8 39  1  0
  9 40  1  0
  9 41  1  0
 11 42  1  0
 15 43  1  0
 17 44  1  0
 18 45  1  0
 18 46  1  0
 19 47  1  0
 19 48  1  0
 20 49  1  0
 20 50  1  0
 21 51  1  0
 21 52  1  0
 22 53  1  0
 22 54  1  0
 24 55  1  0
 24 56  1  0
 24 57  1  0
 26 58  1  0
 26 59  1  0
M  END
>  <_SMILES>  (46) 
C[C@@H]1[C@@H]2C[C@H]3C[C@@H](C2)C[C@]1(NC(=O)c1cc(C2CCCCC2)n(C)n1)C3

$$$$

     RDKit          3D

 59 63  0  0  0  0  0  0  0  0999 V2000
    2.3257    2.0657    1.9203 C   0  0  0  0  0  0  0  0  0  0  0  0
    2.2770    0.9508    0.9366 C   0  0  0  0  0  0  0  0  0  0  0  0
    1.0913    0.3783    0.3896 C   0  0  0  0  0  0  0  0  0  0  0  0
   -0.3134    0.7490    0.6637 C   0  0  0  0  0  0  0  0  0  0  0  0
   -0.6316    1.6177    1.4683 O   0  0  0  0  0  0  0  0  0  0  0  0
   -1.2069   -0.0001   -0.0729 N   0  0  0  0  0  0  0  0  0  0  0  0
   -2.6629    0.0057    0.0571 C   0  0  1  0  0  0  0  0  0  0  0  0
   -3.2658    1.4212   -0.1474 C   0  0  0  0  0  0  0  0  0  0  0  0
   -4.7981    1.3882   -0.0032 C   0  0  2  0  0  0  0  0  0  0  0  0
   -5.1602    0.8871    1.4049 C   0  0  0  0  0  0  0  0  0  0  0  0
   -4.6032   -0.5297    1.6173 C   0  0  1  0  0  0  0  0  0  0  0  0
   -5.1973   -1.4735    0.5611 C   0  0  0  0  0  0  0  0  0  0  0  0
   -4.8301   -0.9833   -0.8515 C   0  0  1  0  0  0  0  0  0  0  0  0
   -5.3999    0.4334   -1.0443 C   0  0  0  0  0  0  0  0  0  0  0  0
   -3.2861   -0.9783   -0.9943 C   0  0  1  0  0  0  0  0  0  0  0  0
   -2.8634   -0.7007   -2.4459 C   0  0  0  0  0  0  0  0  0  0  0  0
   -3.0734   -0.4979    1.4684 C   0  0  0  0  0  0  0  0  0  0  0  0
    1.3882   -0.6167   -0.4668 N   0  0  0  0  0  0  0  0  0  0  0  0
    2.7325   -0.6789   -0.4660 N   0  0  0  0  0  0  0  0  0  0  0  0
    3.3382   -1.6750   -1.3197 C   0  0  0  0  0  0  0  0  0  0  0  0
    3.3298    0.2547    0.3496 C   0  0  0  0  0  0  0  0  0  0  0  0
    4.8075    0.4437    0.5390 C   0  0  0  0  0  0  0  0  0  0  0  0
    5.5270   -0.7389    1.2057 C   0  0  0  0  0  0  0  0  0  0  0  0
    6.7987   -0.9687    0.3889 C   0  0  0  0  0  0  0  0  0  0  0  0
    7.0087    0.3215   -0.3888 C   0  0  0  0  0  0  0  0  0  0  0  0
    5.5928    0.7560   -0.7367 C   0  0  0  0  0  0  0  0  0  0  0  0
    1.8987    2.9750    1.4849 H   0  0  0  0  0  0  0  0  0  0  0  0
    3.3444    2.2972    2.2401 H   0  0  0  0  0  0  0  0  0  0  0  0
    1.7539    1.8078    2.8177 H   0  0  0  0  0  0  0  0  0  0  0  0
   -0.7509   -0.7445   -0.5970 H   0  0  0  0  0  0  0  0  0  0  0  0
   -2.8648    2.1266    0.5895 H   0  0  0  0  0  0  0  0  0  0  0  0
   -2.9864    1.8263   -1.1270 H   0  0  0  0  0  0  0  0  0  0  0  0
   -5.2033    2.3959   -0.1494 H   0  0  0  0  0  0  0  0  0  0  0  0
   -4.7533    1.5683    2.1624 H   0  0  0  0  0  0  0  0  0  0  0  0
   -6.2497    0.8842    1.5330 H   0  0  0  0  0  0  0  0  0  0  0  0
   -4.8688   -0.8840    2.6197 H   0  0  0  0  0  0  0  0  0  0  0  0
   -6.2880   -1.5181    0.6702 H   0  0  0  0  0  0  0  0  0  0  0  0
   -4.8222   -2.4928    0.7145 H   0  0  0  0  0  0  0  0  0  0  0  0
   -5.2737   -1.6605   -1.5910 H   0  0  0  0  0  0  0  0  0  0  0  0
   -5.1966    0.8008   -2.0561 H   0  0  0  0  0  0  0  0  0  0  0  0
   -6.4921    0.4106   -0.9397 H   0  0  0  0  0  0  0  0  0  0  0  0
   -2.9237   -1.9925   -0.7691 H   0  0  0  0  0  0  0  0  0  0  0  0
   -1.7856   -0.8398   -2.5766 H   0  0  0  0  0  0  0  0  0  0  0  0
   -3.3615   -1.4001   -3.1264 H   0  0  0  0  0  0  0  0  0  0  0  0
   -3.1076    0.3120   -2.7754 H   0  0  0  0  0  0  0  0  0  0  0  0
   -2.6611   -1.5002    1.6454 H   0  0  0  0  0  0  0  0  0  0  0  0
   -2.6503    0.1468    2.2487 H   0  0  0  0  0  0  0  0  0  0  0  0
    4.3217   -1.9523   -0.9464 H   0  0  0  0  0  0  0  0  0  0  0  0
    2.7026   -2.5652   -1.3292 H   0  0  0  0  0  0  0  0  0  0  0  0
    3.4123   -1.2580   -2.3270 H   0  0  0  0  0  0  0  0  0  0  0  0
    4.9566    1.3048    1.2038 H   0  0  0  0  0  0  0  0  0  0  0  0
    4.9271   -1.6527    1.2663 H   0  0  0  0  0  0  0  0  0  0  0  0
    5.7907   -0.4712    2.2366 H   0  0  0  0  0  0  0  0  0  0  0  0
    7.6566   -1.2150    1.0215 H   0  0  0  0  0  0  0  0  0  0  0  0
    6.6483   -1.8023   -0.3069 H   0  0  0  0  0  0  0  0  0  0  0  0
    7.4910    1.0731    0.2474 H   0  0  0  0  0  0  0  0  0  0  0  0
    7.6296    0.1752   -1.2772 H   0  0  0  0  0  0  0  0  0  0  0  0
    5.5450    1.8188   -0.9963 H   0  0  0  0  0  0  0  0  0  0  0  0
    5.2359    0.1945   -1.6049 H   0  0  0  0  0  0  0  0  0  0  0  0
  1  2  1  0
  2  3  1  0
  3  4  1  0
  4  5  2  0
  4  6  1  0
  7  6  1  1
  7  8  1  0
  8  9  1  0
  9 10  1  0
 10 11  1  0
 11 12  1  0
 12 13  1  0
 13 14  1  0
 13 15  1  0
 15 16  1  0
 11 17  1  0
  3 18  2  0
 18 19  1  0
 19 20  1  0
 19 21  1  0
 21 22  1  0
 22 23  1  0
 23 24  1  0
 24 25  1  0
 25 26  1  0
 21  2  2  0
 26 22  1  0
 15  7  1  0
 17  7  1  0
 14  9  1  0
  1 27  1  0
  1 28  1  0
  1 29  1  0
  6 30  1  0
  8 31  1  0
  8 32  1  0
  9 33  1  6
 10 34  1  0
 10 35  1  0
 11 36  1  1
 12 37  1  0
 12 38  1  0
 13 39  1  6
 14 40  1  0
 14 41  1  0
 15 42  1  1
 16 43  1  0
 16 44  1  0
 16 45  1  0
 17 46  1  0
 17 47  1  0
 20 48  1  0
 20 49  1  0
 20 50  1  0
 22 51  1  0
 23 52  1  0
 23 53  1  0
 24 54  1  0
 24 55  1  0
 25 56  1  0
 25 57  1  0
 26 58  1  0
 26 59  1  0
M  END
>  <_SMILES>  (47) 
Cc1c(C(=O)N[C@@]23C[C@@H]4C[C@@H](C[C@@H](C4)[C@H]2C)C3)nn(C)c1C1CCCC1

$$$$

     RDKit          3D

 56 60  0  0  0  0  0  0  0  0999 V2000
   -2.8353    2.2566   -0.5833 C   0  0  0  0  0  0  0  0  0  0  0  0
   -3.3112    0.8229   -0.8568 C   0  0  2  0  0  0  0  0  0  0  0  0
   -4.8591    0.7178   -0.8182 C   0  0  2  0  0  0  0  0  0  0  0  0
   -5.3894    0.9203    0.6127 C   0  0  0  0  0  0  0  0  0  0  0  0
   -4.7959   -0.1419    1.5501 C   0  0  1  0  0  0  0  0  0  0  0  0
   -5.2100   -1.5369    1.0572 C   0  0  0  0  0  0  0  0  0  0  0  0
   -4.6876   -1.7611   -0.3696 C   0  0  1  0  0  0  0  0  0  0  0  0
   -5.2734   -0.6864   -1.3001 C   0  0  0  0  0  0  0  0  0  0  0  0
   -3.1534   -1.6524   -0.3705 C   0  0  0  0  0  0  0  0  0  0  0  0
   -2.6969   -0.2452    0.1062 C   0  0  1  0  0  0  0  0  0  0  0  0
   -1.2392   -0.1712    0.1681 N   0  0  0  0  0  0  0  0  0  0  0  0
   -0.3681   -0.3248   -0.8884 C   0  0  0  0  0  0  0  0  0  0  0  0
   -0.7050   -0.5617   -2.0431 O   0  0  0  0  0  0  0  0  0  0  0  0
    1.0410   -0.1668   -0.4892 C   0  0  0  0  0  0  0  0  0  0  0  0
    2.1817   -0.2647   -1.3253 C   0  0  0  0  0  0  0  0  0  0  0  0
    3.2669   -0.0414   -0.5062 C   0  0  0  0  0  0  0  0  0  0  0  0
    4.7373   -0.0144   -0.8038 C   0  0  0  0  0  0  0  0  0  0  0  0
    5.3755    1.3486   -0.4656 C   0  0  0  0  0  0  0  0  0  0  0  0
    6.1589    1.3203    0.8434 C   0  0  0  0  0  0  0  0  0  0  0  0
    7.2774    0.2772    0.8216 C   0  0  0  0  0  0  0  0  0  0  0  0
    6.9588   -0.9477   -0.0368 C   0  0  0  0  0  0  0  0  0  0  0  0
    5.4591   -1.1986   -0.1336 C   0  0  0  0  0  0  0  0  0  0  0  0
    2.7403    0.1716    0.7386 N   0  0  0  0  0  0  0  0  0  0  0  0
    1.3992    0.1040    0.7842 N   0  0  0  0  0  0  0  0  0  0  0  0
   -3.2625   -0.0406    1.5391 C   0  0  0  0  0  0  0  0  0  0  0  0
   -1.7559    2.3475   -0.7414 H   0  0  0  0  0  0  0  0  0  0  0  0
   -3.3224    2.9563   -1.2713 H   0  0  0  0  0  0  0  0  0  0  0  0
   -3.0494    2.5906    0.4348 H   0  0  0  0  0  0  0  0  0  0  0  0
   -2.9944    0.5954   -1.8840 H   0  0  0  0  0  0  0  0  0  0  0  0
   -5.3018    1.4692   -1.4827 H   0  0  0  0  0  0  0  0  0  0  0  0
   -6.4844    0.8472    0.6155 H   0  0  0  0  0  0  0  0  0  0  0  0
   -5.1480    1.9243    0.9784 H   0  0  0  0  0  0  0  0  0  0  0  0
   -5.1695    0.0136    2.5684 H   0  0  0  0  0  0  0  0  0  0  0  0
   -6.3025   -1.6334    1.0766 H   0  0  0  0  0  0  0  0  0  0  0  0
   -4.8109   -2.3069    1.7288 H   0  0  0  0  0  0  0  0  0  0  0  0
   -4.9870   -2.7554   -0.7195 H   0  0  0  0  0  0  0  0  0  0  0  0
   -6.3673   -0.7664   -1.3210 H   0  0  0  0  0  0  0  0  0  0  0  0
   -4.9248   -0.8489   -2.3275 H   0  0  0  0  0  0  0  0  0  0  0  0
   -2.7821   -1.8622   -1.3807 H   0  0  0  0  0  0  0  0  0  0  0  0
   -2.7250   -2.4275    0.2789 H   0  0  0  0  0  0  0  0  0  0  0  0
   -0.7777    0.0401    1.0504 H   0  0  0  0  0  0  0  0  0  0  0  0
    2.1906   -0.4720   -2.3870 H   0  0  0  0  0  0  0  0  0  0  0  0
    4.8407   -0.1409   -1.8916 H   0  0  0  0  0  0  0  0  0  0  0  0
    4.6256    2.1484   -0.4355 H   0  0  0  0  0  0  0  0  0  0  0  0
    6.0728    1.6174   -1.2707 H   0  0  0  0  0  0  0  0  0  0  0  0
    6.5858    2.3087    1.0484 H   0  0  0  0  0  0  0  0  0  0  0  0
    5.4760    1.1018    1.6731 H   0  0  0  0  0  0  0  0  0  0  0  0
    8.2036    0.7337    0.4516 H   0  0  0  0  0  0  0  0  0  0  0  0
    7.4839   -0.0359    1.8523 H   0  0  0  0  0  0  0  0  0  0  0  0
    7.3641   -0.7996   -1.0458 H   0  0  0  0  0  0  0  0  0  0  0  0
    7.4657   -1.8275    0.3754 H   0  0  0  0  0  0  0  0  0  0  0  0
    5.0667   -1.3860    0.8744 H   0  0  0  0  0  0  0  0  0  0  0  0
    5.2707   -2.1140   -0.7083 H   0  0  0  0  0  0  0  0  0  0  0  0
    3.2388    0.3668    1.6005 H   0  0  0  0  0  0  0  0  0  0  0  0
   -2.8420   -0.7961    2.2172 H   0  0  0  0  0  0  0  0  0  0  0  0
   -2.9492    0.9281    1.9471 H   0  0  0  0  0  0  0  0  0  0  0  0
  1  2  1  0
  2  3  1  0
  3  4  1  0
  4  5  1  0
  5  6  1  0
  6  7  1  0
  7  8  1  0
  7  9  1  0
  9 10  1  0
 10 11  1  1
 11 12  1  0
 12 13  2  0
 12 14  1  0
 14 15  1  0
 15 16  2  0
 16 17  1  0
 17 18  1  0
 18 19  1  0
 19 20  1  0
 20 21  1  0
 21 22  1  0
 16 23  1  0
 23 24  1  0
 10 25  1  0
 10  2  1  0
 24 14  2  0
  8  3  1  0
 22 17  1  0
 25  5  1  0
  1 26  1  0
  1 27  1  0
  1 28  1  0
  2 29  1  6
  3 30  1  6
  4 31  1  0
  4 32  1  0
  5 33  1  1
  6 34  1  0
  6 35  1  0
  7 36  1  6
  8 37  1  0
  8 38  1  0
  9 39  1  0
  9 40  1  0
 11 41  1  0
 15 42  1  0
 17 43  1  0
 18 44  1  0
 18 45  1  0
 19 46  1  0
 19 47  1  0
 20 48  1  0
 20 49  1  0
 21 50  1  0
 21 51  1  0
 22 52  1  0
 22 53  1  0
 23 54  1  0
 25 55  1  0
 25 56  1  0
M  END
>  <_SMILES>  (48) 
C[C@@H]1[C@@H]2C[C@H]3C[C@@H](C2)C[C@]1(NC(=O)c1cc(C2CCCCC2)[nH]n1)C3

$$$$

     RDKit          3D

 56 60  0  0  0  0  0  0  0  0999 V2000
   -2.5764   -1.8017   -1.3709 C   0  0  0  0  0  0  0  0  0  0  0  0
   -3.1608   -0.9244   -0.2551 C   0  0  2  0  0  0  0  0  0  0  0  0
   -4.6068   -0.4672   -0.5852 C   0  0  2  0  0  0  0  0  0  0  0  0
   -4.6158    0.5285   -1.7590 C   0  0  0  0  0  0  0  0  0  0  0  0
   -3.7731    1.7636   -1.4083 C   0  0  1  0  0  0  0  0  0  0  0  0
   -4.3719    2.4477   -0.1699 C   0  0  0  0  0  0  0  0  0  0  0  0
   -4.3694    1.4715    1.0156 C   0  0  1  0  0  0  0  0  0  0  0  0
   -5.2018    0.2304    0.6538 C   0  0  0  0  0  0  0  0  0  0  0  0
   -2.9231    1.0434    1.3172 C   0  0  0  0  0  0  0  0  0  0  0  0
   -2.2893    0.3276    0.0913 C   0  0  1  0  0  0  0  0  0  0  0  0
   -0.8861   -0.0148    0.3567 N   0  0  0  0  0  0  0  0  0  0  0  0
   -0.4496   -0.8603    1.3508 C   0  0  0  0  0  0  0  0  0  0  0  0
   -1.2005   -1.4233    2.1393 O   0  0  0  0  0  0  0  0  0  0  0  0
    0.9765   -1.0514    1.4045 C   0  0  0  0  0  0  0  0  0  0  0  0
    2.0401   -0.5616    0.6722 C   0  0  0  0  0  0  0  0  0  0  0  0
    3.1992   -1.1481    1.2413 C   0  0  0  0  0  0  0  0  0  0  0  0
    4.6397   -0.9693    0.8401 C   0  0  0  0  0  0  0  0  0  0  0  0
    5.1001    0.5007    0.9452 C   0  0  0  0  0  0  0  0  0  0  0  0
    5.1538    1.1969   -0.4110 C   0  0  0  0  0  0  0  0  0  0  0  0
    6.1015    0.4904   -1.3816 C   0  0  0  0  0  0  0  0  0  0  0  0
    6.1901   -1.0202   -1.1614 C   0  0  0  0  0  0  0  0  0  0  0  0
    4.9121   -1.5795   -0.5493 C   0  0  0  0  0  0  0  0  0  0  0  0
    2.8836   -1.9530    2.2622 N   0  0  0  0  0  0  0  0  0  0  0  0
    1.5456   -1.8748    2.3385 N   0  0  0  0  0  0  0  0  0  0  0  0
   -2.3318    1.3325   -1.0953 C   0  0  0  0  0  0  0  0  0  0  0  0
   -2.4225   -1.2575   -2.3058 H   0  0  0  0  0  0  0  0  0  0  0  0
   -1.6122   -2.2247   -1.0714 H   0  0  0  0  0  0  0  0  0  0  0  0
   -3.2459   -2.6425   -1.5830 H   0  0  0  0  0  0  0  0  0  0  0  0
   -3.2201   -1.5708    0.6310 H   0  0  0  0  0  0  0  0  0  0  0  0
   -5.2253   -1.3365   -0.8378 H   0  0  0  0  0  0  0  0  0  0  0  0
   -4.2343    0.0574   -2.6714 H   0  0  0  0  0  0  0  0  0  0  0  0
   -5.6470    0.8331   -1.9783 H   0  0  0  0  0  0  0  0  0  0  0  0
   -3.7749    2.4637   -2.2513 H   0  0  0  0  0  0  0  0  0  0  0  0
   -5.3959    2.7789   -0.3817 H   0  0  0  0  0  0  0  0  0  0  0  0
   -3.7930    3.3451    0.0809 H   0  0  0  0  0  0  0  0  0  0  0  0
   -4.8001    1.9609    1.8963 H   0  0  0  0  0  0  0  0  0  0  0  0
   -6.2405    0.5224    0.4551 H   0  0  0  0  0  0  0  0  0  0  0  0
   -5.2258   -0.4656    1.5014 H   0  0  0  0  0  0  0  0  0  0  0  0
   -2.9235    0.3891    2.1967 H   0  0  0  0  0  0  0  0  0  0  0  0
   -2.3241    1.9220    1.5913 H   0  0  0  0  0  0  0  0  0  0  0  0
   -0.1910    0.3814   -0.2578 H   0  0  0  0  0  0  0  0  0  0  0  0
    2.0070    0.1240   -0.1613 H   0  0  0  0  0  0  0  0  0  0  0  0
    5.2497   -1.5297    1.5646 H   0  0  0  0  0  0  0  0  0  0  0  0
    6.1099    0.5217    1.3772 H   0  0  0  0  0  0  0  0  0  0  0  0
    4.4644    1.0710    1.6334 H   0  0  0  0  0  0  0  0  0  0  0  0
    5.4687    2.2395   -0.2875 H   0  0  0  0  0  0  0  0  0  0  0  0
    4.1474    1.2284   -0.8452 H   0  0  0  0  0  0  0  0  0  0  0  0
    7.1081    0.9174   -1.2950 H   0  0  0  0  0  0  0  0  0  0  0  0
    5.7708    0.6972   -2.4067 H   0  0  0  0  0  0  0  0  0  0  0  0
    6.4055   -1.5184   -2.1135 H   0  0  0  0  0  0  0  0  0  0  0  0
    7.0343   -1.2420   -0.4963 H   0  0  0  0  0  0  0  0  0  0  0  0
    4.0775   -1.3877   -1.2363 H   0  0  0  0  0  0  0  0  0  0  0  0
    4.9877   -2.6704   -0.4599 H   0  0  0  0  0  0  0  0  0  0  0  0
    1.0592   -2.4086    3.0526 H   0  0  0  0  0  0  0  0  0  0  0  0
   -1.7303    2.2196   -0.8536 H   0  0  0  0  0  0  0  0  0  0  0  0
   -1.8696    0.8983   -1.9901 H   0  0  0  0  0  0  0  0  0  0  0  0
  1  2  1  0
  2  3  1  0
  3  4  1  0
  4  5  1  0
  5  6  1  0
  6  7  1  0
  7  8  1  0
  7  9  1  0
  9 10  1  0
 10 11  1  1
 11 12  1  0
 12 13  2  0
 12 14  1  0
 14 15  2  0
 15 16  1  0
 16 17  1  0
 17 18  1  0
 18 19  1  0
 19 20  1  0
 20 21  1  0
 21 22  1  0
 16 23  2  0
 23 24  1  0
 10 25  1  0
 10  2  1  0
 24 14  1  0
  8  3  1  0
 22 17  1  0
 25  5  1  0
  1 26  1  0
  1 27  1  0
  1 28  1  0
  2 29  1  1
  3 30  1  6
  4 31  1  0
  4 32  1  0
  5 33  1  6
  6 34  1  0
  6 35  1  0
  7 36  1  1
  8 37  1  0
  8 38  1  0
  9 39  1  0
  9 40  1  0
 11 41  1  0
 15 42  1  0
 17 43  1  0
 18 44  1  0
 18 45  1  0
 19 46  1  0
 19 47  1  0
 20 48  1  0
 20 49  1  0
 21 50  1  0
 21 51  1  0
 22 52  1  0
 22 53  1  0
 24 54  1  0
 25 55  1  0
 25 56  1  0
M  END
>  <_SMILES>  (49) 
C[C@@H]1[C@@H]2C[C@H]3C[C@@H](C2)C[C@]1(NC(=O)c1cc(C2CCCCC2)n[nH]1)C3

$$$$

     RDKit          3D

 56 60  0  0  0  0  0  0  0  0999 V2000
   -2.1671    1.0098   -2.6450 C   0  0  0  0  0  0  0  0  0  0  0  0
   -2.8888    0.0389   -1.7026 C   0  0  2  0  0  0  0  0  0  0  0  0
   -4.4286    0.1288   -1.8932 C   0  0  2  0  0  0  0  0  0  0  0  0
   -4.9719    1.4646   -1.3514 C   0  0  0  0  0  0  0  0  0  0  0  0
   -4.6555    1.5971    0.1471 C   0  0  1  0  0  0  0  0  0  0  0  0
   -5.3181    0.4388    0.9064 C   0  0  0  0  0  0  0  0  0  0  0  0
   -4.7844   -0.9000    0.3786 C   0  0  1  0  0  0  0  0  0  0  0  0
   -5.0981   -1.0216   -1.1194 C   0  0  0  0  0  0  0  0  0  0  0  0
   -3.2634   -0.9472    0.5800 C   0  0  0  0  0  0  0  0  0  0  0  0
   -2.5471    0.2085   -0.1848 C   0  0  1  0  0  0  0  0  0  0  0  0
   -1.1149    0.0593    0.0834 N   0  0  0  0  0  0  0  0  0  0  0  0
   -0.1191    0.9953   -0.0913 C   0  0  0  0  0  0  0  0  0  0  0  0
   -0.2979    2.1740   -0.3739 O   0  0  0  0  0  0  0  0  0  0  0  0
    1.2270    0.4243    0.0912 C   0  0  0  0  0  0  0  0  0  0  0  0
    2.4625    1.1043    0.0116 C   0  0  0  0  0  0  0  0  0  0  0  0
    3.4433    0.1583    0.2447 C   0  0  0  0  0  0  0  0  0  0  0  0
    4.9273    0.3612    0.2663 C   0  0  0  0  0  0  0  0  0  0  0  0
    5.7366   -0.5826   -0.6354 C   0  0  0  0  0  0  0  0  0  0  0  0
    6.7863   -1.2238    0.2684 C   0  0  0  0  0  0  0  0  0  0  0  0
    6.9621   -0.2319    1.4064 C   0  0  0  0  0  0  0  0  0  0  0  0
    5.5464    0.2616    1.6644 C   0  0  0  0  0  0  0  0  0  0  0  0
    2.7583   -1.0150    0.4579 N   0  0  0  0  0  0  0  0  0  0  0  0
    3.2772   -2.3337    0.7386 C   0  0  0  0  0  0  0  0  0  0  0  0
    1.4184   -0.8829    0.3553 N   0  0  0  0  0  0  0  0  0  0  0  0
   -3.1319    1.5400    0.3566 C   0  0  0  0  0  0  0  0  0  0  0  0
   -2.3059    2.0567   -2.3642 H   0  0  0  0  0  0  0  0  0  0  0  0
   -2.5327    0.8902   -3.6710 H   0  0  0  0  0  0  0  0  0  0  0  0
   -1.0928    0.8038   -2.6690 H   0  0  0  0  0  0  0  0  0  0  0  0
   -2.5697   -0.9667   -2.0142 H   0  0  0  0  0  0  0  0  0  0  0  0
   -4.6811    0.0353   -2.9561 H   0  0  0  0  0  0  0  0  0  0  0  0
   -6.0572    1.5122   -1.5062 H   0  0  0  0  0  0  0  0  0  0  0  0
   -4.5450    2.3092   -1.9036 H   0  0  0  0  0  0  0  0  0  0  0  0
   -5.0431    2.5509    0.5228 H   0  0  0  0  0  0  0  0  0  0  0  0
   -6.4074    0.4834    0.7844 H   0  0  0  0  0  0  0  0  0  0  0  0
   -5.1145    0.5282    1.9805 H   0  0  0  0  0  0  0  0  0  0  0  0
   -5.2560   -1.7257    0.9231 H   0  0  0  0  0  0  0  0  0  0  0  0
   -4.7435   -1.9871   -1.5008 H   0  0  0  0  0  0  0  0  0  0  0  0
   -6.1834   -0.9982   -1.2780 H   0  0  0  0  0  0  0  0  0  0  0  0
   -2.8793   -1.9191    0.2412 H   0  0  0  0  0  0  0  0  0  0  0  0
   -3.0313   -0.8874    1.6522 H   0  0  0  0  0  0  0  0  0  0  0  0
   -0.7413   -0.8792    0.2145 H   0  0  0  0  0  0  0  0  0  0  0  0
    2.6074    2.1566   -0.1946 H   0  0  0  0  0  0  0  0  0  0  0  0
    5.1174    1.3814   -0.0998 H   0  0  0  0  0  0  0  0  0  0  0  0
    6.2422    0.0082   -1.4101 H   0  0  0  0  0  0  0  0  0  0  0  0
    5.1418   -1.3358   -1.1598 H   0  0  0  0  0  0  0  0  0  0  0  0
    6.4168   -2.1797    0.6561 H   0  0  0  0  0  0  0  0  0  0  0  0
    7.7237   -1.4177   -0.2611 H   0  0  0  0  0  0  0  0  0  0  0  0
    7.6014    0.6003    1.0885 H   0  0  0  0  0  0  0  0  0  0  0  0
    7.4108   -0.6897    2.2925 H   0  0  0  0  0  0  0  0  0  0  0  0
    5.0134   -0.4460    2.3081 H   0  0  0  0  0  0  0  0  0  0  0  0
    5.5434    1.2278    2.1804 H   0  0  0  0  0  0  0  0  0  0  0  0
    3.5427   -2.8062   -0.2096 H   0  0  0  0  0  0  0  0  0  0  0  0
    2.5046   -2.9226    1.2416 H   0  0  0  0  0  0  0  0  0  0  0  0
    4.1430   -2.2609    1.3946 H   0  0  0  0  0  0  0  0  0  0  0  0
   -2.9002    1.6445    1.4249 H   0  0  0  0  0  0  0  0  0  0  0  0
   -2.6826    2.4074   -0.1370 H   0  0  0  0  0  0  0  0  0  0  0  0
  1  2  1  0
  2  3  1  0
  3  4  1  0
  4  5  1  0
  5  6  1  0
  6  7  1  0
  7  8  1  0
  7  9  1  0
  9 10  1  0
 10 11  1  6
 11 12  1  0
 12 13  2  0
 12 14  1  0
 14 15  1  0
 15 16  2  0
 16 17  1  0
 17 18  1  0
 18 19  1  0
 19 20  1  0
 20 21  1  0
 16 22  1  0
 22 23  1  0
 22 24  1  0
 10 25  1  0
 10  2  1  0
 24 14  2  0
  8  3  1  0
 21 17  1  0
 25  5  1  0
  1 26  1  0
  1 27  1  0
  1 28  1  0
  2 29  1  6
  3 30  1  6
  4 31  1  0
  4 32  1  0
  5 33  1  1
  6 34  1  0
  6 35  1  0
  7 36  1  1
  8 37  1  0
  8 38  1  0
  9 39  1  0
  9 40  1  0
 11 41  1  0
 15 42  1  0
 17 43  1  0
 18 44  1  0
 18 45  1  0
 19 46  1  0
 19 47  1  0
 20 48  1  0
 20 49  1  0
 21 50  1  0
 21 51  1  0
 23 52  1  0
 23 53  1  0
 23 54  1  0
 25 55  1  0
 25 56  1  0
M  END
>  <_SMILES>  (50) 
C[C@@H]1[C@@H]2C[C@H]3C[C@@H](C2)C[C@]1(NC(=O)c1cc(C2CCCC2)n(C)n1)C3

$$$$

     RDKit          3D

 55 58  0  0  0  0  0  0  0  0999 V2000
    3.0366   -2.0174    1.3329 C   0  0  0  0  0  0  0  0  0  0  0  0
    2.9166   -0.7977    0.4915 C   0  0  0  0  0  0  0  0  0  0  0  0
    1.6882   -0.1756    0.1087 C   0  0  0  0  0  0  0  0  0  0  0  0
    0.3100   -0.5933    0.4451 C   0  0  0  0  0  0  0  0  0  0  0  0
    0.0556   -1.6041    1.0908 O   0  0  0  0  0  0  0  0  0  0  0  0
   -0.6382    0.2698   -0.0628 N   0  0  0  0  0  0  0  0  0  0  0  0
   -2.0875    0.0797   -0.0439 C   0  0  1  0  0  0  0  0  0  0  0  0
   -2.6373   -0.1073    1.3954 C   0  0  0  0  0  0  0  0  0  0  0  0
   -4.1639   -0.3044    1.3756 C   0  0  2  0  0  0  0  0  0  0  0  0
   -4.4990   -1.5540    0.5441 C   0  0  0  0  0  0  0  0  0  0  0  0
   -3.9948   -1.3763   -0.8971 C   0  0  1  0  0  0  0  0  0  0  0  0
   -4.6631   -0.1421   -1.5213 C   0  0  0  0  0  0  0  0  0  0  0  0
   -4.3235    1.1148   -0.6993 C   0  0  1  0  0  0  0  0  0  0  0  0
   -4.8398    0.9176    0.7372 C   0  0  0  0  0  0  0  0  0  0  0  0
   -2.7863    1.3182   -0.7072 C   0  0  1  0  0  0  0  0  0  0  0  0
   -2.4013    2.6688   -0.0826 C   0  0  0  0  0  0  0  0  0  0  0  0
   -2.4709   -1.1744   -0.8771 C   0  0  0  0  0  0  0  0  0  0  0  0
    1.9120    0.9104   -0.6563 N   0  0  0  0  0  0  0  0  0  0  0  0
    3.2492    0.9820   -0.7532 N   0  0  0  0  0  0  0  0  0  0  0  0
    3.8258    2.0654   -1.5179 C   0  0  0  0  0  0  0  0  0  0  0  0
    3.9142   -0.0225   -0.0898 C   0  0  0  0  0  0  0  0  0  0  0  0
    5.4187   -0.1335   -0.0804 C   0  0  0  0  0  0  0  0  0  0  0  0
    5.8934   -1.4421   -0.7129 C   0  0  0  0  0  0  0  0  0  0  0  0
    5.9875    0.0492    1.3269 C   0  0  0  0  0  0  0  0  0  0  0  0
    4.0743   -2.2771    1.5491 H   0  0  0  0  0  0  0  0  0  0  0  0
    2.5313   -1.8700    2.2930 H   0  0  0  0  0  0  0  0  0  0  0  0
    2.5795   -2.8739    0.8269 H   0  0  0  0  0  0  0  0  0  0  0  0
   -0.2317    0.9811   -0.6675 H   0  0  0  0  0  0  0  0  0  0  0  0
   -2.1826   -0.9809    1.8768 H   0  0  0  0  0  0  0  0  0  0  0  0
   -2.3744    0.7489    2.0276 H   0  0  0  0  0  0  0  0  0  0  0  0
   -4.5313   -0.4359    2.3996 H   0  0  0  0  0  0  0  0  0  0  0  0
   -5.5827   -1.7240    0.5433 H   0  0  0  0  0  0  0  0  0  0  0  0
   -4.0387   -2.4410    0.9965 H   0  0  0  0  0  0  0  0  0  0  0  0
   -4.2411   -2.2667   -1.4864 H   0  0  0  0  0  0  0  0  0  0  0  0
   -4.3259   -0.0159   -2.5574 H   0  0  0  0  0  0  0  0  0  0  0  0
   -5.7504   -0.2833   -1.5574 H   0  0  0  0  0  0  0  0  0  0  0  0
   -4.8196    1.9818   -1.1512 H   0  0  0  0  0  0  0  0  0  0  0  0
   -5.9278    0.7751    0.7233 H   0  0  0  0  0  0  0  0  0  0  0  0
   -4.6554    1.8111    1.3436 H   0  0  0  0  0  0  0  0  0  0  0  0
   -2.4592    1.3730   -1.7563 H   0  0  0  0  0  0  0  0  0  0  0  0
   -2.9504    3.4823   -0.5695 H   0  0  0  0  0  0  0  0  0  0  0  0
   -1.3352    2.8766   -0.2178 H   0  0  0  0  0  0  0  0  0  0  0  0
   -2.6141    2.7204    0.9878 H   0  0  0  0  0  0  0  0  0  0  0  0
   -2.0951   -1.0737   -1.9040 H   0  0  0  0  0  0  0  0  0  0  0  0
   -1.9952   -2.0735   -0.4662 H   0  0  0  0  0  0  0  0  0  0  0  0
    4.3882    1.6382   -2.3516 H   0  0  0  0  0  0  0  0  0  0  0  0
    4.4774    2.6450   -0.8594 H   0  0  0  0  0  0  0  0  0  0  0  0
    3.0285    2.7073   -1.9025 H   0  0  0  0  0  0  0  0  0  0  0  0
    5.8452    0.6715   -0.6906 H   0  0  0  0  0  0  0  0  0  0  0  0
    5.4914   -1.5545   -1.7261 H   0  0  0  0  0  0  0  0  0  0  0  0
    5.5869   -2.3189   -0.1351 H   0  0  0  0  0  0  0  0  0  0  0  0
    6.9865   -1.4598   -0.7834 H   0  0  0  0  0  0  0  0  0  0  0  0
    5.6775   -0.7494    2.0073 H   0  0  0  0  0  0  0  0  0  0  0  0
    7.0827    0.0543    1.3009 H   0  0  0  0  0  0  0  0  0  0  0  0
    5.6591    1.0006    1.7603 H   0  0  0  0  0  0  0  0  0  0  0  0
  1  2  1  0
  2  3  1  0
  3  4  1  0
  4  5  2  0
  4  6  1  0
  7  6  1  1
  7  8  1  0
  8  9  1  0
  9 10  1  0
 10 11  1  0
 11 12  1  0
 12 13  1  0
 13 14  1  0
 13 15  1  0
 15 16  1  0
 11 17  1  0
  3 18  2  0
 18 19  1  0
 19 20  1  0
 19 21  1  0
 21 22  1  0
 22 23  1  0
 22 24  1  0
 21  2  2  0
 15  7  1  0
 17  7  1  0
 14  9  1  0
  1 25  1  0
  1 26  1  0
  1 27  1  0
  6 28  1  0
  8 29  1  0
  8 30  1  0
  9 31  1  1
 10 32  1  0
 10 33  1  0
 11 34  1  6
 12 35  1  0
 12 36  1  0
 13 37  1  6
 14 38  1  0
 14 39  1  0
 15 40  1  6
 16 41  1  0
 16 42  1  0
 16 43  1  0
 17 44  1  0
 17 45  1  0
 20 46  1  0
 20 47  1  0
 20 48  1  0
 22 49  1  0
 23 50  1  0
 23 51  1  0
 23 52  1  0
 24 53  1  0
 24 54  1  0
 24 55  1  0
M  END
>  <_SMILES>  (51) 
Cc1c(C(=O)N[C@@]23C[C@@H]4C[C@@H](C[C@@H](C4)[C@H]2C)C3)nn(C)c1C(C)C

$$$$

     RDKit          3D

 58 61  0  0  0  0  0  0  0  0999 V2000
    1.7804    1.6662    0.3171 C   0  0  0  0  0  0  0  0  0  0  0  0
    2.2090    0.3982   -0.3327 C   0  0  0  0  0  0  0  0  0  0  0  0
    1.3545   -0.4891   -1.0633 C   0  0  0  0  0  0  0  0  0  0  0  0
   -0.1105   -0.4251   -1.2412 C   0  0  0  0  0  0  0  0  0  0  0  0
   -0.6609   -0.6052   -2.3225 O   0  0  0  0  0  0  0  0  0  0  0  0
   -0.7961   -0.1765   -0.0622 N   0  0  0  0  0  0  0  0  0  0  0  0
   -2.2554   -0.2267    0.0799 C   0  0  1  0  0  0  0  0  0  0  0  0
   -2.6096    0.1225    1.5537 C   0  0  0  0  0  0  0  0  0  0  0  0
   -4.1247    0.0441    1.7961 C   0  0  2  0  0  0  0  0  0  0  0  0
   -4.6063   -1.3850    1.5014 C   0  0  0  0  0  0  0  0  0  0  0  0
   -4.2969   -1.7486    0.0414 C   0  0  1  0  0  0  0  0  0  0  0  0
   -5.0109   -0.7560   -0.8905 C   0  0  0  0  0  0  0  0  0  0  0  0
   -4.5302    0.6807   -0.6066 C   0  0  1  0  0  0  0  0  0  0  0  0
   -4.8469    1.0233    0.8598 C   0  0  0  0  0  0  0  0  0  0  0  0
   -3.0040    0.7589   -0.8788 C   0  0  1  0  0  0  0  0  0  0  0  0
   -2.4921    2.2042   -0.8139 C   0  0  0  0  0  0  0  0  0  0  0  0
   -2.7787   -1.6644   -0.1914 C   0  0  0  0  0  0  0  0  0  0  0  0
    2.0662   -1.4825   -1.6049 N   0  0  0  0  0  0  0  0  0  0  0  0
    3.3396   -1.2205   -1.2808 N   0  0  0  0  0  0  0  0  0  0  0  0
    4.3423   -2.0399   -1.9224 C   0  0  0  0  0  0  0  0  0  0  0  0
    3.4870   -0.1718   -0.3907 C   0  0  0  0  0  0  0  0  0  0  0  0
    4.8111    0.2517    0.2675 C   0  0  0  0  0  0  0  0  0  0  0  0
    5.7194   -0.9484    0.6142 C   0  0  0  0  0  0  0  0  0  0  0  0
    4.5653    0.9736    1.6144 C   0  0  0  0  0  0  0  0  0  0  0  0
    5.5651    1.2143   -0.6664 C   0  0  0  0  0  0  0  0  0  0  0  0
    1.6866    1.5341    1.3990 H   0  0  0  0  0  0  0  0  0  0  0  0
    2.4937    2.4693    0.1094 H   0  0  0  0  0  0  0  0  0  0  0  0
    0.8156    2.0116   -0.0653 H   0  0  0  0  0  0  0  0  0  0  0  0
   -0.2478   -0.2983    0.7795 H   0  0  0  0  0  0  0  0  0  0  0  0
   -2.0979   -0.5719    2.2347 H   0  0  0  0  0  0  0  0  0  0  0  0
   -2.2381    1.1200    1.8178 H   0  0  0  0  0  0  0  0  0  0  0  0
   -4.3461    0.2984    2.8387 H   0  0  0  0  0  0  0  0  0  0  0  0
   -4.1142   -2.0947    2.1778 H   0  0  0  0  0  0  0  0  0  0  0  0
   -5.6845   -1.4639    1.6876 H   0  0  0  0  0  0  0  0  0  0  0  0
   -4.6456   -2.7664   -0.1664 H   0  0  0  0  0  0  0  0  0  0  0  0
   -6.0964   -0.8220   -0.7453 H   0  0  0  0  0  0  0  0  0  0  0  0
   -4.8156   -1.0174   -1.9378 H   0  0  0  0  0  0  0  0  0  0  0  0
   -5.0641    1.3735   -1.2678 H   0  0  0  0  0  0  0  0  0  0  0  0
   -4.5531    2.0532    1.0904 H   0  0  0  0  0  0  0  0  0  0  0  0
   -5.9299    0.9673    1.0278 H   0  0  0  0  0  0  0  0  0  0  0  0
   -2.8488    0.4349   -1.9163 H   0  0  0  0  0  0  0  0  0  0  0  0
   -1.4524    2.2652   -1.1499 H   0  0  0  0  0  0  0  0  0  0  0  0
   -3.0825    2.8468   -1.4762 H   0  0  0  0  0  0  0  0  0  0  0  0
   -2.5414    2.6306    0.1909 H   0  0  0  0  0  0  0  0  0  0  0  0
   -2.2626   -2.3823    0.4599 H   0  0  0  0  0  0  0  0  0  0  0  0
   -2.5557   -1.9719   -1.2202 H   0  0  0  0  0  0  0  0  0  0  0  0
    4.6527   -2.8189   -1.2231 H   0  0  0  0  0  0  0  0  0  0  0  0
    3.9118   -2.5056   -2.8144 H   0  0  0  0  0  0  0  0  0  0  0  0
    5.1780   -1.4123   -2.2341 H   0  0  0  0  0  0  0  0  0  0  0  0
    5.1598   -1.7385    1.1279 H   0  0  0  0  0  0  0  0  0  0  0  0
    6.1991   -1.3816   -0.2666 H   0  0  0  0  0  0  0  0  0  0  0  0
    6.5439   -0.6475    1.2723 H   0  0  0  0  0  0  0  0  0  0  0  0
    4.1205    1.9631    1.4824 H   0  0  0  0  0  0  0  0  0  0  0  0
    5.5056    1.1436    2.1531 H   0  0  0  0  0  0  0  0  0  0  0  0
    3.9115    0.3863    2.2696 H   0  0  0  0  0  0  0  0  0  0  0  0
    5.8091    0.7426   -1.6241 H   0  0  0  0  0  0  0  0  0  0  0  0
    6.5055    1.5492   -0.2139 H   0  0  0  0  0  0  0  0  0  0  0  0
    4.9663    2.1055   -0.8877 H   0  0  0  0  0  0  0  0  0  0  0  0
  1  2  1  0
  2  3  1  0
  3  4  1  0
  4  5  2  0
  4  6  1  0
  7  6  1  1
  7  8  1  0
  8  9  1  0
  9 10  1  0
 10 11  1  0
 11 12  1  0
 12 13  1  0
 13 14  1  0
 13 15  1  0
 15 16  1  0
 11 17  1  0
  3 18  2  0
 18 19  1  0
 19 20  1  0
 19 21  1  0
 21 22  1  0
 22 23  1  0
 22 24  1  0
 22 25  1  0
 21  2  2  0
 15  7  1  0
 17  7  1  0
 14  9  1  0
  1 26  1  0
  1 27  1  0
  1 28  1  0
  6 29  1  0
  8 30  1  0
  8 31  1  0
  9 32  1  1
 10 33  1  0
 10 34  1  0
 11 35  1  6
 12 36  1  0
 12 37  1  0
 13 38  1  6
 14 39  1  0
 14 40  1  0
 15 41  1  6
 16 42  1  0
 16 43  1  0
 16 44  1  0
 17 45  1  0
 17 46  1  0
 20 47  1  0
 20 48  1  0
 20 49  1  0
 23 50  1  0
 23 51  1  0
 23 52  1  0
 24 53  1  0
 24 54  1  0
 24 55  1  0
 25 56  1  0
 25 57  1  0
 25 58  1  0
M  END
>  <_SMILES>  (52) 
Cc1c(C(=O)N[C@@]23C[C@@H]4C[C@@H](C[C@@H](C4)[C@H]2C)C3)nn(C)c1C(C)(C)C

$$$$

     RDKit          3D

 49 52  0  0  0  0  0  0  0  0999 V2000
    3.7886   -2.3915   -0.2080 C   0  0  0  0  0  0  0  0  0  0  0  0
    3.6384   -0.9239   -0.0261 C   0  0  0  0  0  0  0  0  0  0  0  0
    2.4184   -0.1817   -0.0624 C   0  0  0  0  0  0  0  0  0  0  0  0
    1.0445   -0.6921   -0.2663 C   0  0  0  0  0  0  0  0  0  0  0  0
    0.7943   -1.8852   -0.3870 O   0  0  0  0  0  0  0  0  0  0  0  0
    0.1087    0.3189   -0.2909 N   0  0  0  0  0  0  0  0  0  0  0  0
   -1.3511    0.1940   -0.2946 C   0  0  1  0  0  0  0  0  0  0  0  0
   -1.8683   -0.8706   -1.2980 C   0  0  0  0  0  0  0  0  0  0  0  0
   -3.4067   -0.8836   -1.3420 C   0  0  2  0  0  0  0  0  0  0  0  0
   -3.9151    0.4915   -1.7978 C   0  0  0  0  0  0  0  0  0  0  0  0
   -3.4460    1.5707   -0.8125 C   0  0  1  0  0  0  0  0  0  0  0  0
   -3.9935    1.2588    0.5876 C   0  0  0  0  0  0  0  0  0  0  0  0
   -3.4805   -0.1136    1.0605 C   0  0  1  0  0  0  0  0  0  0  0  0
   -3.9567   -1.1852    0.0615 C   0  0  0  0  0  0  0  0  0  0  0  0
   -1.9285   -0.0762    1.1348 C   0  0  1  0  0  0  0  0  0  0  0  0
   -1.3874   -1.3319    1.8291 C   0  0  0  0  0  0  0  0  0  0  0  0
   -1.9117    1.5720   -0.7642 C   0  0  0  0  0  0  0  0  0  0  0  0
    2.6476    1.1334    0.1331 N   0  0  0  0  0  0  0  0  0  0  0  0
    3.9805    1.2254    0.2813 N   0  0  0  0  0  0  0  0  0  0  0  0
    4.5652    2.5327    0.4925 C   0  0  0  0  0  0  0  0  0  0  0  0
    4.6235    0.0209    0.2252 C   0  0  0  0  0  0  0  0  0  0  0  0
    6.0865   -0.0789    0.4036 C   0  0  0  0  0  0  0  0  0  0  0  0
    6.5091   -1.3465    0.6263 F   0  0  0  0  0  0  0  0  0  0  0  0
    6.5155    0.6643    1.4559 F   0  0  0  0  0  0  0  0  0  0  0  0
    6.7488    0.3763   -0.6887 F   0  0  0  0  0  0  0  0  0  0  0  0
    3.2287   -2.7324   -1.0847 H   0  0  0  0  0  0  0  0  0  0  0  0
    3.4155   -2.9231    0.6729 H   0  0  0  0  0  0  0  0  0  0  0  0
    4.8321   -2.6784   -0.3631 H   0  0  0  0  0  0  0  0  0  0  0  0
    0.5156    1.2257   -0.0683 H   0  0  0  0  0  0  0  0  0  0  0  0
   -1.4702   -0.6656   -2.3007 H   0  0  0  0  0  0  0  0  0  0  0  0
   -1.5220   -1.8748   -1.0342 H   0  0  0  0  0  0  0  0  0  0  0  0
   -3.7482   -1.6520   -2.0448 H   0  0  0  0  0  0  0  0  0  0  0  0
   -3.5436    0.7146   -2.8055 H   0  0  0  0  0  0  0  0  0  0  0  0
   -5.0105    0.4870   -1.8565 H   0  0  0  0  0  0  0  0  0  0  0  0
   -3.8072    2.5518   -1.1403 H   0  0  0  0  0  0  0  0  0  0  0  0
   -5.0904    1.2632    0.5704 H   0  0  0  0  0  0  0  0  0  0  0  0
   -3.6852    2.0389    1.2945 H   0  0  0  0  0  0  0  0  0  0  0  0
   -3.8983   -0.3261    2.0518 H   0  0  0  0  0  0  0  0  0  0  0  0
   -5.0536   -1.2028    0.0332 H   0  0  0  0  0  0  0  0  0  0  0  0
   -3.6412   -2.1836    0.3841 H   0  0  0  0  0  0  0  0  0  0  0  0
   -1.6432    0.7656    1.7831 H   0  0  0  0  0  0  0  0  0  0  0  0
   -0.3269   -1.2165    2.0726 H   0  0  0  0  0  0  0  0  0  0  0  0
   -1.9105   -1.5005    2.7770 H   0  0  0  0  0  0  0  0  0  0  0  0
   -1.5006   -2.2344    1.2236 H   0  0  0  0  0  0  0  0  0  0  0  0
   -1.5673    2.3690   -0.0911 H   0  0  0  0  0  0  0  0  0  0  0  0
   -1.5118    1.8207   -1.7568 H   0  0  0  0  0  0  0  0  0  0  0  0
    3.8536    3.3011    0.1782 H   0  0  0  0  0  0  0  0  0  0  0  0
    5.4754    2.6170   -0.1056 H   0  0  0  0  0  0  0  0  0  0  0  0
    4.7859    2.6378    1.5573 H   0  0  0  0  0  0  0  0  0  0  0  0
  1  2  1  0
  2  3  1  0
  3  4  1  0
  4  5  2  0
  4  6  1  0
  7  6  1  1
  7  8  1  0
  8  9  1  0
  9 10  1  0
 10 11  1  0
 11 12  1  0
 12 13  1  0
 13 14  1  0
 13 15  1  0
 15 16  1  0
 11 17  1  0
  3 18  2  0
 18 19  1  0
 19 20  1  0
 19 21  1  0
 21 22  1  0
 22 23  1  0
 22 24  1  0
 22 25  1  0
 21  2  2  0
 15  7  1  0
 17  7  1  0
 14  9  1  0
  1 26  1  0
  1 27  1  0
  1 28  1  0
  6 29  1  0
  8 30  1  0
  8 31  1  0
  9 32  1  6
 10 33  1  0
 10 34  1  0
 11 35  1  6
 12 36  1  0
 12 37  1  0
 13 38  1  1
 14 39  1  0
 14 40  1  0
 15 41  1  1
 16 42  1  0
 16 43  1  0
 16 44  1  0
 17 45  1  0
 17 46  1  0
 20 47  1  0
 20 48  1  0
 20 49  1  0
M  END
>  <_SMILES>  (53) 
Cc1c(C(=O)N[C@@]23C[C@@H]4C[C@@H](C[C@@H](C4)[C@H]2C)C3)nn(C)c1C(F)(F)F

$$$$

     RDKit          3D

 51 53  0  0  0  0  0  0  0  0999 V2000
    0.2173   -0.3559    0.8451 C   0  0  0  0  0  0  0  0  0  0  0  0
    0.6146   -0.2292   -0.5818 C   0  0  0  0  0  0  0  0  0  0  0  0
   -0.2428   -0.3829   -1.7223 C   0  0  0  0  0  0  0  0  0  0  0  0
   -1.6964   -0.6351   -1.7487 C   0  0  0  0  0  0  0  0  0  0  0  0
   -2.2261   -1.4709   -2.4762 O   0  0  0  0  0  0  0  0  0  0  0  0
   -2.4202    0.1673   -0.8831 N   0  0  0  0  0  0  0  0  0  0  0  0
   -3.8590    0.0268   -0.7150 C   0  0  0  0  0  0  0  0  0  0  0  0
   -4.1651   -1.1764    0.1965 C   0  0  0  0  0  0  0  0  0  0  0  0
   -5.4659   -0.9930    0.9671 C   0  0  0  0  0  0  0  0  0  0  0  0
   -5.4144    0.2354    1.8771 C   0  0  0  0  0  0  0  0  0  0  0  0
   -4.5422    1.3663    1.3275 C   0  0  0  0  0  0  0  0  0  0  0  0
   -4.4728    1.3381   -0.1953 C   0  0  0  0  0  0  0  0  0  0  0  0
    0.4551   -0.2583   -2.8606 N   0  0  0  0  0  0  0  0  0  0  0  0
    1.7151   -0.0301   -2.4719 N   0  0  0  0  0  0  0  0  0  0  0  0
    2.7312    0.1149   -3.4902 C   0  0  0  0  0  0  0  0  0  0  0  0
    1.8751    0.0363   -1.1076 C   0  0  0  0  0  0  0  0  0  0  0  0
    3.2108    0.3127   -0.4617 C   0  0  0  0  0  0  0  0  0  0  0  0
    3.8173   -0.9644    0.1395 C   0  0  0  0  0  0  0  0  0  0  0  0
    5.1741   -0.6897    0.7861 C   0  0  0  0  0  0  0  0  0  0  0  0
    5.0934    0.4349    1.8143 C   0  0  0  0  0  0  0  0  0  0  0  0
    4.4994    1.7059    1.2137 C   0  0  0  0  0  0  0  0  0  0  0  0
    3.1350    1.4417    0.5785 C   0  0  0  0  0  0  0  0  0  0  0  0
    1.0371   -0.7336    1.4613 H   0  0  0  0  0  0  0  0  0  0  0  0
   -0.6157   -1.0562    0.9629 H   0  0  0  0  0  0  0  0  0  0  0  0
   -0.0910    0.6168    1.2410 H   0  0  0  0  0  0  0  0  0  0  0  0
   -1.9228    0.8671   -0.3505 H   0  0  0  0  0  0  0  0  0  0  0  0
   -4.2820   -0.1677   -1.7089 H   0  0  0  0  0  0  0  0  0  0  0  0
   -3.3493   -1.3305    0.9156 H   0  0  0  0  0  0  0  0  0  0  0  0
   -4.2137   -2.0905   -0.4075 H   0  0  0  0  0  0  0  0  0  0  0  0
   -6.2945   -0.8866    0.2556 H   0  0  0  0  0  0  0  0  0  0  0  0
   -5.6823   -1.8850    1.5659 H   0  0  0  0  0  0  0  0  0  0  0  0
   -6.4374    0.5981    2.0347 H   0  0  0  0  0  0  0  0  0  0  0  0
   -5.0366   -0.0501    2.8664 H   0  0  0  0  0  0  0  0  0  0  0  0
   -3.5284    1.2770    1.7377 H   0  0  0  0  0  0  0  0  0  0  0  0
   -4.9331    2.3305    1.6718 H   0  0  0  0  0  0  0  0  0  0  0  0
   -3.9114    2.2055   -0.5625 H   0  0  0  0  0  0  0  0  0  0  0  0
   -5.4921    1.4376   -0.5910 H   0  0  0  0  0  0  0  0  0  0  0  0
    2.3032   -0.1125   -4.4704 H   0  0  0  0  0  0  0  0  0  0  0  0
    3.0894    1.1470   -3.4728 H   0  0  0  0  0  0  0  0  0  0  0  0
    3.5421   -0.5856   -3.2757 H   0  0  0  0  0  0  0  0  0  0  0  0
    3.9075    0.6626   -1.2351 H   0  0  0  0  0  0  0  0  0  0  0  0
    3.1461   -1.3942    0.8923 H   0  0  0  0  0  0  0  0  0  0  0  0
    3.9370   -1.7275   -0.6398 H   0  0  0  0  0  0  0  0  0  0  0  0
    5.9001   -0.4215    0.0087 H   0  0  0  0  0  0  0  0  0  0  0  0
    5.5443   -1.6025    1.2663 H   0  0  0  0  0  0  0  0  0  0  0  0
    6.0941    0.6464    2.2078 H   0  0  0  0  0  0  0  0  0  0  0  0
    4.4782    0.1101    2.6624 H   0  0  0  0  0  0  0  0  0  0  0  0
    4.4008    2.4703    1.9927 H   0  0  0  0  0  0  0  0  0  0  0  0
    5.1839    2.1078    0.4566 H   0  0  0  0  0  0  0  0  0  0  0  0
    2.4248    1.1944    1.3751 H   0  0  0  0  0  0  0  0  0  0  0  0
    2.7683    2.3626    0.1083 H   0  0  0  0  0  0  0  0  0  0  0  0
  1  2  1  0
  2  3  1  0
  3  4  1  0
  4  5  2  0
  4  6  1  0
  6  7  1  0
  7  8  1  0
  8  9  1  0
  9 10  1  0
 10 11  1  0
 11 12  1  0
  3 13  2  0
 13 14  1  0
 14 15  1  0
 14 16  1  0
 16 17  1  0
 17 18  1  0
 18 19  1  0
 19 20  1  0
 20 21  1  0
 21 22  1  0
 16  2  2  0
 22 17  1  0
 12  7  1  0
  1 23  1  0
  1 24  1  0
  1 25  1  0
  6 26  1  0
  7 27  1  0
  8 28  1  0
  8 29  1  0
  9 30  1  0
  9 31  1  0
 10 32  1  0
 10 33  1  0
 11 34  1  0
 11 35  1  0
 12 36  1  0
 12 37  1  0
 15 38  1  0
 15 39  1  0
 15 40  1  0
 17 41  1  0
 18 42  1  0
 18 43  1  0
 19 44  1  0
 19 45  1  0
 20 46  1  0
 20 47  1  0
 21 48  1  0
 21 49  1  0
 22 50  1  0
 22 51  1  0
M  END
>  <_SMILES>  (54) 
Cc1c(C(=O)NC2CCCCC2)nn(C)c1C1CCCCC1

$$$$

     RDKit          3D

 49 52  0  0  0  0  0  0  0  0999 V2000
    2.6058   -2.0279   -0.1791 C   0  0  0  0  0  0  0  0  0  0  0  0
    3.1333   -0.7373    0.3338 C   0  0  0  0  0  0  0  0  0  0  0  0
    2.3956    0.3274    0.9512 C   0  0  0  0  0  0  0  0  0  0  0  0
    0.9377    0.4238    1.1743 C   0  0  0  0  0  0  0  0  0  0  0  0
    0.4493    0.8487    2.2162 O   0  0  0  0  0  0  0  0  0  0  0  0
    0.1855    0.0107    0.0859 N   0  0  0  0  0  0  0  0  0  0  0  0
   -1.2790    0.0666   -0.0010 C   0  0  1  0  0  0  0  0  0  0  0  0
   -1.8148    1.5138    0.1563 C   0  0  0  0  0  0  0  0  0  0  0  0
   -3.3512    1.5403    0.0660 C   0  0  2  0  0  0  0  0  0  0  0  0
   -3.9381    0.6638    1.1851 C   0  0  0  0  0  0  0  0  0  0  0  0
   -3.4532   -0.7862    1.0260 C   0  0  1  0  0  0  0  0  0  0  0  0
   -3.8968   -1.3258   -0.3404 C   0  0  0  0  0  0  0  0  0  0  0  0
   -3.3031   -0.4601   -1.4651 C   0  0  1  0  0  0  0  0  0  0  0  0
   -3.8038    0.9853   -1.2924 C   0  0  0  0  0  0  0  0  0  0  0  0
   -1.7543   -0.5170   -1.3823 C   0  0  1  0  0  0  0  0  0  0  0  0
   -1.1229    0.1507   -2.6156 C   0  0  0  0  0  0  0  0  0  0  0  0
   -1.9188   -0.8163    1.1100 C   0  0  0  0  0  0  0  0  0  0  0  0
    3.2202    1.3191    1.3275 N   0  0  0  0  0  0  0  0  0  0  0  0
    4.4436    0.9045    0.9741 N   0  0  0  0  0  0  0  0  0  0  0  0
    5.5792    1.7486    1.2675 C   0  0  0  0  0  0  0  0  0  0  0  0
    4.4519   -0.3109    0.3425 C   0  0  0  0  0  0  0  0  0  0  0  0
    5.6933   -0.9526   -0.1600 C   0  0  0  0  0  0  0  0  0  0  0  0
    3.3633   -2.8161   -0.1232 H   0  0  0  0  0  0  0  0  0  0  0  0
    1.7450   -2.3645    0.4073 H   0  0  0  0  0  0  0  0  0  0  0  0
    2.2967   -1.9236   -1.2238 H   0  0  0  0  0  0  0  0  0  0  0  0
    0.7078   -0.1107   -0.7693 H   0  0  0  0  0  0  0  0  0  0  0  0
   -1.5149    1.9367    1.1225 H   0  0  0  0  0  0  0  0  0  0  0  0
   -1.3800    2.1748   -0.6025 H   0  0  0  0  0  0  0  0  0  0  0  0
   -3.7085    2.5699    0.1811 H   0  0  0  0  0  0  0  0  0  0  0  0
   -3.6381    1.0550    2.1650 H   0  0  0  0  0  0  0  0  0  0  0  0
   -5.0340    0.6976    1.1516 H   0  0  0  0  0  0  0  0  0  0  0  0
   -3.8784   -1.4066    1.8228 H   0  0  0  0  0  0  0  0  0  0  0  0
   -3.5729   -2.3674   -0.4569 H   0  0  0  0  0  0  0  0  0  0  0  0
   -4.9919   -1.3258   -0.4058 H   0  0  0  0  0  0  0  0  0  0  0  0
   -3.6426   -0.8517   -2.4314 H   0  0  0  0  0  0  0  0  0  0  0  0
   -3.4361    1.6243   -2.1028 H   0  0  0  0  0  0  0  0  0  0  0  0
   -4.8991    1.0078   -1.3563 H   0  0  0  0  0  0  0  0  0  0  0  0
   -1.4515   -1.5736   -1.4288 H   0  0  0  0  0  0  0  0  0  0  0  0
   -1.5744   -0.2416   -3.5338 H   0  0  0  0  0  0  0  0  0  0  0  0
   -0.0514   -0.0613   -2.6787 H   0  0  0  0  0  0  0  0  0  0  0  0
   -1.2471    1.2362   -2.6233 H   0  0  0  0  0  0  0  0  0  0  0  0
   -1.6173   -0.4761    2.1073 H   0  0  0  0  0  0  0  0  0  0  0  0
   -1.5598   -1.8502    1.0211 H   0  0  0  0  0  0  0  0  0  0  0  0
    5.2896    2.5075    1.9994 H   0  0  0  0  0  0  0  0  0  0  0  0
    6.3804    1.1314    1.6811 H   0  0  0  0  0  0  0  0  0  0  0  0
    5.8980    2.2249    0.3373 H   0  0  0  0  0  0  0  0  0  0  0  0
    6.3052   -0.2389   -0.7211 H   0  0  0  0  0  0  0  0  0  0  0  0
    5.4656   -1.7866   -0.8309 H   0  0  0  0  0  0  0  0  0  0  0  0
    6.2867   -1.3403    0.6741 H   0  0  0  0  0  0  0  0  0  0  0  0
  1  2  1  0
  2  3  1  0
  3  4  1  0
  4  5  2  0
  4  6  1  0
  7  6  1  6
  7  8  1  0
  8  9  1  0
  9 10  1  0
 10 11  1  0
 11 12  1  0
 12 13  1  0
 13 14  1  0
 13 15  1  0
 15 16  1  0
 11 17  1  0
  3 18  2  0
 18 19  1  0
 19 20  1  0
 19 21  1  0
 21 22  1  0
 21  2  2  0
 15  7  1  0
 17  7  1  0
 14  9  1  0
  1 23  1  0
  1 24  1  0
  1 25  1  0
  6 26  1  0
  8 27  1  0
  8 28  1  0
  9 29  1  1
 10 30  1  0
 10 31  1  0
 11 32  1  1
 12 33  1  0
 12 34  1  0
 13 35  1  6
 14 36  1  0
 14 37  1  0
 15 38  1  1
 16 39  1  0
 16 40  1  0
 16 41  1  0
 17 42  1  0
 17 43  1  0
 20 44  1  0
 20 45  1  0
 20 46  1  0
 22 47  1  0
 22 48  1  0
 22 49  1  0
M  END
>  <_SMILES>  (55) 
Cc1c(C(=O)N[C@@]23C[C@@H]4C[C@@H](C[C@@H](C4)[C@H]2C)C3)nn(C)c1C

$$$$

     RDKit          3D

 53 57  0  0  0  0  0  0  0  0999 V2000
    2.9879   -0.0216    2.8164 C   0  0  0  0  0  0  0  0  0  0  0  0
    2.9427   -0.3973    1.3813 C   0  0  0  0  0  0  0  0  0  0  0  0
    1.7984   -0.3659    0.5232 C   0  0  0  0  0  0  0  0  0  0  0  0
    0.4225    0.0573    0.8595 C   0  0  0  0  0  0  0  0  0  0  0  0
    0.0899    0.4195    1.9826 O   0  0  0  0  0  0  0  0  0  0  0  0
   -0.4286   -0.0173   -0.2230 N   0  0  0  0  0  0  0  0  0  0  0  0
   -1.8756    0.1902   -0.2089 C   0  0  1  0  0  0  0  0  0  0  0  0
   -2.2637    1.5878    0.3432 C   0  0  0  0  0  0  0  0  0  0  0  0
   -3.7923    1.7698    0.3434 C   0  0  2  0  0  0  0  0  0  0  0  0
   -4.4279    0.6857    1.2300 C   0  0  0  0  0  0  0  0  0  0  0  0
   -4.0861   -0.7086    0.6808 C   0  0  1  0  0  0  0  0  0  0  0  0
   -4.6175   -0.8342   -0.7550 C   0  0  0  0  0  0  0  0  0  0  0  0
   -3.9776    0.2422   -1.6509 C   0  0  1  0  0  0  0  0  0  0  0  0
   -4.3350    1.6286   -1.0861 C   0  0  0  0  0  0  0  0  0  0  0  0
   -2.4410    0.0341   -1.6643 C   0  0  1  0  0  0  0  0  0  0  0  0
   -1.7666    0.9434   -2.7039 C   0  0  0  0  0  0  0  0  0  0  0  0
   -2.5593   -0.8886    0.6758 C   0  0  0  0  0  0  0  0  0  0  0  0
    2.1038   -0.7996   -0.7203 N   0  0  0  0  0  0  0  0  0  0  0  0
    3.4143   -1.0962   -0.6517 N   0  0  0  0  0  0  0  0  0  0  0  0
    4.0780   -1.6264   -1.8181 C   0  0  0  0  0  0  0  0  0  0  0  0
    3.9667   -0.8384    0.5683 C   0  0  0  0  0  0  0  0  0  0  0  0
    5.4488   -1.0456    0.9798 C   0  0  0  0  0  0  0  0  0  0  0  0
    6.5365   -0.3823    0.1747 C   0  0  0  0  0  0  0  0  0  0  0  0
    6.2203    0.1154    1.5520 C   0  0  0  0  0  0  0  0  0  0  0  0
    2.1911   -0.5250    3.3732 H   0  0  0  0  0  0  0  0  0  0  0  0
    2.8638    1.0599    2.9307 H   0  0  0  0  0  0  0  0  0  0  0  0
    3.9358   -0.3060    3.2824 H   0  0  0  0  0  0  0  0  0  0  0  0
    0.0113   -0.4445   -1.0359 H   0  0  0  0  0  0  0  0  0  0  0  0
   -1.9005    1.7170    1.3693 H   0  0  0  0  0  0  0  0  0  0  0  0
   -1.7879    2.3839   -0.2413 H   0  0  0  0  0  0  0  0  0  0  0  0
   -4.0450    2.7605    0.7375 H   0  0  0  0  0  0  0  0  0  0  0  0
   -4.0650    0.7829    2.2606 H   0  0  0  0  0  0  0  0  0  0  0  0
   -5.5163    0.8188    1.2626 H   0  0  0  0  0  0  0  0  0  0  0  0
   -4.5459   -1.4768    1.3126 H   0  0  0  0  0  0  0  0  0  0  0  0
   -4.3967   -1.8329   -1.1513 H   0  0  0  0  0  0  0  0  0  0  0  0
   -5.7091   -0.7256   -0.7609 H   0  0  0  0  0  0  0  0  0  0  0  0
   -4.3787    0.1458   -2.6667 H   0  0  0  0  0  0  0  0  0  0  0  0
   -3.9332    2.4242   -1.7230 H   0  0  0  0  0  0  0  0  0  0  0  0
   -5.4247    1.7579   -1.0840 H   0  0  0  0  0  0  0  0  0  0  0  0
   -2.2434   -0.9954   -1.9985 H   0  0  0  0  0  0  0  0  0  0  0  0
   -0.7064    0.6956   -2.8166 H   0  0  0  0  0  0  0  0  0  0  0  0
   -2.2332    0.8081   -3.6859 H   0  0  0  0  0  0  0  0  0  0  0  0
   -1.8320    2.0041   -2.4500 H   0  0  0  0  0  0  0  0  0  0  0  0
   -2.1886   -0.8367    1.7070 H   0  0  0  0  0  0  0  0  0  0  0  0
   -2.3038   -1.8923    0.3109 H   0  0  0  0  0  0  0  0  0  0  0  0
    4.4876   -0.7883   -2.3868 H   0  0  0  0  0  0  0  0  0  0  0  0
    3.3524   -2.1763   -2.4234 H   0  0  0  0  0  0  0  0  0  0  0  0
    4.8739   -2.3059   -1.5047 H   0  0  0  0  0  0  0  0  0  0  0  0
    5.6645   -2.0275    1.3910 H   0  0  0  0  0  0  0  0  0  0  0  0
    7.4643   -0.9247    0.0333 H   0  0  0  0  0  0  0  0  0  0  0  0
    6.2684    0.2605   -0.6558 H   0  0  0  0  0  0  0  0  0  0  0  0
    5.7302    1.0787    1.6391 H   0  0  0  0  0  0  0  0  0  0  0  0
    6.9286   -0.0920    2.3458 H   0  0  0  0  0  0  0  0  0  0  0  0
  1  2  1  0
  2  3  1  0
  3  4  1  0
  4  5  2  0
  4  6  1  0
  7  6  1  6
  7  8  1  0
  8  9  1  0
  9 10  1  0
 10 11  1  0
 11 12  1  0
 12 13  1  0
 13 14  1  0
 13 15  1  0
 15 16  1  0
 11 17  1  0
  3 18  2  0
 18 19  1  0
 19 20  1  0
 19 21  1  0
 21 22  1  0
 22 23  1  0
 23 24  1  0
 21  2  2  0
 24 22  1  0
 15  7  1  0
 17  7  1  0
 14  9  1  0
  1 25  1  0
  1 26  1  0
  1 27  1  0
  6 28  1  0
  8 29  1  0
  8 30  1  0
  9 31  1  1
 10 32  1  0
 10 33  1  0
 11 34  1  1
 12 35  1  0
 12 36  1  0
 13 37  1  6
 14 38  1  0
 14 39  1  0
 15 40  1  6
 16 41  1  0
 16 42  1  0
 16 43  1  0
 17 44  1  0
 17 45  1  0
 20 46  1  0
 20 47  1  0
 20 48  1  0
 22 49  1  0
 23 50  1  0
 23 51  1  0
 24 52  1  0
 24 53  1  0
M  END
>  <_SMILES>  (56) 
Cc1c(C(=O)N[C@@]23C[C@@H]4C[C@@H](C[C@@H](C4)[C@H]2C)C3)nn(C)c1C1CC1

$$$$

     RDKit          3D

 48 50  0  0  0  0  0  0  0  0999 V2000
    0.4860   -2.3872   -1.5840 C   0  0  0  0  0  0  0  0  0  0  0  0
    0.3696   -1.0466   -0.9499 C   0  0  0  0  0  0  0  0  0  0  0  0
   -0.8450   -0.3425   -0.7032 C   0  0  0  0  0  0  0  0  0  0  0  0
   -2.2249   -0.7628   -1.0193 C   0  0  0  0  0  0  0  0  0  0  0  0
   -2.5073   -1.8431   -1.5292 O   0  0  0  0  0  0  0  0  0  0  0  0
   -3.1656    0.1825   -0.6666 N   0  0  0  0  0  0  0  0  0  0  0  0
   -4.5888   -0.0790   -0.6955 C   0  0  0  0  0  0  0  0  0  0  0  0
   -5.0557   -0.8147    0.5583 C   0  0  0  0  0  0  0  0  0  0  0  0
   -5.1931    0.2797    1.6129 C   0  0  0  0  0  0  0  0  0  0  0  0
   -5.4582    1.5750    0.8452 C   0  0  0  0  0  0  0  0  0  0  0  0
   -5.3949    1.2143   -0.6381 C   0  0  0  0  0  0  0  0  0  0  0  0
   -0.6028    0.8355   -0.0990 N   0  0  0  0  0  0  0  0  0  0  0  0
    0.7355    0.8841    0.0343 N   0  0  0  0  0  0  0  0  0  0  0  0
    1.2858    2.0588    0.6701 C   0  0  0  0  0  0  0  0  0  0  0  0
    1.3835   -0.2103   -0.4900 C   0  0  0  0  0  0  0  0  0  0  0  0
    2.8775   -0.4327   -0.5286 C   0  0  0  0  0  0  0  0  0  0  0  0
    3.4414   -0.8304    0.8432 C   0  0  0  0  0  0  0  0  0  0  0  0
    4.9388   -1.1276    0.7665 C   0  0  0  0  0  0  0  0  0  0  0  0
    5.7157    0.0242    0.1348 C   0  0  0  0  0  0  0  0  0  0  0  0
    5.1583    0.3959   -1.2368 C   0  0  0  0  0  0  0  0  0  0  0  0
    3.6661    0.7207   -1.1651 C   0  0  0  0  0  0  0  0  0  0  0  0
    1.4933   -2.8019   -1.4925 H   0  0  0  0  0  0  0  0  0  0  0  0
   -0.1962   -3.0994   -1.1087 H   0  0  0  0  0  0  0  0  0  0  0  0
    0.2396   -2.3254   -2.6487 H   0  0  0  0  0  0  0  0  0  0  0  0
   -2.7848    0.9697   -0.1458 H   0  0  0  0  0  0  0  0  0  0  0  0
   -4.8150   -0.6554   -1.5988 H   0  0  0  0  0  0  0  0  0  0  0  0
   -6.0387   -1.2665    0.3764 H   0  0  0  0  0  0  0  0  0  0  0  0
   -4.3748   -1.6084    0.8813 H   0  0  0  0  0  0  0  0  0  0  0  0
   -5.9950    0.0538    2.3229 H   0  0  0  0  0  0  0  0  0  0  0  0
   -4.2637    0.3732    2.1868 H   0  0  0  0  0  0  0  0  0  0  0  0
   -6.4301    2.0075    1.1040 H   0  0  0  0  0  0  0  0  0  0  0  0
   -4.6928    2.3191    1.0937 H   0  0  0  0  0  0  0  0  0  0  0  0
   -4.9627    2.0223   -1.2371 H   0  0  0  0  0  0  0  0  0  0  0  0
   -6.4120    1.0305   -1.0057 H   0  0  0  0  0  0  0  0  0  0  0  0
    0.5352    2.4872    1.3410 H   0  0  0  0  0  0  0  0  0  0  0  0
    2.1634    1.7917    1.2569 H   0  0  0  0  0  0  0  0  0  0  0  0
    1.5383    2.7809   -0.1099 H   0  0  0  0  0  0  0  0  0  0  0  0
    3.0483   -1.2944   -1.1890 H   0  0  0  0  0  0  0  0  0  0  0  0
    2.9181   -1.7167    1.2233 H   0  0  0  0  0  0  0  0  0  0  0  0
    3.2766   -0.0371    1.5800 H   0  0  0  0  0  0  0  0  0  0  0  0
    5.0984   -2.0398    0.1782 H   0  0  0  0  0  0  0  0  0  0  0  0
    5.3262   -1.3263    1.7722 H   0  0  0  0  0  0  0  0  0  0  0  0
    5.6727    0.8987    0.7955 H   0  0  0  0  0  0  0  0  0  0  0  0
    6.7716   -0.2531    0.0397 H   0  0  0  0  0  0  0  0  0  0  0  0
    5.7038    1.2590   -1.6347 H   0  0  0  0  0  0  0  0  0  0  0  0
    5.3199   -0.4340   -1.9357 H   0  0  0  0  0  0  0  0  0  0  0  0
    3.2882    0.9250   -2.1744 H   0  0  0  0  0  0  0  0  0  0  0  0
    3.5501    1.6464   -0.5944 H   0  0  0  0  0  0  0  0  0  0  0  0
  1  2  1  0
  2  3  1  0
  3  4  1  0
  4  5  2  0
  4  6  1  0
  6  7  1  0
  7  8  1  0
  8  9  1  0
  9 10  1  0
 10 11  1  0
  3 12  2  0
 12 13  1  0
 13 14  1  0
 13 15  1  0
 15 16  1  0
 16 17  1  0
 17 18  1  0
 18 19  1  0
 19 20  1  0
 20 21  1  0
 15  2  2  0
 21 16  1  0
 11  7  1  0
  1 22  1  0
  1 23  1  0
  1 24  1  0
  6 25  1  0
  7 26  1  0
  8 27  1  0
  8 28  1  0
  9 29  1  0
  9 30  1  0
 10 31  1  0
 10 32  1  0
 11 33  1  0
 11 34  1  0
 14 35  1  0
 14 36  1  0
 14 37  1  0
 16 38  1  0
 17 39  1  0
 17 40  1  0
 18 41  1  0
 18 42  1  0
 19 43  1  0
 19 44  1  0
 20 45  1  0
 20 46  1  0
 21 47  1  0
 21 48  1  0
M  END
>  <_SMILES>  (57) 
Cc1c(C(=O)NC2CCCC2)nn(C)c1C1CCCCC1

$$$$

     RDKit          3D

 54 56  0  0  0  0  0  0  0  0999 V2000
   -1.7466   -1.4330   -2.0318 C   0  0  0  0  0  0  0  0  0  0  0  0
   -1.4702   -0.6951   -0.7705 C   0  0  0  0  0  0  0  0  0  0  0  0
   -0.1858   -0.4797   -0.1897 C   0  0  0  0  0  0  0  0  0  0  0  0
    1.1310   -0.9098   -0.7016 C   0  0  0  0  0  0  0  0  0  0  0  0
    1.2875   -1.4864   -1.7738 O   0  0  0  0  0  0  0  0  0  0  0  0
    2.1684   -0.5781    0.1458 N   0  0  0  0  0  0  0  0  0  0  0  0
    3.5712   -0.7110   -0.2179 C   0  0  0  0  0  0  0  0  0  0  0  0
    4.0092    0.5041   -1.0517 C   0  0  0  0  0  0  0  0  0  0  0  0
    5.3408    0.2874   -1.7651 C   0  0  0  0  0  0  0  0  0  0  0  0
    6.5802    0.6406   -0.9496 C   0  0  0  0  0  0  0  0  0  0  0  0
    6.5690    0.2676    0.5292 C   0  0  0  0  0  0  0  0  0  0  0  0
    5.8999   -1.0633    0.8554 C   0  0  0  0  0  0  0  0  0  0  0  0
    4.3912   -0.9314    1.0575 C   0  0  0  0  0  0  0  0  0  0  0  0
   -0.2869    0.2206    0.9559 N   0  0  0  0  0  0  0  0  0  0  0  0
   -1.6062    0.4351    1.1097 N   0  0  0  0  0  0  0  0  0  0  0  0
   -2.0244    1.1570    2.2895 C   0  0  0  0  0  0  0  0  0  0  0  0
   -2.3709   -0.0623    0.0805 C   0  0  0  0  0  0  0  0  0  0  0  0
   -3.8691    0.0675   -0.0478 C   0  0  0  0  0  0  0  0  0  0  0  0
   -4.6197   -0.8614    0.9245 C   0  0  0  0  0  0  0  0  0  0  0  0
   -6.0044   -0.3352    1.3103 C   0  0  0  0  0  0  0  0  0  0  0  0
   -6.6740    0.3904    0.1504 C   0  0  0  0  0  0  0  0  0  0  0  0
   -5.8658    1.6019   -0.3209 C   0  0  0  0  0  0  0  0  0  0  0  0
   -4.3736    1.5138    0.0147 C   0  0  0  0  0  0  0  0  0  0  0  0
   -1.4324   -0.8381   -2.8952 H   0  0  0  0  0  0  0  0  0  0  0  0
   -2.8084   -1.6663   -2.1476 H   0  0  0  0  0  0  0  0  0  0  0  0
   -1.2073   -2.3855   -2.0493 H   0  0  0  0  0  0  0  0  0  0  0  0
    1.8880    0.0104    0.9275 H   0  0  0  0  0  0  0  0  0  0  0  0
    3.6543   -1.6098   -0.8426 H   0  0  0  0  0  0  0  0  0  0  0  0
    3.2521    0.6833   -1.8269 H   0  0  0  0  0  0  0  0  0  0  0  0
    4.0303    1.4142   -0.4397 H   0  0  0  0  0  0  0  0  0  0  0  0
    5.4135   -0.7500   -2.1143 H   0  0  0  0  0  0  0  0  0  0  0  0
    5.3574    0.9047   -2.6727 H   0  0  0  0  0  0  0  0  0  0  0  0
    7.4452    0.1649   -1.4297 H   0  0  0  0  0  0  0  0  0  0  0  0
    6.7605    1.7208   -1.0238 H   0  0  0  0  0  0  0  0  0  0  0  0
    7.6118    0.2312    0.8695 H   0  0  0  0  0  0  0  0  0  0  0  0
    6.0983    1.0733    1.1062 H   0  0  0  0  0  0  0  0  0  0  0  0
    6.1324   -1.8231    0.1007 H   0  0  0  0  0  0  0  0  0  0  0  0
    6.3234   -1.4257    1.8010 H   0  0  0  0  0  0  0  0  0  0  0  0
    4.0321   -1.8511    1.5395 H   0  0  0  0  0  0  0  0  0  0  0  0
    4.1880   -0.1263    1.7765 H   0  0  0  0  0  0  0  0  0  0  0  0
   -1.2944    0.9909    3.0871 H   0  0  0  0  0  0  0  0  0  0  0  0
   -2.0665    2.2198    2.0399 H   0  0  0  0  0  0  0  0  0  0  0  0
   -2.9965    0.7955    2.6247 H   0  0  0  0  0  0  0  0  0  0  0  0
   -4.1284   -0.2777   -1.0588 H   0  0  0  0  0  0  0  0  0  0  0  0
   -4.0497   -1.0519    1.8411 H   0  0  0  0  0  0  0  0  0  0  0  0
   -4.7298   -1.8436    0.4451 H   0  0  0  0  0  0  0  0  0  0  0  0
   -5.9105    0.3509    2.1614 H   0  0  0  0  0  0  0  0  0  0  0  0
   -6.6315   -1.1684    1.6472 H   0  0  0  0  0  0  0  0  0  0  0  0
   -7.6827    0.7105    0.4350 H   0  0  0  0  0  0  0  0  0  0  0  0
   -6.7955   -0.3095   -0.6861 H   0  0  0  0  0  0  0  0  0  0  0  0
   -5.9962    1.7120   -1.4045 H   0  0  0  0  0  0  0  0  0  0  0  0
   -6.2728    2.5159    0.1284 H   0  0  0  0  0  0  0  0  0  0  0  0
   -4.2275    1.9331    1.0156 H   0  0  0  0  0  0  0  0  0  0  0  0
   -3.8081    2.1561   -0.6716 H   0  0  0  0  0  0  0  0  0  0  0  0
  1  2  1  0
  2  3  1  0
  3  4  1  0
  4  5  2  0
  4  6  1  0
  6  7  1  0
  7  8  1  0
  8  9  1  0
  9 10  1  0
 10 11  1  0
 11 12  1  0
 12 13  1  0
  3 14  2  0
 14 15  1  0
 15 16  1  0
 15 17  1  0
 17 18  1  0
 18 19  1  0
 19 20  1  0
 20 21  1  0
 21 22  1  0
 22 23  1  0
 17  2  2  0
 23 18  1  0
 13  7  1  0
  1 24  1  0
  1 25  1  0
  1 26  1  0
  6 27  1  0
  7 28  1  0
  8 29  1  0
  8 30  1  0
  9 31  1  0
  9 32  1  0
 10 33  1  0
 10 34  1  0
 11 35  1  0
 11 36  1  0
 12 37  1  0
 12 38  1  0
 13 39  1  0
 13 40  1  0
 16 41  1  0
 16 42  1  0
 16 43  1  0
 18 44  1  0
 19 45  1  0
 19 46  1  0
 20 47  1  0
 20 48  1  0
 21 49  1  0
 21 50  1  0
 22 51  1  0
 22 52  1  0
 23 53  1  0
 23 54  1  0
M  END
>  <_SMILES>  (58) 
Cc1c(C(=O)NC2CCCCCC2)nn(C)c1C1CCCCC1

$$$$

     RDKit          3D

 47 48  0  0  0  0  0  0  0  0999 V2000
   -0.2471    2.3464   -0.9902 C   0  0  0  0  0  0  0  0  0  0  0  0
   -0.1954    0.9705   -0.4280 C   0  0  0  0  0  0  0  0  0  0  0  0
    0.9871    0.2471   -0.0931 C   0  0  0  0  0  0  0  0  0  0  0  0
    2.3938    0.6784   -0.2366 C   0  0  0  0  0  0  0  0  0  0  0  0
    2.7188    1.7648   -0.7038 O   0  0  0  0  0  0  0  0  0  0  0  0
    3.2854   -0.2754    0.2067 N   0  0  0  0  0  0  0  0  0  0  0  0
    4.7444   -0.1792    0.1816 C   0  0  0  0  0  0  0  0  0  0  0  0
    5.3190   -1.4748    0.7815 C   0  0  0  0  0  0  0  0  0  0  0  0
    5.2303    1.0062    1.0300 C   0  0  0  0  0  0  0  0  0  0  0  0
    5.2574   -0.0398   -1.2599 C   0  0  0  0  0  0  0  0  0  0  0  0
    0.6841   -0.9676    0.4031 N   0  0  0  0  0  0  0  0  0  0  0  0
   -0.6604   -1.0154    0.3913 N   0  0  0  0  0  0  0  0  0  0  0  0
   -1.2824   -2.2186    0.8949 C   0  0  0  0  0  0  0  0  0  0  0  0
   -1.2496    0.1125   -0.1305 C   0  0  0  0  0  0  0  0  0  0  0  0
   -2.7324    0.3293   -0.3114 C   0  0  0  0  0  0  0  0  0  0  0  0
   -3.4485    0.6020    1.0244 C   0  0  0  0  0  0  0  0  0  0  0  0
   -4.9204    0.1818    1.0140 C   0  0  0  0  0  0  0  0  0  0  0  0
   -5.5614    0.4105   -0.3487 C   0  0  0  0  0  0  0  0  0  0  0  0
   -4.8737   -0.3918   -1.4561 C   0  0  0  0  0  0  0  0  0  0  0  0
   -3.4227   -0.7639   -1.1352 C   0  0  0  0  0  0  0  0  0  0  0  0
    0.3825    3.0257   -0.4066 H   0  0  0  0  0  0  0  0  0  0  0  0
    0.1068    2.3460   -2.0261 H   0  0  0  0  0  0  0  0  0  0  0  0
   -1.2590    2.7596   -0.9778 H   0  0  0  0  0  0  0  0  0  0  0  0
    2.8340   -1.1248    0.5411 H   0  0  0  0  0  0  0  0  0  0  0  0
    4.9975   -2.3521    0.2078 H   0  0  0  0  0  0  0  0  0  0  0  0
    6.4146   -1.4616    0.7900 H   0  0  0  0  0  0  0  0  0  0  0  0
    4.9760   -1.6182    1.8129 H   0  0  0  0  0  0  0  0  0  0  0  0
    4.8448    0.9410    2.0541 H   0  0  0  0  0  0  0  0  0  0  0  0
    6.3246    1.0325    1.0833 H   0  0  0  0  0  0  0  0  0  0  0  0
    4.9011    1.9659    0.6185 H   0  0  0  0  0  0  0  0  0  0  0  0
    6.3528   -0.0472   -1.2928 H   0  0  0  0  0  0  0  0  0  0  0  0
    4.9230    0.8939   -1.7236 H   0  0  0  0  0  0  0  0  0  0  0  0
    4.8960   -0.8629   -1.8872 H   0  0  0  0  0  0  0  0  0  0  0  0
   -2.2281   -1.9766    1.3797 H   0  0  0  0  0  0  0  0  0  0  0  0
   -0.6193   -2.6819    1.6313 H   0  0  0  0  0  0  0  0  0  0  0  0
   -1.4360   -2.8987    0.0538 H   0  0  0  0  0  0  0  0  0  0  0  0
   -2.8452    1.2452   -0.9087 H   0  0  0  0  0  0  0  0  0  0  0  0
   -2.9510    0.1139    1.8702 H   0  0  0  0  0  0  0  0  0  0  0  0
   -3.3841    1.6782    1.2351 H   0  0  0  0  0  0  0  0  0  0  0  0
   -5.4649    0.7376    1.7857 H   0  0  0  0  0  0  0  0  0  0  0  0
   -4.9990   -0.8803    1.2780 H   0  0  0  0  0  0  0  0  0  0  0  0
   -5.5097    1.4793   -0.5926 H   0  0  0  0  0  0  0  0  0  0  0  0
   -6.6259    0.1520   -0.3152 H   0  0  0  0  0  0  0  0  0  0  0  0
   -5.4370   -1.3127   -1.6503 H   0  0  0  0  0  0  0  0  0  0  0  0
   -4.9106    0.1887   -2.3861 H   0  0  0  0  0  0  0  0  0  0  0  0
   -3.4304   -1.7139   -0.5908 H   0  0  0  0  0  0  0  0  0  0  0  0
   -2.8802   -0.9515   -2.0700 H   0  0  0  0  0  0  0  0  0  0  0  0
  1  2  1  0
  2  3  1  0
  3  4  1  0
  4  5  2  0
  4  6  1  0
  6  7  1  0
  7  8  1  0
  7  9  1  0
  7 10  1  0
  3 11  2  0
 11 12  1  0
 12 13  1  0
 12 14  1  0
 14 15  1  0
 15 16  1  0
 16 17  1  0
 17 18  1  0
 18 19  1  0
 19 20  1  0
 14  2  2  0
 20 15  1  0
  1 21  1  0
  1 22  1  0
  1 23  1  0
  6 24  1  0
  8 25  1  0
  8 26  1  0
  8 27  1  0
  9 28  1  0
  9 29  1  0
  9 30  1  0
 10 31  1  0
 10 32  1  0
 10 33  1  0
 13 34  1  0
 13 35  1  0
 13 36  1  0
 15 37  1  0
 16 38  1  0
 16 39  1  0
 17 40  1  0
 17 41  1  0
 18 42  1  0
 18 43  1  0
 19 44  1  0
 19 45  1  0
 20 46  1  0
 20 47  1  0
M  END
>  <_SMILES>  (59) 
Cc1c(C(=O)NC(C)(C)C)nn(C)c1C1CCCCC1

$$$$

     RDKit          3D

 48 50  0  0  0  0  0  0  0  0999 V2000
   -1.3427   -2.3307    0.6550 C   0  0  0  0  0  0  0  0  0  0  0  0
   -0.8861   -0.9696    0.2687 C   0  0  0  0  0  0  0  0  0  0  0  0
    0.4743   -0.5541    0.1336 C   0  0  0  0  0  0  0  0  0  0  0  0
    1.6956   -1.3583    0.3362 C   0  0  0  0  0  0  0  0  0  0  0  0
    1.6861   -2.5328    0.6939 O   0  0  0  0  0  0  0  0  0  0  0  0
    2.8512   -0.6532    0.0939 N   0  0  0  0  0  0  0  0  0  0  0  0
    4.1497   -1.1963    0.3765 C   0  0  0  0  0  0  0  0  0  0  0  0
    5.2369   -0.2812   -0.1164 C   0  0  0  0  0  0  0  0  0  0  0  0
    5.8379    0.6448    0.7478 C   0  0  0  0  0  0  0  0  0  0  0  0
    6.8306    1.5078    0.2803 C   0  0  0  0  0  0  0  0  0  0  0  0
    7.2258    1.4593   -1.0554 C   0  0  0  0  0  0  0  0  0  0  0  0
    6.6266    0.5512   -1.9263 C   0  0  0  0  0  0  0  0  0  0  0  0
    5.6341   -0.3125   -1.4608 C   0  0  0  0  0  0  0  0  0  0  0  0
    0.5508    0.7438   -0.2175 N   0  0  0  0  0  0  0  0  0  0  0  0
   -0.7273    1.1417   -0.3178 N   0  0  0  0  0  0  0  0  0  0  0  0
   -0.9939    2.5126   -0.6925 C   0  0  0  0  0  0  0  0  0  0  0  0
   -1.6432    0.1545   -0.0427 C   0  0  0  0  0  0  0  0  0  0  0  0
   -3.1337    0.3776   -0.1089 C   0  0  0  0  0  0  0  0  0  0  0  0
   -3.7973   -0.5123   -1.1680 C   0  0  0  0  0  0  0  0  0  0  0  0
   -5.2857   -0.1903   -1.3290 C   0  0  0  0  0  0  0  0  0  0  0  0
   -5.9579    0.2740   -0.0358 C   0  0  0  0  0  0  0  0  0  0  0  0
   -5.2477   -0.2577    1.2013 C   0  0  0  0  0  0  0  0  0  0  0  0
   -3.7975    0.2268    1.2742 C   0  0  0  0  0  0  0  0  0  0  0  0
   -2.4235   -2.3790    0.8065 H   0  0  0  0  0  0  0  0  0  0  0  0
   -0.8716   -2.6413    1.5932 H   0  0  0  0  0  0  0  0  0  0  0  0
   -1.0801   -3.0542   -0.1234 H   0  0  0  0  0  0  0  0  0  0  0  0
    2.7274    0.3378   -0.0970 H   0  0  0  0  0  0  0  0  0  0  0  0
    4.2363   -2.1855   -0.0887 H   0  0  0  0  0  0  0  0  0  0  0  0
    4.2293   -1.3501    1.4592 H   0  0  0  0  0  0  0  0  0  0  0  0
    5.5342    0.6994    1.7910 H   0  0  0  0  0  0  0  0  0  0  0  0
    7.2938    2.2200    0.9581 H   0  0  0  0  0  0  0  0  0  0  0  0
    7.9980    2.1322   -1.4187 H   0  0  0  0  0  0  0  0  0  0  0  0
    6.9295    0.5173   -2.9695 H   0  0  0  0  0  0  0  0  0  0  0  0
    5.1663   -1.0106   -2.1520 H   0  0  0  0  0  0  0  0  0  0  0  0
   -1.5458    2.5113   -1.6355 H   0  0  0  0  0  0  0  0  0  0  0  0
   -0.0491    3.0481   -0.8197 H   0  0  0  0  0  0  0  0  0  0  0  0
   -1.5769    2.9817    0.1038 H   0  0  0  0  0  0  0  0  0  0  0  0
   -3.3206    1.4115   -0.4281 H   0  0  0  0  0  0  0  0  0  0  0  0
   -3.6965   -1.5696   -0.8959 H   0  0  0  0  0  0  0  0  0  0  0  0
   -3.2974   -0.4018   -2.1386 H   0  0  0  0  0  0  0  0  0  0  0  0
   -5.7971   -1.0815   -1.7130 H   0  0  0  0  0  0  0  0  0  0  0  0
   -5.4164    0.5871   -2.0916 H   0  0  0  0  0  0  0  0  0  0  0  0
   -7.0081   -0.0392   -0.0349 H   0  0  0  0  0  0  0  0  0  0  0  0
   -5.9610    1.3709   -0.0031 H   0  0  0  0  0  0  0  0  0  0  0  0
   -5.2652   -1.3547    1.1853 H   0  0  0  0  0  0  0  0  0  0  0  0
   -5.7824    0.0509    2.1067 H   0  0  0  0  0  0  0  0  0  0  0  0
   -3.2400   -0.4498    1.9323 H   0  0  0  0  0  0  0  0  0  0  0  0
   -3.7694    1.2038    1.7753 H   0  0  0  0  0  0  0  0  0  0  0  0
  1  2  1  0
  2  3  1  0
  3  4  1  0
  4  5  2  0
  4  6  1  0
  6  7  1  0
  7  8  1  0
  8  9  2  0
  9 10  1  0
 10 11  2  0
 11 12  1  0
 12 13  2  0
  3 14  2  0
 14 15  1  0
 15 16  1  0
 15 17  1  0
 17 18  1  0
 18 19  1  0
 19 20  1  0
 20 21  1  0
 21 22  1  0
 22 23  1  0
 17  2  2  0
 23 18  1  0
 13  8  1  0
  1 24  1  0
  1 25  1  0
  1 26  1  0
  6 27  1  0
  7 28  1  0
  7 29  1  0
  9 30  1  0
 10 31  1  0
 11 32  1  0
 12 33  1  0
 13 34  1  0
 16 35  1  0
 16 36  1  0
 16 37  1  0
 18 38  1  0
 19 39  1  0
 19 40  1  0
 20 41  1  0
 20 42  1  0
 21 43  1  0
 21 44  1  0
 22 45  1  0
 22 46  1  0
 23 47  1  0
 23 48  1  0
M  END
>  <_SMILES>  (60) 
Cc1c(C(=O)NCc2ccccc2)nn(C)c1C1CCCCC1

$$$$

     RDKit          3D

 42 44  0  0  0  0  0  0  0  0999 V2000
   -0.1780    2.1876    0.0364 C   0  0  0  0  0  0  0  0  0  0  0  0
    0.1797    0.7488   -0.0771 C   0  0  0  0  0  0  0  0  0  0  0  0
    1.5065    0.2212   -0.1278 C   0  0  0  0  0  0  0  0  0  0  0  0
    2.7832    0.9608   -0.0718 C   0  0  0  0  0  0  0  0  0  0  0  0
    2.8554    2.1821    0.0361 O   0  0  0  0  0  0  0  0  0  0  0  0
    3.8823    0.1276   -0.1553 N   0  0  0  0  0  0  0  0  0  0  0  0
    5.2284    0.5823   -0.1116 C   0  0  0  0  0  0  0  0  0  0  0  0
    6.0390    0.4439    1.1469 C   0  0  0  0  0  0  0  0  0  0  0  0
    6.3675   -0.3980   -0.0507 C   0  0  0  0  0  0  0  0  0  0  0  0
    1.4899   -1.1215   -0.2390 N   0  0  0  0  0  0  0  0  0  0  0  0
    0.1854   -1.4413   -0.2526 N   0  0  0  0  0  0  0  0  0  0  0  0
   -0.1810   -2.8355   -0.3669 C   0  0  0  0  0  0  0  0  0  0  0  0
   -0.6563   -0.3599   -0.1484 C   0  0  0  0  0  0  0  0  0  0  0  0
   -2.1592   -0.4900   -0.1232 C   0  0  0  0  0  0  0  0  0  0  0  0
   -2.7563    0.0366    1.1884 C   0  0  0  0  0  0  0  0  0  0  0  0
   -4.2639   -0.2190    1.2691 C   0  0  0  0  0  0  0  0  0  0  0  0
   -4.9684   -0.1767   -0.0880 C   0  0  0  0  0  0  0  0  0  0  0  0
   -4.2224    0.6894   -1.0934 C   0  0  0  0  0  0  0  0  0  0  0  0
   -2.8108    0.1606   -1.3595 C   0  0  0  0  0  0  0  0  0  0  0  0
    0.3301    2.7719   -0.7376 H   0  0  0  0  0  0  0  0  0  0  0  0
   -1.2501    2.3594   -0.0837 H   0  0  0  0  0  0  0  0  0  0  0  0
    0.1173    2.5755    1.0166 H   0  0  0  0  0  0  0  0  0  0  0  0
    3.6616   -0.8613   -0.2433 H   0  0  0  0  0  0  0  0  0  0  0  0
    5.3945    1.4809   -0.7031 H   0  0  0  0  0  0  0  0  0  0  0  0
    6.7089    1.2564    1.4027 H   0  0  0  0  0  0  0  0  0  0  0  0
    5.5805   -0.0387    2.0019 H   0  0  0  0  0  0  0  0  0  0  0  0
    6.1426   -1.4566   -0.0017 H   0  0  0  0  0  0  0  0  0  0  0  0
    7.2667   -0.1605   -0.6073 H   0  0  0  0  0  0  0  0  0  0  0  0
   -0.8025   -2.9582   -1.2572 H   0  0  0  0  0  0  0  0  0  0  0  0
   -0.7253   -3.1240    0.5356 H   0  0  0  0  0  0  0  0  0  0  0  0
    0.7219   -3.4448   -0.4632 H   0  0  0  0  0  0  0  0  0  0  0  0
   -2.4205   -1.5558   -0.1629 H   0  0  0  0  0  0  0  0  0  0  0  0
   -2.2651   -0.4260    2.0536 H   0  0  0  0  0  0  0  0  0  0  0  0
   -2.5798    1.1147    1.2826 H   0  0  0  0  0  0  0  0  0  0  0  0
   -4.7096    0.5244    1.9412 H   0  0  0  0  0  0  0  0  0  0  0  0
   -4.4499   -1.1963    1.7311 H   0  0  0  0  0  0  0  0  0  0  0  0
   -5.9934    0.1890    0.0417 H   0  0  0  0  0  0  0  0  0  0  0  0
   -5.0505   -1.1964   -0.4853 H   0  0  0  0  0  0  0  0  0  0  0  0
   -4.1610    1.7162   -0.7113 H   0  0  0  0  0  0  0  0  0  0  0  0
   -4.7784    0.7389   -2.0365 H   0  0  0  0  0  0  0  0  0  0  0  0
   -2.8530   -0.5911   -2.1593 H   0  0  0  0  0  0  0  0  0  0  0  0
   -2.2062    0.9795   -1.7663 H   0  0  0  0  0  0  0  0  0  0  0  0
  1  2  1  0
  2  3  1  0
  3  4  1  0
  4  5  2  0
  4  6  1  0
  6  7  1  0
  7  8  1  0
  8  9  1  0
  3 10  2  0
 10 11  1  0
 11 12  1  0
 11 13  1  0
 13 14  1  0
 14 15  1  0
 15 16  1  0
 16 17  1  0
 17 18  1  0
 18 19  1  0
 13  2  2  0
 19 14  1  0
  9  7  1  0
  1 20  1  0
  1 21  1  0
  1 22  1  0
  6 23  1  0
  7 24  1  0
  8 25  1  0
  8 26  1  0
  9 27  1  0
  9 28  1  0
 12 29  1  0
 12 30  1  0
 12 31  1  0
 14 32  1  0
 15 33  1  0
 15 34  1  0
 16 35  1  0
 16 36  1  0
 17 37  1  0
 17 38  1  0
 18 39  1  0
 18 40  1  0
 19 41  1  0
 19 42  1  0
M  END
>  <_SMILES>  (61) 
Cc1c(C(=O)NC2CC2)nn(C)c1C1CCCCC1

$$$$

     RDKit          3D

 48 52  0  0  0  0  0  0  0  0999 V2000
   -0.6575   -2.2076    0.2251 O   0  0  0  0  0  0  0  0  0  0  0  0
   -0.1363   -1.1010    0.1520 C   0  0  0  0  0  0  0  0  0  0  0  0
   -0.8265    0.0898    0.0449 N   0  0  0  0  0  0  0  0  0  0  0  0
   -2.2826    0.2305    0.0031 C   0  0  2  0  0  0  0  0  0  0  0  0
   -2.9452   -0.3048    1.2966 C   0  0  0  0  0  0  0  0  0  0  0  0
   -4.4699   -0.1011    1.2479 C   0  0  1  0  0  0  0  0  0  0  0  0
   -4.7782    1.3987    1.1172 C   0  0  0  0  0  0  0  0  0  0  0  0
   -4.1494    1.9534   -0.1706 C   0  0  2  0  0  0  0  0  0  0  0  0
   -4.7255    1.2040   -1.3822 C   0  0  0  0  0  0  0  0  0  0  0  0
   -4.4168   -0.2970   -1.2661 C   0  0  2  0  0  0  0  0  0  0  0  0
   -5.0412   -0.8447    0.0286 C   0  0  0  0  0  0  0  0  0  0  0  0
   -2.8921   -0.5008   -1.2187 C   0  0  0  0  0  0  0  0  0  0  0  0
   -2.6283    1.7387   -0.1218 C   0  0  0  0  0  0  0  0  0  0  0  0
    1.3490   -0.9646    0.1761 C   0  0  0  0  0  0  0  0  0  0  0  0
    2.1687   -2.0729    0.2799 C   0  0  0  0  0  0  0  0  0  0  0  0
    3.5480   -1.8728    0.2971 C   0  0  0  0  0  0  0  0  0  0  0  0
    4.0559   -0.5781    0.2135 C   0  0  0  0  0  0  0  0  0  0  0  0
    5.4975   -0.2623    0.2223 C   0  0  0  0  0  0  0  0  0  0  0  0
    5.9918    0.8609   -0.4684 C   0  0  0  0  0  0  0  0  0  0  0  0
    7.3546    1.1736   -0.4762 C   0  0  0  0  0  0  0  0  0  0  0  0
    8.2570    0.3703    0.2130 C   0  0  0  0  0  0  0  0  0  0  0  0
    7.7968   -0.7413    0.9120 C   0  0  0  0  0  0  0  0  0  0  0  0
    6.4326   -1.0525    0.9175 C   0  0  0  0  0  0  0  0  0  0  0  0
    3.2091    0.4773    0.1058 N   0  0  0  0  0  0  0  0  0  0  0  0
    1.8470    0.2902    0.0883 N   0  0  0  0  0  0  0  0  0  0  0  0
   -0.2557    0.9303   -0.0033 H   0  0  0  0  0  0  0  0  0  0  0  0
   -2.7317   -1.3715    1.4333 H   0  0  0  0  0  0  0  0  0  0  0  0
   -2.5278    0.2065    2.1740 H   0  0  0  0  0  0  0  0  0  0  0  0
   -4.9236   -0.4925    2.1653 H   0  0  0  0  0  0  0  0  0  0  0  0
   -5.8634    1.5585    1.1034 H   0  0  0  0  0  0  0  0  0  0  0  0
   -4.3879    1.9391    1.9883 H   0  0  0  0  0  0  0  0  0  0  0  0
   -4.3696    3.0231   -0.2586 H   0  0  0  0  0  0  0  0  0  0  0  0
   -5.8097    1.3605   -1.4389 H   0  0  0  0  0  0  0  0  0  0  0  0
   -4.2972    1.6043   -2.3094 H   0  0  0  0  0  0  0  0  0  0  0  0
   -4.8329   -0.8271   -2.1301 H   0  0  0  0  0  0  0  0  0  0  0  0
   -6.1314   -0.7273   -0.0036 H   0  0  0  0  0  0  0  0  0  0  0  0
   -4.8394   -1.9194    0.1165 H   0  0  0  0  0  0  0  0  0  0  0  0
   -2.4365   -0.1300   -2.1463 H   0  0  0  0  0  0  0  0  0  0  0  0
   -2.6766   -1.5751   -1.1796 H   0  0  0  0  0  0  0  0  0  0  0  0
   -2.1663    2.1581   -1.0257 H   0  0  0  0  0  0  0  0  0  0  0  0
   -2.2033    2.2945    0.7248 H   0  0  0  0  0  0  0  0  0  0  0  0
    1.7480   -3.0713    0.3413 H   0  0  0  0  0  0  0  0  0  0  0  0
    4.2072   -2.7326    0.3582 H   0  0  0  0  0  0  0  0  0  0  0  0
    5.3079    1.5079   -1.0169 H   0  0  0  0  0  0  0  0  0  0  0  0
    7.7063    2.0468   -1.0199 H   0  0  0  0  0  0  0  0  0  0  0  0
    9.3162    0.6138    0.2101 H   0  0  0  0  0  0  0  0  0  0  0  0
    8.4981   -1.3655    1.4603 H   0  0  0  0  0  0  0  0  0  0  0  0
    6.1108   -1.9169    1.4940 H   0  0  0  0  0  0  0  0  0  0  0  0
  1  2  2  0
  2  3  1  0
  4  3  1  1
  4  5  1  0
  5  6  1  0
  6  7  1  0
  7  8  1  0
  8  9  1  0
  9 10  1  0
 10 11  1  0
 10 12  1  0
  8 13  1  0
  2 14  1  0
 14 15  2  0
 15 16  1  0
 16 17  2  0
 17 18  1  0
 18 19  2  0
 19 20  1  0
 20 21  2  0
 21 22  1  0
 22 23  2  0
 17 24  1  0
 24 25  2  0
 12  4  1  0
 25 14  1  0
 13  4  1  0
 23 18  1  0
 11  6  1  0
  3 26  1  0
  5 27  1  0
  5 28  1  0
  6 29  1  1
  7 30  1  0
  7 31  1  0
  8 32  1  6
  9 33  1  0
  9 34  1  0
 10 35  1  6
 11 36  1  0
 11 37  1  0
 12 38  1  0
 12 39  1  0
 13 40  1  0
 13 41  1  0
 15 42  1  0
 16 43  1  0
 19 44  1  0
 20 45  1  0
 21 46  1  0
 22 47  1  0
 23 48  1  0
M  END
>  <_SMILES>  (62) 
O=C(N[C@]12C[C@H]3C[C@H](C[C@H](C3)C1)C2)c1ccc(-c2ccccc2)nn1

$$$$

     RDKit          3D

 43 45  0  0  0  0  0  0  0  0999 V2000
   -3.7859    0.8746   -2.1469 C   0  0  0  0  0  0  0  0  0  0  0  0
   -2.6827    0.4272   -1.2327 C   0  0  0  0  0  0  0  0  0  0  0  0
   -1.3588    0.4623   -1.6874 C   0  0  0  0  0  0  0  0  0  0  0  0
   -0.3479    0.0587   -0.8324 C   0  0  0  0  0  0  0  0  0  0  0  0
    1.0802    0.0876   -1.2608 C   0  0  0  0  0  0  0  0  0  0  0  0
    1.3965    0.5058   -2.3692 O   0  0  0  0  0  0  0  0  0  0  0  0
    1.9836   -0.3752   -0.3237 N   0  0  0  0  0  0  0  0  0  0  0  0
    3.4207   -0.2755   -0.5109 C   0  0  0  0  0  0  0  0  0  0  0  0
    4.1504   -1.3070    0.3494 C   0  0  0  0  0  0  0  0  0  0  0  0
    5.6597   -1.2954    0.0968 C   0  0  0  0  0  0  0  0  0  0  0  0
    6.1978    0.0699   -0.3346 C   0  0  0  0  0  0  0  0  0  0  0  0
    5.3739    1.2112    0.2444 C   0  0  0  0  0  0  0  0  0  0  0  0
    3.9132    1.1508   -0.2095 C   0  0  0  0  0  0  0  0  0  0  0  0
   -0.5954   -0.3674    0.4265 N   0  0  0  0  0  0  0  0  0  0  0  0
   -1.8899   -0.4173    0.8727 N   0  0  0  0  0  0  0  0  0  0  0  0
   -2.9173   -0.0448    0.0646 C   0  0  0  0  0  0  0  0  0  0  0  0
   -4.2479   -0.1712    0.6738 C   0  0  0  0  0  0  0  0  0  0  0  0
   -5.2247   -1.0255    0.1342 C   0  0  0  0  0  0  0  0  0  0  0  0
   -6.4875   -1.1360    0.7223 C   0  0  0  0  0  0  0  0  0  0  0  0
   -6.7916   -0.3994    1.8646 C   0  0  0  0  0  0  0  0  0  0  0  0
   -5.8330    0.4420    2.4237 C   0  0  0  0  0  0  0  0  0  0  0  0
   -4.5707    0.5515    1.8350 C   0  0  0  0  0  0  0  0  0  0  0  0
   -3.3945    1.4872   -2.9666 H   0  0  0  0  0  0  0  0  0  0  0  0
   -4.2918    0.0087   -2.5843 H   0  0  0  0  0  0  0  0  0  0  0  0
   -4.5138    1.4933   -1.6123 H   0  0  0  0  0  0  0  0  0  0  0  0
   -1.1154    0.8054   -2.6889 H   0  0  0  0  0  0  0  0  0  0  0  0
    1.6147   -0.5844    0.6005 H   0  0  0  0  0  0  0  0  0  0  0  0
    3.6270   -0.4966   -1.5667 H   0  0  0  0  0  0  0  0  0  0  0  0
    3.9590   -1.0981    1.4106 H   0  0  0  0  0  0  0  0  0  0  0  0
    3.7573   -2.3145    0.1657 H   0  0  0  0  0  0  0  0  0  0  0  0
    6.1705   -1.6244    1.0099 H   0  0  0  0  0  0  0  0  0  0  0  0
    5.9123   -2.0319   -0.6757 H   0  0  0  0  0  0  0  0  0  0  0  0
    6.1843    0.1367   -1.4298 H   0  0  0  0  0  0  0  0  0  0  0  0
    7.2463    0.1645   -0.0300 H   0  0  0  0  0  0  0  0  0  0  0  0
    5.8076    2.1762   -0.0412 H   0  0  0  0  0  0  0  0  0  0  0  0
    5.4150    1.1631    1.3400 H   0  0  0  0  0  0  0  0  0  0  0  0
    3.7854    1.7629   -1.1116 H   0  0  0  0  0  0  0  0  0  0  0  0
    3.2913    1.6252    0.5607 H   0  0  0  0  0  0  0  0  0  0  0  0
   -5.0020   -1.6255   -0.7458 H   0  0  0  0  0  0  0  0  0  0  0  0
   -7.2303   -1.8034    0.2927 H   0  0  0  0  0  0  0  0  0  0  0  0
   -7.7724   -0.4881    2.3249 H   0  0  0  0  0  0  0  0  0  0  0  0
   -6.0636    1.0099    3.3214 H   0  0  0  0  0  0  0  0  0  0  0  0
   -3.8296    1.2070    2.2898 H   0  0  0  0  0  0  0  0  0  0  0  0
  1  2  1  0
  2  3  1  0
  3  4  2  0
  4  5  1  0
  5  6  2  0
  5  7  1  0
  7  8  1  0
  8  9  1  0
  9 10  1  0
 10 11  1  0
 11 12  1  0
 12 13  1  0
  4 14  1  0
 14 15  2  0
 15 16  1  0
 16 17  1  0
 17 18  2  0
 18 19  1  0
 19 20  2  0
 20 21  1  0
 21 22  2  0
 16  2  2  0
 22 17  1  0
 13  8  1  0
  1 23  1  0
  1 24  1  0
  1 25  1  0
  3 26  1  0
  7 27  1  0
  8 28  1  0
  9 29  1  0
  9 30  1  0
 10 31  1  0
 10 32  1  0
 11 33  1  0
 11 34  1  0
 12 35  1  0
 12 36  1  0
 13 37  1  0
 13 38  1  0
 18 39  1  0
 19 40  1  0
 20 41  1  0
 21 42  1  0
 22 43  1  0
M  END
>  <_SMILES>  (63) 
Cc1cc(C(=O)NC2CCCCC2)nnc1-c1ccccc1

$$$$

     RDKit          3D

 44 47  0  0  0  0  0  0  0  0999 V2000
    5.8864   -1.0499   -1.1377 C   0  0  0  0  0  0  0  0  0  0  0  0
    4.7249   -0.3131   -0.5406 C   0  0  0  0  0  0  0  0  0  0  0  0
    3.4200   -0.7561   -0.7707 C   0  0  0  0  0  0  0  0  0  0  0  0
    2.3710   -0.0527   -0.2045 C   0  0  0  0  0  0  0  0  0  0  0  0
    0.9558   -0.4779   -0.4148 C   0  0  0  0  0  0  0  0  0  0  0  0
    0.6981   -1.4631   -1.0966 O   0  0  0  0  0  0  0  0  0  0  0  0
    0.0137    0.3159    0.2085 N   0  0  0  0  0  0  0  0  0  0  0  0
   -1.4353    0.1176    0.1612 C   0  0  2  0  0  0  0  0  0  0  0  0
   -2.1131    1.2359    0.9976 C   0  0  0  0  0  0  0  0  0  0  0  0
   -3.6423    1.0822    0.9871 C   0  0  1  0  0  0  0  0  0  0  0  0
   -4.1469    1.1629   -0.4622 C   0  0  0  0  0  0  0  0  0  0  0  0
   -3.5074    0.0470   -1.3034 C   0  0  2  0  0  0  0  0  0  0  0  0
   -3.8772   -1.3186   -0.6997 C   0  0  0  0  0  0  0  0  0  0  0  0
   -3.3752   -1.4096    0.7515 C   0  0  2  0  0  0  0  0  0  0  0  0
   -4.0154   -0.2852    1.5807 C   0  0  0  0  0  0  0  0  0  0  0  0
   -1.8449   -1.2468    0.7691 C   0  0  0  0  0  0  0  0  0  0  0  0
   -1.9773    0.2105   -1.2867 C   0  0  0  0  0  0  0  0  0  0  0  0
    2.5652    1.0460    0.5618 N   0  0  0  0  0  0  0  0  0  0  0  0
    3.8385    1.4834    0.7898 N   0  0  0  0  0  0  0  0  0  0  0  0
    4.8954    0.8237    0.2542 C   0  0  0  0  0  0  0  0  0  0  0  0
    6.2499    1.3849    0.5647 C   0  0  0  0  0  0  0  0  0  0  0  0
    5.5546   -1.9115   -1.7271 H   0  0  0  0  0  0  0  0  0  0  0  0
    6.5463   -1.4246   -0.3489 H   0  0  0  0  0  0  0  0  0  0  0  0
    6.4526   -0.3925   -1.8050 H   0  0  0  0  0  0  0  0  0  0  0  0
    3.2186   -1.6328   -1.3792 H   0  0  0  0  0  0  0  0  0  0  0  0
    0.3805    1.1010    0.7414 H   0  0  0  0  0  0  0  0  0  0  0  0
   -1.7457    1.2085    2.0323 H   0  0  0  0  0  0  0  0  0  0  0  0
   -1.8378    2.2227    0.6015 H   0  0  0  0  0  0  0  0  0  0  0  0
   -4.0987    1.8808    1.5825 H   0  0  0  0  0  0  0  0  0  0  0  0
   -3.9022    2.1426   -0.8907 H   0  0  0  0  0  0  0  0  0  0  0  0
   -5.2397    1.0697   -0.4843 H   0  0  0  0  0  0  0  0  0  0  0  0
   -3.8733    0.1065   -2.3345 H   0  0  0  0  0  0  0  0  0  0  0  0
   -4.9649   -1.4576   -0.7282 H   0  0  0  0  0  0  0  0  0  0  0  0
   -3.4375   -2.1250   -1.2996 H   0  0  0  0  0  0  0  0  0  0  0  0
   -3.6474   -2.3822    1.1764 H   0  0  0  0  0  0  0  0  0  0  0  0
   -3.6761   -0.3474    2.6220 H   0  0  0  0  0  0  0  0  0  0  0  0
   -5.1059   -0.4033    1.5936 H   0  0  0  0  0  0  0  0  0  0  0  0
   -1.3913   -2.0754    0.2126 H   0  0  0  0  0  0  0  0  0  0  0  0
   -1.4724   -1.3283    1.7987 H   0  0  0  0  0  0  0  0  0  0  0  0
   -1.5288   -0.5616   -1.9230 H   0  0  0  0  0  0  0  0  0  0  0  0
   -1.6997    1.1748   -1.7324 H   0  0  0  0  0  0  0  0  0  0  0  0
    6.1668    2.2732    1.1998 H   0  0  0  0  0  0  0  0  0  0  0  0
    6.8560    0.6469    1.0991 H   0  0  0  0  0  0  0  0  0  0  0  0
    6.7623    1.6786   -0.3564 H   0  0  0  0  0  0  0  0  0  0  0  0
  1  2  1  0
  2  3  1  0
  3  4  2  0
  4  5  1  0
  5  6  2  0
  5  7  1  0
  8  7  1  6
  8  9  1  0
  9 10  1  0
 10 11  1  0
 11 12  1  0
 12 13  1  0
 13 14  1  0
 14 15  1  0
 14 16  1  0
 12 17  1  0
  4 18  1  0
 18 19  2  0
 19 20  1  0
 20 21  1  0
 20  2  2  0
 16  8  1  0
 17  8  1  0
 15 10  1  0
  1 22  1  0
  1 23  1  0
  1 24  1  0
  3 25  1  0
  7 26  1  0
  9 27  1  0
  9 28  1  0
 10 29  1  1
 11 30  1  0
 11 31  1  0
 12 32  1  6
 13 33  1  0
 13 34  1  0
 14 35  1  1
 15 36  1  0
 15 37  1  0
 16 38  1  0
 16 39  1  0
 17 40  1  0
 17 41  1  0
 21 42  1  0
 21 43  1  0
 21 44  1  0
M  END
>  <_SMILES>  (64) 
Cc1cc(C(=O)N[C@]23C[C@H]4C[C@H](C[C@H](C4)C2)C3)nnc1C

$$$$

     RDKit          3D

 41 44  0  0  0  0  0  0  0  0999 V2000
    6.5057   -0.3749   -0.5684 C   0  0  0  0  0  0  0  0  0  0  0  0
    5.2340   -0.0532    0.1490 C   0  0  0  0  0  0  0  0  0  0  0  0
    5.2416    0.3933    1.4631 C   0  0  0  0  0  0  0  0  0  0  0  0
    4.1138    0.6653    2.1575 N   0  0  0  0  0  0  0  0  0  0  0  0
    2.9028    0.4900    1.5594 N   0  0  0  0  0  0  0  0  0  0  0  0
    2.8532    0.0404    0.2799 C   0  0  0  0  0  0  0  0  0  0  0  0
    1.4938   -0.1388   -0.3104 C   0  0  0  0  0  0  0  0  0  0  0  0
    1.3646   -0.5431   -1.4601 O   0  0  0  0  0  0  0  0  0  0  0  0
    0.4490    0.1827    0.5328 N   0  0  0  0  0  0  0  0  0  0  0  0
   -0.9735    0.0958    0.2005 C   0  0  2  0  0  0  0  0  0  0  0  0
   -1.7965    0.5514    1.4352 C   0  0  0  0  0  0  0  0  0  0  0  0
   -3.3049    0.4824    1.1483 C   0  0  1  0  0  0  0  0  0  0  0  0
   -3.6341    1.3986   -0.0407 C   0  0  0  0  0  0  0  0  0  0  0  0
   -2.8486    0.9491   -1.2827 C   0  0  2  0  0  0  0  0  0  0  0  0
   -3.2270   -0.5022   -1.6246 C   0  0  0  0  0  0  0  0  0  0  0  0
   -2.9002   -1.4277   -0.4402 C   0  0  2  0  0  0  0  0  0  0  0  0
   -3.6854   -0.9643    0.7969 C   0  0  0  0  0  0  0  0  0  0  0  0
   -1.3920   -1.3555   -0.1422 C   0  0  0  0  0  0  0  0  0  0  0  0
   -1.3404    1.0225   -0.9851 C   0  0  0  0  0  0  0  0  0  0  0  0
    3.9930   -0.2462   -0.4547 C   0  0  0  0  0  0  0  0  0  0  0  0
    6.3991   -0.2087   -1.6456 H   0  0  0  0  0  0  0  0  0  0  0  0
    6.7788   -1.4208   -0.3980 H   0  0  0  0  0  0  0  0  0  0  0  0
    7.3235    0.2650   -0.2205 H   0  0  0  0  0  0  0  0  0  0  0  0
    6.1639    0.5504    2.0129 H   0  0  0  0  0  0  0  0  0  0  0  0
    0.7130    0.5050    1.4609 H   0  0  0  0  0  0  0  0  0  0  0  0
   -1.5199    1.5766    1.7157 H   0  0  0  0  0  0  0  0  0  0  0  0
   -1.5558   -0.0783    2.3023 H   0  0  0  0  0  0  0  0  0  0  0  0
   -3.8651    0.8078    2.0320 H   0  0  0  0  0  0  0  0  0  0  0  0
   -3.3836    2.4377    0.2057 H   0  0  0  0  0  0  0  0  0  0  0  0
   -4.7109    1.3713   -0.2480 H   0  0  0  0  0  0  0  0  0  0  0  0
   -3.0897    1.6028   -2.1284 H   0  0  0  0  0  0  0  0  0  0  0  0
   -4.2960   -0.5634   -1.8627 H   0  0  0  0  0  0  0  0  0  0  0  0
   -2.6826   -0.8308   -2.5184 H   0  0  0  0  0  0  0  0  0  0  0  0
   -3.1778   -2.4581   -0.6889 H   0  0  0  0  0  0  0  0  0  0  0  0
   -4.7631   -1.0322    0.6040 H   0  0  0  0  0  0  0  0  0  0  0  0
   -3.4717   -1.6253    1.6459 H   0  0  0  0  0  0  0  0  0  0  0  0
   -0.8380   -1.7278   -1.0120 H   0  0  0  0  0  0  0  0  0  0  0  0
   -1.1432   -2.0266    0.6904 H   0  0  0  0  0  0  0  0  0  0  0  0
   -1.0545    2.0578   -0.7574 H   0  0  0  0  0  0  0  0  0  0  0  0
   -0.7844    0.7425   -1.8876 H   0  0  0  0  0  0  0  0  0  0  0  0
    3.9093   -0.6110   -1.4739 H   0  0  0  0  0  0  0  0  0  0  0  0
  1  2  1  0
  2  3  2  0
  3  4  1  0
  4  5  2  0
  5  6  1  0
  6  7  1  0
  7  8  2  0
  7  9  1  0
 10  9  1  1
 10 11  1  0
 11 12  1  0
 12 13  1  0
 13 14  1  0
 14 15  1  0
 15 16  1  0
 16 17  1  0
 16 18  1  0
 14 19  1  0
  6 20  2  0
 20  2  1  0
 18 10  1  0
 19 10  1  0
 17 12  1  0
  1 21  1  0
  1 22  1  0
  1 23  1  0
  3 24  1  0
  9 25  1  0
 11 26  1  0
 11 27  1  0
 12 28  1  1
 13 29  1  0
 13 30  1  0
 14 31  1  6
 15 32  1  0
 15 33  1  0
 16 34  1  6
 17 35  1  0
 17 36  1  0
 18 37  1  0
 18 38  1  0
 19 39  1  0
 19 40  1  0
 20 41  1  0
M  END
>  <_SMILES>  (65) 
Cc1cnnc(C(=O)N[C@]23C[C@H]4C[C@H](C[C@H](C4)C2)C3)c1

$$$$

     RDKit          3D

 50 53  0  0  0  0  0  0  0  0999 V2000
    4.7030    2.3044    0.5393 C   0  0  0  0  0  0  0  0  0  0  0  0
    3.7336    1.2018    0.2337 C   0  0  0  0  0  0  0  0  0  0  0  0
    2.3646    1.4888    0.3444 C   0  0  0  0  0  0  0  0  0  0  0  0
    1.4415    0.4916    0.0914 C   0  0  0  0  0  0  0  0  0  0  0  0
   -0.0246    0.7499    0.1907 C   0  0  0  0  0  0  0  0  0  0  0  0
   -0.4399    1.8605    0.5007 O   0  0  0  0  0  0  0  0  0  0  0  0
   -0.8252   -0.3395   -0.0894 N   0  0  0  0  0  0  0  0  0  0  0  0
   -2.2882   -0.3524   -0.0637 C   0  0  2  0  0  0  0  0  0  0  0  0
   -2.8374   -0.0192    1.3456 C   0  0  0  0  0  0  0  0  0  0  0  0
   -4.3748   -0.0869    1.3572 C   0  0  1  0  0  0  0  0  0  0  0  0
   -4.9334    0.9168    0.3341 C   0  0  0  0  0  0  0  0  0  0  0  0
   -4.4234    0.5746   -1.0762 C   0  0  2  0  0  0  0  0  0  0  0  0
   -4.8723   -0.8478   -1.4463 C   0  0  0  0  0  0  0  0  0  0  0  0
   -4.3098   -1.8560   -0.4321 C   0  0  2  0  0  0  0  0  0  0  0  0
   -4.8239   -1.5055    0.9730 C   0  0  0  0  0  0  0  0  0  0  0  0
   -2.7749   -1.7773   -0.4413 C   0  0  0  0  0  0  0  0  0  0  0  0
   -2.8860    0.6427   -1.0891 C   0  0  0  0  0  0  0  0  0  0  0  0
    1.8153   -0.7573   -0.2542 N   0  0  0  0  0  0  0  0  0  0  0  0
    3.1481   -1.0487   -0.3514 N   0  0  0  0  0  0  0  0  0  0  0  0
    4.0998   -0.1061   -0.1075 C   0  0  0  0  0  0  0  0  0  0  0  0
    5.5143   -0.6266   -0.2693 C   0  0  0  0  0  0  0  0  0  0  0  0
    6.1363   -0.1840   -1.5947 C   0  0  0  0  0  0  0  0  0  0  0  0
    6.4423   -0.3569    0.9152 C   0  0  0  0  0  0  0  0  0  0  0  0
    5.5264    2.3301   -0.1768 H   0  0  0  0  0  0  0  0  0  0  0  0
    5.0960    2.1906    1.5540 H   0  0  0  0  0  0  0  0  0  0  0  0
    4.2175    3.2853    0.4797 H   0  0  0  0  0  0  0  0  0  0  0  0
    2.0185    2.4803    0.6240 H   0  0  0  0  0  0  0  0  0  0  0  0
   -0.3350   -1.1972   -0.3319 H   0  0  0  0  0  0  0  0  0  0  0  0
   -2.4270   -0.7186    2.0857 H   0  0  0  0  0  0  0  0  0  0  0  0
   -2.5217    0.9820    1.6622 H   0  0  0  0  0  0  0  0  0  0  0  0
   -4.7471    0.1596    2.3579 H   0  0  0  0  0  0  0  0  0  0  0  0
   -4.6310    1.9358    0.6051 H   0  0  0  0  0  0  0  0  0  0  0  0
   -6.0301    0.8954    0.3502 H   0  0  0  0  0  0  0  0  0  0  0  0
   -4.8302    1.2899   -1.7998 H   0  0  0  0  0  0  0  0  0  0  0  0
   -5.9677   -0.9032   -1.4618 H   0  0  0  0  0  0  0  0  0  0  0  0
   -4.5265   -1.0992   -2.4565 H   0  0  0  0  0  0  0  0  0  0  0  0
   -4.6301   -2.8688   -0.7010 H   0  0  0  0  0  0  0  0  0  0  0  0
   -5.9185   -1.5721    0.9990 H   0  0  0  0  0  0  0  0  0  0  0  0
   -4.4434   -2.2300    1.7034 H   0  0  0  0  0  0  0  0  0  0  0  0
   -2.3963   -2.0545   -1.4344 H   0  0  0  0  0  0  0  0  0  0  0  0
   -2.3625   -2.5151    0.2600 H   0  0  0  0  0  0  0  0  0  0  0  0
   -2.5722    1.6695   -0.8670 H   0  0  0  0  0  0  0  0  0  0  0  0
   -2.5105    0.4181   -2.0961 H   0  0  0  0  0  0  0  0  0  0  0  0
    5.4337   -1.7223   -0.3259 H   0  0  0  0  0  0  0  0  0  0  0  0
    5.4937   -0.4582   -2.4390 H   0  0  0  0  0  0  0  0  0  0  0  0
    6.2956    0.8967   -1.6400 H   0  0  0  0  0  0  0  0  0  0  0  0
    7.1075   -0.6681   -1.7441 H   0  0  0  0  0  0  0  0  0  0  0  0
    5.9530   -0.5974    1.8651 H   0  0  0  0  0  0  0  0  0  0  0  0
    7.3425   -0.9772    0.8370 H   0  0  0  0  0  0  0  0  0  0  0  0
    6.7802    0.6816    0.9562 H   0  0  0  0  0  0  0  0  0  0  0  0
  1  2  1  0
  2  3  1  0
  3  4  2  0
  4  5  1  0
  5  6  2  0
  5  7  1  0
  8  7  1  1
  8  9  1  0
  9 10  1  0
 10 11  1  0
 11 12  1  0
 12 13  1  0
 13 14  1  0
 14 15  1  0
 14 16  1  0
 12 17  1  0
  4 18  1  0
 18 19  2  0
 19 20  1  0
 20 21  1  0
 21 22  1  0
 21 23  1  0
 20  2  2  0
 16  8  1  0
 17  8  1  0
 15 10  1  0
  1 24  1  0
  1 25  1  0
  1 26  1  0
  3 27  1  0
  7 28  1  0
  9 29  1  0
  9 30  1  0
 10 31  1  1
 11 32  1  0
 11 33  1  0
 12 34  1  6
 13 35  1  0
 13 36  1  0
 14 37  1  6
 15 38  1  0
 15 39  1  0
 16 40  1  0
 16 41  1  0
 17 42  1  0
 17 43  1  0
 21 44  1  0
 22 45  1  0
 22 46  1  0
 22 47  1  0
 23 48  1  0
 23 49  1  0
 23 50  1  0
M  END
>  <_SMILES>  (66) 
Cc1cc(C(=O)N[C@]23C[C@H]4C[C@H](C[C@H](C4)C2)C3)nnc1C(C)C

$$$$

     RDKit          3D

 40 42  0  0  0  0  0  0  0  0999 V2000
   -3.7203   -0.0398   -2.2420 C   0  0  0  0  0  0  0  0  0  0  0  0
   -2.4744   -0.0446   -1.4048 C   0  0  0  0  0  0  0  0  0  0  0  0
   -1.2259   -0.1212   -2.0343 C   0  0  0  0  0  0  0  0  0  0  0  0
   -0.0821   -0.1107   -1.2546 C   0  0  0  0  0  0  0  0  0  0  0  0
    1.2714   -0.1861   -1.8750 C   0  0  0  0  0  0  0  0  0  0  0  0
    1.4058   -0.2799   -3.0905 O   0  0  0  0  0  0  0  0  0  0  0  0
    2.3277   -0.1475   -0.9926 N   0  0  0  0  0  0  0  0  0  0  0  0
    3.6918   -0.2742   -1.4380 C   0  0  0  0  0  0  0  0  0  0  0  0
    4.6504   -0.1022   -0.2920 C   0  0  0  0  0  0  0  0  0  0  0  0
    5.0800    1.1772    0.0880 C   0  0  0  0  0  0  0  0  0  0  0  0
    5.9476    1.3404    1.1690 C   0  0  0  0  0  0  0  0  0  0  0  0
    6.3872    0.2284    1.8850 C   0  0  0  0  0  0  0  0  0  0  0  0
    5.9570   -1.0471    1.5237 C   0  0  0  0  0  0  0  0  0  0  0  0
    5.0893   -1.2124    0.4430 C   0  0  0  0  0  0  0  0  0  0  0  0
   -0.1303   -0.0326    0.0936 N   0  0  0  0  0  0  0  0  0  0  0  0
   -1.3495    0.0274    0.7166 N   0  0  0  0  0  0  0  0  0  0  0  0
   -2.5004    0.0084   -0.0058 C   0  0  0  0  0  0  0  0  0  0  0  0
   -3.7269    0.0601    0.8008 C   0  0  0  0  0  0  0  0  0  0  0  0
   -4.6705   -0.9809    0.7710 C   0  0  0  0  0  0  0  0  0  0  0  0
   -5.8343   -0.9190    1.5423 C   0  0  0  0  0  0  0  0  0  0  0  0
   -6.0696    0.1819    2.3623 C   0  0  0  0  0  0  0  0  0  0  0  0
   -5.1401    1.2175    2.4177 C   0  0  0  0  0  0  0  0  0  0  0  0
   -3.9770    1.1544    1.6463 C   0  0  0  0  0  0  0  0  0  0  0  0
   -4.1810   -1.0322   -2.2435 H   0  0  0  0  0  0  0  0  0  0  0  0
   -3.4967    0.2309   -3.2798 H   0  0  0  0  0  0  0  0  0  0  0  0
   -4.4399    0.6981   -1.8730 H   0  0  0  0  0  0  0  0  0  0  0  0
   -1.1429   -0.1803   -3.1158 H   0  0  0  0  0  0  0  0  0  0  0  0
    2.1252   -0.1207    0.0029 H   0  0  0  0  0  0  0  0  0  0  0  0
    3.8134   -1.2590   -1.9046 H   0  0  0  0  0  0  0  0  0  0  0  0
    3.8819    0.4707   -2.2199 H   0  0  0  0  0  0  0  0  0  0  0  0
    4.7368    2.0541   -0.4571 H   0  0  0  0  0  0  0  0  0  0  0  0
    6.2778    2.3358    1.4546 H   0  0  0  0  0  0  0  0  0  0  0  0
    7.0616    0.3563    2.7276 H   0  0  0  0  0  0  0  0  0  0  0  0
    6.2949   -1.9137    2.0861 H   0  0  0  0  0  0  0  0  0  0  0  0
    4.7552   -2.2131    0.1774 H   0  0  0  0  0  0  0  0  0  0  0  0
   -4.4974   -1.8599    0.1534 H   0  0  0  0  0  0  0  0  0  0  0  0
   -6.5524   -1.7344    1.5085 H   0  0  0  0  0  0  0  0  0  0  0  0
   -6.9725    0.2286    2.9658 H   0  0  0  0  0  0  0  0  0  0  0  0
   -5.3153    2.0729    3.0652 H   0  0  0  0  0  0  0  0  0  0  0  0
   -3.2560    1.9681    1.7083 H   0  0  0  0  0  0  0  0  0  0  0  0
  1  2  1  0
  2  3  1  0
  3  4  2  0
  4  5  1  0
  5  6  2  0
  5  7  1  0
  7  8  1  0
  8  9  1  0
  9 10  2  0
 10 11  1  0
 11 12  2  0
 12 13  1  0
 13 14  2  0
  4 15  1  0
 15 16  2  0
 16 17  1  0
 17 18  1  0
 18 19  2  0
 19 20  1  0
 20 21  2  0
 21 22  1  0
 22 23  2  0
 17  2  2  0
 23 18  1  0
 14  9  1  0
  1 24  1  0
  1 25  1  0
  1 26  1  0
  3 27  1  0
  7 28  1  0
  8 29  1  0
  8 30  1  0
 10 31  1  0
 11 32  1  0
 12 33  1  0
 13 34  1  0
 14 35  1  0
 19 36  1  0
 20 37  1  0
 21 38  1  0
 22 39  1  0
 23 40  1  0
M  END
>  <_SMILES>  (67) 
Cc1cc(C(=O)NCc2ccccc2)nnc1-c1ccccc1

$$$$

     RDKit          3D

 39 40  0  0  0  0  0  0  0  0999 V2000
    2.6013   -1.2858   -2.1967 C   0  0  0  0  0  0  0  0  0  0  0  0
    1.6704   -0.7158   -1.1663 C   0  0  0  0  0  0  0  0  0  0  0  0
    0.2916   -0.7212   -1.4103 C   0  0  0  0  0  0  0  0  0  0  0  0
   -0.5574   -0.1815   -0.4596 C   0  0  0  0  0  0  0  0  0  0  0  0
   -2.0346   -0.1552   -0.6698 C   0  0  0  0  0  0  0  0  0  0  0  0
   -2.5233   -0.6153   -1.6951 O   0  0  0  0  0  0  0  0  0  0  0  0
   -2.7574    0.4127    0.3608 N   0  0  0  0  0  0  0  0  0  0  0  0
   -4.2171    0.5580    0.4042 C   0  0  0  0  0  0  0  0  0  0  0  0
   -4.7141    1.4381   -0.7532 C   0  0  0  0  0  0  0  0  0  0  0  0
   -4.9051   -0.8151    0.3559 C   0  0  0  0  0  0  0  0  0  0  0  0
   -4.5900    1.2430    1.7313 C   0  0  0  0  0  0  0  0  0  0  0  0
   -0.1001    0.3485    0.6972 N   0  0  0  0  0  0  0  0  0  0  0  0
    1.2467    0.3438    0.9484 N   0  0  0  0  0  0  0  0  0  0  0  0
    2.1182   -0.1865    0.0502 C   0  0  0  0  0  0  0  0  0  0  0  0
    3.5262   -0.1375    0.4660 C   0  0  0  0  0  0  0  0  0  0  0  0
    4.2813   -1.3095    0.6421 C   0  0  0  0  0  0  0  0  0  0  0  0
    5.6205   -1.2496    1.0368 C   0  0  0  0  0  0  0  0  0  0  0  0
    6.2244   -0.0163    1.2694 C   0  0  0  0  0  0  0  0  0  0  0  0
    5.4897    1.1566    1.1147 C   0  0  0  0  0  0  0  0  0  0  0  0
    4.1508    1.0954    0.7203 C   0  0  0  0  0  0  0  0  0  0  0  0
    2.1131   -1.3519   -3.1754 H   0  0  0  0  0  0  0  0  0  0  0  0
    3.4819   -0.6487   -2.3273 H   0  0  0  0  0  0  0  0  0  0  0  0
    2.9170   -2.2929   -1.9081 H   0  0  0  0  0  0  0  0  0  0  0  0
   -0.1167   -1.1320   -2.3293 H   0  0  0  0  0  0  0  0  0  0  0  0
   -2.2119    0.7486    1.1511 H   0  0  0  0  0  0  0  0  0  0  0  0
   -5.7923    1.6195   -0.6775 H   0  0  0  0  0  0  0  0  0  0  0  0
   -4.2081    2.4104   -0.7529 H   0  0  0  0  0  0  0  0  0  0  0  0
   -4.5295    0.9750   -1.7279 H   0  0  0  0  0  0  0  0  0  0  0  0
   -5.9904   -0.7182    0.4724 H   0  0  0  0  0  0  0  0  0  0  0  0
   -4.5373   -1.4674    1.1564 H   0  0  0  0  0  0  0  0  0  0  0  0
   -4.7240   -1.3302   -0.5930 H   0  0  0  0  0  0  0  0  0  0  0  0
   -4.1185    2.2295    1.8124 H   0  0  0  0  0  0  0  0  0  0  0  0
   -5.6734    1.3796    1.8218 H   0  0  0  0  0  0  0  0  0  0  0  0
   -4.2527    0.6504    2.5898 H   0  0  0  0  0  0  0  0  0  0  0  0
    3.8241   -2.2845    0.4855 H   0  0  0  0  0  0  0  0  0  0  0  0
    6.1891   -2.1665    1.1702 H   0  0  0  0  0  0  0  0  0  0  0  0
    7.2649    0.0307    1.5804 H   0  0  0  0  0  0  0  0  0  0  0  0
    5.9549    2.1202    1.3060 H   0  0  0  0  0  0  0  0  0  0  0  0
    3.5879    2.0214    0.6125 H   0  0  0  0  0  0  0  0  0  0  0  0
  1  2  1  0
  2  3  1  0
  3  4  2  0
  4  5  1  0
  5  6  2  0
  5  7  1  0
  7  8  1  0
  8  9  1  0
  8 10  1  0
  8 11  1  0
  4 12  1  0
 12 13  2  0
 13 14  1  0
 14 15  1  0
 15 16  2  0
 16 17  1  0
 17 18  2  0
 18 19  1  0
 19 20  2  0
 14  2  2  0
 20 15  1  0
  1 21  1  0
  1 22  1  0
  1 23  1  0
  3 24  1  0
  7 25  1  0
  9 26  1  0
  9 27  1  0
  9 28  1  0
 10 29  1  0
 10 30  1  0
 10 31  1  0
 11 32  1  0
 11 33  1  0
 11 34  1  0
 16 35  1  0
 17 36  1  0
 18 37  1  0
 19 38  1  0
 20 39  1  0
M  END
>  <_SMILES>  (68) 
Cc1cc(C(=O)NC(C)(C)C)nnc1-c1ccccc1

$$$$

     RDKit          3D

 40 42  0  0  0  0  0  0  0  0999 V2000
    3.0596    1.7665    1.9309 C   0  0  0  0  0  0  0  0  0  0  0  0
    2.0775    0.9563    1.1358 C   0  0  0  0  0  0  0  0  0  0  0  0
    0.7208    0.9922    1.4807 C   0  0  0  0  0  0  0  0  0  0  0  0
   -0.1782    0.2509    0.7337 C   0  0  0  0  0  0  0  0  0  0  0  0
   -1.6355    0.2623    1.0497 C   0  0  0  0  0  0  0  0  0  0  0  0
   -2.0779    0.9586    1.9570 O   0  0  0  0  0  0  0  0  0  0  0  0
   -2.4166   -0.5476    0.2486 N   0  0  0  0  0  0  0  0  0  0  0  0
   -3.8581   -0.5396    0.3247 C   0  0  0  0  0  0  0  0  0  0  0  0
   -4.4842    0.6322   -0.4293 C   0  0  0  0  0  0  0  0  0  0  0  0
   -5.8976    0.1715   -0.7847 C   0  0  0  0  0  0  0  0  0  0  0  0
   -5.9401   -1.3332   -0.5222 C   0  0  0  0  0  0  0  0  0  0  0  0
   -4.4886   -1.7528   -0.3467 C   0  0  0  0  0  0  0  0  0  0  0  0
    0.2092   -0.5060   -0.3174 N   0  0  0  0  0  0  0  0  0  0  0  0
    1.5370   -0.5564   -0.6513 N   0  0  0  0  0  0  0  0  0  0  0  0
    2.4589    0.1432    0.0615 C   0  0  0  0  0  0  0  0  0  0  0  0
    3.8426   -0.0250   -0.4018 C   0  0  0  0  0  0  0  0  0  0  0  0
    4.2058    0.3448   -1.7080 C   0  0  0  0  0  0  0  0  0  0  0  0
    5.5186    0.1919   -2.1609 C   0  0  0  0  0  0  0  0  0  0  0  0
    6.4890   -0.3415   -1.3164 C   0  0  0  0  0  0  0  0  0  0  0  0
    6.1471   -0.7282   -0.0228 C   0  0  0  0  0  0  0  0  0  0  0  0
    4.8337   -0.5746    0.4292 C   0  0  0  0  0  0  0  0  0  0  0  0
    3.7797    2.2665    1.2753 H   0  0  0  0  0  0  0  0  0  0  0  0
    3.5927    1.1275    2.6412 H   0  0  0  0  0  0  0  0  0  0  0  0
    2.5523    2.5540    2.4992 H   0  0  0  0  0  0  0  0  0  0  0  0
    0.3662    1.5935    2.3130 H   0  0  0  0  0  0  0  0  0  0  0  0
   -1.9560   -0.9888   -0.5434 H   0  0  0  0  0  0  0  0  0  0  0  0
   -4.1565   -0.4968    1.3802 H   0  0  0  0  0  0  0  0  0  0  0  0
   -3.9261    0.8482   -1.3493 H   0  0  0  0  0  0  0  0  0  0  0  0
   -4.4897    1.5500    0.1676 H   0  0  0  0  0  0  0  0  0  0  0  0
   -6.6475    0.6873   -0.1752 H   0  0  0  0  0  0  0  0  0  0  0  0
   -6.1187    0.3956   -1.8339 H   0  0  0  0  0  0  0  0  0  0  0  0
   -6.4327   -1.8804   -1.3316 H   0  0  0  0  0  0  0  0  0  0  0  0
   -6.4997   -1.5299    0.4002 H   0  0  0  0  0  0  0  0  0  0  0  0
   -4.3880   -2.6621    0.2538 H   0  0  0  0  0  0  0  0  0  0  0  0
   -4.0306   -1.9456   -1.3250 H   0  0  0  0  0  0  0  0  0  0  0  0
    3.4571    0.7551   -2.3839 H   0  0  0  0  0  0  0  0  0  0  0  0
    5.7798    0.4844   -3.1747 H   0  0  0  0  0  0  0  0  0  0  0  0
    7.5096   -0.4646   -1.6700 H   0  0  0  0  0  0  0  0  0  0  0  0
    6.9006   -1.1572    0.6329 H   0  0  0  0  0  0  0  0  0  0  0  0
    4.5844   -0.9022    1.4365 H   0  0  0  0  0  0  0  0  0  0  0  0
  1  2  1  0
  2  3  1  0
  3  4  2  0
  4  5  1  0
  5  6  2  0
  5  7  1  0
  7  8  1  0
  8  9  1  0
  9 10  1  0
 10 11  1  0
 11 12  1  0
  4 13  1  0
 13 14  2  0
 14 15  1  0
 15 16  1  0
 16 17  2  0
 17 18  1  0
 18 19  2  0
 19 20  1  0
 20 21  2  0
 15  2  2  0
 21 16  1  0
 12  8  1  0
  1 22  1  0
  1 23  1  0
  1 24  1  0
  3 25  1  0
  7 26  1  0
  8 27  1  0
  9 28  1  0
  9 29  1  0
 10 30  1  0
 10 31  1  0
 11 32  1  0
 11 33  1  0
 12 34  1  0
 12 35  1  0
 17 36  1  0
 18 37  1  0
 19 38  1  0
 20 39  1  0
 21 40  1  0
M  END
>  <_SMILES>  (69) 
Cc1cc(C(=O)NC2CCCC2)nnc1-c1ccccc1

$$$$

     RDKit          3D

 46 48  0  0  0  0  0  0  0  0999 V2000
   -3.8799   -0.7965    2.4057 C   0  0  0  0  0  0  0  0  0  0  0  0
   -2.8130   -0.5125    1.3887 C   0  0  0  0  0  0  0  0  0  0  0  0
   -1.5652   -1.1357    1.5118 C   0  0  0  0  0  0  0  0  0  0  0  0
   -0.5846   -0.8577    0.5755 C   0  0  0  0  0  0  0  0  0  0  0  0
    0.7662   -1.4831    0.6657 C   0  0  0  0  0  0  0  0  0  0  0  0
    1.0537   -2.2288    1.5956 O   0  0  0  0  0  0  0  0  0  0  0  0
    1.6360   -1.1483   -0.3541 N   0  0  0  0  0  0  0  0  0  0  0  0
    3.0411   -1.5302   -0.3445 C   0  0  0  0  0  0  0  0  0  0  0  0
    3.8383   -0.6259    0.6166 C   0  0  0  0  0  0  0  0  0  0  0  0
    5.3001   -0.4131    0.2317 C   0  0  0  0  0  0  0  0  0  0  0  0
    5.5351    0.5239   -0.9612 C   0  0  0  0  0  0  0  0  0  0  0  0
    4.3169    0.8584   -1.8191 C   0  0  0  0  0  0  0  0  0  0  0  0
    3.6964   -0.3236   -2.5565 C   0  0  0  0  0  0  0  0  0  0  0  0
    3.5833   -1.6317   -1.7765 C   0  0  0  0  0  0  0  0  0  0  0  0
   -0.7905   -0.0046   -0.4531 N   0  0  0  0  0  0  0  0  0  0  0  0
   -2.0137    0.5976   -0.5869 N   0  0  0  0  0  0  0  0  0  0  0  0
   -3.0124    0.3447    0.2995 C   0  0  0  0  0  0  0  0  0  0  0  0
   -4.2709    1.0469    0.0156 C   0  0  0  0  0  0  0  0  0  0  0  0
   -5.4580    0.3457   -0.2568 C   0  0  0  0  0  0  0  0  0  0  0  0
   -6.6494    1.0254   -0.5241 C   0  0  0  0  0  0  0  0  0  0  0  0
   -6.6713    2.4180   -0.5311 C   0  0  0  0  0  0  0  0  0  0  0  0
   -5.5027    3.1319   -0.2780 C   0  0  0  0  0  0  0  0  0  0  0  0
   -4.3121    2.4513   -0.0110 C   0  0  0  0  0  0  0  0  0  0  0  0
   -4.6019   -1.5161    2.0082 H   0  0  0  0  0  0  0  0  0  0  0  0
   -3.4499   -1.2191    3.3205 H   0  0  0  0  0  0  0  0  0  0  0  0
   -4.3998    0.1215    2.6978 H   0  0  0  0  0  0  0  0  0  0  0  0
   -1.3552   -1.8214    2.3278 H   0  0  0  0  0  0  0  0  0  0  0  0
    1.3214   -0.4264   -0.9972 H   0  0  0  0  0  0  0  0  0  0  0  0
    3.0835   -2.5468    0.0701 H   0  0  0  0  0  0  0  0  0  0  0  0
    3.8075   -1.0873    1.6132 H   0  0  0  0  0  0  0  0  0  0  0  0
    3.3468    0.3464    0.7465 H   0  0  0  0  0  0  0  0  0  0  0  0
    5.8320    0.0026    1.0973 H   0  0  0  0  0  0  0  0  0  0  0  0
    5.7780   -1.3820    0.0416 H   0  0  0  0  0  0  0  0  0  0  0  0
    5.9341    1.4702   -0.5729 H   0  0  0  0  0  0  0  0  0  0  0  0
    6.3290    0.1067   -1.5929 H   0  0  0  0  0  0  0  0  0  0  0  0
    4.6123    1.6070   -2.5656 H   0  0  0  0  0  0  0  0  0  0  0  0
    3.5528    1.3534   -1.2086 H   0  0  0  0  0  0  0  0  0  0  0  0
    2.7026   -0.0247   -2.9126 H   0  0  0  0  0  0  0  0  0  0  0  0
    4.2866   -0.5230   -3.4603 H   0  0  0  0  0  0  0  0  0  0  0  0
    4.5676   -2.1158   -1.7562 H   0  0  0  0  0  0  0  0  0  0  0  0
    2.9426   -2.3127   -2.3530 H   0  0  0  0  0  0  0  0  0  0  0  0
   -5.4594   -0.7422   -0.2765 H   0  0  0  0  0  0  0  0  0  0  0  0
   -7.5579    0.4669   -0.7348 H   0  0  0  0  0  0  0  0  0  0  0  0
   -7.5968    2.9472   -0.7432 H   0  0  0  0  0  0  0  0  0  0  0  0
   -5.5140    4.2188   -0.2935 H   0  0  0  0  0  0  0  0  0  0  0  0
   -3.4053    3.0245    0.1760 H   0  0  0  0  0  0  0  0  0  0  0  0
  1  2  1  0
  2  3  1  0
  3  4  2  0
  4  5  1  0
  5  6  2  0
  5  7  1  0
  7  8  1  0
  8  9  1  0
  9 10  1  0
 10 11  1  0
 11 12  1  0
 12 13  1  0
 13 14  1  0
  4 15  1  0
 15 16  2  0
 16 17  1  0
 17 18  1  0
 18 19  2  0
 19 20  1  0
 20 21  2  0
 21 22  1  0
 22 23  2  0
 17  2  2  0
 23 18  1  0
 14  8  1  0
  1 24  1  0
  1 25  1  0
  1 26  1  0
  3 27  1  0
  7 28  1  0
  8 29  1  0
  9 30  1  0
  9 31  1  0
 10 32  1  0
 10 33  1  0
 11 34  1  0
 11 35  1  0
 12 36  1  0
 12 37  1  0
 13 38  1  0
 13 39  1  0
 14 40  1  0
 14 41  1  0
 19 42  1  0
 20 43  1  0
 21 44  1  0
 22 45  1  0
 23 46  1  0
M  END
>  <_SMILES>  (70) 
Cc1cc(C(=O)NC2CCCCCC2)nnc1-c1ccccc1

$$$$

     RDKit          3D

 46 48  0  0  0  0  0  0  0  0999 V2000
   -4.0503   -1.5876    1.8713 C   0  0  0  0  0  0  0  0  0  0  0  0
   -3.0299   -0.9254    0.9919 C   0  0  0  0  0  0  0  0  0  0  0  0
   -1.6739   -1.2265    1.1684 C   0  0  0  0  0  0  0  0  0  0  0  0
   -0.7401   -0.6016    0.3602 C   0  0  0  0  0  0  0  0  0  0  0  0
    0.7177   -0.8757    0.5137 C   0  0  0  0  0  0  0  0  0  0  0  0
    1.1268   -1.6327    1.3874 O   0  0  0  0  0  0  0  0  0  0  0  0
    1.5366   -0.2141   -0.3812 N   0  0  0  0  0  0  0  0  0  0  0  0
    2.9867   -0.2349   -0.2775 C   0  0  1  0  0  0  0  0  0  0  0  0
    3.6295   -0.0053   -1.6542 C   0  0  0  0  0  0  0  0  0  0  0  0
    4.9323    0.7957   -1.5995 C   0  0  0  0  0  0  0  0  0  0  0  0
    5.7823    0.4941   -0.3614 C   0  0  2  0  0  0  0  0  0  0  0  0
    6.3709   -0.9191   -0.4180 C   0  0  0  0  0  0  0  0  0  0  0  0
    4.9926    0.7214    0.9411 C   0  0  0  0  0  0  0  0  0  0  0  0
    3.4751    0.7862    0.7518 C   0  0  0  0  0  0  0  0  0  0  0  0
   -1.0929    0.2898   -0.5930 N   0  0  0  0  0  0  0  0  0  0  0  0
   -2.4191    0.5783   -0.7801 N   0  0  0  0  0  0  0  0  0  0  0  0
   -3.3736   -0.0211   -0.0205 C   0  0  0  0  0  0  0  0  0  0  0  0
   -4.7499    0.3727   -0.3495 C   0  0  0  0  0  0  0  0  0  0  0  0
   -5.6946   -0.5654   -0.7998 C   0  0  0  0  0  0  0  0  0  0  0  0
   -7.0015   -0.1784   -1.1084 C   0  0  0  0  0  0  0  0  0  0  0  0
   -7.3829    1.1548   -0.9791 C   0  0  0  0  0  0  0  0  0  0  0  0
   -6.4581    2.1028   -0.5484 C   0  0  0  0  0  0  0  0  0  0  0  0
   -5.1517    1.7149   -0.2403 C   0  0  0  0  0  0  0  0  0  0  0  0
   -4.5337   -2.4119    1.3385 H   0  0  0  0  0  0  0  0  0  0  0  0
   -3.5859   -1.9957    2.7758 H   0  0  0  0  0  0  0  0  0  0  0  0
   -4.8084   -0.8709    2.2034 H   0  0  0  0  0  0  0  0  0  0  0  0
   -1.3468   -1.9308    1.9281 H   0  0  0  0  0  0  0  0  0  0  0  0
    1.0896    0.4793   -0.9758 H   0  0  0  0  0  0  0  0  0  0  0  0
    3.2700   -1.2343    0.0771 H   0  0  0  0  0  0  0  0  0  0  0  0
    3.8164   -0.9819   -2.1191 H   0  0  0  0  0  0  0  0  0  0  0  0
    2.9395    0.5132   -2.3324 H   0  0  0  0  0  0  0  0  0  0  0  0
    5.5087    0.6197   -2.5157 H   0  0  0  0  0  0  0  0  0  0  0  0
    4.6857    1.8659   -1.5997 H   0  0  0  0  0  0  0  0  0  0  0  0
    6.6353    1.1857   -0.3621 H   0  0  0  0  0  0  0  0  0  0  0  0
    6.9405   -1.0645   -1.3420 H   0  0  0  0  0  0  0  0  0  0  0  0
    7.0550   -1.0839    0.4216 H   0  0  0  0  0  0  0  0  0  0  0  0
    5.5963   -1.6905   -0.3735 H   0  0  0  0  0  0  0  0  0  0  0  0
    5.2327   -0.0600    1.6729 H   0  0  0  0  0  0  0  0  0  0  0  0
    5.3170    1.6649    1.3982 H   0  0  0  0  0  0  0  0  0  0  0  0
    2.9858    0.6286    1.7208 H   0  0  0  0  0  0  0  0  0  0  0  0
    3.1876    1.7969    0.4324 H   0  0  0  0  0  0  0  0  0  0  0  0
   -5.4128   -1.6086   -0.9275 H   0  0  0  0  0  0  0  0  0  0  0  0
   -7.7186   -0.9172   -1.4573 H   0  0  0  0  0  0  0  0  0  0  0  0
   -8.3981    1.4570   -1.2230 H   0  0  0  0  0  0  0  0  0  0  0  0
   -6.7496    3.1460   -0.4570 H   0  0  0  0  0  0  0  0  0  0  0  0
   -4.4385    2.4700    0.0864 H   0  0  0  0  0  0  0  0  0  0  0  0
  1  2  1  0
  2  3  1  0
  3  4  2  0
  4  5  1  0
  5  6  2  0
  5  7  1  0
  7  8  1  0
  8  9  1  0
  9 10  1  0
 10 11  1  0
 11 12  1  0
 11 13  1  0
 13 14  1  0
  4 15  1  0
 15 16  2  0
 16 17  1  0
 17 18  1  0
 18 19  2  0
 19 20  1  0
 20 21  2  0
 21 22  1  0
 22 23  2  0
 17  2  2  0
 23 18  1  0
 14  8  1  0
  1 24  1  0
  1 25  1  0
  1 26  1  0
  3 27  1  0
  7 28  1  0
  8 29  1  1
  9 30  1  0
  9 31  1  0
 10 32  1  0
 10 33  1  0
 11 34  1  1
 12 35  1  0
 12 36  1  0
 12 37  1  0
 13 38  1  0
 13 39  1  0
 14 40  1  0
 14 41  1  0
 19 42  1  0
 20 43  1  0
 21 44  1  0
 22 45  1  0
 23 46  1  0
M  END
>  <_SMILES>  (71) 
Cc1cc(C(=O)N[C@H]2CC[C@H](C)CC2)nnc1-c1ccccc1

$$$$

     RDKit          3D

 49 53  0  0  0  0  0  0  0  0999 V2000
   -0.7236    0.1369   -1.8938 O   0  0  0  0  0  0  0  0  0  0  0  0
   -0.1862    0.1345   -0.7938 C   0  0  0  0  0  0  0  0  0  0  0  0
   -0.8625    0.2010    0.4083 N   0  0  0  0  0  0  0  0  0  0  0  0
   -2.3255    0.2400    0.5338 C   0  0  2  0  0  0  0  0  0  0  0  0
   -2.9373    1.4681   -0.1873 C   0  0  0  0  0  0  0  0  0  0  0  0
   -4.4636    1.5063    0.0077 C   0  0  1  0  0  0  0  0  0  0  0  0
   -5.0779    0.2138   -0.5565 C   0  0  0  0  0  0  0  0  0  0  0  0
   -4.5055   -1.0101    0.1789 C   0  0  2  0  0  0  0  0  0  0  0  0
   -4.8231   -0.8943    1.6781 C   0  0  0  0  0  0  0  0  0  0  0  0
   -4.2043    0.3917    2.2482 C   0  0  2  0  0  0  0  0  0  0  0  0
   -4.7824    1.6070    1.5073 C   0  0  0  0  0  0  0  0  0  0  0  0
   -2.6819    0.3530    2.0415 C   0  0  0  0  0  0  0  0  0  0  0  0
   -2.9795   -1.0513   -0.0164 C   0  0  0  0  0  0  0  0  0  0  0  0
    1.2890    0.0206   -0.7084 C   0  0  0  0  0  0  0  0  0  0  0  0
    2.0374    0.5070    0.3619 C   0  0  0  0  0  0  0  0  0  0  0  0
    3.4271    0.3564    0.3510 C   0  0  0  0  0  0  0  0  0  0  0  0
    4.0470   -0.2753   -0.7296 C   0  0  0  0  0  0  0  0  0  0  0  0
    5.5098   -0.4748   -0.8155 C   0  0  0  0  0  0  0  0  0  0  0  0
    6.3106   -0.6634    0.3268 C   0  0  0  0  0  0  0  0  0  0  0  0
    7.6945   -0.8451    0.2252 C   0  0  0  0  0  0  0  0  0  0  0  0
    8.3091   -0.8464   -1.0233 C   0  0  0  0  0  0  0  0  0  0  0  0
    7.5412   -0.6722   -2.1700 C   0  0  0  0  0  0  0  0  0  0  0  0
    6.1588   -0.4916   -2.0647 C   0  0  0  0  0  0  0  0  0  0  0  0
    3.3245   -0.7307   -1.7858 N   0  0  0  0  0  0  0  0  0  0  0  0
    1.9766   -0.5695   -1.7575 C   0  0  0  0  0  0  0  0  0  0  0  0
   -0.3501   -0.0520    1.2421 H   0  0  0  0  0  0  0  0  0  0  0  0
   -2.4878    2.3933    0.1966 H   0  0  0  0  0  0  0  0  0  0  0  0
   -2.7200    1.4447   -1.2611 H   0  0  0  0  0  0  0  0  0  0  0  0
   -4.8806    2.3732   -0.5169 H   0  0  0  0  0  0  0  0  0  0  0  0
   -4.8689    0.1371   -1.6307 H   0  0  0  0  0  0  0  0  0  0  0  0
   -6.1690    0.2395   -0.4458 H   0  0  0  0  0  0  0  0  0  0  0  0
   -4.9533   -1.9257   -0.2234 H   0  0  0  0  0  0  0  0  0  0  0  0
   -4.4315   -1.7683    2.2130 H   0  0  0  0  0  0  0  0  0  0  0  0
   -5.9092   -0.8875    1.8317 H   0  0  0  0  0  0  0  0  0  0  0  0
   -4.4308    0.4685    3.3175 H   0  0  0  0  0  0  0  0  0  0  0  0
   -5.8678    1.6564    1.6576 H   0  0  0  0  0  0  0  0  0  0  0  0
   -4.3615    2.5326    1.9189 H   0  0  0  0  0  0  0  0  0  0  0  0
   -2.2573   -0.4958    2.5943 H   0  0  0  0  0  0  0  0  0  0  0  0
   -2.2259    1.2556    2.4700 H   0  0  0  0  0  0  0  0  0  0  0  0
   -2.5618   -1.9312    0.4903 H   0  0  0  0  0  0  0  0  0  0  0  0
   -2.7581   -1.1781   -1.0828 H   0  0  0  0  0  0  0  0  0  0  0  0
    1.5694    1.0310    1.1892 H   0  0  0  0  0  0  0  0  0  0  0  0
    4.0114    0.7576    1.1730 H   0  0  0  0  0  0  0  0  0  0  0  0
    5.8645   -0.6920    1.3179 H   0  0  0  0  0  0  0  0  0  0  0  0
    8.2898   -0.9925    1.1226 H   0  0  0  0  0  0  0  0  0  0  0  0
    9.3832   -0.9900   -1.1037 H   0  0  0  0  0  0  0  0  0  0  0  0
    8.0119   -0.6790   -3.1496 H   0  0  0  0  0  0  0  0  0  0  0  0
    5.5772   -0.3601   -2.9766 H   0  0  0  0  0  0  0  0  0  0  0  0
    1.4539   -0.9488   -2.6327 H   0  0  0  0  0  0  0  0  0  0  0  0
  1  2  2  0
  2  3  1  0
  4  3  1  1
  4  5  1  0
  5  6  1  0
  6  7  1  0
  7  8  1  0
  8  9  1  0
  9 10  1  0
 10 11  1  0
 10 12  1  0
  8 13  1  0
  2 14  1  0
 14 15  2  0
 15 16  1  0
 16 17  2  0
 17 18  1  0
 18 19  2  0
 19 20  1  0
 20 21  2  0
 21 22  1  0
 22 23  2  0
 17 24  1  0
 24 25  2  0
 12  4  1  0
 25 14  1  0
 13  4  1  0
 23 18  1  0
 11  6  1  0
  3 26  1  0
  5 27  1  0
  5 28  1  0
  6 29  1  6
  7 30  1  0
  7 31  1  0
  8 32  1  6
  9 33  1  0
  9 34  1  0
 10 35  1  1
 11 36  1  0
 11 37  1  0
 12 38  1  0
 12 39  1  0
 13 40  1  0
 13 41  1  0
 15 42  1  0
 16 43  1  0
 19 44  1  0
 20 45  1  0
 21 46  1  0
 22 47  1  0
 23 48  1  0
 25 49  1  0
M  END
>  <_SMILES>  (72) 
O=C(N[C@]12C[C@H]3C[C@H](C[C@H](C3)C1)C2)c1ccc(-c2ccccc2)nc1

$$$$

     RDKit          3D

 57 61  0  0  0  0  0  0  0  0999 V2000
    3.7201    2.2101   -1.0014 C   0  0  0  0  0  0  0  0  0  0  0  0
    2.7255    1.2186   -0.4738 C   0  0  0  0  0  0  0  0  0  0  0  0
    1.3688    1.4516   -0.7421 C   0  0  0  0  0  0  0  0  0  0  0  0
    0.4260    0.5460   -0.2925 C   0  0  0  0  0  0  0  0  0  0  0  0
   -1.0294    0.7530   -0.5476 C   0  0  0  0  0  0  0  0  0  0  0  0
   -1.4178    1.7377   -1.1653 O   0  0  0  0  0  0  0  0  0  0  0  0
   -1.8525   -0.2326   -0.0400 N   0  0  0  0  0  0  0  0  0  0  0  0
   -3.3109   -0.2684   -0.1533 C   0  0  2  0  0  0  0  0  0  0  0  0
   -3.9671    0.9558    0.5320 C   0  0  0  0  0  0  0  0  0  0  0  0
   -5.5010    0.8692    0.4409 C   0  0  1  0  0  0  0  0  0  0  0  0
   -5.9182    0.8199   -1.0389 C   0  0  0  0  0  0  0  0  0  0  0  0
   -5.3012   -0.4124   -1.7223 C   0  0  2  0  0  0  0  0  0  0  0  0
   -5.7820   -1.6836   -1.0049 C   0  0  0  0  0  0  0  0  0  0  0  0
   -5.3604   -1.6438    0.4723 C   0  0  2  0  0  0  0  0  0  0  0  0
   -5.9806   -0.4095    1.1456 C   0  0  0  0  0  0  0  0  0  0  0  0
   -3.8288   -1.5479    0.5570 C   0  0  0  0  0  0  0  0  0  0  0  0
   -3.7673   -0.3265   -1.6322 C   0  0  0  0  0  0  0  0  0  0  0  0
    0.7697   -0.5640    0.3927 N   0  0  0  0  0  0  0  0  0  0  0  0
    2.0917   -0.8063    0.6453 N   0  0  0  0  0  0  0  0  0  0  0  0
    3.0609    0.0497    0.2211 C   0  0  0  0  0  0  0  0  0  0  0  0
    4.4638   -0.3886    0.5904 C   0  0  0  0  0  0  0  0  0  0  0  0
    5.0635    0.4497    1.7367 C   0  0  0  0  0  0  0  0  0  0  0  0
    6.5939    0.4807    1.7205 C   0  0  0  0  0  0  0  0  0  0  0  0
    7.1791   -0.8455    1.2524 C   0  0  0  0  0  0  0  0  0  0  0  0
    6.7389   -1.2064   -0.1685 C   0  0  0  0  0  0  0  0  0  0  0  0
    5.4267   -0.5399   -0.5945 C   0  0  0  0  0  0  0  0  0  0  0  0
    4.0948    1.8826   -1.9760 H   0  0  0  0  0  0  0  0  0  0  0  0
    4.5594    2.3553   -0.3181 H   0  0  0  0  0  0  0  0  0  0  0  0
    3.2588    3.1959   -1.1309 H   0  0  0  0  0  0  0  0  0  0  0  0
    1.0478    2.3304   -1.2949 H   0  0  0  0  0  0  0  0  0  0  0  0
   -1.3835   -0.9907    0.4499 H   0  0  0  0  0  0  0  0  0  0  0  0
   -3.6341    1.8906    0.0660 H   0  0  0  0  0  0  0  0  0  0  0  0
   -3.6578    1.0102    1.5841 H   0  0  0  0  0  0  0  0  0  0  0  0
   -5.9489    1.7459    0.9221 H   0  0  0  0  0  0  0  0  0  0  0  0
   -7.0117    0.7826   -1.1178 H   0  0  0  0  0  0  0  0  0  0  0  0
   -5.5933    1.7342   -1.5506 H   0  0  0  0  0  0  0  0  0  0  0  0
   -5.6076   -0.4439   -2.7738 H   0  0  0  0  0  0  0  0  0  0  0  0
   -6.8730   -1.7673   -1.0812 H   0  0  0  0  0  0  0  0  0  0  0  0
   -5.3598   -2.5713   -1.4918 H   0  0  0  0  0  0  0  0  0  0  0  0
   -5.7030   -2.5527    0.9792 H   0  0  0  0  0  0  0  0  0  0  0  0
   -5.7013   -0.3804    2.2060 H   0  0  0  0  0  0  0  0  0  0  0  0
   -7.0751   -0.4712    1.1062 H   0  0  0  0  0  0  0  0  0  0  0  0
   -3.5158   -1.5479    1.6097 H   0  0  0  0  0  0  0  0  0  0  0  0
   -3.3767   -2.4403    0.1036 H   0  0  0  0  0  0  0  0  0  0  0  0
   -3.4263    0.5586   -2.1822 H   0  0  0  0  0  0  0  0  0  0  0  0
   -3.3145   -1.1922   -2.1332 H   0  0  0  0  0  0  0  0  0  0  0  0
    4.3574   -1.4077    0.9961 H   0  0  0  0  0  0  0  0  0  0  0  0
    4.6930    1.4809    1.7368 H   0  0  0  0  0  0  0  0  0  0  0  0
    4.7225    0.0229    2.6897 H   0  0  0  0  0  0  0  0  0  0  0  0
    6.9652    0.7247    2.7223 H   0  0  0  0  0  0  0  0  0  0  0  0
    6.9361    1.2831    1.0550 H   0  0  0  0  0  0  0  0  0  0  0  0
    8.2736   -0.8148    1.3007 H   0  0  0  0  0  0  0  0  0  0  0  0
    6.8610   -1.6388    1.9408 H   0  0  0  0  0  0  0  0  0  0  0  0
    7.5230   -0.9241   -0.8817 H   0  0  0  0  0  0  0  0  0  0  0  0
    6.6413   -2.2965   -0.2405 H   0  0  0  0  0  0  0  0  0  0  0  0
    5.6702    0.4361   -1.0256 H   0  0  0  0  0  0  0  0  0  0  0  0
    4.9664   -1.1252   -1.3999 H   0  0  0  0  0  0  0  0  0  0  0  0
  1  2  1  0
  2  3  1  0
  3  4  2  0
  4  5  1  0
  5  6  2  0
  5  7  1  0
  8  7  1  6
  8  9  1  0
  9 10  1  0
 10 11  1  0
 11 12  1  0
 12 13  1  0
 13 14  1  0
 14 15  1  0
 14 16  1  0
 12 17  1  0
  4 18  1  0
 18 19  2  0
 19 20  1  0
 20 21  1  0
 21 22  1  0
 22 23  1  0
 23 24  1  0
 24 25  1  0
 25 26  1  0
 20  2  2  0
 26 21  1  0
 16  8  1  0
 17  8  1  0
 15 10  1  0
  1 27  1  0
  1 28  1  0
  1 29  1  0
  3 30  1  0
  7 31  1  0
  9 32  1  0
  9 33  1  0
 10 34  1  1
 11 35  1  0
 11 36  1  0
 12 37  1  6
 13 38  1  0
 13 39  1  0
 14 40  1  1
 15 41  1  0
 15 42  1  0
 16 43  1  0
 16 44  1  0
 17 45  1  0
 17 46  1  0
 21 47  1  0
 22 48  1  0
 22 49  1  0
 23 50  1  0
 23 51  1  0
 24 52  1  0
 24 53  1  0
 25 54  1  0
 25 55  1  0
 26 56  1  0
 26 57  1  0
M  END
>  <_SMILES>  (73) 
Cc1cc(C(=O)N[C@]23C[C@H]4C[C@H](C[C@H](C4)C2)C3)nnc1C1CCCCC1

$$$$

     RDKit          3D

 50 53  0  0  0  0  0  0  0  0999 V2000
    7.5139    1.0617    0.1267 C   0  0  0  0  0  0  0  0  0  0  0  0
    6.0574    0.8470   -0.2531 C   0  0  0  0  0  0  0  0  0  0  0  0
    5.4287   -0.2834    0.5626 C   0  0  0  0  0  0  0  0  0  0  0  0
    3.9840   -0.4955    0.1915 C   0  0  0  0  0  0  0  0  0  0  0  0
    3.0908    0.2753    0.8634 N   0  0  0  0  0  0  0  0  0  0  0  0
    1.7547    0.1775    0.5994 N   0  0  0  0  0  0  0  0  0  0  0  0
    1.3303   -0.6955   -0.3427 C   0  0  0  0  0  0  0  0  0  0  0  0
   -0.1417   -0.7569   -0.5814 C   0  0  0  0  0  0  0  0  0  0  0  0
   -0.6037   -1.5233   -1.4187 O   0  0  0  0  0  0  0  0  0  0  0  0
   -0.8916    0.0982    0.2013 N   0  0  0  0  0  0  0  0  0  0  0  0
   -2.3482    0.2328    0.1640 C   0  0  2  0  0  0  0  0  0  0  0  0
   -2.7708    1.3033    1.2057 C   0  0  0  0  0  0  0  0  0  0  0  0
   -4.2961    1.4915    1.2150 C   0  0  1  0  0  0  0  0  0  0  0  0
   -4.7571    1.9393   -0.1808 C   0  0  0  0  0  0  0  0  0  0  0  0
   -4.3713    0.8804   -1.2257 C   0  0  2  0  0  0  0  0  0  0  0  0
   -5.0383   -0.4573   -0.8625 C   0  0  0  0  0  0  0  0  0  0  0  0
   -4.5821   -0.9147    0.5335 C   0  0  2  0  0  0  0  0  0  0  0  0
   -4.9667    0.1547    1.5681 C   0  0  0  0  0  0  0  0  0  0  0  0
   -3.0538   -1.0957    0.5329 C   0  0  0  0  0  0  0  0  0  0  0  0
   -2.8429    0.7003   -1.2272 C   0  0  0  0  0  0  0  0  0  0  0  0
    2.2042   -1.4971   -1.0562 C   0  0  0  0  0  0  0  0  0  0  0  0
    3.5740   -1.3979   -0.7950 C   0  0  0  0  0  0  0  0  0  0  0  0
    4.5380   -2.2652   -1.5486 C   0  0  0  0  0  0  0  0  0  0  0  0
    8.1043    0.1586   -0.0580 H   0  0  0  0  0  0  0  0  0  0  0  0
    7.6088    1.3248    1.1850 H   0  0  0  0  0  0  0  0  0  0  0  0
    7.9439    1.8755   -0.4655 H   0  0  0  0  0  0  0  0  0  0  0  0
    5.9955    0.6244   -1.3248 H   0  0  0  0  0  0  0  0  0  0  0  0
    5.5031    1.7799   -0.0926 H   0  0  0  0  0  0  0  0  0  0  0  0
    5.4815   -0.0367    1.6310 H   0  0  0  0  0  0  0  0  0  0  0  0
    5.9985   -1.2117    0.4431 H   0  0  0  0  0  0  0  0  0  0  0  0
   -0.3659    0.6756    0.8533 H   0  0  0  0  0  0  0  0  0  0  0  0
   -2.2813    2.2608    0.9825 H   0  0  0  0  0  0  0  0  0  0  0  0
   -2.4281    1.0109    2.2074 H   0  0  0  0  0  0  0  0  0  0  0  0
   -4.5710    2.2502    1.9562 H   0  0  0  0  0  0  0  0  0  0  0  0
   -5.8433    2.0924   -0.1857 H   0  0  0  0  0  0  0  0  0  0  0  0
   -4.2987    2.9026   -0.4363 H   0  0  0  0  0  0  0  0  0  0  0  0
   -4.7056    1.2025   -2.2182 H   0  0  0  0  0  0  0  0  0  0  0  0
   -6.1296   -0.3480   -0.8818 H   0  0  0  0  0  0  0  0  0  0  0  0
   -4.7815   -1.2190   -1.6089 H   0  0  0  0  0  0  0  0  0  0  0  0
   -5.0658   -1.8645    0.7875 H   0  0  0  0  0  0  0  0  0  0  0  0
   -4.6591   -0.1660    2.5710 H   0  0  0  0  0  0  0  0  0  0  0  0
   -6.0565    0.2771    1.5933 H   0  0  0  0  0  0  0  0  0  0  0  0
   -2.7180   -1.4401    1.5198 H   0  0  0  0  0  0  0  0  0  0  0  0
   -2.7887   -1.8897   -0.1753 H   0  0  0  0  0  0  0  0  0  0  0  0
   -2.5696   -0.0240   -2.0037 H   0  0  0  0  0  0  0  0  0  0  0  0
   -2.3557    1.6446   -1.5033 H   0  0  0  0  0  0  0  0  0  0  0  0
    1.8191   -2.1853   -1.8031 H   0  0  0  0  0  0  0  0  0  0  0  0
    4.9892   -3.0018   -0.8764 H   0  0  0  0  0  0  0  0  0  0  0  0
    4.0380   -2.8122   -2.3553 H   0  0  0  0  0  0  0  0  0  0  0  0
    5.3251   -1.6607   -2.0091 H   0  0  0  0  0  0  0  0  0  0  0  0
  1  2  1  0
  2  3  1  0
  3  4  1  0
  4  5  1  0
  5  6  2  0
  6  7  1  0
  7  8  1  0
  8  9  2  0
  8 10  1  0
 11 10  1  6
 11 12  1  0
 12 13  1  0
 13 14  1  0
 14 15  1  0
 15 16  1  0
 16 17  1  0
 17 18  1  0
 17 19  1  0
 15 20  1  0
  7 21  2  0
 21 22  1  0
 22 23  1  0
 22  4  2  0
 19 11  1  0
 20 11  1  0
 18 13  1  0
  1 24  1  0
  1 25  1  0
  1 26  1  0
  2 27  1  0
  2 28  1  0
  3 29  1  0
  3 30  1  0
 10 31  1  0
 12 32  1  0
 12 33  1  0
 13 34  1  1
 14 35  1  0
 14 36  1  0
 15 37  1  6
 16 38  1  0
 16 39  1  0
 17 40  1  1
 18 41  1  0
 18 42  1  0
 19 43  1  0
 19 44  1  0
 20 45  1  0
 20 46  1  0
 21 47  1  0
 23 48  1  0
 23 49  1  0
 23 50  1  0
M  END
>  <_SMILES>  (74) 
CCCc1nnc(C(=O)N[C@]23C[C@H]4C[C@H](C[C@H](C4)C2)C3)cc1C

$$$$

     RDKit          3D

 47 50  0  0  0  0  0  0  0  0999 V2000
    6.5189   -1.2028   -0.2217 C   0  0  0  0  0  0  0  0  0  0  0  0
    5.9398    0.1297   -0.6718 C   0  0  0  0  0  0  0  0  0  0  0  0
    4.5087    0.2910   -0.2327 C   0  0  0  0  0  0  0  0  0  0  0  0
    3.5786   -0.2187   -1.0803 N   0  0  0  0  0  0  0  0  0  0  0  0
    2.2491   -0.1412   -0.7782 N   0  0  0  0  0  0  0  0  0  0  0  0
    1.8685    0.4475    0.3786 C   0  0  0  0  0  0  0  0  0  0  0  0
    0.4017    0.5031    0.6484 C   0  0  0  0  0  0  0  0  0  0  0  0
   -0.0219    1.0211    1.6752 O   0  0  0  0  0  0  0  0  0  0  0  0
   -0.3895   -0.0622   -0.3318 N   0  0  0  0  0  0  0  0  0  0  0  0
   -1.8507   -0.1381   -0.3107 C   0  0  2  0  0  0  0  0  0  0  0  0
   -2.4950    1.2700   -0.2783 C   0  0  0  0  0  0  0  0  0  0  0  0
   -4.0300    1.1635   -0.3056 C   0  0  1  0  0  0  0  0  0  0  0  0
   -4.4669    0.4480   -1.5936 C   0  0  0  0  0  0  0  0  0  0  0  0
   -3.8581   -0.9621   -1.6429 C   0  0  2  0  0  0  0  0  0  0  0  0
   -4.3352   -1.7656   -0.4230 C   0  0  0  0  0  0  0  0  0  0  0  0
   -3.8975   -1.0630    0.8719 C   0  0  2  0  0  0  0  0  0  0  0  0
   -4.5028    0.3506    0.9117 C   0  0  0  0  0  0  0  0  0  0  0  0
   -2.3624   -0.9576    0.8998 C   0  0  0  0  0  0  0  0  0  0  0  0
   -2.3256   -0.8509   -1.6052 C   0  0  0  0  0  0  0  0  0  0  0  0
    2.7807    0.9758    1.2752 C   0  0  0  0  0  0  0  0  0  0  0  0
    4.1437    0.8949    0.9746 C   0  0  0  0  0  0  0  0  0  0  0  0
    5.1491    1.4706    1.9272 C   0  0  0  0  0  0  0  0  0  0  0  0
    7.5534   -1.3011   -0.5656 H   0  0  0  0  0  0  0  0  0  0  0  0
    6.5139   -1.2942    0.8693 H   0  0  0  0  0  0  0  0  0  0  0  0
    5.9450   -2.0419   -0.6299 H   0  0  0  0  0  0  0  0  0  0  0  0
    6.5575    0.9559   -0.3042 H   0  0  0  0  0  0  0  0  0  0  0  0
    5.9821    0.1871   -1.7666 H   0  0  0  0  0  0  0  0  0  0  0  0
    0.1069   -0.4542   -1.1285 H   0  0  0  0  0  0  0  0  0  0  0  0
   -2.1912    1.8191    0.6208 H   0  0  0  0  0  0  0  0  0  0  0  0
   -2.1464    1.8643   -1.1332 H   0  0  0  0  0  0  0  0  0  0  0  0
   -4.4698    2.1666   -0.2734 H   0  0  0  0  0  0  0  0  0  0  0  0
   -4.1478    1.0254   -2.4700 H   0  0  0  0  0  0  0  0  0  0  0  0
   -5.5613    0.3854   -1.6350 H   0  0  0  0  0  0  0  0  0  0  0  0
   -4.1701   -1.4675   -2.5636 H   0  0  0  0  0  0  0  0  0  0  0  0
   -3.9212   -2.7808   -0.4571 H   0  0  0  0  0  0  0  0  0  0  0  0
   -5.4273   -1.8662   -0.4442 H   0  0  0  0  0  0  0  0  0  0  0  0
   -4.2434   -1.6376    1.7384 H   0  0  0  0  0  0  0  0  0  0  0  0
   -5.5979    0.2881    0.9168 H   0  0  0  0  0  0  0  0  0  0  0  0
   -4.2087    0.8582    1.8385 H   0  0  0  0  0  0  0  0  0  0  0  0
   -1.9187   -1.9619    0.8903 H   0  0  0  0  0  0  0  0  0  0  0  0
   -2.0535   -0.4951    1.8446 H   0  0  0  0  0  0  0  0  0  0  0  0
   -1.8804   -1.8530   -1.6692 H   0  0  0  0  0  0  0  0  0  0  0  0
   -1.9727   -0.3027   -2.4891 H   0  0  0  0  0  0  0  0  0  0  0  0
    2.4303    1.4408    2.1920 H   0  0  0  0  0  0  0  0  0  0  0  0
    4.6766    1.7932    2.8613 H   0  0  0  0  0  0  0  0  0  0  0  0
    5.6359    2.3437    1.4815 H   0  0  0  0  0  0  0  0  0  0  0  0
    5.9055    0.7248    2.1896 H   0  0  0  0  0  0  0  0  0  0  0  0
  1  2  1  0
  2  3  1  0
  3  4  1  0
  4  5  2  0
  5  6  1  0
  6  7  1  0
  7  8  2  0
  7  9  1  0
 10  9  1  6
 10 11  1  0
 11 12  1  0
 12 13  1  0
 13 14  1  0
 14 15  1  0
 15 16  1  0
 16 17  1  0
 16 18  1  0
 14 19  1  0
  6 20  2  0
 20 21  1  0
 21 22  1  0
 21  3  2  0
 18 10  1  0
 19 10  1  0
 17 12  1  0
  1 23  1  0
  1 24  1  0
  1 25  1  0
  2 26  1  0
  2 27  1  0
  9 28  1  0
 11 29  1  0
 11 30  1  0
 12 31  1  1
 13 32  1  0
 13 33  1  0
 14 34  1  6
 15 35  1  0
 15 36  1  0
 16 37  1  1
 17 38  1  0
 17 39  1  0
 18 40  1  0
 18 41  1  0
 19 42  1  0
 19 43  1  0
 20 44  1  0
 22 45  1  0
 22 46  1  0
 22 47  1  0
M  END
>  <_SMILES>  (75) 
CCc1nnc(C(=O)N[C@]23C[C@H]4C[C@H](C[C@H](C4)C2)C3)cc1C

$$$$

     RDKit          3D

 48 52  0  0  0  0  0  0  0  0999 V2000
    4.8464    1.2814    2.1269 C   0  0  0  0  0  0  0  0  0  0  0  0
    3.8612    0.6711    1.1751 C   0  0  0  0  0  0  0  0  0  0  0  0
    2.4914    0.8839    1.3830 C   0  0  0  0  0  0  0  0  0  0  0  0
    1.5818    0.3110    0.5095 C   0  0  0  0  0  0  0  0  0  0  0  0
    0.1129    0.5014    0.6893 C   0  0  0  0  0  0  0  0  0  0  0  0
   -0.3144    1.1804    1.6157 O   0  0  0  0  0  0  0  0  0  0  0  0
   -0.6735   -0.1351   -0.2498 N   0  0  0  0  0  0  0  0  0  0  0  0
   -2.1361   -0.1122   -0.2944 C   0  0  2  0  0  0  0  0  0  0  0  0
   -2.6793    1.3270   -0.4754 C   0  0  0  0  0  0  0  0  0  0  0  0
   -4.2155    1.3179   -0.5675 C   0  0  1  0  0  0  0  0  0  0  0  0
   -4.6472    0.4698   -1.7742 C   0  0  0  0  0  0  0  0  0  0  0  0
   -4.1387   -0.9712   -1.6115 C   0  0  2  0  0  0  0  0  0  0  0  0
   -4.7230   -1.5751   -0.3250 C   0  0  0  0  0  0  0  0  0  0  0  0
   -4.2918   -0.7390    0.8902 C   0  0  2  0  0  0  0  0  0  0  0  0
   -4.7961    0.7040    0.7179 C   0  0  0  0  0  0  0  0  0  0  0  0
   -2.7557   -0.7309    0.9831 C   0  0  0  0  0  0  0  0  0  0  0  0
   -2.6052   -0.9560   -1.5099 C   0  0  0  0  0  0  0  0  0  0  0  0
    1.9718   -0.4440   -0.5416 N   0  0  0  0  0  0  0  0  0  0  0  0
    3.3101   -0.6474   -0.7581 N   0  0  0  0  0  0  0  0  0  0  0  0
    4.2363   -0.1002    0.0715 C   0  0  0  0  0  0  0  0  0  0  0  0
    5.6146   -0.3755   -0.3128 C   0  0  0  0  0  0  0  0  0  0  0  0
    6.7883    0.3554   -0.3372 C   0  0  0  0  0  0  0  0  0  0  0  0
    7.7996   -0.5091   -0.8250 C   0  0  0  0  0  0  0  0  0  0  0  0
    7.1852   -1.7128   -1.0716 C   0  0  0  0  0  0  0  0  0  0  0  0
    5.8652   -1.6428   -0.7658 O   0  0  0  0  0  0  0  0  0  0  0  0
    5.3184    2.1586    1.6744 H   0  0  0  0  0  0  0  0  0  0  0  0
    4.3558    1.6048    3.0517 H   0  0  0  0  0  0  0  0  0  0  0  0
    5.6135    0.5561    2.4163 H   0  0  0  0  0  0  0  0  0  0  0  0
    2.1340    1.4818    2.2170 H   0  0  0  0  0  0  0  0  0  0  0  0
   -0.1743   -0.6684   -0.9580 H   0  0  0  0  0  0  0  0  0  0  0  0
   -2.2534    1.7802   -1.3802 H   0  0  0  0  0  0  0  0  0  0  0  0
   -2.3758    1.9682    0.3605 H   0  0  0  0  0  0  0  0  0  0  0  0
   -4.5838    2.3431   -0.6864 H   0  0  0  0  0  0  0  0  0  0  0  0
   -5.7406    0.4736   -1.8632 H   0  0  0  0  0  0  0  0  0  0  0  0
   -4.2509    0.9053   -2.6997 H   0  0  0  0  0  0  0  0  0  0  0  0
   -4.4466   -1.5716   -2.4748 H   0  0  0  0  0  0  0  0  0  0  0  0
   -4.3813   -2.6109   -0.2078 H   0  0  0  0  0  0  0  0  0  0  0  0
   -5.8177   -1.6064   -0.3891 H   0  0  0  0  0  0  0  0  0  0  0  0
   -4.7142   -1.1713    1.8042 H   0  0  0  0  0  0  0  0  0  0  0  0
   -4.5062    1.3086    1.5860 H   0  0  0  0  0  0  0  0  0  0  0  0
   -5.8922    0.7141    0.6748 H   0  0  0  0  0  0  0  0  0  0  0  0
   -2.4548   -0.1695    1.8755 H   0  0  0  0  0  0  0  0  0  0  0  0
   -2.3846   -1.7545    1.1249 H   0  0  0  0  0  0  0  0  0  0  0  0
   -2.1770   -0.5523   -2.4373 H   0  0  0  0  0  0  0  0  0  0  0  0
   -2.2302   -1.9846   -1.4224 H   0  0  0  0  0  0  0  0  0  0  0  0
    6.9034    1.3917   -0.0536 H   0  0  0  0  0  0  0  0  0  0  0  0
    8.8442   -0.2817   -0.9847 H   0  0  0  0  0  0  0  0  0  0  0  0
    7.5260   -2.6670   -1.4489 H   0  0  0  0  0  0  0  0  0  0  0  0
  1  2  1  0
  2  3  1  0
  3  4  2  0
  4  5  1  0
  5  6  2  0
  5  7  1  0
  8  7  1  1
  8  9  1  0
  9 10  1  0
 10 11  1  0
 11 12  1  0
 12 13  1  0
 13 14  1  0
 14 15  1  0
 14 16  1  0
 12 17  1  0
  4 18  1  0
 18 19  2  0
 19 20  1  0
 20 21  1  0
 21 22  2  0
 22 23  1  0
 23 24  2  0
 24 25  1  0
 20  2  2  0
 25 21  1  0
 16  8  1  0
 17  8  1  0
 15 10  1  0
  1 26  1  0
  1 27  1  0
  1 28  1  0
  3 29  1  0
  7 30  1  0
  9 31  1  0
  9 32  1  0
 10 33  1  6
 11 34  1  0
 11 35  1  0
 12 36  1  6
 13 37  1  0
 13 38  1  0
 14 39  1  1
 15 40  1  0
 15 41  1  0
 16 42  1  0
 16 43  1  0
 17 44  1  0
 17 45  1  0
 22 46  1  0
 23 47  1  0
 24 48  1  0
M  END
>  <_SMILES>  (76) 
Cc1cc(C(=O)N[C@]23C[C@H]4C[C@H](C[C@H](C4)C2)C3)nnc1-c1ccco1

$$$$

     RDKit          3D

 53 56  0  0  0  0  0  0  0  0999 V2000
    7.3262   -1.2182   -2.0051 C   0  0  0  0  0  0  0  0  0  0  0  0
    6.9914   -1.4605   -0.5415 C   0  0  0  0  0  0  0  0  0  0  0  0
    5.5049   -1.2929   -0.2193 C   0  0  0  0  0  0  0  0  0  0  0  0
    5.0039    0.1413   -0.4086 C   0  0  0  0  0  0  0  0  0  0  0  0
    3.5686    0.2844    0.0297 C   0  0  0  0  0  0  0  0  0  0  0  0
    2.6388   -0.0092   -0.9152 N   0  0  0  0  0  0  0  0  0  0  0  0
    1.3070    0.0732   -0.6255 N   0  0  0  0  0  0  0  0  0  0  0  0
    0.9238    0.4484    0.6164 C   0  0  0  0  0  0  0  0  0  0  0  0
   -0.5455    0.5222    0.8678 C   0  0  0  0  0  0  0  0  0  0  0  0
   -0.9716    0.8548    1.9677 O   0  0  0  0  0  0  0  0  0  0  0  0
   -1.3358    0.1928   -0.2154 N   0  0  0  0  0  0  0  0  0  0  0  0
   -2.7990    0.1849   -0.2332 C   0  0  2  0  0  0  0  0  0  0  0  0
   -3.2720   -0.2444   -1.6479 C   0  0  0  0  0  0  0  0  0  0  0  0
   -4.8064   -0.2724   -1.7313 C   0  0  1  0  0  0  0  0  0  0  0  0
   -5.3493   -1.2697   -0.6959 C   0  0  0  0  0  0  0  0  0  0  0  0
   -4.9139   -0.8489    0.7165 C   0  0  2  0  0  0  0  0  0  0  0  0
   -5.4570    0.5587    1.0165 C   0  0  0  0  0  0  0  0  0  0  0  0
   -4.9182    1.5651   -0.0146 C   0  0  2  0  0  0  0  0  0  0  0  0
   -5.3535    1.1301   -1.4228 C   0  0  0  0  0  0  0  0  0  0  0  0
   -3.3811    1.5903    0.0578 C   0  0  0  0  0  0  0  0  0  0  0  0
   -3.3769   -0.8248    0.7893 C   0  0  0  0  0  0  0  0  0  0  0  0
    1.8355    0.7514    1.6125 C   0  0  0  0  0  0  0  0  0  0  0  0
    3.2006    0.6633    1.3245 C   0  0  0  0  0  0  0  0  0  0  0  0
    4.2063    0.9974    2.3858 C   0  0  0  0  0  0  0  0  0  0  0  0
    6.7212   -1.8555   -2.6576 H   0  0  0  0  0  0  0  0  0  0  0  0
    8.3806   -1.4464   -2.1916 H   0  0  0  0  0  0  0  0  0  0  0  0
    7.1591   -0.1747   -2.2875 H   0  0  0  0  0  0  0  0  0  0  0  0
    7.2900   -2.4829   -0.2807 H   0  0  0  0  0  0  0  0  0  0  0  0
    7.5871   -0.7871    0.0856 H   0  0  0  0  0  0  0  0  0  0  0  0
    5.3445   -1.6050    0.8204 H   0  0  0  0  0  0  0  0  0  0  0  0
    4.9148   -1.9797   -0.8396 H   0  0  0  0  0  0  0  0  0  0  0  0
    5.0655    0.4227   -1.4669 H   0  0  0  0  0  0  0  0  0  0  0  0
    5.6436    0.8503    0.1283 H   0  0  0  0  0  0  0  0  0  0  0  0
   -0.8372   -0.0635   -1.0642 H   0  0  0  0  0  0  0  0  0  0  0  0
   -2.8700   -1.2361   -1.8954 H   0  0  0  0  0  0  0  0  0  0  0  0
   -2.8730    0.4446   -2.4044 H   0  0  0  0  0  0  0  0  0  0  0  0
   -5.1171   -0.5774   -2.7368 H   0  0  0  0  0  0  0  0  0  0  0  0
   -4.9798   -2.2786   -0.9172 H   0  0  0  0  0  0  0  0  0  0  0  0
   -6.4439   -1.3117   -0.7540 H   0  0  0  0  0  0  0  0  0  0  0  0
   -5.3067   -1.5607    1.4511 H   0  0  0  0  0  0  0  0  0  0  0  0
   -5.1643    0.8656    2.0282 H   0  0  0  0  0  0  0  0  0  0  0  0
   -6.5536    0.5493    0.9916 H   0  0  0  0  0  0  0  0  0  0  0  0
   -5.3139    2.5637    0.2020 H   0  0  0  0  0  0  0  0  0  0  0  0
   -4.9871    1.8479   -2.1669 H   0  0  0  0  0  0  0  0  0  0  0  0
   -6.4482    1.1294   -1.4933 H   0  0  0  0  0  0  0  0  0  0  0  0
   -2.9851    2.3192   -0.6615 H   0  0  0  0  0  0  0  0  0  0  0  0
   -3.0762    1.9426    1.0503 H   0  0  0  0  0  0  0  0  0  0  0  0
   -2.9779   -1.8290    0.5949 H   0  0  0  0  0  0  0  0  0  0  0  0
   -3.0718   -0.5662    1.8102 H   0  0  0  0  0  0  0  0  0  0  0  0
    1.4828    1.0495    2.5956 H   0  0  0  0  0  0  0  0  0  0  0  0
    4.7348    1.9207    2.1287 H   0  0  0  0  0  0  0  0  0  0  0  0
    4.9288    0.1843    2.5052 H   0  0  0  0  0  0  0  0  0  0  0  0
    3.7263    1.1475    3.3590 H   0  0  0  0  0  0  0  0  0  0  0  0
  1  2  1  0
  2  3  1  0
  3  4  1  0
  4  5  1  0
  5  6  1  0
  6  7  2  0
  7  8  1  0
  8  9  1  0
  9 10  2  0
  9 11  1  0
 12 11  1  6
 12 13  1  0
 13 14  1  0
 14 15  1  0
 15 16  1  0
 16 17  1  0
 17 18  1  0
 18 19  1  0
 18 20  1  0
 16 21  1  0
  8 22  2  0
 22 23  1  0
 23 24  1  0
 23  5  2  0
 20 12  1  0
 21 12  1  0
 19 14  1  0
  1 25  1  0
  1 26  1  0
  1 27  1  0
  2 28  1  0
  2 29  1  0
  3 30  1  0
  3 31  1  0
  4 32  1  0
  4 33  1  0
 11 34  1  0
 13 35  1  0
 13 36  1  0
 14 37  1  6
 15 38  1  0
 15 39  1  0
 16 40  1  1
 17 41  1  0
 17 42  1  0
 18 43  1  1
 19 44  1  0
 19 45  1  0
 20 46  1  0
 20 47  1  0
 21 48  1  0
 21 49  1  0
 22 50  1  0
 24 51  1  0
 24 52  1  0
 24 53  1  0
M  END
>  <_SMILES>  (77) 
CCCCc1nnc(C(=O)N[C@]23C[C@H]4C[C@H](C[C@H](C4)C2)C3)cc1C

$$$$

     RDKit          3D

 62 66  0  0  0  0  0  0  0  0999 V2000
    4.5996   -1.9760   -2.5857 C   0  0  0  0  0  0  0  0  0  0  0  0
    4.1418   -3.2364   -1.8661 C   0  0  0  0  0  0  0  0  0  0  0  0
    3.7256   -2.9963   -0.4128 C   0  0  0  0  0  0  0  0  0  0  0  0
    2.4572   -2.2154   -0.2922 C   0  0  0  0  0  0  0  0  0  0  0  0
    1.1548   -2.6465   -0.4447 C   0  0  0  0  0  0  0  0  0  0  0  0
    0.3380   -1.5209   -0.1950 C   0  0  0  0  0  0  0  0  0  0  0  0
   -1.1329   -1.4625   -0.2294 C   0  0  0  0  0  0  0  0  0  0  0  0
   -1.8280   -2.4370   -0.4946 O   0  0  0  0  0  0  0  0  0  0  0  0
   -1.6195   -0.2078    0.0661 N   0  0  0  0  0  0  0  0  0  0  0  0
   -3.0232    0.1843    0.1192 C   0  0  2  0  0  0  0  0  0  0  0  0
   -3.1007    1.6894    0.4892 C   0  0  0  0  0  0  0  0  0  0  0  0
   -4.5607    2.1645    0.5612 C   0  0  1  0  0  0  0  0  0  0  0  0
   -5.2292    1.9478   -0.8054 C   0  0  0  0  0  0  0  0  0  0  0  0
   -5.1865    0.4580   -1.1802 C   0  0  2  0  0  0  0  0  0  0  0  0
   -5.9257   -0.3570   -0.1053 C   0  0  0  0  0  0  0  0  0  0  0  0
   -5.2629   -0.1476    1.2669 C   0  0  2  0  0  0  0  0  0  0  0  0
   -5.3051    1.3457    1.6276 C   0  0  0  0  0  0  0  0  0  0  0  0
   -3.7976   -0.6130    1.1977 C   0  0  0  0  0  0  0  0  0  0  0  0
   -3.7212   -0.0073   -1.2499 C   0  0  0  0  0  0  0  0  0  0  0  0
    1.0877   -0.4413    0.1018 N   0  0  0  0  0  0  0  0  0  0  0  0
    2.3641   -0.8795    0.0222 N   0  0  0  0  0  0  0  0  0  0  0  0
    3.4472    0.0637    0.2973 C   0  0  0  0  0  0  0  0  0  0  0  0
    3.3087    1.3674   -0.5077 C   0  0  0  0  0  0  0  0  0  0  0  0
    4.4537    2.3310   -0.2033 C   0  0  0  0  0  0  0  0  0  0  0  0
    4.5681    2.6109    1.2927 C   0  0  0  0  0  0  0  0  0  0  0  0
    4.7002    1.3225    2.1000 C   0  0  0  0  0  0  0  0  0  0  0  0
    3.5627    0.3482    1.8016 C   0  0  0  0  0  0  0  0  0  0  0  0
    3.7853   -1.2522   -2.6841 H   0  0  0  0  0  0  0  0  0  0  0  0
    5.4279   -1.4982   -2.0534 H   0  0  0  0  0  0  0  0  0  0  0  0
    4.9462   -2.2248   -3.5939 H   0  0  0  0  0  0  0  0  0  0  0  0
    4.9687   -3.9569   -1.8749 H   0  0  0  0  0  0  0  0  0  0  0  0
    3.3189   -3.6935   -2.4288 H   0  0  0  0  0  0  0  0  0  0  0  0
    3.5636   -3.9741    0.0603 H   0  0  0  0  0  0  0  0  0  0  0  0
    4.5446   -2.5346    0.1479 H   0  0  0  0  0  0  0  0  0  0  0  0
    0.8221   -3.6446   -0.6967 H   0  0  0  0  0  0  0  0  0  0  0  0
   -0.8905    0.4752    0.2627 H   0  0  0  0  0  0  0  0  0  0  0  0
   -2.5527    2.2886   -0.2504 H   0  0  0  0  0  0  0  0  0  0  0  0
   -2.6059    1.8670    1.4535 H   0  0  0  0  0  0  0  0  0  0  0  0
   -4.5915    3.2279    0.8234 H   0  0  0  0  0  0  0  0  0  0  0  0
   -4.7171    2.5422   -1.5721 H   0  0  0  0  0  0  0  0  0  0  0  0
   -6.2687    2.2968   -0.7737 H   0  0  0  0  0  0  0  0  0  0  0  0
   -5.6676    0.3084   -2.1533 H   0  0  0  0  0  0  0  0  0  0  0  0
   -6.9783   -0.0510   -0.0624 H   0  0  0  0  0  0  0  0  0  0  0  0
   -5.9143   -1.4218   -0.3685 H   0  0  0  0  0  0  0  0  0  0  0  0
   -5.7980   -0.7263    2.0280 H   0  0  0  0  0  0  0  0  0  0  0  0
   -4.8475    1.5069    2.6114 H   0  0  0  0  0  0  0  0  0  0  0  0
   -6.3459    1.6843    1.7012 H   0  0  0  0  0  0  0  0  0  0  0  0
   -3.3188   -0.4861    2.1776 H   0  0  0  0  0  0  0  0  0  0  0  0
   -3.7735   -1.6878    0.9818 H   0  0  0  0  0  0  0  0  0  0  0  0
   -3.1875    0.5546   -2.0277 H   0  0  0  0  0  0  0  0  0  0  0  0
   -3.6944   -1.0591   -1.5587 H   0  0  0  0  0  0  0  0  0  0  0  0
    4.3755   -0.4152   -0.0307 H   0  0  0  0  0  0  0  0  0  0  0  0
    3.2919    1.1460   -1.5817 H   0  0  0  0  0  0  0  0  0  0  0  0
    2.3578    1.8640   -0.2758 H   0  0  0  0  0  0  0  0  0  0  0  0
    4.2968    3.2716   -0.7432 H   0  0  0  0  0  0  0  0  0  0  0  0
    5.3963    1.9057   -0.5692 H   0  0  0  0  0  0  0  0  0  0  0  0
    5.4348    3.2543    1.4817 H   0  0  0  0  0  0  0  0  0  0  0  0
    3.6813    3.1622    1.6291 H   0  0  0  0  0  0  0  0  0  0  0  0
    5.6595    0.8438    1.8677 H   0  0  0  0  0  0  0  0  0  0  0  0
    4.7121    1.5578    3.1701 H   0  0  0  0  0  0  0  0  0  0  0  0
    3.7312   -0.5868    2.3501 H   0  0  0  0  0  0  0  0  0  0  0  0
    2.6213    0.7664    2.1814 H   0  0  0  0  0  0  0  0  0  0  0  0
  1  2  1  0
  2  3  1  0
  3  4  1  0
  4  5  2  0
  5  6  1  0
  6  7  1  0
  7  8  2  0
  7  9  1  0
 10  9  1  6
 10 11  1  0
 11 12  1  0
 12 13  1  0
 13 14  1  0
 14 15  1  0
 15 16  1  0
 16 17  1  0
 16 18  1  0
 14 19  1  0
  6 20  2  0
 20 21  1  0
 21 22  1  0
 22 23  1  0
 23 24  1  0
 24 25  1  0
 25 26  1  0
 26 27  1  0
 21  4  1  0
 27 22  1  0
 18 10  1  0
 19 10  1  0
 17 12  1  0
  1 28  1  0
  1 29  1  0
  1 30  1  0
  2 31  1  0
  2 32  1  0
  3 33  1  0
  3 34  1  0
  5 35  1  0
  9 36  1  0
 11 37  1  0
 11 38  1  0
 12 39  1  1
 13 40  1  0
 13 41  1  0
 14 42  1  6
 15 43  1  0
 15 44  1  0
 16 45  1  1
 17 46  1  0
 17 47  1  0
 18 48  1  0
 18 49  1  0
 19 50  1  0
 19 51  1  0
 22 52  1  0
 23 53  1  0
 23 54  1  0
 24 55  1  0
 24 56  1  0
 25 57  1  0
 25 58  1  0
 26 59  1  0
 26 60  1  0
 27 61  1  0
 27 62  1  0
M  END
>  <_SMILES>  (78) 
CCCc1cc(C(=O)N[C@]23C[C@H]4C[C@H](C[C@H](C4)C2)C3)nn1C1CCCCC1

$$$$

     RDKit          3D

 49 52  0  0  0  0  0  0  0  0999 V2000
    5.8373    1.8762    1.0077 C   0  0  0  0  0  0  0  0  0  0  0  0
    6.1448    0.4155    0.7069 C   0  0  0  0  0  0  0  0  0  0  0  0
    5.4346   -0.1099   -0.5429 C   0  0  0  0  0  0  0  0  0  0  0  0
    3.9566   -0.2326   -0.3708 C   0  0  0  0  0  0  0  0  0  0  0  0
    2.9455    0.6445   -0.7038 C   0  0  0  0  0  0  0  0  0  0  0  0
    1.7391    0.0113   -0.3193 C   0  0  0  0  0  0  0  0  0  0  0  0
    0.3729    0.5434   -0.4578 C   0  0  0  0  0  0  0  0  0  0  0  0
    0.1380    1.6438   -0.9449 O   0  0  0  0  0  0  0  0  0  0  0  0
   -0.5852   -0.3260    0.0159 N   0  0  0  0  0  0  0  0  0  0  0  0
   -2.0262   -0.1009    0.0269 C   0  0  2  0  0  0  0  0  0  0  0  0
   -2.7147   -1.3441    0.6503 C   0  0  0  0  0  0  0  0  0  0  0  0
   -4.2409   -1.1668    0.6901 C   0  0  1  0  0  0  0  0  0  0  0  0
   -4.5826    0.0722    1.5325 C   0  0  0  0  0  0  0  0  0  0  0  0
   -3.9312    1.3210    0.9175 C   0  0  2  0  0  0  0  0  0  0  0  0
   -4.4508    1.5094   -0.5180 C   0  0  0  0  0  0  0  0  0  0  0  0
   -4.1124    0.2742   -1.3699 C   0  0  2  0  0  0  0  0  0  0  0  0
   -4.7627   -0.9685   -0.7417 C   0  0  0  0  0  0  0  0  0  0  0  0
   -2.5854    0.0864   -1.4052 C   0  0  0  0  0  0  0  0  0  0  0  0
   -2.4041    1.1334    0.8827 C   0  0  0  0  0  0  0  0  0  0  0  0
    1.9831   -1.2023    0.2180 N   0  0  0  0  0  0  0  0  0  0  0  0
    3.3243   -1.3239    0.1685 N   0  0  0  0  0  0  0  0  0  0  0  0
    3.9351   -2.5410    0.6523 C   0  0  0  0  0  0  0  0  0  0  0  0
    6.4403    2.2195    1.8545 H   0  0  0  0  0  0  0  0  0  0  0  0
    4.7851    2.0192    1.2708 H   0  0  0  0  0  0  0  0  0  0  0  0
    6.0695    2.5123    0.1477 H   0  0  0  0  0  0  0  0  0  0  0  0
    7.2267    0.3179    0.5557 H   0  0  0  0  0  0  0  0  0  0  0  0
    5.8908   -0.1931    1.5822 H   0  0  0  0  0  0  0  0  0  0  0  0
    5.6490    0.5498   -1.3931 H   0  0  0  0  0  0  0  0  0  0  0  0
    5.8557   -1.0875   -0.8069 H   0  0  0  0  0  0  0  0  0  0  0  0
    3.0480    1.6199   -1.1604 H   0  0  0  0  0  0  0  0  0  0  0  0
   -0.2008   -1.1931    0.3860 H   0  0  0  0  0  0  0  0  0  0  0  0
   -2.4618   -2.2443    0.0741 H   0  0  0  0  0  0  0  0  0  0  0  0
   -2.3357   -1.5154    1.6668 H   0  0  0  0  0  0  0  0  0  0  0  0
   -4.7054   -2.0547    1.1332 H   0  0  0  0  0  0  0  0  0  0  0  0
   -5.6705    0.2031    1.5826 H   0  0  0  0  0  0  0  0  0  0  0  0
   -4.2307   -0.0656    2.5623 H   0  0  0  0  0  0  0  0  0  0  0  0
   -4.1809    2.2019    1.5195 H   0  0  0  0  0  0  0  0  0  0  0  0
   -5.5361    1.6682   -0.5047 H   0  0  0  0  0  0  0  0  0  0  0  0
   -4.0034    2.4063   -0.9638 H   0  0  0  0  0  0  0  0  0  0  0  0
   -4.4904    0.4133   -2.3889 H   0  0  0  0  0  0  0  0  0  0  0  0
   -4.5405   -1.8551   -1.3482 H   0  0  0  0  0  0  0  0  0  0  0  0
   -5.8538   -0.8556   -0.7308 H   0  0  0  0  0  0  0  0  0  0  0  0
   -2.1293    0.9565   -1.8924 H   0  0  0  0  0  0  0  0  0  0  0  0
   -2.3302   -0.7820   -2.0267 H   0  0  0  0  0  0  0  0  0  0  0  0
   -1.9411    2.0432    0.4825 H   0  0  0  0  0  0  0  0  0  0  0  0
   -2.0188    1.0169    1.9042 H   0  0  0  0  0  0  0  0  0  0  0  0
    4.6467   -2.2853    1.4401 H   0  0  0  0  0  0  0  0  0  0  0  0
    3.1632   -3.2021    1.0553 H   0  0  0  0  0  0  0  0  0  0  0  0
    4.4395   -3.0296   -0.1847 H   0  0  0  0  0  0  0  0  0  0  0  0
  1  2  1  0
  2  3  1  0
  3  4  1  0
  4  5  2  0
  5  6  1  0
  6  7  1  0
  7  8  2  0
  7  9  1  0
 10  9  1  6
 10 11  1  0
 11 12  1  0
 12 13  1  0
 13 14  1  0
 14 15  1  0
 15 16  1  0
 16 17  1  0
 16 18  1  0
 14 19  1  0
  6 20  2  0
 20 21  1  0
 21 22  1  0
 21  4  1  0
 18 10  1  0
 19 10  1  0
 17 12  1  0
  1 23  1  0
  1 24  1  0
  1 25  1  0
  2 26  1  0
  2 27  1  0
  3 28  1  0
  3 29  1  0
  5 30  1  0
  9 31  1  0
 11 32  1  0
 11 33  1  0
 12 34  1  1
 13 35  1  0
 13 36  1  0
 14 37  1  1
 15 38  1  0
 15 39  1  0
 16 40  1  6
 17 41  1  0
 17 42  1  0
 18 43  1  0
 18 44  1  0
 19 45  1  0
 19 46  1  0
 22 47  1  0
 22 48  1  0
 22 49  1  0
M  END
>  <_SMILES>  (79) 
CCCc1cc(C(=O)N[C@]23C[C@H]4C[C@H](C[C@H](C4)C2)C3)nn1C

$$$$

     RDKit          3D

 61 64  0  0  0  0  0  0  0  0999 V2000
    6.3250   -2.8240    1.7444 C   0  0  0  0  0  0  0  0  0  0  0  0
    4.8728   -2.4351    1.9741 C   0  0  0  0  0  0  0  0  0  0  0  0
    4.1763   -1.8968    0.7215 C   0  0  0  0  0  0  0  0  0  0  0  0
    4.7431   -0.5562    0.2427 C   0  0  0  0  0  0  0  0  0  0  0  0
    4.0404   -0.0207   -1.0076 C   0  0  0  0  0  0  0  0  0  0  0  0
    2.6732    0.4098   -0.7731 N   0  0  0  0  0  0  0  0  0  0  0  0
    1.6762   -0.4476   -1.0484 N   0  0  0  0  0  0  0  0  0  0  0  0
    0.5446    0.2130   -0.7483 C   0  0  0  0  0  0  0  0  0  0  0  0
   -0.7867   -0.4135   -0.9133 C   0  0  0  0  0  0  0  0  0  0  0  0
   -0.9717   -1.4198   -1.5917 O   0  0  0  0  0  0  0  0  0  0  0  0
   -1.8073    0.2226   -0.2206 N   0  0  0  0  0  0  0  0  0  0  0  0
   -3.1915   -0.2562   -0.1531 C   0  0  2  0  0  0  0  0  0  0  0  0
   -3.8499   -0.3346   -1.5542 C   0  0  0  0  0  0  0  0  0  0  0  0
   -5.3164   -0.7878   -1.4399 C   0  0  1  0  0  0  0  0  0  0  0  0
   -5.3678   -2.1685   -0.7637 C   0  0  0  0  0  0  0  0  0  0  0  0
   -4.7522   -2.0926    0.6440 C   0  0  2  0  0  0  0  0  0  0  0  0
   -5.5350   -1.0717    1.4848 C   0  0  0  0  0  0  0  0  0  0  0  0
   -5.4792    0.3112    0.8171 C   0  0  2  0  0  0  0  0  0  0  0  0
   -6.0965    0.2243   -0.5869 C   0  0  0  0  0  0  0  0  0  0  0  0
   -4.0124    0.7535    0.6959 C   0  0  0  0  0  0  0  0  0  0  0  0
   -3.2849   -1.6417    0.5324 C   0  0  0  0  0  0  0  0  0  0  0  0
    0.8566    1.5244   -0.2924 C   0  0  0  0  0  0  0  0  0  0  0  0
    2.2322    1.6291   -0.3264 C   0  0  0  0  0  0  0  0  0  0  0  0
    3.1160    2.7811    0.0189 C   0  0  0  0  0  0  0  0  0  0  0  0
    3.3282    3.7035   -1.1823 C   0  0  0  0  0  0  0  0  0  0  0  0
    4.2294    4.8764   -0.8302 C   0  0  0  0  0  0  0  0  0  0  0  0
    6.7337   -3.2953    2.6441 H   0  0  0  0  0  0  0  0  0  0  0  0
    6.9443   -1.9511    1.5191 H   0  0  0  0  0  0  0  0  0  0  0  0
    6.4155   -3.5365    0.9184 H   0  0  0  0  0  0  0  0  0  0  0  0
    4.8158   -1.6948    2.7806 H   0  0  0  0  0  0  0  0  0  0  0  0
    4.3272   -3.3217    2.3191 H   0  0  0  0  0  0  0  0  0  0  0  0
    3.1124   -1.7806    0.9576 H   0  0  0  0  0  0  0  0  0  0  0  0
    4.2444   -2.6378   -0.0841 H   0  0  0  0  0  0  0  0  0  0  0  0
    5.8047   -0.6761   -0.0005 H   0  0  0  0  0  0  0  0  0  0  0  0
    4.6808    0.1764    1.0558 H   0  0  0  0  0  0  0  0  0  0  0  0
    4.5881    0.8414   -1.4032 H   0  0  0  0  0  0  0  0  0  0  0  0
    4.0241   -0.7774   -1.8012 H   0  0  0  0  0  0  0  0  0  0  0  0
   -1.5239    0.8976    0.4743 H   0  0  0  0  0  0  0  0  0  0  0  0
   -3.3151   -1.0361   -2.2044 H   0  0  0  0  0  0  0  0  0  0  0  0
   -3.7981    0.6435   -2.0503 H   0  0  0  0  0  0  0  0  0  0  0  0
   -5.7621   -0.8489   -2.4390 H   0  0  0  0  0  0  0  0  0  0  0  0
   -6.4069   -2.5141   -0.6987 H   0  0  0  0  0  0  0  0  0  0  0  0
   -4.8253   -2.9037   -1.3708 H   0  0  0  0  0  0  0  0  0  0  0  0
   -4.7995   -3.0776    1.1216 H   0  0  0  0  0  0  0  0  0  0  0  0
   -5.1140   -1.0174    2.4962 H   0  0  0  0  0  0  0  0  0  0  0  0
   -6.5779   -1.3948    1.5911 H   0  0  0  0  0  0  0  0  0  0  0  0
   -6.0358    1.0362    1.4214 H   0  0  0  0  0  0  0  0  0  0  0  0
   -6.0794    1.2108   -1.0662 H   0  0  0  0  0  0  0  0  0  0  0  0
   -7.1488   -0.0770   -0.5160 H   0  0  0  0  0  0  0  0  0  0  0  0
   -3.5732    0.8484    1.6982 H   0  0  0  0  0  0  0  0  0  0  0  0
   -3.9625    1.7536    0.2447 H   0  0  0  0  0  0  0  0  0  0  0  0
   -2.7209   -2.3955   -0.0296 H   0  0  0  0  0  0  0  0  0  0  0  0
   -2.8302   -1.6000    1.5309 H   0  0  0  0  0  0  0  0  0  0  0  0
    0.1695    2.3061   -0.0021 H   0  0  0  0  0  0  0  0  0  0  0  0
    2.6552    3.3482    0.8378 H   0  0  0  0  0  0  0  0  0  0  0  0
    4.0816    2.4291    0.3979 H   0  0  0  0  0  0  0  0  0  0  0  0
    3.7736    3.1463   -2.0152 H   0  0  0  0  0  0  0  0  0  0  0  0
    2.3637    4.0860   -1.5385 H   0  0  0  0  0  0  0  0  0  0  0  0
    5.2159    4.5294   -0.5067 H   0  0  0  0  0  0  0  0  0  0  0  0
    3.7946    5.4773   -0.0251 H   0  0  0  0  0  0  0  0  0  0  0  0
    4.3662    5.5242   -1.7016 H   0  0  0  0  0  0  0  0  0  0  0  0
  1  2  1  0
  2  3  1  0
  3  4  1  0
  4  5  1  0
  5  6  1  0
  6  7  1  0
  7  8  2  0
  8  9  1  0
  9 10  2  0
  9 11  1  0
 12 11  1  6
 12 13  1  0
 13 14  1  0
 14 15  1  0
 15 16  1  0
 16 17  1  0
 17 18  1  0
 18 19  1  0
 18 20  1  0
 16 21  1  0
  8 22  1  0
 22 23  2  0
 23 24  1  0
 24 25  1  0
 25 26  1  0
 23  6  1  0
 20 12  1  0
 21 12  1  0
 19 14  1  0
  1 27  1  0
  1 28  1  0
  1 29  1  0
  2 30  1  0
  2 31  1  0
  3 32  1  0
  3 33  1  0
  4 34  1  0
  4 35  1  0
  5 36  1  0
  5 37  1  0
 11 38  1  0
 13 39  1  0
 13 40  1  0
 14 41  1  6
 15 42  1  0
 15 43  1  0
 16 44  1  1
 17 45  1  0
 17 46  1  0
 18 47  1  1
 19 48  1  0
 19 49  1  0
 20 50  1  0
 20 51  1  0
 21 52  1  0
 21 53  1  0
 22 54  1  0
 24 55  1  0
 24 56  1  0
 25 57  1  0
 25 58  1  0
 26 59  1  0
 26 60  1  0
 26 61  1  0
M  END
>  <_SMILES>  (80) 
CCCCCn1nc(C(=O)N[C@]23C[C@H]4C[C@H](C[C@H](C4)C2)C3)cc1CCC

$$$$

     RDKit          3D

 53 57  0  0  0  0  0  0  0  0999 V2000
    3.6939   -1.6924    2.4324 C   0  0  0  0  0  0  0  0  0  0  0  0
    2.7573   -1.4413    1.3111 C   0  0  0  0  0  0  0  0  0  0  0  0
    1.3888   -1.2747    1.3064 C   0  0  0  0  0  0  0  0  0  0  0  0
    1.0176   -1.0614   -0.0512 C   0  0  0  0  0  0  0  0  0  0  0  0
   -0.3334   -0.8293   -0.6108 C   0  0  0  0  0  0  0  0  0  0  0  0
   -0.5938   -0.9657   -1.8028 O   0  0  0  0  0  0  0  0  0  0  0  0
   -1.2772   -0.4257    0.3229 N   0  0  0  0  0  0  0  0  0  0  0  0
   -2.6570   -0.0479    0.0017 C   0  0  2  0  0  0  0  0  0  0  0  0
   -2.7098    1.1943   -0.9215 C   0  0  0  0  0  0  0  0  0  0  0  0
   -4.1679    1.6048   -1.1935 C   0  0  1  0  0  0  0  0  0  0  0  0
   -4.9090    0.4327   -1.8593 C   0  0  0  0  0  0  0  0  0  0  0  0
   -4.8971   -0.7960   -0.9339 C   0  0  2  0  0  0  0  0  0  0  0  0
   -5.5814   -0.4377    0.3942 C   0  0  0  0  0  0  0  0  0  0  0  0
   -4.8388    0.7262    1.0681 C   0  0  2  0  0  0  0  0  0  0  0  0
   -4.8559    1.9487    0.1371 C   0  0  0  0  0  0  0  0  0  0  0  0
   -3.3822    0.3110    1.3282 C   0  0  0  0  0  0  0  0  0  0  0  0
   -3.4400   -1.2100   -0.6610 C   0  0  0  0  0  0  0  0  0  0  0  0
    2.1073   -1.1060   -0.8378 N   0  0  0  0  0  0  0  0  0  0  0  0
    3.1419   -1.3173   -0.0007 N   0  0  0  0  0  0  0  0  0  0  0  0
    4.4856   -1.4419   -0.5606 C   0  0  0  0  0  0  0  0  0  0  0  0
    5.3305   -0.2173   -0.3045 C   0  0  0  0  0  0  0  0  0  0  0  0
    6.5339   -0.3180    0.4096 C   0  0  0  0  0  0  0  0  0  0  0  0
    7.3206    0.8132    0.6352 C   0  0  0  0  0  0  0  0  0  0  0  0
    6.9178    2.0538    0.1448 C   0  0  0  0  0  0  0  0  0  0  0  0
    5.7300    2.1654   -0.5745 C   0  0  0  0  0  0  0  0  0  0  0  0
    4.9419    1.0365   -0.8015 C   0  0  0  0  0  0  0  0  0  0  0  0
    4.3217   -0.8152    2.6153 H   0  0  0  0  0  0  0  0  0  0  0  0
    4.3394   -2.5512    2.2243 H   0  0  0  0  0  0  0  0  0  0  0  0
    3.1446   -1.9075    3.3550 H   0  0  0  0  0  0  0  0  0  0  0  0
    0.7419   -1.3198    2.1708 H   0  0  0  0  0  0  0  0  0  0  0  0
   -0.9205   -0.1292    1.2197 H   0  0  0  0  0  0  0  0  0  0  0  0
   -2.1664    2.0299   -0.4611 H   0  0  0  0  0  0  0  0  0  0  0  0
   -2.2106    0.9937   -1.8768 H   0  0  0  0  0  0  0  0  0  0  0  0
   -4.1875    2.4780   -1.8552 H   0  0  0  0  0  0  0  0  0  0  0  0
   -5.9433    0.7228   -2.0817 H   0  0  0  0  0  0  0  0  0  0  0  0
   -4.4350    0.1853   -2.8171 H   0  0  0  0  0  0  0  0  0  0  0  0
   -5.4320   -1.6241   -1.4125 H   0  0  0  0  0  0  0  0  0  0  0  0
   -6.6276   -0.1613    0.2146 H   0  0  0  0  0  0  0  0  0  0  0  0
   -5.5921   -1.3108    1.0581 H   0  0  0  0  0  0  0  0  0  0  0  0
   -5.3274    0.9768    2.0163 H   0  0  0  0  0  0  0  0  0  0  0  0
   -5.8898    2.2656   -0.0464 H   0  0  0  0  0  0  0  0  0  0  0  0
   -4.3446    2.7925    0.6164 H   0  0  0  0  0  0  0  0  0  0  0  0
   -3.3575   -0.5457    2.0151 H   0  0  0  0  0  0  0  0  0  0  0  0
   -2.8531    1.1271    1.8386 H   0  0  0  0  0  0  0  0  0  0  0  0
   -2.9769   -1.5103   -1.6076 H   0  0  0  0  0  0  0  0  0  0  0  0
   -3.4179   -2.0968   -0.0141 H   0  0  0  0  0  0  0  0  0  0  0  0
    4.9307   -2.3429   -0.1240 H   0  0  0  0  0  0  0  0  0  0  0  0
    4.3947   -1.6139   -1.6397 H   0  0  0  0  0  0  0  0  0  0  0  0
    6.8698   -1.2775    0.7966 H   0  0  0  0  0  0  0  0  0  0  0  0
    8.2507    0.7268    1.1912 H   0  0  0  0  0  0  0  0  0  0  0  0
    7.5315    2.9337    0.3193 H   0  0  0  0  0  0  0  0  0  0  0  0
    5.4161    3.1313   -0.9621 H   0  0  0  0  0  0  0  0  0  0  0  0
    4.0172    1.1389   -1.3692 H   0  0  0  0  0  0  0  0  0  0  0  0
  1  2  1  0
  2  3  2  0
  3  4  1  0
  4  5  1  0
  5  6  2  0
  5  7  1  0
  8  7  1  1
  8  9  1  0
  9 10  1  0
 10 11  1  0
 11 12  1  0
 12 13  1  0
 13 14  1  0
 14 15  1  0
 14 16  1  0
 12 17  1  0
  4 18  2  0
 18 19  1  0
 19 20  1  0
 20 21  1  0
 21 22  2  0
 22 23  1  0
 23 24  2  0
 24 25  1  0
 25 26  2  0
 19  2  1  0
 26 21  1  0
 16  8  1  0
 17  8  1  0
 15 10  1  0
  1 27  1  0
  1 28  1  0
  1 29  1  0
  3 30  1  0
  7 31  1  0
  9 32  1  0
  9 33  1  0
 10 34  1  6
 11 35  1  0
 11 36  1  0
 12 37  1  6
 13 38  1  0
 13 39  1  0
 14 40  1  1
 15 41  1  0
 15 42  1  0
 16 43  1  0
 16 44  1  0
 17 45  1  0
 17 46  1  0
 20 47  1  0
 20 48  1  0
 22 49  1  0
 23 50  1  0
 24 51  1  0
 25 52  1  0
 26 53  1  0
M  END
>  <_SMILES>  (81) 
Cc1cc(C(=O)N[C@]23C[C@H]4C[C@H](C[C@H](C4)C2)C3)nn1Cc1ccccc1

$$$$

     RDKit          3D

 58 61  0  0  0  0  0  0  0  0999 V2000
   -5.6201   -2.1506   -1.4142 C   0  0  0  0  0  0  0  0  0  0  0  0
   -4.2192   -1.5975   -1.2006 C   0  0  0  0  0  0  0  0  0  0  0  0
   -4.2587   -0.2129   -0.5516 C   0  0  0  0  0  0  0  0  0  0  0  0
   -2.9038    0.3685   -0.2948 C   0  0  0  0  0  0  0  0  0  0  0  0
   -1.6373   -0.0483   -0.6560 C   0  0  0  0  0  0  0  0  0  0  0  0
   -0.7306    0.9214   -0.1437 C   0  0  0  0  0  0  0  0  0  0  0  0
    0.7454    0.9525   -0.2539 C   0  0  0  0  0  0  0  0  0  0  0  0
    1.4081    1.9679   -0.0617 O   0  0  0  0  0  0  0  0  0  0  0  0
    1.3198   -0.2692   -0.5756 N   0  0  0  0  0  0  0  0  0  0  0  0
    2.7631   -0.5152   -0.6539 C   0  0  2  0  0  0  0  0  0  0  0  0
    2.9800   -1.9974   -1.0666 C   0  0  0  0  0  0  0  0  0  0  0  0
    4.4768   -2.3322   -1.1622 C   0  0  1  0  0  0  0  0  0  0  0  0
    5.1301   -1.4224   -2.2135 C   0  0  0  0  0  0  0  0  0  0  0  0
    4.9506    0.0505   -1.8150 C   0  0  2  0  0  0  0  0  0  0  0  0
    5.6047    0.2891   -0.4433 C   0  0  0  0  0  0  0  0  0  0  0  0
    4.9578   -0.6180    0.6173 C   0  0  2  0  0  0  0  0  0  0  0  0
    5.1363   -2.0874    0.2041 C   0  0  0  0  0  0  0  0  0  0  0  0
    3.4560   -0.2951    0.7134 C   0  0  0  0  0  0  0  0  0  0  0  0
    3.4486    0.3740   -1.7226 C   0  0  0  0  0  0  0  0  0  0  0  0
   -1.4105    1.8893    0.4932 N   0  0  0  0  0  0  0  0  0  0  0  0
   -2.7035    1.5376    0.3980 N   0  0  0  0  0  0  0  0  0  0  0  0
   -3.6989    2.4216    0.9842 C   0  0  0  0  0  0  0  0  0  0  0  0
   -3.7023    2.4144    2.5225 C   0  0  0  0  0  0  0  0  0  0  0  0
   -4.1415    1.0629    3.0892 C   0  0  0  0  0  0  0  0  0  0  0  0
   -4.6233    3.5192    3.0435 C   0  0  0  0  0  0  0  0  0  0  0  0
   -5.5699   -3.1396   -1.8804 H   0  0  0  0  0  0  0  0  0  0  0  0
   -6.2047   -1.4959   -2.0683 H   0  0  0  0  0  0  0  0  0  0  0  0
   -6.1519   -2.2504   -0.4626 H   0  0  0  0  0  0  0  0  0  0  0  0
   -3.6527   -2.2944   -0.5709 H   0  0  0  0  0  0  0  0  0  0  0  0
   -3.7059   -1.5478   -2.1685 H   0  0  0  0  0  0  0  0  0  0  0  0
   -4.8040   -0.2839    0.3971 H   0  0  0  0  0  0  0  0  0  0  0  0
   -4.8192    0.4724   -1.1996 H   0  0  0  0  0  0  0  0  0  0  0  0
   -1.3968   -0.9279   -1.2354 H   0  0  0  0  0  0  0  0  0  0  0  0
    0.7231   -1.0793   -0.4938 H   0  0  0  0  0  0  0  0  0  0  0  0
    2.4997   -2.6658   -0.3392 H   0  0  0  0  0  0  0  0  0  0  0  0
    2.4932   -2.1953   -2.0310 H   0  0  0  0  0  0  0  0  0  0  0  0
    4.6038   -3.3815   -1.4512 H   0  0  0  0  0  0  0  0  0  0  0  0
    4.6800   -1.6023   -3.1975 H   0  0  0  0  0  0  0  0  0  0  0  0
    6.1974   -1.6593   -2.3034 H   0  0  0  0  0  0  0  0  0  0  0  0
    5.4209    0.6955   -2.5657 H   0  0  0  0  0  0  0  0  0  0  0  0
    5.4951    1.3415   -0.1536 H   0  0  0  0  0  0  0  0  0  0  0  0
    6.6810    0.0858   -0.5023 H   0  0  0  0  0  0  0  0  0  0  0  0
    5.4341   -0.4477    1.5894 H   0  0  0  0  0  0  0  0  0  0  0  0
    4.6904   -2.7462    0.9594 H   0  0  0  0  0  0  0  0  0  0  0  0
    6.2035   -2.3360    0.1551 H   0  0  0  0  0  0  0  0  0  0  0  0
    3.3339    0.7405    1.0520 H   0  0  0  0  0  0  0  0  0  0  0  0
    2.9869   -0.9257    1.4800 H   0  0  0  0  0  0  0  0  0  0  0  0
    3.3322    1.4377   -1.4865 H   0  0  0  0  0  0  0  0  0  0  0  0
    2.9726    0.2231   -2.7003 H   0  0  0  0  0  0  0  0  0  0  0  0
   -3.4710    3.4266    0.6065 H   0  0  0  0  0  0  0  0  0  0  0  0
   -4.6836    2.1508    0.5897 H   0  0  0  0  0  0  0  0  0  0  0  0
   -2.6885    2.6213    2.8885 H   0  0  0  0  0  0  0  0  0  0  0  0
   -3.4537    0.2651    2.7921 H   0  0  0  0  0  0  0  0  0  0  0  0
   -5.1456    0.7946    2.7439 H   0  0  0  0  0  0  0  0  0  0  0  0
   -4.1582    1.0895    4.1841 H   0  0  0  0  0  0  0  0  0  0  0  0
   -5.6566    3.3636    2.7148 H   0  0  0  0  0  0  0  0  0  0  0  0
   -4.6165    3.5478    4.1383 H   0  0  0  0  0  0  0  0  0  0  0  0
   -4.2964    4.5002    2.6828 H   0  0  0  0  0  0  0  0  0  0  0  0
  1  2  1  0
  2  3  1  0
  3  4  1  0
  4  5  2  0
  5  6  1  0
  6  7  1  0
  7  8  2  0
  7  9  1  0
 10  9  1  1
 10 11  1  0
 11 12  1  0
 12 13  1  0
 13 14  1  0
 14 15  1  0
 15 16  1  0
 16 17  1  0
 16 18  1  0
 14 19  1  0
  6 20  2  0
 20 21  1  0
 21 22  1  0
 22 23  1  0
 23 24  1  0
 23 25  1  0
 21  4  1  0
 18 10  1  0
 19 10  1  0
 17 12  1  0
  1 26  1  0
  1 27  1  0
  1 28  1  0
  2 29  1  0
  2 30  1  0
  3 31  1  0
  3 32  1  0
  5 33  1  0
  9 34  1  0
 11 35  1  0
 11 36  1  0
 12 37  1  6
 13 38  1  0
 13 39  1  0
 14 40  1  6
 15 41  1  0
 15 42  1  0
 16 43  1  1
 17 44  1  0
 17 45  1  0
 18 46  1  0
 18 47  1  0
 19 48  1  0
 19 49  1  0
 22 50  1  0
 22 51  1  0
 23 52  1  0
 24 53  1  0
 24 54  1  0
 24 55  1  0
 25 56  1  0
 25 57  1  0
 25 58  1  0
M  END
>  <_SMILES>  (82) 
CCCc1cc(C(=O)N[C@]23C[C@H]4C[C@H](C[C@H](C4)C2)C3)nn1CC(C)C

$$$$

     RDKit          3D

 56 60  0  0  0  0  0  0  0  0999 V2000
    3.7076   -3.5411   -2.6565 C   0  0  0  0  0  0  0  0  0  0  0  0
    3.5528   -2.0308   -2.7472 C   0  0  0  0  0  0  0  0  0  0  0  0
    2.4123   -1.5430   -1.9192 C   0  0  0  0  0  0  0  0  0  0  0  0
    1.0850   -1.3810   -2.2575 C   0  0  0  0  0  0  0  0  0  0  0  0
    0.4412   -0.8984   -1.0941 C   0  0  0  0  0  0  0  0  0  0  0  0
   -0.9864   -0.5702   -0.9401 C   0  0  0  0  0  0  0  0  0  0  0  0
   -1.7952   -0.6908   -1.8536 O   0  0  0  0  0  0  0  0  0  0  0  0
   -1.2937   -0.1228    0.3264 N   0  0  0  0  0  0  0  0  0  0  0  0
   -2.6128    0.2752    0.8051 C   0  0  2  0  0  0  0  0  0  0  0  0
   -2.4880    0.7091    2.2898 C   0  0  0  0  0  0  0  0  0  0  0  0
   -3.8508    1.1414    2.8540 C   0  0  1  0  0  0  0  0  0  0  0  0
   -4.3861    2.3222    2.0289 C   0  0  0  0  0  0  0  0  0  0  0  0
   -4.5421    1.9063    0.5576 C   0  0  2  0  0  0  0  0  0  0  0  0
   -5.5202    0.7227    0.4659 C   0  0  0  0  0  0  0  0  0  0  0  0
   -4.9922   -0.4653    1.2880 C   0  0  2  0  0  0  0  0  0  0  0  0
   -4.8336   -0.0358    2.7551 C   0  0  0  0  0  0  0  0  0  0  0  0
   -3.6230   -0.8964    0.7332 C   0  0  0  0  0  0  0  0  0  0  0  0
   -3.1728    1.4758    0.0027 C   0  0  0  0  0  0  0  0  0  0  0  0
    1.3178   -0.7669   -0.0774 N   0  0  0  0  0  0  0  0  0  0  0  0
    2.5072   -1.1398   -0.6080 N   0  0  0  0  0  0  0  0  0  0  0  0
    3.6908   -1.1325    0.2499 C   0  0  0  0  0  0  0  0  0  0  0  0
    4.5710    0.0738    0.0235 C   0  0  0  0  0  0  0  0  0  0  0  0
    4.0554    1.3759    0.1172 C   0  0  0  0  0  0  0  0  0  0  0  0
    4.8828    2.4839   -0.0723 C   0  0  0  0  0  0  0  0  0  0  0  0
    6.2367    2.3054   -0.3465 C   0  0  0  0  0  0  0  0  0  0  0  0
    6.7658    1.0193   -0.4278 C   0  0  0  0  0  0  0  0  0  0  0  0
    5.9400   -0.0906   -0.2394 C   0  0  0  0  0  0  0  0  0  0  0  0
    4.5423   -3.8742   -3.2815 H   0  0  0  0  0  0  0  0  0  0  0  0
    2.8021   -4.0535   -2.9992 H   0  0  0  0  0  0  0  0  0  0  0  0
    3.9046   -3.8620   -1.6283 H   0  0  0  0  0  0  0  0  0  0  0  0
    3.3810   -1.7529   -3.7943 H   0  0  0  0  0  0  0  0  0  0  0  0
    4.4888   -1.5466   -2.4534 H   0  0  0  0  0  0  0  0  0  0  0  0
    0.6245   -1.5849   -3.2149 H   0  0  0  0  0  0  0  0  0  0  0  0
   -0.4939   -0.0980    0.9554 H   0  0  0  0  0  0  0  0  0  0  0  0
   -2.0836   -0.1160    2.8914 H   0  0  0  0  0  0  0  0  0  0  0  0
   -1.7702    1.5353    2.3825 H   0  0  0  0  0  0  0  0  0  0  0  0
   -3.7391    1.4428    3.9014 H   0  0  0  0  0  0  0  0  0  0  0  0
   -5.3525    2.6520    2.4297 H   0  0  0  0  0  0  0  0  0  0  0  0
   -3.7012    3.1755    2.1067 H   0  0  0  0  0  0  0  0  0  0  0  0
   -4.9275    2.7502   -0.0255 H   0  0  0  0  0  0  0  0  0  0  0  0
   -5.6510    0.4249   -0.5817 H   0  0  0  0  0  0  0  0  0  0  0  0
   -6.5076    1.0242    0.8366 H   0  0  0  0  0  0  0  0  0  0  0  0
   -5.6966   -1.3021    1.2226 H   0  0  0  0  0  0  0  0  0  0  0  0
   -5.8076    0.2533    3.1684 H   0  0  0  0  0  0  0  0  0  0  0  0
   -4.4706   -0.8791    3.3555 H   0  0  0  0  0  0  0  0  0  0  0  0
   -3.7482   -1.2418   -0.3000 H   0  0  0  0  0  0  0  0  0  0  0  0
   -3.2443   -1.7568    1.3005 H   0  0  0  0  0  0  0  0  0  0  0  0
   -2.4707    2.3188    0.0453 H   0  0  0  0  0  0  0  0  0  0  0  0
   -3.2813    1.2208   -1.0582 H   0  0  0  0  0  0  0  0  0  0  0  0
    4.2283   -2.0676    0.0591 H   0  0  0  0  0  0  0  0  0  0  0  0
    3.3551   -1.1564    1.2935 H   0  0  0  0  0  0  0  0  0  0  0  0
    3.0005    1.5368    0.3353 H   0  0  0  0  0  0  0  0  0  0  0  0
    4.4689    3.4869   -0.0047 H   0  0  0  0  0  0  0  0  0  0  0  0
    6.8797    3.1692   -0.4938 H   0  0  0  0  0  0  0  0  0  0  0  0
    7.8237    0.8810   -0.6366 H   0  0  0  0  0  0  0  0  0  0  0  0
    6.3764   -1.0852   -0.3024 H   0  0  0  0  0  0  0  0  0  0  0  0
  1  2  1  0
  2  3  1  0
  3  4  2  0
  4  5  1  0
  5  6  1  0
  6  7  2  0
  6  8  1  0
  9  8  1  6
  9 10  1  0
 10 11  1  0
 11 12  1  0
 12 13  1  0
 13 14  1  0
 14 15  1  0
 15 16  1  0
 15 17  1  0
 13 18  1  0
  5 19  2  0
 19 20  1  0
 20 21  1  0
 21 22  1  0
 22 23  2  0
 23 24  1  0
 24 25  2  0
 25 26  1  0
 26 27  2  0
 20  3  1  0
 27 22  1  0
 17  9  1  0
 18  9  1  0
 16 11  1  0
  1 28  1  0
  1 29  1  0
  1 30  1  0
  2 31  1  0
  2 32  1  0
  4 33  1  0
  8 34  1  0
 10 35  1  0
 10 36  1  0
 11 37  1  1
 12 38  1  0
 12 39  1  0
 13 40  1  6
 14 41  1  0
 14 42  1  0
 15 43  1  1
 16 44  1  0
 16 45  1  0
 17 46  1  0
 17 47  1  0
 18 48  1  0
 18 49  1  0
 21 50  1  0
 21 51  1  0
 23 52  1  0
 24 53  1  0
 25 54  1  0
 26 55  1  0
 27 56  1  0
M  END
>  <_SMILES>  (83) 
CCc1cc(C(=O)N[C@]23C[C@H]4C[C@H](C[C@H](C4)C2)C3)nn1Cc1ccccc1

$$$$

     RDKit          3D

 28 30  0  0  0  0  0  0  0  0999 V2000
    2.5997    0.2567   -0.6549 N   0  0  0  0  0  0  0  0  0  0  0  0
    1.1572    0.1138   -0.2910 C   0  0  1  0  0  0  0  0  0  0  0  0
    0.9255    0.6182    1.1379 C   0  0  0  0  0  0  0  0  0  0  0  0
   -0.5734    0.4901    1.4883 C   0  0  2  0  0  0  0  0  0  0  0  0
   -1.0048   -0.9811    1.3524 C   0  0  0  0  0  0  0  0  0  0  0  0
   -0.7764   -1.4743   -0.0876 C   0  0  1  0  0  0  0  0  0  0  0  0
   -1.6009   -0.6044   -1.0615 C   0  0  0  0  0  0  0  0  0  0  0  0
   -1.1993    0.8720   -0.9324 C   0  0  1  0  0  0  0  0  0  0  0  0
   -1.3983    1.3560    0.5111 C   0  0  0  0  0  0  0  0  0  0  0  0
    0.2869    0.9538   -1.2259 C   0  0  0  0  0  0  0  0  0  0  0  0
    0.7927    1.6216   -2.1235 O   0  0  0  0  0  0  0  0  0  0  0  0
    0.7222   -1.3485   -0.4398 C   0  0  0  0  0  0  0  0  0  0  0  0
    2.7422   -0.0141   -1.6396 H   0  0  0  0  0  0  0  0  0  0  0  0
    3.2397   -0.2844   -0.0629 H   0  0  0  0  0  0  0  0  0  0  0  0
    2.8730    1.2505   -0.6250 H   0  0  0  0  0  0  0  0  0  0  0  0
    1.2336    1.6674    1.2344 H   0  0  0  0  0  0  0  0  0  0  0  0
    1.5239    0.0393    1.8527 H   0  0  0  0  0  0  0  0  0  0  0  0
   -0.7413    0.8332    2.5153 H   0  0  0  0  0  0  0  0  0  0  0  0
   -2.0637   -1.0854    1.6188 H   0  0  0  0  0  0  0  0  0  0  0  0
   -0.4365   -1.6032    2.0546 H   0  0  0  0  0  0  0  0  0  0  0  0
   -1.0880   -2.5211   -0.1756 H   0  0  0  0  0  0  0  0  0  0  0  0
   -1.4370   -0.9498   -2.0900 H   0  0  0  0  0  0  0  0  0  0  0  0
   -2.6706   -0.7194   -0.8488 H   0  0  0  0  0  0  0  0  0  0  0  0
   -1.7543    1.4962   -1.6390 H   0  0  0  0  0  0  0  0  0  0  0  0
   -2.4611    1.3073    0.7771 H   0  0  0  0  0  0  0  0  0  0  0  0
   -1.0902    2.4052    0.6014 H   0  0  0  0  0  0  0  0  0  0  0  0
    0.8856   -1.6999   -1.4669 H   0  0  0  0  0  0  0  0  0  0  0  0
    1.3136   -1.9956    0.2202 H   0  0  0  0  0  0  0  0  0  0  0  0
  2  1  1  6
  2  3  1  0
  3  4  1  0
  4  5  1  0
  5  6  1  0
  6  7  1  0
  7  8  1  0
  8  9  1  0
  8 10  1  0
 10 11  2  0
  6 12  1  0
 10  2  1  0
 12  2  1  0
  9  4  1  0
  1 13  1  0
  1 14  1  0
  1 15  1  0
  3 16  1  0
  3 17  1  0
  4 18  1  1
  5 19  1  0
  5 20  1  0
  6 21  1  1
  7 22  1  0
  7 23  1  0
  8 24  1  6
  9 25  1  0
  9 26  1  0
 12 27  1  0
 12 28  1  0
M  CHG  1   1   1
M  END
>  <_SMILES>  (84) 
[NH3+][C@@]12C[C@@H]3C[C@@H](C[C@@H](C3)C1=O)C2

$$$$

     RDKit          3D

 29 31  0  0  0  0  0  0  0  0999 V2000
    2.4869   -0.6627   -0.6404 N   0  0  0  0  0  0  0  0  0  0  0  0
    1.0947   -0.2917   -0.2819 C   0  0  2  0  0  0  0  0  0  0  0  0
    1.0664    1.1739    0.1843 C   0  0  0  0  0  0  0  0  0  0  0  0
   -0.3762    1.5634    0.5573 C   0  0  1  0  0  0  0  0  0  0  0  0
   -1.2826    1.3855   -0.6743 C   0  0  0  0  0  0  0  0  0  0  0  0
   -1.2531   -0.0787   -1.1488 C   0  0  2  0  0  0  0  0  0  0  0  0
   -1.7439   -0.9890   -0.0084 C   0  0  0  0  0  0  0  0  0  0  0  0
   -0.8405   -0.8265    1.2275 C   0  0  2  0  0  0  0  0  0  0  0  0
   -0.8727    0.6425    1.6867 C   0  0  0  0  0  0  0  0  0  0  0  0
    0.6037   -1.2078    0.8522 C   0  0  0  0  0  0  0  0  0  0  0  0
    0.1925   -0.4625   -1.5160 C   0  0  0  0  0  0  0  0  0  0  0  0
    2.8544   -0.0715   -1.3982 H   0  0  0  0  0  0  0  0  0  0  0  0
    3.1250   -0.5621    0.1606 H   0  0  0  0  0  0  0  0  0  0  0  0
    2.5498   -1.6393   -0.9586 H   0  0  0  0  0  0  0  0  0  0  0  0
    1.7244    1.3165    1.0512 H   0  0  0  0  0  0  0  0  0  0  0  0
    1.4365    1.8384   -0.6072 H   0  0  0  0  0  0  0  0  0  0  0  0
   -0.4039    2.6067    0.8905 H   0  0  0  0  0  0  0  0  0  0  0  0
   -2.3107    1.6776   -0.4270 H   0  0  0  0  0  0  0  0  0  0  0  0
   -0.9492    2.0476   -1.4828 H   0  0  0  0  0  0  0  0  0  0  0  0
   -1.9017   -0.1980   -2.0237 H   0  0  0  0  0  0  0  0  0  0  0  0
   -1.7424   -2.0352   -0.3379 H   0  0  0  0  0  0  0  0  0  0  0  0
   -2.7800   -0.7381    0.2504 H   0  0  0  0  0  0  0  0  0  0  0  0
   -1.1969   -1.4753    2.0352 H   0  0  0  0  0  0  0  0  0  0  0  0
   -1.8936    0.9217    1.9749 H   0  0  0  0  0  0  0  0  0  0  0  0
   -0.2443    0.7700    2.5768 H   0  0  0  0  0  0  0  0  0  0  0  0
    0.6402   -2.2601    0.5421 H   0  0  0  0  0  0  0  0  0  0  0  0
    1.2522   -1.1141    1.7328 H   0  0  0  0  0  0  0  0  0  0  0  0
    0.2206   -1.4996   -1.8747 H   0  0  0  0  0  0  0  0  0  0  0  0
    0.5446    0.1684   -2.3424 H   0  0  0  0  0  0  0  0  0  0  0  0
  2  1  1  6
  2  3  1  0
  3  4  1  0
  4  5  1  0
  5  6  1  0
  6  7  1  0
  7  8  1  0
  8  9  1  0
  8 10  1  0
  6 11  1  0
 10  2  1  0
 11  2  1  0
  9  4  1  0
  1 12  1  0
  1 13  1  0
  1 14  1  0
  3 15  1  0
  3 16  1  0
  4 17  1  1
  5 18  1  0
  5 19  1  0
  6 20  1  6
  7 21  1  0
  7 22  1  0
  8 23  1  1
  9 24  1  0
  9 25  1  0
 10 26  1  0
 10 27  1  0
 11 28  1  0
 11 29  1  0
M  CHG  1   1   1
M  END
>  <_SMILES>  (85) 
[NH3+][C@]12C[C@H]3C[C@H](C[C@H](C3)C1)C2

$$$$

     RDKit          3D

 50 54  0  0  0  0  0  0  0  0999 V2000
   -0.8027   -1.8337    1.9593 O   0  0  0  0  0  0  0  0  0  0  0  0
   -0.2132   -1.3395    1.0047 C   0  0  0  0  0  0  0  0  0  0  0  0
   -0.8030   -0.5544    0.0383 N   0  0  0  0  0  0  0  0  0  0  0  0
   -2.2099   -0.1735   -0.0242 C   0  0  2  0  0  0  0  0  0  0  0  0
   -2.4248    0.7142   -1.2789 C   0  0  0  0  0  0  0  0  0  0  0  0
   -3.8938    1.1496   -1.4007 C   0  0  1  0  0  0  0  0  0  0  0  0
   -4.7822   -0.0994   -1.5105 C   0  0  0  0  0  0  0  0  0  0  0  0
   -4.6043   -0.9812   -0.2644 C   0  0  2  0  0  0  0  0  0  0  0  0
   -4.9930   -0.1756    0.9869 C   0  0  0  0  0  0  0  0  0  0  0  0
   -4.1079    1.0767    1.1064 C   0  0  2  0  0  0  0  0  0  0  0  0
   -4.2887    1.9467   -0.1476 C   0  0  0  0  0  0  0  0  0  0  0  0
   -2.6346    0.6467    1.2191 C   0  0  0  0  0  0  0  0  0  0  0  0
   -3.1311   -1.4119   -0.1520 C   0  0  0  0  0  0  0  0  0  0  0  0
    1.2290   -1.5336    0.7751 C   0  0  0  0  0  0  0  0  0  0  0  0
    2.1279   -2.2817    1.5774 C   0  0  0  0  0  0  0  0  0  0  0  0
    3.3503   -2.1675    0.9624 C   0  0  0  0  0  0  0  0  0  0  0  0
    3.1499   -1.3755   -0.1322 N   0  0  0  0  0  0  0  0  0  0  0  0
    4.1520   -0.9903   -1.1189 C   0  0  0  0  0  0  0  0  0  0  0  0
    5.0747    0.0810   -0.5935 C   0  0  0  0  0  0  0  0  0  0  0  0
    6.4286   -0.1967   -0.3532 C   0  0  0  0  0  0  0  0  0  0  0  0
    7.2799    0.7984    0.1307 C   0  0  0  0  0  0  0  0  0  0  0  0
    6.7889    2.0788    0.3785 C   0  0  0  0  0  0  0  0  0  0  0  0
    5.4464    2.3673    0.1430 C   0  0  0  0  0  0  0  0  0  0  0  0
    4.5933    1.3751   -0.3415 C   0  0  0  0  0  0  0  0  0  0  0  0
    1.8641   -0.9879   -0.2858 N   0  0  0  0  0  0  0  0  0  0  0  0
   -0.1560   -0.2348   -0.6794 H   0  0  0  0  0  0  0  0  0  0  0  0
   -2.1246    0.1682   -2.1834 H   0  0  0  0  0  0  0  0  0  0  0  0
   -1.7789    1.6011   -1.2288 H   0  0  0  0  0  0  0  0  0  0  0  0
   -4.0221    1.7741   -2.2918 H   0  0  0  0  0  0  0  0  0  0  0  0
   -5.8335    0.1963   -1.6135 H   0  0  0  0  0  0  0  0  0  0  0  0
   -4.5215   -0.6673   -2.4120 H   0  0  0  0  0  0  0  0  0  0  0  0
   -5.2425   -1.8682   -0.3459 H   0  0  0  0  0  0  0  0  0  0  0  0
   -6.0487    0.1170    0.9300 H   0  0  0  0  0  0  0  0  0  0  0  0
   -4.8834   -0.7989    1.8830 H   0  0  0  0  0  0  0  0  0  0  0  0
   -4.3943    1.6482    1.9964 H   0  0  0  0  0  0  0  0  0  0  0  0
   -3.6728    2.8510   -0.0686 H   0  0  0  0  0  0  0  0  0  0  0  0
   -5.3315    2.2776   -0.2271 H   0  0  0  0  0  0  0  0  0  0  0  0
   -2.5020    0.0620    2.1372 H   0  0  0  0  0  0  0  0  0  0  0  0
   -1.9940    1.5322    1.3241 H   0  0  0  0  0  0  0  0  0  0  0  0
   -3.0174   -2.0748    0.7139 H   0  0  0  0  0  0  0  0  0  0  0  0
   -2.8471   -2.0045   -1.0316 H   0  0  0  0  0  0  0  0  0  0  0  0
    1.8947   -2.8252    2.4828 H   0  0  0  0  0  0  0  0  0  0  0  0
    4.3251   -2.5624    1.2121 H   0  0  0  0  0  0  0  0  0  0  0  0
    3.6347   -0.6399   -2.0196 H   0  0  0  0  0  0  0  0  0  0  0  0
    4.7003   -1.9007   -1.3873 H   0  0  0  0  0  0  0  0  0  0  0  0
    6.8329   -1.1894   -0.5389 H   0  0  0  0  0  0  0  0  0  0  0  0
    8.3275    0.5749    0.3161 H   0  0  0  0  0  0  0  0  0  0  0  0
    7.4522    2.8521    0.7573 H   0  0  0  0  0  0  0  0  0  0  0  0
    5.0618    3.3649    0.3394 H   0  0  0  0  0  0  0  0  0  0  0  0
    3.5450    1.6143   -0.5150 H   0  0  0  0  0  0  0  0  0  0  0  0
  1  2  2  0
  2  3  1  0
  4  3  1  1
  4  5  1  0
  5  6  1  0
  6  7  1  0
  7  8  1  0
  8  9  1  0
  9 10  1  0
 10 11  1  0
 10 12  1  0
  8 13  1  0
  2 14  1  0
 14 15  1  0
 15 16  2  0
 16 17  1  0
 17 18  1  0
 18 19  1  0
 19 20  2  0
 20 21  1  0
 21 22  2  0
 22 23  1  0
 23 24  2  0
 17 25  1  0
 12  4  1  0
 25 14  2  0
 13  4  1  0
 24 19  1  0
 11  6  1  0
  3 26  1  0
  5 27  1  0
  5 28  1  0
  6 29  1  6
  7 30  1  0
  7 31  1  0
  8 32  1  6
  9 33  1  0
  9 34  1  0
 10 35  1  1
 11 36  1  0
 11 37  1  0
 12 38  1  0
 12 39  1  0
 13 40  1  0
 13 41  1  0
 15 42  1  0
 16 43  1  0
 18 44  1  0
 18 45  1  0
 20 46  1  0
 21 47  1  0
 22 48  1  0
 23 49  1  0
 24 50  1  0
M  END
>  <_SMILES>  (86) 
O=C(N[C@]12C[C@H]3C[C@H](C[C@H](C3)C1)C2)c1ccn(Cc2ccccc2)n1

$$$$

     RDKit          3D

 56 60  0  0  0  0  0  0  0  0999 V2000
    2.6117   -2.5672   -0.2709 C   0  0  0  0  0  0  0  0  0  0  0  0
    1.9658   -1.3292    0.1017 N   0  0  0  0  0  0  0  0  0  0  0  0
    0.6296   -1.2224   -0.0341 N   0  0  0  0  0  0  0  0  0  0  0  0
    0.3491    0.0233    0.4030 C   0  0  0  0  0  0  0  0  0  0  0  0
   -1.0251    0.5528    0.4236 C   0  0  0  0  0  0  0  0  0  0  0  0
   -1.2917    1.6832    0.8165 O   0  0  0  0  0  0  0  0  0  0  0  0
   -1.9505   -0.3556   -0.0417 N   0  0  0  0  0  0  0  0  0  0  0  0
   -3.3898   -0.1445   -0.1482 C   0  0  2  0  0  0  0  0  0  0  0  0
   -4.0360   -1.4335   -0.7220 C   0  0  0  0  0  0  0  0  0  0  0  0
   -5.5585   -1.2729   -0.8583 C   0  0  1  0  0  0  0  0  0  0  0  0
   -6.1605   -0.9820    0.5254 C   0  0  0  0  0  0  0  0  0  0  0  0
   -5.5527    0.3065    1.1018 C   0  0  2  0  0  0  0  0  0  0  0  0
   -5.8493    1.4775    0.1495 C   0  0  0  0  0  0  0  0  0  0  0  0
   -5.2493    1.1961   -1.2386 C   0  0  2  0  0  0  0  0  0  0  0  0
   -5.8589   -0.0975   -1.8015 C   0  0  0  0  0  0  0  0  0  0  0  0
   -3.7256    1.0250   -1.1064 C   0  0  0  0  0  0  0  0  0  0  0  0
   -4.0291    0.1352    1.2345 C   0  0  0  0  0  0  0  0  0  0  0  0
    1.5283    0.6918    0.8131 C   0  0  0  0  0  0  0  0  0  0  0  0
    2.5587   -0.2010    0.6072 C   0  0  0  0  0  0  0  0  0  0  0  0
    4.0246   -0.0569    0.8553 C   0  0  0  0  0  0  0  0  0  0  0  0
    4.7402    0.5659   -0.3475 C   0  0  0  0  0  0  0  0  0  0  0  0
    6.2274    0.6697   -0.1166 C   0  0  0  0  0  0  0  0  0  0  0  0
    6.7642    1.7725    0.5611 C   0  0  0  0  0  0  0  0  0  0  0  0
    8.1375    1.8595    0.7933 C   0  0  0  0  0  0  0  0  0  0  0  0
    8.9855    0.8447    0.3538 C   0  0  0  0  0  0  0  0  0  0  0  0
    8.4612   -0.2583   -0.3174 C   0  0  0  0  0  0  0  0  0  0  0  0
    7.0879   -0.3475   -0.5505 C   0  0  0  0  0  0  0  0  0  0  0  0
    3.4595   -2.3398   -0.9212 H   0  0  0  0  0  0  0  0  0  0  0  0
    1.9009   -3.2025   -0.8062 H   0  0  0  0  0  0  0  0  0  0  0  0
    2.9453   -3.0659    0.6422 H   0  0  0  0  0  0  0  0  0  0  0  0
   -1.5428   -1.2449   -0.3232 H   0  0  0  0  0  0  0  0  0  0  0  0
   -3.8111   -2.2899   -0.0722 H   0  0  0  0  0  0  0  0  0  0  0  0
   -3.5998   -1.6704   -1.7017 H   0  0  0  0  0  0  0  0  0  0  0  0
   -5.9929   -2.1932   -1.2644 H   0  0  0  0  0  0  0  0  0  0  0  0
   -7.2498   -0.8798    0.4463 H   0  0  0  0  0  0  0  0  0  0  0  0
   -5.9680   -1.8230    1.2027 H   0  0  0  0  0  0  0  0  0  0  0  0
   -5.9878    0.5115    2.0863 H   0  0  0  0  0  0  0  0  0  0  0  0
   -5.4321    2.4067    0.5568 H   0  0  0  0  0  0  0  0  0  0  0  0
   -6.9329    1.6254    0.0652 H   0  0  0  0  0  0  0  0  0  0  0  0
   -5.4694    2.0316   -1.9126 H   0  0  0  0  0  0  0  0  0  0  0  0
   -6.9430    0.0199   -1.9207 H   0  0  0  0  0  0  0  0  0  0  0  0
   -5.4493   -0.3021   -2.7983 H   0  0  0  0  0  0  0  0  0  0  0  0
   -3.2832    0.8424   -2.0945 H   0  0  0  0  0  0  0  0  0  0  0  0
   -3.2904    1.9642   -0.7446 H   0  0  0  0  0  0  0  0  0  0  0  0
   -3.8046   -0.6864    1.9274 H   0  0  0  0  0  0  0  0  0  0  0  0
   -3.6053    1.0405    1.6852 H   0  0  0  0  0  0  0  0  0  0  0  0
    1.5990    1.6971    1.2064 H   0  0  0  0  0  0  0  0  0  0  0  0
    4.1739    0.5720    1.7429 H   0  0  0  0  0  0  0  0  0  0  0  0
    4.4668   -1.0303    1.1011 H   0  0  0  0  0  0  0  0  0  0  0  0
    4.3354    1.5645   -0.5592 H   0  0  0  0  0  0  0  0  0  0  0  0
    4.5526   -0.0241   -1.2542 H   0  0  0  0  0  0  0  0  0  0  0  0
    6.1148    2.5719    0.9117 H   0  0  0  0  0  0  0  0  0  0  0  0
    8.5458    2.7198    1.3173 H   0  0  0  0  0  0  0  0  0  0  0  0
   10.0550    0.9140    0.5343 H   0  0  0  0  0  0  0  0  0  0  0  0
    9.1231   -1.0493   -0.6602 H   0  0  0  0  0  0  0  0  0  0  0  0
    6.6954   -1.2151   -1.0755 H   0  0  0  0  0  0  0  0  0  0  0  0
  1  2  1  0
  2  3  1  0
  3  4  2  0
  4  5  1  0
  5  6  2  0
  5  7  1  0
  8  7  1  1
  8  9  1  0
  9 10  1  0
 10 11  1  0
 11 12  1  0
 12 13  1  0
 13 14  1  0
 14 15  1  0
 14 16  1  0
 12 17  1  0
  4 18  1  0
 18 19  2  0
 19 20  1  0
 20 21  1  0
 21 22  1  0
 22 23  2  0
 23 24  1  0
 24 25  2  0
 25 26  1  0
 26 27  2  0
 19  2  1  0
 27 22  1  0
 16  8  1  0
 17  8  1  0
 15 10  1  0
  1 28  1  0
  1 29  1  0
  1 30  1  0
  7 31  1  0
  9 32  1  0
  9 33  1  0
 10 34  1  6
 11 35  1  0
 11 36  1  0
 12 37  1  1
 13 38  1  0
 13 39  1  0
 14 40  1  6
 15 41  1  0
 15 42  1  0
 16 43  1  0
 16 44  1  0
 17 45  1  0
 17 46  1  0
 18 47  1  0
 20 48  1  0
 20 49  1  0
 21 50  1  0
 21 51  1  0
 23 52  1  0
 24 53  1  0
 25 54  1  0
 26 55  1  0
 27 56  1  0
M  END
>  <_SMILES>  (87) 
Cn1nc(C(=O)N[C@]23C[C@H]4C[C@H](C[C@H](C4)C2)C3)cc1CCc1ccccc1

$$$$

     RDKit          3D

 49 53  0  0  0  0  0  0  0  0999 V2000
   -0.1331    0.2970   -1.6557 O   0  0  0  0  0  0  0  0  0  0  0  0
    0.0448    0.5556   -0.4707 C   0  0  0  0  0  0  0  0  0  0  0  0
   -0.9460    0.5532    0.4871 N   0  0  0  0  0  0  0  0  0  0  0  0
   -2.3546    0.2363    0.2568 C   0  0  2  0  0  0  0  0  0  0  0  0
   -3.1127    0.3557    1.6063 C   0  0  0  0  0  0  0  0  0  0  0  0
   -4.6052    0.0330    1.4311 C   0  0  1  0  0  0  0  0  0  0  0  0
   -5.2184    1.0165    0.4222 C   0  0  0  0  0  0  0  0  0  0  0  0
   -4.4991    0.8967   -0.9306 C   0  0  2  0  0  0  0  0  0  0  0  0
   -4.6415   -0.5422   -1.4554 C   0  0  0  0  0  0  0  0  0  0  0  0
   -4.0296   -1.5347   -0.4521 C   0  0  2  0  0  0  0  0  0  0  0  0
   -4.7515   -1.4008    0.8979 C   0  0  0  0  0  0  0  0  0  0  0  0
   -2.5368   -1.2105   -0.2654 C   0  0  0  0  0  0  0  0  0  0  0  0
   -3.0066    1.2224   -0.7441 C   0  0  0  0  0  0  0  0  0  0  0  0
    1.3541    0.9033    0.0640 C   0  0  0  0  0  0  0  0  0  0  0  0
    2.5492    0.9829   -0.6194 C   0  0  0  0  0  0  0  0  0  0  0  0
    3.4562    1.3293    0.3362 N   0  0  0  0  0  0  0  0  0  0  0  0
    4.8749    1.5862    0.1698 C   0  0  0  0  0  0  0  0  0  0  0  0
    5.6588    0.3059    0.0297 C   0  0  0  0  0  0  0  0  0  0  0  0
    5.8603   -0.5292    1.1396 C   0  0  0  0  0  0  0  0  0  0  0  0
    6.5804   -1.7174    1.0106 C   0  0  0  0  0  0  0  0  0  0  0  0
    7.1060   -2.0840   -0.2265 C   0  0  0  0  0  0  0  0  0  0  0  0
    6.9115   -1.2641   -1.3363 C   0  0  0  0  0  0  0  0  0  0  0  0
    6.1913   -0.0749   -1.2109 C   0  0  0  0  0  0  0  0  0  0  0  0
    2.8676    1.4854    1.5383 N   0  0  0  0  0  0  0  0  0  0  0  0
    1.5774    1.2168    1.3869 N   0  0  0  0  0  0  0  0  0  0  0  0
   -0.6441    0.7817    1.4297 H   0  0  0  0  0  0  0  0  0  0  0  0
   -2.9989    1.3690    2.0146 H   0  0  0  0  0  0  0  0  0  0  0  0
   -2.6721   -0.3240    2.3480 H   0  0  0  0  0  0  0  0  0  0  0  0
   -5.1190    0.1234    2.3946 H   0  0  0  0  0  0  0  0  0  0  0  0
   -5.1362    2.0426    0.8010 H   0  0  0  0  0  0  0  0  0  0  0  0
   -6.2880    0.8077    0.2978 H   0  0  0  0  0  0  0  0  0  0  0  0
   -4.9425    1.5970   -1.6474 H   0  0  0  0  0  0  0  0  0  0  0  0
   -4.1435   -0.6374   -2.4281 H   0  0  0  0  0  0  0  0  0  0  0  0
   -5.7007   -0.7783   -1.6158 H   0  0  0  0  0  0  0  0  0  0  0  0
   -4.1402   -2.5574   -0.8298 H   0  0  0  0  0  0  0  0  0  0  0  0
   -4.3334   -2.1138    1.6190 H   0  0  0  0  0  0  0  0  0  0  0  0
   -5.8132   -1.6510    0.7818 H   0  0  0  0  0  0  0  0  0  0  0  0
   -2.0189   -1.3497   -1.2217 H   0  0  0  0  0  0  0  0  0  0  0  0
   -2.0843   -1.9244    0.4354 H   0  0  0  0  0  0  0  0  0  0  0  0
   -2.8911    2.2542   -0.3869 H   0  0  0  0  0  0  0  0  0  0  0  0
   -2.5074    1.1781   -1.7193 H   0  0  0  0  0  0  0  0  0  0  0  0
    2.8072    0.8162   -1.6548 H   0  0  0  0  0  0  0  0  0  0  0  0
    5.2303    2.1606    1.0333 H   0  0  0  0  0  0  0  0  0  0  0  0
    4.9863    2.2242   -0.7146 H   0  0  0  0  0  0  0  0  0  0  0  0
    5.4500   -0.2616    2.1125 H   0  0  0  0  0  0  0  0  0  0  0  0
    6.7278   -2.3592    1.8757 H   0  0  0  0  0  0  0  0  0  0  0  0
    7.6648   -3.0110   -0.3261 H   0  0  0  0  0  0  0  0  0  0  0  0
    7.3200   -1.5535   -2.3014 H   0  0  0  0  0  0  0  0  0  0  0  0
    6.0496    0.5482   -2.0915 H   0  0  0  0  0  0  0  0  0  0  0  0
  1  2  2  0
  2  3  1  0
  4  3  1  1
  4  5  1  0
  5  6  1  0
  6  7  1  0
  7  8  1  0
  8  9  1  0
  9 10  1  0
 10 11  1  0
 10 12  1  0
  8 13  1  0
  2 14  1  0
 14 15  2  0
 15 16  1  0
 16 17  1  0
 17 18  1  0
 18 19  2  0
 19 20  1  0
 20 21  2  0
 21 22  1  0
 22 23  2  0
 16 24  1  0
 24 25  2  0
 12  4  1  0
 25 14  1  0
 13  4  1  0
 23 18  1  0
 11  6  1  0
  3 26  1  0
  5 27  1  0
  5 28  1  0
  6 29  1  1
  7 30  1  0
  7 31  1  0
  8 32  1  6
  9 33  1  0
  9 34  1  0
 10 35  1  6
 11 36  1  0
 11 37  1  0
 12 38  1  0
 12 39  1  0
 13 40  1  0
 13 41  1  0
 15 42  1  0
 17 43  1  0
 17 44  1  0
 19 45  1  0
 20 46  1  0
 21 47  1  0
 22 48  1  0
 23 49  1  0
M  END
>  <_SMILES>  (88) 
O=C(N[C@]12C[C@H]3C[C@H](C[C@H](C3)C1)C2)c1cn(Cc2ccccc2)nn1

$$$$

     RDKit          3D

 53 57  0  0  0  0  0  0  0  0999 V2000
    5.1460   -3.0652   -0.7285 C   0  0  0  0  0  0  0  0  0  0  0  0
    4.6125   -2.4302    0.5478 C   0  0  0  0  0  0  0  0  0  0  0  0
    3.3133   -1.7283    0.3237 C   0  0  0  0  0  0  0  0  0  0  0  0
    2.0675   -2.3218    0.2425 C   0  0  0  0  0  0  0  0  0  0  0  0
    1.1346   -1.2718    0.1980 C   0  0  0  0  0  0  0  0  0  0  0  0
   -0.3318   -1.3869    0.1342 C   0  0  0  0  0  0  0  0  0  0  0  0
   -0.9068   -2.4691    0.1043 O   0  0  0  0  0  0  0  0  0  0  0  0
   -0.9611   -0.1617    0.1110 N   0  0  0  0  0  0  0  0  0  0  0  0
   -2.4004    0.0679    0.0439 C   0  0  2  0  0  0  0  0  0  0  0  0
   -3.0121   -0.5207   -1.2514 C   0  0  0  0  0  0  0  0  0  0  0  0
   -4.5205   -0.2235   -1.3212 C   0  0  1  0  0  0  0  0  0  0  0  0
   -5.2152   -0.8407   -0.0954 C   0  0  0  0  0  0  0  0  0  0  0  0
   -4.6405   -0.2381    1.1980 C   0  0  2  0  0  0  0  0  0  0  0  0
   -4.8588    1.2831    1.1891 C   0  0  0  0  0  0  0  0  0  0  0  0
   -4.1597    1.9065   -0.0291 C   0  0  2  0  0  0  0  0  0  0  0  0
   -4.7394    1.2976   -1.3155 C   0  0  0  0  0  0  0  0  0  0  0  0
   -2.6555    1.5987    0.0408 C   0  0  0  0  0  0  0  0  0  0  0  0
   -3.1322   -0.5353    1.2684 C   0  0  0  0  0  0  0  0  0  0  0  0
    1.7524   -0.0805    0.2483 N   0  0  0  0  0  0  0  0  0  0  0  0
    3.0912   -0.3542    0.2415 N   0  0  0  0  0  0  0  0  0  0  0  0
    4.0002    0.7487    0.1577 C   0  0  0  0  0  0  0  0  0  0  0  0
    3.5189    2.0430    0.4313 C   0  0  0  0  0  0  0  0  0  0  0  0
    4.3647    3.1531    0.3610 C   0  0  0  0  0  0  0  0  0  0  0  0
    5.6986    2.9890    0.0035 C   0  0  0  0  0  0  0  0  0  0  0  0
    6.1827    1.7175   -0.2924 C   0  0  0  0  0  0  0  0  0  0  0  0
    5.3384    0.6027   -0.2214 C   0  0  0  0  0  0  0  0  0  0  0  0
    4.4592   -3.8327   -1.1023 H   0  0  0  0  0  0  0  0  0  0  0  0
    5.2814   -2.3292   -1.5269 H   0  0  0  0  0  0  0  0  0  0  0  0
    6.1113   -3.5445   -0.5370 H   0  0  0  0  0  0  0  0  0  0  0  0
    5.3598   -1.7794    1.0087 H   0  0  0  0  0  0  0  0  0  0  0  0
    4.4492   -3.2303    1.2824 H   0  0  0  0  0  0  0  0  0  0  0  0
    1.8489   -3.3816    0.2610 H   0  0  0  0  0  0  0  0  0  0  0  0
   -0.3216    0.6295    0.1382 H   0  0  0  0  0  0  0  0  0  0  0  0
   -2.5076   -0.1010   -2.1317 H   0  0  0  0  0  0  0  0  0  0  0  0
   -2.8587   -1.6054   -1.2984 H   0  0  0  0  0  0  0  0  0  0  0  0
   -4.9388   -0.6532   -2.2383 H   0  0  0  0  0  0  0  0  0  0  0  0
   -5.0778   -1.9290   -0.0952 H   0  0  0  0  0  0  0  0  0  0  0  0
   -6.2953   -0.6562   -0.1458 H   0  0  0  0  0  0  0  0  0  0  0  0
   -5.1439   -0.6781    2.0661 H   0  0  0  0  0  0  0  0  0  0  0  0
   -4.4656    1.7237    2.1135 H   0  0  0  0  0  0  0  0  0  0  0  0
   -5.9322    1.5076    1.1609 H   0  0  0  0  0  0  0  0  0  0  0  0
   -4.3161    2.9910   -0.0303 H   0  0  0  0  0  0  0  0  0  0  0  0
   -5.8107    1.5224   -1.3869 H   0  0  0  0  0  0  0  0  0  0  0  0
   -4.2603    1.7487   -2.1932 H   0  0  0  0  0  0  0  0  0  0  0  0
   -2.2261    2.0548    0.9430 H   0  0  0  0  0  0  0  0  0  0  0  0
   -2.1425    2.0651   -0.8111 H   0  0  0  0  0  0  0  0  0  0  0  0
   -2.7139   -0.1261    2.1975 H   0  0  0  0  0  0  0  0  0  0  0  0
   -2.9835   -1.6205    1.3173 H   0  0  0  0  0  0  0  0  0  0  0  0
    2.4817    2.2053    0.7191 H   0  0  0  0  0  0  0  0  0  0  0  0
    3.9779    4.1440    0.5852 H   0  0  0  0  0  0  0  0  0  0  0  0
    6.3575    3.8514   -0.0551 H   0  0  0  0  0  0  0  0  0  0  0  0
    7.2203    1.5918   -0.5932 H   0  0  0  0  0  0  0  0  0  0  0  0
    5.7604   -0.3482   -0.5161 H   0  0  0  0  0  0  0  0  0  0  0  0
  1  2  1  0
  2  3  1  0
  3  4  2  0
  4  5  1  0
  5  6  1  0
  6  7  2  0
  6  8  1  0
  9  8  1  1
  9 10  1  0
 10 11  1  0
 11 12  1  0
 12 13  1  0
 13 14  1  0
 14 15  1  0
 15 16  1  0
 15 17  1  0
 13 18  1  0
  5 19  2  0
 19 20  1  0
 20 21  1  0
 21 22  2  0
 22 23  1  0
 23 24  2  0
 24 25  1  0
 25 26  2  0
 20  3  1  0
 26 21  1  0
 17  9  1  0
 18  9  1  0
 16 11  1  0
  1 27  1  0
  1 28  1  0
  1 29  1  0
  2 30  1  0
  2 31  1  0
  4 32  1  0
  8 33  1  0
 10 34  1  0
 10 35  1  0
 11 36  1  6
 12 37  1  0
 12 38  1  0
 13 39  1  1
 14 40  1  0
 14 41  1  0
 15 42  1  6
 16 43  1  0
 16 44  1  0
 17 45  1  0
 17 46  1  0
 18 47  1  0
 18 48  1  0
 22 49  1  0
 23 50  1  0
 24 51  1  0
 25 52  1  0
 26 53  1  0
M  END
>  <_SMILES>  (89) 
CCc1cc(C(=O)N[C@]23C[C@H]4C[C@H](C[C@H](C4)C2)C3)nn1-c1ccccc1

$$$$

     RDKit          3D

 55 58  0  0  0  0  0  0  0  0999 V2000
   -5.1497   -2.6324   -0.7893 C   0  0  0  0  0  0  0  0  0  0  0  0
   -5.0173   -2.7950    0.7186 C   0  0  0  0  0  0  0  0  0  0  0  0
   -4.6849   -1.4850    1.4398 C   0  0  0  0  0  0  0  0  0  0  0  0
   -3.3094   -0.9794    1.1406 C   0  0  0  0  0  0  0  0  0  0  0  0
   -2.0900   -1.6194    1.2410 C   0  0  0  0  0  0  0  0  0  0  0  0
   -1.1166   -0.6750    0.8408 C   0  0  0  0  0  0  0  0  0  0  0  0
    0.3400   -0.8768    0.7625 C   0  0  0  0  0  0  0  0  0  0  0  0
    0.8772   -1.9400    1.0529 O   0  0  0  0  0  0  0  0  0  0  0  0
    1.0080    0.2485    0.3314 N   0  0  0  0  0  0  0  0  0  0  0  0
    2.4479    0.3777    0.1388 C   0  0  2  0  0  0  0  0  0  0  0  0
    2.9714   -0.6139   -0.9295 C   0  0  0  0  0  0  0  0  0  0  0  0
    4.4829   -0.4250   -1.1489 C   0  0  1  0  0  0  0  0  0  0  0  0
    4.7510    1.0099   -1.6297 C   0  0  0  0  0  0  0  0  0  0  0  0
    4.2596    2.0164   -0.5775 C   0  0  2  0  0  0  0  0  0  0  0  0
    5.0011    1.7719    0.7461 C   0  0  0  0  0  0  0  0  0  0  0  0
    4.7344    0.3415    1.2407 C   0  0  2  0  0  0  0  0  0  0  0  0
    5.2206   -0.6609    0.1801 C   0  0  0  0  0  0  0  0  0  0  0  0
    3.2230    0.1527    1.4606 C   0  0  0  0  0  0  0  0  0  0  0  0
    2.7519    1.8172   -0.3548 C   0  0  0  0  0  0  0  0  0  0  0  0
   -1.6928    0.5012    0.5221 N   0  0  0  0  0  0  0  0  0  0  0  0
   -3.0126    0.2923    0.7142 N   0  0  0  0  0  0  0  0  0  0  0  0
   -3.9214    1.4055    0.5012 C   0  0  0  0  0  0  0  0  0  0  0  0
   -4.6101    1.3896   -0.8627 C   0  0  0  0  0  0  0  0  0  0  0  0
   -3.6473    1.5901   -2.0242 C   0  0  0  0  0  0  0  0  0  0  0  0
   -4.2133   -2.2925   -1.2421 H   0  0  0  0  0  0  0  0  0  0  0  0
   -5.9356   -1.9122   -1.0371 H   0  0  0  0  0  0  0  0  0  0  0  0
   -5.4153   -3.5902   -1.2482 H   0  0  0  0  0  0  0  0  0  0  0  0
   -4.2619   -3.5593    0.9356 H   0  0  0  0  0  0  0  0  0  0  0  0
   -5.9691   -3.1750    1.1092 H   0  0  0  0  0  0  0  0  0  0  0  0
   -5.4519   -0.7424    1.1979 H   0  0  0  0  0  0  0  0  0  0  0  0
   -4.7523   -1.6555    2.5217 H   0  0  0  0  0  0  0  0  0  0  0  0
   -1.9090   -2.6385    1.5557 H   0  0  0  0  0  0  0  0  0  0  0  0
    0.3935    1.0357    0.1335 H   0  0  0  0  0  0  0  0  0  0  0  0
    2.4353   -0.4666   -1.8763 H   0  0  0  0  0  0  0  0  0  0  0  0
    2.7806   -1.6506   -0.6274 H   0  0  0  0  0  0  0  0  0  0  0  0
    4.8383   -1.1386   -1.9006 H   0  0  0  0  0  0  0  0  0  0  0  0
    5.8237    1.1504   -1.8105 H   0  0  0  0  0  0  0  0  0  0  0  0
    4.2413    1.1867   -2.5848 H   0  0  0  0  0  0  0  0  0  0  0  0
    4.4507    3.0377   -0.9252 H   0  0  0  0  0  0  0  0  0  0  0  0
    6.0782    1.9255    0.6063 H   0  0  0  0  0  0  0  0  0  0  0  0
    4.6715    2.4970    1.5004 H   0  0  0  0  0  0  0  0  0  0  0  0
    5.2682    0.1711    2.1823 H   0  0  0  0  0  0  0  0  0  0  0  0
    5.0483   -1.6871    0.5274 H   0  0  0  0  0  0  0  0  0  0  0  0
    6.3021   -0.5526    0.0315 H   0  0  0  0  0  0  0  0  0  0  0  0
    3.0421   -0.8549    1.8535 H   0  0  0  0  0  0  0  0  0  0  0  0
    2.8676    0.8505    2.2302 H   0  0  0  0  0  0  0  0  0  0  0  0
    2.2103    2.0181   -1.2890 H   0  0  0  0  0  0  0  0  0  0  0  0
    2.3855    2.5517    0.3749 H   0  0  0  0  0  0  0  0  0  0  0  0
   -3.3508    2.3328    0.6340 H   0  0  0  0  0  0  0  0  0  0  0  0
   -4.6652    1.3775    1.3049 H   0  0  0  0  0  0  0  0  0  0  0  0
   -5.1536    0.4503   -1.0074 H   0  0  0  0  0  0  0  0  0  0  0  0
   -5.3542    2.1945   -0.8851 H   0  0  0  0  0  0  0  0  0  0  0  0
   -2.9453    0.7553   -2.1101 H   0  0  0  0  0  0  0  0  0  0  0  0
   -3.0740    2.5149   -1.9049 H   0  0  0  0  0  0  0  0  0  0  0  0
   -4.2027    1.6550   -2.9653 H   0  0  0  0  0  0  0  0  0  0  0  0
  1  2  1  0
  2  3  1  0
  3  4  1  0
  4  5  2  0
  5  6  1  0
  6  7  1  0
  7  8  2  0
  7  9  1  0
 10  9  1  1
 10 11  1  0
 11 12  1  0
 12 13  1  0
 13 14  1  0
 14 15  1  0
 15 16  1  0
 16 17  1  0
 16 18  1  0
 14 19  1  0
  6 20  2  0
 20 21  1  0
 21 22  1  0
 22 23  1  0
 23 24  1  0
 21  4  1  0
 18 10  1  0
 19 10  1  0
 17 12  1  0
  1 25  1  0
  1 26  1  0
  1 27  1  0
  2 28  1  0
  2 29  1  0
  3 30  1  0
  3 31  1  0
  5 32  1  0
  9 33  1  0
 11 34  1  0
 11 35  1  0
 12 36  1  6
 13 37  1  0
 13 38  1  0
 14 39  1  6
 15 40  1  0
 15 41  1  0
 16 42  1  1
 17 43  1  0
 17 44  1  0
 18 45  1  0
 18 46  1  0
 19 47  1  0
 19 48  1  0
 22 49  1  0
 22 50  1  0
 23 51  1  0
 23 52  1  0
 24 53  1  0
 24 54  1  0
 24 55  1  0
M  END
>  <_SMILES>  (90) 
CCCc1cc(C(=O)N[C@]23C[C@H]4C[C@H](C[C@H](C4)C2)C3)nn1CCC

$$$$

     RDKit          3D

 58 61  0  0  0  0  0  0  0  0999 V2000
    6.0778   -3.3526    1.4031 C   0  0  0  0  0  0  0  0  0  0  0  0
    5.9552   -2.5797    0.0991 C   0  0  0  0  0  0  0  0  0  0  0  0
    4.5663   -1.9801   -0.1248 C   0  0  0  0  0  0  0  0  0  0  0  0
    4.2025   -0.9076    0.9008 C   0  0  0  0  0  0  0  0  0  0  0  0
    2.9322   -0.2696    0.5893 N   0  0  0  0  0  0  0  0  0  0  0  0
    1.8043   -0.8425    1.0386 N   0  0  0  0  0  0  0  0  0  0  0  0
    0.8102   -0.0372    0.6276 C   0  0  0  0  0  0  0  0  0  0  0  0
   -0.6067   -0.3299    0.9412 C   0  0  0  0  0  0  0  0  0  0  0  0
   -0.9474   -1.1114    1.8247 O   0  0  0  0  0  0  0  0  0  0  0  0
   -1.5195    0.3408    0.1392 N   0  0  0  0  0  0  0  0  0  0  0  0
   -2.9723    0.1513    0.1943 C   0  0  2  0  0  0  0  0  0  0  0  0
   -3.6248    1.1059   -0.8436 C   0  0  0  0  0  0  0  0  0  0  0  0
   -5.1544    0.9569   -0.8480 C   0  0  1  0  0  0  0  0  0  0  0  0
   -5.5184   -0.4943   -1.1988 C   0  0  0  0  0  0  0  0  0  0  0  0
   -4.9057   -1.4535   -0.1661 C   0  0  2  0  0  0  0  0  0  0  0  0
   -5.4445   -1.1048    1.2319 C   0  0  0  0  0  0  0  0  0  0  0  0
   -5.0848    0.3470    1.5916 C   0  0  2  0  0  0  0  0  0  0  0  0
   -5.6972    1.2947    0.5489 C   0  0  0  0  0  0  0  0  0  0  0  0
   -3.5538    0.5050    1.5870 C   0  0  0  0  0  0  0  0  0  0  0  0
   -3.3746   -1.2984   -0.1730 C   0  0  0  0  0  0  0  0  0  0  0  0
    1.3482    1.0623   -0.0995 C   0  0  0  0  0  0  0  0  0  0  0  0
    2.7177    0.8855   -0.1211 C   0  0  0  0  0  0  0  0  0  0  0  0
    3.8243    1.6975   -0.7170 C   0  0  0  0  0  0  0  0  0  0  0  0
    3.3382    2.7653   -1.6985 C   0  0  0  0  0  0  0  0  0  0  0  0
    4.5027    3.5335   -2.3049 C   0  0  0  0  0  0  0  0  0  0  0  0
    5.9783   -2.6938    2.2707 H   0  0  0  0  0  0  0  0  0  0  0  0
    5.3134   -4.1330    1.4708 H   0  0  0  0  0  0  0  0  0  0  0  0
    7.0593   -3.8337    1.4635 H   0  0  0  0  0  0  0  0  0  0  0  0
    6.1786   -3.2596   -0.7317 H   0  0  0  0  0  0  0  0  0  0  0  0
    6.7122   -1.7872    0.0721 H   0  0  0  0  0  0  0  0  0  0  0  0
    3.8132   -2.7781   -0.1132 H   0  0  0  0  0  0  0  0  0  0  0  0
    4.5365   -1.5466   -1.1325 H   0  0  0  0  0  0  0  0  0  0  0  0
    4.1078   -1.3321    1.9066 H   0  0  0  0  0  0  0  0  0  0  0  0
    4.9694   -0.1275    0.9466 H   0  0  0  0  0  0  0  0  0  0  0  0
   -1.1480    0.7786   -0.6911 H   0  0  0  0  0  0  0  0  0  0  0  0
   -3.2324    0.8965   -1.8479 H   0  0  0  0  0  0  0  0  0  0  0  0
   -3.3540    2.1468   -0.6208 H   0  0  0  0  0  0  0  0  0  0  0  0
   -5.5905    1.6368   -1.5884 H   0  0  0  0  0  0  0  0  0  0  0  0
   -5.1521   -0.7407   -2.2030 H   0  0  0  0  0  0  0  0  0  0  0  0
   -6.6087   -0.6126   -1.2198 H   0  0  0  0  0  0  0  0  0  0  0  0
   -5.1726   -2.4860   -0.4180 H   0  0  0  0  0  0  0  0  0  0  0  0
   -5.0241   -1.7909    1.9774 H   0  0  0  0  0  0  0  0  0  0  0  0
   -6.5333   -1.2368    1.2562 H   0  0  0  0  0  0  0  0  0  0  0  0
   -5.4773    0.5894    2.5855 H   0  0  0  0  0  0  0  0  0  0  0  0
   -5.4596    2.3352    0.8024 H   0  0  0  0  0  0  0  0  0  0  0  0
   -6.7905    1.2065    0.5579 H   0  0  0  0  0  0  0  0  0  0  0  0
   -3.2830    1.5338    1.8583 H   0  0  0  0  0  0  0  0  0  0  0  0
   -3.1319   -0.1383    2.3672 H   0  0  0  0  0  0  0  0  0  0  0  0
   -2.9393   -2.0161    0.5323 H   0  0  0  0  0  0  0  0  0  0  0  0
   -2.9771   -1.5611   -1.1622 H   0  0  0  0  0  0  0  0  0  0  0  0
    0.8049    1.8877   -0.5364 H   0  0  0  0  0  0  0  0  0  0  0  0
    4.5203    1.0298   -1.2397 H   0  0  0  0  0  0  0  0  0  0  0  0
    4.3838    2.1787    0.0949 H   0  0  0  0  0  0  0  0  0  0  0  0
    2.7574    2.3012   -2.5049 H   0  0  0  0  0  0  0  0  0  0  0  0
    2.6734    3.4736   -1.1895 H   0  0  0  0  0  0  0  0  0  0  0  0
    5.0862    4.0384   -1.5284 H   0  0  0  0  0  0  0  0  0  0  0  0
    4.1339    4.2934   -3.0009 H   0  0  0  0  0  0  0  0  0  0  0  0
    5.1703    2.8636   -2.8562 H   0  0  0  0  0  0  0  0  0  0  0  0
  1  2  1  0
  2  3  1  0
  3  4  1  0
  4  5  1  0
  5  6  1  0
  6  7  2  0
  7  8  1  0
  8  9  2  0
  8 10  1  0
 11 10  1  1
 11 12  1  0
 12 13  1  0
 13 14  1  0
 14 15  1  0
 15 16  1  0
 16 17  1  0
 17 18  1  0
 17 19  1  0
 15 20  1  0
  7 21  1  0
 21 22  2  0
 22 23  1  0
 23 24  1  0
 24 25  1  0
 22  5  1  0
 19 11  1  0
 20 11  1  0
 18 13  1  0
  1 26  1  0
  1 27  1  0
  1 28  1  0
  2 29  1  0
  2 30  1  0
  3 31  1  0
  3 32  1  0
  4 33  1  0
  4 34  1  0
 10 35  1  0
 12 36  1  0
 12 37  1  0
 13 38  1  6
 14 39  1  0
 14 40  1  0
 15 41  1  6
 16 42  1  0
 16 43  1  0
 17 44  1  1
 18 45  1  0
 18 46  1  0
 19 47  1  0
 19 48  1  0
 20 49  1  0
 20 50  1  0
 21 51  1  0
 23 52  1  0
 23 53  1  0
 24 54  1  0
 24 55  1  0
 25 56  1  0
 25 57  1  0
 25 58  1  0
M  END
>  <_SMILES>  (91) 
CCCCn1nc(C(=O)N[C@]23C[C@H]4C[C@H](C[C@H](C4)C2)C3)cc1CCC

$$$$

     RDKit          3D

 50 54  0  0  0  0  0  0  0  0999 V2000
    4.1338    2.6784   -0.1635 C   0  0  0  0  0  0  0  0  0  0  0  0
    3.2356    1.5239    0.0799 C   0  0  0  0  0  0  0  0  0  0  0  0
    1.8540    1.5375    0.0957 C   0  0  0  0  0  0  0  0  0  0  0  0
    1.4425    0.1980    0.2726 C   0  0  0  0  0  0  0  0  0  0  0  0
    0.0682   -0.3471    0.3461 C   0  0  0  0  0  0  0  0  0  0  0  0
   -0.1802   -1.4651    0.7875 O   0  0  0  0  0  0  0  0  0  0  0  0
   -0.9139    0.5036   -0.1407 N   0  0  0  0  0  0  0  0  0  0  0  0
   -2.3345    0.1561   -0.2513 C   0  0  2  0  0  0  0  0  0  0  0  0
   -2.5602   -1.0271   -1.2246 C   0  0  0  0  0  0  0  0  0  0  0  0
   -4.0620   -1.3312   -1.3680 C   0  0  1  0  0  0  0  0  0  0  0  0
   -4.6432   -1.6785    0.0133 C   0  0  0  0  0  0  0  0  0  0  0  0
   -4.4601   -0.4946    0.9783 C   0  0  2  0  0  0  0  0  0  0  0  0
   -5.1773    0.7393    0.4095 C   0  0  0  0  0  0  0  0  0  0  0  0
   -4.5934    1.0963   -0.9658 C   0  0  2  0  0  0  0  0  0  0  0  0
   -4.7809   -0.0913   -1.9228 C   0  0  0  0  0  0  0  0  0  0  0  0
   -3.0925    1.3899   -0.8150 C   0  0  0  0  0  0  0  0  0  0  0  0
   -2.9588   -0.1889    1.1250 C   0  0  0  0  0  0  0  0  0  0  0  0
    2.5141   -0.5987    0.3670 N   0  0  0  0  0  0  0  0  0  0  0  0
    3.6114    0.2021    0.3092 N   0  0  0  0  0  0  0  0  0  0  0  0
    4.9008   -0.4027    0.4750 C   0  0  0  0  0  0  0  0  0  0  0  0
    4.9854   -1.8084    0.5039 C   0  0  0  0  0  0  0  0  0  0  0  0
    6.2149   -2.4538    0.6605 C   0  0  0  0  0  0  0  0  0  0  0  0
    7.3790   -1.7065    0.7993 C   0  0  0  0  0  0  0  0  0  0  0  0
    7.3107   -0.3161    0.7887 C   0  0  0  0  0  0  0  0  0  0  0  0
    6.0798    0.3346    0.6314 C   0  0  0  0  0  0  0  0  0  0  0  0
    3.5624    3.5337   -0.5425 H   0  0  0  0  0  0  0  0  0  0  0  0
    4.8890    2.4472   -0.9204 H   0  0  0  0  0  0  0  0  0  0  0  0
    4.6146    3.0036    0.7636 H   0  0  0  0  0  0  0  0  0  0  0  0
    1.2316    2.4137   -0.0183 H   0  0  0  0  0  0  0  0  0  0  0  0
   -0.5977    1.2978   -0.6772 H   0  0  0  0  0  0  0  0  0  0  0  0
   -2.1309   -0.7939   -2.2079 H   0  0  0  0  0  0  0  0  0  0  0  0
   -2.0451   -1.9283   -0.8716 H   0  0  0  0  0  0  0  0  0  0  0  0
   -4.2032   -2.1760   -2.0513 H   0  0  0  0  0  0  0  0  0  0  0  0
   -5.7086   -1.9226   -0.0805 H   0  0  0  0  0  0  0  0  0  0  0  0
   -4.1467   -2.5702    0.4153 H   0  0  0  0  0  0  0  0  0  0  0  0
   -4.8821   -0.7475    1.9574 H   0  0  0  0  0  0  0  0  0  0  0  0
   -6.2524    0.5405    0.3205 H   0  0  0  0  0  0  0  0  0  0  0  0
   -5.0661    1.5875    1.0962 H   0  0  0  0  0  0  0  0  0  0  0  0
   -5.1048    1.9785   -1.3668 H   0  0  0  0  0  0  0  0  0  0  0  0
   -5.8494   -0.3038   -2.0516 H   0  0  0  0  0  0  0  0  0  0  0  0
   -4.3846    0.1595   -2.9144 H   0  0  0  0  0  0  0  0  0  0  0  0
   -2.9482    2.2552   -0.1541 H   0  0  0  0  0  0  0  0  0  0  0  0
   -2.6744    1.6767   -1.7894 H   0  0  0  0  0  0  0  0  0  0  0  0
   -2.8133    0.6448    1.8245 H   0  0  0  0  0  0  0  0  0  0  0  0
   -2.4659   -1.0570    1.5769 H   0  0  0  0  0  0  0  0  0  0  0  0
    4.0931   -2.4253    0.3989 H   0  0  0  0  0  0  0  0  0  0  0  0
    6.2564   -3.5399    0.6758 H   0  0  0  0  0  0  0  0  0  0  0  0
    8.3358   -2.2064    0.9242 H   0  0  0  0  0  0  0  0  0  0  0  0
    8.2193    0.2685    0.9130 H   0  0  0  0  0  0  0  0  0  0  0  0
    6.0982    1.4141    0.6703 H   0  0  0  0  0  0  0  0  0  0  0  0
  1  2  1  0
  2  3  2  0
  3  4  1  0
  4  5  1  0
  5  6  2  0
  5  7  1  0
  8  7  1  1
  8  9  1  0
  9 10  1  0
 10 11  1  0
 11 12  1  0
 12 13  1  0
 13 14  1  0
 14 15  1  0
 14 16  1  0
 12 17  1  0
  4 18  2  0
 18 19  1  0
 19 20  1  0
 20 21  2  0
 21 22  1  0
 22 23  2  0
 23 24  1  0
 24 25  2  0
 19  2  1  0
 25 20  1  0
 16  8  1  0
 17  8  1  0
 15 10  1  0
  1 26  1  0
  1 27  1  0
  1 28  1  0
  3 29  1  0
  7 30  1  0
  9 31  1  0
  9 32  1  0
 10 33  1  6
 11 34  1  0
 11 35  1  0
 12 36  1  1
 13 37  1  0
 13 38  1  0
 14 39  1  6
 15 40  1  0
 15 41  1  0
 16 42  1  0
 16 43  1  0
 17 44  1  0
 17 45  1  0
 21 46  1  0
 22 47  1  0
 23 48  1  0
 24 49  1  0
 25 50  1  0
M  END
>  <_SMILES>  (92) 
Cc1cc(C(=O)N[C@]23C[C@H]4C[C@H](C[C@H](C4)C2)C3)nn1-c1ccccc1

$$$$

     RDKit          3D

 52 55  0  0  0  0  0  0  0  0999 V2000
    7.2288    1.0139   -0.5614 C   0  0  0  0  0  0  0  0  0  0  0  0
    5.7695    0.8203   -0.1806 C   0  0  0  0  0  0  0  0  0  0  0  0
    4.9662    0.2197   -1.3339 C   0  0  0  0  0  0  0  0  0  0  0  0
    3.5233    0.0613   -0.9839 C   0  0  0  0  0  0  0  0  0  0  0  0
    2.4583    0.8917   -1.2668 C   0  0  0  0  0  0  0  0  0  0  0  0
    1.3156    0.2605   -0.7224 C   0  0  0  0  0  0  0  0  0  0  0  0
   -0.0735    0.7479   -0.7620 C   0  0  0  0  0  0  0  0  0  0  0  0
   -0.3888    1.8043   -1.2985 O   0  0  0  0  0  0  0  0  0  0  0  0
   -0.9534   -0.1084   -0.1370 N   0  0  0  0  0  0  0  0  0  0  0  0
   -2.3934    0.0800   -0.0018 C   0  0  2  0  0  0  0  0  0  0  0  0
   -2.7282    1.3640    0.7970 C   0  0  0  0  0  0  0  0  0  0  0  0
   -4.2503    1.5144    0.9668 C   0  0  1  0  0  0  0  0  0  0  0  0
   -4.9101    1.5830   -0.4211 C   0  0  0  0  0  0  0  0  0  0  0  0
   -4.6141    0.2974   -1.2120 C   0  0  2  0  0  0  0  0  0  0  0  0
   -5.1608   -0.9118   -0.4369 C   0  0  0  0  0  0  0  0  0  0  0  0
   -4.4990   -0.9904    0.9478 C   0  0  2  0  0  0  0  0  0  0  0  0
   -4.7991    0.2982    1.7294 C   0  0  0  0  0  0  0  0  0  0  0  0
   -2.9785   -1.1310    0.7725 C   0  0  0  0  0  0  0  0  0  0  0  0
   -3.0921    0.1467   -1.3823 C   0  0  0  0  0  0  0  0  0  0  0  0
    1.6474   -0.9048   -0.1305 N   0  0  0  0  0  0  0  0  0  0  0  0
    2.9853   -0.9950   -0.2911 N   0  0  0  0  0  0  0  0  0  0  0  0
    3.6624   -2.1579    0.2560 C   0  0  0  0  0  0  0  0  0  0  0  0
    3.7518   -2.1172    1.7722 C   0  0  0  0  0  0  0  0  0  0  0  0
    7.6952    0.0591   -0.8245 H   0  0  0  0  0  0  0  0  0  0  0  0
    7.7854    1.4441    0.2771 H   0  0  0  0  0  0  0  0  0  0  0  0
    7.3249    1.6912   -1.4160 H   0  0  0  0  0  0  0  0  0  0  0  0
    5.7150    0.1711    0.7004 H   0  0  0  0  0  0  0  0  0  0  0  0
    5.3429    1.7875    0.1122 H   0  0  0  0  0  0  0  0  0  0  0  0
    5.0461    0.8771   -2.2095 H   0  0  0  0  0  0  0  0  0  0  0  0
    5.3948   -0.7410   -1.6410 H   0  0  0  0  0  0  0  0  0  0  0  0
    2.4855    1.8323   -1.8004 H   0  0  0  0  0  0  0  0  0  0  0  0
   -0.5083   -0.9383    0.2498 H   0  0  0  0  0  0  0  0  0  0  0  0
   -2.3353    2.2534    0.2900 H   0  0  0  0  0  0  0  0  0  0  0  0
   -2.2438    1.3331    1.7818 H   0  0  0  0  0  0  0  0  0  0  0  0
   -4.4701    2.4307    1.5261 H   0  0  0  0  0  0  0  0  0  0  0  0
   -5.9938    1.7145   -0.3135 H   0  0  0  0  0  0  0  0  0  0  0  0
   -4.5367    2.4557   -0.9709 H   0  0  0  0  0  0  0  0  0  0  0  0
   -5.0918    0.3511   -2.1967 H   0  0  0  0  0  0  0  0  0  0  0  0
   -6.2490   -0.8265   -0.3279 H   0  0  0  0  0  0  0  0  0  0  0  0
   -4.9685   -1.8348   -0.9976 H   0  0  0  0  0  0  0  0  0  0  0  0
   -4.8899   -1.8548    1.4960 H   0  0  0  0  0  0  0  0  0  0  0  0
   -5.8810    0.4045    1.8757 H   0  0  0  0  0  0  0  0  0  0  0  0
   -4.3465    0.2459    2.7272 H   0  0  0  0  0  0  0  0  0  0  0  0
   -2.7523   -2.0645    0.2398 H   0  0  0  0  0  0  0  0  0  0  0  0
   -2.4989   -1.2170    1.7568 H   0  0  0  0  0  0  0  0  0  0  0  0
   -2.8690   -0.7584   -1.9625 H   0  0  0  0  0  0  0  0  0  0  0  0
   -2.7130    0.9898   -1.9721 H   0  0  0  0  0  0  0  0  0  0  0  0
    3.1028   -3.0409   -0.0731 H   0  0  0  0  0  0  0  0  0  0  0  0
    4.6630   -2.2235   -0.1783 H   0  0  0  0  0  0  0  0  0  0  0  0
    2.7562   -2.1079    2.2285 H   0  0  0  0  0  0  0  0  0  0  0  0
    4.2863   -2.9967    2.1441 H   0  0  0  0  0  0  0  0  0  0  0  0
    4.2824   -1.2232    2.1147 H   0  0  0  0  0  0  0  0  0  0  0  0
  1  2  1  0
  2  3  1  0
  3  4  1  0
  4  5  2  0
  5  6  1  0
  6  7  1  0
  7  8  2  0
  7  9  1  0
 10  9  1  6
 10 11  1  0
 11 12  1  0
 12 13  1  0
 13 14  1  0
 14 15  1  0
 15 16  1  0
 16 17  1  0
 16 18  1  0
 14 19  1  0
  6 20  2  0
 20 21  1  0
 21 22  1  0
 22 23  1  0
 21  4  1  0
 18 10  1  0
 19 10  1  0
 17 12  1  0
  1 24  1  0
  1 25  1  0
  1 26  1  0
  2 27  1  0
  2 28  1  0
  3 29  1  0
  3 30  1  0
  5 31  1  0
  9 32  1  0
 11 33  1  0
 11 34  1  0
 12 35  1  1
 13 36  1  0
 13 37  1  0
 14 38  1  6
 15 39  1  0
 15 40  1  0
 16 41  1  1
 17 42  1  0
 17 43  1  0
 18 44  1  0
 18 45  1  0
 19 46  1  0
 19 47  1  0
 22 48  1  0
 22 49  1  0
 23 50  1  0
 23 51  1  0
 23 52  1  0
M  END
>  <_SMILES>  (93) 
CCCc1cc(C(=O)N[C@]23C[C@H]4C[C@H](C[C@H](C4)C2)C3)nn1CC

$$$$

     RDKit          3D

 46 49  0  0  0  0  0  0  0  0999 V2000
    6.1387    1.3771    1.4388 C   0  0  0  0  0  0  0  0  0  0  0  0
    6.4255    0.7342    0.0886 C   0  0  0  0  0  0  0  0  0  0  0  0
    5.6941   -0.5942   -0.1150 C   0  0  0  0  0  0  0  0  0  0  0  0
    4.2194   -0.4334   -0.2411 C   0  0  0  0  0  0  0  0  0  0  0  0
    3.1910   -0.6775    0.6409 C   0  0  0  0  0  0  0  0  0  0  0  0
    2.0026   -0.3348   -0.0528 C   0  0  0  0  0  0  0  0  0  0  0  0
    0.6231   -0.4126    0.4586 C   0  0  0  0  0  0  0  0  0  0  0  0
    0.3595   -0.8012    1.5911 O   0  0  0  0  0  0  0  0  0  0  0  0
   -0.3106   -0.0049   -0.4689 N   0  0  0  0  0  0  0  0  0  0  0  0
   -1.7560    0.0396   -0.2765 C   0  0  2  0  0  0  0  0  0  0  0  0
   -2.3357   -1.3657    0.0195 C   0  0  0  0  0  0  0  0  0  0  0  0
   -3.8657   -1.2993    0.1707 C   0  0  1  0  0  0  0  0  0  0  0  0
   -4.2195   -0.3420    1.3215 C   0  0  0  0  0  0  0  0  0  0  0  0
   -3.6793    1.0670    1.0231 C   0  0  2  0  0  0  0  0  0  0  0  0
   -4.2975    1.5799   -0.2870 C   0  0  0  0  0  0  0  0  0  0  0  0
   -3.9403    0.6317   -1.4424 C   0  0  2  0  0  0  0  0  0  0  0  0
   -4.4829   -0.7727   -1.1346 C   0  0  0  0  0  0  0  0  0  0  0  0
   -2.4113    0.5618   -1.5828 C   0  0  0  0  0  0  0  0  0  0  0  0
   -2.1492    1.0011    0.8722 C   0  0  0  0  0  0  0  0  0  0  0  0
    2.2808    0.0951   -1.3028 N   0  0  0  0  0  0  0  0  0  0  0  0
    3.6201    0.0194   -1.3832 N   0  0  0  0  0  0  0  0  0  0  0  0
    6.7451    2.2804    1.5606 H   0  0  0  0  0  0  0  0  0  0  0  0
    5.0878    1.6674    1.5302 H   0  0  0  0  0  0  0  0  0  0  0  0
    6.3816    0.6937    2.2587 H   0  0  0  0  0  0  0  0  0  0  0  0
    7.5044    0.5508    0.0169 H   0  0  0  0  0  0  0  0  0  0  0  0
    6.1697    1.4406   -0.7103 H   0  0  0  0  0  0  0  0  0  0  0  0
    6.0773   -1.0736   -1.0246 H   0  0  0  0  0  0  0  0  0  0  0  0
    5.9235   -1.2755    0.7136 H   0  0  0  0  0  0  0  0  0  0  0  0
    3.2664   -1.0496    1.6539 H   0  0  0  0  0  0  0  0  0  0  0  0
    0.0948    0.2853   -1.3564 H   0  0  0  0  0  0  0  0  0  0  0  0
   -2.0700   -2.0614   -0.7873 H   0  0  0  0  0  0  0  0  0  0  0  0
   -1.9034   -1.7816    0.9374 H   0  0  0  0  0  0  0  0  0  0  0  0
   -4.2585   -2.2990    0.3876 H   0  0  0  0  0  0  0  0  0  0  0  0
   -3.7960   -0.7143    2.2624 H   0  0  0  0  0  0  0  0  0  0  0  0
   -5.3077   -0.3044    1.4552 H   0  0  0  0  0  0  0  0  0  0  0  0
   -3.9400    1.7442    1.8441 H   0  0  0  0  0  0  0  0  0  0  0  0
   -5.3872    1.6519   -0.1844 H   0  0  0  0  0  0  0  0  0  0  0  0
   -3.9308    2.5907   -0.5042 H   0  0  0  0  0  0  0  0  0  0  0  0
   -4.3811    1.0022   -2.3746 H   0  0  0  0  0  0  0  0  0  0  0  0
   -4.2495   -1.4547   -1.9615 H   0  0  0  0  0  0  0  0  0  0  0  0
   -5.5758   -0.7413   -1.0465 H   0  0  0  0  0  0  0  0  0  0  0  0
   -2.0169    1.5562   -1.8316 H   0  0  0  0  0  0  0  0  0  0  0  0
   -2.1467   -0.0915   -2.4251 H   0  0  0  0  0  0  0  0  0  0  0  0
   -1.7496    2.0051    0.6776 H   0  0  0  0  0  0  0  0  0  0  0  0
   -1.7098    0.6753    1.8225 H   0  0  0  0  0  0  0  0  0  0  0  0
    4.0655    0.2969   -2.2520 H   0  0  0  0  0  0  0  0  0  0  0  0
  1  2  1  0
  2  3  1  0
  3  4  1  0
  4  5  2  0
  5  6  1  0
  6  7  1  0
  7  8  2  0
  7  9  1  0
 10  9  1  6
 10 11  1  0
 11 12  1  0
 12 13  1  0
 13 14  1  0
 14 15  1  0
 15 16  1  0
 16 17  1  0
 16 18  1  0
 14 19  1  0
  6 20  2  0
 20 21  1  0
 21  4  1  0
 18 10  1  0
 19 10  1  0
 17 12  1  0
  1 22  1  0
  1 23  1  0
  1 24  1  0
  2 25  1  0
  2 26  1  0
  3 27  1  0
  3 28  1  0
  5 29  1  0
  9 30  1  0
 11 31  1  0
 11 32  1  0
 12 33  1  1
 13 34  1  0
 13 35  1  0
 14 36  1  1
 15 37  1  0
 15 38  1  0
 16 39  1  6
 17 40  1  0
 17 41  1  0
 18 42  1  0
 18 43  1  0
 19 44  1  0
 19 45  1  0
 21 46  1  0
M  END
>  <_SMILES>  (94) 
CCCc1cc(C(=O)N[C@]23C[C@H]4C[C@H](C[C@H](C4)C2)C3)n[nH]1

$$$$

     RDKit          3D

 46 49  0  0  0  0  0  0  0  0999 V2000
    5.7358   -1.2005   -0.9851 C   0  0  0  0  0  0  0  0  0  0  0  0
    6.2616    0.1896   -0.6543 C   0  0  0  0  0  0  0  0  0  0  0  0
    5.2722    1.3054   -0.9980 C   0  0  0  0  0  0  0  0  0  0  0  0
    4.0495    1.3071   -0.1412 C   0  0  0  0  0  0  0  0  0  0  0  0
    2.7480    0.8624   -0.4786 C   0  0  0  0  0  0  0  0  0  0  0  0
    1.9798    1.0762    0.6494 C   0  0  0  0  0  0  0  0  0  0  0  0
    0.5969    0.8466    0.9785 C   0  0  0  0  0  0  0  0  0  0  0  0
    0.1458    1.1342    2.0814 O   0  0  0  0  0  0  0  0  0  0  0  0
   -0.1562    0.2886   -0.0289 N   0  0  0  0  0  0  0  0  0  0  0  0
   -1.5821   -0.0401    0.0659 C   0  0  2  0  0  0  0  0  0  0  0  0
   -2.0353   -0.6479   -1.2899 C   0  0  0  0  0  0  0  0  0  0  0  0
   -3.5269   -1.0168   -1.2593 C   0  0  1  0  0  0  0  0  0  0  0  0
   -3.7689   -2.0446   -0.1430 C   0  0  0  0  0  0  0  0  0  0  0  0
   -3.3518   -1.4540    1.2129 C   0  0  2  0  0  0  0  0  0  0  0  0
   -4.1749   -0.1840    1.4881 C   0  0  0  0  0  0  0  0  0  0  0  0
   -3.9392    0.8517    0.3755 C   0  0  2  0  0  0  0  0  0  0  0  0
   -4.3529    0.2474   -0.9755 C   0  0  0  0  0  0  0  0  0  0  0  0
   -2.4451    1.2185    0.3330 C   0  0  0  0  0  0  0  0  0  0  0  0
   -1.8570   -1.0899    1.1714 C   0  0  0  0  0  0  0  0  0  0  0  0
    2.8426    1.6239    1.5614 N   0  0  0  0  0  0  0  0  0  0  0  0
    4.0979    1.7771    1.1096 N   0  0  0  0  0  0  0  0  0  0  0  0
    4.8646   -1.4556   -0.3743 H   0  0  0  0  0  0  0  0  0  0  0  0
    6.5094   -1.9504   -0.7910 H   0  0  0  0  0  0  0  0  0  0  0  0
    5.4521   -1.2724   -2.0399 H   0  0  0  0  0  0  0  0  0  0  0  0
    6.5316    0.2307    0.4076 H   0  0  0  0  0  0  0  0  0  0  0  0
    7.1839    0.3547   -1.2241 H   0  0  0  0  0  0  0  0  0  0  0  0
    4.9834    1.2308   -2.0538 H   0  0  0  0  0  0  0  0  0  0  0  0
    5.7796    2.2724   -0.8871 H   0  0  0  0  0  0  0  0  0  0  0  0
    2.4359    0.4423   -1.4233 H   0  0  0  0  0  0  0  0  0  0  0  0
    0.3081    0.0849   -0.9012 H   0  0  0  0  0  0  0  0  0  0  0  0
   -1.8475    0.0648   -2.1042 H   0  0  0  0  0  0  0  0  0  0  0  0
   -1.4386   -1.5405   -1.5212 H   0  0  0  0  0  0  0  0  0  0  0  0
   -3.8228   -1.4427   -2.2245 H   0  0  0  0  0  0  0  0  0  0  0  0
   -3.1985   -2.9595   -0.3451 H   0  0  0  0  0  0  0  0  0  0  0  0
   -4.8281   -2.3288   -0.1183 H   0  0  0  0  0  0  0  0  0  0  0  0
   -3.5301   -2.1890    2.0058 H   0  0  0  0  0  0  0  0  0  0  0  0
   -3.8956    0.2403    2.4604 H   0  0  0  0  0  0  0  0  0  0  0  0
   -5.2412   -0.4350    1.5450 H   0  0  0  0  0  0  0  0  0  0  0  0
   -4.5337    1.7502    0.5751 H   0  0  0  0  0  0  0  0  0  0  0  0
   -5.4220    0.0022   -0.9650 H   0  0  0  0  0  0  0  0  0  0  0  0
   -4.2025    0.9816   -1.7765 H   0  0  0  0  0  0  0  0  0  0  0  0
   -2.1679    1.6906    1.2827 H   0  0  0  0  0  0  0  0  0  0  0  0
   -2.2669    1.9705   -0.4468 H   0  0  0  0  0  0  0  0  0  0  0  0
   -1.2574   -1.9921    0.9924 H   0  0  0  0  0  0  0  0  0  0  0  0
   -1.5556   -0.7123    2.1554 H   0  0  0  0  0  0  0  0  0  0  0  0
    2.6199    1.9116    2.5097 H   0  0  0  0  0  0  0  0  0  0  0  0
  1  2  1  0
  2  3  1  0
  3  4  1  0
  4  5  1  0
  5  6  2  0
  6  7  1  0
  7  8  2  0
  7  9  1  0
 10  9  1  6
 10 11  1  0
 11 12  1  0
 12 13  1  0
 13 14  1  0
 14 15  1  0
 15 16  1  0
 16 17  1  0
 16 18  1  0
 14 19  1  0
  6 20  1  0
 20 21  1  0
 21  4  2  0
 18 10  1  0
 19 10  1  0
 17 12  1  0
  1 22  1  0
  1 23  1  0
  1 24  1  0
  2 25  1  0
  2 26  1  0
  3 27  1  0
  3 28  1  0
  5 29  1  0
  9 30  1  0
 11 31  1  0
 11 32  1  0
 12 33  1  6
 13 34  1  0
 13 35  1  0
 14 36  1  1
 15 37  1  0
 15 38  1  0
 16 39  1  1
 17 40  1  0
 17 41  1  0
 18 42  1  0
 18 43  1  0
 19 44  1  0
 19 45  1  0
 20 46  1  0
M  END
>  <_SMILES>  (95) 
CCCc1cc(C(=O)N[C@]23C[C@H]4C[C@H](C[C@H](C4)C2)C3)[nH]n1

$$$$

     RDKit          3D

 53 56  0  0  0  0  0  0  0  0999 V2000
    4.3268   -3.1031   -1.2451 C   0  0  0  0  0  0  0  0  0  0  0  0
    4.5059   -1.8012   -0.9824 C   0  0  0  0  0  0  0  0  0  0  0  0
    3.8790   -0.6810   -1.7653 C   0  0  0  0  0  0  0  0  0  0  0  0
    3.0705    0.2015   -0.9254 N   0  0  0  0  0  0  0  0  0  0  0  0
    1.7367   -0.0151   -0.8600 N   0  0  0  0  0  0  0  0  0  0  0  0
    1.2735    0.9726   -0.0685 C   0  0  0  0  0  0  0  0  0  0  0  0
   -0.1550    1.0982    0.2671 C   0  0  0  0  0  0  0  0  0  0  0  0
   -0.5904    1.9955    0.9802 O   0  0  0  0  0  0  0  0  0  0  0  0
   -0.9223    0.1056   -0.3024 N   0  0  0  0  0  0  0  0  0  0  0  0
   -2.3614   -0.0715   -0.1446 C   0  0  2  0  0  0  0  0  0  0  0  0
   -2.7460   -0.3161    1.3354 C   0  0  0  0  0  0  0  0  0  0  0  0
   -4.2615   -0.5480    1.4695 C   0  0  1  0  0  0  0  0  0  0  0  0
   -5.0114    0.6855    0.9383 C   0  0  0  0  0  0  0  0  0  0  0  0
   -4.6647    0.9189   -0.5421 C   0  0  2  0  0  0  0  0  0  0  0  0
   -5.0631   -0.3212   -1.3577 C   0  0  0  0  0  0  0  0  0  0  0  0
   -4.3104   -1.5556   -0.8369 C   0  0  2  0  0  0  0  0  0  0  0  0
   -4.6620   -1.7798    0.6422 C   0  0  0  0  0  0  0  0  0  0  0  0
   -2.7978   -1.3147   -0.9646 C   0  0  0  0  0  0  0  0  0  0  0  0
   -3.1493    1.1512   -0.6766 C   0  0  0  0  0  0  0  0  0  0  0  0
    2.3272    1.8155    0.3542 C   0  0  0  0  0  0  0  0  0  0  0  0
    3.4811    1.2947   -0.1968 C   0  0  0  0  0  0  0  0  0  0  0  0
    4.8942    1.7736   -0.0898 C   0  0  0  0  0  0  0  0  0  0  0  0
    5.3608    1.9611    1.3573 C   0  0  0  0  0  0  0  0  0  0  0  0
    5.4995    0.6486    2.1161 C   0  0  0  0  0  0  0  0  0  0  0  0
    3.6924   -3.4416   -2.0590 H   0  0  0  0  0  0  0  0  0  0  0  0
    4.8064   -3.8639   -0.6362 H   0  0  0  0  0  0  0  0  0  0  0  0
    5.1455   -1.5200   -0.1496 H   0  0  0  0  0  0  0  0  0  0  0  0
    4.6499   -0.0703   -2.2455 H   0  0  0  0  0  0  0  0  0  0  0  0
    3.2256   -1.0579   -2.5614 H   0  0  0  0  0  0  0  0  0  0  0  0
   -0.3817   -0.5650   -0.8454 H   0  0  0  0  0  0  0  0  0  0  0  0
   -2.1993   -1.1829    1.7293 H   0  0  0  0  0  0  0  0  0  0  0  0
   -2.4578    0.5378    1.9601 H   0  0  0  0  0  0  0  0  0  0  0  0
   -4.5178   -0.7113    2.5222 H   0  0  0  0  0  0  0  0  0  0  0  0
   -6.0931    0.5422    1.0507 H   0  0  0  0  0  0  0  0  0  0  0  0
   -4.7444    1.5699    1.5297 H   0  0  0  0  0  0  0  0  0  0  0  0
   -5.2066    1.7953   -0.9147 H   0  0  0  0  0  0  0  0  0  0  0  0
   -6.1454   -0.4847   -1.2869 H   0  0  0  0  0  0  0  0  0  0  0  0
   -4.8338   -0.1618   -2.4185 H   0  0  0  0  0  0  0  0  0  0  0  0
   -4.5956   -2.4368   -1.4224 H   0  0  0  0  0  0  0  0  0  0  0  0
   -5.7375   -1.9684    0.7474 H   0  0  0  0  0  0  0  0  0  0  0  0
   -4.1442   -2.6699    1.0202 H   0  0  0  0  0  0  0  0  0  0  0  0
   -2.5321   -1.1817   -2.0220 H   0  0  0  0  0  0  0  0  0  0  0  0
   -2.2516   -2.2037   -0.6218 H   0  0  0  0  0  0  0  0  0  0  0  0
   -2.8919    1.3381   -1.7275 H   0  0  0  0  0  0  0  0  0  0  0  0
   -2.8775    2.0608   -0.1281 H   0  0  0  0  0  0  0  0  0  0  0  0
    2.2403    2.6869    0.9894 H   0  0  0  0  0  0  0  0  0  0  0  0
    5.5913    1.1026   -0.6012 H   0  0  0  0  0  0  0  0  0  0  0  0
    4.9618    2.7395   -0.6064 H   0  0  0  0  0  0  0  0  0  0  0  0
    4.6789    2.6247    1.9019 H   0  0  0  0  0  0  0  0  0  0  0  0
    6.3387    2.4574    1.3453 H   0  0  0  0  0  0  0  0  0  0  0  0
    4.5398    0.1301    2.2027 H   0  0  0  0  0  0  0  0  0  0  0  0
    5.8704    0.8377    3.1285 H   0  0  0  0  0  0  0  0  0  0  0  0
    6.2095   -0.0182    1.6170 H   0  0  0  0  0  0  0  0  0  0  0  0
  1  2  2  0
  2  3  1  0
  3  4  1  0
  4  5  1  0
  5  6  2  0
  6  7  1  0
  7  8  2  0
  7  9  1  0
 10  9  1  1
 10 11  1  0
 11 12  1  0
 12 13  1  0
 13 14  1  0
 14 15  1  0
 15 16  1  0
 16 17  1  0
 16 18  1  0
 14 19  1  0
  6 20  1  0
 20 21  2  0
 21 22  1  0
 22 23  1  0
 23 24  1  0
 21  4  1  0
 18 10  1  0
 19 10  1  0
 17 12  1  0
  1 25  1  0
  1 26  1  0
  2 27  1  0
  3 28  1  0
  3 29  1  0
  9 30  1  0
 11 31  1  0
 11 32  1  0
 12 33  1  1
 13 34  1  0
 13 35  1  0
 14 36  1  6
 15 37  1  0
 15 38  1  0
 16 39  1  6
 17 40  1  0
 17 41  1  0
 18 42  1  0
 18 43  1  0
 19 44  1  0
 19 45  1  0
 20 46  1  0
 22 47  1  0
 22 48  1  0
 23 49  1  0
 23 50  1  0
 24 51  1  0
 24 52  1  0
 24 53  1  0
M  END
>  <_SMILES>  (96) 
C=CCn1nc(C(=O)N[C@]23C[C@H]4C[C@H](C[C@H](C4)C2)C3)cc1CCC

$$$$

     RDKit          3D

 32 34  0  0  0  0  0  0  0  0999 V2000
    4.2137   -0.3279   -0.5679 C   0  0  0  0  0  0  0  0  0  0  0  0
    2.7921   -0.4631   -0.5815 O   0  0  0  0  0  0  0  0  0  0  0  0
    2.1396    0.4283    0.2182 C   0  0  0  0  0  0  0  0  0  0  0  0
    2.6953    1.2805    0.8990 O   0  0  0  0  0  0  0  0  0  0  0  0
    0.6282    0.2190    0.1484 C   0  0  2  0  0  0  0  0  0  0  0  0
    0.1219    0.4193   -1.2988 C   0  0  0  0  0  0  0  0  0  0  0  0
   -1.4013    0.2121   -1.3676 C   0  0  1  0  0  0  0  0  0  0  0  0
   -1.7401   -1.2116   -0.8927 C   0  0  0  0  0  0  0  0  0  0  0  0
   -1.2649   -1.4140    0.5565 C   0  0  2  0  0  0  0  0  0  0  0  0
   -1.9584   -0.3858    1.4649 C   0  0  0  0  0  0  0  0  0  0  0  0
   -1.6179    1.0398    1.0014 C   0  0  2  0  0  0  0  0  0  0  0  0
   -2.0939    1.2307   -0.4479 C   0  0  0  0  0  0  0  0  0  0  0  0
   -0.0945    1.2400    1.0625 C   0  0  0  0  0  0  0  0  0  0  0  0
    0.2582   -1.2052    0.6234 C   0  0  0  0  0  0  0  0  0  0  0  0
    4.5083    0.6601   -0.9353 H   0  0  0  0  0  0  0  0  0  0  0  0
    4.6057   -0.5015    0.4391 H   0  0  0  0  0  0  0  0  0  0  0  0
    4.6320   -1.0847   -1.2372 H   0  0  0  0  0  0  0  0  0  0  0  0
    0.6150   -0.2837   -1.9825 H   0  0  0  0  0  0  0  0  0  0  0  0
    0.3808    1.4250   -1.6548 H   0  0  0  0  0  0  0  0  0  0  0  0
   -1.7465    0.3502   -2.3983 H   0  0  0  0  0  0  0  0  0  0  0  0
   -2.8221   -1.3798   -0.9582 H   0  0  0  0  0  0  0  0  0  0  0  0
   -1.2631   -1.9491   -1.5499 H   0  0  0  0  0  0  0  0  0  0  0  0
   -1.5135   -2.4280    0.8890 H   0  0  0  0  0  0  0  0  0  0  0  0
   -3.0445   -0.5379    1.4419 H   0  0  0  0  0  0  0  0  0  0  0  0
   -1.6388   -0.5285    2.5045 H   0  0  0  0  0  0  0  0  0  0  0  0
   -2.1134    1.7686    1.6524 H   0  0  0  0  0  0  0  0  0  0  0  0
   -1.8719    2.2510   -0.7842 H   0  0  0  0  0  0  0  0  0  0  0  0
   -3.1824    1.1067   -0.5040 H   0  0  0  0  0  0  0  0  0  0  0  0
    0.1553    2.2655    0.7595 H   0  0  0  0  0  0  0  0  0  0  0  0
    0.2503    1.1329    2.0996 H   0  0  0  0  0  0  0  0  0  0  0  0
    0.6150   -1.3671    1.6489 H   0  0  0  0  0  0  0  0  0  0  0  0
    0.7557   -1.9619    0.0033 H   0  0  0  0  0  0  0  0  0  0  0  0
  1  2  1  0
  2  3  1  0
  3  4  2  0
  5  3  1  6
  5  6  1  0
  6  7  1  0
  7  8  1  0
  8  9  1  0
  9 10  1  0
 10 11  1  0
 11 12  1  0
 11 13  1  0
  9 14  1  0
 13  5  1  0
 14  5  1  0
 12  7  1  0
  1 15  1  0
  1 16  1  0
  1 17  1  0
  6 18  1  0
  6 19  1  0
  7 20  1  6
  8 21  1  0
  8 22  1  0
  9 23  1  1
 10 24  1  0
 10 25  1  0
 11 26  1  1
 12 27  1  0
 12 28  1  0
 13 29  1  0
 13 30  1  0
 14 31  1  0
 14 32  1  0
M  END
>  <_SMILES>  (97) 
COC(=O)[C@]12C[C@H]3C[C@H](C[C@H](C3)C1)C2

$$$$

     RDKit          3D

 51 53  0  0  0  0  0  0  0  0999 V2000
   -4.6403    3.8802    1.1015 C   0  0  0  0  0  0  0  0  0  0  0  0
   -3.3157    3.1397    1.1958 C   0  0  0  0  0  0  0  0  0  0  0  0
   -3.0005    2.3921   -0.1003 C   0  0  0  0  0  0  0  0  0  0  0  0
   -1.7045    1.6576   -0.0079 C   0  0  0  0  0  0  0  0  0  0  0  0
   -0.4291    2.0794   -0.3202 C   0  0  0  0  0  0  0  0  0  0  0  0
    0.4238    0.9865   -0.0386 C   0  0  0  0  0  0  0  0  0  0  0  0
    1.8859    0.9378   -0.1992 C   0  0  0  0  0  0  0  0  0  0  0  0
    2.5503    1.8989   -0.5740 O   0  0  0  0  0  0  0  0  0  0  0  0
    2.4231   -0.2895    0.1296 N   0  0  0  0  0  0  0  0  0  0  0  0
    3.8490   -0.5201    0.2458 C   0  0  0  0  0  0  0  0  0  0  0  0
    4.3800   -0.0337    1.5967 C   0  0  0  0  0  0  0  0  0  0  0  0
    5.9004   -0.1788    1.6978 C   0  0  0  0  0  0  0  0  0  0  0  0
    6.4655   -1.3175    0.8473 C   0  0  0  0  0  0  0  0  0  0  0  0
    5.4700   -2.4592    0.6990 C   0  0  0  0  0  0  0  0  0  0  0  0
    4.1722   -2.0063    0.0251 C   0  0  0  0  0  0  0  0  0  0  0  0
   -0.2782   -0.0630    0.4352 N   0  0  0  0  0  0  0  0  0  0  0  0
   -1.5657    0.3574    0.4177 N   0  0  0  0  0  0  0  0  0  0  0  0
   -2.6072   -0.5521    0.8925 C   0  0  0  0  0  0  0  0  0  0  0  0
   -3.3732   -1.2045   -0.2338 C   0  0  0  0  0  0  0  0  0  0  0  0
   -4.7752   -1.1436   -0.2621 C   0  0  0  0  0  0  0  0  0  0  0  0
   -5.4928   -1.7623   -1.2875 C   0  0  0  0  0  0  0  0  0  0  0  0
   -4.8198   -2.4565   -2.2905 C   0  0  0  0  0  0  0  0  0  0  0  0
   -3.4294   -2.5370   -2.2674 C   0  0  0  0  0  0  0  0  0  0  0  0
   -2.7100   -1.9199   -1.2429 C   0  0  0  0  0  0  0  0  0  0  0  0
   -4.6218    4.6158    0.2911 H   0  0  0  0  0  0  0  0  0  0  0  0
   -5.4656    3.1851    0.9169 H   0  0  0  0  0  0  0  0  0  0  0  0
   -4.8456    4.4103    2.0368 H   0  0  0  0  0  0  0  0  0  0  0  0
   -2.5173    3.8579    1.4195 H   0  0  0  0  0  0  0  0  0  0  0  0
   -3.3559    2.4402    2.0393 H   0  0  0  0  0  0  0  0  0  0  0  0
   -2.9430    3.1094   -0.9291 H   0  0  0  0  0  0  0  0  0  0  0  0
   -3.8178    1.7078   -0.3491 H   0  0  0  0  0  0  0  0  0  0  0  0
   -0.1355    3.0489   -0.7001 H   0  0  0  0  0  0  0  0  0  0  0  0
    1.7566   -0.9334    0.5494 H   0  0  0  0  0  0  0  0  0  0  0  0
    4.3395    0.0657   -0.5431 H   0  0  0  0  0  0  0  0  0  0  0  0
    4.1038    1.0123    1.7766 H   0  0  0  0  0  0  0  0  0  0  0  0
    3.9060   -0.6115    2.4016 H   0  0  0  0  0  0  0  0  0  0  0  0
    6.1686   -0.3328    2.7501 H   0  0  0  0  0  0  0  0  0  0  0  0
    6.3832    0.7580    1.3942 H   0  0  0  0  0  0  0  0  0  0  0  0
    6.7245   -0.9347   -0.1479 H   0  0  0  0  0  0  0  0  0  0  0  0
    7.3981   -1.6812    1.2933 H   0  0  0  0  0  0  0  0  0  0  0  0
    5.2392   -2.8639    1.6926 H   0  0  0  0  0  0  0  0  0  0  0  0
    5.9152   -3.2796    0.1248 H   0  0  0  0  0  0  0  0  0  0  0  0
    4.2354   -2.1908   -1.0552 H   0  0  0  0  0  0  0  0  0  0  0  0
    3.3558   -2.6454    0.3858 H   0  0  0  0  0  0  0  0  0  0  0  0
   -2.1310   -1.3214    1.5119 H   0  0  0  0  0  0  0  0  0  0  0  0
   -3.2656    0.0307    1.5456 H   0  0  0  0  0  0  0  0  0  0  0  0
   -5.3223   -0.6112    0.5131 H   0  0  0  0  0  0  0  0  0  0  0  0
   -6.5782   -1.7045   -1.3036 H   0  0  0  0  0  0  0  0  0  0  0  0
   -5.3786   -2.9376   -3.0890 H   0  0  0  0  0  0  0  0  0  0  0  0
   -2.9028   -3.0814   -3.0472 H   0  0  0  0  0  0  0  0  0  0  0  0
   -1.6235   -1.9981   -1.2402 H   0  0  0  0  0  0  0  0  0  0  0  0
  1  2  1  0
  2  3  1  0
  3  4  1  0
  4  5  2  0
  5  6  1  0
  6  7  1  0
  7  8  2  0
  7  9  1  0
  9 10  1  0
 10 11  1  0
 11 12  1  0
 12 13  1  0
 13 14  1  0
 14 15  1  0
  6 16  2  0
 16 17  1  0
 17 18  1  0
 18 19  1  0
 19 20  2  0
 20 21  1  0
 21 22  2  0
 22 23  1  0
 23 24  2  0
 17  4  1  0
 24 19  1  0
 15 10  1  0
  1 25  1  0
  1 26  1  0
  1 27  1  0
  2 28  1  0
  2 29  1  0
  3 30  1  0
  3 31  1  0
  5 32  1  0
  9 33  1  0
 10 34  1  0
 11 35  1  0
 11 36  1  0
 12 37  1  0
 12 38  1  0
 13 39  1  0
 13 40  1  0
 14 41  1  0
 14 42  1  0
 15 43  1  0
 15 44  1  0
 18 45  1  0
 18 46  1  0
 20 47  1  0
 21 48  1  0
 22 49  1  0
 23 50  1  0
 24 51  1  0
M  END
>  <_SMILES>  (98) 
CCCc1cc(C(=O)NC2CCCCC2)nn1Cc1ccccc1

$$$$
